default_name
  -OEChem-02102213163D

 33 32  0     1  0  0  0  0  0999 V2000
   -3.8420   -3.6918    1.5562 H   0  0  0  0  0  0  0  0  0  0  0  0
   -3.8430   -2.7008    1.1032 C   0  0  0  0  0  0  0  0  0  0  0  0
   -4.5510   -2.0608    1.6242 H   0  0  0  0  0  0  0  0  0  0  0  0
   -4.1140   -2.7798    0.0522 H   0  0  0  0  0  0  0  0  0  0  0  0
   -2.4570   -2.1098    1.2172 C   0  0  0  0  0  0  0  0  0  0  0  0
   -1.5600   -2.7438    1.7572 O   0  0  0  0  0  0  0  0  0  0  0  0
   -2.2870   -0.8898    0.7102 N   0  0  0  0  0  0  0  0  0  0  0  0
   -3.0820   -0.4218    0.2992 H   0  0  0  0  0  0  0  0  0  0  0  0
   -1.0240   -0.1468    0.7262 C   0  0  1  0  0  0  0  0  0  0  0  0
   -0.2680   -0.7367    0.2062 H   0  0  0  0  0  0  0  0  0  0  0  0
   -1.2212    1.1806   -0.0314 C   0  0  0  0  0  0  0  0  0  0  0  0
   -1.5175    0.9538   -1.0576 H   0  0  0  0  0  0  0  0  0  0  0  0
   -2.0267    1.7467    0.4384 H   0  0  0  0  0  0  0  0  0  0  0  0
    0.0465    2.0479   -0.0789 C   0  0  0  0  0  0  0  0  0  0  0  0
    0.3609    2.2924    0.9361 H   0  0  0  0  0  0  0  0  0  0  0  0
    0.8435    1.4916   -0.5757 H   0  0  0  0  0  0  0  0  0  0  0  0
   -0.2105    3.3515   -0.8433 C   0  0  0  0  0  0  0  0  0  0  0  0
   -0.5337    3.1230   -1.8593 H   0  0  0  0  0  0  0  0  0  0  0  0
   -0.9897    3.9221   -0.3372 H   0  0  0  0  0  0  0  0  0  0  0  0
    1.0703    4.1821   -0.8968 C   0  0  0  0  0  0  0  0  0  0  0  0
    1.3848    4.4272    0.1163 H   0  0  0  0  0  0  0  0  0  0  0  0
    1.8546    3.6069   -1.3861 H   0  0  0  0  0  0  0  0  0  0  0  0
    0.8654    5.4287   -1.6434 N   0  0  0  0  0  0  0  0  0  0  0  0
    1.7254    5.9573   -1.6467 H   0  0  0  0  0  0  0  0  0  0  0  0
    0.6044    5.2067   -2.5936 H   0  0  0  0  0  0  0  0  0  0  0  0
   -0.5564    0.0727    2.1744 C   0  0  0  0  0  0  0  0  0  0  0  0
    0.6169   -0.1288    2.4805 O   0  0  0  0  0  0  0  0  0  0  0  0
   -1.4759    0.4743    3.0595 N   0  0  0  0  0  0  0  0  0  0  0  0
   -2.4132    0.6318    2.7275 H   0  0  0  0  0  0  0  0  0  0  0  0
   -1.1971    0.7118    4.4750 C   0  0  0  0  0  0  0  0  0  0  0  0
   -0.3779    1.4272    4.5748 H   0  0  0  0  0  0  0  0  0  0  0  0
   -2.0826    1.1064    4.9754 H   0  0  0  0  0  0  0  0  0  0  0  0
   -0.8992   -0.2240    4.9525 H   0  0  0  0  0  0  0  0  0  0  0  0
  5  6  2  0  0  0  0
  5  7  1  0  0  0  0
  2  3  1  0  0  0  0
  2  4  1  0  0  0  0
  2  5  1  0  0  0  0
  1  2  1  0  0  0  0
 26 27  2  0  0  0  0
 26 28  1  0  0  0  0
 23 24  1  0  0  0  0
 23 25  1  0  0  0  0
 20 21  1  0  0  0  0
 20 22  1  0  0  0  0
 20 23  1  0  0  0  0
 17 18  1  0  0  0  0
 17 19  1  0  0  0  0
 17 20  1  0  0  0  0
 14 15  1  0  0  0  0
 14 16  1  0  0  0  0
 14 17  1  0  0  0  0
 11 12  1  0  0  0  0
 11 13  1  0  0  0  0
 11 14  1  0  0  0  0
  9 10  1  0  0  0  0
  9 11  1  0  0  0  0
  9 26  1  0  0  0  0
  7  8  1  0  0  0  0
  7  9  1  0  0  0  0
 30 31  1  0  0  0  0
 30 32  1  0  0  0  0
 30 33  1  0  0  0  0
 28 29  1  0  0  0  0
 28 30  1  0  0  0  0
M  END
$$$$
default_name
  -OEChem-02102213163D

 33 32  0     1  0  0  0  0  0999 V2000
   -3.8420   -3.6918    1.5562 H   0  0  0  0  0  0  0  0  0  0  0  0
   -3.8430   -2.7008    1.1032 C   0  0  0  0  0  0  0  0  0  0  0  0
   -4.5510   -2.0608    1.6242 H   0  0  0  0  0  0  0  0  0  0  0  0
   -4.1140   -2.7798    0.0522 H   0  0  0  0  0  0  0  0  0  0  0  0
   -2.4570   -2.1098    1.2172 C   0  0  0  0  0  0  0  0  0  0  0  0
   -1.5600   -2.7438    1.7572 O   0  0  0  0  0  0  0  0  0  0  0  0
   -2.2870   -0.8898    0.7102 N   0  0  0  0  0  0  0  0  0  0  0  0
   -3.0820   -0.4218    0.2992 H   0  0  0  0  0  0  0  0  0  0  0  0
   -1.0240   -0.1468    0.7262 C   0  0  1  0  0  0  0  0  0  0  0  0
   -0.2680   -0.7367    0.2062 H   0  0  0  0  0  0  0  0  0  0  0  0
   -1.2212    1.1806   -0.0314 C   0  0  0  0  0  0  0  0  0  0  0  0
   -1.5175    0.9538   -1.0576 H   0  0  0  0  0  0  0  0  0  0  0  0
   -2.0267    1.7467    0.4384 H   0  0  0  0  0  0  0  0  0  0  0  0
    0.0465    2.0479   -0.0789 C   0  0  0  0  0  0  0  0  0  0  0  0
    0.5107    2.0719    0.9074 H   0  0  0  0  0  0  0  0  0  0  0  0
    0.7494    1.6172   -0.7944 H   0  0  0  0  0  0  0  0  0  0  0  0
   -0.2875    3.4828   -0.5019 C   0  0  0  0  0  0  0  0  0  0  0  0
   -0.7602    3.4746   -1.4845 H   0  0  0  0  0  0  0  0  0  0  0  0
   -0.9712    3.9258    0.2230 H   0  0  0  0  0  0  0  0  0  0  0  0
    0.9913    4.3157   -0.5650 C   0  0  0  0  0  0  0  0  0  0  0  0
    1.4554    4.3407    0.4197 H   0  0  0  0  0  0  0  0  0  0  0  0
    1.6823    3.8649   -1.2754 H   0  0  0  0  0  0  0  0  0  0  0  0
    0.7100    5.6916   -0.9906 N   0  0  0  0  0  0  0  0  0  0  0  0
    1.5728    6.2154   -1.0077 H   0  0  0  0  0  0  0  0  0  0  0  0
    0.3086    5.6762   -1.9174 H   0  0  0  0  0  0  0  0  0  0  0  0
   -0.5564    0.0727    2.1744 C   0  0  0  0  0  0  0  0  0  0  0  0
    0.6169   -0.1288    2.4805 O   0  0  0  0  0  0  0  0  0  0  0  0
   -1.4759    0.4743    3.0595 N   0  0  0  0  0  0  0  0  0  0  0  0
   -2.4132    0.6318    2.7275 H   0  0  0  0  0  0  0  0  0  0  0  0
   -1.1971    0.7118    4.4750 C   0  0  0  0  0  0  0  0  0  0  0  0
   -0.3779    1.4272    4.5748 H   0  0  0  0  0  0  0  0  0  0  0  0
   -2.0826    1.1064    4.9754 H   0  0  0  0  0  0  0  0  0  0  0  0
   -0.8992   -0.2240    4.9525 H   0  0  0  0  0  0  0  0  0  0  0  0
  5  6  2  0  0  0  0
  5  7  1  0  0  0  0
  2  3  1  0  0  0  0
  2  4  1  0  0  0  0
  2  5  1  0  0  0  0
  1  2  1  0  0  0  0
 26 27  2  0  0  0  0
 26 28  1  0  0  0  0
 23 24  1  0  0  0  0
 23 25  1  0  0  0  0
 20 21  1  0  0  0  0
 20 22  1  0  0  0  0
 20 23  1  0  0  0  0
 17 18  1  0  0  0  0
 17 19  1  0  0  0  0
 17 20  1  0  0  0  0
 14 15  1  0  0  0  0
 14 16  1  0  0  0  0
 14 17  1  0  0  0  0
 11 12  1  0  0  0  0
 11 13  1  0  0  0  0
 11 14  1  0  0  0  0
  9 10  1  0  0  0  0
  9 11  1  0  0  0  0
  9 26  1  0  0  0  0
  7  8  1  0  0  0  0
  7  9  1  0  0  0  0
 30 31  1  0  0  0  0
 30 32  1  0  0  0  0
 30 33  1  0  0  0  0
 28 29  1  0  0  0  0
 28 30  1  0  0  0  0
M  END
$$$$
default_name
  -OEChem-02102213163D

 33 32  0     1  0  0  0  0  0999 V2000
   -3.8420   -3.6918    1.5562 H   0  0  0  0  0  0  0  0  0  0  0  0
   -3.8430   -2.7008    1.1032 C   0  0  0  0  0  0  0  0  0  0  0  0
   -4.5510   -2.0608    1.6242 H   0  0  0  0  0  0  0  0  0  0  0  0
   -4.1140   -2.7798    0.0522 H   0  0  0  0  0  0  0  0  0  0  0  0
   -2.4570   -2.1098    1.2172 C   0  0  0  0  0  0  0  0  0  0  0  0
   -1.5600   -2.7438    1.7572 O   0  0  0  0  0  0  0  0  0  0  0  0
   -2.2870   -0.8898    0.7102 N   0  0  0  0  0  0  0  0  0  0  0  0
   -3.0820   -0.4218    0.2992 H   0  0  0  0  0  0  0  0  0  0  0  0
   -1.0240   -0.1468    0.7262 C   0  0  1  0  0  0  0  0  0  0  0  0
   -0.2680   -0.7367    0.2062 H   0  0  0  0  0  0  0  0  0  0  0  0
   -1.2212    1.1806   -0.0314 C   0  0  0  0  0  0  0  0  0  0  0  0
   -1.5175    0.9538   -1.0576 H   0  0  0  0  0  0  0  0  0  0  0  0
   -2.0267    1.7467    0.4384 H   0  0  0  0  0  0  0  0  0  0  0  0
    0.0465    2.0479   -0.0789 C   0  0  0  0  0  0  0  0  0  0  0  0
    0.6494    1.8638    0.8107 H   0  0  0  0  0  0  0  0  0  0  0  0
    0.6276    1.7859   -0.9650 H   0  0  0  0  0  0  0  0  0  0  0  0
   -0.3111    3.5375   -0.1329 C   0  0  0  0  0  0  0  0  0  0  0  0
   -0.9215    3.7361   -1.0144 H   0  0  0  0  0  0  0  0  0  0  0  0
   -0.8714    3.8095    0.7621 H   0  0  0  0  0  0  0  0  0  0  0  0
    0.9646    4.3746   -0.2044 C   0  0  0  0  0  0  0  0  0  0  0  0
    1.5671    4.1918    0.6839 H   0  0  0  0  0  0  0  0  0  0  0  0
    1.5342    4.0917   -1.0881 H   0  0  0  0  0  0  0  0  0  0  0  0
    0.6574    5.8074   -0.2813 N   0  0  0  0  0  0  0  0  0  0  0  0
    1.5208    6.3294   -0.3130 H   0  0  0  0  0  0  0  0  0  0  0  0
    0.1253    5.9876   -1.1208 H   0  0  0  0  0  0  0  0  0  0  0  0
   -0.5564    0.0727    2.1744 C   0  0  0  0  0  0  0  0  0  0  0  0
    0.6169   -0.1288    2.4805 O   0  0  0  0  0  0  0  0  0  0  0  0
   -1.4759    0.4743    3.0595 N   0  0  0  0  0  0  0  0  0  0  0  0
   -2.4132    0.6318    2.7275 H   0  0  0  0  0  0  0  0  0  0  0  0
   -1.1971    0.7118    4.4750 C   0  0  0  0  0  0  0  0  0  0  0  0
   -0.3779    1.4272    4.5748 H   0  0  0  0  0  0  0  0  0  0  0  0
   -2.0826    1.1064    4.9754 H   0  0  0  0  0  0  0  0  0  0  0  0
   -0.8992   -0.2240    4.9525 H   0  0  0  0  0  0  0  0  0  0  0  0
  5  6  2  0  0  0  0
  5  7  1  0  0  0  0
  2  3  1  0  0  0  0
  2  4  1  0  0  0  0
  2  5  1  0  0  0  0
  1  2  1  0  0  0  0
 26 27  2  0  0  0  0
 26 28  1  0  0  0  0
 23 24  1  0  0  0  0
 23 25  1  0  0  0  0
 20 21  1  0  0  0  0
 20 22  1  0  0  0  0
 20 23  1  0  0  0  0
 17 18  1  0  0  0  0
 17 19  1  0  0  0  0
 17 20  1  0  0  0  0
 14 15  1  0  0  0  0
 14 16  1  0  0  0  0
 14 17  1  0  0  0  0
 11 12  1  0  0  0  0
 11 13  1  0  0  0  0
 11 14  1  0  0  0  0
  9 10  1  0  0  0  0
  9 11  1  0  0  0  0
  9 26  1  0  0  0  0
  7  8  1  0  0  0  0
  7  9  1  0  0  0  0
 30 31  1  0  0  0  0
 30 32  1  0  0  0  0
 30 33  1  0  0  0  0
 28 29  1  0  0  0  0
 28 30  1  0  0  0  0
M  END
$$$$
default_name
  -OEChem-02102213163D

 33 32  0     1  0  0  0  0  0999 V2000
   -3.8420   -3.6918    1.5562 H   0  0  0  0  0  0  0  0  0  0  0  0
   -3.8430   -2.7008    1.1032 C   0  0  0  0  0  0  0  0  0  0  0  0
   -4.5510   -2.0608    1.6242 H   0  0  0  0  0  0  0  0  0  0  0  0
   -4.1140   -2.7798    0.0522 H   0  0  0  0  0  0  0  0  0  0  0  0
   -2.4570   -2.1098    1.2172 C   0  0  0  0  0  0  0  0  0  0  0  0
   -1.5600   -2.7438    1.7572 O   0  0  0  0  0  0  0  0  0  0  0  0
   -2.2870   -0.8898    0.7102 N   0  0  0  0  0  0  0  0  0  0  0  0
   -3.0820   -0.4218    0.2992 H   0  0  0  0  0  0  0  0  0  0  0  0
   -1.0240   -0.1468    0.7262 C   0  0  1  0  0  0  0  0  0  0  0  0
   -0.2680   -0.7367    0.2062 H   0  0  0  0  0  0  0  0  0  0  0  0
   -1.2212    1.1806   -0.0314 C   0  0  0  0  0  0  0  0  0  0  0  0
   -1.5175    0.9538   -1.0576 H   0  0  0  0  0  0  0  0  0  0  0  0
   -2.0267    1.7467    0.4384 H   0  0  0  0  0  0  0  0  0  0  0  0
    0.0465    2.0479   -0.0789 C   0  0  0  0  0  0  0  0  0  0  0  0
    0.7676    1.6824    0.6527 H   0  0  0  0  0  0  0  0  0  0  0  0
    0.4864    1.9863   -1.0760 H   0  0  0  0  0  0  0  0  0  0  0  0
   -0.2795    3.5116    0.2386 C   0  0  0  0  0  0  0  0  0  0  0  0
   -1.0065    3.8896   -0.4808 H   0  0  0  0  0  0  0  0  0  0  0  0
   -0.6973    3.5813    1.2434 H   0  0  0  0  0  0  0  0  0  0  0  0
    0.9919    4.3546    0.1604 C   0  0  0  0  0  0  0  0  0  0  0  0
    1.7125    3.9907    0.8910 H   0  0  0  0  0  0  0  0  0  0  0  0
    1.4202    4.2720   -0.8372 H   0  0  0  0  0  0  0  0  0  0  0  0
    0.7111    5.7682    0.4363 N   0  0  0  0  0  0  0  0  0  0  0  0
    1.5729    6.2917    0.3900 H   0  0  0  0  0  0  0  0  0  0  0  0
    0.0672    6.1198   -0.2580 H   0  0  0  0  0  0  0  0  0  0  0  0
   -0.5564    0.0727    2.1744 C   0  0  0  0  0  0  0  0  0  0  0  0
    0.6169   -0.1288    2.4805 O   0  0  0  0  0  0  0  0  0  0  0  0
   -1.4759    0.4743    3.0595 N   0  0  0  0  0  0  0  0  0  0  0  0
   -2.4132    0.6318    2.7275 H   0  0  0  0  0  0  0  0  0  0  0  0
   -1.1971    0.7118    4.4750 C   0  0  0  0  0  0  0  0  0  0  0  0
   -0.3779    1.4272    4.5748 H   0  0  0  0  0  0  0  0  0  0  0  0
   -2.0826    1.1064    4.9754 H   0  0  0  0  0  0  0  0  0  0  0  0
   -0.8992   -0.2240    4.9525 H   0  0  0  0  0  0  0  0  0  0  0  0
  5  6  2  0  0  0  0
  5  7  1  0  0  0  0
  2  3  1  0  0  0  0
  2  4  1  0  0  0  0
  2  5  1  0  0  0  0
  1  2  1  0  0  0  0
 26 27  2  0  0  0  0
 26 28  1  0  0  0  0
 23 24  1  0  0  0  0
 23 25  1  0  0  0  0
 20 21  1  0  0  0  0
 20 22  1  0  0  0  0
 20 23  1  0  0  0  0
 17 18  1  0  0  0  0
 17 19  1  0  0  0  0
 17 20  1  0  0  0  0
 14 15  1  0  0  0  0
 14 16  1  0  0  0  0
 14 17  1  0  0  0  0
 11 12  1  0  0  0  0
 11 13  1  0  0  0  0
 11 14  1  0  0  0  0
  9 10  1  0  0  0  0
  9 11  1  0  0  0  0
  9 26  1  0  0  0  0
  7  8  1  0  0  0  0
  7  9  1  0  0  0  0
 30 31  1  0  0  0  0
 30 32  1  0  0  0  0
 30 33  1  0  0  0  0
 28 29  1  0  0  0  0
 28 30  1  0  0  0  0
M  END
$$$$
default_name
  -OEChem-02102213163D

 33 32  0     1  0  0  0  0  0999 V2000
   -3.8420   -3.6918    1.5562 H   0  0  0  0  0  0  0  0  0  0  0  0
   -3.8430   -2.7008    1.1032 C   0  0  0  0  0  0  0  0  0  0  0  0
   -4.5510   -2.0608    1.6242 H   0  0  0  0  0  0  0  0  0  0  0  0
   -4.1140   -2.7798    0.0522 H   0  0  0  0  0  0  0  0  0  0  0  0
   -2.4570   -2.1098    1.2172 C   0  0  0  0  0  0  0  0  0  0  0  0
   -1.5600   -2.7438    1.7572 O   0  0  0  0  0  0  0  0  0  0  0  0
   -2.2870   -0.8898    0.7102 N   0  0  0  0  0  0  0  0  0  0  0  0
   -3.0820   -0.4218    0.2992 H   0  0  0  0  0  0  0  0  0  0  0  0
   -1.0240   -0.1468    0.7262 C   0  0  1  0  0  0  0  0  0  0  0  0
   -0.2680   -0.7367    0.2062 H   0  0  0  0  0  0  0  0  0  0  0  0
   -1.2212    1.1806   -0.0314 C   0  0  0  0  0  0  0  0  0  0  0  0
   -1.5175    0.9538   -1.0576 H   0  0  0  0  0  0  0  0  0  0  0  0
   -2.0267    1.7467    0.4384 H   0  0  0  0  0  0  0  0  0  0  0  0
    0.0465    2.0479   -0.0789 C   0  0  0  0  0  0  0  0  0  0  0  0
    0.8573    1.5399    0.4440 H   0  0  0  0  0  0  0  0  0  0  0  0
    0.3354    2.2047   -1.1198 H   0  0  0  0  0  0  0  0  0  0  0  0
   -0.1949    3.4071    0.5874 C   0  0  0  0  0  0  0  0  0  0  0  0
   -1.0094    3.9246    0.0797 H   0  0  0  0  0  0  0  0  0  0  0  0
   -0.4606    3.2568    1.6342 H   0  0  0  0  0  0  0  0  0  0  0  0
    1.0714    4.2573    0.5045 C   0  0  0  0  0  0  0  0  0  0  0  0
    1.8815    3.7510    1.0268 H   0  0  0  0  0  0  0  0  0  0  0  0
    1.3482    4.3935   -0.5396 H   0  0  0  0  0  0  0  0  0  0  0  0
    0.8674    5.5767    1.1133 N   0  0  0  0  0  0  0  0  0  0  0  0
    1.7257    6.1048    1.0534 H   0  0  0  0  0  0  0  0  0  0  0  0
    0.1382    6.0638    0.6120 H   0  0  0  0  0  0  0  0  0  0  0  0
   -0.5564    0.0727    2.1744 C   0  0  0  0  0  0  0  0  0  0  0  0
    0.6169   -0.1288    2.4805 O   0  0  0  0  0  0  0  0  0  0  0  0
   -1.4759    0.4743    3.0595 N   0  0  0  0  0  0  0  0  0  0  0  0
   -2.4132    0.6318    2.7275 H   0  0  0  0  0  0  0  0  0  0  0  0
   -1.1971    0.7118    4.4750 C   0  0  0  0  0  0  0  0  0  0  0  0
   -0.3779    1.4272    4.5748 H   0  0  0  0  0  0  0  0  0  0  0  0
   -2.0826    1.1064    4.9754 H   0  0  0  0  0  0  0  0  0  0  0  0
   -0.8992   -0.2240    4.9525 H   0  0  0  0  0  0  0  0  0  0  0  0
  5  6  2  0  0  0  0
  5  7  1  0  0  0  0
  2  3  1  0  0  0  0
  2  4  1  0  0  0  0
  2  5  1  0  0  0  0
  1  2  1  0  0  0  0
 26 27  2  0  0  0  0
 26 28  1  0  0  0  0
 23 24  1  0  0  0  0
 23 25  1  0  0  0  0
 20 21  1  0  0  0  0
 20 22  1  0  0  0  0
 20 23  1  0  0  0  0
 17 18  1  0  0  0  0
 17 19  1  0  0  0  0
 17 20  1  0  0  0  0
 14 15  1  0  0  0  0
 14 16  1  0  0  0  0
 14 17  1  0  0  0  0
 11 12  1  0  0  0  0
 11 13  1  0  0  0  0
 11 14  1  0  0  0  0
  9 10  1  0  0  0  0
  9 11  1  0  0  0  0
  9 26  1  0  0  0  0
  7  8  1  0  0  0  0
  7  9  1  0  0  0  0
 30 31  1  0  0  0  0
 30 32  1  0  0  0  0
 30 33  1  0  0  0  0
 28 29  1  0  0  0  0
 28 30  1  0  0  0  0
M  END
$$$$
default_name
  -OEChem-02102213163D

 33 32  0     1  0  0  0  0  0999 V2000
   -3.8420   -3.6918    1.5562 H   0  0  0  0  0  0  0  0  0  0  0  0
   -3.8430   -2.7008    1.1032 C   0  0  0  0  0  0  0  0  0  0  0  0
   -4.5510   -2.0608    1.6242 H   0  0  0  0  0  0  0  0  0  0  0  0
   -4.1140   -2.7798    0.0522 H   0  0  0  0  0  0  0  0  0  0  0  0
   -2.4570   -2.1098    1.2172 C   0  0  0  0  0  0  0  0  0  0  0  0
   -1.5600   -2.7438    1.7572 O   0  0  0  0  0  0  0  0  0  0  0  0
   -2.2870   -0.8898    0.7102 N   0  0  0  0  0  0  0  0  0  0  0  0
   -3.0820   -0.4218    0.2992 H   0  0  0  0  0  0  0  0  0  0  0  0
   -1.0240   -0.1468    0.7262 C   0  0  1  0  0  0  0  0  0  0  0  0
   -0.2680   -0.7367    0.2062 H   0  0  0  0  0  0  0  0  0  0  0  0
   -1.2212    1.1806   -0.0314 C   0  0  0  0  0  0  0  0  0  0  0  0
   -1.5175    0.9538   -1.0576 H   0  0  0  0  0  0  0  0  0  0  0  0
   -2.0267    1.7467    0.4384 H   0  0  0  0  0  0  0  0  0  0  0  0
    0.0465    2.0479   -0.0789 C   0  0  0  0  0  0  0  0  0  0  0  0
    0.9123    1.4461    0.1989 H   0  0  0  0  0  0  0  0  0  0  0  0
    0.1848    2.4261   -1.0934 H   0  0  0  0  0  0  0  0  0  0  0  0
   -0.0631    3.2310    0.8896 C   0  0  0  0  0  0  0  0  0  0  0  0
   -0.9301    3.8388    0.6291 H   0  0  0  0  0  0  0  0  0  0  0  0
   -0.1775    2.8579    1.9078 H   0  0  0  0  0  0  0  0  0  0  0  0
    1.1976    4.0891    0.8044 C   0  0  0  0  0  0  0  0  0  0  0  0
    2.0627    3.4891    1.0822 H   0  0  0  0  0  0  0  0  0  0  0  0
    1.3232    4.4479   -0.2158 H   0  0  0  0  0  0  0  0  0  0  0  0
    1.1158    5.2460    1.7035 N   0  0  0  0  0  0  0  0  0  0  0  0
    1.9686    5.7813    1.6319 H   0  0  0  0  0  0  0  0  0  0  0  0
    0.3333    5.8233    1.4301 H   0  0  0  0  0  0  0  0  0  0  0  0
   -0.5564    0.0727    2.1744 C   0  0  0  0  0  0  0  0  0  0  0  0
    0.6169   -0.1288    2.4805 O   0  0  0  0  0  0  0  0  0  0  0  0
   -1.4759    0.4743    3.0595 N   0  0  0  0  0  0  0  0  0  0  0  0
   -2.4132    0.6318    2.7275 H   0  0  0  0  0  0  0  0  0  0  0  0
   -1.1971    0.7118    4.4750 C   0  0  0  0  0  0  0  0  0  0  0  0
   -0.3779    1.4272    4.5748 H   0  0  0  0  0  0  0  0  0  0  0  0
   -2.0826    1.1064    4.9754 H   0  0  0  0  0  0  0  0  0  0  0  0
   -0.8992   -0.2240    4.9525 H   0  0  0  0  0  0  0  0  0  0  0  0
  5  6  2  0  0  0  0
  5  7  1  0  0  0  0
  2  3  1  0  0  0  0
  2  4  1  0  0  0  0
  2  5  1  0  0  0  0
  1  2  1  0  0  0  0
 26 27  2  0  0  0  0
 26 28  1  0  0  0  0
 23 24  1  0  0  0  0
 23 25  1  0  0  0  0
 20 21  1  0  0  0  0
 20 22  1  0  0  0  0
 20 23  1  0  0  0  0
 17 18  1  0  0  0  0
 17 19  1  0  0  0  0
 17 20  1  0  0  0  0
 14 15  1  0  0  0  0
 14 16  1  0  0  0  0
 14 17  1  0  0  0  0
 11 12  1  0  0  0  0
 11 13  1  0  0  0  0
 11 14  1  0  0  0  0
  9 10  1  0  0  0  0
  9 11  1  0  0  0  0
  9 26  1  0  0  0  0
  7  8  1  0  0  0  0
  7  9  1  0  0  0  0
 30 31  1  0  0  0  0
 30 32  1  0  0  0  0
 30 33  1  0  0  0  0
 28 29  1  0  0  0  0
 28 30  1  0  0  0  0
M  END
$$$$
default_name
  -OEChem-02102213163D

 33 32  0     1  0  0  0  0  0999 V2000
   -3.8420   -3.6918    1.5562 H   0  0  0  0  0  0  0  0  0  0  0  0
   -3.8430   -2.7008    1.1032 C   0  0  0  0  0  0  0  0  0  0  0  0
   -4.5510   -2.0608    1.6242 H   0  0  0  0  0  0  0  0  0  0  0  0
   -4.1140   -2.7798    0.0522 H   0  0  0  0  0  0  0  0  0  0  0  0
   -2.4570   -2.1098    1.2172 C   0  0  0  0  0  0  0  0  0  0  0  0
   -1.5600   -2.7438    1.7572 O   0  0  0  0  0  0  0  0  0  0  0  0
   -2.2870   -0.8898    0.7102 N   0  0  0  0  0  0  0  0  0  0  0  0
   -3.0820   -0.4218    0.2992 H   0  0  0  0  0  0  0  0  0  0  0  0
   -1.0240   -0.1468    0.7262 C   0  0  1  0  0  0  0  0  0  0  0  0
   -0.2680   -0.7367    0.2062 H   0  0  0  0  0  0  0  0  0  0  0  0
   -1.2212    1.1806   -0.0314 C   0  0  0  0  0  0  0  0  0  0  0  0
   -1.5175    0.9538   -1.0576 H   0  0  0  0  0  0  0  0  0  0  0  0
   -2.0267    1.7467    0.4384 H   0  0  0  0  0  0  0  0  0  0  0  0
    0.0465    2.0479   -0.0789 C   0  0  0  0  0  0  0  0  0  0  0  0
    0.9288    1.4074   -0.0659 H   0  0  0  0  0  0  0  0  0  0  0  0
    0.0451    2.6357   -0.9987 H   0  0  0  0  0  0  0  0  0  0  0  0
    0.1070    2.9953    1.1246 C   0  0  0  0  0  0  0  0  0  0  0  0
   -0.7740    3.6379    1.1298 H   0  0  0  0  0  0  0  0  0  0  0  0
    0.1327    2.4120    2.0455 H   0  0  0  0  0  0  0  0  0  0  0  0
    1.3621    3.8616    1.0399 C   0  0  0  0  0  0  0  0  0  0  0  0
    2.2438    3.2229    1.0533 H   0  0  0  0  0  0  0  0  0  0  0  0
    1.3467    4.4315    0.1123 H   0  0  0  0  0  0  0  0  0  0  0  0
    1.4393    4.7985    2.1666 N   0  0  0  0  0  0  0  0  0  0  0  0
    2.2852    5.3435    2.0862 H   0  0  0  0  0  0  0  0  0  0  0  0
    0.6394    5.4148    2.1405 H   0  0  0  0  0  0  0  0  0  0  0  0
   -0.5564    0.0727    2.1744 C   0  0  0  0  0  0  0  0  0  0  0  0
    0.6169   -0.1288    2.4805 O   0  0  0  0  0  0  0  0  0  0  0  0
   -1.4759    0.4743    3.0595 N   0  0  0  0  0  0  0  0  0  0  0  0
   -2.4132    0.6318    2.7275 H   0  0  0  0  0  0  0  0  0  0  0  0
   -1.1971    0.7118    4.4750 C   0  0  0  0  0  0  0  0  0  0  0  0
   -0.3779    1.4272    4.5748 H   0  0  0  0  0  0  0  0  0  0  0  0
   -2.0826    1.1064    4.9754 H   0  0  0  0  0  0  0  0  0  0  0  0
   -0.8992   -0.2240    4.9525 H   0  0  0  0  0  0  0  0  0  0  0  0
  5  6  2  0  0  0  0
  5  7  1  0  0  0  0
  2  3  1  0  0  0  0
  2  4  1  0  0  0  0
  2  5  1  0  0  0  0
  1  2  1  0  0  0  0
 26 27  2  0  0  0  0
 26 28  1  0  0  0  0
 23 24  1  0  0  0  0
 23 25  1  0  0  0  0
 20 21  1  0  0  0  0
 20 22  1  0  0  0  0
 20 23  1  0  0  0  0
 17 18  1  0  0  0  0
 17 19  1  0  0  0  0
 17 20  1  0  0  0  0
 14 15  1  0  0  0  0
 14 16  1  0  0  0  0
 14 17  1  0  0  0  0
 11 12  1  0  0  0  0
 11 13  1  0  0  0  0
 11 14  1  0  0  0  0
  9 10  1  0  0  0  0
  9 11  1  0  0  0  0
  9 26  1  0  0  0  0
  7  8  1  0  0  0  0
  7  9  1  0  0  0  0
 30 31  1  0  0  0  0
 30 32  1  0  0  0  0
 30 33  1  0  0  0  0
 28 29  1  0  0  0  0
 28 30  1  0  0  0  0
M  END
$$$$
default_name
  -OEChem-02102213163D

 33 32  0     1  0  0  0  0  0999 V2000
   -3.8420   -3.6918    1.5562 H   0  0  0  0  0  0  0  0  0  0  0  0
   -3.8430   -2.7008    1.1032 C   0  0  0  0  0  0  0  0  0  0  0  0
   -4.5510   -2.0608    1.6242 H   0  0  0  0  0  0  0  0  0  0  0  0
   -4.1140   -2.7798    0.0522 H   0  0  0  0  0  0  0  0  0  0  0  0
   -2.4570   -2.1098    1.2172 C   0  0  0  0  0  0  0  0  0  0  0  0
   -1.5600   -2.7438    1.7572 O   0  0  0  0  0  0  0  0  0  0  0  0
   -2.2870   -0.8898    0.7102 N   0  0  0  0  0  0  0  0  0  0  0  0
   -3.0820   -0.4218    0.2992 H   0  0  0  0  0  0  0  0  0  0  0  0
   -1.0240   -0.1468    0.7262 C   0  0  1  0  0  0  0  0  0  0  0  0
   -0.2680   -0.7367    0.2062 H   0  0  0  0  0  0  0  0  0  0  0  0
   -1.2212    1.1806   -0.0314 C   0  0  0  0  0  0  0  0  0  0  0  0
   -1.5175    0.9538   -1.0576 H   0  0  0  0  0  0  0  0  0  0  0  0
   -2.0267    1.7467    0.4384 H   0  0  0  0  0  0  0  0  0  0  0  0
    0.0465    2.0479   -0.0789 C   0  0  0  0  0  0  0  0  0  0  0  0
    0.9058    1.4264   -0.3323 H   0  0  0  0  0  0  0  0  0  0  0  0
   -0.0744    2.8189   -0.8420 H   0  0  0  0  0  0  0  0  0  0  0  0
    0.3037    2.7160    1.2765 C   0  0  0  0  0  0  0  0  0  0  0  0
   -0.5516    3.3357    1.5477 H   0  0  0  0  0  0  0  0  0  0  0  0
    0.4489    1.9493    2.0381 H   0  0  0  0  0  0  0  0  0  0  0  0
    1.5535    3.5903    1.1947 C   0  0  0  0  0  0  0  0  0  0  0  0
    2.4123    2.9705    0.9421 H   0  0  0  0  0  0  0  0  0  0  0  0
    1.4171    4.3455    0.4223 H   0  0  0  0  0  0  0  0  0  0  0  0
    1.8158    4.2648    2.4712 N   0  0  0  0  0  0  0  0  0  0  0  0
    2.6538    4.8210    2.3852 H   0  0  0  0  0  0  0  0  0  0  0  0
    1.0355    4.8661    2.6947 H   0  0  0  0  0  0  0  0  0  0  0  0
   -0.5564    0.0727    2.1744 C   0  0  0  0  0  0  0  0  0  0  0  0
    0.6169   -0.1288    2.4805 O   0  0  0  0  0  0  0  0  0  0  0  0
   -1.4759    0.4743    3.0595 N   0  0  0  0  0  0  0  0  0  0  0  0
   -2.4132    0.6318    2.7275 H   0  0  0  0  0  0  0  0  0  0  0  0
   -1.1971    0.7118    4.4750 C   0  0  0  0  0  0  0  0  0  0  0  0
   -0.3779    1.4272    4.5748 H   0  0  0  0  0  0  0  0  0  0  0  0
   -2.0826    1.1064    4.9754 H   0  0  0  0  0  0  0  0  0  0  0  0
   -0.8992   -0.2240    4.9525 H   0  0  0  0  0  0  0  0  0  0  0  0
  5  6  2  0  0  0  0
  5  7  1  0  0  0  0
  2  3  1  0  0  0  0
  2  4  1  0  0  0  0
  2  5  1  0  0  0  0
  1  2  1  0  0  0  0
 26 27  2  0  0  0  0
 26 28  1  0  0  0  0
 23 24  1  0  0  0  0
 23 25  1  0  0  0  0
 20 21  1  0  0  0  0
 20 22  1  0  0  0  0
 20 23  1  0  0  0  0
 17 18  1  0  0  0  0
 17 19  1  0  0  0  0
 17 20  1  0  0  0  0
 14 15  1  0  0  0  0
 14 16  1  0  0  0  0
 14 17  1  0  0  0  0
 11 12  1  0  0  0  0
 11 13  1  0  0  0  0
 11 14  1  0  0  0  0
  9 10  1  0  0  0  0
  9 11  1  0  0  0  0
  9 26  1  0  0  0  0
  7  8  1  0  0  0  0
  7  9  1  0  0  0  0
 30 31  1  0  0  0  0
 30 32  1  0  0  0  0
 30 33  1  0  0  0  0
 28 29  1  0  0  0  0
 28 30  1  0  0  0  0
M  END
$$$$
default_name
  -OEChem-02102213163D

 33 32  0     1  0  0  0  0  0999 V2000
   -3.8420   -3.6918    1.5562 H   0  0  0  0  0  0  0  0  0  0  0  0
   -3.8430   -2.7008    1.1032 C   0  0  0  0  0  0  0  0  0  0  0  0
   -4.5510   -2.0608    1.6242 H   0  0  0  0  0  0  0  0  0  0  0  0
   -4.1140   -2.7798    0.0522 H   0  0  0  0  0  0  0  0  0  0  0  0
   -2.4570   -2.1098    1.2172 C   0  0  0  0  0  0  0  0  0  0  0  0
   -1.5600   -2.7438    1.7572 O   0  0  0  0  0  0  0  0  0  0  0  0
   -2.2870   -0.8898    0.7102 N   0  0  0  0  0  0  0  0  0  0  0  0
   -3.0820   -0.4218    0.2992 H   0  0  0  0  0  0  0  0  0  0  0  0
   -1.0240   -0.1468    0.7262 C   0  0  1  0  0  0  0  0  0  0  0  0
   -0.2680   -0.7367    0.2062 H   0  0  0  0  0  0  0  0  0  0  0  0
   -1.2212    1.1806   -0.0314 C   0  0  0  0  0  0  0  0  0  0  0  0
   -1.5175    0.9538   -1.0576 H   0  0  0  0  0  0  0  0  0  0  0  0
   -2.0267    1.7467    0.4384 H   0  0  0  0  0  0  0  0  0  0  0  0
    0.0465    2.0479   -0.0789 C   0  0  0  0  0  0  0  0  0  0  0  0
    0.8449    1.5019   -0.5823 H   0  0  0  0  0  0  0  0  0  0  0  0
   -0.1655    2.9634   -0.6341 H   0  0  0  0  0  0  0  0  0  0  0  0
    0.5136    2.4123    1.3348 C   0  0  0  0  0  0  0  0  0  0  0  0
   -0.2782    2.9528    1.8545 H   0  0  0  0  0  0  0  0  0  0  0  0
    0.7496    1.5015    1.8859 H   0  0  0  0  0  0  0  0  0  0  0  0
    1.7588    3.2937    1.2583 C   0  0  0  0  0  0  0  0  0  0  0  0
    2.5568    2.7491    0.7561 H   0  0  0  0  0  0  0  0  0  0  0  0
    1.5298    4.1956    0.6930 H   0  0  0  0  0  0  0  0  0  0  0  0
    2.2197    3.6812    2.5964 N   0  0  0  0  0  0  0  0  0  0  0  0
    3.0494    4.2495    2.5087 H   0  0  0  0  0  0  0  0  0  0  0  0
    1.4947    4.2146    3.0550 H   0  0  0  0  0  0  0  0  0  0  0  0
   -0.5564    0.0727    2.1744 C   0  0  0  0  0  0  0  0  0  0  0  0
    0.6169   -0.1288    2.4805 O   0  0  0  0  0  0  0  0  0  0  0  0
   -1.4759    0.4743    3.0595 N   0  0  0  0  0  0  0  0  0  0  0  0
   -2.4132    0.6318    2.7275 H   0  0  0  0  0  0  0  0  0  0  0  0
   -1.1971    0.7118    4.4750 C   0  0  0  0  0  0  0  0  0  0  0  0
   -0.3779    1.4272    4.5748 H   0  0  0  0  0  0  0  0  0  0  0  0
   -2.0826    1.1064    4.9754 H   0  0  0  0  0  0  0  0  0  0  0  0
   -0.8992   -0.2240    4.9525 H   0  0  0  0  0  0  0  0  0  0  0  0
  5  6  2  0  0  0  0
  5  7  1  0  0  0  0
  2  3  1  0  0  0  0
  2  4  1  0  0  0  0
  2  5  1  0  0  0  0
  1  2  1  0  0  0  0
 26 27  2  0  0  0  0
 26 28  1  0  0  0  0
 23 24  1  0  0  0  0
 23 25  1  0  0  0  0
 20 21  1  0  0  0  0
 20 22  1  0  0  0  0
 20 23  1  0  0  0  0
 17 18  1  0  0  0  0
 17 19  1  0  0  0  0
 17 20  1  0  0  0  0
 14 15  1  0  0  0  0
 14 16  1  0  0  0  0
 14 17  1  0  0  0  0
 11 12  1  0  0  0  0
 11 13  1  0  0  0  0
 11 14  1  0  0  0  0
  9 10  1  0  0  0  0
  9 11  1  0  0  0  0
  9 26  1  0  0  0  0
  7  8  1  0  0  0  0
  7  9  1  0  0  0  0
 30 31  1  0  0  0  0
 30 32  1  0  0  0  0
 30 33  1  0  0  0  0
 28 29  1  0  0  0  0
 28 30  1  0  0  0  0
M  END
$$$$
default_name
  -OEChem-02102213163D

 33 32  0     1  0  0  0  0  0999 V2000
   -3.8420   -3.6918    1.5562 H   0  0  0  0  0  0  0  0  0  0  0  0
   -3.8430   -2.7008    1.1032 C   0  0  0  0  0  0  0  0  0  0  0  0
   -4.5510   -2.0608    1.6242 H   0  0  0  0  0  0  0  0  0  0  0  0
   -4.1140   -2.7798    0.0522 H   0  0  0  0  0  0  0  0  0  0  0  0
   -2.4570   -2.1098    1.2172 C   0  0  0  0  0  0  0  0  0  0  0  0
   -1.5600   -2.7438    1.7572 O   0  0  0  0  0  0  0  0  0  0  0  0
   -2.2870   -0.8898    0.7102 N   0  0  0  0  0  0  0  0  0  0  0  0
   -3.0820   -0.4218    0.2992 H   0  0  0  0  0  0  0  0  0  0  0  0
   -1.0240   -0.1468    0.7262 C   0  0  1  0  0  0  0  0  0  0  0  0
   -0.2680   -0.7367    0.2062 H   0  0  0  0  0  0  0  0  0  0  0  0
   -1.2212    1.1806   -0.0314 C   0  0  0  0  0  0  0  0  0  0  0  0
   -1.5175    0.9538   -1.0576 H   0  0  0  0  0  0  0  0  0  0  0  0
   -2.0267    1.7467    0.4384 H   0  0  0  0  0  0  0  0  0  0  0  0
    0.0465    2.0479   -0.0789 C   0  0  0  0  0  0  0  0  0  0  0  0
    0.7501    1.6286   -0.7987 H   0  0  0  0  0  0  0  0  0  0  0  0
   -0.2220    3.0594   -0.3891 H   0  0  0  0  0  0  0  0  0  0  0  0
    0.7225    2.1049    1.2957 C   0  0  0  0  0  0  0  0  0  0  0  0
    0.0277    2.5153    2.0290 H   0  0  0  0  0  0  0  0  0  0  0  0
    1.0142    1.0991    1.5994 H   0  0  0  0  0  0  0  0  0  0  0  0
    1.9641    2.9919    1.2264 C   0  0  0  0  0  0  0  0  0  0  0  0
    2.6675    2.5738    0.5082 H   0  0  0  0  0  0  0  0  0  0  0  0
    1.6770    3.9921    0.9061 H   0  0  0  0  0  0  0  0  0  0  0  0
    2.6235    3.0876    2.5338 N   0  0  0  0  0  0  0  0  0  0  0  0
    3.4449    3.6680    2.4482 H   0  0  0  0  0  0  0  0  0  0  0  0
    1.9857    3.5047    3.1969 H   0  0  0  0  0  0  0  0  0  0  0  0
   -0.5564    0.0727    2.1744 C   0  0  0  0  0  0  0  0  0  0  0  0
    0.6169   -0.1288    2.4805 O   0  0  0  0  0  0  0  0  0  0  0  0
   -1.4759    0.4743    3.0595 N   0  0  0  0  0  0  0  0  0  0  0  0
   -2.4132    0.6318    2.7275 H   0  0  0  0  0  0  0  0  0  0  0  0
   -1.1971    0.7118    4.4750 C   0  0  0  0  0  0  0  0  0  0  0  0
   -0.3779    1.4272    4.5748 H   0  0  0  0  0  0  0  0  0  0  0  0
   -2.0826    1.1064    4.9754 H   0  0  0  0  0  0  0  0  0  0  0  0
   -0.8992   -0.2240    4.9525 H   0  0  0  0  0  0  0  0  0  0  0  0
  5  6  2  0  0  0  0
  5  7  1  0  0  0  0
  2  3  1  0  0  0  0
  2  4  1  0  0  0  0
  2  5  1  0  0  0  0
  1  2  1  0  0  0  0
 26 27  2  0  0  0  0
 26 28  1  0  0  0  0
 23 24  1  0  0  0  0
 23 25  1  0  0  0  0
 20 21  1  0  0  0  0
 20 22  1  0  0  0  0
 20 23  1  0  0  0  0
 17 18  1  0  0  0  0
 17 19  1  0  0  0  0
 17 20  1  0  0  0  0
 14 15  1  0  0  0  0
 14 16  1  0  0  0  0
 14 17  1  0  0  0  0
 11 12  1  0  0  0  0
 11 13  1  0  0  0  0
 11 14  1  0  0  0  0
  9 10  1  0  0  0  0
  9 11  1  0  0  0  0
  9 26  1  0  0  0  0
  7  8  1  0  0  0  0
  7  9  1  0  0  0  0
 30 31  1  0  0  0  0
 30 32  1  0  0  0  0
 30 33  1  0  0  0  0
 28 29  1  0  0  0  0
 28 30  1  0  0  0  0
M  END
$$$$
default_name
  -OEChem-02102213163D

 33 32  0     1  0  0  0  0  0999 V2000
   -3.8420   -3.6918    1.5562 H   0  0  0  0  0  0  0  0  0  0  0  0
   -3.8430   -2.7008    1.1032 C   0  0  0  0  0  0  0  0  0  0  0  0
   -4.5510   -2.0608    1.6242 H   0  0  0  0  0  0  0  0  0  0  0  0
   -4.1140   -2.7798    0.0522 H   0  0  0  0  0  0  0  0  0  0  0  0
   -2.4570   -2.1098    1.2172 C   0  0  0  0  0  0  0  0  0  0  0  0
   -1.5600   -2.7438    1.7572 O   0  0  0  0  0  0  0  0  0  0  0  0
   -2.2870   -0.8898    0.7102 N   0  0  0  0  0  0  0  0  0  0  0  0
   -3.0820   -0.4218    0.2992 H   0  0  0  0  0  0  0  0  0  0  0  0
   -1.0240   -0.1468    0.7262 C   0  0  1  0  0  0  0  0  0  0  0  0
   -0.2680   -0.7367    0.2062 H   0  0  0  0  0  0  0  0  0  0  0  0
   -1.2212    1.1806   -0.0314 C   0  0  0  0  0  0  0  0  0  0  0  0
   -1.5175    0.9538   -1.0576 H   0  0  0  0  0  0  0  0  0  0  0  0
   -2.0267    1.7467    0.4384 H   0  0  0  0  0  0  0  0  0  0  0  0
    0.0465    2.0479   -0.0789 C   0  0  0  0  0  0  0  0  0  0  0  0
    0.6279    1.7980   -0.9668 H   0  0  0  0  0  0  0  0  0  0  0  0
   -0.2399    3.1002   -0.1237 H   0  0  0  0  0  0  0  0  0  0  0  0
    0.9161    1.8145    1.1617 C   0  0  0  0  0  0  0  0  0  0  0  0
    0.3451    2.0530    2.0596 H   0  0  0  0  0  0  0  0  0  0  0  0
    1.2247    0.7694    1.1980 H   0  0  0  0  0  0  0  0  0  0  0  0
    2.1552    2.7056    1.1012 C   0  0  0  0  0  0  0  0  0  0  0  0
    2.7367    2.4565    0.2151 H   0  0  0  0  0  0  0  0  0  0  0  0
    1.8487    3.7489    1.0470 H   0  0  0  0  0  0  0  0  0  0  0  0
    2.9996    2.5243    2.2876 N   0  0  0  0  0  0  0  0  0  0  0  0
    3.8135    3.1160    2.2077 H   0  0  0  0  0  0  0  0  0  0  0  0
    2.4750    2.7847    3.1106 H   0  0  0  0  0  0  0  0  0  0  0  0
   -0.5564    0.0727    2.1744 C   0  0  0  0  0  0  0  0  0  0  0  0
    0.6169   -0.1288    2.4805 O   0  0  0  0  0  0  0  0  0  0  0  0
   -1.4759    0.4743    3.0595 N   0  0  0  0  0  0  0  0  0  0  0  0
   -2.4132    0.6318    2.7275 H   0  0  0  0  0  0  0  0  0  0  0  0
   -1.1971    0.7118    4.4750 C   0  0  0  0  0  0  0  0  0  0  0  0
   -0.3779    1.4272    4.5748 H   0  0  0  0  0  0  0  0  0  0  0  0
   -2.0826    1.1064    4.9754 H   0  0  0  0  0  0  0  0  0  0  0  0
   -0.8992   -0.2240    4.9525 H   0  0  0  0  0  0  0  0  0  0  0  0
  5  6  2  0  0  0  0
  5  7  1  0  0  0  0
  2  3  1  0  0  0  0
  2  4  1  0  0  0  0
  2  5  1  0  0  0  0
  1  2  1  0  0  0  0
 26 27  2  0  0  0  0
 26 28  1  0  0  0  0
 23 24  1  0  0  0  0
 23 25  1  0  0  0  0
 20 21  1  0  0  0  0
 20 22  1  0  0  0  0
 20 23  1  0  0  0  0
 17 18  1  0  0  0  0
 17 19  1  0  0  0  0
 17 20  1  0  0  0  0
 14 15  1  0  0  0  0
 14 16  1  0  0  0  0
 14 17  1  0  0  0  0
 11 12  1  0  0  0  0
 11 13  1  0  0  0  0
 11 14  1  0  0  0  0
  9 10  1  0  0  0  0
  9 11  1  0  0  0  0
  9 26  1  0  0  0  0
  7  8  1  0  0  0  0
  7  9  1  0  0  0  0
 30 31  1  0  0  0  0
 30 32  1  0  0  0  0
 30 33  1  0  0  0  0
 28 29  1  0  0  0  0
 28 30  1  0  0  0  0
M  END
$$$$
default_name
  -OEChem-02102213163D

 33 32  0     1  0  0  0  0  0999 V2000
   -3.8420   -3.6918    1.5562 H   0  0  0  0  0  0  0  0  0  0  0  0
   -3.8430   -2.7008    1.1032 C   0  0  0  0  0  0  0  0  0  0  0  0
   -4.5510   -2.0608    1.6242 H   0  0  0  0  0  0  0  0  0  0  0  0
   -4.1140   -2.7798    0.0522 H   0  0  0  0  0  0  0  0  0  0  0  0
   -2.4570   -2.1098    1.2172 C   0  0  0  0  0  0  0  0  0  0  0  0
   -1.5600   -2.7438    1.7572 O   0  0  0  0  0  0  0  0  0  0  0  0
   -2.2870   -0.8898    0.7102 N   0  0  0  0  0  0  0  0  0  0  0  0
   -3.0820   -0.4218    0.2992 H   0  0  0  0  0  0  0  0  0  0  0  0
   -1.0240   -0.1468    0.7262 C   0  0  1  0  0  0  0  0  0  0  0  0
   -0.2680   -0.7367    0.2062 H   0  0  0  0  0  0  0  0  0  0  0  0
   -1.2212    1.1806   -0.0314 C   0  0  0  0  0  0  0  0  0  0  0  0
   -1.5175    0.9538   -1.0576 H   0  0  0  0  0  0  0  0  0  0  0  0
   -2.0267    1.7467    0.4384 H   0  0  0  0  0  0  0  0  0  0  0  0
    0.0465    2.0479   -0.0789 C   0  0  0  0  0  0  0  0  0  0  0  0
    0.4867    1.9985   -1.0752 H   0  0  0  0  0  0  0  0  0  0  0  0
   -0.2182    3.0831    0.1440 H   0  0  0  0  0  0  0  0  0  0  0  0
    1.0812    1.5612    0.9420 C   0  0  0  0  0  0  0  0  0  0  0  0
    0.6525    1.5974    1.9440 H   0  0  0  0  0  0  0  0  0  0  0  0
    1.3668    0.5349    0.7093 H   0  0  0  0  0  0  0  0  0  0  0  0
    2.3193    2.4542    0.8913 C   0  0  0  0  0  0  0  0  0  0  0  0
    2.7599    2.4052   -0.1032 H   0  0  0  0  0  0  0  0  0  0  0  0
    2.0331    3.4825    1.1060 H   0  0  0  0  0  0  0  0  0  0  0  0
    3.3224    2.0298    1.8746 N   0  0  0  0  0  0  0  0  0  0  0  0
    4.1300    2.6313    1.8038 H   0  0  0  0  0  0  0  0  0  0  0  0
    2.9293    2.1038    2.8021 H   0  0  0  0  0  0  0  0  0  0  0  0
   -0.5564    0.0727    2.1744 C   0  0  0  0  0  0  0  0  0  0  0  0
    0.6169   -0.1288    2.4805 O   0  0  0  0  0  0  0  0  0  0  0  0
   -1.4759    0.4743    3.0595 N   0  0  0  0  0  0  0  0  0  0  0  0
   -2.4132    0.6318    2.7275 H   0  0  0  0  0  0  0  0  0  0  0  0
   -1.1971    0.7118    4.4750 C   0  0  0  0  0  0  0  0  0  0  0  0
   -0.3779    1.4272    4.5748 H   0  0  0  0  0  0  0  0  0  0  0  0
   -2.0826    1.1064    4.9754 H   0  0  0  0  0  0  0  0  0  0  0  0
   -0.8992   -0.2240    4.9525 H   0  0  0  0  0  0  0  0  0  0  0  0
  5  6  2  0  0  0  0
  5  7  1  0  0  0  0
  2  3  1  0  0  0  0
  2  4  1  0  0  0  0
  2  5  1  0  0  0  0
  1  2  1  0  0  0  0
 26 27  2  0  0  0  0
 26 28  1  0  0  0  0
 23 24  1  0  0  0  0
 23 25  1  0  0  0  0
 20 21  1  0  0  0  0
 20 22  1  0  0  0  0
 20 23  1  0  0  0  0
 17 18  1  0  0  0  0
 17 19  1  0  0  0  0
 17 20  1  0  0  0  0
 14 15  1  0  0  0  0
 14 16  1  0  0  0  0
 14 17  1  0  0  0  0
 11 12  1  0  0  0  0
 11 13  1  0  0  0  0
 11 14  1  0  0  0  0
  9 10  1  0  0  0  0
  9 11  1  0  0  0  0
  9 26  1  0  0  0  0
  7  8  1  0  0  0  0
  7  9  1  0  0  0  0
 30 31  1  0  0  0  0
 30 32  1  0  0  0  0
 30 33  1  0  0  0  0
 28 29  1  0  0  0  0
 28 30  1  0  0  0  0
M  END
$$$$
default_name
  -OEChem-02102213163D

 33 32  0     1  0  0  0  0  0999 V2000
   -3.8420   -3.6918    1.5562 H   0  0  0  0  0  0  0  0  0  0  0  0
   -3.8430   -2.7008    1.1032 C   0  0  0  0  0  0  0  0  0  0  0  0
   -4.5510   -2.0608    1.6242 H   0  0  0  0  0  0  0  0  0  0  0  0
   -4.1140   -2.7798    0.0522 H   0  0  0  0  0  0  0  0  0  0  0  0
   -2.4570   -2.1098    1.2172 C   0  0  0  0  0  0  0  0  0  0  0  0
   -1.5600   -2.7438    1.7572 O   0  0  0  0  0  0  0  0  0  0  0  0
   -2.2870   -0.8898    0.7102 N   0  0  0  0  0  0  0  0  0  0  0  0
   -3.0820   -0.4218    0.2992 H   0  0  0  0  0  0  0  0  0  0  0  0
   -1.0240   -0.1468    0.7262 C   0  0  1  0  0  0  0  0  0  0  0  0
   -0.2680   -0.7367    0.2062 H   0  0  0  0  0  0  0  0  0  0  0  0
   -1.2212    1.1806   -0.0314 C   0  0  0  0  0  0  0  0  0  0  0  0
   -1.5175    0.9538   -1.0576 H   0  0  0  0  0  0  0  0  0  0  0  0
   -2.0267    1.7467    0.4384 H   0  0  0  0  0  0  0  0  0  0  0  0
    0.0465    2.0479   -0.0789 C   0  0  0  0  0  0  0  0  0  0  0  0
    0.3360    2.2164   -1.1165 H   0  0  0  0  0  0  0  0  0  0  0  0
   -0.1583    3.0092    0.3957 H   0  0  0  0  0  0  0  0  0  0  0  0
    1.2065    1.3620    0.6516 C   0  0  0  0  0  0  0  0  0  0  0  0
    0.9289    1.1795    1.6902 H   0  0  0  0  0  0  0  0  0  0  0  0
    1.4307    0.4117    0.1663 H   0  0  0  0  0  0  0  0  0  0  0  0
    2.4452    2.2549    0.6108 C   0  0  0  0  0  0  0  0  0  0  0  0
    2.7353    2.4234   -0.4250 H   0  0  0  0  0  0  0  0  0  0  0  0
    2.2178    3.2111    1.0792 H   0  0  0  0  0  0  0  0  0  0  0  0
    3.5700    1.6377    1.3229 N   0  0  0  0  0  0  0  0  0  0  0  0
    4.3729    2.2467    1.2639 H   0  0  0  0  0  0  0  0  0  0  0  0
    3.3175    1.5083    2.2924 H   0  0  0  0  0  0  0  0  0  0  0  0
   -0.5564    0.0727    2.1744 C   0  0  0  0  0  0  0  0  0  0  0  0
    0.6169   -0.1288    2.4805 O   0  0  0  0  0  0  0  0  0  0  0  0
   -1.4759    0.4743    3.0595 N   0  0  0  0  0  0  0  0  0  0  0  0
   -2.4132    0.6318    2.7275 H   0  0  0  0  0  0  0  0  0  0  0  0
   -1.1971    0.7118    4.4750 C   0  0  0  0  0  0  0  0  0  0  0  0
   -0.3779    1.4272    4.5748 H   0  0  0  0  0  0  0  0  0  0  0  0
   -2.0826    1.1064    4.9754 H   0  0  0  0  0  0  0  0  0  0  0  0
   -0.8992   -0.2240    4.9525 H   0  0  0  0  0  0  0  0  0  0  0  0
  5  6  2  0  0  0  0
  5  7  1  0  0  0  0
  2  3  1  0  0  0  0
  2  4  1  0  0  0  0
  2  5  1  0  0  0  0
  1  2  1  0  0  0  0
 26 27  2  0  0  0  0
 26 28  1  0  0  0  0
 23 24  1  0  0  0  0
 23 25  1  0  0  0  0
 20 21  1  0  0  0  0
 20 22  1  0  0  0  0
 20 23  1  0  0  0  0
 17 18  1  0  0  0  0
 17 19  1  0  0  0  0
 17 20  1  0  0  0  0
 14 15  1  0  0  0  0
 14 16  1  0  0  0  0
 14 17  1  0  0  0  0
 11 12  1  0  0  0  0
 11 13  1  0  0  0  0
 11 14  1  0  0  0  0
  9 10  1  0  0  0  0
  9 11  1  0  0  0  0
  9 26  1  0  0  0  0
  7  8  1  0  0  0  0
  7  9  1  0  0  0  0
 30 31  1  0  0  0  0
 30 32  1  0  0  0  0
 30 33  1  0  0  0  0
 28 29  1  0  0  0  0
 28 30  1  0  0  0  0
M  END
$$$$
default_name
  -OEChem-02102213163D

 33 32  0     1  0  0  0  0  0999 V2000
   -3.8420   -3.6918    1.5562 H   0  0  0  0  0  0  0  0  0  0  0  0
   -3.8430   -2.7008    1.1032 C   0  0  0  0  0  0  0  0  0  0  0  0
   -4.5510   -2.0608    1.6242 H   0  0  0  0  0  0  0  0  0  0  0  0
   -4.1140   -2.7798    0.0522 H   0  0  0  0  0  0  0  0  0  0  0  0
   -2.4570   -2.1098    1.2172 C   0  0  0  0  0  0  0  0  0  0  0  0
   -1.5600   -2.7438    1.7572 O   0  0  0  0  0  0  0  0  0  0  0  0
   -2.2870   -0.8898    0.7102 N   0  0  0  0  0  0  0  0  0  0  0  0
   -3.0820   -0.4218    0.2992 H   0  0  0  0  0  0  0  0  0  0  0  0
   -1.0240   -0.1468    0.7262 C   0  0  1  0  0  0  0  0  0  0  0  0
   -0.2680   -0.7367    0.2062 H   0  0  0  0  0  0  0  0  0  0  0  0
   -1.2212    1.1806   -0.0314 C   0  0  0  0  0  0  0  0  0  0  0  0
   -1.5175    0.9538   -1.0576 H   0  0  0  0  0  0  0  0  0  0  0  0
   -2.0267    1.7467    0.4384 H   0  0  0  0  0  0  0  0  0  0  0  0
    0.0465    2.0479   -0.0789 C   0  0  0  0  0  0  0  0  0  0  0  0
    0.1862    2.4369   -1.0878 H   0  0  0  0  0  0  0  0  0  0  0  0
   -0.0642    2.8837    0.6144 H   0  0  0  0  0  0  0  0  0  0  0  0
    1.2836    1.2307    0.3103 C   0  0  0  0  0  0  0  0  0  0  0  0
    1.1554    0.8278    1.3154 H   0  0  0  0  0  0  0  0  0  0  0  0
    1.4122    0.4081   -0.3938 H   0  0  0  0  0  0  0  0  0  0  0  0
    2.5241    2.1213    0.2790 C   0  0  0  0  0  0  0  0  0  0  0  0
    2.6648    2.5100   -0.7283 H   0  0  0  0  0  0  0  0  0  0  0  0
    2.3901    2.9532    0.9685 H   0  0  0  0  0  0  0  0  0  0  0  0
    3.7254    1.3748    0.6701 N   0  0  0  0  0  0  0  0  0  0  0  0
    4.5255    1.9886    0.6249 H   0  0  0  0  0  0  0  0  0  0  0  0
    3.6133    1.0389    1.6161 H   0  0  0  0  0  0  0  0  0  0  0  0
   -0.5564    0.0727    2.1744 C   0  0  0  0  0  0  0  0  0  0  0  0
    0.6169   -0.1288    2.4805 O   0  0  0  0  0  0  0  0  0  0  0  0
   -1.4759    0.4743    3.0595 N   0  0  0  0  0  0  0  0  0  0  0  0
   -2.4132    0.6318    2.7275 H   0  0  0  0  0  0  0  0  0  0  0  0
   -1.1971    0.7118    4.4750 C   0  0  0  0  0  0  0  0  0  0  0  0
   -0.3779    1.4272    4.5748 H   0  0  0  0  0  0  0  0  0  0  0  0
   -2.0826    1.1064    4.9754 H   0  0  0  0  0  0  0  0  0  0  0  0
   -0.8992   -0.2240    4.9525 H   0  0  0  0  0  0  0  0  0  0  0  0
  5  6  2  0  0  0  0
  5  7  1  0  0  0  0
  2  3  1  0  0  0  0
  2  4  1  0  0  0  0
  2  5  1  0  0  0  0
  1  2  1  0  0  0  0
 26 27  2  0  0  0  0
 26 28  1  0  0  0  0
 23 24  1  0  0  0  0
 23 25  1  0  0  0  0
 20 21  1  0  0  0  0
 20 22  1  0  0  0  0
 20 23  1  0  0  0  0
 17 18  1  0  0  0  0
 17 19  1  0  0  0  0
 17 20  1  0  0  0  0
 14 15  1  0  0  0  0
 14 16  1  0  0  0  0
 14 17  1  0  0  0  0
 11 12  1  0  0  0  0
 11 13  1  0  0  0  0
 11 14  1  0  0  0  0
  9 10  1  0  0  0  0
  9 11  1  0  0  0  0
  9 26  1  0  0  0  0
  7  8  1  0  0  0  0
  7  9  1  0  0  0  0
 30 31  1  0  0  0  0
 30 32  1  0  0  0  0
 30 33  1  0  0  0  0
 28 29  1  0  0  0  0
 28 30  1  0  0  0  0
M  END
$$$$
default_name
  -OEChem-02102213163D

 33 32  0     1  0  0  0  0  0999 V2000
   -3.8420   -3.6918    1.5562 H   0  0  0  0  0  0  0  0  0  0  0  0
   -3.8430   -2.7008    1.1032 C   0  0  0  0  0  0  0  0  0  0  0  0
   -4.5510   -2.0608    1.6242 H   0  0  0  0  0  0  0  0  0  0  0  0
   -4.1140   -2.7798    0.0522 H   0  0  0  0  0  0  0  0  0  0  0  0
   -2.4570   -2.1098    1.2172 C   0  0  0  0  0  0  0  0  0  0  0  0
   -1.5600   -2.7438    1.7572 O   0  0  0  0  0  0  0  0  0  0  0  0
   -2.2870   -0.8898    0.7102 N   0  0  0  0  0  0  0  0  0  0  0  0
   -3.0820   -0.4218    0.2992 H   0  0  0  0  0  0  0  0  0  0  0  0
   -1.0240   -0.1468    0.7262 C   0  0  1  0  0  0  0  0  0  0  0  0
   -0.2680   -0.7367    0.2062 H   0  0  0  0  0  0  0  0  0  0  0  0
   -1.2212    1.1806   -0.0314 C   0  0  0  0  0  0  0  0  0  0  0  0
   -1.5175    0.9538   -1.0576 H   0  0  0  0  0  0  0  0  0  0  0  0
   -2.0267    1.7467    0.4384 H   0  0  0  0  0  0  0  0  0  0  0  0
    0.0465    2.0479   -0.0789 C   0  0  0  0  0  0  0  0  0  0  0  0
    0.0475    2.6450   -0.9912 H   0  0  0  0  0  0  0  0  0  0  0  0
    0.0576    2.7150    0.7850 H   0  0  0  0  0  0  0  0  0  0  0  0
    1.3072    1.1760   -0.0587 C   0  0  0  0  0  0  0  0  0  0  0  0
    1.3167    0.5663    0.8452 H   0  0  0  0  0  0  0  0  0  0  0  0
    1.3125    0.5243   -0.9329 H   0  0  0  0  0  0  0  0  0  0  0  0
    2.5509    2.0625   -0.0816 C   0  0  0  0  0  0  0  0  0  0  0  0
    2.5530    2.6589   -0.9926 H   0  0  0  0  0  0  0  0  0  0  0  0
    2.5382    2.7264    0.7812 H   0  0  0  0  0  0  0  0  0  0  0  0
    3.7780    1.2590   -0.0392 N   0  0  0  0  0  0  0  0  0  0  0  0
    4.5775    1.8745   -0.0698 H   0  0  0  0  0  0  0  0  0  0  0  0
    3.7966    0.7274    0.8195 H   0  0  0  0  0  0  0  0  0  0  0  0
   -0.5564    0.0727    2.1744 C   0  0  0  0  0  0  0  0  0  0  0  0
    0.6169   -0.1288    2.4805 O   0  0  0  0  0  0  0  0  0  0  0  0
   -1.4759    0.4743    3.0595 N   0  0  0  0  0  0  0  0  0  0  0  0
   -2.4132    0.6318    2.7275 H   0  0  0  0  0  0  0  0  0  0  0  0
   -1.1971    0.7118    4.4750 C   0  0  0  0  0  0  0  0  0  0  0  0
   -0.3779    1.4272    4.5748 H   0  0  0  0  0  0  0  0  0  0  0  0
   -2.0826    1.1064    4.9754 H   0  0  0  0  0  0  0  0  0  0  0  0
   -0.8992   -0.2240    4.9525 H   0  0  0  0  0  0  0  0  0  0  0  0
  5  6  2  0  0  0  0
  5  7  1  0  0  0  0
  2  3  1  0  0  0  0
  2  4  1  0  0  0  0
  2  5  1  0  0  0  0
  1  2  1  0  0  0  0
 26 27  2  0  0  0  0
 26 28  1  0  0  0  0
 23 24  1  0  0  0  0
 23 25  1  0  0  0  0
 20 21  1  0  0  0  0
 20 22  1  0  0  0  0
 20 23  1  0  0  0  0
 17 18  1  0  0  0  0
 17 19  1  0  0  0  0
 17 20  1  0  0  0  0
 14 15  1  0  0  0  0
 14 16  1  0  0  0  0
 14 17  1  0  0  0  0
 11 12  1  0  0  0  0
 11 13  1  0  0  0  0
 11 14  1  0  0  0  0
  9 10  1  0  0  0  0
  9 11  1  0  0  0  0
  9 26  1  0  0  0  0
  7  8  1  0  0  0  0
  7  9  1  0  0  0  0
 30 31  1  0  0  0  0
 30 32  1  0  0  0  0
 30 33  1  0  0  0  0
 28 29  1  0  0  0  0
 28 30  1  0  0  0  0
M  END
$$$$
default_name
  -OEChem-02102213163D

 33 32  0     1  0  0  0  0  0999 V2000
   -3.8420   -3.6918    1.5562 H   0  0  0  0  0  0  0  0  0  0  0  0
   -3.8430   -2.7008    1.1032 C   0  0  0  0  0  0  0  0  0  0  0  0
   -4.5510   -2.0608    1.6242 H   0  0  0  0  0  0  0  0  0  0  0  0
   -4.1140   -2.7798    0.0522 H   0  0  0  0  0  0  0  0  0  0  0  0
   -2.4570   -2.1098    1.2172 C   0  0  0  0  0  0  0  0  0  0  0  0
   -1.5600   -2.7438    1.7572 O   0  0  0  0  0  0  0  0  0  0  0  0
   -2.2870   -0.8898    0.7102 N   0  0  0  0  0  0  0  0  0  0  0  0
   -3.0820   -0.4218    0.2992 H   0  0  0  0  0  0  0  0  0  0  0  0
   -1.0240   -0.1468    0.7262 C   0  0  1  0  0  0  0  0  0  0  0  0
   -0.2680   -0.7367    0.2062 H   0  0  0  0  0  0  0  0  0  0  0  0
   -1.2212    1.1806   -0.0314 C   0  0  0  0  0  0  0  0  0  0  0  0
   -1.5175    0.9538   -1.0576 H   0  0  0  0  0  0  0  0  0  0  0  0
   -2.0267    1.7467    0.4384 H   0  0  0  0  0  0  0  0  0  0  0  0
    0.0465    2.0479   -0.0789 C   0  0  0  0  0  0  0  0  0  0  0  0
   -0.0707    2.8265   -0.8331 H   0  0  0  0  0  0  0  0  0  0  0  0
    0.1989    2.5146    0.8960 H   0  0  0  0  0  0  0  0  0  0  0  0
    1.2756    1.2019   -0.4303 C   0  0  0  0  0  0  0  0  0  0  0  0
    1.4017    0.4128    0.3117 H   0  0  0  0  0  0  0  0  0  0  0  0
    1.1384    0.7525   -1.4142 H   0  0  0  0  0  0  0  0  0  0  0  0
    2.5236    2.0824   -0.4464 C   0  0  0  0  0  0  0  0  0  0  0  0
    2.4076    2.8600   -1.1997 H   0  0  0  0  0  0  0  0  0  0  0  0
    2.6522    2.5460    0.5303 H   0  0  0  0  0  0  0  0  0  0  0  0
    3.7244    1.2982   -0.7568 N   0  0  0  0  0  0  0  0  0  0  0  0
    4.5254    1.9122   -0.7728 H   0  0  0  0  0  0  0  0  0  0  0  0
    3.8547    0.5952   -0.0432 H   0  0  0  0  0  0  0  0  0  0  0  0
   -0.5564    0.0727    2.1744 C   0  0  0  0  0  0  0  0  0  0  0  0
    0.6169   -0.1288    2.4805 O   0  0  0  0  0  0  0  0  0  0  0  0
   -1.4759    0.4743    3.0595 N   0  0  0  0  0  0  0  0  0  0  0  0
   -2.4132    0.6318    2.7275 H   0  0  0  0  0  0  0  0  0  0  0  0
   -1.1971    0.7118    4.4750 C   0  0  0  0  0  0  0  0  0  0  0  0
   -0.3779    1.4272    4.5748 H   0  0  0  0  0  0  0  0  0  0  0  0
   -2.0826    1.1064    4.9754 H   0  0  0  0  0  0  0  0  0  0  0  0
   -0.8992   -0.2240    4.9525 H   0  0  0  0  0  0  0  0  0  0  0  0
  5  6  2  0  0  0  0
  5  7  1  0  0  0  0
  2  3  1  0  0  0  0
  2  4  1  0  0  0  0
  2  5  1  0  0  0  0
  1  2  1  0  0  0  0
 26 27  2  0  0  0  0
 26 28  1  0  0  0  0
 23 24  1  0  0  0  0
 23 25  1  0  0  0  0
 20 21  1  0  0  0  0
 20 22  1  0  0  0  0
 20 23  1  0  0  0  0
 17 18  1  0  0  0  0
 17 19  1  0  0  0  0
 17 20  1  0  0  0  0
 14 15  1  0  0  0  0
 14 16  1  0  0  0  0
 14 17  1  0  0  0  0
 11 12  1  0  0  0  0
 11 13  1  0  0  0  0
 11 14  1  0  0  0  0
  9 10  1  0  0  0  0
  9 11  1  0  0  0  0
  9 26  1  0  0  0  0
  7  8  1  0  0  0  0
  7  9  1  0  0  0  0
 30 31  1  0  0  0  0
 30 32  1  0  0  0  0
 30 33  1  0  0  0  0
 28 29  1  0  0  0  0
 28 30  1  0  0  0  0
M  END
$$$$
default_name
  -OEChem-02102213163D

 33 32  0     1  0  0  0  0  0999 V2000
   -3.8420   -3.6918    1.5562 H   0  0  0  0  0  0  0  0  0  0  0  0
   -3.8430   -2.7008    1.1032 C   0  0  0  0  0  0  0  0  0  0  0  0
   -4.5510   -2.0608    1.6242 H   0  0  0  0  0  0  0  0  0  0  0  0
   -4.1140   -2.7798    0.0522 H   0  0  0  0  0  0  0  0  0  0  0  0
   -2.4570   -2.1098    1.2172 C   0  0  0  0  0  0  0  0  0  0  0  0
   -1.5600   -2.7438    1.7572 O   0  0  0  0  0  0  0  0  0  0  0  0
   -2.2870   -0.8898    0.7102 N   0  0  0  0  0  0  0  0  0  0  0  0
   -3.0820   -0.4218    0.2992 H   0  0  0  0  0  0  0  0  0  0  0  0
   -1.0240   -0.1468    0.7262 C   0  0  1  0  0  0  0  0  0  0  0  0
   -0.2680   -0.7367    0.2062 H   0  0  0  0  0  0  0  0  0  0  0  0
   -1.2212    1.1806   -0.0314 C   0  0  0  0  0  0  0  0  0  0  0  0
   -1.5175    0.9538   -1.0576 H   0  0  0  0  0  0  0  0  0  0  0  0
   -2.0267    1.7467    0.4384 H   0  0  0  0  0  0  0  0  0  0  0  0
    0.0465    2.0479   -0.0789 C   0  0  0  0  0  0  0  0  0  0  0  0
   -0.1604    2.9690   -0.6245 H   0  0  0  0  0  0  0  0  0  0  0  0
    0.3499    2.2962    0.9398 H   0  0  0  0  0  0  0  0  0  0  0  0
    1.1910    1.3064   -0.7790 C   0  0  0  0  0  0  0  0  0  0  0  0
    1.4046    0.3778   -0.2489 H   0  0  0  0  0  0  0  0  0  0  0  0
    0.9017    1.0771   -1.8050 H   0  0  0  0  0  0  0  0  0  0  0  0
    2.4441    2.1798   -0.7905 C   0  0  0  0  0  0  0  0  0  0  0  0
    2.2386    3.0997   -1.3355 H   0  0  0  0  0  0  0  0  0  0  0  0
    2.7242    2.4245    0.2327 H   0  0  0  0  0  0  0  0  0  0  0  0
    3.5680    1.4896   -1.4338 N   0  0  0  0  0  0  0  0  0  0  0  0
    4.3726    2.0992   -1.4362 H   0  0  0  0  0  0  0  0  0  0  0  0
    3.7837    0.6513   -0.9133 H   0  0  0  0  0  0  0  0  0  0  0  0
   -0.5564    0.0727    2.1744 C   0  0  0  0  0  0  0  0  0  0  0  0
    0.6169   -0.1288    2.4805 O   0  0  0  0  0  0  0  0  0  0  0  0
   -1.4759    0.4743    3.0595 N   0  0  0  0  0  0  0  0  0  0  0  0
   -2.4132    0.6318    2.7275 H   0  0  0  0  0  0  0  0  0  0  0  0
   -1.1971    0.7118    4.4750 C   0  0  0  0  0  0  0  0  0  0  0  0
   -0.3779    1.4272    4.5748 H   0  0  0  0  0  0  0  0  0  0  0  0
   -2.0826    1.1064    4.9754 H   0  0  0  0  0  0  0  0  0  0  0  0
   -0.8992   -0.2240    4.9525 H   0  0  0  0  0  0  0  0  0  0  0  0
  5  6  2  0  0  0  0
  5  7  1  0  0  0  0
  2  3  1  0  0  0  0
  2  4  1  0  0  0  0
  2  5  1  0  0  0  0
  1  2  1  0  0  0  0
 26 27  2  0  0  0  0
 26 28  1  0  0  0  0
 23 24  1  0  0  0  0
 23 25  1  0  0  0  0
 20 21  1  0  0  0  0
 20 22  1  0  0  0  0
 20 23  1  0  0  0  0
 17 18  1  0  0  0  0
 17 19  1  0  0  0  0
 17 20  1  0  0  0  0
 14 15  1  0  0  0  0
 14 16  1  0  0  0  0
 14 17  1  0  0  0  0
 11 12  1  0  0  0  0
 11 13  1  0  0  0  0
 11 14  1  0  0  0  0
  9 10  1  0  0  0  0
  9 11  1  0  0  0  0
  9 26  1  0  0  0  0
  7  8  1  0  0  0  0
  7  9  1  0  0  0  0
 30 31  1  0  0  0  0
 30 32  1  0  0  0  0
 30 33  1  0  0  0  0
 28 29  1  0  0  0  0
 28 30  1  0  0  0  0
M  END
$$$$
default_name
  -OEChem-02102213163D

 33 32  0     1  0  0  0  0  0999 V2000
   -3.8420   -3.6918    1.5562 H   0  0  0  0  0  0  0  0  0  0  0  0
   -3.8430   -2.7008    1.1032 C   0  0  0  0  0  0  0  0  0  0  0  0
   -4.5510   -2.0608    1.6242 H   0  0  0  0  0  0  0  0  0  0  0  0
   -4.1140   -2.7798    0.0522 H   0  0  0  0  0  0  0  0  0  0  0  0
   -2.4570   -2.1098    1.2172 C   0  0  0  0  0  0  0  0  0  0  0  0
   -1.5600   -2.7438    1.7572 O   0  0  0  0  0  0  0  0  0  0  0  0
   -2.2870   -0.8898    0.7102 N   0  0  0  0  0  0  0  0  0  0  0  0
   -3.0820   -0.4218    0.2992 H   0  0  0  0  0  0  0  0  0  0  0  0
   -1.0240   -0.1468    0.7262 C   0  0  1  0  0  0  0  0  0  0  0  0
   -0.2680   -0.7367    0.2062 H   0  0  0  0  0  0  0  0  0  0  0  0
   -1.2212    1.1806   -0.0314 C   0  0  0  0  0  0  0  0  0  0  0  0
   -1.5175    0.9538   -1.0576 H   0  0  0  0  0  0  0  0  0  0  0  0
   -2.0267    1.7467    0.4384 H   0  0  0  0  0  0  0  0  0  0  0  0
    0.0465    2.0479   -0.0789 C   0  0  0  0  0  0  0  0  0  0  0  0
   -0.2153    3.0628   -0.3794 H   0  0  0  0  0  0  0  0  0  0  0  0
    0.5004    2.0747    0.9134 H   0  0  0  0  0  0  0  0  0  0  0  0
    1.0592    1.4825   -1.0812 C   0  0  0  0  0  0  0  0  0  0  0  0
    1.3253    0.4637   -0.7982 H   0  0  0  0  0  0  0  0  0  0  0  0
    0.6186    1.4759   -2.0786 H   0  0  0  0  0  0  0  0  0  0  0  0
    2.3178    2.3479   -1.0905 C   0  0  0  0  0  0  0  0  0  0  0  0
    2.0574    3.3616   -1.3909 H   0  0  0  0  0  0  0  0  0  0  0  0
    2.7493    2.3701   -0.0911 H   0  0  0  0  0  0  0  0  0  0  0  0
    3.3196    1.8204   -2.0240 N   0  0  0  0  0  0  0  0  0  0  0  0
    4.1297    2.4226   -2.0147 H   0  0  0  0  0  0  0  0  0  0  0  0
    3.5886    0.8918   -1.7314 H   0  0  0  0  0  0  0  0  0  0  0  0
   -0.5564    0.0727    2.1744 C   0  0  0  0  0  0  0  0  0  0  0  0
    0.6169   -0.1288    2.4805 O   0  0  0  0  0  0  0  0  0  0  0  0
   -1.4759    0.4743    3.0595 N   0  0  0  0  0  0  0  0  0  0  0  0
   -2.4132    0.6318    2.7275 H   0  0  0  0  0  0  0  0  0  0  0  0
   -1.1971    0.7118    4.4750 C   0  0  0  0  0  0  0  0  0  0  0  0
   -0.3779    1.4272    4.5748 H   0  0  0  0  0  0  0  0  0  0  0  0
   -2.0826    1.1064    4.9754 H   0  0  0  0  0  0  0  0  0  0  0  0
   -0.8992   -0.2240    4.9525 H   0  0  0  0  0  0  0  0  0  0  0  0
  5  6  2  0  0  0  0
  5  7  1  0  0  0  0
  2  3  1  0  0  0  0
  2  4  1  0  0  0  0
  2  5  1  0  0  0  0
  1  2  1  0  0  0  0
 26 27  2  0  0  0  0
 26 28  1  0  0  0  0
 23 24  1  0  0  0  0
 23 25  1  0  0  0  0
 20 21  1  0  0  0  0
 20 22  1  0  0  0  0
 20 23  1  0  0  0  0
 17 18  1  0  0  0  0
 17 19  1  0  0  0  0
 17 20  1  0  0  0  0
 14 15  1  0  0  0  0
 14 16  1  0  0  0  0
 14 17  1  0  0  0  0
 11 12  1  0  0  0  0
 11 13  1  0  0  0  0
 11 14  1  0  0  0  0
  9 10  1  0  0  0  0
  9 11  1  0  0  0  0
  9 26  1  0  0  0  0
  7  8  1  0  0  0  0
  7  9  1  0  0  0  0
 30 31  1  0  0  0  0
 30 32  1  0  0  0  0
 30 33  1  0  0  0  0
 28 29  1  0  0  0  0
 28 30  1  0  0  0  0
M  END
$$$$
default_name
  -OEChem-02102213163D

 33 32  0     1  0  0  0  0  0999 V2000
   -3.8420   -3.6918    1.5562 H   0  0  0  0  0  0  0  0  0  0  0  0
   -3.8430   -2.7008    1.1032 C   0  0  0  0  0  0  0  0  0  0  0  0
   -4.5510   -2.0608    1.6242 H   0  0  0  0  0  0  0  0  0  0  0  0
   -4.1140   -2.7798    0.0522 H   0  0  0  0  0  0  0  0  0  0  0  0
   -2.4570   -2.1098    1.2172 C   0  0  0  0  0  0  0  0  0  0  0  0
   -1.5600   -2.7438    1.7572 O   0  0  0  0  0  0  0  0  0  0  0  0
   -2.2870   -0.8898    0.7102 N   0  0  0  0  0  0  0  0  0  0  0  0
   -3.0820   -0.4218    0.2992 H   0  0  0  0  0  0  0  0  0  0  0  0
   -1.0240   -0.1468    0.7262 C   0  0  1  0  0  0  0  0  0  0  0  0
   -0.2680   -0.7367    0.2062 H   0  0  0  0  0  0  0  0  0  0  0  0
   -1.2212    1.1806   -0.0314 C   0  0  0  0  0  0  0  0  0  0  0  0
   -1.5175    0.9538   -1.0576 H   0  0  0  0  0  0  0  0  0  0  0  0
   -2.0267    1.7467    0.4384 H   0  0  0  0  0  0  0  0  0  0  0  0
    0.0465    2.0479   -0.0789 C   0  0  0  0  0  0  0  0  0  0  0  0
   -0.2319    3.1015   -0.1146 H   0  0  0  0  0  0  0  0  0  0  0  0
    0.6402    1.8652    0.8187 H   0  0  0  0  0  0  0  0  0  0  0  0
    0.8891    1.7182   -1.3163 C   0  0  0  0  0  0  0  0  0  0  0  0
    1.1691    0.6645   -1.2989 H   0  0  0  0  0  0  0  0  0  0  0  0
    0.3083    1.9218   -2.2164 H   0  0  0  0  0  0  0  0  0  0  0  0
    2.1534    2.5754   -1.3259 C   0  0  0  0  0  0  0  0  0  0  0  0
    1.8763    3.6278   -1.3620 H   0  0  0  0  0  0  0  0  0  0  0  0
    2.7258    2.3865   -0.4192 H   0  0  0  0  0  0  0  0  0  0  0  0
    2.9962    2.2679   -2.4871 N   0  0  0  0  0  0  0  0  0  0  0  0
    3.8131    2.8605   -2.4690 H   0  0  0  0  0  0  0  0  0  0  0  0
    3.2825    1.3003   -2.4417 H   0  0  0  0  0  0  0  0  0  0  0  0
   -0.5564    0.0727    2.1744 C   0  0  0  0  0  0  0  0  0  0  0  0
    0.6169   -0.1288    2.4805 O   0  0  0  0  0  0  0  0  0  0  0  0
   -1.4759    0.4743    3.0595 N   0  0  0  0  0  0  0  0  0  0  0  0
   -2.4132    0.6318    2.7275 H   0  0  0  0  0  0  0  0  0  0  0  0
   -1.1971    0.7118    4.4750 C   0  0  0  0  0  0  0  0  0  0  0  0
   -0.3779    1.4272    4.5748 H   0  0  0  0  0  0  0  0  0  0  0  0
   -2.0826    1.1064    4.9754 H   0  0  0  0  0  0  0  0  0  0  0  0
   -0.8992   -0.2240    4.9525 H   0  0  0  0  0  0  0  0  0  0  0  0
  5  6  2  0  0  0  0
  5  7  1  0  0  0  0
  2  3  1  0  0  0  0
  2  4  1  0  0  0  0
  2  5  1  0  0  0  0
  1  2  1  0  0  0  0
 26 27  2  0  0  0  0
 26 28  1  0  0  0  0
 23 24  1  0  0  0  0
 23 25  1  0  0  0  0
 20 21  1  0  0  0  0
 20 22  1  0  0  0  0
 20 23  1  0  0  0  0
 17 18  1  0  0  0  0
 17 19  1  0  0  0  0
 17 20  1  0  0  0  0
 14 15  1  0  0  0  0
 14 16  1  0  0  0  0
 14 17  1  0  0  0  0
 11 12  1  0  0  0  0
 11 13  1  0  0  0  0
 11 14  1  0  0  0  0
  9 10  1  0  0  0  0
  9 11  1  0  0  0  0
  9 26  1  0  0  0  0
  7  8  1  0  0  0  0
  7  9  1  0  0  0  0
 30 31  1  0  0  0  0
 30 32  1  0  0  0  0
 30 33  1  0  0  0  0
 28 29  1  0  0  0  0
 28 30  1  0  0  0  0
M  END
$$$$
default_name
  -OEChem-02102213163D

 33 32  0     1  0  0  0  0  0999 V2000
   -3.8420   -3.6918    1.5562 H   0  0  0  0  0  0  0  0  0  0  0  0
   -3.8430   -2.7008    1.1032 C   0  0  0  0  0  0  0  0  0  0  0  0
   -4.5510   -2.0608    1.6242 H   0  0  0  0  0  0  0  0  0  0  0  0
   -4.1140   -2.7798    0.0522 H   0  0  0  0  0  0  0  0  0  0  0  0
   -2.4570   -2.1098    1.2172 C   0  0  0  0  0  0  0  0  0  0  0  0
   -1.5600   -2.7438    1.7572 O   0  0  0  0  0  0  0  0  0  0  0  0
   -2.2870   -0.8898    0.7102 N   0  0  0  0  0  0  0  0  0  0  0  0
   -3.0820   -0.4218    0.2992 H   0  0  0  0  0  0  0  0  0  0  0  0
   -1.0240   -0.1468    0.7262 C   0  0  1  0  0  0  0  0  0  0  0  0
   -0.2680   -0.7367    0.2062 H   0  0  0  0  0  0  0  0  0  0  0  0
   -1.2212    1.1806   -0.0314 C   0  0  0  0  0  0  0  0  0  0  0  0
   -1.5175    0.9538   -1.0576 H   0  0  0  0  0  0  0  0  0  0  0  0
   -2.0267    1.7467    0.4384 H   0  0  0  0  0  0  0  0  0  0  0  0
    0.0465    2.0479   -0.0789 C   0  0  0  0  0  0  0  0  0  0  0  0
   -0.2089    3.0824    0.1519 H   0  0  0  0  0  0  0  0  0  0  0  0
    0.7597    1.6820    0.6620 H   0  0  0  0  0  0  0  0  0  0  0  0
    0.6924    1.9975   -1.4681 C   0  0  0  0  0  0  0  0  0  0  0  0
    0.9468    0.9667   -1.7169 H   0  0  0  0  0  0  0  0  0  0  0  0
   -0.0079    2.3845   -2.2089 H   0  0  0  0  0  0  0  0  0  0  0  0
    1.9620    2.8467   -1.4807 C   0  0  0  0  0  0  0  0  0  0  0  0
    1.7078    3.8802   -1.2508 H   0  0  0  0  0  0  0  0  0  0  0  0
    2.6553    2.4726   -0.7292 H   0  0  0  0  0  0  0  0  0  0  0  0
    2.6196    2.8016   -2.7917 N   0  0  0  0  0  0  0  0  0  0  0  0
    3.4445    3.3830   -2.7680 H   0  0  0  0  0  0  0  0  0  0  0  0
    2.8864    1.8490   -2.9959 H   0  0  0  0  0  0  0  0  0  0  0  0
   -0.5564    0.0727    2.1744 C   0  0  0  0  0  0  0  0  0  0  0  0
    0.6169   -0.1288    2.4805 O   0  0  0  0  0  0  0  0  0  0  0  0
   -1.4759    0.4743    3.0595 N   0  0  0  0  0  0  0  0  0  0  0  0
   -2.4132    0.6318    2.7275 H   0  0  0  0  0  0  0  0  0  0  0  0
   -1.1971    0.7118    4.4750 C   0  0  0  0  0  0  0  0  0  0  0  0
   -0.3779    1.4272    4.5748 H   0  0  0  0  0  0  0  0  0  0  0  0
   -2.0826    1.1064    4.9754 H   0  0  0  0  0  0  0  0  0  0  0  0
   -0.8992   -0.2240    4.9525 H   0  0  0  0  0  0  0  0  0  0  0  0
  5  6  2  0  0  0  0
  5  7  1  0  0  0  0
  2  3  1  0  0  0  0
  2  4  1  0  0  0  0
  2  5  1  0  0  0  0
  1  2  1  0  0  0  0
 26 27  2  0  0  0  0
 26 28  1  0  0  0  0
 23 24  1  0  0  0  0
 23 25  1  0  0  0  0
 20 21  1  0  0  0  0
 20 22  1  0  0  0  0
 20 23  1  0  0  0  0
 17 18  1  0  0  0  0
 17 19  1  0  0  0  0
 17 20  1  0  0  0  0
 14 15  1  0  0  0  0
 14 16  1  0  0  0  0
 14 17  1  0  0  0  0
 11 12  1  0  0  0  0
 11 13  1  0  0  0  0
 11 14  1  0  0  0  0
  9 10  1  0  0  0  0
  9 11  1  0  0  0  0
  9 26  1  0  0  0  0
  7  8  1  0  0  0  0
  7  9  1  0  0  0  0
 30 31  1  0  0  0  0
 30 32  1  0  0  0  0
 30 33  1  0  0  0  0
 28 29  1  0  0  0  0
 28 30  1  0  0  0  0
M  END
$$$$
default_name
  -OEChem-02102213163D

 33 32  0     1  0  0  0  0  0999 V2000
   -3.8420   -3.6918    1.5562 H   0  0  0  0  0  0  0  0  0  0  0  0
   -3.8430   -2.7008    1.1032 C   0  0  0  0  0  0  0  0  0  0  0  0
   -4.5510   -2.0608    1.6242 H   0  0  0  0  0  0  0  0  0  0  0  0
   -4.1140   -2.7798    0.0522 H   0  0  0  0  0  0  0  0  0  0  0  0
   -2.4570   -2.1098    1.2172 C   0  0  0  0  0  0  0  0  0  0  0  0
   -1.5600   -2.7438    1.7572 O   0  0  0  0  0  0  0  0  0  0  0  0
   -2.2870   -0.8898    0.7102 N   0  0  0  0  0  0  0  0  0  0  0  0
   -3.0820   -0.4218    0.2992 H   0  0  0  0  0  0  0  0  0  0  0  0
   -1.0240   -0.1468    0.7262 C   0  0  1  0  0  0  0  0  0  0  0  0
   -0.2680   -0.7367    0.2062 H   0  0  0  0  0  0  0  0  0  0  0  0
   -1.2212    1.1806   -0.0314 C   0  0  0  0  0  0  0  0  0  0  0  0
   -1.5175    0.9538   -1.0576 H   0  0  0  0  0  0  0  0  0  0  0  0
   -2.0267    1.7467    0.4384 H   0  0  0  0  0  0  0  0  0  0  0  0
    0.0465    2.0479   -0.0789 C   0  0  0  0  0  0  0  0  0  0  0  0
   -0.1479    3.0070    0.4018 H   0  0  0  0  0  0  0  0  0  0  0  0
    0.8508    1.5374    0.4541 H   0  0  0  0  0  0  0  0  0  0  0  0
    0.4825    2.3012   -1.5265 C   0  0  0  0  0  0  0  0  0  0  0  0
    0.6733    1.3496   -2.0236 H   0  0  0  0  0  0  0  0  0  0  0  0
   -0.3085    2.8323   -2.0568 H   0  0  0  0  0  0  0  0  0  0  0  0
    1.7566    3.1434   -1.5443 C   0  0  0  0  0  0  0  0  0  0  0  0
    1.5633    4.1016   -1.0648 H   0  0  0  0  0  0  0  0  0  0  0  0
    2.5426    2.6225   -0.9999 H   0  0  0  0  0  0  0  0  0  0  0  0
    2.2157    3.3851   -2.9169 N   0  0  0  0  0  0  0  0  0  0  0  0
    3.0489    3.9545   -2.8915 H   0  0  0  0  0  0  0  0  0  0  0  0
    2.4272    2.5005   -3.3563 H   0  0  0  0  0  0  0  0  0  0  0  0
   -0.5564    0.0727    2.1744 C   0  0  0  0  0  0  0  0  0  0  0  0
    0.6169   -0.1288    2.4805 O   0  0  0  0  0  0  0  0  0  0  0  0
   -1.4759    0.4743    3.0595 N   0  0  0  0  0  0  0  0  0  0  0  0
   -2.4132    0.6318    2.7275 H   0  0  0  0  0  0  0  0  0  0  0  0
   -1.1971    0.7118    4.4750 C   0  0  0  0  0  0  0  0  0  0  0  0
   -0.3779    1.4272    4.5748 H   0  0  0  0  0  0  0  0  0  0  0  0
   -2.0826    1.1064    4.9754 H   0  0  0  0  0  0  0  0  0  0  0  0
   -0.8992   -0.2240    4.9525 H   0  0  0  0  0  0  0  0  0  0  0  0
  5  6  2  0  0  0  0
  5  7  1  0  0  0  0
  2  3  1  0  0  0  0
  2  4  1  0  0  0  0
  2  5  1  0  0  0  0
  1  2  1  0  0  0  0
 26 27  2  0  0  0  0
 26 28  1  0  0  0  0
 23 24  1  0  0  0  0
 23 25  1  0  0  0  0
 20 21  1  0  0  0  0
 20 22  1  0  0  0  0
 20 23  1  0  0  0  0
 17 18  1  0  0  0  0
 17 19  1  0  0  0  0
 17 20  1  0  0  0  0
 14 15  1  0  0  0  0
 14 16  1  0  0  0  0
 14 17  1  0  0  0  0
 11 12  1  0  0  0  0
 11 13  1  0  0  0  0
 11 14  1  0  0  0  0
  9 10  1  0  0  0  0
  9 11  1  0  0  0  0
  9 26  1  0  0  0  0
  7  8  1  0  0  0  0
  7  9  1  0  0  0  0
 30 31  1  0  0  0  0
 30 32  1  0  0  0  0
 30 33  1  0  0  0  0
 28 29  1  0  0  0  0
 28 30  1  0  0  0  0
M  END
$$$$
default_name
  -OEChem-02102213163D

 33 32  0     1  0  0  0  0  0999 V2000
   -3.8420   -3.6918    1.5562 H   0  0  0  0  0  0  0  0  0  0  0  0
   -3.8430   -2.7008    1.1032 C   0  0  0  0  0  0  0  0  0  0  0  0
   -4.5510   -2.0608    1.6242 H   0  0  0  0  0  0  0  0  0  0  0  0
   -4.1140   -2.7798    0.0522 H   0  0  0  0  0  0  0  0  0  0  0  0
   -2.4570   -2.1098    1.2172 C   0  0  0  0  0  0  0  0  0  0  0  0
   -1.5600   -2.7438    1.7572 O   0  0  0  0  0  0  0  0  0  0  0  0
   -2.2870   -0.8898    0.7102 N   0  0  0  0  0  0  0  0  0  0  0  0
   -3.0820   -0.4218    0.2992 H   0  0  0  0  0  0  0  0  0  0  0  0
   -1.0240   -0.1468    0.7262 C   0  0  1  0  0  0  0  0  0  0  0  0
   -0.2680   -0.7367    0.2062 H   0  0  0  0  0  0  0  0  0  0  0  0
   -1.2212    1.1806   -0.0314 C   0  0  0  0  0  0  0  0  0  0  0  0
   -1.5175    0.9538   -1.0576 H   0  0  0  0  0  0  0  0  0  0  0  0
   -2.0267    1.7467    0.4384 H   0  0  0  0  0  0  0  0  0  0  0  0
    0.0465    2.0479   -0.0789 C   0  0  0  0  0  0  0  0  0  0  0  0
   -0.0531    2.8803    0.6183 H   0  0  0  0  0  0  0  0  0  0  0  0
    0.9072    1.4415    0.2091 H   0  0  0  0  0  0  0  0  0  0  0  0
    0.2736    2.6086   -1.4873 C   0  0  0  0  0  0  0  0  0  0  0  0
    0.3675    1.7871   -2.1982 H   0  0  0  0  0  0  0  0  0  0  0  0
   -0.5731    3.2348   -1.7702 H   0  0  0  0  0  0  0  0  0  0  0  0
    1.5514    3.4451   -1.5125 C   0  0  0  0  0  0  0  0  0  0  0  0
    1.4527    4.2769   -0.8169 H   0  0  0  0  0  0  0  0  0  0  0  0
    2.3954    2.8259   -1.2130 H   0  0  0  0  0  0  0  0  0  0  0  0
    1.8119    3.9788   -2.8543 N   0  0  0  0  0  0  0  0  0  0  0  0
    2.6534    4.5360   -2.8309 H   0  0  0  0  0  0  0  0  0  0  0  0
    1.9362    3.2104   -3.4981 H   0  0  0  0  0  0  0  0  0  0  0  0
   -0.5564    0.0727    2.1744 C   0  0  0  0  0  0  0  0  0  0  0  0
    0.6169   -0.1288    2.4805 O   0  0  0  0  0  0  0  0  0  0  0  0
   -1.4759    0.4743    3.0595 N   0  0  0  0  0  0  0  0  0  0  0  0
   -2.4132    0.6318    2.7275 H   0  0  0  0  0  0  0  0  0  0  0  0
   -1.1971    0.7118    4.4750 C   0  0  0  0  0  0  0  0  0  0  0  0
   -0.3779    1.4272    4.5748 H   0  0  0  0  0  0  0  0  0  0  0  0
   -2.0826    1.1064    4.9754 H   0  0  0  0  0  0  0  0  0  0  0  0
   -0.8992   -0.2240    4.9525 H   0  0  0  0  0  0  0  0  0  0  0  0
  5  6  2  0  0  0  0
  5  7  1  0  0  0  0
  2  3  1  0  0  0  0
  2  4  1  0  0  0  0
  2  5  1  0  0  0  0
  1  2  1  0  0  0  0
 26 27  2  0  0  0  0
 26 28  1  0  0  0  0
 23 24  1  0  0  0  0
 23 25  1  0  0  0  0
 20 21  1  0  0  0  0
 20 22  1  0  0  0  0
 20 23  1  0  0  0  0
 17 18  1  0  0  0  0
 17 19  1  0  0  0  0
 17 20  1  0  0  0  0
 14 15  1  0  0  0  0
 14 16  1  0  0  0  0
 14 17  1  0  0  0  0
 11 12  1  0  0  0  0
 11 13  1  0  0  0  0
 11 14  1  0  0  0  0
  9 10  1  0  0  0  0
  9 11  1  0  0  0  0
  9 26  1  0  0  0  0
  7  8  1  0  0  0  0
  7  9  1  0  0  0  0
 30 31  1  0  0  0  0
 30 32  1  0  0  0  0
 30 33  1  0  0  0  0
 28 29  1  0  0  0  0
 28 30  1  0  0  0  0
M  END
$$$$
default_name
  -OEChem-02102213163D

 33 32  0     1  0  0  0  0  0999 V2000
   -3.8420   -3.6918    1.5562 H   0  0  0  0  0  0  0  0  0  0  0  0
   -3.8430   -2.7008    1.1032 C   0  0  0  0  0  0  0  0  0  0  0  0
   -4.5510   -2.0608    1.6242 H   0  0  0  0  0  0  0  0  0  0  0  0
   -4.1140   -2.7798    0.0522 H   0  0  0  0  0  0  0  0  0  0  0  0
   -2.4570   -2.1098    1.2172 C   0  0  0  0  0  0  0  0  0  0  0  0
   -1.5600   -2.7438    1.7572 O   0  0  0  0  0  0  0  0  0  0  0  0
   -2.2870   -0.8898    0.7102 N   0  0  0  0  0  0  0  0  0  0  0  0
   -3.0820   -0.4218    0.2992 H   0  0  0  0  0  0  0  0  0  0  0  0
   -1.0240   -0.1468    0.7262 C   0  0  1  0  0  0  0  0  0  0  0  0
   -0.2680   -0.7367    0.2062 H   0  0  0  0  0  0  0  0  0  0  0  0
   -1.2212    1.1806   -0.0314 C   0  0  0  0  0  0  0  0  0  0  0  0
   -1.5175    0.9538   -1.0576 H   0  0  0  0  0  0  0  0  0  0  0  0
   -2.0267    1.7467    0.4384 H   0  0  0  0  0  0  0  0  0  0  0  0
    0.0465    2.0479   -0.0789 C   0  0  0  0  0  0  0  0  0  0  0  0
    0.0691    2.7109    0.7864 H   0  0  0  0  0  0  0  0  0  0  0  0
    0.9252    1.4007   -0.0563 H   0  0  0  0  0  0  0  0  0  0  0  0
    0.0800    2.8990   -1.3534 C   0  0  0  0  0  0  0  0  0  0  0  0
    0.0501    2.2494   -2.2287 H   0  0  0  0  0  0  0  0  0  0  0  0
   -0.7836    3.5645   -1.3689 H   0  0  0  0  0  0  0  0  0  0  0  0
    1.3602    3.7314   -1.3873 C   0  0  0  0  0  0  0  0  0  0  0  0
    1.3834    4.3942   -0.5237 H   0  0  0  0  0  0  0  0  0  0  0  0
    2.2237    3.0692   -1.3539 H   0  0  0  0  0  0  0  0  0  0  0  0
    1.4358    4.5421   -2.6081 N   0  0  0  0  0  0  0  0  0  0  0  0
    2.2848    5.0879   -2.5905 H   0  0  0  0  0  0  0  0  0  0  0  0
    1.4469    3.9304   -3.4119 H   0  0  0  0  0  0  0  0  0  0  0  0
   -0.5564    0.0727    2.1744 C   0  0  0  0  0  0  0  0  0  0  0  0
    0.6169   -0.1288    2.4805 O   0  0  0  0  0  0  0  0  0  0  0  0
   -1.4759    0.4743    3.0595 N   0  0  0  0  0  0  0  0  0  0  0  0
   -2.4132    0.6318    2.7275 H   0  0  0  0  0  0  0  0  0  0  0  0
   -1.1971    0.7118    4.4750 C   0  0  0  0  0  0  0  0  0  0  0  0
   -0.3779    1.4272    4.5748 H   0  0  0  0  0  0  0  0  0  0  0  0
   -2.0826    1.1064    4.9754 H   0  0  0  0  0  0  0  0  0  0  0  0
   -0.8992   -0.2240    4.9525 H   0  0  0  0  0  0  0  0  0  0  0  0
  5  6  2  0  0  0  0
  5  7  1  0  0  0  0
  2  3  1  0  0  0  0
  2  4  1  0  0  0  0
  2  5  1  0  0  0  0
  1  2  1  0  0  0  0
 26 27  2  0  0  0  0
 26 28  1  0  0  0  0
 23 24  1  0  0  0  0
 23 25  1  0  0  0  0
 20 21  1  0  0  0  0
 20 22  1  0  0  0  0
 20 23  1  0  0  0  0
 17 18  1  0  0  0  0
 17 19  1  0  0  0  0
 17 20  1  0  0  0  0
 14 15  1  0  0  0  0
 14 16  1  0  0  0  0
 14 17  1  0  0  0  0
 11 12  1  0  0  0  0
 11 13  1  0  0  0  0
 11 14  1  0  0  0  0
  9 10  1  0  0  0  0
  9 11  1  0  0  0  0
  9 26  1  0  0  0  0
  7  8  1  0  0  0  0
  7  9  1  0  0  0  0
 30 31  1  0  0  0  0
 30 32  1  0  0  0  0
 30 33  1  0  0  0  0
 28 29  1  0  0  0  0
 28 30  1  0  0  0  0
M  END
$$$$
default_name
  -OEChem-02102213163D

 33 32  0     1  0  0  0  0  0999 V2000
   -3.8420   -3.6918    1.5562 H   0  0  0  0  0  0  0  0  0  0  0  0
   -3.8430   -2.7008    1.1032 C   0  0  0  0  0  0  0  0  0  0  0  0
   -4.5510   -2.0608    1.6242 H   0  0  0  0  0  0  0  0  0  0  0  0
   -4.1140   -2.7798    0.0522 H   0  0  0  0  0  0  0  0  0  0  0  0
   -2.4570   -2.1098    1.2172 C   0  0  0  0  0  0  0  0  0  0  0  0
   -1.5600   -2.7438    1.7572 O   0  0  0  0  0  0  0  0  0  0  0  0
   -2.2870   -0.8898    0.7102 N   0  0  0  0  0  0  0  0  0  0  0  0
   -3.0820   -0.4218    0.2992 H   0  0  0  0  0  0  0  0  0  0  0  0
   -1.0240   -0.1468    0.7262 C   0  0  1  0  0  0  0  0  0  0  0  0
   -0.2680   -0.7367    0.2062 H   0  0  0  0  0  0  0  0  0  0  0  0
   -1.2212    1.1806   -0.0314 C   0  0  0  0  0  0  0  0  0  0  0  0
   -1.5175    0.9538   -1.0576 H   0  0  0  0  0  0  0  0  0  0  0  0
   -2.0267    1.7467    0.4384 H   0  0  0  0  0  0  0  0  0  0  0  0
    0.0465    2.0479   -0.0789 C   0  0  0  0  0  0  0  0  0  0  0  0
    0.2103    2.5104    0.8948 H   0  0  0  0  0  0  0  0  0  0  0  0
    0.9035    1.4178   -0.3240 H   0  0  0  0  0  0  0  0  0  0  0  0
   -0.0851    3.1523   -1.1337 C   0  0  0  0  0  0  0  0  0  0  0  0
   -0.2573    2.7051   -2.1131 H   0  0  0  0  0  0  0  0  0  0  0  0
   -0.9257    3.7989   -0.8801 H   0  0  0  0  0  0  0  0  0  0  0  0
    1.1961    3.9828   -1.1773 C   0  0  0  0  0  0  0  0  0  0  0  0
    1.3603    4.4455   -0.2054 H   0  0  0  0  0  0  0  0  0  0  0  0
    2.0393    3.3356   -1.4129 H   0  0  0  0  0  0  0  0  0  0  0  0
    1.1130    5.0366   -2.1951 N   0  0  0  0  0  0  0  0  0  0  0  0
    1.9683    5.5727   -2.1866 H   0  0  0  0  0  0  0  0  0  0  0  0
    0.9927    4.6113   -3.1034 H   0  0  0  0  0  0  0  0  0  0  0  0
   -0.5564    0.0727    2.1744 C   0  0  0  0  0  0  0  0  0  0  0  0
    0.6169   -0.1288    2.4805 O   0  0  0  0  0  0  0  0  0  0  0  0
   -1.4759    0.4743    3.0595 N   0  0  0  0  0  0  0  0  0  0  0  0
   -2.4132    0.6318    2.7275 H   0  0  0  0  0  0  0  0  0  0  0  0
   -1.1971    0.7118    4.4750 C   0  0  0  0  0  0  0  0  0  0  0  0
   -0.3779    1.4272    4.5748 H   0  0  0  0  0  0  0  0  0  0  0  0
   -2.0826    1.1064    4.9754 H   0  0  0  0  0  0  0  0  0  0  0  0
   -0.8992   -0.2240    4.9525 H   0  0  0  0  0  0  0  0  0  0  0  0
  5  6  2  0  0  0  0
  5  7  1  0  0  0  0
  2  3  1  0  0  0  0
  2  4  1  0  0  0  0
  2  5  1  0  0  0  0
  1  2  1  0  0  0  0
 26 27  2  0  0  0  0
 26 28  1  0  0  0  0
 23 24  1  0  0  0  0
 23 25  1  0  0  0  0
 20 21  1  0  0  0  0
 20 22  1  0  0  0  0
 20 23  1  0  0  0  0
 17 18  1  0  0  0  0
 17 19  1  0  0  0  0
 17 20  1  0  0  0  0
 14 15  1  0  0  0  0
 14 16  1  0  0  0  0
 14 17  1  0  0  0  0
 11 12  1  0  0  0  0
 11 13  1  0  0  0  0
 11 14  1  0  0  0  0
  9 10  1  0  0  0  0
  9 11  1  0  0  0  0
  9 26  1  0  0  0  0
  7  8  1  0  0  0  0
  7  9  1  0  0  0  0
 30 31  1  0  0  0  0
 30 32  1  0  0  0  0
 30 33  1  0  0  0  0
 28 29  1  0  0  0  0
 28 30  1  0  0  0  0
M  END
$$$$
default_name
  -OEChem-02102213163D

 33 32  0     1  0  0  0  0  0999 V2000
   -3.8420   -3.6918    1.5562 H   0  0  0  0  0  0  0  0  0  0  0  0
   -3.8430   -2.7008    1.1032 C   0  0  0  0  0  0  0  0  0  0  0  0
   -4.5510   -2.0608    1.6242 H   0  0  0  0  0  0  0  0  0  0  0  0
   -4.1140   -2.7798    0.0522 H   0  0  0  0  0  0  0  0  0  0  0  0
   -2.4570   -2.1098    1.2172 C   0  0  0  0  0  0  0  0  0  0  0  0
   -1.5600   -2.7438    1.7572 O   0  0  0  0  0  0  0  0  0  0  0  0
   -2.2870   -0.8898    0.7102 N   0  0  0  0  0  0  0  0  0  0  0  0
   -3.0820   -0.4218    0.2992 H   0  0  0  0  0  0  0  0  0  0  0  0
   -1.0240   -0.1468    0.7262 C   0  0  1  0  0  0  0  0  0  0  0  0
   -0.2680   -0.7367    0.2062 H   0  0  0  0  0  0  0  0  0  0  0  0
   -1.2212    1.1806   -0.0314 C   0  0  0  0  0  0  0  0  0  0  0  0
   -1.7666    0.9755   -0.9549 H   0  0  0  0  0  0  0  0  0  0  0  0
   -1.8241    1.8560    0.5772 H   0  0  0  0  0  0  0  0  0  0  0  0
    0.1004    1.8733   -0.3988 C   0  0  0  0  0  0  0  0  0  0  0  0
    0.6629    2.0935    0.5089 H   0  0  0  0  0  0  0  0  0  0  0  0
    0.6902    1.2083   -1.0323 H   0  0  0  0  0  0  0  0  0  0  0  0
   -0.1590    3.1848   -1.1487 C   0  0  0  0  0  0  0  0  0  0  0  0
   -0.7283    2.9817   -2.0562 H   0  0  0  0  0  0  0  0  0  0  0  0
   -0.7277    3.8620   -0.5107 H   0  0  0  0  0  0  0  0  0  0  0  0
    1.1694    3.8394   -1.5231 C   0  0  0  0  0  0  0  0  0  0  0  0
    1.7316    4.0601   -0.6172 H   0  0  0  0  0  0  0  0  0  0  0  0
    1.7462    3.1574   -2.1456 H   0  0  0  0  0  0  0  0  0  0  0  0
    0.9573    5.0879   -2.2644 N   0  0  0  0  0  0  0  0  0  0  0  0
    1.8530    5.4991   -2.4827 H   0  0  0  0  0  0  0  0  0  0  0  0
    0.4637    4.8843   -3.1219 H   0  0  0  0  0  0  0  0  0  0  0  0
   -0.5564    0.0727    2.1744 C   0  0  0  0  0  0  0  0  0  0  0  0
    0.6169   -0.1288    2.4805 O   0  0  0  0  0  0  0  0  0  0  0  0
   -1.4759    0.4743    3.0595 N   0  0  0  0  0  0  0  0  0  0  0  0
   -2.4132    0.6318    2.7275 H   0  0  0  0  0  0  0  0  0  0  0  0
   -1.1971    0.7118    4.4750 C   0  0  0  0  0  0  0  0  0  0  0  0
   -0.3779    1.4272    4.5748 H   0  0  0  0  0  0  0  0  0  0  0  0
   -2.0826    1.1064    4.9754 H   0  0  0  0  0  0  0  0  0  0  0  0
   -0.8992   -0.2240    4.9525 H   0  0  0  0  0  0  0  0  0  0  0  0
  5  6  2  0  0  0  0
  5  7  1  0  0  0  0
  2  3  1  0  0  0  0
  2  4  1  0  0  0  0
  2  5  1  0  0  0  0
  1  2  1  0  0  0  0
 26 27  2  0  0  0  0
 26 28  1  0  0  0  0
 23 24  1  0  0  0  0
 23 25  1  0  0  0  0
 20 21  1  0  0  0  0
 20 22  1  0  0  0  0
 20 23  1  0  0  0  0
 17 18  1  0  0  0  0
 17 19  1  0  0  0  0
 17 20  1  0  0  0  0
 14 15  1  0  0  0  0
 14 16  1  0  0  0  0
 14 17  1  0  0  0  0
 11 12  1  0  0  0  0
 11 13  1  0  0  0  0
 11 14  1  0  0  0  0
  9 10  1  0  0  0  0
  9 11  1  0  0  0  0
  9 26  1  0  0  0  0
  7  8  1  0  0  0  0
  7  9  1  0  0  0  0
 30 31  1  0  0  0  0
 30 32  1  0  0  0  0
 30 33  1  0  0  0  0
 28 29  1  0  0  0  0
 28 30  1  0  0  0  0
M  END
$$$$
default_name
  -OEChem-02102213163D

 33 32  0     1  0  0  0  0  0999 V2000
   -3.8420   -3.6918    1.5562 H   0  0  0  0  0  0  0  0  0  0  0  0
   -3.8430   -2.7008    1.1032 C   0  0  0  0  0  0  0  0  0  0  0  0
   -4.5510   -2.0608    1.6242 H   0  0  0  0  0  0  0  0  0  0  0  0
   -4.1140   -2.7798    0.0522 H   0  0  0  0  0  0  0  0  0  0  0  0
   -2.4570   -2.1098    1.2172 C   0  0  0  0  0  0  0  0  0  0  0  0
   -1.5600   -2.7438    1.7572 O   0  0  0  0  0  0  0  0  0  0  0  0
   -2.2870   -0.8898    0.7102 N   0  0  0  0  0  0  0  0  0  0  0  0
   -3.0820   -0.4218    0.2992 H   0  0  0  0  0  0  0  0  0  0  0  0
   -1.0240   -0.1468    0.7262 C   0  0  1  0  0  0  0  0  0  0  0  0
   -0.2680   -0.7367    0.2062 H   0  0  0  0  0  0  0  0  0  0  0  0
   -1.2212    1.1806   -0.0314 C   0  0  0  0  0  0  0  0  0  0  0  0
   -1.7666    0.9755   -0.9549 H   0  0  0  0  0  0  0  0  0  0  0  0
   -1.8241    1.8560    0.5772 H   0  0  0  0  0  0  0  0  0  0  0  0
    0.1004    1.8733   -0.3988 C   0  0  0  0  0  0  0  0  0  0  0  0
    0.7740    1.8548    0.4584 H   0  0  0  0  0  0  0  0  0  0  0  0
    0.5656    1.3410   -1.2305 H   0  0  0  0  0  0  0  0  0  0  0  0
   -0.1404    3.3315   -0.8054 C   0  0  0  0  0  0  0  0  0  0  0  0
   -0.8194    3.3669   -1.6578 H   0  0  0  0  0  0  0  0  0  0  0  0
   -0.5833    3.8736    0.0307 H   0  0  0  0  0  0  0  0  0  0  0  0
    1.1842    3.9883   -1.1888 C   0  0  0  0  0  0  0  0  0  0  0  0
    1.8574    3.9707   -0.3332 H   0  0  0  0  0  0  0  0  0  0  0  0
    1.6365    3.4376   -2.0119 H   0  0  0  0  0  0  0  0  0  0  0  0
    0.9865    5.3810   -1.6067 N   0  0  0  0  0  0  0  0  0  0  0  0
    1.8812    5.7868   -1.8387 H   0  0  0  0  0  0  0  0  0  0  0  0
    0.3879    5.4010   -2.4202 H   0  0  0  0  0  0  0  0  0  0  0  0
   -0.5564    0.0727    2.1744 C   0  0  0  0  0  0  0  0  0  0  0  0
    0.6169   -0.1288    2.4805 O   0  0  0  0  0  0  0  0  0  0  0  0
   -1.4759    0.4743    3.0595 N   0  0  0  0  0  0  0  0  0  0  0  0
   -2.4132    0.6318    2.7275 H   0  0  0  0  0  0  0  0  0  0  0  0
   -1.1971    0.7118    4.4750 C   0  0  0  0  0  0  0  0  0  0  0  0
   -0.3779    1.4272    4.5748 H   0  0  0  0  0  0  0  0  0  0  0  0
   -2.0826    1.1064    4.9754 H   0  0  0  0  0  0  0  0  0  0  0  0
   -0.8992   -0.2240    4.9525 H   0  0  0  0  0  0  0  0  0  0  0  0
  5  6  2  0  0  0  0
  5  7  1  0  0  0  0
  2  3  1  0  0  0  0
  2  4  1  0  0  0  0
  2  5  1  0  0  0  0
  1  2  1  0  0  0  0
 26 27  2  0  0  0  0
 26 28  1  0  0  0  0
 23 24  1  0  0  0  0
 23 25  1  0  0  0  0
 20 21  1  0  0  0  0
 20 22  1  0  0  0  0
 20 23  1  0  0  0  0
 17 18  1  0  0  0  0
 17 19  1  0  0  0  0
 17 20  1  0  0  0  0
 14 15  1  0  0  0  0
 14 16  1  0  0  0  0
 14 17  1  0  0  0  0
 11 12  1  0  0  0  0
 11 13  1  0  0  0  0
 11 14  1  0  0  0  0
  9 10  1  0  0  0  0
  9 11  1  0  0  0  0
  9 26  1  0  0  0  0
  7  8  1  0  0  0  0
  7  9  1  0  0  0  0
 30 31  1  0  0  0  0
 30 32  1  0  0  0  0
 30 33  1  0  0  0  0
 28 29  1  0  0  0  0
 28 30  1  0  0  0  0
M  END
$$$$
default_name
  -OEChem-02102213163D

 33 32  0     1  0  0  0  0  0999 V2000
   -3.8420   -3.6918    1.5562 H   0  0  0  0  0  0  0  0  0  0  0  0
   -3.8430   -2.7008    1.1032 C   0  0  0  0  0  0  0  0  0  0  0  0
   -4.5510   -2.0608    1.6242 H   0  0  0  0  0  0  0  0  0  0  0  0
   -4.1140   -2.7798    0.0522 H   0  0  0  0  0  0  0  0  0  0  0  0
   -2.4570   -2.1098    1.2172 C   0  0  0  0  0  0  0  0  0  0  0  0
   -1.5600   -2.7438    1.7572 O   0  0  0  0  0  0  0  0  0  0  0  0
   -2.2870   -0.8898    0.7102 N   0  0  0  0  0  0  0  0  0  0  0  0
   -3.0820   -0.4218    0.2992 H   0  0  0  0  0  0  0  0  0  0  0  0
   -1.0240   -0.1468    0.7262 C   0  0  1  0  0  0  0  0  0  0  0  0
   -0.2680   -0.7367    0.2062 H   0  0  0  0  0  0  0  0  0  0  0  0
   -1.2212    1.1806   -0.0314 C   0  0  0  0  0  0  0  0  0  0  0  0
   -1.7666    0.9755   -0.9549 H   0  0  0  0  0  0  0  0  0  0  0  0
   -1.8241    1.8560    0.5772 H   0  0  0  0  0  0  0  0  0  0  0  0
    0.1004    1.8733   -0.3988 C   0  0  0  0  0  0  0  0  0  0  0  0
    0.8606    1.6285    0.3435 H   0  0  0  0  0  0  0  0  0  0  0  0
    0.4303    1.5209   -1.3778 H   0  0  0  0  0  0  0  0  0  0  0  0
   -0.0734    3.3956   -0.4433 C   0  0  0  0  0  0  0  0  0  0  0  0
   -0.8372    3.6560   -1.1766 H   0  0  0  0  0  0  0  0  0  0  0  0
   -0.3799    3.7554    0.5393 H   0  0  0  0  0  0  0  0  0  0  0  0
    1.2468    4.0569   -0.8344 C   0  0  0  0  0  0  0  0  0  0  0  0
    2.0065    3.8134   -0.0934 H   0  0  0  0  0  0  0  0  0  0  0  0
    1.5635    3.6854   -1.8076 H   0  0  0  0  0  0  0  0  0  0  0  0
    1.1095    5.5160   -0.9096 N   0  0  0  0  0  0  0  0  0  0  0  0
    2.0013    5.9197   -1.1559 H   0  0  0  0  0  0  0  0  0  0  0  0
    0.4286    5.7486   -1.6185 H   0  0  0  0  0  0  0  0  0  0  0  0
   -0.5564    0.0727    2.1744 C   0  0  0  0  0  0  0  0  0  0  0  0
    0.6169   -0.1288    2.4805 O   0  0  0  0  0  0  0  0  0  0  0  0
   -1.4759    0.4743    3.0595 N   0  0  0  0  0  0  0  0  0  0  0  0
   -2.4132    0.6318    2.7275 H   0  0  0  0  0  0  0  0  0  0  0  0
   -1.1971    0.7118    4.4750 C   0  0  0  0  0  0  0  0  0  0  0  0
   -0.3779    1.4272    4.5748 H   0  0  0  0  0  0  0  0  0  0  0  0
   -2.0826    1.1064    4.9754 H   0  0  0  0  0  0  0  0  0  0  0  0
   -0.8992   -0.2240    4.9525 H   0  0  0  0  0  0  0  0  0  0  0  0
  5  6  2  0  0  0  0
  5  7  1  0  0  0  0
  2  3  1  0  0  0  0
  2  4  1  0  0  0  0
  2  5  1  0  0  0  0
  1  2  1  0  0  0  0
 26 27  2  0  0  0  0
 26 28  1  0  0  0  0
 23 24  1  0  0  0  0
 23 25  1  0  0  0  0
 20 21  1  0  0  0  0
 20 22  1  0  0  0  0
 20 23  1  0  0  0  0
 17 18  1  0  0  0  0
 17 19  1  0  0  0  0
 17 20  1  0  0  0  0
 14 15  1  0  0  0  0
 14 16  1  0  0  0  0
 14 17  1  0  0  0  0
 11 12  1  0  0  0  0
 11 13  1  0  0  0  0
 11 14  1  0  0  0  0
  9 10  1  0  0  0  0
  9 11  1  0  0  0  0
  9 26  1  0  0  0  0
  7  8  1  0  0  0  0
  7  9  1  0  0  0  0
 30 31  1  0  0  0  0
 30 32  1  0  0  0  0
 30 33  1  0  0  0  0
 28 29  1  0  0  0  0
 28 30  1  0  0  0  0
M  END
$$$$
default_name
  -OEChem-02102213163D

 33 32  0     1  0  0  0  0  0999 V2000
   -3.8420   -3.6918    1.5562 H   0  0  0  0  0  0  0  0  0  0  0  0
   -3.8430   -2.7008    1.1032 C   0  0  0  0  0  0  0  0  0  0  0  0
   -4.5510   -2.0608    1.6242 H   0  0  0  0  0  0  0  0  0  0  0  0
   -4.1140   -2.7798    0.0522 H   0  0  0  0  0  0  0  0  0  0  0  0
   -2.4570   -2.1098    1.2172 C   0  0  0  0  0  0  0  0  0  0  0  0
   -1.5600   -2.7438    1.7572 O   0  0  0  0  0  0  0  0  0  0  0  0
   -2.2870   -0.8898    0.7102 N   0  0  0  0  0  0  0  0  0  0  0  0
   -3.0820   -0.4218    0.2992 H   0  0  0  0  0  0  0  0  0  0  0  0
   -1.0240   -0.1468    0.7262 C   0  0  1  0  0  0  0  0  0  0  0  0
   -0.2680   -0.7367    0.2062 H   0  0  0  0  0  0  0  0  0  0  0  0
   -1.2212    1.1806   -0.0314 C   0  0  0  0  0  0  0  0  0  0  0  0
   -1.7666    0.9755   -0.9549 H   0  0  0  0  0  0  0  0  0  0  0  0
   -1.8241    1.8560    0.5772 H   0  0  0  0  0  0  0  0  0  0  0  0
    0.1004    1.8733   -0.3988 C   0  0  0  0  0  0  0  0  0  0  0  0
    0.9169    1.4302    0.1720 H   0  0  0  0  0  0  0  0  0  0  0  0
    0.2936    1.7360   -1.4643 H   0  0  0  0  0  0  0  0  0  0  0  0
    0.0376    3.3728   -0.0871 C   0  0  0  0  0  0  0  0  0  0  0  0
   -0.7803    3.8293   -0.6454 H   0  0  0  0  0  0  0  0  0  0  0  0
   -0.1315    3.5154    0.9806 H   0  0  0  0  0  0  0  0  0  0  0  0
    1.3528    4.0404   -0.4841 C   0  0  0  0  0  0  0  0  0  0  0  0
    2.1688    3.5989    0.0858 H   0  0  0  0  0  0  0  0  0  0  0  0
    1.5321    3.8837   -1.5465 H   0  0  0  0  0  0  0  0  0  0  0  0
    1.3181    5.4835   -0.2205 N   0  0  0  0  0  0  0  0  0  0  0  0
    2.2053    5.8886   -0.4808 H   0  0  0  0  0  0  0  0  0  0  0  0
    0.5830    5.9034   -0.7715 H   0  0  0  0  0  0  0  0  0  0  0  0
   -0.5564    0.0727    2.1744 C   0  0  0  0  0  0  0  0  0  0  0  0
    0.6169   -0.1288    2.4805 O   0  0  0  0  0  0  0  0  0  0  0  0
   -1.4759    0.4743    3.0595 N   0  0  0  0  0  0  0  0  0  0  0  0
   -2.4132    0.6318    2.7275 H   0  0  0  0  0  0  0  0  0  0  0  0
   -1.1971    0.7118    4.4750 C   0  0  0  0  0  0  0  0  0  0  0  0
   -0.3779    1.4272    4.5748 H   0  0  0  0  0  0  0  0  0  0  0  0
   -2.0826    1.1064    4.9754 H   0  0  0  0  0  0  0  0  0  0  0  0
   -0.8992   -0.2240    4.9525 H   0  0  0  0  0  0  0  0  0  0  0  0
  5  6  2  0  0  0  0
  5  7  1  0  0  0  0
  2  3  1  0  0  0  0
  2  4  1  0  0  0  0
  2  5  1  0  0  0  0
  1  2  1  0  0  0  0
 26 27  2  0  0  0  0
 26 28  1  0  0  0  0
 23 24  1  0  0  0  0
 23 25  1  0  0  0  0
 20 21  1  0  0  0  0
 20 22  1  0  0  0  0
 20 23  1  0  0  0  0
 17 18  1  0  0  0  0
 17 19  1  0  0  0  0
 17 20  1  0  0  0  0
 14 15  1  0  0  0  0
 14 16  1  0  0  0  0
 14 17  1  0  0  0  0
 11 12  1  0  0  0  0
 11 13  1  0  0  0  0
 11 14  1  0  0  0  0
  9 10  1  0  0  0  0
  9 11  1  0  0  0  0
  9 26  1  0  0  0  0
  7  8  1  0  0  0  0
  7  9  1  0  0  0  0
 30 31  1  0  0  0  0
 30 32  1  0  0  0  0
 30 33  1  0  0  0  0
 28 29  1  0  0  0  0
 28 30  1  0  0  0  0
M  END
$$$$
default_name
  -OEChem-02102213163D

 33 32  0     1  0  0  0  0  0999 V2000
   -3.8420   -3.6918    1.5562 H   0  0  0  0  0  0  0  0  0  0  0  0
   -3.8430   -2.7008    1.1032 C   0  0  0  0  0  0  0  0  0  0  0  0
   -4.5510   -2.0608    1.6242 H   0  0  0  0  0  0  0  0  0  0  0  0
   -4.1140   -2.7798    0.0522 H   0  0  0  0  0  0  0  0  0  0  0  0
   -2.4570   -2.1098    1.2172 C   0  0  0  0  0  0  0  0  0  0  0  0
   -1.5600   -2.7438    1.7572 O   0  0  0  0  0  0  0  0  0  0  0  0
   -2.2870   -0.8898    0.7102 N   0  0  0  0  0  0  0  0  0  0  0  0
   -3.0820   -0.4218    0.2992 H   0  0  0  0  0  0  0  0  0  0  0  0
   -1.0240   -0.1468    0.7262 C   0  0  1  0  0  0  0  0  0  0  0  0
   -0.2680   -0.7367    0.2062 H   0  0  0  0  0  0  0  0  0  0  0  0
   -1.2212    1.1806   -0.0314 C   0  0  0  0  0  0  0  0  0  0  0  0
   -1.7666    0.9755   -0.9549 H   0  0  0  0  0  0  0  0  0  0  0  0
   -1.8241    1.8560    0.5772 H   0  0  0  0  0  0  0  0  0  0  0  0
    0.1004    1.8733   -0.3988 C   0  0  0  0  0  0  0  0  0  0  0  0
    0.9390    1.2733   -0.0443 H   0  0  0  0  0  0  0  0  0  0  0  0
    0.1647    1.9714   -1.4840 H   0  0  0  0  0  0  0  0  0  0  0  0
    0.1849    3.2646    0.2390 C   0  0  0  0  0  0  0  0  0  0  0  0
   -0.6527    3.8748   -0.1004 H   0  0  0  0  0  0  0  0  0  0  0  0
    0.1452    3.1700    1.3245 H   0  0  0  0  0  0  0  0  0  0  0  0
    1.4951    3.9399   -0.1618 C   0  0  0  0  0  0  0  0  0  0  0  0
    2.3331    3.3417    0.1922 H   0  0  0  0  0  0  0  0  0  0  0  0
    1.5445    4.0192   -1.2466 H   0  0  0  0  0  0  0  0  0  0  0  0
    1.5979    5.2859    0.4136 N   0  0  0  0  0  0  0  0  0  0  0  0
    2.4791    5.6957    0.1406 H   0  0  0  0  0  0  0  0  0  0  0  0
    0.8404    5.8548    0.0631 H   0  0  0  0  0  0  0  0  0  0  0  0
   -0.5564    0.0727    2.1744 C   0  0  0  0  0  0  0  0  0  0  0  0
    0.6169   -0.1288    2.4805 O   0  0  0  0  0  0  0  0  0  0  0  0
   -1.4759    0.4743    3.0595 N   0  0  0  0  0  0  0  0  0  0  0  0
   -2.4132    0.6318    2.7275 H   0  0  0  0  0  0  0  0  0  0  0  0
   -1.1971    0.7118    4.4750 C   0  0  0  0  0  0  0  0  0  0  0  0
   -0.3779    1.4272    4.5748 H   0  0  0  0  0  0  0  0  0  0  0  0
   -2.0826    1.1064    4.9754 H   0  0  0  0  0  0  0  0  0  0  0  0
   -0.8992   -0.2240    4.9525 H   0  0  0  0  0  0  0  0  0  0  0  0
  5  6  2  0  0  0  0
  5  7  1  0  0  0  0
  2  3  1  0  0  0  0
  2  4  1  0  0  0  0
  2  5  1  0  0  0  0
  1  2  1  0  0  0  0
 26 27  2  0  0  0  0
 26 28  1  0  0  0  0
 23 24  1  0  0  0  0
 23 25  1  0  0  0  0
 20 21  1  0  0  0  0
 20 22  1  0  0  0  0
 20 23  1  0  0  0  0
 17 18  1  0  0  0  0
 17 19  1  0  0  0  0
 17 20  1  0  0  0  0
 14 15  1  0  0  0  0
 14 16  1  0  0  0  0
 14 17  1  0  0  0  0
 11 12  1  0  0  0  0
 11 13  1  0  0  0  0
 11 14  1  0  0  0  0
  9 10  1  0  0  0  0
  9 11  1  0  0  0  0
  9 26  1  0  0  0  0
  7  8  1  0  0  0  0
  7  9  1  0  0  0  0
 30 31  1  0  0  0  0
 30 32  1  0  0  0  0
 30 33  1  0  0  0  0
 28 29  1  0  0  0  0
 28 30  1  0  0  0  0
M  END
$$$$
default_name
  -OEChem-02102213163D

 33 32  0     1  0  0  0  0  0999 V2000
   -3.8420   -3.6918    1.5562 H   0  0  0  0  0  0  0  0  0  0  0  0
   -3.8430   -2.7008    1.1032 C   0  0  0  0  0  0  0  0  0  0  0  0
   -4.5510   -2.0608    1.6242 H   0  0  0  0  0  0  0  0  0  0  0  0
   -4.1140   -2.7798    0.0522 H   0  0  0  0  0  0  0  0  0  0  0  0
   -2.4570   -2.1098    1.2172 C   0  0  0  0  0  0  0  0  0  0  0  0
   -1.5600   -2.7438    1.7572 O   0  0  0  0  0  0  0  0  0  0  0  0
   -2.2870   -0.8898    0.7102 N   0  0  0  0  0  0  0  0  0  0  0  0
   -3.0820   -0.4218    0.2992 H   0  0  0  0  0  0  0  0  0  0  0  0
   -1.0240   -0.1468    0.7262 C   0  0  1  0  0  0  0  0  0  0  0  0
   -0.2680   -0.7367    0.2062 H   0  0  0  0  0  0  0  0  0  0  0  0
   -1.2212    1.1806   -0.0314 C   0  0  0  0  0  0  0  0  0  0  0  0
   -1.7666    0.9755   -0.9549 H   0  0  0  0  0  0  0  0  0  0  0  0
   -1.8241    1.8560    0.5772 H   0  0  0  0  0  0  0  0  0  0  0  0
    0.1004    1.8733   -0.3988 C   0  0  0  0  0  0  0  0  0  0  0  0
    0.9254    1.1686   -0.2907 H   0  0  0  0  0  0  0  0  0  0  0  0
    0.0525    2.2112   -1.4356 H   0  0  0  0  0  0  0  0  0  0  0  0
    0.3586    3.0784    0.5126 C   0  0  0  0  0  0  0  0  0  0  0  0
   -0.4630    3.7896    0.4214 H   0  0  0  0  0  0  0  0  0  0  0  0
    0.4311    2.7427    1.5475 H   0  0  0  0  0  0  0  0  0  0  0  0
    1.6639    3.7623    0.1105 C   0  0  0  0  0  0  0  0  0  0  0  0
    2.4884    3.0594    0.2186 H   0  0  0  0  0  0  0  0  0  0  0  0
    1.5998    4.0825   -0.9281 H   0  0  0  0  0  0  0  0  0  0  0  0
    1.9300    4.9365    0.9494 N   0  0  0  0  0  0  0  0  0  0  0  0
    2.8042    5.3541    0.6659 H   0  0  0  0  0  0  0  0  0  0  0  0
    1.1835    5.6062    0.8284 H   0  0  0  0  0  0  0  0  0  0  0  0
   -0.5564    0.0727    2.1744 C   0  0  0  0  0  0  0  0  0  0  0  0
    0.6169   -0.1288    2.4805 O   0  0  0  0  0  0  0  0  0  0  0  0
   -1.4759    0.4743    3.0595 N   0  0  0  0  0  0  0  0  0  0  0  0
   -2.4132    0.6318    2.7275 H   0  0  0  0  0  0  0  0  0  0  0  0
   -1.1971    0.7118    4.4750 C   0  0  0  0  0  0  0  0  0  0  0  0
   -0.3779    1.4272    4.5748 H   0  0  0  0  0  0  0  0  0  0  0  0
   -2.0826    1.1064    4.9754 H   0  0  0  0  0  0  0  0  0  0  0  0
   -0.8992   -0.2240    4.9525 H   0  0  0  0  0  0  0  0  0  0  0  0
  5  6  2  0  0  0  0
  5  7  1  0  0  0  0
  2  3  1  0  0  0  0
  2  4  1  0  0  0  0
  2  5  1  0  0  0  0
  1  2  1  0  0  0  0
 26 27  2  0  0  0  0
 26 28  1  0  0  0  0
 23 24  1  0  0  0  0
 23 25  1  0  0  0  0
 20 21  1  0  0  0  0
 20 22  1  0  0  0  0
 20 23  1  0  0  0  0
 17 18  1  0  0  0  0
 17 19  1  0  0  0  0
 17 20  1  0  0  0  0
 14 15  1  0  0  0  0
 14 16  1  0  0  0  0
 14 17  1  0  0  0  0
 11 12  1  0  0  0  0
 11 13  1  0  0  0  0
 11 14  1  0  0  0  0
  9 10  1  0  0  0  0
  9 11  1  0  0  0  0
  9 26  1  0  0  0  0
  7  8  1  0  0  0  0
  7  9  1  0  0  0  0
 30 31  1  0  0  0  0
 30 32  1  0  0  0  0
 30 33  1  0  0  0  0
 28 29  1  0  0  0  0
 28 30  1  0  0  0  0
M  END
$$$$
default_name
  -OEChem-02102213163D

 33 32  0     1  0  0  0  0  0999 V2000
   -3.8420   -3.6918    1.5562 H   0  0  0  0  0  0  0  0  0  0  0  0
   -3.8430   -2.7008    1.1032 C   0  0  0  0  0  0  0  0  0  0  0  0
   -4.5510   -2.0608    1.6242 H   0  0  0  0  0  0  0  0  0  0  0  0
   -4.1140   -2.7798    0.0522 H   0  0  0  0  0  0  0  0  0  0  0  0
   -2.4570   -2.1098    1.2172 C   0  0  0  0  0  0  0  0  0  0  0  0
   -1.5600   -2.7438    1.7572 O   0  0  0  0  0  0  0  0  0  0  0  0
   -2.2870   -0.8898    0.7102 N   0  0  0  0  0  0  0  0  0  0  0  0
   -3.0820   -0.4218    0.2992 H   0  0  0  0  0  0  0  0  0  0  0  0
   -1.0240   -0.1468    0.7262 C   0  0  1  0  0  0  0  0  0  0  0  0
   -0.2680   -0.7367    0.2062 H   0  0  0  0  0  0  0  0  0  0  0  0
   -1.2212    1.1806   -0.0314 C   0  0  0  0  0  0  0  0  0  0  0  0
   -1.7666    0.9755   -0.9549 H   0  0  0  0  0  0  0  0  0  0  0  0
   -1.8241    1.8560    0.5772 H   0  0  0  0  0  0  0  0  0  0  0  0
    0.1004    1.8733   -0.3988 C   0  0  0  0  0  0  0  0  0  0  0  0
    0.8770    1.1231   -0.5505 H   0  0  0  0  0  0  0  0  0  0  0  0
   -0.0354    2.4389   -1.3224 H   0  0  0  0  0  0  0  0  0  0  0  0
    0.5467    2.8269    0.7152 C   0  0  0  0  0  0  0  0  0  0  0  0
   -0.2241    3.5794    0.8842 H   0  0  0  0  0  0  0  0  0  0  0  0
    0.7069    2.2626    1.6344 H   0  0  0  0  0  0  0  0  0  0  0  0
    1.8477    3.5197    0.3143 C   0  0  0  0  0  0  0  0  0  0  0  0
    2.6240    2.7713    0.1631 H   0  0  0  0  0  0  0  0  0  0  0  0
    1.6944    4.0693   -0.6129 H   0  0  0  0  0  0  0  0  0  0  0  0
    2.2916    4.4593    1.3504 N   0  0  0  0  0  0  0  0  0  0  0  0
    3.1583    4.8871    1.0594 H   0  0  0  0  0  0  0  0  0  0  0  0
    1.5887    5.1744    1.4722 H   0  0  0  0  0  0  0  0  0  0  0  0
   -0.5564    0.0727    2.1744 C   0  0  0  0  0  0  0  0  0  0  0  0
    0.6169   -0.1288    2.4805 O   0  0  0  0  0  0  0  0  0  0  0  0
   -1.4759    0.4743    3.0595 N   0  0  0  0  0  0  0  0  0  0  0  0
   -2.4132    0.6318    2.7275 H   0  0  0  0  0  0  0  0  0  0  0  0
   -1.1971    0.7118    4.4750 C   0  0  0  0  0  0  0  0  0  0  0  0
   -0.3779    1.4272    4.5748 H   0  0  0  0  0  0  0  0  0  0  0  0
   -2.0826    1.1064    4.9754 H   0  0  0  0  0  0  0  0  0  0  0  0
   -0.8992   -0.2240    4.9525 H   0  0  0  0  0  0  0  0  0  0  0  0
  5  6  2  0  0  0  0
  5  7  1  0  0  0  0
  2  3  1  0  0  0  0
  2  4  1  0  0  0  0
  2  5  1  0  0  0  0
  1  2  1  0  0  0  0
 26 27  2  0  0  0  0
 26 28  1  0  0  0  0
 23 24  1  0  0  0  0
 23 25  1  0  0  0  0
 20 21  1  0  0  0  0
 20 22  1  0  0  0  0
 20 23  1  0  0  0  0
 17 18  1  0  0  0  0
 17 19  1  0  0  0  0
 17 20  1  0  0  0  0
 14 15  1  0  0  0  0
 14 16  1  0  0  0  0
 14 17  1  0  0  0  0
 11 12  1  0  0  0  0
 11 13  1  0  0  0  0
 11 14  1  0  0  0  0
  9 10  1  0  0  0  0
  9 11  1  0  0  0  0
  9 26  1  0  0  0  0
  7  8  1  0  0  0  0
  7  9  1  0  0  0  0
 30 31  1  0  0  0  0
 30 32  1  0  0  0  0
 30 33  1  0  0  0  0
 28 29  1  0  0  0  0
 28 30  1  0  0  0  0
M  END
$$$$
default_name
  -OEChem-02102213163D

 33 32  0     1  0  0  0  0  0999 V2000
   -3.8420   -3.6918    1.5562 H   0  0  0  0  0  0  0  0  0  0  0  0
   -3.8430   -2.7008    1.1032 C   0  0  0  0  0  0  0  0  0  0  0  0
   -4.5510   -2.0608    1.6242 H   0  0  0  0  0  0  0  0  0  0  0  0
   -4.1140   -2.7798    0.0522 H   0  0  0  0  0  0  0  0  0  0  0  0
   -2.4570   -2.1098    1.2172 C   0  0  0  0  0  0  0  0  0  0  0  0
   -1.5600   -2.7438    1.7572 O   0  0  0  0  0  0  0  0  0  0  0  0
   -2.2870   -0.8898    0.7102 N   0  0  0  0  0  0  0  0  0  0  0  0
   -3.0820   -0.4218    0.2992 H   0  0  0  0  0  0  0  0  0  0  0  0
   -1.0240   -0.1468    0.7262 C   0  0  1  0  0  0  0  0  0  0  0  0
   -0.2680   -0.7367    0.2062 H   0  0  0  0  0  0  0  0  0  0  0  0
   -1.2212    1.1806   -0.0314 C   0  0  0  0  0  0  0  0  0  0  0  0
   -1.7666    0.9755   -0.9549 H   0  0  0  0  0  0  0  0  0  0  0  0
   -1.8241    1.8560    0.5772 H   0  0  0  0  0  0  0  0  0  0  0  0
    0.1004    1.8733   -0.3988 C   0  0  0  0  0  0  0  0  0  0  0  0
    0.7972    1.1400   -0.8059 H   0  0  0  0  0  0  0  0  0  0  0  0
   -0.0930    2.6392   -1.1521 H   0  0  0  0  0  0  0  0  0  0  0  0
    0.7365    2.5272    0.8330 C   0  0  0  0  0  0  0  0  0  0  0  0
    0.0475    3.2586    1.2566 H   0  0  0  0  0  0  0  0  0  0  0  0
    0.9537    1.7625    1.5793 H   0  0  0  0  0  0  0  0  0  0  0  0
    2.0340    3.2286    0.4358 C   0  0  0  0  0  0  0  0  0  0  0  0
    2.7307    2.4970    0.0296 H   0  0  0  0  0  0  0  0  0  0  0  0
    1.8217    3.9805   -0.3224 H   0  0  0  0  0  0  0  0  0  0  0  0
    2.6581    3.8866    1.5894 N   0  0  0  0  0  0  0  0  0  0  0  0
    3.5174    4.3265    1.2941 H   0  0  0  0  0  0  0  0  0  0  0  0
    2.0286    4.5890    1.9508 H   0  0  0  0  0  0  0  0  0  0  0  0
   -0.5564    0.0727    2.1744 C   0  0  0  0  0  0  0  0  0  0  0  0
    0.6169   -0.1288    2.4805 O   0  0  0  0  0  0  0  0  0  0  0  0
   -1.4759    0.4743    3.0595 N   0  0  0  0  0  0  0  0  0  0  0  0
   -2.4132    0.6318    2.7275 H   0  0  0  0  0  0  0  0  0  0  0  0
   -1.1971    0.7118    4.4750 C   0  0  0  0  0  0  0  0  0  0  0  0
   -0.3779    1.4272    4.5748 H   0  0  0  0  0  0  0  0  0  0  0  0
   -2.0826    1.1064    4.9754 H   0  0  0  0  0  0  0  0  0  0  0  0
   -0.8992   -0.2240    4.9525 H   0  0  0  0  0  0  0  0  0  0  0  0
  5  6  2  0  0  0  0
  5  7  1  0  0  0  0
  2  3  1  0  0  0  0
  2  4  1  0  0  0  0
  2  5  1  0  0  0  0
  1  2  1  0  0  0  0
 26 27  2  0  0  0  0
 26 28  1  0  0  0  0
 23 24  1  0  0  0  0
 23 25  1  0  0  0  0
 20 21  1  0  0  0  0
 20 22  1  0  0  0  0
 20 23  1  0  0  0  0
 17 18  1  0  0  0  0
 17 19  1  0  0  0  0
 17 20  1  0  0  0  0
 14 15  1  0  0  0  0
 14 16  1  0  0  0  0
 14 17  1  0  0  0  0
 11 12  1  0  0  0  0
 11 13  1  0  0  0  0
 11 14  1  0  0  0  0
  9 10  1  0  0  0  0
  9 11  1  0  0  0  0
  9 26  1  0  0  0  0
  7  8  1  0  0  0  0
  7  9  1  0  0  0  0
 30 31  1  0  0  0  0
 30 32  1  0  0  0  0
 30 33  1  0  0  0  0
 28 29  1  0  0  0  0
 28 30  1  0  0  0  0
M  END
$$$$
default_name
  -OEChem-02102213163D

 33 32  0     1  0  0  0  0  0999 V2000
   -3.8420   -3.6918    1.5562 H   0  0  0  0  0  0  0  0  0  0  0  0
   -3.8430   -2.7008    1.1032 C   0  0  0  0  0  0  0  0  0  0  0  0
   -4.5510   -2.0608    1.6242 H   0  0  0  0  0  0  0  0  0  0  0  0
   -4.1140   -2.7798    0.0522 H   0  0  0  0  0  0  0  0  0  0  0  0
   -2.4570   -2.1098    1.2172 C   0  0  0  0  0  0  0  0  0  0  0  0
   -1.5600   -2.7438    1.7572 O   0  0  0  0  0  0  0  0  0  0  0  0
   -2.2870   -0.8898    0.7102 N   0  0  0  0  0  0  0  0  0  0  0  0
   -3.0820   -0.4218    0.2992 H   0  0  0  0  0  0  0  0  0  0  0  0
   -1.0240   -0.1468    0.7262 C   0  0  1  0  0  0  0  0  0  0  0  0
   -0.2680   -0.7367    0.2062 H   0  0  0  0  0  0  0  0  0  0  0  0
   -1.2212    1.1806   -0.0314 C   0  0  0  0  0  0  0  0  0  0  0  0
   -1.7666    0.9755   -0.9549 H   0  0  0  0  0  0  0  0  0  0  0  0
   -1.8241    1.8560    0.5772 H   0  0  0  0  0  0  0  0  0  0  0  0
    0.1004    1.8733   -0.3988 C   0  0  0  0  0  0  0  0  0  0  0  0
    0.6913    1.2181   -1.0395 H   0  0  0  0  0  0  0  0  0  0  0  0
   -0.1164    2.7982   -0.9363 H   0  0  0  0  0  0  0  0  0  0  0  0
    0.9151    2.1998    0.8580 C   0  0  0  0  0  0  0  0  0  0  0  0
    0.3336    2.8490    1.5133 H   0  0  0  0  0  0  0  0  0  0  0  0
    1.1547    1.2764    1.3860 H   0  0  0  0  0  0  0  0  0  0  0  0
    2.2102    2.9088    0.4665 C   0  0  0  0  0  0  0  0  0  0  0  0
    2.8011    2.2551   -0.1729 H   0  0  0  0  0  0  0  0  0  0  0  0
    1.9730    3.8222   -0.0764 H   0  0  0  0  0  0  0  0  0  0  0  0
    3.0046    3.2576    1.6499 N   0  0  0  0  0  0  0  0  0  0  0  0
    3.8569    3.7106    1.3542 H   0  0  0  0  0  0  0  0  0  0  0  0
    2.4731    3.8898    2.2314 H   0  0  0  0  0  0  0  0  0  0  0  0
   -0.5564    0.0727    2.1744 C   0  0  0  0  0  0  0  0  0  0  0  0
    0.6169   -0.1288    2.4805 O   0  0  0  0  0  0  0  0  0  0  0  0
   -1.4759    0.4743    3.0595 N   0  0  0  0  0  0  0  0  0  0  0  0
   -2.4132    0.6318    2.7275 H   0  0  0  0  0  0  0  0  0  0  0  0
   -1.1971    0.7118    4.4750 C   0  0  0  0  0  0  0  0  0  0  0  0
   -0.3779    1.4272    4.5748 H   0  0  0  0  0  0  0  0  0  0  0  0
   -2.0826    1.1064    4.9754 H   0  0  0  0  0  0  0  0  0  0  0  0
   -0.8992   -0.2240    4.9525 H   0  0  0  0  0  0  0  0  0  0  0  0
  5  6  2  0  0  0  0
  5  7  1  0  0  0  0
  2  3  1  0  0  0  0
  2  4  1  0  0  0  0
  2  5  1  0  0  0  0
  1  2  1  0  0  0  0
 26 27  2  0  0  0  0
 26 28  1  0  0  0  0
 23 24  1  0  0  0  0
 23 25  1  0  0  0  0
 20 21  1  0  0  0  0
 20 22  1  0  0  0  0
 20 23  1  0  0  0  0
 17 18  1  0  0  0  0
 17 19  1  0  0  0  0
 17 20  1  0  0  0  0
 14 15  1  0  0  0  0
 14 16  1  0  0  0  0
 14 17  1  0  0  0  0
 11 12  1  0  0  0  0
 11 13  1  0  0  0  0
 11 14  1  0  0  0  0
  9 10  1  0  0  0  0
  9 11  1  0  0  0  0
  9 26  1  0  0  0  0
  7  8  1  0  0  0  0
  7  9  1  0  0  0  0
 30 31  1  0  0  0  0
 30 32  1  0  0  0  0
 30 33  1  0  0  0  0
 28 29  1  0  0  0  0
 28 30  1  0  0  0  0
M  END
$$$$
default_name
  -OEChem-02102213163D

 33 32  0     1  0  0  0  0  0999 V2000
   -3.8420   -3.6918    1.5562 H   0  0  0  0  0  0  0  0  0  0  0  0
   -3.8430   -2.7008    1.1032 C   0  0  0  0  0  0  0  0  0  0  0  0
   -4.5510   -2.0608    1.6242 H   0  0  0  0  0  0  0  0  0  0  0  0
   -4.1140   -2.7798    0.0522 H   0  0  0  0  0  0  0  0  0  0  0  0
   -2.4570   -2.1098    1.2172 C   0  0  0  0  0  0  0  0  0  0  0  0
   -1.5600   -2.7438    1.7572 O   0  0  0  0  0  0  0  0  0  0  0  0
   -2.2870   -0.8898    0.7102 N   0  0  0  0  0  0  0  0  0  0  0  0
   -3.0820   -0.4218    0.2992 H   0  0  0  0  0  0  0  0  0  0  0  0
   -1.0240   -0.1468    0.7262 C   0  0  1  0  0  0  0  0  0  0  0  0
   -0.2680   -0.7367    0.2062 H   0  0  0  0  0  0  0  0  0  0  0  0
   -1.2212    1.1806   -0.0314 C   0  0  0  0  0  0  0  0  0  0  0  0
   -1.7666    0.9755   -0.9549 H   0  0  0  0  0  0  0  0  0  0  0  0
   -1.8241    1.8560    0.5772 H   0  0  0  0  0  0  0  0  0  0  0  0
    0.1004    1.8733   -0.3988 C   0  0  0  0  0  0  0  0  0  0  0  0
    0.5666    1.3521   -1.2354 H   0  0  0  0  0  0  0  0  0  0  0  0
   -0.1040    2.9053   -0.6898 H   0  0  0  0  0  0  0  0  0  0  0  0
    1.0702    1.8669    0.7883 C   0  0  0  0  0  0  0  0  0  0  0  0
    0.6144    2.3785    1.6366 H   0  0  0  0  0  0  0  0  0  0  0  0
    1.2962    0.8374    1.0676 H   0  0  0  0  0  0  0  0  0  0  0  0
    2.3641    2.5822    0.4045 C   0  0  0  0  0  0  0  0  0  0  0  0
    2.8306    2.0622   -0.4306 H   0  0  0  0  0  0  0  0  0  0  0  0
    2.1381    3.6052    0.1083 H   0  0  0  0  0  0  0  0  0  0  0  0
    3.3075    2.6151    1.5280 N   0  0  0  0  0  0  0  0  0  0  0  0
    4.1538    3.0812    1.2356 H   0  0  0  0  0  0  0  0  0  0  0  0
    2.8918    3.1245    2.2949 H   0  0  0  0  0  0  0  0  0  0  0  0
   -0.5564    0.0727    2.1744 C   0  0  0  0  0  0  0  0  0  0  0  0
    0.6169   -0.1288    2.4805 O   0  0  0  0  0  0  0  0  0  0  0  0
   -1.4759    0.4743    3.0595 N   0  0  0  0  0  0  0  0  0  0  0  0
   -2.4132    0.6318    2.7275 H   0  0  0  0  0  0  0  0  0  0  0  0
   -1.1971    0.7118    4.4750 C   0  0  0  0  0  0  0  0  0  0  0  0
   -0.3779    1.4272    4.5748 H   0  0  0  0  0  0  0  0  0  0  0  0
   -2.0826    1.1064    4.9754 H   0  0  0  0  0  0  0  0  0  0  0  0
   -0.8992   -0.2240    4.9525 H   0  0  0  0  0  0  0  0  0  0  0  0
  5  6  2  0  0  0  0
  5  7  1  0  0  0  0
  2  3  1  0  0  0  0
  2  4  1  0  0  0  0
  2  5  1  0  0  0  0
  1  2  1  0  0  0  0
 26 27  2  0  0  0  0
 26 28  1  0  0  0  0
 23 24  1  0  0  0  0
 23 25  1  0  0  0  0
 20 21  1  0  0  0  0
 20 22  1  0  0  0  0
 20 23  1  0  0  0  0
 17 18  1  0  0  0  0
 17 19  1  0  0  0  0
 17 20  1  0  0  0  0
 14 15  1  0  0  0  0
 14 16  1  0  0  0  0
 14 17  1  0  0  0  0
 11 12  1  0  0  0  0
 11 13  1  0  0  0  0
 11 14  1  0  0  0  0
  9 10  1  0  0  0  0
  9 11  1  0  0  0  0
  9 26  1  0  0  0  0
  7  8  1  0  0  0  0
  7  9  1  0  0  0  0
 30 31  1  0  0  0  0
 30 32  1  0  0  0  0
 30 33  1  0  0  0  0
 28 29  1  0  0  0  0
 28 30  1  0  0  0  0
M  END
$$$$
default_name
  -OEChem-02102213163D

 33 32  0     1  0  0  0  0  0999 V2000
   -3.8420   -3.6918    1.5562 H   0  0  0  0  0  0  0  0  0  0  0  0
   -3.8430   -2.7008    1.1032 C   0  0  0  0  0  0  0  0  0  0  0  0
   -4.5510   -2.0608    1.6242 H   0  0  0  0  0  0  0  0  0  0  0  0
   -4.1140   -2.7798    0.0522 H   0  0  0  0  0  0  0  0  0  0  0  0
   -2.4570   -2.1098    1.2172 C   0  0  0  0  0  0  0  0  0  0  0  0
   -1.5600   -2.7438    1.7572 O   0  0  0  0  0  0  0  0  0  0  0  0
   -2.2870   -0.8898    0.7102 N   0  0  0  0  0  0  0  0  0  0  0  0
   -3.0820   -0.4218    0.2992 H   0  0  0  0  0  0  0  0  0  0  0  0
   -1.0240   -0.1468    0.7262 C   0  0  1  0  0  0  0  0  0  0  0  0
   -0.2680   -0.7367    0.2062 H   0  0  0  0  0  0  0  0  0  0  0  0
   -1.2212    1.1806   -0.0314 C   0  0  0  0  0  0  0  0  0  0  0  0
   -1.7666    0.9755   -0.9549 H   0  0  0  0  0  0  0  0  0  0  0  0
   -1.8241    1.8560    0.5772 H   0  0  0  0  0  0  0  0  0  0  0  0
    0.1004    1.8733   -0.3988 C   0  0  0  0  0  0  0  0  0  0  0  0
    0.4316    1.5329   -1.3803 H   0  0  0  0  0  0  0  0  0  0  0  0
   -0.0566    2.9530   -0.4292 H   0  0  0  0  0  0  0  0  0  0  0  0
    1.1913    1.5513    0.6289 C   0  0  0  0  0  0  0  0  0  0  0  0
    0.8710    1.8792    1.6182 H   0  0  0  0  0  0  0  0  0  0  0  0
    1.3686    0.4756    0.6458 H   0  0  0  0  0  0  0  0  0  0  0  0
    2.4853    2.2710    0.2540 C   0  0  0  0  0  0  0  0  0  0  0  0
    2.8171    1.9314   -0.7258 H   0  0  0  0  0  0  0  0  0  0  0  0
    2.3057    3.3443    0.2192 H   0  0  0  0  0  0  0  0  0  0  0  0
    3.5460    2.0029    1.2319 N   0  0  0  0  0  0  0  0  0  0  0  0
    4.3878    2.4813    0.9462 H   0  0  0  0  0  0  0  0  0  0  0  0
    3.2564    2.3451    2.1371 H   0  0  0  0  0  0  0  0  0  0  0  0
   -0.5564    0.0727    2.1744 C   0  0  0  0  0  0  0  0  0  0  0  0
    0.6169   -0.1288    2.4805 O   0  0  0  0  0  0  0  0  0  0  0  0
   -1.4759    0.4743    3.0595 N   0  0  0  0  0  0  0  0  0  0  0  0
   -2.4132    0.6318    2.7275 H   0  0  0  0  0  0  0  0  0  0  0  0
   -1.1971    0.7118    4.4750 C   0  0  0  0  0  0  0  0  0  0  0  0
   -0.3779    1.4272    4.5748 H   0  0  0  0  0  0  0  0  0  0  0  0
   -2.0826    1.1064    4.9754 H   0  0  0  0  0  0  0  0  0  0  0  0
   -0.8992   -0.2240    4.9525 H   0  0  0  0  0  0  0  0  0  0  0  0
  5  6  2  0  0  0  0
  5  7  1  0  0  0  0
  2  3  1  0  0  0  0
  2  4  1  0  0  0  0
  2  5  1  0  0  0  0
  1  2  1  0  0  0  0
 26 27  2  0  0  0  0
 26 28  1  0  0  0  0
 23 24  1  0  0  0  0
 23 25  1  0  0  0  0
 20 21  1  0  0  0  0
 20 22  1  0  0  0  0
 20 23  1  0  0  0  0
 17 18  1  0  0  0  0
 17 19  1  0  0  0  0
 17 20  1  0  0  0  0
 14 15  1  0  0  0  0
 14 16  1  0  0  0  0
 14 17  1  0  0  0  0
 11 12  1  0  0  0  0
 11 13  1  0  0  0  0
 11 14  1  0  0  0  0
  9 10  1  0  0  0  0
  9 11  1  0  0  0  0
  9 26  1  0  0  0  0
  7  8  1  0  0  0  0
  7  9  1  0  0  0  0
 30 31  1  0  0  0  0
 30 32  1  0  0  0  0
 30 33  1  0  0  0  0
 28 29  1  0  0  0  0
 28 30  1  0  0  0  0
M  END
$$$$
default_name
  -OEChem-02102213163D

 33 32  0     1  0  0  0  0  0999 V2000
   -3.8420   -3.6918    1.5562 H   0  0  0  0  0  0  0  0  0  0  0  0
   -3.8430   -2.7008    1.1032 C   0  0  0  0  0  0  0  0  0  0  0  0
   -4.5510   -2.0608    1.6242 H   0  0  0  0  0  0  0  0  0  0  0  0
   -4.1140   -2.7798    0.0522 H   0  0  0  0  0  0  0  0  0  0  0  0
   -2.4570   -2.1098    1.2172 C   0  0  0  0  0  0  0  0  0  0  0  0
   -1.5600   -2.7438    1.7572 O   0  0  0  0  0  0  0  0  0  0  0  0
   -2.2870   -0.8898    0.7102 N   0  0  0  0  0  0  0  0  0  0  0  0
   -3.0820   -0.4218    0.2992 H   0  0  0  0  0  0  0  0  0  0  0  0
   -1.0240   -0.1468    0.7262 C   0  0  1  0  0  0  0  0  0  0  0  0
   -0.2680   -0.7367    0.2062 H   0  0  0  0  0  0  0  0  0  0  0  0
   -1.2212    1.1806   -0.0314 C   0  0  0  0  0  0  0  0  0  0  0  0
   -1.7666    0.9755   -0.9549 H   0  0  0  0  0  0  0  0  0  0  0  0
   -1.8241    1.8560    0.5772 H   0  0  0  0  0  0  0  0  0  0  0  0
    0.1004    1.8733   -0.3988 C   0  0  0  0  0  0  0  0  0  0  0  0
    0.2955    1.7481   -1.4642 H   0  0  0  0  0  0  0  0  0  0  0  0
    0.0226    2.9382   -0.1724 H   0  0  0  0  0  0  0  0  0  0  0  0
    1.2701    1.2744    0.3904 C   0  0  0  0  0  0  0  0  0  0  0  0
    1.0858    1.3852    1.4595 H   0  0  0  0  0  0  0  0  0  0  0  0
    1.3670    0.2154    0.1494 H   0  0  0  0  0  0  0  0  0  0  0  0
    2.5656    1.9964    0.0252 C   0  0  0  0  0  0  0  0  0  0  0  0
    2.7615    1.8716   -1.0386 H   0  0  0  0  0  0  0  0  0  0  0  0
    2.4643    3.0572    0.2487 H   0  0  0  0  0  0  0  0  0  0  0  0
    3.7040    1.4627    0.7818 N   0  0  0  0  0  0  0  0  0  0  0  0
    4.5429    1.9518    0.5059 H   0  0  0  0  0  0  0  0  0  0  0  0
    3.5419    1.6049    1.7686 H   0  0  0  0  0  0  0  0  0  0  0  0
   -0.5564    0.0727    2.1744 C   0  0  0  0  0  0  0  0  0  0  0  0
    0.6169   -0.1288    2.4805 O   0  0  0  0  0  0  0  0  0  0  0  0
   -1.4759    0.4743    3.0595 N   0  0  0  0  0  0  0  0  0  0  0  0
   -2.4132    0.6318    2.7275 H   0  0  0  0  0  0  0  0  0  0  0  0
   -1.1971    0.7118    4.4750 C   0  0  0  0  0  0  0  0  0  0  0  0
   -0.3779    1.4272    4.5748 H   0  0  0  0  0  0  0  0  0  0  0  0
   -2.0826    1.1064    4.9754 H   0  0  0  0  0  0  0  0  0  0  0  0
   -0.8992   -0.2240    4.9525 H   0  0  0  0  0  0  0  0  0  0  0  0
  5  6  2  0  0  0  0
  5  7  1  0  0  0  0
  2  3  1  0  0  0  0
  2  4  1  0  0  0  0
  2  5  1  0  0  0  0
  1  2  1  0  0  0  0
 26 27  2  0  0  0  0
 26 28  1  0  0  0  0
 23 24  1  0  0  0  0
 23 25  1  0  0  0  0
 20 21  1  0  0  0  0
 20 22  1  0  0  0  0
 20 23  1  0  0  0  0
 17 18  1  0  0  0  0
 17 19  1  0  0  0  0
 17 20  1  0  0  0  0
 14 15  1  0  0  0  0
 14 16  1  0  0  0  0
 14 17  1  0  0  0  0
 11 12  1  0  0  0  0
 11 13  1  0  0  0  0
 11 14  1  0  0  0  0
  9 10  1  0  0  0  0
  9 11  1  0  0  0  0
  9 26  1  0  0  0  0
  7  8  1  0  0  0  0
  7  9  1  0  0  0  0
 30 31  1  0  0  0  0
 30 32  1  0  0  0  0
 30 33  1  0  0  0  0
 28 29  1  0  0  0  0
 28 30  1  0  0  0  0
M  END
$$$$
default_name
  -OEChem-02102213163D

 33 32  0     1  0  0  0  0  0999 V2000
   -3.8420   -3.6918    1.5562 H   0  0  0  0  0  0  0  0  0  0  0  0
   -3.8430   -2.7008    1.1032 C   0  0  0  0  0  0  0  0  0  0  0  0
   -4.5510   -2.0608    1.6242 H   0  0  0  0  0  0  0  0  0  0  0  0
   -4.1140   -2.7798    0.0522 H   0  0  0  0  0  0  0  0  0  0  0  0
   -2.4570   -2.1098    1.2172 C   0  0  0  0  0  0  0  0  0  0  0  0
   -1.5600   -2.7438    1.7572 O   0  0  0  0  0  0  0  0  0  0  0  0
   -2.2870   -0.8898    0.7102 N   0  0  0  0  0  0  0  0  0  0  0  0
   -3.0820   -0.4218    0.2992 H   0  0  0  0  0  0  0  0  0  0  0  0
   -1.0240   -0.1468    0.7262 C   0  0  1  0  0  0  0  0  0  0  0  0
   -0.2680   -0.7367    0.2062 H   0  0  0  0  0  0  0  0  0  0  0  0
   -1.2212    1.1806   -0.0314 C   0  0  0  0  0  0  0  0  0  0  0  0
   -1.7666    0.9755   -0.9549 H   0  0  0  0  0  0  0  0  0  0  0  0
   -1.8241    1.8560    0.5772 H   0  0  0  0  0  0  0  0  0  0  0  0
    0.1004    1.8733   -0.3988 C   0  0  0  0  0  0  0  0  0  0  0  0
    0.1675    1.9830   -1.4815 H   0  0  0  0  0  0  0  0  0  0  0  0
    0.1281    2.8619    0.0631 H   0  0  0  0  0  0  0  0  0  0  0  0
    1.3013    1.0552    0.0893 C   0  0  0  0  0  0  0  0  0  0  0  0
    1.2442    0.9300    1.1710 H   0  0  0  0  0  0  0  0  0  0  0  0
    1.2914    0.0747   -0.3878 H   0  0  0  0  0  0  0  0  0  0  0  0
    2.5995    1.7772   -0.2664 C   0  0  0  0  0  0  0  0  0  0  0  0
    2.6676    1.8869   -1.3475 H   0  0  0  0  0  0  0  0  0  0  0  0
    2.6033    2.7635    0.1947 H   0  0  0  0  0  0  0  0  0  0  0  0
    3.7707    1.0313    0.2083 N   0  0  0  0  0  0  0  0  0  0  0  0
    4.6086    1.5287   -0.0553 H   0  0  0  0  0  0  0  0  0  0  0  0
    3.7289    0.9543    1.2146 H   0  0  0  0  0  0  0  0  0  0  0  0
   -0.5564    0.0727    2.1744 C   0  0  0  0  0  0  0  0  0  0  0  0
    0.6169   -0.1288    2.4805 O   0  0  0  0  0  0  0  0  0  0  0  0
   -1.4759    0.4743    3.0595 N   0  0  0  0  0  0  0  0  0  0  0  0
   -2.4132    0.6318    2.7275 H   0  0  0  0  0  0  0  0  0  0  0  0
   -1.1971    0.7118    4.4750 C   0  0  0  0  0  0  0  0  0  0  0  0
   -0.3779    1.4272    4.5748 H   0  0  0  0  0  0  0  0  0  0  0  0
   -2.0826    1.1064    4.9754 H   0  0  0  0  0  0  0  0  0  0  0  0
   -0.8992   -0.2240    4.9525 H   0  0  0  0  0  0  0  0  0  0  0  0
  5  6  2  0  0  0  0
  5  7  1  0  0  0  0
  2  3  1  0  0  0  0
  2  4  1  0  0  0  0
  2  5  1  0  0  0  0
  1  2  1  0  0  0  0
 26 27  2  0  0  0  0
 26 28  1  0  0  0  0
 23 24  1  0  0  0  0
 23 25  1  0  0  0  0
 20 21  1  0  0  0  0
 20 22  1  0  0  0  0
 20 23  1  0  0  0  0
 17 18  1  0  0  0  0
 17 19  1  0  0  0  0
 17 20  1  0  0  0  0
 14 15  1  0  0  0  0
 14 16  1  0  0  0  0
 14 17  1  0  0  0  0
 11 12  1  0  0  0  0
 11 13  1  0  0  0  0
 11 14  1  0  0  0  0
  9 10  1  0  0  0  0
  9 11  1  0  0  0  0
  9 26  1  0  0  0  0
  7  8  1  0  0  0  0
  7  9  1  0  0  0  0
 30 31  1  0  0  0  0
 30 32  1  0  0  0  0
 30 33  1  0  0  0  0
 28 29  1  0  0  0  0
 28 30  1  0  0  0  0
M  END
$$$$
default_name
  -OEChem-02102213163D

 33 32  0     1  0  0  0  0  0999 V2000
   -3.8420   -3.6918    1.5562 H   0  0  0  0  0  0  0  0  0  0  0  0
   -3.8430   -2.7008    1.1032 C   0  0  0  0  0  0  0  0  0  0  0  0
   -4.5510   -2.0608    1.6242 H   0  0  0  0  0  0  0  0  0  0  0  0
   -4.1140   -2.7798    0.0522 H   0  0  0  0  0  0  0  0  0  0  0  0
   -2.4570   -2.1098    1.2172 C   0  0  0  0  0  0  0  0  0  0  0  0
   -1.5600   -2.7438    1.7572 O   0  0  0  0  0  0  0  0  0  0  0  0
   -2.2870   -0.8898    0.7102 N   0  0  0  0  0  0  0  0  0  0  0  0
   -3.0820   -0.4218    0.2992 H   0  0  0  0  0  0  0  0  0  0  0  0
   -1.0240   -0.1468    0.7262 C   0  0  1  0  0  0  0  0  0  0  0  0
   -0.2680   -0.7367    0.2062 H   0  0  0  0  0  0  0  0  0  0  0  0
   -1.2212    1.1806   -0.0314 C   0  0  0  0  0  0  0  0  0  0  0  0
   -1.7666    0.9755   -0.9549 H   0  0  0  0  0  0  0  0  0  0  0  0
   -1.8241    1.8560    0.5772 H   0  0  0  0  0  0  0  0  0  0  0  0
    0.1004    1.8733   -0.3988 C   0  0  0  0  0  0  0  0  0  0  0  0
    0.0564    2.2218   -1.4310 H   0  0  0  0  0  0  0  0  0  0  0  0
    0.2527    2.7292    0.2612 H   0  0  0  0  0  0  0  0  0  0  0  0
    1.2828    0.9085   -0.2540 C   0  0  0  0  0  0  0  0  0  0  0  0
    1.3353    0.5447    0.7727 H   0  0  0  0  0  0  0  0  0  0  0  0
    1.1470    0.0631   -0.9291 H   0  0  0  0  0  0  0  0  0  0  0  0
    2.5846    1.6282   -0.6007 C   0  0  0  0  0  0  0  0  0  0  0  0
    2.5418    1.9762   -1.6315 H   0  0  0  0  0  0  0  0  0  0  0  0
    2.7130    2.4832    0.0610 H   0  0  0  0  0  0  0  0  0  0  0  0
    3.7415    0.7382   -0.4494 N   0  0  0  0  0  0  0  0  0  0  0  0
    4.5804    1.2410   -0.6993 H   0  0  0  0  0  0  0  0  0  0  0  0
    3.8046    0.4376    0.5129 H   0  0  0  0  0  0  0  0  0  0  0  0
   -0.5564    0.0727    2.1744 C   0  0  0  0  0  0  0  0  0  0  0  0
    0.6169   -0.1288    2.4805 O   0  0  0  0  0  0  0  0  0  0  0  0
   -1.4759    0.4743    3.0595 N   0  0  0  0  0  0  0  0  0  0  0  0
   -2.4132    0.6318    2.7275 H   0  0  0  0  0  0  0  0  0  0  0  0
   -1.1971    0.7118    4.4750 C   0  0  0  0  0  0  0  0  0  0  0  0
   -0.3779    1.4272    4.5748 H   0  0  0  0  0  0  0  0  0  0  0  0
   -2.0826    1.1064    4.9754 H   0  0  0  0  0  0  0  0  0  0  0  0
   -0.8992   -0.2240    4.9525 H   0  0  0  0  0  0  0  0  0  0  0  0
  5  6  2  0  0  0  0
  5  7  1  0  0  0  0
  2  3  1  0  0  0  0
  2  4  1  0  0  0  0
  2  5  1  0  0  0  0
  1  2  1  0  0  0  0
 26 27  2  0  0  0  0
 26 28  1  0  0  0  0
 23 24  1  0  0  0  0
 23 25  1  0  0  0  0
 20 21  1  0  0  0  0
 20 22  1  0  0  0  0
 20 23  1  0  0  0  0
 17 18  1  0  0  0  0
 17 19  1  0  0  0  0
 17 20  1  0  0  0  0
 14 15  1  0  0  0  0
 14 16  1  0  0  0  0
 14 17  1  0  0  0  0
 11 12  1  0  0  0  0
 11 13  1  0  0  0  0
 11 14  1  0  0  0  0
  9 10  1  0  0  0  0
  9 11  1  0  0  0  0
  9 26  1  0  0  0  0
  7  8  1  0  0  0  0
  7  9  1  0  0  0  0
 30 31  1  0  0  0  0
 30 32  1  0  0  0  0
 30 33  1  0  0  0  0
 28 29  1  0  0  0  0
 28 30  1  0  0  0  0
M  END
$$$$
default_name
  -OEChem-02102213163D

 33 32  0     1  0  0  0  0  0999 V2000
   -3.8420   -3.6918    1.5562 H   0  0  0  0  0  0  0  0  0  0  0  0
   -3.8430   -2.7008    1.1032 C   0  0  0  0  0  0  0  0  0  0  0  0
   -4.5510   -2.0608    1.6242 H   0  0  0  0  0  0  0  0  0  0  0  0
   -4.1140   -2.7798    0.0522 H   0  0  0  0  0  0  0  0  0  0  0  0
   -2.4570   -2.1098    1.2172 C   0  0  0  0  0  0  0  0  0  0  0  0
   -1.5600   -2.7438    1.7572 O   0  0  0  0  0  0  0  0  0  0  0  0
   -2.2870   -0.8898    0.7102 N   0  0  0  0  0  0  0  0  0  0  0  0
   -3.0820   -0.4218    0.2992 H   0  0  0  0  0  0  0  0  0  0  0  0
   -1.0240   -0.1468    0.7262 C   0  0  1  0  0  0  0  0  0  0  0  0
   -0.2680   -0.7367    0.2062 H   0  0  0  0  0  0  0  0  0  0  0  0
   -1.2212    1.1806   -0.0314 C   0  0  0  0  0  0  0  0  0  0  0  0
   -1.7666    0.9755   -0.9549 H   0  0  0  0  0  0  0  0  0  0  0  0
   -1.8241    1.8560    0.5772 H   0  0  0  0  0  0  0  0  0  0  0  0
    0.1004    1.8733   -0.3988 C   0  0  0  0  0  0  0  0  0  0  0  0
   -0.0302    2.4480   -1.3161 H   0  0  0  0  0  0  0  0  0  0  0  0
    0.3880    2.5492    0.4086 H   0  0  0  0  0  0  0  0  0  0  0  0
    1.2157    0.8444   -0.6161 C   0  0  0  0  0  0  0  0  0  0  0  0
    1.3531    0.2556    0.2915 H   0  0  0  0  0  0  0  0  0  0  0  0
    0.9436    0.1813   -1.4378 H   0  0  0  0  0  0  0  0  0  0  0  0
    2.5221    1.5596   -0.9551 C   0  0  0  0  0  0  0  0  0  0  0  0
    2.3927    2.1335   -1.8713 H   0  0  0  0  0  0  0  0  0  0  0  0
    2.7860    2.2355   -0.1433 H   0  0  0  0  0  0  0  0  0  0  0  0
    3.6184    0.6033   -1.1465 N   0  0  0  0  0  0  0  0  0  0  0  0
    4.4602    1.1081   -1.3821 H   0  0  0  0  0  0  0  0  0  0  0  0
    3.7639    0.0900   -0.2888 H   0  0  0  0  0  0  0  0  0  0  0  0
   -0.5564    0.0727    2.1744 C   0  0  0  0  0  0  0  0  0  0  0  0
    0.6169   -0.1288    2.4805 O   0  0  0  0  0  0  0  0  0  0  0  0
   -1.4759    0.4743    3.0595 N   0  0  0  0  0  0  0  0  0  0  0  0
   -2.4132    0.6318    2.7275 H   0  0  0  0  0  0  0  0  0  0  0  0
   -1.1971    0.7118    4.4750 C   0  0  0  0  0  0  0  0  0  0  0  0
   -0.3779    1.4272    4.5748 H   0  0  0  0  0  0  0  0  0  0  0  0
   -2.0826    1.1064    4.9754 H   0  0  0  0  0  0  0  0  0  0  0  0
   -0.8992   -0.2240    4.9525 H   0  0  0  0  0  0  0  0  0  0  0  0
  5  6  2  0  0  0  0
  5  7  1  0  0  0  0
  2  3  1  0  0  0  0
  2  4  1  0  0  0  0
  2  5  1  0  0  0  0
  1  2  1  0  0  0  0
 26 27  2  0  0  0  0
 26 28  1  0  0  0  0
 23 24  1  0  0  0  0
 23 25  1  0  0  0  0
 20 21  1  0  0  0  0
 20 22  1  0  0  0  0
 20 23  1  0  0  0  0
 17 18  1  0  0  0  0
 17 19  1  0  0  0  0
 17 20  1  0  0  0  0
 14 15  1  0  0  0  0
 14 16  1  0  0  0  0
 14 17  1  0  0  0  0
 11 12  1  0  0  0  0
 11 13  1  0  0  0  0
 11 14  1  0  0  0  0
  9 10  1  0  0  0  0
  9 11  1  0  0  0  0
  9 26  1  0  0  0  0
  7  8  1  0  0  0  0
  7  9  1  0  0  0  0
 30 31  1  0  0  0  0
 30 32  1  0  0  0  0
 30 33  1  0  0  0  0
 28 29  1  0  0  0  0
 28 30  1  0  0  0  0
M  END
$$$$
default_name
  -OEChem-02102213163D

 33 32  0     1  0  0  0  0  0999 V2000
   -3.8420   -3.6918    1.5562 H   0  0  0  0  0  0  0  0  0  0  0  0
   -3.8430   -2.7008    1.1032 C   0  0  0  0  0  0  0  0  0  0  0  0
   -4.5510   -2.0608    1.6242 H   0  0  0  0  0  0  0  0  0  0  0  0
   -4.1140   -2.7798    0.0522 H   0  0  0  0  0  0  0  0  0  0  0  0
   -2.4570   -2.1098    1.2172 C   0  0  0  0  0  0  0  0  0  0  0  0
   -1.5600   -2.7438    1.7572 O   0  0  0  0  0  0  0  0  0  0  0  0
   -2.2870   -0.8898    0.7102 N   0  0  0  0  0  0  0  0  0  0  0  0
   -3.0820   -0.4218    0.2992 H   0  0  0  0  0  0  0  0  0  0  0  0
   -1.0240   -0.1468    0.7262 C   0  0  1  0  0  0  0  0  0  0  0  0
   -0.2680   -0.7367    0.2062 H   0  0  0  0  0  0  0  0  0  0  0  0
   -1.2212    1.1806   -0.0314 C   0  0  0  0  0  0  0  0  0  0  0  0
   -1.7666    0.9755   -0.9549 H   0  0  0  0  0  0  0  0  0  0  0  0
   -1.8241    1.8560    0.5772 H   0  0  0  0  0  0  0  0  0  0  0  0
    0.1004    1.8733   -0.3988 C   0  0  0  0  0  0  0  0  0  0  0  0
   -0.0865    2.6463   -1.1447 H   0  0  0  0  0  0  0  0  0  0  0  0
    0.5247    2.3342    0.4951 H   0  0  0  0  0  0  0  0  0  0  0  0
    1.1047    0.8672   -0.9723 C   0  0  0  0  0  0  0  0  0  0  0  0
    1.2962    0.0824   -0.2398 H   0  0  0  0  0  0  0  0  0  0  0  0
    0.6952    0.4213   -1.8791 H   0  0  0  0  0  0  0  0  0  0  0  0
    2.4160    1.5762   -1.3054 C   0  0  0  0  0  0  0  0  0  0  0  0
    2.2305    2.3481   -2.0505 H   0  0  0  0  0  0  0  0  0  0  0  0
    2.8174    2.0371   -0.4044 H   0  0  0  0  0  0  0  0  0  0  0  0
    3.4098    0.6357   -1.8356 N   0  0  0  0  0  0  0  0  0  0  0  0
    4.2563    1.1392   -2.0572 H   0  0  0  0  0  0  0  0  0  0  0  0
    3.6096   -0.0648   -1.1358 H   0  0  0  0  0  0  0  0  0  0  0  0
   -0.5564    0.0727    2.1744 C   0  0  0  0  0  0  0  0  0  0  0  0
    0.6169   -0.1288    2.4805 O   0  0  0  0  0  0  0  0  0  0  0  0
   -1.4759    0.4743    3.0595 N   0  0  0  0  0  0  0  0  0  0  0  0
   -2.4132    0.6318    2.7275 H   0  0  0  0  0  0  0  0  0  0  0  0
   -1.1971    0.7118    4.4750 C   0  0  0  0  0  0  0  0  0  0  0  0
   -0.3779    1.4272    4.5748 H   0  0  0  0  0  0  0  0  0  0  0  0
   -2.0826    1.1064    4.9754 H   0  0  0  0  0  0  0  0  0  0  0  0
   -0.8992   -0.2240    4.9525 H   0  0  0  0  0  0  0  0  0  0  0  0
  5  6  2  0  0  0  0
  5  7  1  0  0  0  0
  2  3  1  0  0  0  0
  2  4  1  0  0  0  0
  2  5  1  0  0  0  0
  1  2  1  0  0  0  0
 26 27  2  0  0  0  0
 26 28  1  0  0  0  0
 23 24  1  0  0  0  0
 23 25  1  0  0  0  0
 20 21  1  0  0  0  0
 20 22  1  0  0  0  0
 20 23  1  0  0  0  0
 17 18  1  0  0  0  0
 17 19  1  0  0  0  0
 17 20  1  0  0  0  0
 14 15  1  0  0  0  0
 14 16  1  0  0  0  0
 14 17  1  0  0  0  0
 11 12  1  0  0  0  0
 11 13  1  0  0  0  0
 11 14  1  0  0  0  0
  9 10  1  0  0  0  0
  9 11  1  0  0  0  0
  9 26  1  0  0  0  0
  7  8  1  0  0  0  0
  7  9  1  0  0  0  0
 30 31  1  0  0  0  0
 30 32  1  0  0  0  0
 30 33  1  0  0  0  0
 28 29  1  0  0  0  0
 28 30  1  0  0  0  0
M  END
$$$$
default_name
  -OEChem-02102213163D

 33 32  0     1  0  0  0  0  0999 V2000
   -3.8420   -3.6918    1.5562 H   0  0  0  0  0  0  0  0  0  0  0  0
   -3.8430   -2.7008    1.1032 C   0  0  0  0  0  0  0  0  0  0  0  0
   -4.5510   -2.0608    1.6242 H   0  0  0  0  0  0  0  0  0  0  0  0
   -4.1140   -2.7798    0.0522 H   0  0  0  0  0  0  0  0  0  0  0  0
   -2.4570   -2.1098    1.2172 C   0  0  0  0  0  0  0  0  0  0  0  0
   -1.5600   -2.7438    1.7572 O   0  0  0  0  0  0  0  0  0  0  0  0
   -2.2870   -0.8898    0.7102 N   0  0  0  0  0  0  0  0  0  0  0  0
   -3.0820   -0.4218    0.2992 H   0  0  0  0  0  0  0  0  0  0  0  0
   -1.0240   -0.1468    0.7262 C   0  0  1  0  0  0  0  0  0  0  0  0
   -0.2680   -0.7367    0.2062 H   0  0  0  0  0  0  0  0  0  0  0  0
   -1.2212    1.1806   -0.0314 C   0  0  0  0  0  0  0  0  0  0  0  0
   -1.7666    0.9755   -0.9549 H   0  0  0  0  0  0  0  0  0  0  0  0
   -1.8241    1.8560    0.5772 H   0  0  0  0  0  0  0  0  0  0  0  0
    0.1004    1.8733   -0.3988 C   0  0  0  0  0  0  0  0  0  0  0  0
   -0.1086    2.8032   -0.9284 H   0  0  0  0  0  0  0  0  0  0  0  0
    0.6536    2.0988    0.5148 H   0  0  0  0  0  0  0  0  0  0  0  0
    0.9574    0.9754   -1.2983 C   0  0  0  0  0  0  0  0  0  0  0  0
    1.1685    0.0369   -0.7848 H   0  0  0  0  0  0  0  0  0  0  0  0
    0.4185    0.7667   -2.2230 H   0  0  0  0  0  0  0  0  0  0  0  0
    2.2738    1.6767   -1.6277 C   0  0  0  0  0  0  0  0  0  0  0  0
    2.0661    2.6052   -2.1569 H   0  0  0  0  0  0  0  0  0  0  0  0
    2.8050    1.9017   -0.7043 H   0  0  0  0  0  0  0  0  0  0  0  0
    3.1300    0.8333   -2.4697 N   0  0  0  0  0  0  0  0  0  0  0  0
    3.9824    1.3321   -2.6786 H   0  0  0  0  0  0  0  0  0  0  0  0
    3.3521   -0.0162   -1.9704 H   0  0  0  0  0  0  0  0  0  0  0  0
   -0.5564    0.0727    2.1744 C   0  0  0  0  0  0  0  0  0  0  0  0
    0.6169   -0.1288    2.4805 O   0  0  0  0  0  0  0  0  0  0  0  0
   -1.4759    0.4743    3.0595 N   0  0  0  0  0  0  0  0  0  0  0  0
   -2.4132    0.6318    2.7275 H   0  0  0  0  0  0  0  0  0  0  0  0
   -1.1971    0.7118    4.4750 C   0  0  0  0  0  0  0  0  0  0  0  0
   -0.3779    1.4272    4.5748 H   0  0  0  0  0  0  0  0  0  0  0  0
   -2.0826    1.1064    4.9754 H   0  0  0  0  0  0  0  0  0  0  0  0
   -0.8992   -0.2240    4.9525 H   0  0  0  0  0  0  0  0  0  0  0  0
  5  6  2  0  0  0  0
  5  7  1  0  0  0  0
  2  3  1  0  0  0  0
  2  4  1  0  0  0  0
  2  5  1  0  0  0  0
  1  2  1  0  0  0  0
 26 27  2  0  0  0  0
 26 28  1  0  0  0  0
 23 24  1  0  0  0  0
 23 25  1  0  0  0  0
 20 21  1  0  0  0  0
 20 22  1  0  0  0  0
 20 23  1  0  0  0  0
 17 18  1  0  0  0  0
 17 19  1  0  0  0  0
 17 20  1  0  0  0  0
 14 15  1  0  0  0  0
 14 16  1  0  0  0  0
 14 17  1  0  0  0  0
 11 12  1  0  0  0  0
 11 13  1  0  0  0  0
 11 14  1  0  0  0  0
  9 10  1  0  0  0  0
  9 11  1  0  0  0  0
  9 26  1  0  0  0  0
  7  8  1  0  0  0  0
  7  9  1  0  0  0  0
 30 31  1  0  0  0  0
 30 32  1  0  0  0  0
 30 33  1  0  0  0  0
 28 29  1  0  0  0  0
 28 30  1  0  0  0  0
M  END
$$$$
default_name
  -OEChem-02102213163D

 33 32  0     1  0  0  0  0  0999 V2000
   -3.8420   -3.6918    1.5562 H   0  0  0  0  0  0  0  0  0  0  0  0
   -3.8430   -2.7008    1.1032 C   0  0  0  0  0  0  0  0  0  0  0  0
   -4.5510   -2.0608    1.6242 H   0  0  0  0  0  0  0  0  0  0  0  0
   -4.1140   -2.7798    0.0522 H   0  0  0  0  0  0  0  0  0  0  0  0
   -2.4570   -2.1098    1.2172 C   0  0  0  0  0  0  0  0  0  0  0  0
   -1.5600   -2.7438    1.7572 O   0  0  0  0  0  0  0  0  0  0  0  0
   -2.2870   -0.8898    0.7102 N   0  0  0  0  0  0  0  0  0  0  0  0
   -3.0820   -0.4218    0.2992 H   0  0  0  0  0  0  0  0  0  0  0  0
   -1.0240   -0.1468    0.7262 C   0  0  1  0  0  0  0  0  0  0  0  0
   -0.2680   -0.7367    0.2062 H   0  0  0  0  0  0  0  0  0  0  0  0
   -1.2212    1.1806   -0.0314 C   0  0  0  0  0  0  0  0  0  0  0  0
   -1.7666    0.9755   -0.9549 H   0  0  0  0  0  0  0  0  0  0  0  0
   -1.8241    1.8560    0.5772 H   0  0  0  0  0  0  0  0  0  0  0  0
    0.1004    1.8733   -0.3988 C   0  0  0  0  0  0  0  0  0  0  0  0
   -0.0950    2.9079   -0.6819 H   0  0  0  0  0  0  0  0  0  0  0  0
    0.7658    1.8590    0.4664 H   0  0  0  0  0  0  0  0  0  0  0  0
    0.7837    1.1616   -1.5720 C   0  0  0  0  0  0  0  0  0  0  0  0
    0.9788    0.1221   -1.3065 H   0  0  0  0  0  0  0  0  0  0  0  0
    0.1326    1.1941   -2.4460 H   0  0  0  0  0  0  0  0  0  0  0  0
    2.1050    1.8543   -1.9000 C   0  0  0  0  0  0  0  0  0  0  0  0
    1.9108    2.8875   -2.1833 H   0  0  0  0  0  0  0  0  0  0  0  0
    2.7496    1.8384   -1.0228 H   0  0  0  0  0  0  0  0  0  0  0  0
    2.7980    1.1827   -3.0055 N   0  0  0  0  0  0  0  0  0  0  0  0
    3.6573    1.6737   -3.2039 H   0  0  0  0  0  0  0  0  0  0  0  0
    3.0091    0.2325   -2.7357 H   0  0  0  0  0  0  0  0  0  0  0  0
   -0.5564    0.0727    2.1744 C   0  0  0  0  0  0  0  0  0  0  0  0
    0.6169   -0.1288    2.4805 O   0  0  0  0  0  0  0  0  0  0  0  0
   -1.4759    0.4743    3.0595 N   0  0  0  0  0  0  0  0  0  0  0  0
   -2.4132    0.6318    2.7275 H   0  0  0  0  0  0  0  0  0  0  0  0
   -1.1971    0.7118    4.4750 C   0  0  0  0  0  0  0  0  0  0  0  0
   -0.3779    1.4272    4.5748 H   0  0  0  0  0  0  0  0  0  0  0  0
   -2.0826    1.1064    4.9754 H   0  0  0  0  0  0  0  0  0  0  0  0
   -0.8992   -0.2240    4.9525 H   0  0  0  0  0  0  0  0  0  0  0  0
  5  6  2  0  0  0  0
  5  7  1  0  0  0  0
  2  3  1  0  0  0  0
  2  4  1  0  0  0  0
  2  5  1  0  0  0  0
  1  2  1  0  0  0  0
 26 27  2  0  0  0  0
 26 28  1  0  0  0  0
 23 24  1  0  0  0  0
 23 25  1  0  0  0  0
 20 21  1  0  0  0  0
 20 22  1  0  0  0  0
 20 23  1  0  0  0  0
 17 18  1  0  0  0  0
 17 19  1  0  0  0  0
 17 20  1  0  0  0  0
 14 15  1  0  0  0  0
 14 16  1  0  0  0  0
 14 17  1  0  0  0  0
 11 12  1  0  0  0  0
 11 13  1  0  0  0  0
 11 14  1  0  0  0  0
  9 10  1  0  0  0  0
  9 11  1  0  0  0  0
  9 26  1  0  0  0  0
  7  8  1  0  0  0  0
  7  9  1  0  0  0  0
 30 31  1  0  0  0  0
 30 32  1  0  0  0  0
 30 33  1  0  0  0  0
 28 29  1  0  0  0  0
 28 30  1  0  0  0  0
M  END
$$$$
default_name
  -OEChem-02102213163D

 33 32  0     1  0  0  0  0  0999 V2000
   -3.8420   -3.6918    1.5562 H   0  0  0  0  0  0  0  0  0  0  0  0
   -3.8430   -2.7008    1.1032 C   0  0  0  0  0  0  0  0  0  0  0  0
   -4.5510   -2.0608    1.6242 H   0  0  0  0  0  0  0  0  0  0  0  0
   -4.1140   -2.7798    0.0522 H   0  0  0  0  0  0  0  0  0  0  0  0
   -2.4570   -2.1098    1.2172 C   0  0  0  0  0  0  0  0  0  0  0  0
   -1.5600   -2.7438    1.7572 O   0  0  0  0  0  0  0  0  0  0  0  0
   -2.2870   -0.8898    0.7102 N   0  0  0  0  0  0  0  0  0  0  0  0
   -3.0820   -0.4218    0.2992 H   0  0  0  0  0  0  0  0  0  0  0  0
   -1.0240   -0.1468    0.7262 C   0  0  1  0  0  0  0  0  0  0  0  0
   -0.2680   -0.7367    0.2062 H   0  0  0  0  0  0  0  0  0  0  0  0
   -1.2212    1.1806   -0.0314 C   0  0  0  0  0  0  0  0  0  0  0  0
   -1.7666    0.9755   -0.9549 H   0  0  0  0  0  0  0  0  0  0  0  0
   -1.8241    1.8560    0.5772 H   0  0  0  0  0  0  0  0  0  0  0  0
    0.1004    1.8733   -0.3988 C   0  0  0  0  0  0  0  0  0  0  0  0
   -0.0466    2.9534   -0.4222 H   0  0  0  0  0  0  0  0  0  0  0  0
    0.8537    1.6312    0.3532 H   0  0  0  0  0  0  0  0  0  0  0  0
    0.5956    1.4131   -1.7746 C   0  0  0  0  0  0  0  0  0  0  0  0
    0.7400    0.3323   -1.7694 H   0  0  0  0  0  0  0  0  0  0  0  0
   -0.1432    1.6741   -2.5329 H   0  0  0  0  0  0  0  0  0  0  0  0
    1.9211    2.0969   -2.1038 C   0  0  0  0  0  0  0  0  0  0  0  0
    1.7752    3.1756   -2.1278 H   0  0  0  0  0  0  0  0  0  0  0  0
    2.6551    1.8516   -1.3380 H   0  0  0  0  0  0  0  0  0  0  0  0
    2.4363    1.6600   -3.4065 N   0  0  0  0  0  0  0  0  0  0  0  0
    3.3032    2.1407   -3.5974 H   0  0  0  0  0  0  0  0  0  0  0  0
    2.6038    0.6642   -3.3795 H   0  0  0  0  0  0  0  0  0  0  0  0
   -0.5564    0.0727    2.1744 C   0  0  0  0  0  0  0  0  0  0  0  0
    0.6169   -0.1288    2.4805 O   0  0  0  0  0  0  0  0  0  0  0  0
   -1.4759    0.4743    3.0595 N   0  0  0  0  0  0  0  0  0  0  0  0
   -2.4132    0.6318    2.7275 H   0  0  0  0  0  0  0  0  0  0  0  0
   -1.1971    0.7118    4.4750 C   0  0  0  0  0  0  0  0  0  0  0  0
   -0.3779    1.4272    4.5748 H   0  0  0  0  0  0  0  0  0  0  0  0
   -2.0826    1.1064    4.9754 H   0  0  0  0  0  0  0  0  0  0  0  0
   -0.8992   -0.2240    4.9525 H   0  0  0  0  0  0  0  0  0  0  0  0
  5  6  2  0  0  0  0
  5  7  1  0  0  0  0
  2  3  1  0  0  0  0
  2  4  1  0  0  0  0
  2  5  1  0  0  0  0
  1  2  1  0  0  0  0
 26 27  2  0  0  0  0
 26 28  1  0  0  0  0
 23 24  1  0  0  0  0
 23 25  1  0  0  0  0
 20 21  1  0  0  0  0
 20 22  1  0  0  0  0
 20 23  1  0  0  0  0
 17 18  1  0  0  0  0
 17 19  1  0  0  0  0
 17 20  1  0  0  0  0
 14 15  1  0  0  0  0
 14 16  1  0  0  0  0
 14 17  1  0  0  0  0
 11 12  1  0  0  0  0
 11 13  1  0  0  0  0
 11 14  1  0  0  0  0
  9 10  1  0  0  0  0
  9 11  1  0  0  0  0
  9 26  1  0  0  0  0
  7  8  1  0  0  0  0
  7  9  1  0  0  0  0
 30 31  1  0  0  0  0
 30 32  1  0  0  0  0
 30 33  1  0  0  0  0
 28 29  1  0  0  0  0
 28 30  1  0  0  0  0
M  END
$$$$
default_name
  -OEChem-02102213163D

 33 32  0     1  0  0  0  0  0999 V2000
   -3.8420   -3.6918    1.5562 H   0  0  0  0  0  0  0  0  0  0  0  0
   -3.8430   -2.7008    1.1032 C   0  0  0  0  0  0  0  0  0  0  0  0
   -4.5510   -2.0608    1.6242 H   0  0  0  0  0  0  0  0  0  0  0  0
   -4.1140   -2.7798    0.0522 H   0  0  0  0  0  0  0  0  0  0  0  0
   -2.4570   -2.1098    1.2172 C   0  0  0  0  0  0  0  0  0  0  0  0
   -1.5600   -2.7438    1.7572 O   0  0  0  0  0  0  0  0  0  0  0  0
   -2.2870   -0.8898    0.7102 N   0  0  0  0  0  0  0  0  0  0  0  0
   -3.0820   -0.4218    0.2992 H   0  0  0  0  0  0  0  0  0  0  0  0
   -1.0240   -0.1468    0.7262 C   0  0  1  0  0  0  0  0  0  0  0  0
   -0.2680   -0.7367    0.2062 H   0  0  0  0  0  0  0  0  0  0  0  0
   -1.2212    1.1806   -0.0314 C   0  0  0  0  0  0  0  0  0  0  0  0
   -1.7666    0.9755   -0.9549 H   0  0  0  0  0  0  0  0  0  0  0  0
   -1.8241    1.8560    0.5772 H   0  0  0  0  0  0  0  0  0  0  0  0
    0.1004    1.8733   -0.3988 C   0  0  0  0  0  0  0  0  0  0  0  0
    0.0333    2.9365   -0.1668 H   0  0  0  0  0  0  0  0  0  0  0  0
    0.9113    1.4310    0.1829 H   0  0  0  0  0  0  0  0  0  0  0  0
    0.4058    1.7128   -1.8924 C   0  0  0  0  0  0  0  0  0  0  0  0
    0.4683    0.6531   -2.1418 H   0  0  0  0  0  0  0  0  0  0  0  0
   -0.3900    2.1743   -2.4778 H   0  0  0  0  0  0  0  0  0  0  0  0
    1.7348    2.3880   -2.2253 C   0  0  0  0  0  0  0  0  0  0  0  0
    1.6686    3.4500   -1.9943 H   0  0  0  0  0  0  0  0  0  0  0  0
    2.5278    1.9404   -1.6285 H   0  0  0  0  0  0  0  0  0  0  0  0
    2.0698    2.2326   -3.6455 N   0  0  0  0  0  0  0  0  0  0  0  0
    2.9441    2.7013   -3.8322 H   0  0  0  0  0  0  0  0  0  0  0  0
    2.1640    1.2496   -3.8580 H   0  0  0  0  0  0  0  0  0  0  0  0
   -0.5564    0.0727    2.1744 C   0  0  0  0  0  0  0  0  0  0  0  0
    0.6169   -0.1288    2.4805 O   0  0  0  0  0  0  0  0  0  0  0  0
   -1.4759    0.4743    3.0595 N   0  0  0  0  0  0  0  0  0  0  0  0
   -2.4132    0.6318    2.7275 H   0  0  0  0  0  0  0  0  0  0  0  0
   -1.1971    0.7118    4.4750 C   0  0  0  0  0  0  0  0  0  0  0  0
   -0.3779    1.4272    4.5748 H   0  0  0  0  0  0  0  0  0  0  0  0
   -2.0826    1.1064    4.9754 H   0  0  0  0  0  0  0  0  0  0  0  0
   -0.8992   -0.2240    4.9525 H   0  0  0  0  0  0  0  0  0  0  0  0
  5  6  2  0  0  0  0
  5  7  1  0  0  0  0
  2  3  1  0  0  0  0
  2  4  1  0  0  0  0
  2  5  1  0  0  0  0
  1  2  1  0  0  0  0
 26 27  2  0  0  0  0
 26 28  1  0  0  0  0
 23 24  1  0  0  0  0
 23 25  1  0  0  0  0
 20 21  1  0  0  0  0
 20 22  1  0  0  0  0
 20 23  1  0  0  0  0
 17 18  1  0  0  0  0
 17 19  1  0  0  0  0
 17 20  1  0  0  0  0
 14 15  1  0  0  0  0
 14 16  1  0  0  0  0
 14 17  1  0  0  0  0
 11 12  1  0  0  0  0
 11 13  1  0  0  0  0
 11 14  1  0  0  0  0
  9 10  1  0  0  0  0
  9 11  1  0  0  0  0
  9 26  1  0  0  0  0
  7  8  1  0  0  0  0
  7  9  1  0  0  0  0
 30 31  1  0  0  0  0
 30 32  1  0  0  0  0
 30 33  1  0  0  0  0
 28 29  1  0  0  0  0
 28 30  1  0  0  0  0
M  END
$$$$
default_name
  -OEChem-02102213163D

 33 32  0     1  0  0  0  0  0999 V2000
   -3.8420   -3.6918    1.5562 H   0  0  0  0  0  0  0  0  0  0  0  0
   -3.8430   -2.7008    1.1032 C   0  0  0  0  0  0  0  0  0  0  0  0
   -4.5510   -2.0608    1.6242 H   0  0  0  0  0  0  0  0  0  0  0  0
   -4.1140   -2.7798    0.0522 H   0  0  0  0  0  0  0  0  0  0  0  0
   -2.4570   -2.1098    1.2172 C   0  0  0  0  0  0  0  0  0  0  0  0
   -1.5600   -2.7438    1.7572 O   0  0  0  0  0  0  0  0  0  0  0  0
   -2.2870   -0.8898    0.7102 N   0  0  0  0  0  0  0  0  0  0  0  0
   -3.0820   -0.4218    0.2992 H   0  0  0  0  0  0  0  0  0  0  0  0
   -1.0240   -0.1468    0.7262 C   0  0  1  0  0  0  0  0  0  0  0  0
   -0.2680   -0.7367    0.2062 H   0  0  0  0  0  0  0  0  0  0  0  0
   -1.2212    1.1806   -0.0314 C   0  0  0  0  0  0  0  0  0  0  0  0
   -1.7666    0.9755   -0.9549 H   0  0  0  0  0  0  0  0  0  0  0  0
   -1.8241    1.8560    0.5772 H   0  0  0  0  0  0  0  0  0  0  0  0
    0.1004    1.8733   -0.3988 C   0  0  0  0  0  0  0  0  0  0  0  0
    0.1391    2.8584    0.0668 H   0  0  0  0  0  0  0  0  0  0  0  0
    0.9347    1.2719   -0.0329 H   0  0  0  0  0  0  0  0  0  0  0  0
    0.2272    2.0402   -1.9173 C   0  0  0  0  0  0  0  0  0  0  0  0
    0.1823    1.0627   -2.3984 H   0  0  0  0  0  0  0  0  0  0  0  0
   -0.5910    2.6604   -2.2845 H   0  0  0  0  0  0  0  0  0  0  0  0
    1.5587    2.7077   -2.2560 C   0  0  0  0  0  0  0  0  0  0  0  0
    1.5981    3.6918   -1.7918 H   0  0  0  0  0  0  0  0  0  0  0  0
    2.3765    2.0986   -1.8745 H   0  0  0  0  0  0  0  0  0  0  0  0
    1.7233    2.8616   -3.7060 N   0  0  0  0  0  0  0  0  0  0  0  0
    2.6046    3.3172   -3.8923 H   0  0  0  0  0  0  0  0  0  0  0  0
    1.7195    1.9488   -4.1386 H   0  0  0  0  0  0  0  0  0  0  0  0
   -0.5564    0.0727    2.1744 C   0  0  0  0  0  0  0  0  0  0  0  0
    0.6169   -0.1288    2.4805 O   0  0  0  0  0  0  0  0  0  0  0  0
   -1.4759    0.4743    3.0595 N   0  0  0  0  0  0  0  0  0  0  0  0
   -2.4132    0.6318    2.7275 H   0  0  0  0  0  0  0  0  0  0  0  0
   -1.1971    0.7118    4.4750 C   0  0  0  0  0  0  0  0  0  0  0  0
   -0.3779    1.4272    4.5748 H   0  0  0  0  0  0  0  0  0  0  0  0
   -2.0826    1.1064    4.9754 H   0  0  0  0  0  0  0  0  0  0  0  0
   -0.8992   -0.2240    4.9525 H   0  0  0  0  0  0  0  0  0  0  0  0
  5  6  2  0  0  0  0
  5  7  1  0  0  0  0
  2  3  1  0  0  0  0
  2  4  1  0  0  0  0
  2  5  1  0  0  0  0
  1  2  1  0  0  0  0
 26 27  2  0  0  0  0
 26 28  1  0  0  0  0
 23 24  1  0  0  0  0
 23 25  1  0  0  0  0
 20 21  1  0  0  0  0
 20 22  1  0  0  0  0
 20 23  1  0  0  0  0
 17 18  1  0  0  0  0
 17 19  1  0  0  0  0
 17 20  1  0  0  0  0
 14 15  1  0  0  0  0
 14 16  1  0  0  0  0
 14 17  1  0  0  0  0
 11 12  1  0  0  0  0
 11 13  1  0  0  0  0
 11 14  1  0  0  0  0
  9 10  1  0  0  0  0
  9 11  1  0  0  0  0
  9 26  1  0  0  0  0
  7  8  1  0  0  0  0
  7  9  1  0  0  0  0
 30 31  1  0  0  0  0
 30 32  1  0  0  0  0
 30 33  1  0  0  0  0
 28 29  1  0  0  0  0
 28 30  1  0  0  0  0
M  END
$$$$
default_name
  -OEChem-02102213163D

 33 32  0     1  0  0  0  0  0999 V2000
   -3.8420   -3.6918    1.5562 H   0  0  0  0  0  0  0  0  0  0  0  0
   -3.8430   -2.7008    1.1032 C   0  0  0  0  0  0  0  0  0  0  0  0
   -4.5510   -2.0608    1.6242 H   0  0  0  0  0  0  0  0  0  0  0  0
   -4.1140   -2.7798    0.0522 H   0  0  0  0  0  0  0  0  0  0  0  0
   -2.4570   -2.1098    1.2172 C   0  0  0  0  0  0  0  0  0  0  0  0
   -1.5600   -2.7438    1.7572 O   0  0  0  0  0  0  0  0  0  0  0  0
   -2.2870   -0.8898    0.7102 N   0  0  0  0  0  0  0  0  0  0  0  0
   -3.0820   -0.4218    0.2992 H   0  0  0  0  0  0  0  0  0  0  0  0
   -1.0240   -0.1468    0.7262 C   0  0  1  0  0  0  0  0  0  0  0  0
   -0.2680   -0.7367    0.2062 H   0  0  0  0  0  0  0  0  0  0  0  0
   -1.2212    1.1806   -0.0314 C   0  0  0  0  0  0  0  0  0  0  0  0
   -1.7666    0.9755   -0.9549 H   0  0  0  0  0  0  0  0  0  0  0  0
   -1.8241    1.8560    0.5772 H   0  0  0  0  0  0  0  0  0  0  0  0
    0.1004    1.8733   -0.3988 C   0  0  0  0  0  0  0  0  0  0  0  0
    0.2638    2.7244    0.2628 H   0  0  0  0  0  0  0  0  0  0  0  0
    0.9222    1.1649   -0.2795 H   0  0  0  0  0  0  0  0  0  0  0  0
    0.0721    2.3731   -1.8476 C   0  0  0  0  0  0  0  0  0  0  0  0
   -0.0985    1.5332   -2.5218 H   0  0  0  0  0  0  0  0  0  0  0  0
   -0.7325    3.0993   -1.9661 H   0  0  0  0  0  0  0  0  0  0  0  0
    1.4048    3.0343   -2.1940 C   0  0  0  0  0  0  0  0  0  0  0  0
    1.5686    3.8848   -1.5341 H   0  0  0  0  0  0  0  0  0  0  0  0
    2.2114    2.3156   -2.0592 H   0  0  0  0  0  0  0  0  0  0  0  0
    1.4205    3.5041   -3.5841 N   0  0  0  0  0  0  0  0  0  0  0  0
    2.3077    3.9466   -3.7736 H   0  0  0  0  0  0  0  0  0  0  0  0
    1.3007    2.7142   -4.2022 H   0  0  0  0  0  0  0  0  0  0  0  0
   -0.5564    0.0727    2.1744 C   0  0  0  0  0  0  0  0  0  0  0  0
    0.6169   -0.1288    2.4805 O   0  0  0  0  0  0  0  0  0  0  0  0
   -1.4759    0.4743    3.0595 N   0  0  0  0  0  0  0  0  0  0  0  0
   -2.4132    0.6318    2.7275 H   0  0  0  0  0  0  0  0  0  0  0  0
   -1.1971    0.7118    4.4750 C   0  0  0  0  0  0  0  0  0  0  0  0
   -0.3779    1.4272    4.5748 H   0  0  0  0  0  0  0  0  0  0  0  0
   -2.0826    1.1064    4.9754 H   0  0  0  0  0  0  0  0  0  0  0  0
   -0.8992   -0.2240    4.9525 H   0  0  0  0  0  0  0  0  0  0  0  0
  5  6  2  0  0  0  0
  5  7  1  0  0  0  0
  2  3  1  0  0  0  0
  2  4  1  0  0  0  0
  2  5  1  0  0  0  0
  1  2  1  0  0  0  0
 26 27  2  0  0  0  0
 26 28  1  0  0  0  0
 23 24  1  0  0  0  0
 23 25  1  0  0  0  0
 20 21  1  0  0  0  0
 20 22  1  0  0  0  0
 20 23  1  0  0  0  0
 17 18  1  0  0  0  0
 17 19  1  0  0  0  0
 17 20  1  0  0  0  0
 14 15  1  0  0  0  0
 14 16  1  0  0  0  0
 14 17  1  0  0  0  0
 11 12  1  0  0  0  0
 11 13  1  0  0  0  0
 11 14  1  0  0  0  0
  9 10  1  0  0  0  0
  9 11  1  0  0  0  0
  9 26  1  0  0  0  0
  7  8  1  0  0  0  0
  7  9  1  0  0  0  0
 30 31  1  0  0  0  0
 30 32  1  0  0  0  0
 30 33  1  0  0  0  0
 28 29  1  0  0  0  0
 28 30  1  0  0  0  0
M  END
$$$$
default_name
  -OEChem-02102213163D

 33 32  0     1  0  0  0  0  0999 V2000
   -3.8420   -3.6918    1.5562 H   0  0  0  0  0  0  0  0  0  0  0  0
   -3.8430   -2.7008    1.1032 C   0  0  0  0  0  0  0  0  0  0  0  0
   -4.5510   -2.0608    1.6242 H   0  0  0  0  0  0  0  0  0  0  0  0
   -4.1140   -2.7798    0.0522 H   0  0  0  0  0  0  0  0  0  0  0  0
   -2.4570   -2.1098    1.2172 C   0  0  0  0  0  0  0  0  0  0  0  0
   -1.5600   -2.7438    1.7572 O   0  0  0  0  0  0  0  0  0  0  0  0
   -2.2870   -0.8898    0.7102 N   0  0  0  0  0  0  0  0  0  0  0  0
   -3.0820   -0.4218    0.2992 H   0  0  0  0  0  0  0  0  0  0  0  0
   -1.0240   -0.1468    0.7262 C   0  0  1  0  0  0  0  0  0  0  0  0
   -0.2680   -0.7367    0.2062 H   0  0  0  0  0  0  0  0  0  0  0  0
   -1.2212    1.1806   -0.0314 C   0  0  0  0  0  0  0  0  0  0  0  0
   -1.7666    0.9755   -0.9549 H   0  0  0  0  0  0  0  0  0  0  0  0
   -1.8241    1.8560    0.5772 H   0  0  0  0  0  0  0  0  0  0  0  0
    0.1004    1.8733   -0.3988 C   0  0  0  0  0  0  0  0  0  0  0  0
    0.3988    2.5437    0.4076 H   0  0  0  0  0  0  0  0  0  0  0  0
    0.8748    1.1171   -0.5400 H   0  0  0  0  0  0  0  0  0  0  0  0
   -0.0490    2.6887   -1.6882 C   0  0  0  0  0  0  0  0  0  0  0  0
   -0.3551    2.0325   -2.5034 H   0  0  0  0  0  0  0  0  0  0  0  0
   -0.8049    3.4612   -1.5443 H   0  0  0  0  0  0  0  0  0  0  0  0
    1.2835    3.3455   -2.0435 C   0  0  0  0  0  0  0  0  0  0  0  0
    1.5821    4.0156   -1.2389 H   0  0  0  0  0  0  0  0  0  0  0  0
    2.0438    2.5766   -2.1701 H   0  0  0  0  0  0  0  0  0  0  0  0
    1.1819    4.1163   -3.2880 N   0  0  0  0  0  0  0  0  0  0  0  0
    2.0738    4.5465   -3.4843 H   0  0  0  0  0  0  0  0  0  0  0  0
    0.9362    3.4935   -4.0443 H   0  0  0  0  0  0  0  0  0  0  0  0
   -0.5564    0.0727    2.1744 C   0  0  0  0  0  0  0  0  0  0  0  0
    0.6169   -0.1288    2.4805 O   0  0  0  0  0  0  0  0  0  0  0  0
   -1.4759    0.4743    3.0595 N   0  0  0  0  0  0  0  0  0  0  0  0
   -2.4132    0.6318    2.7275 H   0  0  0  0  0  0  0  0  0  0  0  0
   -1.1971    0.7118    4.4750 C   0  0  0  0  0  0  0  0  0  0  0  0
   -0.3779    1.4272    4.5748 H   0  0  0  0  0  0  0  0  0  0  0  0
   -2.0826    1.1064    4.9754 H   0  0  0  0  0  0  0  0  0  0  0  0
   -0.8992   -0.2240    4.9525 H   0  0  0  0  0  0  0  0  0  0  0  0
  5  6  2  0  0  0  0
  5  7  1  0  0  0  0
  2  3  1  0  0  0  0
  2  4  1  0  0  0  0
  2  5  1  0  0  0  0
  1  2  1  0  0  0  0
 26 27  2  0  0  0  0
 26 28  1  0  0  0  0
 23 24  1  0  0  0  0
 23 25  1  0  0  0  0
 20 21  1  0  0  0  0
 20 22  1  0  0  0  0
 20 23  1  0  0  0  0
 17 18  1  0  0  0  0
 17 19  1  0  0  0  0
 17 20  1  0  0  0  0
 14 15  1  0  0  0  0
 14 16  1  0  0  0  0
 14 17  1  0  0  0  0
 11 12  1  0  0  0  0
 11 13  1  0  0  0  0
 11 14  1  0  0  0  0
  9 10  1  0  0  0  0
  9 11  1  0  0  0  0
  9 26  1  0  0  0  0
  7  8  1  0  0  0  0
  7  9  1  0  0  0  0
 30 31  1  0  0  0  0
 30 32  1  0  0  0  0
 30 33  1  0  0  0  0
 28 29  1  0  0  0  0
 28 30  1  0  0  0  0
M  END
$$$$
default_name
  -OEChem-02102213163D

 33 32  0     1  0  0  0  0  0999 V2000
   -3.8420   -3.6918    1.5562 H   0  0  0  0  0  0  0  0  0  0  0  0
   -3.8430   -2.7008    1.1032 C   0  0  0  0  0  0  0  0  0  0  0  0
   -4.5510   -2.0608    1.6242 H   0  0  0  0  0  0  0  0  0  0  0  0
   -4.1140   -2.7798    0.0522 H   0  0  0  0  0  0  0  0  0  0  0  0
   -2.4570   -2.1098    1.2172 C   0  0  0  0  0  0  0  0  0  0  0  0
   -1.5600   -2.7438    1.7572 O   0  0  0  0  0  0  0  0  0  0  0  0
   -2.2870   -0.8898    0.7102 N   0  0  0  0  0  0  0  0  0  0  0  0
   -3.0820   -0.4218    0.2992 H   0  0  0  0  0  0  0  0  0  0  0  0
   -1.0240   -0.1468    0.7262 C   0  0  1  0  0  0  0  0  0  0  0  0
   -0.2680   -0.7367    0.2062 H   0  0  0  0  0  0  0  0  0  0  0  0
   -1.2212    1.1806   -0.0314 C   0  0  0  0  0  0  0  0  0  0  0  0
   -1.7666    0.9755   -0.9549 H   0  0  0  0  0  0  0  0  0  0  0  0
   -1.8241    1.8560    0.5772 H   0  0  0  0  0  0  0  0  0  0  0  0
    0.1004    1.8733   -0.3988 C   0  0  0  0  0  0  0  0  0  0  0  0
    0.5350    2.3285    0.4916 H   0  0  0  0  0  0  0  0  0  0  0  0
    0.7957    1.1319   -0.7968 H   0  0  0  0  0  0  0  0  0  0  0  0
   -0.1278    2.9656   -1.4498 C   0  0  0  0  0  0  0  0  0  0  0  0
   -0.5699    2.5265   -2.3446 H   0  0  0  0  0  0  0  0  0  0  0  0
   -0.8033    3.7213   -1.0479 H   0  0  0  0  0  0  0  0  0  0  0  0
    1.2032    3.6201   -1.8146 C   0  0  0  0  0  0  0  0  0  0  0  0
    1.6377    4.0754   -0.9261 H   0  0  0  0  0  0  0  0  0  0  0  0
    1.8852    2.8637   -2.1996 H   0  0  0  0  0  0  0  0  0  0  0  0
    1.0239    4.6565   -2.8379 N   0  0  0  0  0  0  0  0  0  0  0  0
    1.9187    5.0760   -3.0439 H   0  0  0  0  0  0  0  0  0  0  0  0
    0.6507    4.2337   -3.6759 H   0  0  0  0  0  0  0  0  0  0  0  0
   -0.5564    0.0727    2.1744 C   0  0  0  0  0  0  0  0  0  0  0  0
    0.6169   -0.1288    2.4805 O   0  0  0  0  0  0  0  0  0  0  0  0
   -1.4759    0.4743    3.0595 N   0  0  0  0  0  0  0  0  0  0  0  0
   -2.4132    0.6318    2.7275 H   0  0  0  0  0  0  0  0  0  0  0  0
   -1.1971    0.7118    4.4750 C   0  0  0  0  0  0  0  0  0  0  0  0
   -0.3779    1.4272    4.5748 H   0  0  0  0  0  0  0  0  0  0  0  0
   -2.0826    1.1064    4.9754 H   0  0  0  0  0  0  0  0  0  0  0  0
   -0.8992   -0.2240    4.9525 H   0  0  0  0  0  0  0  0  0  0  0  0
  5  6  2  0  0  0  0
  5  7  1  0  0  0  0
  2  3  1  0  0  0  0
  2  4  1  0  0  0  0
  2  5  1  0  0  0  0
  1  2  1  0  0  0  0
 26 27  2  0  0  0  0
 26 28  1  0  0  0  0
 23 24  1  0  0  0  0
 23 25  1  0  0  0  0
 20 21  1  0  0  0  0
 20 22  1  0  0  0  0
 20 23  1  0  0  0  0
 17 18  1  0  0  0  0
 17 19  1  0  0  0  0
 17 20  1  0  0  0  0
 14 15  1  0  0  0  0
 14 16  1  0  0  0  0
 14 17  1  0  0  0  0
 11 12  1  0  0  0  0
 11 13  1  0  0  0  0
 11 14  1  0  0  0  0
  9 10  1  0  0  0  0
  9 11  1  0  0  0  0
  9 26  1  0  0  0  0
  7  8  1  0  0  0  0
  7  9  1  0  0  0  0
 30 31  1  0  0  0  0
 30 32  1  0  0  0  0
 30 33  1  0  0  0  0
 28 29  1  0  0  0  0
 28 30  1  0  0  0  0
M  END
$$$$
default_name
  -OEChem-02102213163D

 33 32  0     1  0  0  0  0  0999 V2000
   -3.8420   -3.6918    1.5562 H   0  0  0  0  0  0  0  0  0  0  0  0
   -3.8430   -2.7008    1.1032 C   0  0  0  0  0  0  0  0  0  0  0  0
   -4.5510   -2.0608    1.6242 H   0  0  0  0  0  0  0  0  0  0  0  0
   -4.1140   -2.7798    0.0522 H   0  0  0  0  0  0  0  0  0  0  0  0
   -2.4570   -2.1098    1.2172 C   0  0  0  0  0  0  0  0  0  0  0  0
   -1.5600   -2.7438    1.7572 O   0  0  0  0  0  0  0  0  0  0  0  0
   -2.2870   -0.8898    0.7102 N   0  0  0  0  0  0  0  0  0  0  0  0
   -3.0820   -0.4218    0.2992 H   0  0  0  0  0  0  0  0  0  0  0  0
   -1.0240   -0.1468    0.7262 C   0  0  1  0  0  0  0  0  0  0  0  0
   -0.2680   -0.7367    0.2062 H   0  0  0  0  0  0  0  0  0  0  0  0
   -1.2212    1.1806   -0.0314 C   0  0  0  0  0  0  0  0  0  0  0  0
   -1.9815    1.0315   -0.8009 H   0  0  0  0  0  0  0  0  0  0  0  0
   -1.5835    1.9404    0.6625 H   0  0  0  0  0  0  0  0  0  0  0  0
    0.0590    1.6872   -0.7140 C   0  0  0  0  0  0  0  0  0  0  0  0
    0.8341    1.8488    0.0355 H   0  0  0  0  0  0  0  0  0  0  0  0
    0.4043    0.9389   -1.4298 H   0  0  0  0  0  0  0  0  0  0  0  0
   -0.1986    3.0072   -1.4496 C   0  0  0  0  0  0  0  0  0  0  0  0
   -0.9781    2.8634   -2.1984 H   0  0  0  0  0  0  0  0  0  0  0  0
   -0.5210    3.7648   -0.7348 H   0  0  0  0  0  0  0  0  0  0  0  0
    1.0818    3.4749   -2.1388 C   0  0  0  0  0  0  0  0  0  0  0  0
    1.8564    3.6370   -1.3909 H   0  0  0  0  0  0  0  0  0  0  0  0
    1.4150    2.7118   -2.8401 H   0  0  0  0  0  0  0  0  0  0  0  0
    0.8641    4.7264   -2.8735 N   0  0  0  0  0  0  0  0  0  0  0  0
    1.7315    5.0126   -3.3034 H   0  0  0  0  0  0  0  0  0  0  0  0
    0.1690    4.5733   -3.5901 H   0  0  0  0  0  0  0  0  0  0  0  0
   -0.5564    0.0727    2.1744 C   0  0  0  0  0  0  0  0  0  0  0  0
    0.6169   -0.1288    2.4805 O   0  0  0  0  0  0  0  0  0  0  0  0
   -1.4759    0.4743    3.0595 N   0  0  0  0  0  0  0  0  0  0  0  0
   -2.4132    0.6318    2.7275 H   0  0  0  0  0  0  0  0  0  0  0  0
   -1.1971    0.7118    4.4750 C   0  0  0  0  0  0  0  0  0  0  0  0
   -0.3779    1.4272    4.5748 H   0  0  0  0  0  0  0  0  0  0  0  0
   -2.0826    1.1064    4.9754 H   0  0  0  0  0  0  0  0  0  0  0  0
   -0.8992   -0.2240    4.9525 H   0  0  0  0  0  0  0  0  0  0  0  0
  5  6  2  0  0  0  0
  5  7  1  0  0  0  0
  2  3  1  0  0  0  0
  2  4  1  0  0  0  0
  2  5  1  0  0  0  0
  1  2  1  0  0  0  0
 26 27  2  0  0  0  0
 26 28  1  0  0  0  0
 23 24  1  0  0  0  0
 23 25  1  0  0  0  0
 20 21  1  0  0  0  0
 20 22  1  0  0  0  0
 20 23  1  0  0  0  0
 17 18  1  0  0  0  0
 17 19  1  0  0  0  0
 17 20  1  0  0  0  0
 14 15  1  0  0  0  0
 14 16  1  0  0  0  0
 14 17  1  0  0  0  0
 11 12  1  0  0  0  0
 11 13  1  0  0  0  0
 11 14  1  0  0  0  0
  9 10  1  0  0  0  0
  9 11  1  0  0  0  0
  9 26  1  0  0  0  0
  7  8  1  0  0  0  0
  7  9  1  0  0  0  0
 30 31  1  0  0  0  0
 30 32  1  0  0  0  0
 30 33  1  0  0  0  0
 28 29  1  0  0  0  0
 28 30  1  0  0  0  0
M  END
$$$$
default_name
  -OEChem-02102213163D

 33 32  0     1  0  0  0  0  0999 V2000
   -3.8420   -3.6918    1.5562 H   0  0  0  0  0  0  0  0  0  0  0  0
   -3.8430   -2.7008    1.1032 C   0  0  0  0  0  0  0  0  0  0  0  0
   -4.5510   -2.0608    1.6242 H   0  0  0  0  0  0  0  0  0  0  0  0
   -4.1140   -2.7798    0.0522 H   0  0  0  0  0  0  0  0  0  0  0  0
   -2.4570   -2.1098    1.2172 C   0  0  0  0  0  0  0  0  0  0  0  0
   -1.5600   -2.7438    1.7572 O   0  0  0  0  0  0  0  0  0  0  0  0
   -2.2870   -0.8898    0.7102 N   0  0  0  0  0  0  0  0  0  0  0  0
   -3.0820   -0.4218    0.2992 H   0  0  0  0  0  0  0  0  0  0  0  0
   -1.0240   -0.1468    0.7262 C   0  0  1  0  0  0  0  0  0  0  0  0
   -0.2680   -0.7367    0.2062 H   0  0  0  0  0  0  0  0  0  0  0  0
   -1.2212    1.1806   -0.0314 C   0  0  0  0  0  0  0  0  0  0  0  0
   -1.9815    1.0315   -0.8009 H   0  0  0  0  0  0  0  0  0  0  0  0
   -1.5835    1.9404    0.6625 H   0  0  0  0  0  0  0  0  0  0  0  0
    0.0590    1.6872   -0.7140 C   0  0  0  0  0  0  0  0  0  0  0  0
    0.9006    1.5966   -0.0268 H   0  0  0  0  0  0  0  0  0  0  0  0
    0.2556    1.0831   -1.6016 H   0  0  0  0  0  0  0  0  0  0  0  0
   -0.0853    3.1566   -1.1262 C   0  0  0  0  0  0  0  0  0  0  0  0
   -0.9290    3.2647   -1.8085 H   0  0  0  0  0  0  0  0  0  0  0  0
   -0.2581    3.7675   -0.2398 H   0  0  0  0  0  0  0  0  0  0  0  0
    1.1898    3.6269   -1.8234 C   0  0  0  0  0  0  0  0  0  0  0  0
    2.0308    3.5373   -1.1378 H   0  0  0  0  0  0  0  0  0  0  0  0
    1.3737    3.0064   -2.6990 H   0  0  0  0  0  0  0  0  0  0  0  0
    1.0766    5.0254   -2.2531 N   0  0  0  0  0  0  0  0  0  0  0  0
    1.9392    5.3062   -2.6960 H   0  0  0  0  0  0  0  0  0  0  0  0
    0.3175    5.1085   -2.9144 H   0  0  0  0  0  0  0  0  0  0  0  0
   -0.5564    0.0727    2.1744 C   0  0  0  0  0  0  0  0  0  0  0  0
    0.6169   -0.1288    2.4805 O   0  0  0  0  0  0  0  0  0  0  0  0
   -1.4759    0.4743    3.0595 N   0  0  0  0  0  0  0  0  0  0  0  0
   -2.4132    0.6318    2.7275 H   0  0  0  0  0  0  0  0  0  0  0  0
   -1.1971    0.7118    4.4750 C   0  0  0  0  0  0  0  0  0  0  0  0
   -0.3779    1.4272    4.5748 H   0  0  0  0  0  0  0  0  0  0  0  0
   -2.0826    1.1064    4.9754 H   0  0  0  0  0  0  0  0  0  0  0  0
   -0.8992   -0.2240    4.9525 H   0  0  0  0  0  0  0  0  0  0  0  0
  5  6  2  0  0  0  0
  5  7  1  0  0  0  0
  2  3  1  0  0  0  0
  2  4  1  0  0  0  0
  2  5  1  0  0  0  0
  1  2  1  0  0  0  0
 26 27  2  0  0  0  0
 26 28  1  0  0  0  0
 23 24  1  0  0  0  0
 23 25  1  0  0  0  0
 20 21  1  0  0  0  0
 20 22  1  0  0  0  0
 20 23  1  0  0  0  0
 17 18  1  0  0  0  0
 17 19  1  0  0  0  0
 17 20  1  0  0  0  0
 14 15  1  0  0  0  0
 14 16  1  0  0  0  0
 14 17  1  0  0  0  0
 11 12  1  0  0  0  0
 11 13  1  0  0  0  0
 11 14  1  0  0  0  0
  9 10  1  0  0  0  0
  9 11  1  0  0  0  0
  9 26  1  0  0  0  0
  7  8  1  0  0  0  0
  7  9  1  0  0  0  0
 30 31  1  0  0  0  0
 30 32  1  0  0  0  0
 30 33  1  0  0  0  0
 28 29  1  0  0  0  0
 28 30  1  0  0  0  0
M  END
$$$$
default_name
  -OEChem-02102213163D

 33 32  0     1  0  0  0  0  0999 V2000
   -3.8420   -3.6918    1.5562 H   0  0  0  0  0  0  0  0  0  0  0  0
   -3.8430   -2.7008    1.1032 C   0  0  0  0  0  0  0  0  0  0  0  0
   -4.5510   -2.0608    1.6242 H   0  0  0  0  0  0  0  0  0  0  0  0
   -4.1140   -2.7798    0.0522 H   0  0  0  0  0  0  0  0  0  0  0  0
   -2.4570   -2.1098    1.2172 C   0  0  0  0  0  0  0  0  0  0  0  0
   -1.5600   -2.7438    1.7572 O   0  0  0  0  0  0  0  0  0  0  0  0
   -2.2870   -0.8898    0.7102 N   0  0  0  0  0  0  0  0  0  0  0  0
   -3.0820   -0.4218    0.2992 H   0  0  0  0  0  0  0  0  0  0  0  0
   -1.0240   -0.1468    0.7262 C   0  0  1  0  0  0  0  0  0  0  0  0
   -0.2680   -0.7367    0.2062 H   0  0  0  0  0  0  0  0  0  0  0  0
   -1.2212    1.1806   -0.0314 C   0  0  0  0  0  0  0  0  0  0  0  0
   -1.9815    1.0315   -0.8009 H   0  0  0  0  0  0  0  0  0  0  0  0
   -1.5835    1.9404    0.6625 H   0  0  0  0  0  0  0  0  0  0  0  0
    0.0590    1.6872   -0.7140 C   0  0  0  0  0  0  0  0  0  0  0  0
    0.9306    1.3589   -0.1471 H   0  0  0  0  0  0  0  0  0  0  0  0
    0.1139    1.2765   -1.7239 H   0  0  0  0  0  0  0  0  0  0  0  0
    0.0690    3.2181   -0.7914 C   0  0  0  0  0  0  0  0  0  0  0  0
   -0.8021    3.5626   -1.3495 H   0  0  0  0  0  0  0  0  0  0  0  0
    0.0383    3.6332    0.2164 H   0  0  0  0  0  0  0  0  0  0  0  0
    1.3385    3.6933   -1.4953 C   0  0  0  0  0  0  0  0  0  0  0  0
    2.2095    3.3663   -0.9296 H   0  0  0  0  0  0  0  0  0  0  0  0
    1.3797    3.2654   -2.4956 H   0  0  0  0  0  0  0  0  0  0  0  0
    1.3691    5.1561   -1.6076 N   0  0  0  0  0  0  0  0  0  0  0  0
    2.2254    5.4349   -2.0637 H   0  0  0  0  0  0  0  0  0  0  0  0
    0.5802    5.4627   -2.1589 H   0  0  0  0  0  0  0  0  0  0  0  0
   -0.5564    0.0727    2.1744 C   0  0  0  0  0  0  0  0  0  0  0  0
    0.6169   -0.1288    2.4805 O   0  0  0  0  0  0  0  0  0  0  0  0
   -1.4759    0.4743    3.0595 N   0  0  0  0  0  0  0  0  0  0  0  0
   -2.4132    0.6318    2.7275 H   0  0  0  0  0  0  0  0  0  0  0  0
   -1.1971    0.7118    4.4750 C   0  0  0  0  0  0  0  0  0  0  0  0
   -0.3779    1.4272    4.5748 H   0  0  0  0  0  0  0  0  0  0  0  0
   -2.0826    1.1064    4.9754 H   0  0  0  0  0  0  0  0  0  0  0  0
   -0.8992   -0.2240    4.9525 H   0  0  0  0  0  0  0  0  0  0  0  0
  5  6  2  0  0  0  0
  5  7  1  0  0  0  0
  2  3  1  0  0  0  0
  2  4  1  0  0  0  0
  2  5  1  0  0  0  0
  1  2  1  0  0  0  0
 26 27  2  0  0  0  0
 26 28  1  0  0  0  0
 23 24  1  0  0  0  0
 23 25  1  0  0  0  0
 20 21  1  0  0  0  0
 20 22  1  0  0  0  0
 20 23  1  0  0  0  0
 17 18  1  0  0  0  0
 17 19  1  0  0  0  0
 17 20  1  0  0  0  0
 14 15  1  0  0  0  0
 14 16  1  0  0  0  0
 14 17  1  0  0  0  0
 11 12  1  0  0  0  0
 11 13  1  0  0  0  0
 11 14  1  0  0  0  0
  9 10  1  0  0  0  0
  9 11  1  0  0  0  0
  9 26  1  0  0  0  0
  7  8  1  0  0  0  0
  7  9  1  0  0  0  0
 30 31  1  0  0  0  0
 30 32  1  0  0  0  0
 30 33  1  0  0  0  0
 28 29  1  0  0  0  0
 28 30  1  0  0  0  0
M  END
$$$$
default_name
  -OEChem-02102213163D

 33 32  0     1  0  0  0  0  0999 V2000
   -3.8420   -3.6918    1.5562 H   0  0  0  0  0  0  0  0  0  0  0  0
   -3.8430   -2.7008    1.1032 C   0  0  0  0  0  0  0  0  0  0  0  0
   -4.5510   -2.0608    1.6242 H   0  0  0  0  0  0  0  0  0  0  0  0
   -4.1140   -2.7798    0.0522 H   0  0  0  0  0  0  0  0  0  0  0  0
   -2.4570   -2.1098    1.2172 C   0  0  0  0  0  0  0  0  0  0  0  0
   -1.5600   -2.7438    1.7572 O   0  0  0  0  0  0  0  0  0  0  0  0
   -2.2870   -0.8898    0.7102 N   0  0  0  0  0  0  0  0  0  0  0  0
   -3.0820   -0.4218    0.2992 H   0  0  0  0  0  0  0  0  0  0  0  0
   -1.0240   -0.1468    0.7262 C   0  0  1  0  0  0  0  0  0  0  0  0
   -0.2680   -0.7367    0.2062 H   0  0  0  0  0  0  0  0  0  0  0  0
   -1.2212    1.1806   -0.0314 C   0  0  0  0  0  0  0  0  0  0  0  0
   -1.9815    1.0315   -0.8009 H   0  0  0  0  0  0  0  0  0  0  0  0
   -1.5835    1.9404    0.6625 H   0  0  0  0  0  0  0  0  0  0  0  0
    0.0590    1.6872   -0.7140 C   0  0  0  0  0  0  0  0  0  0  0  0
    0.9219    1.1517   -0.3171 H   0  0  0  0  0  0  0  0  0  0  0  0
   -0.0111    1.5059   -1.7881 H   0  0  0  0  0  0  0  0  0  0  0  0
    0.2536    3.1876   -0.4678 C   0  0  0  0  0  0  0  0  0  0  0  0
   -0.6062    3.7367   -0.8528 H   0  0  0  0  0  0  0  0  0  0  0  0
    0.3481    3.3710    0.6029 H   0  0  0  0  0  0  0  0  0  0  0  0
    1.5178    3.6696   -1.1767 C   0  0  0  0  0  0  0  0  0  0  0  0
    2.3802    3.1357   -0.7807 H   0  0  0  0  0  0  0  0  0  0  0  0
    1.4326    3.4710   -2.2438 H   0  0  0  0  0  0  0  0  0  0  0  0
    1.7218    5.1095   -0.9808 N   0  0  0  0  0  0  0  0  0  0  0  0
    2.5707    5.3900   -1.4496 H   0  0  0  0  0  0  0  0  0  0  0  0
    0.9391    5.6117   -1.3752 H   0  0  0  0  0  0  0  0  0  0  0  0
   -0.5564    0.0727    2.1744 C   0  0  0  0  0  0  0  0  0  0  0  0
    0.6169   -0.1288    2.4805 O   0  0  0  0  0  0  0  0  0  0  0  0
   -1.4759    0.4743    3.0595 N   0  0  0  0  0  0  0  0  0  0  0  0
   -2.4132    0.6318    2.7275 H   0  0  0  0  0  0  0  0  0  0  0  0
   -1.1971    0.7118    4.4750 C   0  0  0  0  0  0  0  0  0  0  0  0
   -0.3779    1.4272    4.5748 H   0  0  0  0  0  0  0  0  0  0  0  0
   -2.0826    1.1064    4.9754 H   0  0  0  0  0  0  0  0  0  0  0  0
   -0.8992   -0.2240    4.9525 H   0  0  0  0  0  0  0  0  0  0  0  0
  5  6  2  0  0  0  0
  5  7  1  0  0  0  0
  2  3  1  0  0  0  0
  2  4  1  0  0  0  0
  2  5  1  0  0  0  0
  1  2  1  0  0  0  0
 26 27  2  0  0  0  0
 26 28  1  0  0  0  0
 23 24  1  0  0  0  0
 23 25  1  0  0  0  0
 20 21  1  0  0  0  0
 20 22  1  0  0  0  0
 20 23  1  0  0  0  0
 17 18  1  0  0  0  0
 17 19  1  0  0  0  0
 17 20  1  0  0  0  0
 14 15  1  0  0  0  0
 14 16  1  0  0  0  0
 14 17  1  0  0  0  0
 11 12  1  0  0  0  0
 11 13  1  0  0  0  0
 11 14  1  0  0  0  0
  9 10  1  0  0  0  0
  9 11  1  0  0  0  0
  9 26  1  0  0  0  0
  7  8  1  0  0  0  0
  7  9  1  0  0  0  0
 30 31  1  0  0  0  0
 30 32  1  0  0  0  0
 30 33  1  0  0  0  0
 28 29  1  0  0  0  0
 28 30  1  0  0  0  0
M  END
$$$$
default_name
  -OEChem-02102213163D

 33 32  0     1  0  0  0  0  0999 V2000
   -3.8420   -3.6918    1.5562 H   0  0  0  0  0  0  0  0  0  0  0  0
   -3.8430   -2.7008    1.1032 C   0  0  0  0  0  0  0  0  0  0  0  0
   -4.5510   -2.0608    1.6242 H   0  0  0  0  0  0  0  0  0  0  0  0
   -4.1140   -2.7798    0.0522 H   0  0  0  0  0  0  0  0  0  0  0  0
   -2.4570   -2.1098    1.2172 C   0  0  0  0  0  0  0  0  0  0  0  0
   -1.5600   -2.7438    1.7572 O   0  0  0  0  0  0  0  0  0  0  0  0
   -2.2870   -0.8898    0.7102 N   0  0  0  0  0  0  0  0  0  0  0  0
   -3.0820   -0.4218    0.2992 H   0  0  0  0  0  0  0  0  0  0  0  0
   -1.0240   -0.1468    0.7262 C   0  0  1  0  0  0  0  0  0  0  0  0
   -0.2680   -0.7367    0.2062 H   0  0  0  0  0  0  0  0  0  0  0  0
   -1.2212    1.1806   -0.0314 C   0  0  0  0  0  0  0  0  0  0  0  0
   -1.9815    1.0315   -0.8009 H   0  0  0  0  0  0  0  0  0  0  0  0
   -1.5835    1.9404    0.6625 H   0  0  0  0  0  0  0  0  0  0  0  0
    0.0590    1.6872   -0.7140 C   0  0  0  0  0  0  0  0  0  0  0  0
    0.8752    0.9893   -0.5253 H   0  0  0  0  0  0  0  0  0  0  0  0
   -0.1111    1.7558   -1.7901 H   0  0  0  0  0  0  0  0  0  0  0  0
    0.4560    3.0672   -0.1776 C   0  0  0  0  0  0  0  0  0  0  0  0
   -0.3545    3.7754   -0.3522 H   0  0  0  0  0  0  0  0  0  0  0  0
    0.6502    2.9988    0.8932 H   0  0  0  0  0  0  0  0  0  0  0  0
    1.7154    3.5574   -0.8894 C   0  0  0  0  0  0  0  0  0  0  0  0
    2.5312    2.8613   -0.7011 H   0  0  0  0  0  0  0  0  0  0  0  0
    1.5288    3.6092   -1.9608 H   0  0  0  0  0  0  0  0  0  0  0  0
    2.1106    4.8888   -0.4156 N   0  0  0  0  0  0  0  0  0  0  0  0
    2.9514    5.1745   -0.8955 H   0  0  0  0  0  0  0  0  0  0  0  0
    1.3698    5.5454   -0.6168 H   0  0  0  0  0  0  0  0  0  0  0  0
   -0.5564    0.0727    2.1744 C   0  0  0  0  0  0  0  0  0  0  0  0
    0.6169   -0.1288    2.4805 O   0  0  0  0  0  0  0  0  0  0  0  0
   -1.4759    0.4743    3.0595 N   0  0  0  0  0  0  0  0  0  0  0  0
   -2.4132    0.6318    2.7275 H   0  0  0  0  0  0  0  0  0  0  0  0
   -1.1971    0.7118    4.4750 C   0  0  0  0  0  0  0  0  0  0  0  0
   -0.3779    1.4272    4.5748 H   0  0  0  0  0  0  0  0  0  0  0  0
   -2.0826    1.1064    4.9754 H   0  0  0  0  0  0  0  0  0  0  0  0
   -0.8992   -0.2240    4.9525 H   0  0  0  0  0  0  0  0  0  0  0  0
  5  6  2  0  0  0  0
  5  7  1  0  0  0  0
  2  3  1  0  0  0  0
  2  4  1  0  0  0  0
  2  5  1  0  0  0  0
  1  2  1  0  0  0  0
 26 27  2  0  0  0  0
 26 28  1  0  0  0  0
 23 24  1  0  0  0  0
 23 25  1  0  0  0  0
 20 21  1  0  0  0  0
 20 22  1  0  0  0  0
 20 23  1  0  0  0  0
 17 18  1  0  0  0  0
 17 19  1  0  0  0  0
 17 20  1  0  0  0  0
 14 15  1  0  0  0  0
 14 16  1  0  0  0  0
 14 17  1  0  0  0  0
 11 12  1  0  0  0  0
 11 13  1  0  0  0  0
 11 14  1  0  0  0  0
  9 10  1  0  0  0  0
  9 11  1  0  0  0  0
  9 26  1  0  0  0  0
  7  8  1  0  0  0  0
  7  9  1  0  0  0  0
 30 31  1  0  0  0  0
 30 32  1  0  0  0  0
 30 33  1  0  0  0  0
 28 29  1  0  0  0  0
 28 30  1  0  0  0  0
M  END
$$$$
default_name
  -OEChem-02102213163D

 33 32  0     1  0  0  0  0  0999 V2000
   -3.8420   -3.6918    1.5562 H   0  0  0  0  0  0  0  0  0  0  0  0
   -3.8430   -2.7008    1.1032 C   0  0  0  0  0  0  0  0  0  0  0  0
   -4.5510   -2.0608    1.6242 H   0  0  0  0  0  0  0  0  0  0  0  0
   -4.1140   -2.7798    0.0522 H   0  0  0  0  0  0  0  0  0  0  0  0
   -2.4570   -2.1098    1.2172 C   0  0  0  0  0  0  0  0  0  0  0  0
   -1.5600   -2.7438    1.7572 O   0  0  0  0  0  0  0  0  0  0  0  0
   -2.2870   -0.8898    0.7102 N   0  0  0  0  0  0  0  0  0  0  0  0
   -3.0820   -0.4218    0.2992 H   0  0  0  0  0  0  0  0  0  0  0  0
   -1.0240   -0.1468    0.7262 C   0  0  1  0  0  0  0  0  0  0  0  0
   -0.2680   -0.7367    0.2062 H   0  0  0  0  0  0  0  0  0  0  0  0
   -1.2212    1.1806   -0.0314 C   0  0  0  0  0  0  0  0  0  0  0  0
   -1.9815    1.0315   -0.8009 H   0  0  0  0  0  0  0  0  0  0  0  0
   -1.5835    1.9404    0.6625 H   0  0  0  0  0  0  0  0  0  0  0  0
    0.0590    1.6872   -0.7140 C   0  0  0  0  0  0  0  0  0  0  0  0
    0.7936    0.8827   -0.7574 H   0  0  0  0  0  0  0  0  0  0  0  0
   -0.1790    2.0090   -1.7296 H   0  0  0  0  0  0  0  0  0  0  0  0
    0.6624    2.8650    0.0595 C   0  0  0  0  0  0  0  0  0  0  0  0
   -0.0643    3.6758    0.1182 H   0  0  0  0  0  0  0  0  0  0  0  0
    0.9240    2.5420    1.0676 H   0  0  0  0  0  0  0  0  0  0  0  0
    1.9179    3.3643   -0.6529 C   0  0  0  0  0  0  0  0  0  0  0  0
    2.6524    2.5616   -0.6962 H   0  0  0  0  0  0  0  0  0  0  0  0
    1.6618    3.6706   -1.6658 H   0  0  0  0  0  0  0  0  0  0  0  0
    2.5089    4.5090    0.0497 N   0  0  0  0  0  0  0  0  0  0  0  0
    3.3416    4.8031   -0.4393 H   0  0  0  0  0  0  0  0  0  0  0  0
    1.8429    5.2683    0.0648 H   0  0  0  0  0  0  0  0  0  0  0  0
   -0.5564    0.0727    2.1744 C   0  0  0  0  0  0  0  0  0  0  0  0
    0.6169   -0.1288    2.4805 O   0  0  0  0  0  0  0  0  0  0  0  0
   -1.4759    0.4743    3.0595 N   0  0  0  0  0  0  0  0  0  0  0  0
   -2.4132    0.6318    2.7275 H   0  0  0  0  0  0  0  0  0  0  0  0
   -1.1971    0.7118    4.4750 C   0  0  0  0  0  0  0  0  0  0  0  0
   -0.3779    1.4272    4.5748 H   0  0  0  0  0  0  0  0  0  0  0  0
   -2.0826    1.1064    4.9754 H   0  0  0  0  0  0  0  0  0  0  0  0
   -0.8992   -0.2240    4.9525 H   0  0  0  0  0  0  0  0  0  0  0  0
  5  6  2  0  0  0  0
  5  7  1  0  0  0  0
  2  3  1  0  0  0  0
  2  4  1  0  0  0  0
  2  5  1  0  0  0  0
  1  2  1  0  0  0  0
 26 27  2  0  0  0  0
 26 28  1  0  0  0  0
 23 24  1  0  0  0  0
 23 25  1  0  0  0  0
 20 21  1  0  0  0  0
 20 22  1  0  0  0  0
 20 23  1  0  0  0  0
 17 18  1  0  0  0  0
 17 19  1  0  0  0  0
 17 20  1  0  0  0  0
 14 15  1  0  0  0  0
 14 16  1  0  0  0  0
 14 17  1  0  0  0  0
 11 12  1  0  0  0  0
 11 13  1  0  0  0  0
 11 14  1  0  0  0  0
  9 10  1  0  0  0  0
  9 11  1  0  0  0  0
  9 26  1  0  0  0  0
  7  8  1  0  0  0  0
  7  9  1  0  0  0  0
 30 31  1  0  0  0  0
 30 32  1  0  0  0  0
 30 33  1  0  0  0  0
 28 29  1  0  0  0  0
 28 30  1  0  0  0  0
M  END
$$$$
default_name
  -OEChem-02102213163D

 33 32  0     1  0  0  0  0  0999 V2000
   -3.8420   -3.6918    1.5562 H   0  0  0  0  0  0  0  0  0  0  0  0
   -3.8430   -2.7008    1.1032 C   0  0  0  0  0  0  0  0  0  0  0  0
   -4.5510   -2.0608    1.6242 H   0  0  0  0  0  0  0  0  0  0  0  0
   -4.1140   -2.7798    0.0522 H   0  0  0  0  0  0  0  0  0  0  0  0
   -2.4570   -2.1098    1.2172 C   0  0  0  0  0  0  0  0  0  0  0  0
   -1.5600   -2.7438    1.7572 O   0  0  0  0  0  0  0  0  0  0  0  0
   -2.2870   -0.8898    0.7102 N   0  0  0  0  0  0  0  0  0  0  0  0
   -3.0820   -0.4218    0.2992 H   0  0  0  0  0  0  0  0  0  0  0  0
   -1.0240   -0.1468    0.7262 C   0  0  1  0  0  0  0  0  0  0  0  0
   -0.2680   -0.7367    0.2062 H   0  0  0  0  0  0  0  0  0  0  0  0
   -1.2212    1.1806   -0.0314 C   0  0  0  0  0  0  0  0  0  0  0  0
   -1.9815    1.0315   -0.8009 H   0  0  0  0  0  0  0  0  0  0  0  0
   -1.5835    1.9404    0.6625 H   0  0  0  0  0  0  0  0  0  0  0  0
    0.0590    1.6872   -0.7140 C   0  0  0  0  0  0  0  0  0  0  0  0
    0.6828    0.8391   -0.9976 H   0  0  0  0  0  0  0  0  0  0  0  0
   -0.2103    2.2484   -1.6107 H   0  0  0  0  0  0  0  0  0  0  0  0
    0.8588    2.5948    0.2273 C   0  0  0  0  0  0  0  0  0  0  0  0
    0.2447    3.4448    0.5264 H   0  0  0  0  0  0  0  0  0  0  0  0
    1.1508    2.0316    1.1142 H   0  0  0  0  0  0  0  0  0  0  0  0
    2.1115    3.1035   -0.4834 C   0  0  0  0  0  0  0  0  0  0  0  0
    2.7353    2.2573   -0.7665 H   0  0  0  0  0  0  0  0  0  0  0  0
    1.8225    3.6511   -1.3790 H   0  0  0  0  0  0  0  0  0  0  0  0
    2.8898    3.9961    0.3832 N   0  0  0  0  0  0  0  0  0  0  0  0
    3.7148    4.3012   -0.1120 H   0  0  0  0  0  0  0  0  0  0  0  0
    2.3262    4.7993    0.6231 H   0  0  0  0  0  0  0  0  0  0  0  0
   -0.5564    0.0727    2.1744 C   0  0  0  0  0  0  0  0  0  0  0  0
    0.6169   -0.1288    2.4805 O   0  0  0  0  0  0  0  0  0  0  0  0
   -1.4759    0.4743    3.0595 N   0  0  0  0  0  0  0  0  0  0  0  0
   -2.4132    0.6318    2.7275 H   0  0  0  0  0  0  0  0  0  0  0  0
   -1.1971    0.7118    4.4750 C   0  0  0  0  0  0  0  0  0  0  0  0
   -0.3779    1.4272    4.5748 H   0  0  0  0  0  0  0  0  0  0  0  0
   -2.0826    1.1064    4.9754 H   0  0  0  0  0  0  0  0  0  0  0  0
   -0.8992   -0.2240    4.9525 H   0  0  0  0  0  0  0  0  0  0  0  0
  5  6  2  0  0  0  0
  5  7  1  0  0  0  0
  2  3  1  0  0  0  0
  2  4  1  0  0  0  0
  2  5  1  0  0  0  0
  1  2  1  0  0  0  0
 26 27  2  0  0  0  0
 26 28  1  0  0  0  0
 23 24  1  0  0  0  0
 23 25  1  0  0  0  0
 20 21  1  0  0  0  0
 20 22  1  0  0  0  0
 20 23  1  0  0  0  0
 17 18  1  0  0  0  0
 17 19  1  0  0  0  0
 17 20  1  0  0  0  0
 14 15  1  0  0  0  0
 14 16  1  0  0  0  0
 14 17  1  0  0  0  0
 11 12  1  0  0  0  0
 11 13  1  0  0  0  0
 11 14  1  0  0  0  0
  9 10  1  0  0  0  0
  9 11  1  0  0  0  0
  9 26  1  0  0  0  0
  7  8  1  0  0  0  0
  7  9  1  0  0  0  0
 30 31  1  0  0  0  0
 30 32  1  0  0  0  0
 30 33  1  0  0  0  0
 28 29  1  0  0  0  0
 28 30  1  0  0  0  0
M  END
$$$$
default_name
  -OEChem-02102213163D

 33 32  0     1  0  0  0  0  0999 V2000
   -3.8420   -3.6918    1.5562 H   0  0  0  0  0  0  0  0  0  0  0  0
   -3.8430   -2.7008    1.1032 C   0  0  0  0  0  0  0  0  0  0  0  0
   -4.5510   -2.0608    1.6242 H   0  0  0  0  0  0  0  0  0  0  0  0
   -4.1140   -2.7798    0.0522 H   0  0  0  0  0  0  0  0  0  0  0  0
   -2.4570   -2.1098    1.2172 C   0  0  0  0  0  0  0  0  0  0  0  0
   -1.5600   -2.7438    1.7572 O   0  0  0  0  0  0  0  0  0  0  0  0
   -2.2870   -0.8898    0.7102 N   0  0  0  0  0  0  0  0  0  0  0  0
   -3.0820   -0.4218    0.2992 H   0  0  0  0  0  0  0  0  0  0  0  0
   -1.0240   -0.1468    0.7262 C   0  0  1  0  0  0  0  0  0  0  0  0
   -0.2680   -0.7367    0.2062 H   0  0  0  0  0  0  0  0  0  0  0  0
   -1.2212    1.1806   -0.0314 C   0  0  0  0  0  0  0  0  0  0  0  0
   -1.9815    1.0315   -0.8009 H   0  0  0  0  0  0  0  0  0  0  0  0
   -1.5835    1.9404    0.6625 H   0  0  0  0  0  0  0  0  0  0  0  0
    0.0590    1.6872   -0.7140 C   0  0  0  0  0  0  0  0  0  0  0  0
    0.5502    0.8615   -1.2296 H   0  0  0  0  0  0  0  0  0  0  0  0
   -0.2030    2.4576   -1.4416 H   0  0  0  0  0  0  0  0  0  0  0  0
    1.0318    2.2751    0.3144 C   0  0  0  0  0  0  0  0  0  0  0  0
    0.5515    3.0982    0.8444 H   0  0  0  0  0  0  0  0  0  0  0  0
    1.3152    1.5025    1.0298 H   0  0  0  0  0  0  0  0  0  0  0  0
    2.2830    2.7929   -0.3924 C   0  0  0  0  0  0  0  0  0  0  0  0
    2.7745    1.9689   -0.9071 H   0  0  0  0  0  0  0  0  0  0  0  0
    1.9999    3.5518   -1.1199 H   0  0  0  0  0  0  0  0  0  0  0  0
    3.2271    3.3849    0.5623 N   0  0  0  0  0  0  0  0  0  0  0  0
    4.0454    3.7029    0.0641 H   0  0  0  0  0  0  0  0  0  0  0  0
    2.7867    4.1704    1.0200 H   0  0  0  0  0  0  0  0  0  0  0  0
   -0.5564    0.0727    2.1744 C   0  0  0  0  0  0  0  0  0  0  0  0
    0.6169   -0.1288    2.4805 O   0  0  0  0  0  0  0  0  0  0  0  0
   -1.4759    0.4743    3.0595 N   0  0  0  0  0  0  0  0  0  0  0  0
   -2.4132    0.6318    2.7275 H   0  0  0  0  0  0  0  0  0  0  0  0
   -1.1971    0.7118    4.4750 C   0  0  0  0  0  0  0  0  0  0  0  0
   -0.3779    1.4272    4.5748 H   0  0  0  0  0  0  0  0  0  0  0  0
   -2.0826    1.1064    4.9754 H   0  0  0  0  0  0  0  0  0  0  0  0
   -0.8992   -0.2240    4.9525 H   0  0  0  0  0  0  0  0  0  0  0  0
  5  6  2  0  0  0  0
  5  7  1  0  0  0  0
  2  3  1  0  0  0  0
  2  4  1  0  0  0  0
  2  5  1  0  0  0  0
  1  2  1  0  0  0  0
 26 27  2  0  0  0  0
 26 28  1  0  0  0  0
 23 24  1  0  0  0  0
 23 25  1  0  0  0  0
 20 21  1  0  0  0  0
 20 22  1  0  0  0  0
 20 23  1  0  0  0  0
 17 18  1  0  0  0  0
 17 19  1  0  0  0  0
 17 20  1  0  0  0  0
 14 15  1  0  0  0  0
 14 16  1  0  0  0  0
 14 17  1  0  0  0  0
 11 12  1  0  0  0  0
 11 13  1  0  0  0  0
 11 14  1  0  0  0  0
  9 10  1  0  0  0  0
  9 11  1  0  0  0  0
  9 26  1  0  0  0  0
  7  8  1  0  0  0  0
  7  9  1  0  0  0  0
 30 31  1  0  0  0  0
 30 32  1  0  0  0  0
 30 33  1  0  0  0  0
 28 29  1  0  0  0  0
 28 30  1  0  0  0  0
M  END
$$$$
default_name
  -OEChem-02102213163D

 33 32  0     1  0  0  0  0  0999 V2000
   -3.8420   -3.6918    1.5562 H   0  0  0  0  0  0  0  0  0  0  0  0
   -3.8430   -2.7008    1.1032 C   0  0  0  0  0  0  0  0  0  0  0  0
   -4.5510   -2.0608    1.6242 H   0  0  0  0  0  0  0  0  0  0  0  0
   -4.1140   -2.7798    0.0522 H   0  0  0  0  0  0  0  0  0  0  0  0
   -2.4570   -2.1098    1.2172 C   0  0  0  0  0  0  0  0  0  0  0  0
   -1.5600   -2.7438    1.7572 O   0  0  0  0  0  0  0  0  0  0  0  0
   -2.2870   -0.8898    0.7102 N   0  0  0  0  0  0  0  0  0  0  0  0
   -3.0820   -0.4218    0.2992 H   0  0  0  0  0  0  0  0  0  0  0  0
   -1.0240   -0.1468    0.7262 C   0  0  1  0  0  0  0  0  0  0  0  0
   -0.2680   -0.7367    0.2062 H   0  0  0  0  0  0  0  0  0  0  0  0
   -1.2212    1.1806   -0.0314 C   0  0  0  0  0  0  0  0  0  0  0  0
   -1.9815    1.0315   -0.8009 H   0  0  0  0  0  0  0  0  0  0  0  0
   -1.5835    1.9404    0.6625 H   0  0  0  0  0  0  0  0  0  0  0  0
    0.0590    1.6872   -0.7140 C   0  0  0  0  0  0  0  0  0  0  0  0
    0.4049    0.9484   -1.4375 H   0  0  0  0  0  0  0  0  0  0  0  0
   -0.1573    2.6224   -1.2338 H   0  0  0  0  0  0  0  0  0  0  0  0
    1.1695    1.9276    0.3149 C   0  0  0  0  0  0  0  0  0  0  0  0
    0.8351    2.6595    1.0508 H   0  0  0  0  0  0  0  0  0  0  0  0
    1.4059    0.9908    0.8202 H   0  0  0  0  0  0  0  0  0  0  0  0
    2.4206    2.4534   -0.3861 C   0  0  0  0  0  0  0  0  0  0  0  0
    2.7672    1.7161   -1.1084 H   0  0  0  0  0  0  0  0  0  0  0  0
    2.1820    3.3797   -0.9061 H   0  0  0  0  0  0  0  0  0  0  0  0
    3.4979    2.7172    0.5747 N   0  0  0  0  0  0  0  0  0  0  0  0
    4.3110    3.0490    0.0770 H   0  0  0  0  0  0  0  0  0  0  0  0
    3.1931    3.4243    1.2284 H   0  0  0  0  0  0  0  0  0  0  0  0
   -0.5564    0.0727    2.1744 C   0  0  0  0  0  0  0  0  0  0  0  0
    0.6169   -0.1288    2.4805 O   0  0  0  0  0  0  0  0  0  0  0  0
   -1.4759    0.4743    3.0595 N   0  0  0  0  0  0  0  0  0  0  0  0
   -2.4132    0.6318    2.7275 H   0  0  0  0  0  0  0  0  0  0  0  0
   -1.1971    0.7118    4.4750 C   0  0  0  0  0  0  0  0  0  0  0  0
   -0.3779    1.4272    4.5748 H   0  0  0  0  0  0  0  0  0  0  0  0
   -2.0826    1.1064    4.9754 H   0  0  0  0  0  0  0  0  0  0  0  0
   -0.8992   -0.2240    4.9525 H   0  0  0  0  0  0  0  0  0  0  0  0
  5  6  2  0  0  0  0
  5  7  1  0  0  0  0
  2  3  1  0  0  0  0
  2  4  1  0  0  0  0
  2  5  1  0  0  0  0
  1  2  1  0  0  0  0
 26 27  2  0  0  0  0
 26 28  1  0  0  0  0
 23 24  1  0  0  0  0
 23 25  1  0  0  0  0
 20 21  1  0  0  0  0
 20 22  1  0  0  0  0
 20 23  1  0  0  0  0
 17 18  1  0  0  0  0
 17 19  1  0  0  0  0
 17 20  1  0  0  0  0
 14 15  1  0  0  0  0
 14 16  1  0  0  0  0
 14 17  1  0  0  0  0
 11 12  1  0  0  0  0
 11 13  1  0  0  0  0
 11 14  1  0  0  0  0
  9 10  1  0  0  0  0
  9 11  1  0  0  0  0
  9 26  1  0  0  0  0
  7  8  1  0  0  0  0
  7  9  1  0  0  0  0
 30 31  1  0  0  0  0
 30 32  1  0  0  0  0
 30 33  1  0  0  0  0
 28 29  1  0  0  0  0
 28 30  1  0  0  0  0
M  END
$$$$
default_name
  -OEChem-02102213163D

 33 32  0     1  0  0  0  0  0999 V2000
   -3.8420   -3.6918    1.5562 H   0  0  0  0  0  0  0  0  0  0  0  0
   -3.8430   -2.7008    1.1032 C   0  0  0  0  0  0  0  0  0  0  0  0
   -4.5510   -2.0608    1.6242 H   0  0  0  0  0  0  0  0  0  0  0  0
   -4.1140   -2.7798    0.0522 H   0  0  0  0  0  0  0  0  0  0  0  0
   -2.4570   -2.1098    1.2172 C   0  0  0  0  0  0  0  0  0  0  0  0
   -1.5600   -2.7438    1.7572 O   0  0  0  0  0  0  0  0  0  0  0  0
   -2.2870   -0.8898    0.7102 N   0  0  0  0  0  0  0  0  0  0  0  0
   -3.0820   -0.4218    0.2992 H   0  0  0  0  0  0  0  0  0  0  0  0
   -1.0240   -0.1468    0.7262 C   0  0  1  0  0  0  0  0  0  0  0  0
   -0.2680   -0.7367    0.2062 H   0  0  0  0  0  0  0  0  0  0  0  0
   -1.2212    1.1806   -0.0314 C   0  0  0  0  0  0  0  0  0  0  0  0
   -1.9815    1.0315   -0.8009 H   0  0  0  0  0  0  0  0  0  0  0  0
   -1.5835    1.9404    0.6625 H   0  0  0  0  0  0  0  0  0  0  0  0
    0.0590    1.6872   -0.7140 C   0  0  0  0  0  0  0  0  0  0  0  0
    0.2569    1.0939   -1.6072 H   0  0  0  0  0  0  0  0  0  0  0  0
   -0.0766    2.7315   -1.0014 H   0  0  0  0  0  0  0  0  0  0  0  0
    1.2626    1.5760    0.2286 C   0  0  0  0  0  0  0  0  0  0  0  0
    1.0762    2.1587    1.1313 H   0  0  0  0  0  0  0  0  0  0  0  0
    1.4168    0.5312    0.4997 H   0  0  0  0  0  0  0  0  0  0  0  0
    2.5151    2.1084   -0.4650 C   0  0  0  0  0  0  0  0  0  0  0  0
    2.7138    1.5162   -1.3568 H   0  0  0  0  0  0  0  0  0  0  0  0
    2.3564    3.1465   -0.7523 H   0  0  0  0  0  0  0  0  0  0  0  0
    3.6838    2.0384    0.4196 N   0  0  0  0  0  0  0  0  0  0  0  0
    4.4935    2.3840   -0.0743 H   0  0  0  0  0  0  0  0  0  0  0  0
    3.5176    2.6120    1.2343 H   0  0  0  0  0  0  0  0  0  0  0  0
   -0.5564    0.0727    2.1744 C   0  0  0  0  0  0  0  0  0  0  0  0
    0.6169   -0.1288    2.4805 O   0  0  0  0  0  0  0  0  0  0  0  0
   -1.4759    0.4743    3.0595 N   0  0  0  0  0  0  0  0  0  0  0  0
   -2.4132    0.6318    2.7275 H   0  0  0  0  0  0  0  0  0  0  0  0
   -1.1971    0.7118    4.4750 C   0  0  0  0  0  0  0  0  0  0  0  0
   -0.3779    1.4272    4.5748 H   0  0  0  0  0  0  0  0  0  0  0  0
   -2.0826    1.1064    4.9754 H   0  0  0  0  0  0  0  0  0  0  0  0
   -0.8992   -0.2240    4.9525 H   0  0  0  0  0  0  0  0  0  0  0  0
  5  6  2  0  0  0  0
  5  7  1  0  0  0  0
  2  3  1  0  0  0  0
  2  4  1  0  0  0  0
  2  5  1  0  0  0  0
  1  2  1  0  0  0  0
 26 27  2  0  0  0  0
 26 28  1  0  0  0  0
 23 24  1  0  0  0  0
 23 25  1  0  0  0  0
 20 21  1  0  0  0  0
 20 22  1  0  0  0  0
 20 23  1  0  0  0  0
 17 18  1  0  0  0  0
 17 19  1  0  0  0  0
 17 20  1  0  0  0  0
 14 15  1  0  0  0  0
 14 16  1  0  0  0  0
 14 17  1  0  0  0  0
 11 12  1  0  0  0  0
 11 13  1  0  0  0  0
 11 14  1  0  0  0  0
  9 10  1  0  0  0  0
  9 11  1  0  0  0  0
  9 26  1  0  0  0  0
  7  8  1  0  0  0  0
  7  9  1  0  0  0  0
 30 31  1  0  0  0  0
 30 32  1  0  0  0  0
 30 33  1  0  0  0  0
 28 29  1  0  0  0  0
 28 30  1  0  0  0  0
M  END
$$$$
default_name
  -OEChem-02102213163D

 33 32  0     1  0  0  0  0  0999 V2000
   -3.8420   -3.6918    1.5562 H   0  0  0  0  0  0  0  0  0  0  0  0
   -3.8430   -2.7008    1.1032 C   0  0  0  0  0  0  0  0  0  0  0  0
   -4.5510   -2.0608    1.6242 H   0  0  0  0  0  0  0  0  0  0  0  0
   -4.1140   -2.7798    0.0522 H   0  0  0  0  0  0  0  0  0  0  0  0
   -2.4570   -2.1098    1.2172 C   0  0  0  0  0  0  0  0  0  0  0  0
   -1.5600   -2.7438    1.7572 O   0  0  0  0  0  0  0  0  0  0  0  0
   -2.2870   -0.8898    0.7102 N   0  0  0  0  0  0  0  0  0  0  0  0
   -3.0820   -0.4218    0.2992 H   0  0  0  0  0  0  0  0  0  0  0  0
   -1.0240   -0.1468    0.7262 C   0  0  1  0  0  0  0  0  0  0  0  0
   -0.2680   -0.7367    0.2062 H   0  0  0  0  0  0  0  0  0  0  0  0
   -1.2212    1.1806   -0.0314 C   0  0  0  0  0  0  0  0  0  0  0  0
   -1.9815    1.0315   -0.8009 H   0  0  0  0  0  0  0  0  0  0  0  0
   -1.5835    1.9404    0.6625 H   0  0  0  0  0  0  0  0  0  0  0  0
    0.0590    1.6872   -0.7140 C   0  0  0  0  0  0  0  0  0  0  0  0
    0.1161    1.2880   -1.7271 H   0  0  0  0  0  0  0  0  0  0  0  0
    0.0337    2.7775   -0.7603 H   0  0  0  0  0  0  0  0  0  0  0  0
    1.3048    1.2443    0.0615 C   0  0  0  0  0  0  0  0  0  0  0  0
    1.2584    1.6298    1.0805 H   0  0  0  0  0  0  0  0  0  0  0  0
    1.3472    0.1551    0.0900 H   0  0  0  0  0  0  0  0  0  0  0  0
    2.5600    1.7812   -0.6236 C   0  0  0  0  0  0  0  0  0  0  0  0
    2.6182    1.3828   -1.6352 H   0  0  0  0  0  0  0  0  0  0  0  0
    2.5111    2.8679   -0.6688 H   0  0  0  0  0  0  0  0  0  0  0  0
    3.7721    1.3948    0.1076 N   0  0  0  0  0  0  0  0  0  0  0  0
    4.5804    1.7534   -0.3793 H   0  0  0  0  0  0  0  0  0  0  0  0
    3.7382    1.7889    1.0371 H   0  0  0  0  0  0  0  0  0  0  0  0
   -0.5564    0.0727    2.1744 C   0  0  0  0  0  0  0  0  0  0  0  0
    0.6169   -0.1288    2.4805 O   0  0  0  0  0  0  0  0  0  0  0  0
   -1.4759    0.4743    3.0595 N   0  0  0  0  0  0  0  0  0  0  0  0
   -2.4132    0.6318    2.7275 H   0  0  0  0  0  0  0  0  0  0  0  0
   -1.1971    0.7118    4.4750 C   0  0  0  0  0  0  0  0  0  0  0  0
   -0.3779    1.4272    4.5748 H   0  0  0  0  0  0  0  0  0  0  0  0
   -2.0826    1.1064    4.9754 H   0  0  0  0  0  0  0  0  0  0  0  0
   -0.8992   -0.2240    4.9525 H   0  0  0  0  0  0  0  0  0  0  0  0
  5  6  2  0  0  0  0
  5  7  1  0  0  0  0
  2  3  1  0  0  0  0
  2  4  1  0  0  0  0
  2  5  1  0  0  0  0
  1  2  1  0  0  0  0
 26 27  2  0  0  0  0
 26 28  1  0  0  0  0
 23 24  1  0  0  0  0
 23 25  1  0  0  0  0
 20 21  1  0  0  0  0
 20 22  1  0  0  0  0
 20 23  1  0  0  0  0
 17 18  1  0  0  0  0
 17 19  1  0  0  0  0
 17 20  1  0  0  0  0
 14 15  1  0  0  0  0
 14 16  1  0  0  0  0
 14 17  1  0  0  0  0
 11 12  1  0  0  0  0
 11 13  1  0  0  0  0
 11 14  1  0  0  0  0
  9 10  1  0  0  0  0
  9 11  1  0  0  0  0
  9 26  1  0  0  0  0
  7  8  1  0  0  0  0
  7  9  1  0  0  0  0
 30 31  1  0  0  0  0
 30 32  1  0  0  0  0
 30 33  1  0  0  0  0
 28 29  1  0  0  0  0
 28 30  1  0  0  0  0
M  END
$$$$
default_name
  -OEChem-02102213163D

 33 32  0     1  0  0  0  0  0999 V2000
   -3.8420   -3.6918    1.5562 H   0  0  0  0  0  0  0  0  0  0  0  0
   -3.8430   -2.7008    1.1032 C   0  0  0  0  0  0  0  0  0  0  0  0
   -4.5510   -2.0608    1.6242 H   0  0  0  0  0  0  0  0  0  0  0  0
   -4.1140   -2.7798    0.0522 H   0  0  0  0  0  0  0  0  0  0  0  0
   -2.4570   -2.1098    1.2172 C   0  0  0  0  0  0  0  0  0  0  0  0
   -1.5600   -2.7438    1.7572 O   0  0  0  0  0  0  0  0  0  0  0  0
   -2.2870   -0.8898    0.7102 N   0  0  0  0  0  0  0  0  0  0  0  0
   -3.0820   -0.4218    0.2992 H   0  0  0  0  0  0  0  0  0  0  0  0
   -1.0240   -0.1468    0.7262 C   0  0  1  0  0  0  0  0  0  0  0  0
   -0.2680   -0.7367    0.2062 H   0  0  0  0  0  0  0  0  0  0  0  0
   -1.2212    1.1806   -0.0314 C   0  0  0  0  0  0  0  0  0  0  0  0
   -1.9815    1.0315   -0.8009 H   0  0  0  0  0  0  0  0  0  0  0  0
   -1.5835    1.9404    0.6625 H   0  0  0  0  0  0  0  0  0  0  0  0
    0.0590    1.6872   -0.7140 C   0  0  0  0  0  0  0  0  0  0  0  0
   -0.0078    1.5176   -1.7890 H   0  0  0  0  0  0  0  0  0  0  0  0
    0.1662    2.7572   -0.5270 H   0  0  0  0  0  0  0  0  0  0  0  0
    1.2931    0.9551   -0.1750 C   0  0  0  0  0  0  0  0  0  0  0  0
    1.3693    1.1090    0.9019 H   0  0  0  0  0  0  0  0  0  0  0  0
    1.2018   -0.1118   -0.3808 H   0  0  0  0  0  0  0  0  0  0  0  0
    2.5522    1.4943   -0.8512 C   0  0  0  0  0  0  0  0  0  0  0  0
    2.4866    1.3249   -1.9247 H   0  0  0  0  0  0  0  0  0  0  0  0
    2.6356    2.5631   -0.6615 H   0  0  0  0  0  0  0  0  0  0  0  0
    3.7568    0.8302   -0.3401 N   0  0  0  0  0  0  0  0  0  0  0  0
    4.5659    1.2000   -0.8173 H   0  0  0  0  0  0  0  0  0  0  0  0
    3.8398    1.0109    0.6503 H   0  0  0  0  0  0  0  0  0  0  0  0
   -0.5564    0.0727    2.1744 C   0  0  0  0  0  0  0  0  0  0  0  0
    0.6169   -0.1288    2.4805 O   0  0  0  0  0  0  0  0  0  0  0  0
   -1.4759    0.4743    3.0595 N   0  0  0  0  0  0  0  0  0  0  0  0
   -2.4132    0.6318    2.7275 H   0  0  0  0  0  0  0  0  0  0  0  0
   -1.1971    0.7118    4.4750 C   0  0  0  0  0  0  0  0  0  0  0  0
   -0.3779    1.4272    4.5748 H   0  0  0  0  0  0  0  0  0  0  0  0
   -2.0826    1.1064    4.9754 H   0  0  0  0  0  0  0  0  0  0  0  0
   -0.8992   -0.2240    4.9525 H   0  0  0  0  0  0  0  0  0  0  0  0
  5  6  2  0  0  0  0
  5  7  1  0  0  0  0
  2  3  1  0  0  0  0
  2  4  1  0  0  0  0
  2  5  1  0  0  0  0
  1  2  1  0  0  0  0
 26 27  2  0  0  0  0
 26 28  1  0  0  0  0
 23 24  1  0  0  0  0
 23 25  1  0  0  0  0
 20 21  1  0  0  0  0
 20 22  1  0  0  0  0
 20 23  1  0  0  0  0
 17 18  1  0  0  0  0
 17 19  1  0  0  0  0
 17 20  1  0  0  0  0
 14 15  1  0  0  0  0
 14 16  1  0  0  0  0
 14 17  1  0  0  0  0
 11 12  1  0  0  0  0
 11 13  1  0  0  0  0
 11 14  1  0  0  0  0
  9 10  1  0  0  0  0
  9 11  1  0  0  0  0
  9 26  1  0  0  0  0
  7  8  1  0  0  0  0
  7  9  1  0  0  0  0
 30 31  1  0  0  0  0
 30 32  1  0  0  0  0
 30 33  1  0  0  0  0
 28 29  1  0  0  0  0
 28 30  1  0  0  0  0
M  END
$$$$
default_name
  -OEChem-02102213163D

 33 32  0     1  0  0  0  0  0999 V2000
   -3.8420   -3.6918    1.5562 H   0  0  0  0  0  0  0  0  0  0  0  0
   -3.8430   -2.7008    1.1032 C   0  0  0  0  0  0  0  0  0  0  0  0
   -4.5510   -2.0608    1.6242 H   0  0  0  0  0  0  0  0  0  0  0  0
   -4.1140   -2.7798    0.0522 H   0  0  0  0  0  0  0  0  0  0  0  0
   -2.4570   -2.1098    1.2172 C   0  0  0  0  0  0  0  0  0  0  0  0
   -1.5600   -2.7438    1.7572 O   0  0  0  0  0  0  0  0  0  0  0  0
   -2.2870   -0.8898    0.7102 N   0  0  0  0  0  0  0  0  0  0  0  0
   -3.0820   -0.4218    0.2992 H   0  0  0  0  0  0  0  0  0  0  0  0
   -1.0240   -0.1468    0.7262 C   0  0  1  0  0  0  0  0  0  0  0  0
   -0.2680   -0.7367    0.2062 H   0  0  0  0  0  0  0  0  0  0  0  0
   -1.2212    1.1806   -0.0314 C   0  0  0  0  0  0  0  0  0  0  0  0
   -1.9815    1.0315   -0.8009 H   0  0  0  0  0  0  0  0  0  0  0  0
   -1.5835    1.9404    0.6625 H   0  0  0  0  0  0  0  0  0  0  0  0
    0.0590    1.6872   -0.7140 C   0  0  0  0  0  0  0  0  0  0  0  0
   -0.1063    1.7670   -1.7888 H   0  0  0  0  0  0  0  0  0  0  0  0
    0.3117    2.6721   -0.3172 H   0  0  0  0  0  0  0  0  0  0  0  0
    1.2284    0.7281   -0.4648 C   0  0  0  0  0  0  0  0  0  0  0  0
    1.4012    0.6317    0.6076 H   0  0  0  0  0  0  0  0  0  0  0  0
    0.9904   -0.2513   -0.8807 H   0  0  0  0  0  0  0  0  0  0  0  0
    2.4922    1.2671   -1.1322 C   0  0  0  0  0  0  0  0  0  0  0  0
    2.3283    1.3466   -2.2057 H   0  0  0  0  0  0  0  0  0  0  0  0
    2.7214    2.2528   -0.7308 H   0  0  0  0  0  0  0  0  0  0  0  0
    3.6389    0.3832   -0.8929 N   0  0  0  0  0  0  0  0  0  0  0  0
    4.4508    0.7615   -1.3584 H   0  0  0  0  0  0  0  0  0  0  0  0
    3.8155    0.3311    0.1003 H   0  0  0  0  0  0  0  0  0  0  0  0
   -0.5564    0.0727    2.1744 C   0  0  0  0  0  0  0  0  0  0  0  0
    0.6169   -0.1288    2.4805 O   0  0  0  0  0  0  0  0  0  0  0  0
   -1.4759    0.4743    3.0595 N   0  0  0  0  0  0  0  0  0  0  0  0
   -2.4132    0.6318    2.7275 H   0  0  0  0  0  0  0  0  0  0  0  0
   -1.1971    0.7118    4.4750 C   0  0  0  0  0  0  0  0  0  0  0  0
   -0.3779    1.4272    4.5748 H   0  0  0  0  0  0  0  0  0  0  0  0
   -2.0826    1.1064    4.9754 H   0  0  0  0  0  0  0  0  0  0  0  0
   -0.8992   -0.2240    4.9525 H   0  0  0  0  0  0  0  0  0  0  0  0
  5  6  2  0  0  0  0
  5  7  1  0  0  0  0
  2  3  1  0  0  0  0
  2  4  1  0  0  0  0
  2  5  1  0  0  0  0
  1  2  1  0  0  0  0
 26 27  2  0  0  0  0
 26 28  1  0  0  0  0
 23 24  1  0  0  0  0
 23 25  1  0  0  0  0
 20 21  1  0  0  0  0
 20 22  1  0  0  0  0
 20 23  1  0  0  0  0
 17 18  1  0  0  0  0
 17 19  1  0  0  0  0
 17 20  1  0  0  0  0
 14 15  1  0  0  0  0
 14 16  1  0  0  0  0
 14 17  1  0  0  0  0
 11 12  1  0  0  0  0
 11 13  1  0  0  0  0
 11 14  1  0  0  0  0
  9 10  1  0  0  0  0
  9 11  1  0  0  0  0
  9 26  1  0  0  0  0
  7  8  1  0  0  0  0
  7  9  1  0  0  0  0
 30 31  1  0  0  0  0
 30 32  1  0  0  0  0
 30 33  1  0  0  0  0
 28 29  1  0  0  0  0
 28 30  1  0  0  0  0
M  END
$$$$
default_name
  -OEChem-02102213163D

 33 32  0     1  0  0  0  0  0999 V2000
   -3.8420   -3.6918    1.5562 H   0  0  0  0  0  0  0  0  0  0  0  0
   -3.8430   -2.7008    1.1032 C   0  0  0  0  0  0  0  0  0  0  0  0
   -4.5510   -2.0608    1.6242 H   0  0  0  0  0  0  0  0  0  0  0  0
   -4.1140   -2.7798    0.0522 H   0  0  0  0  0  0  0  0  0  0  0  0
   -2.4570   -2.1098    1.2172 C   0  0  0  0  0  0  0  0  0  0  0  0
   -1.5600   -2.7438    1.7572 O   0  0  0  0  0  0  0  0  0  0  0  0
   -2.2870   -0.8898    0.7102 N   0  0  0  0  0  0  0  0  0  0  0  0
   -3.0820   -0.4218    0.2992 H   0  0  0  0  0  0  0  0  0  0  0  0
   -1.0240   -0.1468    0.7262 C   0  0  1  0  0  0  0  0  0  0  0  0
   -0.2680   -0.7367    0.2062 H   0  0  0  0  0  0  0  0  0  0  0  0
   -1.2212    1.1806   -0.0314 C   0  0  0  0  0  0  0  0  0  0  0  0
   -1.9815    1.0315   -0.8009 H   0  0  0  0  0  0  0  0  0  0  0  0
   -1.5835    1.9404    0.6625 H   0  0  0  0  0  0  0  0  0  0  0  0
    0.0590    1.6872   -0.7140 C   0  0  0  0  0  0  0  0  0  0  0  0
   -0.1728    2.0191   -1.7264 H   0  0  0  0  0  0  0  0  0  0  0  0
    0.4604    2.5280   -0.1454 H   0  0  0  0  0  0  0  0  0  0  0  0
    1.1151    0.5787   -0.7881 C   0  0  0  0  0  0  0  0  0  0  0  0
    1.3521    0.2305    0.2177 H   0  0  0  0  0  0  0  0  0  0  0  0
    0.7276   -0.2541   -1.3757 H   0  0  0  0  0  0  0  0  0  0  0  0
    2.3842    1.1151   -1.4476 C   0  0  0  0  0  0  0  0  0  0  0  0
    2.1538    1.4464   -2.4588 H   0  0  0  0  0  0  0  0  0  0  0  0
    2.7628    1.9581   -0.8719 H   0  0  0  0  0  0  0  0  0  0  0  0
    3.4264    0.0842   -1.5133 N   0  0  0  0  0  0  0  0  0  0  0  0
    4.2431    0.4680   -1.9659 H   0  0  0  0  0  0  0  0  0  0  0  0
    3.6669   -0.2041   -0.5755 H   0  0  0  0  0  0  0  0  0  0  0  0
   -0.5564    0.0727    2.1744 C   0  0  0  0  0  0  0  0  0  0  0  0
    0.6169   -0.1288    2.4805 O   0  0  0  0  0  0  0  0  0  0  0  0
   -1.4759    0.4743    3.0595 N   0  0  0  0  0  0  0  0  0  0  0  0
   -2.4132    0.6318    2.7275 H   0  0  0  0  0  0  0  0  0  0  0  0
   -1.1971    0.7118    4.4750 C   0  0  0  0  0  0  0  0  0  0  0  0
   -0.3779    1.4272    4.5748 H   0  0  0  0  0  0  0  0  0  0  0  0
   -2.0826    1.1064    4.9754 H   0  0  0  0  0  0  0  0  0  0  0  0
   -0.8992   -0.2240    4.9525 H   0  0  0  0  0  0  0  0  0  0  0  0
  5  6  2  0  0  0  0
  5  7  1  0  0  0  0
  2  3  1  0  0  0  0
  2  4  1  0  0  0  0
  2  5  1  0  0  0  0
  1  2  1  0  0  0  0
 26 27  2  0  0  0  0
 26 28  1  0  0  0  0
 23 24  1  0  0  0  0
 23 25  1  0  0  0  0
 20 21  1  0  0  0  0
 20 22  1  0  0  0  0
 20 23  1  0  0  0  0
 17 18  1  0  0  0  0
 17 19  1  0  0  0  0
 17 20  1  0  0  0  0
 14 15  1  0  0  0  0
 14 16  1  0  0  0  0
 14 17  1  0  0  0  0
 11 12  1  0  0  0  0
 11 13  1  0  0  0  0
 11 14  1  0  0  0  0
  9 10  1  0  0  0  0
  9 11  1  0  0  0  0
  9 26  1  0  0  0  0
  7  8  1  0  0  0  0
  7  9  1  0  0  0  0
 30 31  1  0  0  0  0
 30 32  1  0  0  0  0
 30 33  1  0  0  0  0
 28 29  1  0  0  0  0
 28 30  1  0  0  0  0
M  END
$$$$
default_name
  -OEChem-02102213163D

 33 32  0     1  0  0  0  0  0999 V2000
   -3.8420   -3.6918    1.5562 H   0  0  0  0  0  0  0  0  0  0  0  0
   -3.8430   -2.7008    1.1032 C   0  0  0  0  0  0  0  0  0  0  0  0
   -4.5510   -2.0608    1.6242 H   0  0  0  0  0  0  0  0  0  0  0  0
   -4.1140   -2.7798    0.0522 H   0  0  0  0  0  0  0  0  0  0  0  0
   -2.4570   -2.1098    1.2172 C   0  0  0  0  0  0  0  0  0  0  0  0
   -1.5600   -2.7438    1.7572 O   0  0  0  0  0  0  0  0  0  0  0  0
   -2.2870   -0.8898    0.7102 N   0  0  0  0  0  0  0  0  0  0  0  0
   -3.0820   -0.4218    0.2992 H   0  0  0  0  0  0  0  0  0  0  0  0
   -1.0240   -0.1468    0.7262 C   0  0  1  0  0  0  0  0  0  0  0  0
   -0.2680   -0.7367    0.2062 H   0  0  0  0  0  0  0  0  0  0  0  0
   -1.2212    1.1806   -0.0314 C   0  0  0  0  0  0  0  0  0  0  0  0
   -1.9815    1.0315   -0.8009 H   0  0  0  0  0  0  0  0  0  0  0  0
   -1.5835    1.9404    0.6625 H   0  0  0  0  0  0  0  0  0  0  0  0
    0.0590    1.6872   -0.7140 C   0  0  0  0  0  0  0  0  0  0  0  0
   -0.2028    2.2568   -1.6061 H   0  0  0  0  0  0  0  0  0  0  0  0
    0.6021    2.3346   -0.0231 H   0  0  0  0  0  0  0  0  0  0  0  0
    0.9609    0.5172   -1.1230 C   0  0  0  0  0  0  0  0  0  0  0  0
    1.2252   -0.0674   -0.2413 H   0  0  0  0  0  0  0  0  0  0  0  0
    0.4311   -0.1198   -1.8319 H   0  0  0  0  0  0  0  0  0  0  0  0
    2.2355    1.0487   -1.7757 C   0  0  0  0  0  0  0  0  0  0  0  0
    1.9751    1.6173   -2.6670 H   0  0  0  0  0  0  0  0  0  0  0  0
    2.7568    1.6992   -1.0753 H   0  0  0  0  0  0  0  0  0  0  0  0
    3.1339   -0.0465   -2.1588 N   0  0  0  0  0  0  0  0  0  0  0  0
    3.9568    0.3392   -2.5982 H   0  0  0  0  0  0  0  0  0  0  0  0
    3.4043   -0.5583   -1.3310 H   0  0  0  0  0  0  0  0  0  0  0  0
   -0.5564    0.0727    2.1744 C   0  0  0  0  0  0  0  0  0  0  0  0
    0.6169   -0.1288    2.4805 O   0  0  0  0  0  0  0  0  0  0  0  0
   -1.4759    0.4743    3.0595 N   0  0  0  0  0  0  0  0  0  0  0  0
   -2.4132    0.6318    2.7275 H   0  0  0  0  0  0  0  0  0  0  0  0
   -1.1971    0.7118    4.4750 C   0  0  0  0  0  0  0  0  0  0  0  0
   -0.3779    1.4272    4.5748 H   0  0  0  0  0  0  0  0  0  0  0  0
   -2.0826    1.1064    4.9754 H   0  0  0  0  0  0  0  0  0  0  0  0
   -0.8992   -0.2240    4.9525 H   0  0  0  0  0  0  0  0  0  0  0  0
  5  6  2  0  0  0  0
  5  7  1  0  0  0  0
  2  3  1  0  0  0  0
  2  4  1  0  0  0  0
  2  5  1  0  0  0  0
  1  2  1  0  0  0  0
 26 27  2  0  0  0  0
 26 28  1  0  0  0  0
 23 24  1  0  0  0  0
 23 25  1  0  0  0  0
 20 21  1  0  0  0  0
 20 22  1  0  0  0  0
 20 23  1  0  0  0  0
 17 18  1  0  0  0  0
 17 19  1  0  0  0  0
 17 20  1  0  0  0  0
 14 15  1  0  0  0  0
 14 16  1  0  0  0  0
 14 17  1  0  0  0  0
 11 12  1  0  0  0  0
 11 13  1  0  0  0  0
 11 14  1  0  0  0  0
  9 10  1  0  0  0  0
  9 11  1  0  0  0  0
  9 26  1  0  0  0  0
  7  8  1  0  0  0  0
  7  9  1  0  0  0  0
 30 31  1  0  0  0  0
 30 32  1  0  0  0  0
 30 33  1  0  0  0  0
 28 29  1  0  0  0  0
 28 30  1  0  0  0  0
M  END
$$$$
default_name
  -OEChem-02102213163D

 33 32  0     1  0  0  0  0  0999 V2000
   -3.8420   -3.6918    1.5562 H   0  0  0  0  0  0  0  0  0  0  0  0
   -3.8430   -2.7008    1.1032 C   0  0  0  0  0  0  0  0  0  0  0  0
   -4.5510   -2.0608    1.6242 H   0  0  0  0  0  0  0  0  0  0  0  0
   -4.1140   -2.7798    0.0522 H   0  0  0  0  0  0  0  0  0  0  0  0
   -2.4570   -2.1098    1.2172 C   0  0  0  0  0  0  0  0  0  0  0  0
   -1.5600   -2.7438    1.7572 O   0  0  0  0  0  0  0  0  0  0  0  0
   -2.2870   -0.8898    0.7102 N   0  0  0  0  0  0  0  0  0  0  0  0
   -3.0820   -0.4218    0.2992 H   0  0  0  0  0  0  0  0  0  0  0  0
   -1.0240   -0.1468    0.7262 C   0  0  1  0  0  0  0  0  0  0  0  0
   -0.2680   -0.7367    0.2062 H   0  0  0  0  0  0  0  0  0  0  0  0
   -1.2212    1.1806   -0.0314 C   0  0  0  0  0  0  0  0  0  0  0  0
   -1.9815    1.0315   -0.8009 H   0  0  0  0  0  0  0  0  0  0  0  0
   -1.5835    1.9404    0.6625 H   0  0  0  0  0  0  0  0  0  0  0  0
    0.0590    1.6872   -0.7140 C   0  0  0  0  0  0  0  0  0  0  0  0
   -0.1941    2.4640   -1.4361 H   0  0  0  0  0  0  0  0  0  0  0  0
    0.7272    2.1052    0.0411 H   0  0  0  0  0  0  0  0  0  0  0  0
    0.7763    0.5477   -1.4466 C   0  0  0  0  0  0  0  0  0  0  0  0
    1.0293   -0.2416   -0.7380 H   0  0  0  0  0  0  0  0  0  0  0  0
    0.1213    0.1424   -2.2184 H   0  0  0  0  0  0  0  0  0  0  0  0
    2.0562    1.0724   -2.0943 C   0  0  0  0  0  0  0  0  0  0  0  0
    1.8045    1.8479   -2.8159 H   0  0  0  0  0  0  0  0  0  0  0  0
    2.7039    1.4936   -1.3271 H   0  0  0  0  0  0  0  0  0  0  0  0
    2.7812    0.0001   -2.7856 N   0  0  0  0  0  0  0  0  0  0  0  0
    3.6116    0.3841   -3.2123 H   0  0  0  0  0  0  0  0  0  0  0  0
    3.0453   -0.7073   -2.1146 H   0  0  0  0  0  0  0  0  0  0  0  0
   -0.5564    0.0727    2.1744 C   0  0  0  0  0  0  0  0  0  0  0  0
    0.6169   -0.1288    2.4805 O   0  0  0  0  0  0  0  0  0  0  0  0
   -1.4759    0.4743    3.0595 N   0  0  0  0  0  0  0  0  0  0  0  0
   -2.4132    0.6318    2.7275 H   0  0  0  0  0  0  0  0  0  0  0  0
   -1.1971    0.7118    4.4750 C   0  0  0  0  0  0  0  0  0  0  0  0
   -0.3779    1.4272    4.5748 H   0  0  0  0  0  0  0  0  0  0  0  0
   -2.0826    1.1064    4.9754 H   0  0  0  0  0  0  0  0  0  0  0  0
   -0.8992   -0.2240    4.9525 H   0  0  0  0  0  0  0  0  0  0  0  0
  5  6  2  0  0  0  0
  5  7  1  0  0  0  0
  2  3  1  0  0  0  0
  2  4  1  0  0  0  0
  2  5  1  0  0  0  0
  1  2  1  0  0  0  0
 26 27  2  0  0  0  0
 26 28  1  0  0  0  0
 23 24  1  0  0  0  0
 23 25  1  0  0  0  0
 20 21  1  0  0  0  0
 20 22  1  0  0  0  0
 20 23  1  0  0  0  0
 17 18  1  0  0  0  0
 17 19  1  0  0  0  0
 17 20  1  0  0  0  0
 14 15  1  0  0  0  0
 14 16  1  0  0  0  0
 14 17  1  0  0  0  0
 11 12  1  0  0  0  0
 11 13  1  0  0  0  0
 11 14  1  0  0  0  0
  9 10  1  0  0  0  0
  9 11  1  0  0  0  0
  9 26  1  0  0  0  0
  7  8  1  0  0  0  0
  7  9  1  0  0  0  0
 30 31  1  0  0  0  0
 30 32  1  0  0  0  0
 30 33  1  0  0  0  0
 28 29  1  0  0  0  0
 28 30  1  0  0  0  0
M  END
$$$$
default_name
  -OEChem-02102213163D

 33 32  0     1  0  0  0  0  0999 V2000
   -3.8420   -3.6918    1.5562 H   0  0  0  0  0  0  0  0  0  0  0  0
   -3.8430   -2.7008    1.1032 C   0  0  0  0  0  0  0  0  0  0  0  0
   -4.5510   -2.0608    1.6242 H   0  0  0  0  0  0  0  0  0  0  0  0
   -4.1140   -2.7798    0.0522 H   0  0  0  0  0  0  0  0  0  0  0  0
   -2.4570   -2.1098    1.2172 C   0  0  0  0  0  0  0  0  0  0  0  0
   -1.5600   -2.7438    1.7572 O   0  0  0  0  0  0  0  0  0  0  0  0
   -2.2870   -0.8898    0.7102 N   0  0  0  0  0  0  0  0  0  0  0  0
   -3.0820   -0.4218    0.2992 H   0  0  0  0  0  0  0  0  0  0  0  0
   -1.0240   -0.1468    0.7262 C   0  0  1  0  0  0  0  0  0  0  0  0
   -0.2680   -0.7367    0.2062 H   0  0  0  0  0  0  0  0  0  0  0  0
   -1.2212    1.1806   -0.0314 C   0  0  0  0  0  0  0  0  0  0  0  0
   -1.9815    1.0315   -0.8009 H   0  0  0  0  0  0  0  0  0  0  0  0
   -1.5835    1.9404    0.6625 H   0  0  0  0  0  0  0  0  0  0  0  0
    0.0590    1.6872   -0.7140 C   0  0  0  0  0  0  0  0  0  0  0  0
   -0.1474    2.6264   -1.2280 H   0  0  0  0  0  0  0  0  0  0  0  0
    0.8271    1.8553    0.0431 H   0  0  0  0  0  0  0  0  0  0  0  0
    0.5739    0.6681   -1.7368 C   0  0  0  0  0  0  0  0  0  0  0  0
    0.7776   -0.2802   -1.2386 H   0  0  0  0  0  0  0  0  0  0  0  0
   -0.1808    0.5146   -2.5087 H   0  0  0  0  0  0  0  0  0  0  0  0
    1.8586    1.1846   -2.3816 C   0  0  0  0  0  0  0  0  0  0  0  0
    1.6534    2.1223   -2.8955 H   0  0  0  0  0  0  0  0  0  0  0  0
    2.6076    1.3554   -1.6102 H   0  0  0  0  0  0  0  0  0  0  0  0
    2.3925    0.2208   -3.3508 N   0  0  0  0  0  0  0  0  0  0  0  0
    3.2309    0.5996   -3.7663 H   0  0  0  0  0  0  0  0  0  0  0  0
    2.6147   -0.6410   -2.8731 H   0  0  0  0  0  0  0  0  0  0  0  0
   -0.5564    0.0727    2.1744 C   0  0  0  0  0  0  0  0  0  0  0  0
    0.6169   -0.1288    2.4805 O   0  0  0  0  0  0  0  0  0  0  0  0
   -1.4759    0.4743    3.0595 N   0  0  0  0  0  0  0  0  0  0  0  0
   -2.4132    0.6318    2.7275 H   0  0  0  0  0  0  0  0  0  0  0  0
   -1.1971    0.7118    4.4750 C   0  0  0  0  0  0  0  0  0  0  0  0
   -0.3779    1.4272    4.5748 H   0  0  0  0  0  0  0  0  0  0  0  0
   -2.0826    1.1064    4.9754 H   0  0  0  0  0  0  0  0  0  0  0  0
   -0.8992   -0.2240    4.9525 H   0  0  0  0  0  0  0  0  0  0  0  0
  5  6  2  0  0  0  0
  5  7  1  0  0  0  0
  2  3  1  0  0  0  0
  2  4  1  0  0  0  0
  2  5  1  0  0  0  0
  1  2  1  0  0  0  0
 26 27  2  0  0  0  0
 26 28  1  0  0  0  0
 23 24  1  0  0  0  0
 23 25  1  0  0  0  0
 20 21  1  0  0  0  0
 20 22  1  0  0  0  0
 20 23  1  0  0  0  0
 17 18  1  0  0  0  0
 17 19  1  0  0  0  0
 17 20  1  0  0  0  0
 14 15  1  0  0  0  0
 14 16  1  0  0  0  0
 14 17  1  0  0  0  0
 11 12  1  0  0  0  0
 11 13  1  0  0  0  0
 11 14  1  0  0  0  0
  9 10  1  0  0  0  0
  9 11  1  0  0  0  0
  9 26  1  0  0  0  0
  7  8  1  0  0  0  0
  7  9  1  0  0  0  0
 30 31  1  0  0  0  0
 30 32  1  0  0  0  0
 30 33  1  0  0  0  0
 28 29  1  0  0  0  0
 28 30  1  0  0  0  0
M  END
$$$$
default_name
  -OEChem-02102213163D

 33 32  0     1  0  0  0  0  0999 V2000
   -3.8420   -3.6918    1.5562 H   0  0  0  0  0  0  0  0  0  0  0  0
   -3.8430   -2.7008    1.1032 C   0  0  0  0  0  0  0  0  0  0  0  0
   -4.5510   -2.0608    1.6242 H   0  0  0  0  0  0  0  0  0  0  0  0
   -4.1140   -2.7798    0.0522 H   0  0  0  0  0  0  0  0  0  0  0  0
   -2.4570   -2.1098    1.2172 C   0  0  0  0  0  0  0  0  0  0  0  0
   -1.5600   -2.7438    1.7572 O   0  0  0  0  0  0  0  0  0  0  0  0
   -2.2870   -0.8898    0.7102 N   0  0  0  0  0  0  0  0  0  0  0  0
   -3.0820   -0.4218    0.2992 H   0  0  0  0  0  0  0  0  0  0  0  0
   -1.0240   -0.1468    0.7262 C   0  0  1  0  0  0  0  0  0  0  0  0
   -0.2680   -0.7367    0.2062 H   0  0  0  0  0  0  0  0  0  0  0  0
   -1.2212    1.1806   -0.0314 C   0  0  0  0  0  0  0  0  0  0  0  0
   -1.9815    1.0315   -0.8009 H   0  0  0  0  0  0  0  0  0  0  0  0
   -1.5835    1.9404    0.6625 H   0  0  0  0  0  0  0  0  0  0  0  0
    0.0590    1.6872   -0.7140 C   0  0  0  0  0  0  0  0  0  0  0  0
   -0.0658    2.7331   -0.9959 H   0  0  0  0  0  0  0  0  0  0  0  0
    0.8950    1.6020   -0.0174 H   0  0  0  0  0  0  0  0  0  0  0  0
    0.3674    0.8703   -1.9739 C   0  0  0  0  0  0  0  0  0  0  0  0
    0.4874   -0.1806   -1.7090 H   0  0  0  0  0  0  0  0  0  0  0  0
   -0.4546    0.9715   -2.6831 H   0  0  0  0  0  0  0  0  0  0  0  0
    1.6561    1.3777   -2.6181 C   0  0  0  0  0  0  0  0  0  0  0  0
    1.5323    2.4220   -2.9004 H   0  0  0  0  0  0  0  0  0  0  0  0
    2.4747    1.2939   -1.9051 H   0  0  0  0  0  0  0  0  0  0  0  0
    1.9941    0.6006   -3.8161 N   0  0  0  0  0  0  0  0  0  0  0  0
    2.8407    0.9710   -4.2225 H   0  0  0  0  0  0  0  0  0  0  0  0
    2.1416   -0.3639   -3.5547 H   0  0  0  0  0  0  0  0  0  0  0  0
   -0.5564    0.0727    2.1744 C   0  0  0  0  0  0  0  0  0  0  0  0
    0.6169   -0.1288    2.4805 O   0  0  0  0  0  0  0  0  0  0  0  0
   -1.4759    0.4743    3.0595 N   0  0  0  0  0  0  0  0  0  0  0  0
   -2.4132    0.6318    2.7275 H   0  0  0  0  0  0  0  0  0  0  0  0
   -1.1971    0.7118    4.4750 C   0  0  0  0  0  0  0  0  0  0  0  0
   -0.3779    1.4272    4.5748 H   0  0  0  0  0  0  0  0  0  0  0  0
   -2.0826    1.1064    4.9754 H   0  0  0  0  0  0  0  0  0  0  0  0
   -0.8992   -0.2240    4.9525 H   0  0  0  0  0  0  0  0  0  0  0  0
  5  6  2  0  0  0  0
  5  7  1  0  0  0  0
  2  3  1  0  0  0  0
  2  4  1  0  0  0  0
  2  5  1  0  0  0  0
  1  2  1  0  0  0  0
 26 27  2  0  0  0  0
 26 28  1  0  0  0  0
 23 24  1  0  0  0  0
 23 25  1  0  0  0  0
 20 21  1  0  0  0  0
 20 22  1  0  0  0  0
 20 23  1  0  0  0  0
 17 18  1  0  0  0  0
 17 19  1  0  0  0  0
 17 20  1  0  0  0  0
 14 15  1  0  0  0  0
 14 16  1  0  0  0  0
 14 17  1  0  0  0  0
 11 12  1  0  0  0  0
 11 13  1  0  0  0  0
 11 14  1  0  0  0  0
  9 10  1  0  0  0  0
  9 11  1  0  0  0  0
  9 26  1  0  0  0  0
  7  8  1  0  0  0  0
  7  9  1  0  0  0  0
 30 31  1  0  0  0  0
 30 32  1  0  0  0  0
 30 33  1  0  0  0  0
 28 29  1  0  0  0  0
 28 30  1  0  0  0  0
M  END
$$$$
default_name
  -OEChem-02102213163D

 33 32  0     1  0  0  0  0  0999 V2000
   -3.8420   -3.6918    1.5562 H   0  0  0  0  0  0  0  0  0  0  0  0
   -3.8430   -2.7008    1.1032 C   0  0  0  0  0  0  0  0  0  0  0  0
   -4.5510   -2.0608    1.6242 H   0  0  0  0  0  0  0  0  0  0  0  0
   -4.1140   -2.7798    0.0522 H   0  0  0  0  0  0  0  0  0  0  0  0
   -2.4570   -2.1098    1.2172 C   0  0  0  0  0  0  0  0  0  0  0  0
   -1.5600   -2.7438    1.7572 O   0  0  0  0  0  0  0  0  0  0  0  0
   -2.2870   -0.8898    0.7102 N   0  0  0  0  0  0  0  0  0  0  0  0
   -3.0820   -0.4218    0.2992 H   0  0  0  0  0  0  0  0  0  0  0  0
   -1.0240   -0.1468    0.7262 C   0  0  1  0  0  0  0  0  0  0  0  0
   -0.2680   -0.7367    0.2062 H   0  0  0  0  0  0  0  0  0  0  0  0
   -1.2212    1.1806   -0.0314 C   0  0  0  0  0  0  0  0  0  0  0  0
   -1.9815    1.0315   -0.8009 H   0  0  0  0  0  0  0  0  0  0  0  0
   -1.5835    1.9404    0.6625 H   0  0  0  0  0  0  0  0  0  0  0  0
    0.0590    1.6872   -0.7140 C   0  0  0  0  0  0  0  0  0  0  0  0
    0.0450    2.7767   -0.7557 H   0  0  0  0  0  0  0  0  0  0  0  0
    0.9264    1.3627   -0.1363 H   0  0  0  0  0  0  0  0  0  0  0  0
    0.1711    1.1405   -2.1417 C   0  0  0  0  0  0  0  0  0  0  0  0
    0.1783    0.0503   -2.1172 H   0  0  0  0  0  0  0  0  0  0  0  0
   -0.6814    1.4818   -2.7297 H   0  0  0  0  0  0  0  0  0  0  0  0
    1.4625    1.6385   -2.7876 C   0  0  0  0  0  0  0  0  0  0  0  0
    1.4493    2.7264   -2.8301 H   0  0  0  0  0  0  0  0  0  0  0  0
    2.3140    1.3135   -2.1920 H   0  0  0  0  0  0  0  0  0  0  0  0
    1.6133    1.1135   -4.1496 N   0  0  0  0  0  0  0  0  0  0  0  0
    2.4675    1.4729   -4.5498 H   0  0  0  0  0  0  0  0  0  0  0  0
    1.6583    0.1051   -4.1130 H   0  0  0  0  0  0  0  0  0  0  0  0
   -0.5564    0.0727    2.1744 C   0  0  0  0  0  0  0  0  0  0  0  0
    0.6169   -0.1288    2.4805 O   0  0  0  0  0  0  0  0  0  0  0  0
   -1.4759    0.4743    3.0595 N   0  0  0  0  0  0  0  0  0  0  0  0
   -2.4132    0.6318    2.7275 H   0  0  0  0  0  0  0  0  0  0  0  0
   -1.1971    0.7118    4.4750 C   0  0  0  0  0  0  0  0  0  0  0  0
   -0.3779    1.4272    4.5748 H   0  0  0  0  0  0  0  0  0  0  0  0
   -2.0826    1.1064    4.9754 H   0  0  0  0  0  0  0  0  0  0  0  0
   -0.8992   -0.2240    4.9525 H   0  0  0  0  0  0  0  0  0  0  0  0
  5  6  2  0  0  0  0
  5  7  1  0  0  0  0
  2  3  1  0  0  0  0
  2  4  1  0  0  0  0
  2  5  1  0  0  0  0
  1  2  1  0  0  0  0
 26 27  2  0  0  0  0
 26 28  1  0  0  0  0
 23 24  1  0  0  0  0
 23 25  1  0  0  0  0
 20 21  1  0  0  0  0
 20 22  1  0  0  0  0
 20 23  1  0  0  0  0
 17 18  1  0  0  0  0
 17 19  1  0  0  0  0
 17 20  1  0  0  0  0
 14 15  1  0  0  0  0
 14 16  1  0  0  0  0
 14 17  1  0  0  0  0
 11 12  1  0  0  0  0
 11 13  1  0  0  0  0
 11 14  1  0  0  0  0
  9 10  1  0  0  0  0
  9 11  1  0  0  0  0
  9 26  1  0  0  0  0
  7  8  1  0  0  0  0
  7  9  1  0  0  0  0
 30 31  1  0  0  0  0
 30 32  1  0  0  0  0
 30 33  1  0  0  0  0
 28 29  1  0  0  0  0
 28 30  1  0  0  0  0
M  END
$$$$
default_name
  -OEChem-02102213163D

 33 32  0     1  0  0  0  0  0999 V2000
   -3.8420   -3.6918    1.5562 H   0  0  0  0  0  0  0  0  0  0  0  0
   -3.8430   -2.7008    1.1032 C   0  0  0  0  0  0  0  0  0  0  0  0
   -4.5510   -2.0608    1.6242 H   0  0  0  0  0  0  0  0  0  0  0  0
   -4.1140   -2.7798    0.0522 H   0  0  0  0  0  0  0  0  0  0  0  0
   -2.4570   -2.1098    1.2172 C   0  0  0  0  0  0  0  0  0  0  0  0
   -1.5600   -2.7438    1.7572 O   0  0  0  0  0  0  0  0  0  0  0  0
   -2.2870   -0.8898    0.7102 N   0  0  0  0  0  0  0  0  0  0  0  0
   -3.0820   -0.4218    0.2992 H   0  0  0  0  0  0  0  0  0  0  0  0
   -1.0240   -0.1468    0.7262 C   0  0  1  0  0  0  0  0  0  0  0  0
   -0.2680   -0.7367    0.2062 H   0  0  0  0  0  0  0  0  0  0  0  0
   -1.2212    1.1806   -0.0314 C   0  0  0  0  0  0  0  0  0  0  0  0
   -1.9815    1.0315   -0.8009 H   0  0  0  0  0  0  0  0  0  0  0  0
   -1.5835    1.9404    0.6625 H   0  0  0  0  0  0  0  0  0  0  0  0
    0.0590    1.6872   -0.7140 C   0  0  0  0  0  0  0  0  0  0  0  0
    0.1776    2.7542   -0.5237 H   0  0  0  0  0  0  0  0  0  0  0  0
    0.9190    1.1535   -0.3054 H   0  0  0  0  0  0  0  0  0  0  0  0
   -0.0019    1.4602   -2.2288 C   0  0  0  0  0  0  0  0  0  0  0  0
   -0.1284    0.3970   -2.4352 H   0  0  0  0  0  0  0  0  0  0  0  0
   -0.8458    2.0109   -2.6453 H   0  0  0  0  0  0  0  0  0  0  0  0
    1.2911    1.9491   -2.8786 C   0  0  0  0  0  0  0  0  0  0  0  0
    1.4102    3.0148   -2.6895 H   0  0  0  0  0  0  0  0  0  0  0  0
    2.1365    1.4127   -2.4511 H   0  0  0  0  0  0  0  0  0  0  0  0
    1.2760    1.7247   -4.3287 N   0  0  0  0  0  0  0  0  0  0  0  0
    2.1369    2.0712   -4.7259 H   0  0  0  0  0  0  0  0  0  0  0  0
    1.1978    0.7341   -4.5099 H   0  0  0  0  0  0  0  0  0  0  0  0
   -0.5564    0.0727    2.1744 C   0  0  0  0  0  0  0  0  0  0  0  0
    0.6169   -0.1288    2.4805 O   0  0  0  0  0  0  0  0  0  0  0  0
   -1.4759    0.4743    3.0595 N   0  0  0  0  0  0  0  0  0  0  0  0
   -2.4132    0.6318    2.7275 H   0  0  0  0  0  0  0  0  0  0  0  0
   -1.1971    0.7118    4.4750 C   0  0  0  0  0  0  0  0  0  0  0  0
   -0.3779    1.4272    4.5748 H   0  0  0  0  0  0  0  0  0  0  0  0
   -2.0826    1.1064    4.9754 H   0  0  0  0  0  0  0  0  0  0  0  0
   -0.8992   -0.2240    4.9525 H   0  0  0  0  0  0  0  0  0  0  0  0
  5  6  2  0  0  0  0
  5  7  1  0  0  0  0
  2  3  1  0  0  0  0
  2  4  1  0  0  0  0
  2  5  1  0  0  0  0
  1  2  1  0  0  0  0
 26 27  2  0  0  0  0
 26 28  1  0  0  0  0
 23 24  1  0  0  0  0
 23 25  1  0  0  0  0
 20 21  1  0  0  0  0
 20 22  1  0  0  0  0
 20 23  1  0  0  0  0
 17 18  1  0  0  0  0
 17 19  1  0  0  0  0
 17 20  1  0  0  0  0
 14 15  1  0  0  0  0
 14 16  1  0  0  0  0
 14 17  1  0  0  0  0
 11 12  1  0  0  0  0
 11 13  1  0  0  0  0
 11 14  1  0  0  0  0
  9 10  1  0  0  0  0
  9 11  1  0  0  0  0
  9 26  1  0  0  0  0
  7  8  1  0  0  0  0
  7  9  1  0  0  0  0
 30 31  1  0  0  0  0
 30 32  1  0  0  0  0
 30 33  1  0  0  0  0
 28 29  1  0  0  0  0
 28 30  1  0  0  0  0
M  END
$$$$
default_name
  -OEChem-02102213163D

 33 32  0     1  0  0  0  0  0999 V2000
   -3.8420   -3.6918    1.5562 H   0  0  0  0  0  0  0  0  0  0  0  0
   -3.8430   -2.7008    1.1032 C   0  0  0  0  0  0  0  0  0  0  0  0
   -4.5510   -2.0608    1.6242 H   0  0  0  0  0  0  0  0  0  0  0  0
   -4.1140   -2.7798    0.0522 H   0  0  0  0  0  0  0  0  0  0  0  0
   -2.4570   -2.1098    1.2172 C   0  0  0  0  0  0  0  0  0  0  0  0
   -1.5600   -2.7438    1.7572 O   0  0  0  0  0  0  0  0  0  0  0  0
   -2.2870   -0.8898    0.7102 N   0  0  0  0  0  0  0  0  0  0  0  0
   -3.0820   -0.4218    0.2992 H   0  0  0  0  0  0  0  0  0  0  0  0
   -1.0240   -0.1468    0.7262 C   0  0  1  0  0  0  0  0  0  0  0  0
   -0.2680   -0.7367    0.2062 H   0  0  0  0  0  0  0  0  0  0  0  0
   -1.2212    1.1806   -0.0314 C   0  0  0  0  0  0  0  0  0  0  0  0
   -1.9815    1.0315   -0.8009 H   0  0  0  0  0  0  0  0  0  0  0  0
   -1.5835    1.9404    0.6625 H   0  0  0  0  0  0  0  0  0  0  0  0
    0.0590    1.6872   -0.7140 C   0  0  0  0  0  0  0  0  0  0  0  0
    0.3229    2.6673   -0.3158 H   0  0  0  0  0  0  0  0  0  0  0  0
    0.8734    0.9887   -0.5132 H   0  0  0  0  0  0  0  0  0  0  0  0
   -0.1396    1.8077   -2.2292 C   0  0  0  0  0  0  0  0  0  0  0  0
   -0.4120    0.8356   -2.6416 H   0  0  0  0  0  0  0  0  0  0  0  0
   -0.9365    2.5227   -2.4357 H   0  0  0  0  0  0  0  0  0  0  0  0
    1.1534    2.2886   -2.8849 C   0  0  0  0  0  0  0  0  0  0  0  0
    1.4175    3.2675   -2.4882 H   0  0  0  0  0  0  0  0  0  0  0  0
    1.9544    1.5848   -2.6648 H   0  0  0  0  0  0  0  0  0  0  0  0
    1.0051    2.3924   -4.3411 N   0  0  0  0  0  0  0  0  0  0  0  0
    1.8712    2.7251   -4.7388 H   0  0  0  0  0  0  0  0  0  0  0  0
    0.7914    1.4801   -4.7183 H   0  0  0  0  0  0  0  0  0  0  0  0
   -0.5564    0.0727    2.1744 C   0  0  0  0  0  0  0  0  0  0  0  0
    0.6169   -0.1288    2.4805 O   0  0  0  0  0  0  0  0  0  0  0  0
   -1.4759    0.4743    3.0595 N   0  0  0  0  0  0  0  0  0  0  0  0
   -2.4132    0.6318    2.7275 H   0  0  0  0  0  0  0  0  0  0  0  0
   -1.1971    0.7118    4.4750 C   0  0  0  0  0  0  0  0  0  0  0  0
   -0.3779    1.4272    4.5748 H   0  0  0  0  0  0  0  0  0  0  0  0
   -2.0826    1.1064    4.9754 H   0  0  0  0  0  0  0  0  0  0  0  0
   -0.8992   -0.2240    4.9525 H   0  0  0  0  0  0  0  0  0  0  0  0
  5  6  2  0  0  0  0
  5  7  1  0  0  0  0
  2  3  1  0  0  0  0
  2  4  1  0  0  0  0
  2  5  1  0  0  0  0
  1  2  1  0  0  0  0
 26 27  2  0  0  0  0
 26 28  1  0  0  0  0
 23 24  1  0  0  0  0
 23 25  1  0  0  0  0
 20 21  1  0  0  0  0
 20 22  1  0  0  0  0
 20 23  1  0  0  0  0
 17 18  1  0  0  0  0
 17 19  1  0  0  0  0
 17 20  1  0  0  0  0
 14 15  1  0  0  0  0
 14 16  1  0  0  0  0
 14 17  1  0  0  0  0
 11 12  1  0  0  0  0
 11 13  1  0  0  0  0
 11 14  1  0  0  0  0
  9 10  1  0  0  0  0
  9 11  1  0  0  0  0
  9 26  1  0  0  0  0
  7  8  1  0  0  0  0
  7  9  1  0  0  0  0
 30 31  1  0  0  0  0
 30 32  1  0  0  0  0
 30 33  1  0  0  0  0
 28 29  1  0  0  0  0
 28 30  1  0  0  0  0
M  END
$$$$
default_name
  -OEChem-02102213163D

 33 32  0     1  0  0  0  0  0999 V2000
   -3.8420   -3.6918    1.5562 H   0  0  0  0  0  0  0  0  0  0  0  0
   -3.8430   -2.7008    1.1032 C   0  0  0  0  0  0  0  0  0  0  0  0
   -4.5510   -2.0608    1.6242 H   0  0  0  0  0  0  0  0  0  0  0  0
   -4.1140   -2.7798    0.0522 H   0  0  0  0  0  0  0  0  0  0  0  0
   -2.4570   -2.1098    1.2172 C   0  0  0  0  0  0  0  0  0  0  0  0
   -1.5600   -2.7438    1.7572 O   0  0  0  0  0  0  0  0  0  0  0  0
   -2.2870   -0.8898    0.7102 N   0  0  0  0  0  0  0  0  0  0  0  0
   -3.0820   -0.4218    0.2992 H   0  0  0  0  0  0  0  0  0  0  0  0
   -1.0240   -0.1468    0.7262 C   0  0  1  0  0  0  0  0  0  0  0  0
   -0.2680   -0.7367    0.2062 H   0  0  0  0  0  0  0  0  0  0  0  0
   -1.2212    1.1806   -0.0314 C   0  0  0  0  0  0  0  0  0  0  0  0
   -1.9815    1.0315   -0.8009 H   0  0  0  0  0  0  0  0  0  0  0  0
   -1.5835    1.9404    0.6625 H   0  0  0  0  0  0  0  0  0  0  0  0
    0.0590    1.6872   -0.7140 C   0  0  0  0  0  0  0  0  0  0  0  0
    0.4709    2.5218   -0.1461 H   0  0  0  0  0  0  0  0  0  0  0  0
    0.7926    0.8796   -0.7456 H   0  0  0  0  0  0  0  0  0  0  0  0
   -0.2328    2.1592   -2.1430 C   0  0  0  0  0  0  0  0  0  0  0  0
   -0.6532    1.3365   -2.7221 H   0  0  0  0  0  0  0  0  0  0  0  0
   -0.9474    2.9823   -2.1152 H   0  0  0  0  0  0  0  0  0  0  0  0
    1.0589    2.6336   -2.8061 C   0  0  0  0  0  0  0  0  0  0  0  0
    1.4708    3.4674   -2.2398 H   0  0  0  0  0  0  0  0  0  0  0  0
    1.7801    1.8181   -2.8187 H   0  0  0  0  0  0  0  0  0  0  0  0
    0.8192    3.0712   -4.1860 N   0  0  0  0  0  0  0  0  0  0  0  0
    1.6887    3.3901   -4.5876 H   0  0  0  0  0  0  0  0  0  0  0  0
    0.4669    2.2924   -4.7241 H   0  0  0  0  0  0  0  0  0  0  0  0
   -0.5564    0.0727    2.1744 C   0  0  0  0  0  0  0  0  0  0  0  0
    0.6169   -0.1288    2.4805 O   0  0  0  0  0  0  0  0  0  0  0  0
   -1.4759    0.4743    3.0595 N   0  0  0  0  0  0  0  0  0  0  0  0
   -2.4132    0.6318    2.7275 H   0  0  0  0  0  0  0  0  0  0  0  0
   -1.1971    0.7118    4.4750 C   0  0  0  0  0  0  0  0  0  0  0  0
   -0.3779    1.4272    4.5748 H   0  0  0  0  0  0  0  0  0  0  0  0
   -2.0826    1.1064    4.9754 H   0  0  0  0  0  0  0  0  0  0  0  0
   -0.8992   -0.2240    4.9525 H   0  0  0  0  0  0  0  0  0  0  0  0
  5  6  2  0  0  0  0
  5  7  1  0  0  0  0
  2  3  1  0  0  0  0
  2  4  1  0  0  0  0
  2  5  1  0  0  0  0
  1  2  1  0  0  0  0
 26 27  2  0  0  0  0
 26 28  1  0  0  0  0
 23 24  1  0  0  0  0
 23 25  1  0  0  0  0
 20 21  1  0  0  0  0
 20 22  1  0  0  0  0
 20 23  1  0  0  0  0
 17 18  1  0  0  0  0
 17 19  1  0  0  0  0
 17 20  1  0  0  0  0
 14 15  1  0  0  0  0
 14 16  1  0  0  0  0
 14 17  1  0  0  0  0
 11 12  1  0  0  0  0
 11 13  1  0  0  0  0
 11 14  1  0  0  0  0
  9 10  1  0  0  0  0
  9 11  1  0  0  0  0
  9 26  1  0  0  0  0
  7  8  1  0  0  0  0
  7  9  1  0  0  0  0
 30 31  1  0  0  0  0
 30 32  1  0  0  0  0
 30 33  1  0  0  0  0
 28 29  1  0  0  0  0
 28 30  1  0  0  0  0
M  END
$$$$
default_name
  -OEChem-02102213163D

 33 32  0     1  0  0  0  0  0999 V2000
   -3.8420   -3.6918    1.5562 H   0  0  0  0  0  0  0  0  0  0  0  0
   -3.8430   -2.7008    1.1032 C   0  0  0  0  0  0  0  0  0  0  0  0
   -4.5510   -2.0608    1.6242 H   0  0  0  0  0  0  0  0  0  0  0  0
   -4.1140   -2.7798    0.0522 H   0  0  0  0  0  0  0  0  0  0  0  0
   -2.4570   -2.1098    1.2172 C   0  0  0  0  0  0  0  0  0  0  0  0
   -1.5600   -2.7438    1.7572 O   0  0  0  0  0  0  0  0  0  0  0  0
   -2.2870   -0.8898    0.7102 N   0  0  0  0  0  0  0  0  0  0  0  0
   -3.0820   -0.4218    0.2992 H   0  0  0  0  0  0  0  0  0  0  0  0
   -1.0240   -0.1468    0.7262 C   0  0  1  0  0  0  0  0  0  0  0  0
   -0.2680   -0.7367    0.2062 H   0  0  0  0  0  0  0  0  0  0  0  0
   -1.2212    1.1806   -0.0314 C   0  0  0  0  0  0  0  0  0  0  0  0
   -1.9815    1.0315   -0.8009 H   0  0  0  0  0  0  0  0  0  0  0  0
   -1.5835    1.9404    0.6625 H   0  0  0  0  0  0  0  0  0  0  0  0
    0.0590    1.6872   -0.7140 C   0  0  0  0  0  0  0  0  0  0  0  0
    0.6117    2.3277   -0.0262 H   0  0  0  0  0  0  0  0  0  0  0  0
    0.6823    0.8336   -0.9867 H   0  0  0  0  0  0  0  0  0  0  0  0
   -0.2749    2.4909   -1.9759 C   0  0  0  0  0  0  0  0  0  0  0  0
   -0.8353    1.8653   -2.6713 H   0  0  0  0  0  0  0  0  0  0  0  0
   -0.8778    3.3583   -1.7055 H   0  0  0  0  0  0  0  0  0  0  0  0
    1.0140    2.9608   -2.6474 C   0  0  0  0  0  0  0  0  0  0  0  0
    1.5665    3.6008   -1.9614 H   0  0  0  0  0  0  0  0  0  0  0  0
    1.6254    2.0966   -2.9021 H   0  0  0  0  0  0  0  0  0  0  0  0
    0.7309    3.7148   -3.8740 N   0  0  0  0  0  0  0  0  0  0  0  0
    1.6018    4.0207   -4.2826 H   0  0  0  0  0  0  0  0  0  0  0  0
    0.2463    3.1156   -4.5269 H   0  0  0  0  0  0  0  0  0  0  0  0
   -0.5564    0.0727    2.1744 C   0  0  0  0  0  0  0  0  0  0  0  0
    0.6169   -0.1288    2.4805 O   0  0  0  0  0  0  0  0  0  0  0  0
   -1.4759    0.4743    3.0595 N   0  0  0  0  0  0  0  0  0  0  0  0
   -2.4132    0.6318    2.7275 H   0  0  0  0  0  0  0  0  0  0  0  0
   -1.1971    0.7118    4.4750 C   0  0  0  0  0  0  0  0  0  0  0  0
   -0.3779    1.4272    4.5748 H   0  0  0  0  0  0  0  0  0  0  0  0
   -2.0826    1.1064    4.9754 H   0  0  0  0  0  0  0  0  0  0  0  0
   -0.8992   -0.2240    4.9525 H   0  0  0  0  0  0  0  0  0  0  0  0
  5  6  2  0  0  0  0
  5  7  1  0  0  0  0
  2  3  1  0  0  0  0
  2  4  1  0  0  0  0
  2  5  1  0  0  0  0
  1  2  1  0  0  0  0
 26 27  2  0  0  0  0
 26 28  1  0  0  0  0
 23 24  1  0  0  0  0
 23 25  1  0  0  0  0
 20 21  1  0  0  0  0
 20 22  1  0  0  0  0
 20 23  1  0  0  0  0
 17 18  1  0  0  0  0
 17 19  1  0  0  0  0
 17 20  1  0  0  0  0
 14 15  1  0  0  0  0
 14 16  1  0  0  0  0
 14 17  1  0  0  0  0
 11 12  1  0  0  0  0
 11 13  1  0  0  0  0
 11 14  1  0  0  0  0
  9 10  1  0  0  0  0
  9 11  1  0  0  0  0
  9 26  1  0  0  0  0
  7  8  1  0  0  0  0
  7  9  1  0  0  0  0
 30 31  1  0  0  0  0
 30 32  1  0  0  0  0
 30 33  1  0  0  0  0
 28 29  1  0  0  0  0
 28 30  1  0  0  0  0
M  END
$$$$
default_name
  -OEChem-02102213163D

 33 32  0     1  0  0  0  0  0999 V2000
   -3.8420   -3.6918    1.5562 H   0  0  0  0  0  0  0  0  0  0  0  0
   -3.8430   -2.7008    1.1032 C   0  0  0  0  0  0  0  0  0  0  0  0
   -4.5510   -2.0608    1.6242 H   0  0  0  0  0  0  0  0  0  0  0  0
   -4.1140   -2.7798    0.0522 H   0  0  0  0  0  0  0  0  0  0  0  0
   -2.4570   -2.1098    1.2172 C   0  0  0  0  0  0  0  0  0  0  0  0
   -1.5600   -2.7438    1.7572 O   0  0  0  0  0  0  0  0  0  0  0  0
   -2.2870   -0.8898    0.7102 N   0  0  0  0  0  0  0  0  0  0  0  0
   -3.0820   -0.4218    0.2992 H   0  0  0  0  0  0  0  0  0  0  0  0
   -1.0240   -0.1468    0.7262 C   0  0  1  0  0  0  0  0  0  0  0  0
   -0.2680   -0.7367    0.2062 H   0  0  0  0  0  0  0  0  0  0  0  0
   -1.2212    1.1806   -0.0314 C   0  0  0  0  0  0  0  0  0  0  0  0
   -1.9815    1.0315   -0.8009 H   0  0  0  0  0  0  0  0  0  0  0  0
   -1.5835    1.9404    0.6625 H   0  0  0  0  0  0  0  0  0  0  0  0
    0.0590    1.6872   -0.7140 C   0  0  0  0  0  0  0  0  0  0  0  0
    0.7356    2.0981    0.0358 H   0  0  0  0  0  0  0  0  0  0  0  0
    0.5498    0.8538   -1.2200 H   0  0  0  0  0  0  0  0  0  0  0  0
   -0.2633    2.7801   -1.7394 C   0  0  0  0  0  0  0  0  0  0  0  0
   -0.9462    2.3861   -2.4927 H   0  0  0  0  0  0  0  0  0  0  0  0
   -0.7323    3.6252   -1.2347 H   0  0  0  0  0  0  0  0  0  0  0  0
    1.0218    3.2477   -2.4198 C   0  0  0  0  0  0  0  0  0  0  0  0
    1.6980    3.6587   -1.6719 H   0  0  0  0  0  0  0  0  0  0  0  0
    1.5009    2.4014   -2.9094 H   0  0  0  0  0  0  0  0  0  0  0  0
    0.7462    4.2794   -3.4263 N   0  0  0  0  0  0  0  0  0  0  0  0
    1.6164    4.5741   -3.8446 H   0  0  0  0  0  0  0  0  0  0  0  0
    0.1447    3.8935   -4.1402 H   0  0  0  0  0  0  0  0  0  0  0  0
   -0.5564    0.0727    2.1744 C   0  0  0  0  0  0  0  0  0  0  0  0
    0.6169   -0.1288    2.4805 O   0  0  0  0  0  0  0  0  0  0  0  0
   -1.4759    0.4743    3.0595 N   0  0  0  0  0  0  0  0  0  0  0  0
   -2.4132    0.6318    2.7275 H   0  0  0  0  0  0  0  0  0  0  0  0
   -1.1971    0.7118    4.4750 C   0  0  0  0  0  0  0  0  0  0  0  0
   -0.3779    1.4272    4.5748 H   0  0  0  0  0  0  0  0  0  0  0  0
   -2.0826    1.1064    4.9754 H   0  0  0  0  0  0  0  0  0  0  0  0
   -0.8992   -0.2240    4.9525 H   0  0  0  0  0  0  0  0  0  0  0  0
  5  6  2  0  0  0  0
  5  7  1  0  0  0  0
  2  3  1  0  0  0  0
  2  4  1  0  0  0  0
  2  5  1  0  0  0  0
  1  2  1  0  0  0  0
 26 27  2  0  0  0  0
 26 28  1  0  0  0  0
 23 24  1  0  0  0  0
 23 25  1  0  0  0  0
 20 21  1  0  0  0  0
 20 22  1  0  0  0  0
 20 23  1  0  0  0  0
 17 18  1  0  0  0  0
 17 19  1  0  0  0  0
 17 20  1  0  0  0  0
 14 15  1  0  0  0  0
 14 16  1  0  0  0  0
 14 17  1  0  0  0  0
 11 12  1  0  0  0  0
 11 13  1  0  0  0  0
 11 14  1  0  0  0  0
  9 10  1  0  0  0  0
  9 11  1  0  0  0  0
  9 26  1  0  0  0  0
  7  8  1  0  0  0  0
  7  9  1  0  0  0  0
 30 31  1  0  0  0  0
 30 32  1  0  0  0  0
 30 33  1  0  0  0  0
 28 29  1  0  0  0  0
 28 30  1  0  0  0  0
M  END
$$$$
default_name
  -OEChem-02102213163D

 33 32  0     1  0  0  0  0  0999 V2000
   -3.8420   -3.6918    1.5562 H   0  0  0  0  0  0  0  0  0  0  0  0
   -3.8430   -2.7008    1.1032 C   0  0  0  0  0  0  0  0  0  0  0  0
   -4.5510   -2.0608    1.6242 H   0  0  0  0  0  0  0  0  0  0  0  0
   -4.1140   -2.7798    0.0522 H   0  0  0  0  0  0  0  0  0  0  0  0
   -2.4570   -2.1098    1.2172 C   0  0  0  0  0  0  0  0  0  0  0  0
   -1.5600   -2.7438    1.7572 O   0  0  0  0  0  0  0  0  0  0  0  0
   -2.2870   -0.8898    0.7102 N   0  0  0  0  0  0  0  0  0  0  0  0
   -3.0820   -0.4218    0.2992 H   0  0  0  0  0  0  0  0  0  0  0  0
   -1.0240   -0.1468    0.7262 C   0  0  1  0  0  0  0  0  0  0  0  0
   -0.2680   -0.7367    0.2062 H   0  0  0  0  0  0  0  0  0  0  0  0
   -1.2212    1.1806   -0.0314 C   0  0  0  0  0  0  0  0  0  0  0  0
   -2.1476    1.1180   -0.6060 H   0  0  0  0  0  0  0  0  0  0  0  0
   -1.3213    1.9942    0.6884 H   0  0  0  0  0  0  0  0  0  0  0  0
   -0.0750    1.5023   -1.0031 C   0  0  0  0  0  0  0  0  0  0  0  0
    0.8628    1.5749   -0.4517 H   0  0  0  0  0  0  0  0  0  0  0  0
    0.0052    0.7020   -1.7411 H   0  0  0  0  0  0  0  0  0  0  0  0
   -0.3265    2.8307   -1.7256 C   0  0  0  0  0  0  0  0  0  0  0  0
   -1.2662    2.7763   -2.2760 H   0  0  0  0  0  0  0  0  0  0  0  0
   -0.3837    3.6372   -0.9941 H   0  0  0  0  0  0  0  0  0  0  0  0
    0.8136    3.1137   -2.7019 C   0  0  0  0  0  0  0  0  0  0  0  0
    1.7506    3.1868   -2.1521 H   0  0  0  0  0  0  0  0  0  0  0  0
    0.8836    2.3005   -3.4224 H   0  0  0  0  0  0  0  0  0  0  0  0
    0.5924    4.3689   -3.4290 N   0  0  0  0  0  0  0  0  0  0  0  0
    1.3693    4.5309   -4.0530 H   0  0  0  0  0  0  0  0  0  0  0  0
   -0.2597    4.2948   -3.9664 H   0  0  0  0  0  0  0  0  0  0  0  0
   -0.5564    0.0727    2.1744 C   0  0  0  0  0  0  0  0  0  0  0  0
    0.6169   -0.1288    2.4805 O   0  0  0  0  0  0  0  0  0  0  0  0
   -1.4759    0.4743    3.0595 N   0  0  0  0  0  0  0  0  0  0  0  0
   -2.4132    0.6318    2.7275 H   0  0  0  0  0  0  0  0  0  0  0  0
   -1.1971    0.7118    4.4750 C   0  0  0  0  0  0  0  0  0  0  0  0
   -0.3779    1.4272    4.5748 H   0  0  0  0  0  0  0  0  0  0  0  0
   -2.0826    1.1064    4.9754 H   0  0  0  0  0  0  0  0  0  0  0  0
   -0.8992   -0.2240    4.9525 H   0  0  0  0  0  0  0  0  0  0  0  0
  5  6  2  0  0  0  0
  5  7  1  0  0  0  0
  2  3  1  0  0  0  0
  2  4  1  0  0  0  0
  2  5  1  0  0  0  0
  1  2  1  0  0  0  0
 26 27  2  0  0  0  0
 26 28  1  0  0  0  0
 23 24  1  0  0  0  0
 23 25  1  0  0  0  0
 20 21  1  0  0  0  0
 20 22  1  0  0  0  0
 20 23  1  0  0  0  0
 17 18  1  0  0  0  0
 17 19  1  0  0  0  0
 17 20  1  0  0  0  0
 14 15  1  0  0  0  0
 14 16  1  0  0  0  0
 14 17  1  0  0  0  0
 11 12  1  0  0  0  0
 11 13  1  0  0  0  0
 11 14  1  0  0  0  0
  9 10  1  0  0  0  0
  9 11  1  0  0  0  0
  9 26  1  0  0  0  0
  7  8  1  0  0  0  0
  7  9  1  0  0  0  0
 30 31  1  0  0  0  0
 30 32  1  0  0  0  0
 30 33  1  0  0  0  0
 28 29  1  0  0  0  0
 28 30  1  0  0  0  0
M  END
$$$$
default_name
  -OEChem-02102213163D

 33 32  0     1  0  0  0  0  0999 V2000
   -3.8420   -3.6918    1.5562 H   0  0  0  0  0  0  0  0  0  0  0  0
   -3.8430   -2.7008    1.1032 C   0  0  0  0  0  0  0  0  0  0  0  0
   -4.5510   -2.0608    1.6242 H   0  0  0  0  0  0  0  0  0  0  0  0
   -4.1140   -2.7798    0.0522 H   0  0  0  0  0  0  0  0  0  0  0  0
   -2.4570   -2.1098    1.2172 C   0  0  0  0  0  0  0  0  0  0  0  0
   -1.5600   -2.7438    1.7572 O   0  0  0  0  0  0  0  0  0  0  0  0
   -2.2870   -0.8898    0.7102 N   0  0  0  0  0  0  0  0  0  0  0  0
   -3.0820   -0.4218    0.2992 H   0  0  0  0  0  0  0  0  0  0  0  0
   -1.0240   -0.1468    0.7262 C   0  0  1  0  0  0  0  0  0  0  0  0
   -0.2680   -0.7367    0.2062 H   0  0  0  0  0  0  0  0  0  0  0  0
   -1.2212    1.1806   -0.0314 C   0  0  0  0  0  0  0  0  0  0  0  0
   -2.1476    1.1180   -0.6060 H   0  0  0  0  0  0  0  0  0  0  0  0
   -1.3213    1.9942    0.6884 H   0  0  0  0  0  0  0  0  0  0  0  0
   -0.0750    1.5023   -1.0031 C   0  0  0  0  0  0  0  0  0  0  0  0
    0.8819    1.3151   -0.5152 H   0  0  0  0  0  0  0  0  0  0  0  0
   -0.1593    0.8611   -1.8825 H   0  0  0  0  0  0  0  0  0  0  0  0
   -0.1257    2.9699   -1.4427 C   0  0  0  0  0  0  0  0  0  0  0  0
   -1.0814    3.1749   -1.9261 H   0  0  0  0  0  0  0  0  0  0  0  0
   -0.0179    3.6147   -0.5701 H   0  0  0  0  0  0  0  0  0  0  0  0
    1.0078    3.2561   -2.4258 C   0  0  0  0  0  0  0  0  0  0  0  0
    1.9639    3.0699   -1.9393 H   0  0  0  0  0  0  0  0  0  0  0  0
    0.9118    2.6006   -3.2898 H   0  0  0  0  0  0  0  0  0  0  0  0
    0.9743    4.6491   -2.8859 N   0  0  0  0  0  0  0  0  0  0  0  0
    1.7430    4.8061   -3.5211 H   0  0  0  0  0  0  0  0  0  0  0  0
    0.1021    4.8185   -3.3664 H   0  0  0  0  0  0  0  0  0  0  0  0
   -0.5564    0.0727    2.1744 C   0  0  0  0  0  0  0  0  0  0  0  0
    0.6169   -0.1288    2.4805 O   0  0  0  0  0  0  0  0  0  0  0  0
   -1.4759    0.4743    3.0595 N   0  0  0  0  0  0  0  0  0  0  0  0
   -2.4132    0.6318    2.7275 H   0  0  0  0  0  0  0  0  0  0  0  0
   -1.1971    0.7118    4.4750 C   0  0  0  0  0  0  0  0  0  0  0  0
   -0.3779    1.4272    4.5748 H   0  0  0  0  0  0  0  0  0  0  0  0
   -2.0826    1.1064    4.9754 H   0  0  0  0  0  0  0  0  0  0  0  0
   -0.8992   -0.2240    4.9525 H   0  0  0  0  0  0  0  0  0  0  0  0
  5  6  2  0  0  0  0
  5  7  1  0  0  0  0
  2  3  1  0  0  0  0
  2  4  1  0  0  0  0
  2  5  1  0  0  0  0
  1  2  1  0  0  0  0
 26 27  2  0  0  0  0
 26 28  1  0  0  0  0
 23 24  1  0  0  0  0
 23 25  1  0  0  0  0
 20 21  1  0  0  0  0
 20 22  1  0  0  0  0
 20 23  1  0  0  0  0
 17 18  1  0  0  0  0
 17 19  1  0  0  0  0
 17 20  1  0  0  0  0
 14 15  1  0  0  0  0
 14 16  1  0  0  0  0
 14 17  1  0  0  0  0
 11 12  1  0  0  0  0
 11 13  1  0  0  0  0
 11 14  1  0  0  0  0
  9 10  1  0  0  0  0
  9 11  1  0  0  0  0
  9 26  1  0  0  0  0
  7  8  1  0  0  0  0
  7  9  1  0  0  0  0
 30 31  1  0  0  0  0
 30 32  1  0  0  0  0
 30 33  1  0  0  0  0
 28 29  1  0  0  0  0
 28 30  1  0  0  0  0
M  END
$$$$
default_name
  -OEChem-02102213163D

 33 32  0     1  0  0  0  0  0999 V2000
   -3.8420   -3.6918    1.5562 H   0  0  0  0  0  0  0  0  0  0  0  0
   -3.8430   -2.7008    1.1032 C   0  0  0  0  0  0  0  0  0  0  0  0
   -4.5510   -2.0608    1.6242 H   0  0  0  0  0  0  0  0  0  0  0  0
   -4.1140   -2.7798    0.0522 H   0  0  0  0  0  0  0  0  0  0  0  0
   -2.4570   -2.1098    1.2172 C   0  0  0  0  0  0  0  0  0  0  0  0
   -1.5600   -2.7438    1.7572 O   0  0  0  0  0  0  0  0  0  0  0  0
   -2.2870   -0.8898    0.7102 N   0  0  0  0  0  0  0  0  0  0  0  0
   -3.0820   -0.4218    0.2992 H   0  0  0  0  0  0  0  0  0  0  0  0
   -1.0240   -0.1468    0.7262 C   0  0  1  0  0  0  0  0  0  0  0  0
   -0.2680   -0.7367    0.2062 H   0  0  0  0  0  0  0  0  0  0  0  0
   -1.2212    1.1806   -0.0314 C   0  0  0  0  0  0  0  0  0  0  0  0
   -2.1476    1.1180   -0.6060 H   0  0  0  0  0  0  0  0  0  0  0  0
   -1.3213    1.9942    0.6884 H   0  0  0  0  0  0  0  0  0  0  0  0
   -0.0750    1.5023   -1.0031 C   0  0  0  0  0  0  0  0  0  0  0  0
    0.8544    1.0733   -0.6277 H   0  0  0  0  0  0  0  0  0  0  0  0
   -0.2999    1.0691   -1.9795 H   0  0  0  0  0  0  0  0  0  0  0  0
    0.1063    3.0170   -1.1535 C   0  0  0  0  0  0  0  0  0  0  0  0
   -0.8187    3.4621   -1.5212 H   0  0  0  0  0  0  0  0  0  0  0  0
    0.3547    3.4513   -0.1847 H   0  0  0  0  0  0  0  0  0  0  0  0
    1.2335    3.3085   -2.1421 C   0  0  0  0  0  0  0  0  0  0  0  0
    2.1623    2.8809   -1.7678 H   0  0  0  0  0  0  0  0  0  0  0  0
    0.9953    2.8603   -3.1053 H   0  0  0  0  0  0  0  0  0  0  0  0
    1.4185    4.7524   -2.3278 N   0  0  0  0  0  0  0  0  0  0  0  0
    2.1779    4.9080   -2.9744 H   0  0  0  0  0  0  0  0  0  0  0  0
    0.5698    5.1493   -2.7053 H   0  0  0  0  0  0  0  0  0  0  0  0
   -0.5564    0.0727    2.1744 C   0  0  0  0  0  0  0  0  0  0  0  0
    0.6169   -0.1288    2.4805 O   0  0  0  0  0  0  0  0  0  0  0  0
   -1.4759    0.4743    3.0595 N   0  0  0  0  0  0  0  0  0  0  0  0
   -2.4132    0.6318    2.7275 H   0  0  0  0  0  0  0  0  0  0  0  0
   -1.1971    0.7118    4.4750 C   0  0  0  0  0  0  0  0  0  0  0  0
   -0.3779    1.4272    4.5748 H   0  0  0  0  0  0  0  0  0  0  0  0
   -2.0826    1.1064    4.9754 H   0  0  0  0  0  0  0  0  0  0  0  0
   -0.8992   -0.2240    4.9525 H   0  0  0  0  0  0  0  0  0  0  0  0
  5  6  2  0  0  0  0
  5  7  1  0  0  0  0
  2  3  1  0  0  0  0
  2  4  1  0  0  0  0
  2  5  1  0  0  0  0
  1  2  1  0  0  0  0
 26 27  2  0  0  0  0
 26 28  1  0  0  0  0
 23 24  1  0  0  0  0
 23 25  1  0  0  0  0
 20 21  1  0  0  0  0
 20 22  1  0  0  0  0
 20 23  1  0  0  0  0
 17 18  1  0  0  0  0
 17 19  1  0  0  0  0
 17 20  1  0  0  0  0
 14 15  1  0  0  0  0
 14 16  1  0  0  0  0
 14 17  1  0  0  0  0
 11 12  1  0  0  0  0
 11 13  1  0  0  0  0
 11 14  1  0  0  0  0
  9 10  1  0  0  0  0
  9 11  1  0  0  0  0
  9 26  1  0  0  0  0
  7  8  1  0  0  0  0
  7  9  1  0  0  0  0
 30 31  1  0  0  0  0
 30 32  1  0  0  0  0
 30 33  1  0  0  0  0
 28 29  1  0  0  0  0
 28 30  1  0  0  0  0
M  END
$$$$
default_name
  -OEChem-02102213163D

 33 32  0     1  0  0  0  0  0999 V2000
   -3.8420   -3.6918    1.5562 H   0  0  0  0  0  0  0  0  0  0  0  0
   -3.8430   -2.7008    1.1032 C   0  0  0  0  0  0  0  0  0  0  0  0
   -4.5510   -2.0608    1.6242 H   0  0  0  0  0  0  0  0  0  0  0  0
   -4.1140   -2.7798    0.0522 H   0  0  0  0  0  0  0  0  0  0  0  0
   -2.4570   -2.1098    1.2172 C   0  0  0  0  0  0  0  0  0  0  0  0
   -1.5600   -2.7438    1.7572 O   0  0  0  0  0  0  0  0  0  0  0  0
   -2.2870   -0.8898    0.7102 N   0  0  0  0  0  0  0  0  0  0  0  0
   -3.0820   -0.4218    0.2992 H   0  0  0  0  0  0  0  0  0  0  0  0
   -1.0240   -0.1468    0.7262 C   0  0  1  0  0  0  0  0  0  0  0  0
   -0.2680   -0.7367    0.2062 H   0  0  0  0  0  0  0  0  0  0  0  0
   -1.2212    1.1806   -0.0314 C   0  0  0  0  0  0  0  0  0  0  0  0
   -2.1476    1.1180   -0.6060 H   0  0  0  0  0  0  0  0  0  0  0  0
   -1.3213    1.9942    0.6884 H   0  0  0  0  0  0  0  0  0  0  0  0
   -0.0750    1.5023   -1.0031 C   0  0  0  0  0  0  0  0  0  0  0  0
    0.7822    0.8659   -0.7816 H   0  0  0  0  0  0  0  0  0  0  0  0
   -0.4069    1.3117   -2.0254 H   0  0  0  0  0  0  0  0  0  0  0  0
    0.3538    2.9686   -0.8775 C   0  0  0  0  0  0  0  0  0  0  0  0
   -0.4960    3.6183   -1.0889 H   0  0  0  0  0  0  0  0  0  0  0  0
    0.7088    3.1581    0.1359 H   0  0  0  0  0  0  0  0  0  0  0  0
    1.4756    3.2675   -1.8702 C   0  0  0  0  0  0  0  0  0  0  0  0
    2.3323    2.6328   -1.6494 H   0  0  0  0  0  0  0  0  0  0  0  0
    1.1285    3.0619   -2.8815 H   0  0  0  0  0  0  0  0  0  0  0  0
    1.8946    4.6717   -1.7929 N   0  0  0  0  0  0  0  0  0  0  0  0
    2.6442    4.8297   -2.4503 H   0  0  0  0  0  0  0  0  0  0  0  0
    1.1115    5.2646   -2.0282 H   0  0  0  0  0  0  0  0  0  0  0  0
   -0.5564    0.0727    2.1744 C   0  0  0  0  0  0  0  0  0  0  0  0
    0.6169   -0.1288    2.4805 O   0  0  0  0  0  0  0  0  0  0  0  0
   -1.4759    0.4743    3.0595 N   0  0  0  0  0  0  0  0  0  0  0  0
   -2.4132    0.6318    2.7275 H   0  0  0  0  0  0  0  0  0  0  0  0
   -1.1971    0.7118    4.4750 C   0  0  0  0  0  0  0  0  0  0  0  0
   -0.3779    1.4272    4.5748 H   0  0  0  0  0  0  0  0  0  0  0  0
   -2.0826    1.1064    4.9754 H   0  0  0  0  0  0  0  0  0  0  0  0
   -0.8992   -0.2240    4.9525 H   0  0  0  0  0  0  0  0  0  0  0  0
  5  6  2  0  0  0  0
  5  7  1  0  0  0  0
  2  3  1  0  0  0  0
  2  4  1  0  0  0  0
  2  5  1  0  0  0  0
  1  2  1  0  0  0  0
 26 27  2  0  0  0  0
 26 28  1  0  0  0  0
 23 24  1  0  0  0  0
 23 25  1  0  0  0  0
 20 21  1  0  0  0  0
 20 22  1  0  0  0  0
 20 23  1  0  0  0  0
 17 18  1  0  0  0  0
 17 19  1  0  0  0  0
 17 20  1  0  0  0  0
 14 15  1  0  0  0  0
 14 16  1  0  0  0  0
 14 17  1  0  0  0  0
 11 12  1  0  0  0  0
 11 13  1  0  0  0  0
 11 14  1  0  0  0  0
  9 10  1  0  0  0  0
  9 11  1  0  0  0  0
  9 26  1  0  0  0  0
  7  8  1  0  0  0  0
  7  9  1  0  0  0  0
 30 31  1  0  0  0  0
 30 32  1  0  0  0  0
 30 33  1  0  0  0  0
 28 29  1  0  0  0  0
 28 30  1  0  0  0  0
M  END
$$$$
default_name
  -OEChem-02102213163D

 33 32  0     1  0  0  0  0  0999 V2000
   -3.8420   -3.6918    1.5562 H   0  0  0  0  0  0  0  0  0  0  0  0
   -3.8430   -2.7008    1.1032 C   0  0  0  0  0  0  0  0  0  0  0  0
   -4.5510   -2.0608    1.6242 H   0  0  0  0  0  0  0  0  0  0  0  0
   -4.1140   -2.7798    0.0522 H   0  0  0  0  0  0  0  0  0  0  0  0
   -2.4570   -2.1098    1.2172 C   0  0  0  0  0  0  0  0  0  0  0  0
   -1.5600   -2.7438    1.7572 O   0  0  0  0  0  0  0  0  0  0  0  0
   -2.2870   -0.8898    0.7102 N   0  0  0  0  0  0  0  0  0  0  0  0
   -3.0820   -0.4218    0.2992 H   0  0  0  0  0  0  0  0  0  0  0  0
   -1.0240   -0.1468    0.7262 C   0  0  1  0  0  0  0  0  0  0  0  0
   -0.2680   -0.7367    0.2062 H   0  0  0  0  0  0  0  0  0  0  0  0
   -1.2212    1.1806   -0.0314 C   0  0  0  0  0  0  0  0  0  0  0  0
   -2.1476    1.1180   -0.6060 H   0  0  0  0  0  0  0  0  0  0  0  0
   -1.3213    1.9942    0.6884 H   0  0  0  0  0  0  0  0  0  0  0  0
   -0.0750    1.5023   -1.0031 C   0  0  0  0  0  0  0  0  0  0  0  0
    0.6701    0.7071   -0.9663 H   0  0  0  0  0  0  0  0  0  0  0  0
   -0.4731    1.5724   -2.0171 H   0  0  0  0  0  0  0  0  0  0  0  0
    0.5999    2.8281   -0.6338 C   0  0  0  0  0  0  0  0  0  0  0  0
   -0.1354    3.6330   -0.6586 H   0  0  0  0  0  0  0  0  0  0  0  0
    1.0201    2.7550    0.3697 H   0  0  0  0  0  0  0  0  0  0  0  0
    1.7174    3.1357   -1.6286 C   0  0  0  0  0  0  0  0  0  0  0  0
    2.4623    2.3424   -1.5922 H   0  0  0  0  0  0  0  0  0  0  0  0
    1.3023    3.1916   -2.6336 H   0  0  0  0  0  0  0  0  0  0  0  0
    2.3703    4.4125   -1.3175 N   0  0  0  0  0  0  0  0  0  0  0  0
    3.1102    4.5766   -1.9844 H   0  0  0  0  0  0  0  0  0  0  0  0
    1.6902    5.1567   -1.3812 H   0  0  0  0  0  0  0  0  0  0  0  0
   -0.5564    0.0727    2.1744 C   0  0  0  0  0  0  0  0  0  0  0  0
    0.6169   -0.1288    2.4805 O   0  0  0  0  0  0  0  0  0  0  0  0
   -1.4759    0.4743    3.0595 N   0  0  0  0  0  0  0  0  0  0  0  0
   -2.4132    0.6318    2.7275 H   0  0  0  0  0  0  0  0  0  0  0  0
   -1.1971    0.7118    4.4750 C   0  0  0  0  0  0  0  0  0  0  0  0
   -0.3779    1.4272    4.5748 H   0  0  0  0  0  0  0  0  0  0  0  0
   -2.0826    1.1064    4.9754 H   0  0  0  0  0  0  0  0  0  0  0  0
   -0.8992   -0.2240    4.9525 H   0  0  0  0  0  0  0  0  0  0  0  0
  5  6  2  0  0  0  0
  5  7  1  0  0  0  0
  2  3  1  0  0  0  0
  2  4  1  0  0  0  0
  2  5  1  0  0  0  0
  1  2  1  0  0  0  0
 26 27  2  0  0  0  0
 26 28  1  0  0  0  0
 23 24  1  0  0  0  0
 23 25  1  0  0  0  0
 20 21  1  0  0  0  0
 20 22  1  0  0  0  0
 20 23  1  0  0  0  0
 17 18  1  0  0  0  0
 17 19  1  0  0  0  0
 17 20  1  0  0  0  0
 14 15  1  0  0  0  0
 14 16  1  0  0  0  0
 14 17  1  0  0  0  0
 11 12  1  0  0  0  0
 11 13  1  0  0  0  0
 11 14  1  0  0  0  0
  9 10  1  0  0  0  0
  9 11  1  0  0  0  0
  9 26  1  0  0  0  0
  7  8  1  0  0  0  0
  7  9  1  0  0  0  0
 30 31  1  0  0  0  0
 30 32  1  0  0  0  0
 30 33  1  0  0  0  0
 28 29  1  0  0  0  0
 28 30  1  0  0  0  0
M  END
$$$$
default_name
  -OEChem-02102213163D

 33 32  0     1  0  0  0  0  0999 V2000
   -3.8420   -3.6918    1.5562 H   0  0  0  0  0  0  0  0  0  0  0  0
   -3.8430   -2.7008    1.1032 C   0  0  0  0  0  0  0  0  0  0  0  0
   -4.5510   -2.0608    1.6242 H   0  0  0  0  0  0  0  0  0  0  0  0
   -4.1140   -2.7798    0.0522 H   0  0  0  0  0  0  0  0  0  0  0  0
   -2.4570   -2.1098    1.2172 C   0  0  0  0  0  0  0  0  0  0  0  0
   -1.5600   -2.7438    1.7572 O   0  0  0  0  0  0  0  0  0  0  0  0
   -2.2870   -0.8898    0.7102 N   0  0  0  0  0  0  0  0  0  0  0  0
   -3.0820   -0.4218    0.2992 H   0  0  0  0  0  0  0  0  0  0  0  0
   -1.0240   -0.1468    0.7262 C   0  0  1  0  0  0  0  0  0  0  0  0
   -0.2680   -0.7367    0.2062 H   0  0  0  0  0  0  0  0  0  0  0  0
   -1.2212    1.1806   -0.0314 C   0  0  0  0  0  0  0  0  0  0  0  0
   -2.1476    1.1180   -0.6060 H   0  0  0  0  0  0  0  0  0  0  0  0
   -1.3213    1.9942    0.6884 H   0  0  0  0  0  0  0  0  0  0  0  0
   -0.0750    1.5023   -1.0031 C   0  0  0  0  0  0  0  0  0  0  0  0
    0.5259    0.6078   -1.1693 H   0  0  0  0  0  0  0  0  0  0  0  0
   -0.4938    1.8335   -1.9552 H   0  0  0  0  0  0  0  0  0  0  0  0
    0.8278    2.6051   -0.4388 C   0  0  0  0  0  0  0  0  0  0  0  0
    0.2387    3.5051   -0.2597 H   0  0  0  0  0  0  0  0  0  0  0  0
    1.2676    2.2695    0.5009 H   0  0  0  0  0  0  0  0  0  0  0  0
    1.9425    2.9223   -1.4337 C   0  0  0  0  0  0  0  0  0  0  0  0
    2.5434    2.0297   -1.6000 H   0  0  0  0  0  0  0  0  0  0  0  0
    1.5048    3.2405   -2.3785 H   0  0  0  0  0  0  0  0  0  0  0  0
    2.8132    3.9926   -0.9342 N   0  0  0  0  0  0  0  0  0  0  0  0
    3.5442    4.1659   -1.6084 H   0  0  0  0  0  0  0  0  0  0  0  0
    2.2667    4.8328   -0.8085 H   0  0  0  0  0  0  0  0  0  0  0  0
   -0.5564    0.0727    2.1744 C   0  0  0  0  0  0  0  0  0  0  0  0
    0.6169   -0.1288    2.4805 O   0  0  0  0  0  0  0  0  0  0  0  0
   -1.4759    0.4743    3.0595 N   0  0  0  0  0  0  0  0  0  0  0  0
   -2.4132    0.6318    2.7275 H   0  0  0  0  0  0  0  0  0  0  0  0
   -1.1971    0.7118    4.4750 C   0  0  0  0  0  0  0  0  0  0  0  0
   -0.3779    1.4272    4.5748 H   0  0  0  0  0  0  0  0  0  0  0  0
   -2.0826    1.1064    4.9754 H   0  0  0  0  0  0  0  0  0  0  0  0
   -0.8992   -0.2240    4.9525 H   0  0  0  0  0  0  0  0  0  0  0  0
  5  6  2  0  0  0  0
  5  7  1  0  0  0  0
  2  3  1  0  0  0  0
  2  4  1  0  0  0  0
  2  5  1  0  0  0  0
  1  2  1  0  0  0  0
 26 27  2  0  0  0  0
 26 28  1  0  0  0  0
 23 24  1  0  0  0  0
 23 25  1  0  0  0  0
 20 21  1  0  0  0  0
 20 22  1  0  0  0  0
 20 23  1  0  0  0  0
 17 18  1  0  0  0  0
 17 19  1  0  0  0  0
 17 20  1  0  0  0  0
 14 15  1  0  0  0  0
 14 16  1  0  0  0  0
 14 17  1  0  0  0  0
 11 12  1  0  0  0  0
 11 13  1  0  0  0  0
 11 14  1  0  0  0  0
  9 10  1  0  0  0  0
  9 11  1  0  0  0  0
  9 26  1  0  0  0  0
  7  8  1  0  0  0  0
  7  9  1  0  0  0  0
 30 31  1  0  0  0  0
 30 32  1  0  0  0  0
 30 33  1  0  0  0  0
 28 29  1  0  0  0  0
 28 30  1  0  0  0  0
M  END
$$$$
default_name
  -OEChem-02102213163D

 33 32  0     1  0  0  0  0  0999 V2000
   -3.8420   -3.6918    1.5562 H   0  0  0  0  0  0  0  0  0  0  0  0
   -3.8430   -2.7008    1.1032 C   0  0  0  0  0  0  0  0  0  0  0  0
   -4.5510   -2.0608    1.6242 H   0  0  0  0  0  0  0  0  0  0  0  0
   -4.1140   -2.7798    0.0522 H   0  0  0  0  0  0  0  0  0  0  0  0
   -2.4570   -2.1098    1.2172 C   0  0  0  0  0  0  0  0  0  0  0  0
   -1.5600   -2.7438    1.7572 O   0  0  0  0  0  0  0  0  0  0  0  0
   -2.2870   -0.8898    0.7102 N   0  0  0  0  0  0  0  0  0  0  0  0
   -3.0820   -0.4218    0.2992 H   0  0  0  0  0  0  0  0  0  0  0  0
   -1.0240   -0.1468    0.7262 C   0  0  1  0  0  0  0  0  0  0  0  0
   -0.2680   -0.7367    0.2062 H   0  0  0  0  0  0  0  0  0  0  0  0
   -1.2212    1.1806   -0.0314 C   0  0  0  0  0  0  0  0  0  0  0  0
   -2.1476    1.1180   -0.6060 H   0  0  0  0  0  0  0  0  0  0  0  0
   -1.3213    1.9942    0.6884 H   0  0  0  0  0  0  0  0  0  0  0  0
   -0.0750    1.5023   -1.0031 C   0  0  0  0  0  0  0  0  0  0  0  0
    0.3593    0.5746   -1.3768 H   0  0  0  0  0  0  0  0  0  0  0  0
   -0.4678    2.0771   -1.8438 H   0  0  0  0  0  0  0  0  0  0  0  0
    1.0220    2.3147   -0.3058 C   0  0  0  0  0  0  0  0  0  0  0  0
    0.6008    3.2433    0.0806 H   0  0  0  0  0  0  0  0  0  0  0  0
    1.4342    1.7348    0.5204 H   0  0  0  0  0  0  0  0  0  0  0  0
    2.1355    2.6416   -1.2990 C   0  0  0  0  0  0  0  0  0  0  0  0
    2.5702    1.7158   -1.6723 H   0  0  0  0  0  0  0  0  0  0  0  0
    1.7222    3.2054   -2.1336 H   0  0  0  0  0  0  0  0  0  0  0  0
    3.1930    3.4405   -0.6690 N   0  0  0  0  0  0  0  0  0  0  0  0
    3.9165    3.6256   -1.3481 H   0  0  0  0  0  0  0  0  0  0  0  0
    2.8015    4.3150   -0.3491 H   0  0  0  0  0  0  0  0  0  0  0  0
   -0.5564    0.0727    2.1744 C   0  0  0  0  0  0  0  0  0  0  0  0
    0.6169   -0.1288    2.4805 O   0  0  0  0  0  0  0  0  0  0  0  0
   -1.4759    0.4743    3.0595 N   0  0  0  0  0  0  0  0  0  0  0  0
   -2.4132    0.6318    2.7275 H   0  0  0  0  0  0  0  0  0  0  0  0
   -1.1971    0.7118    4.4750 C   0  0  0  0  0  0  0  0  0  0  0  0
   -0.3779    1.4272    4.5748 H   0  0  0  0  0  0  0  0  0  0  0  0
   -2.0826    1.1064    4.9754 H   0  0  0  0  0  0  0  0  0  0  0  0
   -0.8992   -0.2240    4.9525 H   0  0  0  0  0  0  0  0  0  0  0  0
  5  6  2  0  0  0  0
  5  7  1  0  0  0  0
  2  3  1  0  0  0  0
  2  4  1  0  0  0  0
  2  5  1  0  0  0  0
  1  2  1  0  0  0  0
 26 27  2  0  0  0  0
 26 28  1  0  0  0  0
 23 24  1  0  0  0  0
 23 25  1  0  0  0  0
 20 21  1  0  0  0  0
 20 22  1  0  0  0  0
 20 23  1  0  0  0  0
 17 18  1  0  0  0  0
 17 19  1  0  0  0  0
 17 20  1  0  0  0  0
 14 15  1  0  0  0  0
 14 16  1  0  0  0  0
 14 17  1  0  0  0  0
 11 12  1  0  0  0  0
 11 13  1  0  0  0  0
 11 14  1  0  0  0  0
  9 10  1  0  0  0  0
  9 11  1  0  0  0  0
  9 26  1  0  0  0  0
  7  8  1  0  0  0  0
  7  9  1  0  0  0  0
 30 31  1  0  0  0  0
 30 32  1  0  0  0  0
 30 33  1  0  0  0  0
 28 29  1  0  0  0  0
 28 30  1  0  0  0  0
M  END
$$$$
default_name
  -OEChem-02102213163D

 33 32  0     1  0  0  0  0  0999 V2000
   -3.8420   -3.6918    1.5562 H   0  0  0  0  0  0  0  0  0  0  0  0
   -3.8430   -2.7008    1.1032 C   0  0  0  0  0  0  0  0  0  0  0  0
   -4.5510   -2.0608    1.6242 H   0  0  0  0  0  0  0  0  0  0  0  0
   -4.1140   -2.7798    0.0522 H   0  0  0  0  0  0  0  0  0  0  0  0
   -2.4570   -2.1098    1.2172 C   0  0  0  0  0  0  0  0  0  0  0  0
   -1.5600   -2.7438    1.7572 O   0  0  0  0  0  0  0  0  0  0  0  0
   -2.2870   -0.8898    0.7102 N   0  0  0  0  0  0  0  0  0  0  0  0
   -3.0820   -0.4218    0.2992 H   0  0  0  0  0  0  0  0  0  0  0  0
   -1.0240   -0.1468    0.7262 C   0  0  1  0  0  0  0  0  0  0  0  0
   -0.2680   -0.7367    0.2062 H   0  0  0  0  0  0  0  0  0  0  0  0
   -1.2212    1.1806   -0.0314 C   0  0  0  0  0  0  0  0  0  0  0  0
   -2.1476    1.1180   -0.6060 H   0  0  0  0  0  0  0  0  0  0  0  0
   -1.3213    1.9942    0.6884 H   0  0  0  0  0  0  0  0  0  0  0  0
   -0.0750    1.5023   -1.0031 C   0  0  0  0  0  0  0  0  0  0  0  0
    0.1817    0.6099   -1.5745 H   0  0  0  0  0  0  0  0  0  0  0  0
   -0.3968    2.2866   -1.6907 H   0  0  0  0  0  0  0  0  0  0  0  0
    1.1693    1.9768   -0.2440 C   0  0  0  0  0  0  0  0  0  0  0  0
    0.9260    2.8655    0.3392 H   0  0  0  0  0  0  0  0  0  0  0  0
    1.5088    1.1873    0.4271 H   0  0  0  0  0  0  0  0  0  0  0  0
    2.2834    2.3129   -1.2334 C   0  0  0  0  0  0  0  0  0  0  0  0
    2.5408    1.4221   -1.8042 H   0  0  0  0  0  0  0  0  0  0  0  0
    1.9398    3.0887   -1.9157 H   0  0  0  0  0  0  0  0  0  0  0  0
    3.4838    2.7939   -0.5400 N   0  0  0  0  0  0  0  0  0  0  0  0
    4.2019    2.9926   -1.2211 H   0  0  0  0  0  0  0  0  0  0  0  0
    3.2582    3.6387   -0.0342 H   0  0  0  0  0  0  0  0  0  0  0  0
   -0.5564    0.0727    2.1744 C   0  0  0  0  0  0  0  0  0  0  0  0
    0.6169   -0.1288    2.4805 O   0  0  0  0  0  0  0  0  0  0  0  0
   -1.4759    0.4743    3.0595 N   0  0  0  0  0  0  0  0  0  0  0  0
   -2.4132    0.6318    2.7275 H   0  0  0  0  0  0  0  0  0  0  0  0
   -1.1971    0.7118    4.4750 C   0  0  0  0  0  0  0  0  0  0  0  0
   -0.3779    1.4272    4.5748 H   0  0  0  0  0  0  0  0  0  0  0  0
   -2.0826    1.1064    4.9754 H   0  0  0  0  0  0  0  0  0  0  0  0
   -0.8992   -0.2240    4.9525 H   0  0  0  0  0  0  0  0  0  0  0  0
  5  6  2  0  0  0  0
  5  7  1  0  0  0  0
  2  3  1  0  0  0  0
  2  4  1  0  0  0  0
  2  5  1  0  0  0  0
  1  2  1  0  0  0  0
 26 27  2  0  0  0  0
 26 28  1  0  0  0  0
 23 24  1  0  0  0  0
 23 25  1  0  0  0  0
 20 21  1  0  0  0  0
 20 22  1  0  0  0  0
 20 23  1  0  0  0  0
 17 18  1  0  0  0  0
 17 19  1  0  0  0  0
 17 20  1  0  0  0  0
 14 15  1  0  0  0  0
 14 16  1  0  0  0  0
 14 17  1  0  0  0  0
 11 12  1  0  0  0  0
 11 13  1  0  0  0  0
 11 14  1  0  0  0  0
  9 10  1  0  0  0  0
  9 11  1  0  0  0  0
  9 26  1  0  0  0  0
  7  8  1  0  0  0  0
  7  9  1  0  0  0  0
 30 31  1  0  0  0  0
 30 32  1  0  0  0  0
 30 33  1  0  0  0  0
 28 29  1  0  0  0  0
 28 30  1  0  0  0  0
M  END
$$$$
default_name
  -OEChem-02102213163D

 33 32  0     1  0  0  0  0  0999 V2000
   -3.8420   -3.6918    1.5562 H   0  0  0  0  0  0  0  0  0  0  0  0
   -3.8430   -2.7008    1.1032 C   0  0  0  0  0  0  0  0  0  0  0  0
   -4.5510   -2.0608    1.6242 H   0  0  0  0  0  0  0  0  0  0  0  0
   -4.1140   -2.7798    0.0522 H   0  0  0  0  0  0  0  0  0  0  0  0
   -2.4570   -2.1098    1.2172 C   0  0  0  0  0  0  0  0  0  0  0  0
   -1.5600   -2.7438    1.7572 O   0  0  0  0  0  0  0  0  0  0  0  0
   -2.2870   -0.8898    0.7102 N   0  0  0  0  0  0  0  0  0  0  0  0
   -3.0820   -0.4218    0.2992 H   0  0  0  0  0  0  0  0  0  0  0  0
   -1.0240   -0.1468    0.7262 C   0  0  1  0  0  0  0  0  0  0  0  0
   -0.2680   -0.7367    0.2062 H   0  0  0  0  0  0  0  0  0  0  0  0
   -1.2212    1.1806   -0.0314 C   0  0  0  0  0  0  0  0  0  0  0  0
   -2.1476    1.1180   -0.6060 H   0  0  0  0  0  0  0  0  0  0  0  0
   -1.3213    1.9942    0.6884 H   0  0  0  0  0  0  0  0  0  0  0  0
   -0.0750    1.5023   -1.0031 C   0  0  0  0  0  0  0  0  0  0  0  0
    0.0053    0.7112   -1.7491 H   0  0  0  0  0  0  0  0  0  0  0  0
   -0.2856    2.4479   -1.5062 H   0  0  0  0  0  0  0  0  0  0  0  0
    1.2596    1.6143   -0.2574 C   0  0  0  0  0  0  0  0  0  0  0  0
    1.1924    2.3973    0.4985 H   0  0  0  0  0  0  0  0  0  0  0  0
    1.4861    0.6642    0.2272 H   0  0  0  0  0  0  0  0  0  0  0  0
    2.3759    1.9585   -1.2415 C   0  0  0  0  0  0  0  0  0  0  0  0
    2.4572    1.1688   -1.9867 H   0  0  0  0  0  0  0  0  0  0  0  0
    2.1426    2.8982   -1.7394 H   0  0  0  0  0  0  0  0  0  0  0  0
    3.6659    2.0968   -0.5559 N   0  0  0  0  0  0  0  0  0  0  0  0
    4.3807    2.3098   -1.2361 H   0  0  0  0  0  0  0  0  0  0  0  0
    3.6058    2.8499    0.1146 H   0  0  0  0  0  0  0  0  0  0  0  0
   -0.5564    0.0727    2.1744 C   0  0  0  0  0  0  0  0  0  0  0  0
    0.6169   -0.1288    2.4805 O   0  0  0  0  0  0  0  0  0  0  0  0
   -1.4759    0.4743    3.0595 N   0  0  0  0  0  0  0  0  0  0  0  0
   -2.4132    0.6318    2.7275 H   0  0  0  0  0  0  0  0  0  0  0  0
   -1.1971    0.7118    4.4750 C   0  0  0  0  0  0  0  0  0  0  0  0
   -0.3779    1.4272    4.5748 H   0  0  0  0  0  0  0  0  0  0  0  0
   -2.0826    1.1064    4.9754 H   0  0  0  0  0  0  0  0  0  0  0  0
   -0.8992   -0.2240    4.9525 H   0  0  0  0  0  0  0  0  0  0  0  0
  5  6  2  0  0  0  0
  5  7  1  0  0  0  0
  2  3  1  0  0  0  0
  2  4  1  0  0  0  0
  2  5  1  0  0  0  0
  1  2  1  0  0  0  0
 26 27  2  0  0  0  0
 26 28  1  0  0  0  0
 23 24  1  0  0  0  0
 23 25  1  0  0  0  0
 20 21  1  0  0  0  0
 20 22  1  0  0  0  0
 20 23  1  0  0  0  0
 17 18  1  0  0  0  0
 17 19  1  0  0  0  0
 17 20  1  0  0  0  0
 14 15  1  0  0  0  0
 14 16  1  0  0  0  0
 14 17  1  0  0  0  0
 11 12  1  0  0  0  0
 11 13  1  0  0  0  0
 11 14  1  0  0  0  0
  9 10  1  0  0  0  0
  9 11  1  0  0  0  0
  9 26  1  0  0  0  0
  7  8  1  0  0  0  0
  7  9  1  0  0  0  0
 30 31  1  0  0  0  0
 30 32  1  0  0  0  0
 30 33  1  0  0  0  0
 28 29  1  0  0  0  0
 28 30  1  0  0  0  0
M  END
$$$$
default_name
  -OEChem-02102213163D

 33 32  0     1  0  0  0  0  0999 V2000
   -3.8420   -3.6918    1.5562 H   0  0  0  0  0  0  0  0  0  0  0  0
   -3.8430   -2.7008    1.1032 C   0  0  0  0  0  0  0  0  0  0  0  0
   -4.5510   -2.0608    1.6242 H   0  0  0  0  0  0  0  0  0  0  0  0
   -4.1140   -2.7798    0.0522 H   0  0  0  0  0  0  0  0  0  0  0  0
   -2.4570   -2.1098    1.2172 C   0  0  0  0  0  0  0  0  0  0  0  0
   -1.5600   -2.7438    1.7572 O   0  0  0  0  0  0  0  0  0  0  0  0
   -2.2870   -0.8898    0.7102 N   0  0  0  0  0  0  0  0  0  0  0  0
   -3.0820   -0.4218    0.2992 H   0  0  0  0  0  0  0  0  0  0  0  0
   -1.0240   -0.1468    0.7262 C   0  0  1  0  0  0  0  0  0  0  0  0
   -0.2680   -0.7367    0.2062 H   0  0  0  0  0  0  0  0  0  0  0  0
   -1.2212    1.1806   -0.0314 C   0  0  0  0  0  0  0  0  0  0  0  0
   -2.1476    1.1180   -0.6060 H   0  0  0  0  0  0  0  0  0  0  0  0
   -1.3213    1.9942    0.6884 H   0  0  0  0  0  0  0  0  0  0  0  0
   -0.0750    1.5023   -1.0031 C   0  0  0  0  0  0  0  0  0  0  0  0
   -0.1581    0.8716   -1.8887 H   0  0  0  0  0  0  0  0  0  0  0  0
   -0.1418    2.5498   -1.3028 H   0  0  0  0  0  0  0  0  0  0  0  0
    1.2867    1.2520   -0.3453 C   0  0  0  0  0  0  0  0  0  0  0  0
    1.3817    1.8708    0.5475 H   0  0  0  0  0  0  0  0  0  0  0  0
    1.3678    0.2013   -0.0656 H   0  0  0  0  0  0  0  0  0  0  0  0
    2.4069    1.6027   -1.3228 C   0  0  0  0  0  0  0  0  0  0  0  0
    2.3251    0.9730   -2.2073 H   0  0  0  0  0  0  0  0  0  0  0  0
    2.3170    2.6471   -1.6170 H   0  0  0  0  0  0  0  0  0  0  0  0
    3.7269    1.3967   -0.7158 N   0  0  0  0  0  0  0  0  0  0  0  0
    4.4410    1.6240   -1.3921 H   0  0  0  0  0  0  0  0  0  0  0  0
    3.8204    2.0023    0.0872 H   0  0  0  0  0  0  0  0  0  0  0  0
   -0.5564    0.0727    2.1744 C   0  0  0  0  0  0  0  0  0  0  0  0
    0.6169   -0.1288    2.4805 O   0  0  0  0  0  0  0  0  0  0  0  0
   -1.4759    0.4743    3.0595 N   0  0  0  0  0  0  0  0  0  0  0  0
   -2.4132    0.6318    2.7275 H   0  0  0  0  0  0  0  0  0  0  0  0
   -1.1971    0.7118    4.4750 C   0  0  0  0  0  0  0  0  0  0  0  0
   -0.3779    1.4272    4.5748 H   0  0  0  0  0  0  0  0  0  0  0  0
   -2.0826    1.1064    4.9754 H   0  0  0  0  0  0  0  0  0  0  0  0
   -0.8992   -0.2240    4.9525 H   0  0  0  0  0  0  0  0  0  0  0  0
  5  6  2  0  0  0  0
  5  7  1  0  0  0  0
  2  3  1  0  0  0  0
  2  4  1  0  0  0  0
  2  5  1  0  0  0  0
  1  2  1  0  0  0  0
 26 27  2  0  0  0  0
 26 28  1  0  0  0  0
 23 24  1  0  0  0  0
 23 25  1  0  0  0  0
 20 21  1  0  0  0  0
 20 22  1  0  0  0  0
 20 23  1  0  0  0  0
 17 18  1  0  0  0  0
 17 19  1  0  0  0  0
 17 20  1  0  0  0  0
 14 15  1  0  0  0  0
 14 16  1  0  0  0  0
 14 17  1  0  0  0  0
 11 12  1  0  0  0  0
 11 13  1  0  0  0  0
 11 14  1  0  0  0  0
  9 10  1  0  0  0  0
  9 11  1  0  0  0  0
  9 26  1  0  0  0  0
  7  8  1  0  0  0  0
  7  9  1  0  0  0  0
 30 31  1  0  0  0  0
 30 32  1  0  0  0  0
 30 33  1  0  0  0  0
 28 29  1  0  0  0  0
 28 30  1  0  0  0  0
M  END
$$$$
default_name
  -OEChem-02102213163D

 33 32  0     1  0  0  0  0  0999 V2000
   -3.8420   -3.6918    1.5562 H   0  0  0  0  0  0  0  0  0  0  0  0
   -3.8430   -2.7008    1.1032 C   0  0  0  0  0  0  0  0  0  0  0  0
   -4.5510   -2.0608    1.6242 H   0  0  0  0  0  0  0  0  0  0  0  0
   -4.1140   -2.7798    0.0522 H   0  0  0  0  0  0  0  0  0  0  0  0
   -2.4570   -2.1098    1.2172 C   0  0  0  0  0  0  0  0  0  0  0  0
   -1.5600   -2.7438    1.7572 O   0  0  0  0  0  0  0  0  0  0  0  0
   -2.2870   -0.8898    0.7102 N   0  0  0  0  0  0  0  0  0  0  0  0
   -3.0820   -0.4218    0.2992 H   0  0  0  0  0  0  0  0  0  0  0  0
   -1.0240   -0.1468    0.7262 C   0  0  1  0  0  0  0  0  0  0  0  0
   -0.2680   -0.7367    0.2062 H   0  0  0  0  0  0  0  0  0  0  0  0
   -1.2212    1.1806   -0.0314 C   0  0  0  0  0  0  0  0  0  0  0  0
   -2.1476    1.1180   -0.6060 H   0  0  0  0  0  0  0  0  0  0  0  0
   -1.3213    1.9942    0.6884 H   0  0  0  0  0  0  0  0  0  0  0  0
   -0.0750    1.5023   -1.0031 C   0  0  0  0  0  0  0  0  0  0  0  0
   -0.2971    1.0802   -1.9836 H   0  0  0  0  0  0  0  0  0  0  0  0
    0.0248    2.5854   -1.0945 H   0  0  0  0  0  0  0  0  0  0  0  0
    1.2489    0.9146   -0.5016 C   0  0  0  0  0  0  0  0  0  0  0  0
    1.4811    1.3218    0.4829 H   0  0  0  0  0  0  0  0  0  0  0  0
    1.1618   -0.1700   -0.4314 H   0  0  0  0  0  0  0  0  0  0  0  0
    2.3741    1.2695   -1.4717 C   0  0  0  0  0  0  0  0  0  0  0  0
    2.1535    0.8481   -2.4511 H   0  0  0  0  0  0  0  0  0  0  0  0
    2.4509    2.3523   -1.5566 H   0  0  0  0  0  0  0  0  0  0  0  0
    3.6625    0.7414   -1.0086 N   0  0  0  0  0  0  0  0  0  0  0  0
    4.3784    0.9818   -1.6785 H   0  0  0  0  0  0  0  0  0  0  0  0
    3.8876    1.1538   -0.1144 H   0  0  0  0  0  0  0  0  0  0  0  0
   -0.5564    0.0727    2.1744 C   0  0  0  0  0  0  0  0  0  0  0  0
    0.6169   -0.1288    2.4805 O   0  0  0  0  0  0  0  0  0  0  0  0
   -1.4759    0.4743    3.0595 N   0  0  0  0  0  0  0  0  0  0  0  0
   -2.4132    0.6318    2.7275 H   0  0  0  0  0  0  0  0  0  0  0  0
   -1.1971    0.7118    4.4750 C   0  0  0  0  0  0  0  0  0  0  0  0
   -0.3779    1.4272    4.5748 H   0  0  0  0  0  0  0  0  0  0  0  0
   -2.0826    1.1064    4.9754 H   0  0  0  0  0  0  0  0  0  0  0  0
   -0.8992   -0.2240    4.9525 H   0  0  0  0  0  0  0  0  0  0  0  0
  5  6  2  0  0  0  0
  5  7  1  0  0  0  0
  2  3  1  0  0  0  0
  2  4  1  0  0  0  0
  2  5  1  0  0  0  0
  1  2  1  0  0  0  0
 26 27  2  0  0  0  0
 26 28  1  0  0  0  0
 23 24  1  0  0  0  0
 23 25  1  0  0  0  0
 20 21  1  0  0  0  0
 20 22  1  0  0  0  0
 20 23  1  0  0  0  0
 17 18  1  0  0  0  0
 17 19  1  0  0  0  0
 17 20  1  0  0  0  0
 14 15  1  0  0  0  0
 14 16  1  0  0  0  0
 14 17  1  0  0  0  0
 11 12  1  0  0  0  0
 11 13  1  0  0  0  0
 11 14  1  0  0  0  0
  9 10  1  0  0  0  0
  9 11  1  0  0  0  0
  9 26  1  0  0  0  0
  7  8  1  0  0  0  0
  7  9  1  0  0  0  0
 30 31  1  0  0  0  0
 30 32  1  0  0  0  0
 30 33  1  0  0  0  0
 28 29  1  0  0  0  0
 28 30  1  0  0  0  0
M  END
$$$$
default_name
  -OEChem-02102213163D

 33 32  0     1  0  0  0  0  0999 V2000
   -3.8420   -3.6918    1.5562 H   0  0  0  0  0  0  0  0  0  0  0  0
   -3.8430   -2.7008    1.1032 C   0  0  0  0  0  0  0  0  0  0  0  0
   -4.5510   -2.0608    1.6242 H   0  0  0  0  0  0  0  0  0  0  0  0
   -4.1140   -2.7798    0.0522 H   0  0  0  0  0  0  0  0  0  0  0  0
   -2.4570   -2.1098    1.2172 C   0  0  0  0  0  0  0  0  0  0  0  0
   -1.5600   -2.7438    1.7572 O   0  0  0  0  0  0  0  0  0  0  0  0
   -2.2870   -0.8898    0.7102 N   0  0  0  0  0  0  0  0  0  0  0  0
   -3.0820   -0.4218    0.2992 H   0  0  0  0  0  0  0  0  0  0  0  0
   -1.0240   -0.1468    0.7262 C   0  0  1  0  0  0  0  0  0  0  0  0
   -0.2680   -0.7367    0.2062 H   0  0  0  0  0  0  0  0  0  0  0  0
   -1.2212    1.1806   -0.0314 C   0  0  0  0  0  0  0  0  0  0  0  0
   -2.1476    1.1180   -0.6060 H   0  0  0  0  0  0  0  0  0  0  0  0
   -1.3213    1.9942    0.6884 H   0  0  0  0  0  0  0  0  0  0  0  0
   -0.0750    1.5023   -1.0031 C   0  0  0  0  0  0  0  0  0  0  0  0
   -0.4024    1.3228   -2.0276 H   0  0  0  0  0  0  0  0  0  0  0  0
    0.2029    2.5524   -0.8954 H   0  0  0  0  0  0  0  0  0  0  0  0
    1.1487    0.6250   -0.7157 C   0  0  0  0  0  0  0  0  0  0  0  0
    1.4837    0.7877    0.3092 H   0  0  0  0  0  0  0  0  0  0  0  0
    0.8823   -0.4243   -0.8453 H   0  0  0  0  0  0  0  0  0  0  0  0
    2.2799    0.9819   -1.6780 C   0  0  0  0  0  0  0  0  0  0  0  0
    1.9540    0.8026   -2.7013 H   0  0  0  0  0  0  0  0  0  0  0  0
    2.5352    2.0340   -1.5625 H   0  0  0  0  0  0  0  0  0  0  0  0
    3.4772    0.1754   -1.4145 N   0  0  0  0  0  0  0  0  0  0  0  0
    4.1974    0.4270   -2.0756 H   0  0  0  0  0  0  0  0  0  0  0  0
    3.8027    0.3621   -0.4767 H   0  0  0  0  0  0  0  0  0  0  0  0
   -0.5564    0.0727    2.1744 C   0  0  0  0  0  0  0  0  0  0  0  0
    0.6169   -0.1288    2.4805 O   0  0  0  0  0  0  0  0  0  0  0  0
   -1.4759    0.4743    3.0595 N   0  0  0  0  0  0  0  0  0  0  0  0
   -2.4132    0.6318    2.7275 H   0  0  0  0  0  0  0  0  0  0  0  0
   -1.1971    0.7118    4.4750 C   0  0  0  0  0  0  0  0  0  0  0  0
   -0.3779    1.4272    4.5748 H   0  0  0  0  0  0  0  0  0  0  0  0
   -2.0826    1.1064    4.9754 H   0  0  0  0  0  0  0  0  0  0  0  0
   -0.8992   -0.2240    4.9525 H   0  0  0  0  0  0  0  0  0  0  0  0
  5  6  2  0  0  0  0
  5  7  1  0  0  0  0
  2  3  1  0  0  0  0
  2  4  1  0  0  0  0
  2  5  1  0  0  0  0
  1  2  1  0  0  0  0
 26 27  2  0  0  0  0
 26 28  1  0  0  0  0
 23 24  1  0  0  0  0
 23 25  1  0  0  0  0
 20 21  1  0  0  0  0
 20 22  1  0  0  0  0
 20 23  1  0  0  0  0
 17 18  1  0  0  0  0
 17 19  1  0  0  0  0
 17 20  1  0  0  0  0
 14 15  1  0  0  0  0
 14 16  1  0  0  0  0
 14 17  1  0  0  0  0
 11 12  1  0  0  0  0
 11 13  1  0  0  0  0
 11 14  1  0  0  0  0
  9 10  1  0  0  0  0
  9 11  1  0  0  0  0
  9 26  1  0  0  0  0
  7  8  1  0  0  0  0
  7  9  1  0  0  0  0
 30 31  1  0  0  0  0
 30 32  1  0  0  0  0
 30 33  1  0  0  0  0
 28 29  1  0  0  0  0
 28 30  1  0  0  0  0
M  END
$$$$
default_name
  -OEChem-02102213163D

 33 32  0     1  0  0  0  0  0999 V2000
   -3.8420   -3.6918    1.5562 H   0  0  0  0  0  0  0  0  0  0  0  0
   -3.8430   -2.7008    1.1032 C   0  0  0  0  0  0  0  0  0  0  0  0
   -4.5510   -2.0608    1.6242 H   0  0  0  0  0  0  0  0  0  0  0  0
   -4.1140   -2.7798    0.0522 H   0  0  0  0  0  0  0  0  0  0  0  0
   -2.4570   -2.1098    1.2172 C   0  0  0  0  0  0  0  0  0  0  0  0
   -1.5600   -2.7438    1.7572 O   0  0  0  0  0  0  0  0  0  0  0  0
   -2.2870   -0.8898    0.7102 N   0  0  0  0  0  0  0  0  0  0  0  0
   -3.0820   -0.4218    0.2992 H   0  0  0  0  0  0  0  0  0  0  0  0
   -1.0240   -0.1468    0.7262 C   0  0  1  0  0  0  0  0  0  0  0  0
   -0.2680   -0.7367    0.2062 H   0  0  0  0  0  0  0  0  0  0  0  0
   -1.2212    1.1806   -0.0314 C   0  0  0  0  0  0  0  0  0  0  0  0
   -2.1476    1.1180   -0.6060 H   0  0  0  0  0  0  0  0  0  0  0  0
   -1.3213    1.9942    0.6884 H   0  0  0  0  0  0  0  0  0  0  0  0
   -0.0750    1.5023   -1.0031 C   0  0  0  0  0  0  0  0  0  0  0  0
   -0.4669    1.5829   -2.0174 H   0  0  0  0  0  0  0  0  0  0  0  0
    0.3802    2.4529   -0.7192 H   0  0  0  0  0  0  0  0  0  0  0  0
    0.9929    0.4031   -0.9729 C   0  0  0  0  0  0  0  0  0  0  0  0
    1.3894    0.3049    0.0381 H   0  0  0  0  0  0  0  0  0  0  0  0
    0.5483   -0.5443   -1.2790 H   0  0  0  0  0  0  0  0  0  0  0  0
    2.1307    0.7593   -1.9278 C   0  0  0  0  0  0  0  0  0  0  0  0
    1.7404    0.8396   -2.9411 H   0  0  0  0  0  0  0  0  0  0  0  0
    2.5643    1.7138   -1.6342 H   0  0  0  0  0  0  0  0  0  0  0  0
    3.1836   -0.2625   -1.9058 N   0  0  0  0  0  0  0  0  0  0  0  0
    3.9103   -0.0026   -2.5565 H   0  0  0  0  0  0  0  0  0  0  0  0
    3.5714   -0.3187   -0.9748 H   0  0  0  0  0  0  0  0  0  0  0  0
   -0.5564    0.0727    2.1744 C   0  0  0  0  0  0  0  0  0  0  0  0
    0.6169   -0.1288    2.4805 O   0  0  0  0  0  0  0  0  0  0  0  0
   -1.4759    0.4743    3.0595 N   0  0  0  0  0  0  0  0  0  0  0  0
   -2.4132    0.6318    2.7275 H   0  0  0  0  0  0  0  0  0  0  0  0
   -1.1971    0.7118    4.4750 C   0  0  0  0  0  0  0  0  0  0  0  0
   -0.3779    1.4272    4.5748 H   0  0  0  0  0  0  0  0  0  0  0  0
   -2.0826    1.1064    4.9754 H   0  0  0  0  0  0  0  0  0  0  0  0
   -0.8992   -0.2240    4.9525 H   0  0  0  0  0  0  0  0  0  0  0  0
  5  6  2  0  0  0  0
  5  7  1  0  0  0  0
  2  3  1  0  0  0  0
  2  4  1  0  0  0  0
  2  5  1  0  0  0  0
  1  2  1  0  0  0  0
 26 27  2  0  0  0  0
 26 28  1  0  0  0  0
 23 24  1  0  0  0  0
 23 25  1  0  0  0  0
 20 21  1  0  0  0  0
 20 22  1  0  0  0  0
 20 23  1  0  0  0  0
 17 18  1  0  0  0  0
 17 19  1  0  0  0  0
 17 20  1  0  0  0  0
 14 15  1  0  0  0  0
 14 16  1  0  0  0  0
 14 17  1  0  0  0  0
 11 12  1  0  0  0  0
 11 13  1  0  0  0  0
 11 14  1  0  0  0  0
  9 10  1  0  0  0  0
  9 11  1  0  0  0  0
  9 26  1  0  0  0  0
  7  8  1  0  0  0  0
  7  9  1  0  0  0  0
 30 31  1  0  0  0  0
 30 32  1  0  0  0  0
 30 33  1  0  0  0  0
 28 29  1  0  0  0  0
 28 30  1  0  0  0  0
M  END
$$$$
default_name
  -OEChem-02102213163D

 33 32  0     1  0  0  0  0  0999 V2000
   -3.8420   -3.6918    1.5562 H   0  0  0  0  0  0  0  0  0  0  0  0
   -3.8430   -2.7008    1.1032 C   0  0  0  0  0  0  0  0  0  0  0  0
   -4.5510   -2.0608    1.6242 H   0  0  0  0  0  0  0  0  0  0  0  0
   -4.1140   -2.7798    0.0522 H   0  0  0  0  0  0  0  0  0  0  0  0
   -2.4570   -2.1098    1.2172 C   0  0  0  0  0  0  0  0  0  0  0  0
   -1.5600   -2.7438    1.7572 O   0  0  0  0  0  0  0  0  0  0  0  0
   -2.2870   -0.8898    0.7102 N   0  0  0  0  0  0  0  0  0  0  0  0
   -3.0820   -0.4218    0.2992 H   0  0  0  0  0  0  0  0  0  0  0  0
   -1.0240   -0.1468    0.7262 C   0  0  1  0  0  0  0  0  0  0  0  0
   -0.2680   -0.7367    0.2062 H   0  0  0  0  0  0  0  0  0  0  0  0
   -1.2212    1.1806   -0.0314 C   0  0  0  0  0  0  0  0  0  0  0  0
   -2.1476    1.1180   -0.6060 H   0  0  0  0  0  0  0  0  0  0  0  0
   -1.3213    1.9942    0.6884 H   0  0  0  0  0  0  0  0  0  0  0  0
   -0.0750    1.5023   -1.0031 C   0  0  0  0  0  0  0  0  0  0  0  0
   -0.4860    1.8427   -1.9540 H   0  0  0  0  0  0  0  0  0  0  0  0
    0.5448    2.2937   -0.5778 H   0  0  0  0  0  0  0  0  0  0  0  0
    0.7922    0.2638   -1.2558 C   0  0  0  0  0  0  0  0  0  0  0  0
    1.2046   -0.0936   -0.3118 H   0  0  0  0  0  0  0  0  0  0  0  0
    0.1825   -0.5218   -1.7030 H   0  0  0  0  0  0  0  0  0  0  0  0
    1.9365    0.6169   -2.2039 C   0  0  0  0  0  0  0  0  0  0  0  0
    1.5271    0.9565   -3.1539 H   0  0  0  0  0  0  0  0  0  0  0  0
    2.5361    1.4137   -1.7668 H   0  0  0  0  0  0  0  0  0  0  0  0
    2.8017   -0.5427   -2.4490 N   0  0  0  0  0  0  0  0  0  0  0  0
    3.5365   -0.2777   -3.0884 H   0  0  0  0  0  0  0  0  0  0  0  0
    3.2097   -0.8424   -1.5749 H   0  0  0  0  0  0  0  0  0  0  0  0
   -0.5564    0.0727    2.1744 C   0  0  0  0  0  0  0  0  0  0  0  0
    0.6169   -0.1288    2.4805 O   0  0  0  0  0  0  0  0  0  0  0  0
   -1.4759    0.4743    3.0595 N   0  0  0  0  0  0  0  0  0  0  0  0
   -2.4132    0.6318    2.7275 H   0  0  0  0  0  0  0  0  0  0  0  0
   -1.1971    0.7118    4.4750 C   0  0  0  0  0  0  0  0  0  0  0  0
   -0.3779    1.4272    4.5748 H   0  0  0  0  0  0  0  0  0  0  0  0
   -2.0826    1.1064    4.9754 H   0  0  0  0  0  0  0  0  0  0  0  0
   -0.8992   -0.2240    4.9525 H   0  0  0  0  0  0  0  0  0  0  0  0
  5  6  2  0  0  0  0
  5  7  1  0  0  0  0
  2  3  1  0  0  0  0
  2  4  1  0  0  0  0
  2  5  1  0  0  0  0
  1  2  1  0  0  0  0
 26 27  2  0  0  0  0
 26 28  1  0  0  0  0
 23 24  1  0  0  0  0
 23 25  1  0  0  0  0
 20 21  1  0  0  0  0
 20 22  1  0  0  0  0
 20 23  1  0  0  0  0
 17 18  1  0  0  0  0
 17 19  1  0  0  0  0
 17 20  1  0  0  0  0
 14 15  1  0  0  0  0
 14 16  1  0  0  0  0
 14 17  1  0  0  0  0
 11 12  1  0  0  0  0
 11 13  1  0  0  0  0
 11 14  1  0  0  0  0
  9 10  1  0  0  0  0
  9 11  1  0  0  0  0
  9 26  1  0  0  0  0
  7  8  1  0  0  0  0
  7  9  1  0  0  0  0
 30 31  1  0  0  0  0
 30 32  1  0  0  0  0
 30 33  1  0  0  0  0
 28 29  1  0  0  0  0
 28 30  1  0  0  0  0
M  END
$$$$
default_name
  -OEChem-02102213163D

 33 32  0     1  0  0  0  0  0999 V2000
   -3.8420   -3.6918    1.5562 H   0  0  0  0  0  0  0  0  0  0  0  0
   -3.8430   -2.7008    1.1032 C   0  0  0  0  0  0  0  0  0  0  0  0
   -4.5510   -2.0608    1.6242 H   0  0  0  0  0  0  0  0  0  0  0  0
   -4.1140   -2.7798    0.0522 H   0  0  0  0  0  0  0  0  0  0  0  0
   -2.4570   -2.1098    1.2172 C   0  0  0  0  0  0  0  0  0  0  0  0
   -1.5600   -2.7438    1.7572 O   0  0  0  0  0  0  0  0  0  0  0  0
   -2.2870   -0.8898    0.7102 N   0  0  0  0  0  0  0  0  0  0  0  0
   -3.0820   -0.4218    0.2992 H   0  0  0  0  0  0  0  0  0  0  0  0
   -1.0240   -0.1468    0.7262 C   0  0  1  0  0  0  0  0  0  0  0  0
   -0.2680   -0.7367    0.2062 H   0  0  0  0  0  0  0  0  0  0  0  0
   -1.2212    1.1806   -0.0314 C   0  0  0  0  0  0  0  0  0  0  0  0
   -2.1476    1.1180   -0.6060 H   0  0  0  0  0  0  0  0  0  0  0  0
   -1.3213    1.9942    0.6884 H   0  0  0  0  0  0  0  0  0  0  0  0
   -0.0750    1.5023   -1.0031 C   0  0  0  0  0  0  0  0  0  0  0  0
   -0.4584    2.0845   -1.8415 H   0  0  0  0  0  0  0  0  0  0  0  0
    0.6853    2.0858   -0.4808 H   0  0  0  0  0  0  0  0  0  0  0  0
    0.5602    0.2167   -1.5450 C   0  0  0  0  0  0  0  0  0  0  0  0
    0.9419   -0.3808   -0.7167 H   0  0  0  0  0  0  0  0  0  0  0  0
   -0.1901   -0.3584   -2.0884 H   0  0  0  0  0  0  0  0  0  0  0  0
    1.7107    0.5644   -2.4876 C   0  0  0  0  0  0  0  0  0  0  0  0
    1.3287    1.1455   -3.3254 H   0  0  0  0  0  0  0  0  0  0  0  0
    2.4525    1.1540   -1.9513 H   0  0  0  0  0  0  0  0  0  0  0  0
    2.3576   -0.6460   -3.0071 N   0  0  0  0  0  0  0  0  0  0  0  0
    3.1016   -0.3796   -3.6351 H   0  0  0  0  0  0  0  0  0  0  0  0
    2.7420   -1.1732   -2.2360 H   0  0  0  0  0  0  0  0  0  0  0  0
   -0.5564    0.0727    2.1744 C   0  0  0  0  0  0  0  0  0  0  0  0
    0.6169   -0.1288    2.4805 O   0  0  0  0  0  0  0  0  0  0  0  0
   -1.4759    0.4743    3.0595 N   0  0  0  0  0  0  0  0  0  0  0  0
   -2.4132    0.6318    2.7275 H   0  0  0  0  0  0  0  0  0  0  0  0
   -1.1971    0.7118    4.4750 C   0  0  0  0  0  0  0  0  0  0  0  0
   -0.3779    1.4272    4.5748 H   0  0  0  0  0  0  0  0  0  0  0  0
   -2.0826    1.1064    4.9754 H   0  0  0  0  0  0  0  0  0  0  0  0
   -0.8992   -0.2240    4.9525 H   0  0  0  0  0  0  0  0  0  0  0  0
  5  6  2  0  0  0  0
  5  7  1  0  0  0  0
  2  3  1  0  0  0  0
  2  4  1  0  0  0  0
  2  5  1  0  0  0  0
  1  2  1  0  0  0  0
 26 27  2  0  0  0  0
 26 28  1  0  0  0  0
 23 24  1  0  0  0  0
 23 25  1  0  0  0  0
 20 21  1  0  0  0  0
 20 22  1  0  0  0  0
 20 23  1  0  0  0  0
 17 18  1  0  0  0  0
 17 19  1  0  0  0  0
 17 20  1  0  0  0  0
 14 15  1  0  0  0  0
 14 16  1  0  0  0  0
 14 17  1  0  0  0  0
 11 12  1  0  0  0  0
 11 13  1  0  0  0  0
 11 14  1  0  0  0  0
  9 10  1  0  0  0  0
  9 11  1  0  0  0  0
  9 26  1  0  0  0  0
  7  8  1  0  0  0  0
  7  9  1  0  0  0  0
 30 31  1  0  0  0  0
 30 32  1  0  0  0  0
 30 33  1  0  0  0  0
 28 29  1  0  0  0  0
 28 30  1  0  0  0  0
M  END
$$$$
default_name
  -OEChem-02102213163D

 33 32  0     1  0  0  0  0  0999 V2000
   -3.8420   -3.6918    1.5562 H   0  0  0  0  0  0  0  0  0  0  0  0
   -3.8430   -2.7008    1.1032 C   0  0  0  0  0  0  0  0  0  0  0  0
   -4.5510   -2.0608    1.6242 H   0  0  0  0  0  0  0  0  0  0  0  0
   -4.1140   -2.7798    0.0522 H   0  0  0  0  0  0  0  0  0  0  0  0
   -2.4570   -2.1098    1.2172 C   0  0  0  0  0  0  0  0  0  0  0  0
   -1.5600   -2.7438    1.7572 O   0  0  0  0  0  0  0  0  0  0  0  0
   -2.2870   -0.8898    0.7102 N   0  0  0  0  0  0  0  0  0  0  0  0
   -3.0820   -0.4218    0.2992 H   0  0  0  0  0  0  0  0  0  0  0  0
   -1.0240   -0.1468    0.7262 C   0  0  1  0  0  0  0  0  0  0  0  0
   -0.2680   -0.7367    0.2062 H   0  0  0  0  0  0  0  0  0  0  0  0
   -1.2212    1.1806   -0.0314 C   0  0  0  0  0  0  0  0  0  0  0  0
   -2.1476    1.1180   -0.6060 H   0  0  0  0  0  0  0  0  0  0  0  0
   -1.3213    1.9942    0.6884 H   0  0  0  0  0  0  0  0  0  0  0  0
   -0.0750    1.5023   -1.0031 C   0  0  0  0  0  0  0  0  0  0  0  0
   -0.3862    2.2919   -1.6876 H   0  0  0  0  0  0  0  0  0  0  0  0
    0.7924    1.8432   -0.4349 H   0  0  0  0  0  0  0  0  0  0  0  0
    0.3127    0.2651   -1.8209 C   0  0  0  0  0  0  0  0  0  0  0  0
    0.6192   -0.5371   -1.1490 H   0  0  0  0  0  0  0  0  0  0  0  0
   -0.5441   -0.0652   -2.4089 H   0  0  0  0  0  0  0  0  0  0  0  0
    1.4687    0.6055   -2.7595 C   0  0  0  0  0  0  0  0  0  0  0  0
    1.1587    1.3936   -3.4438 H   0  0  0  0  0  0  0  0  0  0  0  0
    2.3193    0.9524   -2.1751 H   0  0  0  0  0  0  0  0  0  0  0  0
    1.8814   -0.5653   -3.5420 N   0  0  0  0  0  0  0  0  0  0  0  0
    2.6353   -0.3014   -4.1592 H   0  0  0  0  0  0  0  0  0  0  0  0
    2.2003   -1.2885   -2.9131 H   0  0  0  0  0  0  0  0  0  0  0  0
   -0.5564    0.0727    2.1744 C   0  0  0  0  0  0  0  0  0  0  0  0
    0.6169   -0.1288    2.4805 O   0  0  0  0  0  0  0  0  0  0  0  0
   -1.4759    0.4743    3.0595 N   0  0  0  0  0  0  0  0  0  0  0  0
   -2.4132    0.6318    2.7275 H   0  0  0  0  0  0  0  0  0  0  0  0
   -1.1971    0.7118    4.4750 C   0  0  0  0  0  0  0  0  0  0  0  0
   -0.3779    1.4272    4.5748 H   0  0  0  0  0  0  0  0  0  0  0  0
   -2.0826    1.1064    4.9754 H   0  0  0  0  0  0  0  0  0  0  0  0
   -0.8992   -0.2240    4.9525 H   0  0  0  0  0  0  0  0  0  0  0  0
  5  6  2  0  0  0  0
  5  7  1  0  0  0  0
  2  3  1  0  0  0  0
  2  4  1  0  0  0  0
  2  5  1  0  0  0  0
  1  2  1  0  0  0  0
 26 27  2  0  0  0  0
 26 28  1  0  0  0  0
 23 24  1  0  0  0  0
 23 25  1  0  0  0  0
 20 21  1  0  0  0  0
 20 22  1  0  0  0  0
 20 23  1  0  0  0  0
 17 18  1  0  0  0  0
 17 19  1  0  0  0  0
 17 20  1  0  0  0  0
 14 15  1  0  0  0  0
 14 16  1  0  0  0  0
 14 17  1  0  0  0  0
 11 12  1  0  0  0  0
 11 13  1  0  0  0  0
 11 14  1  0  0  0  0
  9 10  1  0  0  0  0
  9 11  1  0  0  0  0
  9 26  1  0  0  0  0
  7  8  1  0  0  0  0
  7  9  1  0  0  0  0
 30 31  1  0  0  0  0
 30 32  1  0  0  0  0
 30 33  1  0  0  0  0
 28 29  1  0  0  0  0
 28 30  1  0  0  0  0
M  END
$$$$
default_name
  -OEChem-02102213163D

 33 32  0     1  0  0  0  0  0999 V2000
   -3.8420   -3.6918    1.5562 H   0  0  0  0  0  0  0  0  0  0  0  0
   -3.8430   -2.7008    1.1032 C   0  0  0  0  0  0  0  0  0  0  0  0
   -4.5510   -2.0608    1.6242 H   0  0  0  0  0  0  0  0  0  0  0  0
   -4.1140   -2.7798    0.0522 H   0  0  0  0  0  0  0  0  0  0  0  0
   -2.4570   -2.1098    1.2172 C   0  0  0  0  0  0  0  0  0  0  0  0
   -1.5600   -2.7438    1.7572 O   0  0  0  0  0  0  0  0  0  0  0  0
   -2.2870   -0.8898    0.7102 N   0  0  0  0  0  0  0  0  0  0  0  0
   -3.0820   -0.4218    0.2992 H   0  0  0  0  0  0  0  0  0  0  0  0
   -1.0240   -0.1468    0.7262 C   0  0  1  0  0  0  0  0  0  0  0  0
   -0.2680   -0.7367    0.2062 H   0  0  0  0  0  0  0  0  0  0  0  0
   -1.2212    1.1806   -0.0314 C   0  0  0  0  0  0  0  0  0  0  0  0
   -2.1476    1.1180   -0.6060 H   0  0  0  0  0  0  0  0  0  0  0  0
   -1.3213    1.9942    0.6884 H   0  0  0  0  0  0  0  0  0  0  0  0
   -0.0750    1.5023   -1.0031 C   0  0  0  0  0  0  0  0  0  0  0  0
   -0.2741    2.4507   -1.5029 H   0  0  0  0  0  0  0  0  0  0  0  0
    0.8585    1.5824   -0.4432 H   0  0  0  0  0  0  0  0  0  0  0  0
    0.0666    0.4056   -2.0647 C   0  0  0  0  0  0  0  0  0  0  0  0
    0.2585   -0.5518   -1.5793 H   0  0  0  0  0  0  0  0  0  0  0  0
   -0.8555    0.3379   -2.6427 H   0  0  0  0  0  0  0  0  0  0  0  0
    1.2269    0.7372   -3.0011 C   0  0  0  0  0  0  0  0  0  0  0  0
    1.0287    1.6840   -3.5010 H   0  0  0  0  0  0  0  0  0  0  0  0
    2.1456    0.8227   -2.4230 H   0  0  0  0  0  0  0  0  0  0  0  0
    1.4057   -0.3061   -4.0173 N   0  0  0  0  0  0  0  0  0  0  0  0
    2.1693   -0.0483   -4.6252 H   0  0  0  0  0  0  0  0  0  0  0  0
    1.6215   -1.1806   -3.5600 H   0  0  0  0  0  0  0  0  0  0  0  0
   -0.5564    0.0727    2.1744 C   0  0  0  0  0  0  0  0  0  0  0  0
    0.6169   -0.1288    2.4805 O   0  0  0  0  0  0  0  0  0  0  0  0
   -1.4759    0.4743    3.0595 N   0  0  0  0  0  0  0  0  0  0  0  0
   -2.4132    0.6318    2.7275 H   0  0  0  0  0  0  0  0  0  0  0  0
   -1.1971    0.7118    4.4750 C   0  0  0  0  0  0  0  0  0  0  0  0
   -0.3779    1.4272    4.5748 H   0  0  0  0  0  0  0  0  0  0  0  0
   -2.0826    1.1064    4.9754 H   0  0  0  0  0  0  0  0  0  0  0  0
   -0.8992   -0.2240    4.9525 H   0  0  0  0  0  0  0  0  0  0  0  0
  5  6  2  0  0  0  0
  5  7  1  0  0  0  0
  2  3  1  0  0  0  0
  2  4  1  0  0  0  0
  2  5  1  0  0  0  0
  1  2  1  0  0  0  0
 26 27  2  0  0  0  0
 26 28  1  0  0  0  0
 23 24  1  0  0  0  0
 23 25  1  0  0  0  0
 20 21  1  0  0  0  0
 20 22  1  0  0  0  0
 20 23  1  0  0  0  0
 17 18  1  0  0  0  0
 17 19  1  0  0  0  0
 17 20  1  0  0  0  0
 14 15  1  0  0  0  0
 14 16  1  0  0  0  0
 14 17  1  0  0  0  0
 11 12  1  0  0  0  0
 11 13  1  0  0  0  0
 11 14  1  0  0  0  0
  9 10  1  0  0  0  0
  9 11  1  0  0  0  0
  9 26  1  0  0  0  0
  7  8  1  0  0  0  0
  7  9  1  0  0  0  0
 30 31  1  0  0  0  0
 30 32  1  0  0  0  0
 30 33  1  0  0  0  0
 28 29  1  0  0  0  0
 28 30  1  0  0  0  0
M  END
$$$$
default_name
  -OEChem-02102213163D

 33 32  0     1  0  0  0  0  0999 V2000
   -3.8420   -3.6918    1.5562 H   0  0  0  0  0  0  0  0  0  0  0  0
   -3.8430   -2.7008    1.1032 C   0  0  0  0  0  0  0  0  0  0  0  0
   -4.5510   -2.0608    1.6242 H   0  0  0  0  0  0  0  0  0  0  0  0
   -4.1140   -2.7798    0.0522 H   0  0  0  0  0  0  0  0  0  0  0  0
   -2.4570   -2.1098    1.2172 C   0  0  0  0  0  0  0  0  0  0  0  0
   -1.5600   -2.7438    1.7572 O   0  0  0  0  0  0  0  0  0  0  0  0
   -2.2870   -0.8898    0.7102 N   0  0  0  0  0  0  0  0  0  0  0  0
   -3.0820   -0.4218    0.2992 H   0  0  0  0  0  0  0  0  0  0  0  0
   -1.0240   -0.1468    0.7262 C   0  0  1  0  0  0  0  0  0  0  0  0
   -0.2680   -0.7367    0.2062 H   0  0  0  0  0  0  0  0  0  0  0  0
   -1.2212    1.1806   -0.0314 C   0  0  0  0  0  0  0  0  0  0  0  0
   -2.1476    1.1180   -0.6060 H   0  0  0  0  0  0  0  0  0  0  0  0
   -1.3213    1.9942    0.6884 H   0  0  0  0  0  0  0  0  0  0  0  0
   -0.0750    1.5023   -1.0031 C   0  0  0  0  0  0  0  0  0  0  0  0
   -0.1299    2.5500   -1.2999 H   0  0  0  0  0  0  0  0  0  0  0  0
    0.8793    1.3214   -0.5051 H   0  0  0  0  0  0  0  0  0  0  0  0
   -0.1613    0.6286   -2.2597 C   0  0  0  0  0  0  0  0  0  0  0  0
   -0.1156   -0.4238   -1.9782 H   0  0  0  0  0  0  0  0  0  0  0  0
   -1.1029    0.8233   -2.7739 H   0  0  0  0  0  0  0  0  0  0  0  0
    1.0018    0.9507   -3.1959 C   0  0  0  0  0  0  0  0  0  0  0  0
    0.9476    1.9967   -3.4932 H   0  0  0  0  0  0  0  0  0  0  0  0
    1.9430    0.7738   -2.6781 H   0  0  0  0  0  0  0  0  0  0  0  0
    0.9629    0.1138   -4.4006 N   0  0  0  0  0  0  0  0  0  0  0  0
    1.7353    0.3624   -5.0011 H   0  0  0  0  0  0  0  0  0  0  0  0
    1.0451   -0.8567   -4.1327 H   0  0  0  0  0  0  0  0  0  0  0  0
   -0.5564    0.0727    2.1744 C   0  0  0  0  0  0  0  0  0  0  0  0
    0.6169   -0.1288    2.4805 O   0  0  0  0  0  0  0  0  0  0  0  0
   -1.4759    0.4743    3.0595 N   0  0  0  0  0  0  0  0  0  0  0  0
   -2.4132    0.6318    2.7275 H   0  0  0  0  0  0  0  0  0  0  0  0
   -1.1971    0.7118    4.4750 C   0  0  0  0  0  0  0  0  0  0  0  0
   -0.3779    1.4272    4.5748 H   0  0  0  0  0  0  0  0  0  0  0  0
   -2.0826    1.1064    4.9754 H   0  0  0  0  0  0  0  0  0  0  0  0
   -0.8992   -0.2240    4.9525 H   0  0  0  0  0  0  0  0  0  0  0  0
  5  6  2  0  0  0  0
  5  7  1  0  0  0  0
  2  3  1  0  0  0  0
  2  4  1  0  0  0  0
  2  5  1  0  0  0  0
  1  2  1  0  0  0  0
 26 27  2  0  0  0  0
 26 28  1  0  0  0  0
 23 24  1  0  0  0  0
 23 25  1  0  0  0  0
 20 21  1  0  0  0  0
 20 22  1  0  0  0  0
 20 23  1  0  0  0  0
 17 18  1  0  0  0  0
 17 19  1  0  0  0  0
 17 20  1  0  0  0  0
 14 15  1  0  0  0  0
 14 16  1  0  0  0  0
 14 17  1  0  0  0  0
 11 12  1  0  0  0  0
 11 13  1  0  0  0  0
 11 14  1  0  0  0  0
  9 10  1  0  0  0  0
  9 11  1  0  0  0  0
  9 26  1  0  0  0  0
  7  8  1  0  0  0  0
  7  9  1  0  0  0  0
 30 31  1  0  0  0  0
 30 32  1  0  0  0  0
 30 33  1  0  0  0  0
 28 29  1  0  0  0  0
 28 30  1  0  0  0  0
M  END
$$$$
default_name
  -OEChem-02102213163D

 33 32  0     1  0  0  0  0  0999 V2000
   -3.8420   -3.6918    1.5562 H   0  0  0  0  0  0  0  0  0  0  0  0
   -3.8430   -2.7008    1.1032 C   0  0  0  0  0  0  0  0  0  0  0  0
   -4.5510   -2.0608    1.6242 H   0  0  0  0  0  0  0  0  0  0  0  0
   -4.1140   -2.7798    0.0522 H   0  0  0  0  0  0  0  0  0  0  0  0
   -2.4570   -2.1098    1.2172 C   0  0  0  0  0  0  0  0  0  0  0  0
   -1.5600   -2.7438    1.7572 O   0  0  0  0  0  0  0  0  0  0  0  0
   -2.2870   -0.8898    0.7102 N   0  0  0  0  0  0  0  0  0  0  0  0
   -3.0820   -0.4218    0.2992 H   0  0  0  0  0  0  0  0  0  0  0  0
   -1.0240   -0.1468    0.7262 C   0  0  1  0  0  0  0  0  0  0  0  0
   -0.2680   -0.7367    0.2062 H   0  0  0  0  0  0  0  0  0  0  0  0
   -1.2212    1.1806   -0.0314 C   0  0  0  0  0  0  0  0  0  0  0  0
   -2.1476    1.1180   -0.6060 H   0  0  0  0  0  0  0  0  0  0  0  0
   -1.3213    1.9942    0.6884 H   0  0  0  0  0  0  0  0  0  0  0  0
   -0.0750    1.5023   -1.0031 C   0  0  0  0  0  0  0  0  0  0  0  0
    0.0367    2.5832   -1.0924 H   0  0  0  0  0  0  0  0  0  0  0  0
    0.8532    1.0778   -0.6164 H   0  0  0  0  0  0  0  0  0  0  0  0
   -0.3556    0.9190   -2.3927 C   0  0  0  0  0  0  0  0  0  0  0  0
   -0.4776   -0.1620   -2.3185 H   0  0  0  0  0  0  0  0  0  0  0  0
   -1.2696    1.3581   -2.7935 H   0  0  0  0  0  0  0  0  0  0  0  0
    0.8087    1.2314   -3.3307 C   0  0  0  0  0  0  0  0  0  0  0  0
    0.9208    2.3106   -3.4209 H   0  0  0  0  0  0  0  0  0  0  0  0
    1.7256    0.8089   -2.9230 H   0  0  0  0  0  0  0  0  0  0  0  0
    0.5831    0.6659   -4.6659 N   0  0  0  0  0  0  0  0  0  0  0  0
    1.3630    0.9027   -5.2614 H   0  0  0  0  0  0  0  0  0  0  0  0
    0.5103   -0.3389   -4.5921 H   0  0  0  0  0  0  0  0  0  0  0  0
   -0.5564    0.0727    2.1744 C   0  0  0  0  0  0  0  0  0  0  0  0
    0.6169   -0.1288    2.4805 O   0  0  0  0  0  0  0  0  0  0  0  0
   -1.4759    0.4743    3.0595 N   0  0  0  0  0  0  0  0  0  0  0  0
   -2.4132    0.6318    2.7275 H   0  0  0  0  0  0  0  0  0  0  0  0
   -1.1971    0.7118    4.4750 C   0  0  0  0  0  0  0  0  0  0  0  0
   -0.3779    1.4272    4.5748 H   0  0  0  0  0  0  0  0  0  0  0  0
   -2.0826    1.1064    4.9754 H   0  0  0  0  0  0  0  0  0  0  0  0
   -0.8992   -0.2240    4.9525 H   0  0  0  0  0  0  0  0  0  0  0  0
  5  6  2  0  0  0  0
  5  7  1  0  0  0  0
  2  3  1  0  0  0  0
  2  4  1  0  0  0  0
  2  5  1  0  0  0  0
  1  2  1  0  0  0  0
 26 27  2  0  0  0  0
 26 28  1  0  0  0  0
 23 24  1  0  0  0  0
 23 25  1  0  0  0  0
 20 21  1  0  0  0  0
 20 22  1  0  0  0  0
 20 23  1  0  0  0  0
 17 18  1  0  0  0  0
 17 19  1  0  0  0  0
 17 20  1  0  0  0  0
 14 15  1  0  0  0  0
 14 16  1  0  0  0  0
 14 17  1  0  0  0  0
 11 12  1  0  0  0  0
 11 13  1  0  0  0  0
 11 14  1  0  0  0  0
  9 10  1  0  0  0  0
  9 11  1  0  0  0  0
  9 26  1  0  0  0  0
  7  8  1  0  0  0  0
  7  9  1  0  0  0  0
 30 31  1  0  0  0  0
 30 32  1  0  0  0  0
 30 33  1  0  0  0  0
 28 29  1  0  0  0  0
 28 30  1  0  0  0  0
M  END
$$$$
default_name
  -OEChem-02102213163D

 33 32  0     1  0  0  0  0  0999 V2000
   -3.8420   -3.6918    1.5562 H   0  0  0  0  0  0  0  0  0  0  0  0
   -3.8430   -2.7008    1.1032 C   0  0  0  0  0  0  0  0  0  0  0  0
   -4.5510   -2.0608    1.6242 H   0  0  0  0  0  0  0  0  0  0  0  0
   -4.1140   -2.7798    0.0522 H   0  0  0  0  0  0  0  0  0  0  0  0
   -2.4570   -2.1098    1.2172 C   0  0  0  0  0  0  0  0  0  0  0  0
   -1.5600   -2.7438    1.7572 O   0  0  0  0  0  0  0  0  0  0  0  0
   -2.2870   -0.8898    0.7102 N   0  0  0  0  0  0  0  0  0  0  0  0
   -3.0820   -0.4218    0.2992 H   0  0  0  0  0  0  0  0  0  0  0  0
   -1.0240   -0.1468    0.7262 C   0  0  1  0  0  0  0  0  0  0  0  0
   -0.2680   -0.7367    0.2062 H   0  0  0  0  0  0  0  0  0  0  0  0
   -1.2212    1.1806   -0.0314 C   0  0  0  0  0  0  0  0  0  0  0  0
   -2.1476    1.1180   -0.6060 H   0  0  0  0  0  0  0  0  0  0  0  0
   -1.3213    1.9942    0.6884 H   0  0  0  0  0  0  0  0  0  0  0  0
   -0.0750    1.5023   -1.0031 C   0  0  0  0  0  0  0  0  0  0  0  0
    0.2142    2.5480   -0.8947 H   0  0  0  0  0  0  0  0  0  0  0  0
    0.7822    0.8682   -0.7696 H   0  0  0  0  0  0  0  0  0  0  0  0
   -0.5028    1.2569   -2.4545 C   0  0  0  0  0  0  0  0  0  0  0  0
   -0.8029    0.2158   -2.5771 H   0  0  0  0  0  0  0  0  0  0  0  0
   -1.3441    1.9056   -2.7002 H   0  0  0  0  0  0  0  0  0  0  0  0
    0.6609    1.5601   -3.3963 C   0  0  0  0  0  0  0  0  0  0  0  0
    0.9502    2.6043   -3.2890 H   0  0  0  0  0  0  0  0  0  0  0  0
    1.5080    0.9256   -3.1409 H   0  0  0  0  0  0  0  0  0  0  0  0
    0.2922    1.3125   -4.7949 N   0  0  0  0  0  0  0  0  0  0  0  0
    1.0777    1.5358   -5.3884 H   0  0  0  0  0  0  0  0  0  0  0  0
    0.0535    0.3374   -4.9070 H   0  0  0  0  0  0  0  0  0  0  0  0
   -0.5564    0.0727    2.1744 C   0  0  0  0  0  0  0  0  0  0  0  0
    0.6169   -0.1288    2.4805 O   0  0  0  0  0  0  0  0  0  0  0  0
   -1.4759    0.4743    3.0595 N   0  0  0  0  0  0  0  0  0  0  0  0
   -2.4132    0.6318    2.7275 H   0  0  0  0  0  0  0  0  0  0  0  0
   -1.1971    0.7118    4.4750 C   0  0  0  0  0  0  0  0  0  0  0  0
   -0.3779    1.4272    4.5748 H   0  0  0  0  0  0  0  0  0  0  0  0
   -2.0826    1.1064    4.9754 H   0  0  0  0  0  0  0  0  0  0  0  0
   -0.8992   -0.2240    4.9525 H   0  0  0  0  0  0  0  0  0  0  0  0
  5  6  2  0  0  0  0
  5  7  1  0  0  0  0
  2  3  1  0  0  0  0
  2  4  1  0  0  0  0
  2  5  1  0  0  0  0
  1  2  1  0  0  0  0
 26 27  2  0  0  0  0
 26 28  1  0  0  0  0
 23 24  1  0  0  0  0
 23 25  1  0  0  0  0
 20 21  1  0  0  0  0
 20 22  1  0  0  0  0
 20 23  1  0  0  0  0
 17 18  1  0  0  0  0
 17 19  1  0  0  0  0
 17 20  1  0  0  0  0
 14 15  1  0  0  0  0
 14 16  1  0  0  0  0
 14 17  1  0  0  0  0
 11 12  1  0  0  0  0
 11 13  1  0  0  0  0
 11 14  1  0  0  0  0
  9 10  1  0  0  0  0
  9 11  1  0  0  0  0
  9 26  1  0  0  0  0
  7  8  1  0  0  0  0
  7  9  1  0  0  0  0
 30 31  1  0  0  0  0
 30 32  1  0  0  0  0
 30 33  1  0  0  0  0
 28 29  1  0  0  0  0
 28 30  1  0  0  0  0
M  END
$$$$
default_name
  -OEChem-02102213163D

 33 32  0     1  0  0  0  0  0999 V2000
   -3.8420   -3.6918    1.5562 H   0  0  0  0  0  0  0  0  0  0  0  0
   -3.8430   -2.7008    1.1032 C   0  0  0  0  0  0  0  0  0  0  0  0
   -4.5510   -2.0608    1.6242 H   0  0  0  0  0  0  0  0  0  0  0  0
   -4.1140   -2.7798    0.0522 H   0  0  0  0  0  0  0  0  0  0  0  0
   -2.4570   -2.1098    1.2172 C   0  0  0  0  0  0  0  0  0  0  0  0
   -1.5600   -2.7438    1.7572 O   0  0  0  0  0  0  0  0  0  0  0  0
   -2.2870   -0.8898    0.7102 N   0  0  0  0  0  0  0  0  0  0  0  0
   -3.0820   -0.4218    0.2992 H   0  0  0  0  0  0  0  0  0  0  0  0
   -1.0240   -0.1468    0.7262 C   0  0  1  0  0  0  0  0  0  0  0  0
   -0.2680   -0.7367    0.2062 H   0  0  0  0  0  0  0  0  0  0  0  0
   -1.2212    1.1806   -0.0314 C   0  0  0  0  0  0  0  0  0  0  0  0
   -2.1476    1.1180   -0.6060 H   0  0  0  0  0  0  0  0  0  0  0  0
   -1.3213    1.9942    0.6884 H   0  0  0  0  0  0  0  0  0  0  0  0
   -0.0750    1.5023   -1.0031 C   0  0  0  0  0  0  0  0  0  0  0  0
    0.3907    2.4467   -0.7201 H   0  0  0  0  0  0  0  0  0  0  0  0
    0.6710    0.7070   -0.9541 H   0  0  0  0  0  0  0  0  0  0  0  0
   -0.5931    1.6194   -2.4410 C   0  0  0  0  0  0  0  0  0  0  0  0
   -1.0693    0.6839   -2.7364 H   0  0  0  0  0  0  0  0  0  0  0  0
   -1.3215    2.4287   -2.5003 H   0  0  0  0  0  0  0  0  0  0  0  0
    0.5684    1.9144   -3.3881 C   0  0  0  0  0  0  0  0  0  0  0  0
    1.0338    2.8576   -3.1065 H   0  0  0  0  0  0  0  0  0  0  0  0
    1.3052    1.1161   -3.3172 H   0  0  0  0  0  0  0  0  0  0  0  0
    0.1101    2.0096   -4.7789 N   0  0  0  0  0  0  0  0  0  0  0  0
    0.8988    2.2185   -5.3734 H   0  0  0  0  0  0  0  0  0  0  0  0
   -0.2940    1.1262   -5.0558 H   0  0  0  0  0  0  0  0  0  0  0  0
   -0.5564    0.0727    2.1744 C   0  0  0  0  0  0  0  0  0  0  0  0
    0.6169   -0.1288    2.4805 O   0  0  0  0  0  0  0  0  0  0  0  0
   -1.4759    0.4743    3.0595 N   0  0  0  0  0  0  0  0  0  0  0  0
   -2.4132    0.6318    2.7275 H   0  0  0  0  0  0  0  0  0  0  0  0
   -1.1971    0.7118    4.4750 C   0  0  0  0  0  0  0  0  0  0  0  0
   -0.3779    1.4272    4.5748 H   0  0  0  0  0  0  0  0  0  0  0  0
   -2.0826    1.1064    4.9754 H   0  0  0  0  0  0  0  0  0  0  0  0
   -0.8992   -0.2240    4.9525 H   0  0  0  0  0  0  0  0  0  0  0  0
  5  6  2  0  0  0  0
  5  7  1  0  0  0  0
  2  3  1  0  0  0  0
  2  4  1  0  0  0  0
  2  5  1  0  0  0  0
  1  2  1  0  0  0  0
 26 27  2  0  0  0  0
 26 28  1  0  0  0  0
 23 24  1  0  0  0  0
 23 25  1  0  0  0  0
 20 21  1  0  0  0  0
 20 22  1  0  0  0  0
 20 23  1  0  0  0  0
 17 18  1  0  0  0  0
 17 19  1  0  0  0  0
 17 20  1  0  0  0  0
 14 15  1  0  0  0  0
 14 16  1  0  0  0  0
 14 17  1  0  0  0  0
 11 12  1  0  0  0  0
 11 13  1  0  0  0  0
 11 14  1  0  0  0  0
  9 10  1  0  0  0  0
  9 11  1  0  0  0  0
  9 26  1  0  0  0  0
  7  8  1  0  0  0  0
  7  9  1  0  0  0  0
 30 31  1  0  0  0  0
 30 32  1  0  0  0  0
 30 33  1  0  0  0  0
 28 29  1  0  0  0  0
 28 30  1  0  0  0  0
M  END
$$$$
default_name
  -OEChem-02102213163D

 33 32  0     1  0  0  0  0  0999 V2000
   -3.8420   -3.6918    1.5562 H   0  0  0  0  0  0  0  0  0  0  0  0
   -3.8430   -2.7008    1.1032 C   0  0  0  0  0  0  0  0  0  0  0  0
   -4.5510   -2.0608    1.6242 H   0  0  0  0  0  0  0  0  0  0  0  0
   -4.1140   -2.7798    0.0522 H   0  0  0  0  0  0  0  0  0  0  0  0
   -2.4570   -2.1098    1.2172 C   0  0  0  0  0  0  0  0  0  0  0  0
   -1.5600   -2.7438    1.7572 O   0  0  0  0  0  0  0  0  0  0  0  0
   -2.2870   -0.8898    0.7102 N   0  0  0  0  0  0  0  0  0  0  0  0
   -3.0820   -0.4218    0.2992 H   0  0  0  0  0  0  0  0  0  0  0  0
   -1.0240   -0.1468    0.7262 C   0  0  1  0  0  0  0  0  0  0  0  0
   -0.2680   -0.7367    0.2062 H   0  0  0  0  0  0  0  0  0  0  0  0
   -1.2212    1.1806   -0.0314 C   0  0  0  0  0  0  0  0  0  0  0  0
   -2.1476    1.1180   -0.6060 H   0  0  0  0  0  0  0  0  0  0  0  0
   -1.3213    1.9942    0.6884 H   0  0  0  0  0  0  0  0  0  0  0  0
   -0.0750    1.5023   -1.0031 C   0  0  0  0  0  0  0  0  0  0  0  0
    0.5540    2.2862   -0.5805 H   0  0  0  0  0  0  0  0  0  0  0  0
    0.5272    0.6051   -1.1574 H   0  0  0  0  0  0  0  0  0  0  0  0
   -0.6203    1.9817   -2.3532 C   0  0  0  0  0  0  0  0  0  0  0  0
   -1.2586    1.2104   -2.7854 H   0  0  0  0  0  0  0  0  0  0  0  0
   -1.2031    2.8916   -2.2074 H   0  0  0  0  0  0  0  0  0  0  0  0
    0.5374    2.2703   -3.3069 C   0  0  0  0  0  0  0  0  0  0  0  0
    1.1659    3.0534   -2.8859 H   0  0  0  0  0  0  0  0  0  0  0  0
    1.1309    1.3672   -3.4396 H   0  0  0  0  0  0  0  0  0  0  0  0
    0.0492    2.7097   -4.6191 N   0  0  0  0  0  0  0  0  0  0  0  0
    0.8386    2.9043   -5.2174 H   0  0  0  0  0  0  0  0  0  0  0  0
   -0.5087    1.9738   -5.0285 H   0  0  0  0  0  0  0  0  0  0  0  0
   -0.5564    0.0727    2.1744 C   0  0  0  0  0  0  0  0  0  0  0  0
    0.6169   -0.1288    2.4805 O   0  0  0  0  0  0  0  0  0  0  0  0
   -1.4759    0.4743    3.0595 N   0  0  0  0  0  0  0  0  0  0  0  0
   -2.4132    0.6318    2.7275 H   0  0  0  0  0  0  0  0  0  0  0  0
   -1.1971    0.7118    4.4750 C   0  0  0  0  0  0  0  0  0  0  0  0
   -0.3779    1.4272    4.5748 H   0  0  0  0  0  0  0  0  0  0  0  0
   -2.0826    1.1064    4.9754 H   0  0  0  0  0  0  0  0  0  0  0  0
   -0.8992   -0.2240    4.9525 H   0  0  0  0  0  0  0  0  0  0  0  0
  5  6  2  0  0  0  0
  5  7  1  0  0  0  0
  2  3  1  0  0  0  0
  2  4  1  0  0  0  0
  2  5  1  0  0  0  0
  1  2  1  0  0  0  0
 26 27  2  0  0  0  0
 26 28  1  0  0  0  0
 23 24  1  0  0  0  0
 23 25  1  0  0  0  0
 20 21  1  0  0  0  0
 20 22  1  0  0  0  0
 20 23  1  0  0  0  0
 17 18  1  0  0  0  0
 17 19  1  0  0  0  0
 17 20  1  0  0  0  0
 14 15  1  0  0  0  0
 14 16  1  0  0  0  0
 14 17  1  0  0  0  0
 11 12  1  0  0  0  0
 11 13  1  0  0  0  0
 11 14  1  0  0  0  0
  9 10  1  0  0  0  0
  9 11  1  0  0  0  0
  9 26  1  0  0  0  0
  7  8  1  0  0  0  0
  7  9  1  0  0  0  0
 30 31  1  0  0  0  0
 30 32  1  0  0  0  0
 30 33  1  0  0  0  0
 28 29  1  0  0  0  0
 28 30  1  0  0  0  0
M  END
$$$$
default_name
  -OEChem-02102213163D

 33 32  0     1  0  0  0  0  0999 V2000
   -3.8420   -3.6918    1.5562 H   0  0  0  0  0  0  0  0  0  0  0  0
   -3.8430   -2.7008    1.1032 C   0  0  0  0  0  0  0  0  0  0  0  0
   -4.5510   -2.0608    1.6242 H   0  0  0  0  0  0  0  0  0  0  0  0
   -4.1140   -2.7798    0.0522 H   0  0  0  0  0  0  0  0  0  0  0  0
   -2.4570   -2.1098    1.2172 C   0  0  0  0  0  0  0  0  0  0  0  0
   -1.5600   -2.7438    1.7572 O   0  0  0  0  0  0  0  0  0  0  0  0
   -2.2870   -0.8898    0.7102 N   0  0  0  0  0  0  0  0  0  0  0  0
   -3.0820   -0.4218    0.2992 H   0  0  0  0  0  0  0  0  0  0  0  0
   -1.0240   -0.1468    0.7262 C   0  0  1  0  0  0  0  0  0  0  0  0
   -0.2680   -0.7367    0.2062 H   0  0  0  0  0  0  0  0  0  0  0  0
   -1.2212    1.1806   -0.0314 C   0  0  0  0  0  0  0  0  0  0  0  0
   -2.1476    1.1180   -0.6060 H   0  0  0  0  0  0  0  0  0  0  0  0
   -1.3213    1.9942    0.6884 H   0  0  0  0  0  0  0  0  0  0  0  0
   -0.0750    1.5023   -1.0031 C   0  0  0  0  0  0  0  0  0  0  0  0
    0.6931    2.0776   -0.4855 H   0  0  0  0  0  0  0  0  0  0  0  0
    0.3606    0.5694   -1.3657 H   0  0  0  0  0  0  0  0  0  0  0  0
   -0.5825    2.3191   -2.1969 C   0  0  0  0  0  0  0  0  0  0  0  0
   -1.3579    1.7594   -2.7208 H   0  0  0  0  0  0  0  0  0  0  0  0
   -0.9972    3.2629   -1.8416 H   0  0  0  0  0  0  0  0  0  0  0  0
    0.5701    2.6034   -3.1580 C   0  0  0  0  0  0  0  0  0  0  0  0
    1.3375    3.1783   -2.6421 H   0  0  0  0  0  0  0  0  0  0  0  0
    0.9970    1.6620   -3.5000 H   0  0  0  0  0  0  0  0  0  0  0  0
    0.1135    3.3650   -4.3262 N   0  0  0  0  0  0  0  0  0  0  0  0
    0.9011    3.5465   -4.9311 H   0  0  0  0  0  0  0  0  0  0  0  0
   -0.5758    2.8223   -4.8268 H   0  0  0  0  0  0  0  0  0  0  0  0
   -0.5564    0.0727    2.1744 C   0  0  0  0  0  0  0  0  0  0  0  0
    0.6169   -0.1288    2.4805 O   0  0  0  0  0  0  0  0  0  0  0  0
   -1.4759    0.4743    3.0595 N   0  0  0  0  0  0  0  0  0  0  0  0
   -2.4132    0.6318    2.7275 H   0  0  0  0  0  0  0  0  0  0  0  0
   -1.1971    0.7118    4.4750 C   0  0  0  0  0  0  0  0  0  0  0  0
   -0.3779    1.4272    4.5748 H   0  0  0  0  0  0  0  0  0  0  0  0
   -2.0826    1.1064    4.9754 H   0  0  0  0  0  0  0  0  0  0  0  0
   -0.8992   -0.2240    4.9525 H   0  0  0  0  0  0  0  0  0  0  0  0
  5  6  2  0  0  0  0
  5  7  1  0  0  0  0
  2  3  1  0  0  0  0
  2  4  1  0  0  0  0
  2  5  1  0  0  0  0
  1  2  1  0  0  0  0
 26 27  2  0  0  0  0
 26 28  1  0  0  0  0
 23 24  1  0  0  0  0
 23 25  1  0  0  0  0
 20 21  1  0  0  0  0
 20 22  1  0  0  0  0
 20 23  1  0  0  0  0
 17 18  1  0  0  0  0
 17 19  1  0  0  0  0
 17 20  1  0  0  0  0
 14 15  1  0  0  0  0
 14 16  1  0  0  0  0
 14 17  1  0  0  0  0
 11 12  1  0  0  0  0
 11 13  1  0  0  0  0
 11 14  1  0  0  0  0
  9 10  1  0  0  0  0
  9 11  1  0  0  0  0
  9 26  1  0  0  0  0
  7  8  1  0  0  0  0
  7  9  1  0  0  0  0
 30 31  1  0  0  0  0
 30 32  1  0  0  0  0
 30 33  1  0  0  0  0
 28 29  1  0  0  0  0
 28 30  1  0  0  0  0
M  END
$$$$
default_name
  -OEChem-02102213163D

 33 32  0     1  0  0  0  0  0999 V2000
   -3.8420   -3.6918    1.5562 H   0  0  0  0  0  0  0  0  0  0  0  0
   -3.8430   -2.7008    1.1032 C   0  0  0  0  0  0  0  0  0  0  0  0
   -4.5510   -2.0608    1.6242 H   0  0  0  0  0  0  0  0  0  0  0  0
   -4.1140   -2.7798    0.0522 H   0  0  0  0  0  0  0  0  0  0  0  0
   -2.4570   -2.1098    1.2172 C   0  0  0  0  0  0  0  0  0  0  0  0
   -1.5600   -2.7438    1.7572 O   0  0  0  0  0  0  0  0  0  0  0  0
   -2.2870   -0.8898    0.7102 N   0  0  0  0  0  0  0  0  0  0  0  0
   -3.0820   -0.4218    0.2992 H   0  0  0  0  0  0  0  0  0  0  0  0
   -1.0240   -0.1468    0.7262 C   0  0  1  0  0  0  0  0  0  0  0  0
   -0.2680   -0.7367    0.2062 H   0  0  0  0  0  0  0  0  0  0  0  0
   -1.2212    1.1806   -0.0314 C   0  0  0  0  0  0  0  0  0  0  0  0
   -2.1476    1.1180   -0.6060 H   0  0  0  0  0  0  0  0  0  0  0  0
   -1.3213    1.9942    0.6884 H   0  0  0  0  0  0  0  0  0  0  0  0
   -0.0750    1.5023   -1.0031 C   0  0  0  0  0  0  0  0  0  0  0  0
    0.7984    1.8350   -0.4416 H   0  0  0  0  0  0  0  0  0  0  0  0
    0.1826    0.6025   -1.5648 H   0  0  0  0  0  0  0  0  0  0  0  0
   -0.4823    2.6087   -1.9828 C   0  0  0  0  0  0  0  0  0  0  0  0
   -1.3605    2.2935   -2.5471 H   0  0  0  0  0  0  0  0  0  0  0  0
   -0.7177    3.5172   -1.4278 H   0  0  0  0  0  0  0  0  0  0  0  0
    0.6644    2.8911   -2.9516 C   0  0  0  0  0  0  0  0  0  0  0  0
    1.5369    3.2238   -2.3918 H   0  0  0  0  0  0  0  0  0  0  0  0
    0.9126    1.9803   -3.4941 H   0  0  0  0  0  0  0  0  0  0  0  0
    0.2988    3.9310   -3.9203 N   0  0  0  0  0  0  0  0  0  0  0  0
    1.0821    4.1013   -4.5339 H   0  0  0  0  0  0  0  0  0  0  0  0
   -0.4909    3.6140   -4.4645 H   0  0  0  0  0  0  0  0  0  0  0  0
   -0.5564    0.0727    2.1744 C   0  0  0  0  0  0  0  0  0  0  0  0
    0.6169   -0.1288    2.4805 O   0  0  0  0  0  0  0  0  0  0  0  0
   -1.4759    0.4743    3.0595 N   0  0  0  0  0  0  0  0  0  0  0  0
   -2.4132    0.6318    2.7275 H   0  0  0  0  0  0  0  0  0  0  0  0
   -1.1971    0.7118    4.4750 C   0  0  0  0  0  0  0  0  0  0  0  0
   -0.3779    1.4272    4.5748 H   0  0  0  0  0  0  0  0  0  0  0  0
   -2.0826    1.1064    4.9754 H   0  0  0  0  0  0  0  0  0  0  0  0
   -0.8992   -0.2240    4.9525 H   0  0  0  0  0  0  0  0  0  0  0  0
  5  6  2  0  0  0  0
  5  7  1  0  0  0  0
  2  3  1  0  0  0  0
  2  4  1  0  0  0  0
  2  5  1  0  0  0  0
  1  2  1  0  0  0  0
 26 27  2  0  0  0  0
 26 28  1  0  0  0  0
 23 24  1  0  0  0  0
 23 25  1  0  0  0  0
 20 21  1  0  0  0  0
 20 22  1  0  0  0  0
 20 23  1  0  0  0  0
 17 18  1  0  0  0  0
 17 19  1  0  0  0  0
 17 20  1  0  0  0  0
 14 15  1  0  0  0  0
 14 16  1  0  0  0  0
 14 17  1  0  0  0  0
 11 12  1  0  0  0  0
 11 13  1  0  0  0  0
 11 14  1  0  0  0  0
  9 10  1  0  0  0  0
  9 11  1  0  0  0  0
  9 26  1  0  0  0  0
  7  8  1  0  0  0  0
  7  9  1  0  0  0  0
 30 31  1  0  0  0  0
 30 32  1  0  0  0  0
 30 33  1  0  0  0  0
 28 29  1  0  0  0  0
 28 30  1  0  0  0  0
M  END
$$$$
default_name
  -OEChem-02102213163D

 33 32  0     1  0  0  0  0  0999 V2000
   -3.8420   -3.6918    1.5562 H   0  0  0  0  0  0  0  0  0  0  0  0
   -3.8430   -2.7008    1.1032 C   0  0  0  0  0  0  0  0  0  0  0  0
   -4.5510   -2.0608    1.6242 H   0  0  0  0  0  0  0  0  0  0  0  0
   -4.1140   -2.7798    0.0522 H   0  0  0  0  0  0  0  0  0  0  0  0
   -2.4570   -2.1098    1.2172 C   0  0  0  0  0  0  0  0  0  0  0  0
   -1.5600   -2.7438    1.7572 O   0  0  0  0  0  0  0  0  0  0  0  0
   -2.2870   -0.8898    0.7102 N   0  0  0  0  0  0  0  0  0  0  0  0
   -3.0820   -0.4218    0.2992 H   0  0  0  0  0  0  0  0  0  0  0  0
   -1.0240   -0.1468    0.7262 C   0  0  1  0  0  0  0  0  0  0  0  0
   -0.2680   -0.7367    0.2062 H   0  0  0  0  0  0  0  0  0  0  0  0
   -1.2212    1.1806   -0.0314 C   0  0  0  0  0  0  0  0  0  0  0  0
   -2.2536    1.2292   -0.3837 H   0  0  0  0  0  0  0  0  0  0  0  0
   -1.0555    2.0136    0.6532 H   0  0  0  0  0  0  0  0  0  0  0  0
   -0.2924    1.3312   -1.2464 C   0  0  0  0  0  0  0  0  0  0  0  0
    0.7471    1.2906   -0.9198 H   0  0  0  0  0  0  0  0  0  0  0  0
   -0.4798    0.5136   -1.9449 H   0  0  0  0  0  0  0  0  0  0  0  0
   -0.5340    2.6673   -1.9578 C   0  0  0  0  0  0  0  0  0  0  0  0
   -1.5729    2.7262   -2.2840 H   0  0  0  0  0  0  0  0  0  0  0  0
   -0.3250    3.4879   -1.2709 H   0  0  0  0  0  0  0  0  0  0  0  0
    0.3831    2.7802   -3.1741 C   0  0  0  0  0  0  0  0  0  0  0  0
    1.4214    2.7403   -2.8488 H   0  0  0  0  0  0  0  0  0  0  0  0
    0.1881    1.9515   -3.8527 H   0  0  0  0  0  0  0  0  0  0  0  0
    0.1606    4.0398   -3.8933 N   0  0  0  0  0  0  0  0  0  0  0  0
    0.7910    4.0870   -4.6803 H   0  0  0  0  0  0  0  0  0  0  0  0
   -0.7930    4.0680   -4.2251 H   0  0  0  0  0  0  0  0  0  0  0  0
   -0.5564    0.0727    2.1744 C   0  0  0  0  0  0  0  0  0  0  0  0
    0.6169   -0.1288    2.4805 O   0  0  0  0  0  0  0  0  0  0  0  0
   -1.4759    0.4743    3.0595 N   0  0  0  0  0  0  0  0  0  0  0  0
   -2.4132    0.6318    2.7275 H   0  0  0  0  0  0  0  0  0  0  0  0
   -1.1971    0.7118    4.4750 C   0  0  0  0  0  0  0  0  0  0  0  0
   -0.3779    1.4272    4.5748 H   0  0  0  0  0  0  0  0  0  0  0  0
   -2.0826    1.1064    4.9754 H   0  0  0  0  0  0  0  0  0  0  0  0
   -0.8992   -0.2240    4.9525 H   0  0  0  0  0  0  0  0  0  0  0  0
  5  6  2  0  0  0  0
  5  7  1  0  0  0  0
  2  3  1  0  0  0  0
  2  4  1  0  0  0  0
  2  5  1  0  0  0  0
  1  2  1  0  0  0  0
 26 27  2  0  0  0  0
 26 28  1  0  0  0  0
 23 24  1  0  0  0  0
 23 25  1  0  0  0  0
 20 21  1  0  0  0  0
 20 22  1  0  0  0  0
 20 23  1  0  0  0  0
 17 18  1  0  0  0  0
 17 19  1  0  0  0  0
 17 20  1  0  0  0  0
 14 15  1  0  0  0  0
 14 16  1  0  0  0  0
 14 17  1  0  0  0  0
 11 12  1  0  0  0  0
 11 13  1  0  0  0  0
 11 14  1  0  0  0  0
  9 10  1  0  0  0  0
  9 11  1  0  0  0  0
  9 26  1  0  0  0  0
  7  8  1  0  0  0  0
  7  9  1  0  0  0  0
 30 31  1  0  0  0  0
 30 32  1  0  0  0  0
 30 33  1  0  0  0  0
 28 29  1  0  0  0  0
 28 30  1  0  0  0  0
M  END
$$$$
default_name
  -OEChem-02102213163D

 33 32  0     1  0  0  0  0  0999 V2000
   -3.8420   -3.6918    1.5562 H   0  0  0  0  0  0  0  0  0  0  0  0
   -3.8430   -2.7008    1.1032 C   0  0  0  0  0  0  0  0  0  0  0  0
   -4.5510   -2.0608    1.6242 H   0  0  0  0  0  0  0  0  0  0  0  0
   -4.1140   -2.7798    0.0522 H   0  0  0  0  0  0  0  0  0  0  0  0
   -2.4570   -2.1098    1.2172 C   0  0  0  0  0  0  0  0  0  0  0  0
   -1.5600   -2.7438    1.7572 O   0  0  0  0  0  0  0  0  0  0  0  0
   -2.2870   -0.8898    0.7102 N   0  0  0  0  0  0  0  0  0  0  0  0
   -3.0820   -0.4218    0.2992 H   0  0  0  0  0  0  0  0  0  0  0  0
   -1.0240   -0.1468    0.7262 C   0  0  1  0  0  0  0  0  0  0  0  0
   -0.2680   -0.7367    0.2062 H   0  0  0  0  0  0  0  0  0  0  0  0
   -1.2212    1.1806   -0.0314 C   0  0  0  0  0  0  0  0  0  0  0  0
   -2.2536    1.2292   -0.3837 H   0  0  0  0  0  0  0  0  0  0  0  0
   -1.0555    2.0136    0.6532 H   0  0  0  0  0  0  0  0  0  0  0  0
   -0.2924    1.3312   -1.2464 C   0  0  0  0  0  0  0  0  0  0  0  0
    0.7191    1.0294   -0.9734 H   0  0  0  0  0  0  0  0  0  0  0  0
   -0.6510    0.6902   -2.0539 H   0  0  0  0  0  0  0  0  0  0  0  0
   -0.2591    2.7843   -1.7332 C   0  0  0  0  0  0  0  0  0  0  0  0
   -1.2663    3.1036   -2.0029 H   0  0  0  0  0  0  0  0  0  0  0  0
    0.1211    3.4256   -0.9375 H   0  0  0  0  0  0  0  0  0  0  0  0
    0.6504    2.9011   -2.9547 C   0  0  0  0  0  0  0  0  0  0  0  0
    1.6610    2.6004   -2.6830 H   0  0  0  0  0  0  0  0  0  0  0  0
    0.2822    2.2478   -3.7441 H   0  0  0  0  0  0  0  0  0  0  0  0
    0.6866    4.2777   -3.4618 N   0  0  0  0  0  0  0  0  0  0  0  0
    1.3059    4.3207   -4.2577 H   0  0  0  0  0  0  0  0  0  0  0  0
   -0.2436    4.5508   -3.7453 H   0  0  0  0  0  0  0  0  0  0  0  0
   -0.5564    0.0727    2.1744 C   0  0  0  0  0  0  0  0  0  0  0  0
    0.6169   -0.1288    2.4805 O   0  0  0  0  0  0  0  0  0  0  0  0
   -1.4759    0.4743    3.0595 N   0  0  0  0  0  0  0  0  0  0  0  0
   -2.4132    0.6318    2.7275 H   0  0  0  0  0  0  0  0  0  0  0  0
   -1.1971    0.7118    4.4750 C   0  0  0  0  0  0  0  0  0  0  0  0
   -0.3779    1.4272    4.5748 H   0  0  0  0  0  0  0  0  0  0  0  0
   -2.0826    1.1064    4.9754 H   0  0  0  0  0  0  0  0  0  0  0  0
   -0.8992   -0.2240    4.9525 H   0  0  0  0  0  0  0  0  0  0  0  0
  5  6  2  0  0  0  0
  5  7  1  0  0  0  0
  2  3  1  0  0  0  0
  2  4  1  0  0  0  0
  2  5  1  0  0  0  0
  1  2  1  0  0  0  0
 26 27  2  0  0  0  0
 26 28  1  0  0  0  0
 23 24  1  0  0  0  0
 23 25  1  0  0  0  0
 20 21  1  0  0  0  0
 20 22  1  0  0  0  0
 20 23  1  0  0  0  0
 17 18  1  0  0  0  0
 17 19  1  0  0  0  0
 17 20  1  0  0  0  0
 14 15  1  0  0  0  0
 14 16  1  0  0  0  0
 14 17  1  0  0  0  0
 11 12  1  0  0  0  0
 11 13  1  0  0  0  0
 11 14  1  0  0  0  0
  9 10  1  0  0  0  0
  9 11  1  0  0  0  0
  9 26  1  0  0  0  0
  7  8  1  0  0  0  0
  7  9  1  0  0  0  0
 30 31  1  0  0  0  0
 30 32  1  0  0  0  0
 30 33  1  0  0  0  0
 28 29  1  0  0  0  0
 28 30  1  0  0  0  0
M  END
$$$$
default_name
  -OEChem-02102213163D

 33 32  0     1  0  0  0  0  0999 V2000
   -3.8420   -3.6918    1.5562 H   0  0  0  0  0  0  0  0  0  0  0  0
   -3.8430   -2.7008    1.1032 C   0  0  0  0  0  0  0  0  0  0  0  0
   -4.5510   -2.0608    1.6242 H   0  0  0  0  0  0  0  0  0  0  0  0
   -4.1140   -2.7798    0.0522 H   0  0  0  0  0  0  0  0  0  0  0  0
   -2.4570   -2.1098    1.2172 C   0  0  0  0  0  0  0  0  0  0  0  0
   -1.5600   -2.7438    1.7572 O   0  0  0  0  0  0  0  0  0  0  0  0
   -2.2870   -0.8898    0.7102 N   0  0  0  0  0  0  0  0  0  0  0  0
   -3.0820   -0.4218    0.2992 H   0  0  0  0  0  0  0  0  0  0  0  0
   -1.0240   -0.1468    0.7262 C   0  0  1  0  0  0  0  0  0  0  0  0
   -0.2680   -0.7367    0.2062 H   0  0  0  0  0  0  0  0  0  0  0  0
   -1.2212    1.1806   -0.0314 C   0  0  0  0  0  0  0  0  0  0  0  0
   -2.2536    1.2292   -0.3837 H   0  0  0  0  0  0  0  0  0  0  0  0
   -1.0555    2.0136    0.6532 H   0  0  0  0  0  0  0  0  0  0  0  0
   -0.2924    1.3312   -1.2464 C   0  0  0  0  0  0  0  0  0  0  0  0
    0.6374    0.7912   -1.0655 H   0  0  0  0  0  0  0  0  0  0  0  0
   -0.7830    0.9130   -2.1272 H   0  0  0  0  0  0  0  0  0  0  0  0
    0.0360    2.8060   -1.5049 C   0  0  0  0  0  0  0  0  0  0  0  0
   -0.8858    3.3615   -1.6801 H   0  0  0  0  0  0  0  0  0  0  0  0
    0.5478    3.2220   -0.6366 H   0  0  0  0  0  0  0  0  0  0  0  0
    0.9390    2.9288   -2.7307 C   0  0  0  0  0  0  0  0  0  0  0  0
    1.8680    2.3903   -2.5508 H   0  0  0  0  0  0  0  0  0  0  0  0
    0.4366    2.4977   -3.5951 H   0  0  0  0  0  0  0  0  0  0  0  0
    1.2542    4.3323   -3.0211 N   0  0  0  0  0  0  0  0  0  0  0  0
    1.8618    4.3749   -3.8261 H   0  0  0  0  0  0  0  0  0  0  0  0
    0.3980    4.8298   -3.2203 H   0  0  0  0  0  0  0  0  0  0  0  0
   -0.5564    0.0727    2.1744 C   0  0  0  0  0  0  0  0  0  0  0  0
    0.6169   -0.1288    2.4805 O   0  0  0  0  0  0  0  0  0  0  0  0
   -1.4759    0.4743    3.0595 N   0  0  0  0  0  0  0  0  0  0  0  0
   -2.4132    0.6318    2.7275 H   0  0  0  0  0  0  0  0  0  0  0  0
   -1.1971    0.7118    4.4750 C   0  0  0  0  0  0  0  0  0  0  0  0
   -0.3779    1.4272    4.5748 H   0  0  0  0  0  0  0  0  0  0  0  0
   -2.0826    1.1064    4.9754 H   0  0  0  0  0  0  0  0  0  0  0  0
   -0.8992   -0.2240    4.9525 H   0  0  0  0  0  0  0  0  0  0  0  0
  5  6  2  0  0  0  0
  5  7  1  0  0  0  0
  2  3  1  0  0  0  0
  2  4  1  0  0  0  0
  2  5  1  0  0  0  0
  1  2  1  0  0  0  0
 26 27  2  0  0  0  0
 26 28  1  0  0  0  0
 23 24  1  0  0  0  0
 23 25  1  0  0  0  0
 20 21  1  0  0  0  0
 20 22  1  0  0  0  0
 20 23  1  0  0  0  0
 17 18  1  0  0  0  0
 17 19  1  0  0  0  0
 17 20  1  0  0  0  0
 14 15  1  0  0  0  0
 14 16  1  0  0  0  0
 14 17  1  0  0  0  0
 11 12  1  0  0  0  0
 11 13  1  0  0  0  0
 11 14  1  0  0  0  0
  9 10  1  0  0  0  0
  9 11  1  0  0  0  0
  9 26  1  0  0  0  0
  7  8  1  0  0  0  0
  7  9  1  0  0  0  0
 30 31  1  0  0  0  0
 30 32  1  0  0  0  0
 30 33  1  0  0  0  0
 28 29  1  0  0  0  0
 28 30  1  0  0  0  0
M  END
$$$$
default_name
  -OEChem-02102213163D

 33 32  0     1  0  0  0  0  0999 V2000
   -3.8420   -3.6918    1.5562 H   0  0  0  0  0  0  0  0  0  0  0  0
   -3.8430   -2.7008    1.1032 C   0  0  0  0  0  0  0  0  0  0  0  0
   -4.5510   -2.0608    1.6242 H   0  0  0  0  0  0  0  0  0  0  0  0
   -4.1140   -2.7798    0.0522 H   0  0  0  0  0  0  0  0  0  0  0  0
   -2.4570   -2.1098    1.2172 C   0  0  0  0  0  0  0  0  0  0  0  0
   -1.5600   -2.7438    1.7572 O   0  0  0  0  0  0  0  0  0  0  0  0
   -2.2870   -0.8898    0.7102 N   0  0  0  0  0  0  0  0  0  0  0  0
   -3.0820   -0.4218    0.2992 H   0  0  0  0  0  0  0  0  0  0  0  0
   -1.0240   -0.1468    0.7262 C   0  0  1  0  0  0  0  0  0  0  0  0
   -0.2680   -0.7367    0.2062 H   0  0  0  0  0  0  0  0  0  0  0  0
   -1.2212    1.1806   -0.0314 C   0  0  0  0  0  0  0  0  0  0  0  0
   -2.2536    1.2292   -0.3837 H   0  0  0  0  0  0  0  0  0  0  0  0
   -1.0555    2.0136    0.6532 H   0  0  0  0  0  0  0  0  0  0  0  0
   -0.2924    1.3312   -1.2464 C   0  0  0  0  0  0  0  0  0  0  0  0
    0.5073    0.5922   -1.1895 H   0  0  0  0  0  0  0  0  0  0  0  0
   -0.8668    1.1666   -2.1599 H   0  0  0  0  0  0  0  0  0  0  0  0
    0.3313    2.7308   -1.2884 C   0  0  0  0  0  0  0  0  0  0  0  0
   -0.4573    3.4822   -1.3376 H   0  0  0  0  0  0  0  0  0  0  0  0
    0.9259    2.8910   -0.3886 H   0  0  0  0  0  0  0  0  0  0  0  0
    1.2290    2.8615   -2.5173 C   0  0  0  0  0  0  0  0  0  0  0  0
    2.0283    2.1243   -2.4612 H   0  0  0  0  0  0  0  0  0  0  0  0
    0.6406    2.6843   -3.4161 H   0  0  0  0  0  0  0  0  0  0  0  0
    1.8248    4.1999   -2.6013 N   0  0  0  0  0  0  0  0  0  0  0  0
    2.4208    4.2461   -3.4147 H   0  0  0  0  0  0  0  0  0  0  0  0
    1.0882    4.8858   -2.6858 H   0  0  0  0  0  0  0  0  0  0  0  0
   -0.5564    0.0727    2.1744 C   0  0  0  0  0  0  0  0  0  0  0  0
    0.6169   -0.1288    2.4805 O   0  0  0  0  0  0  0  0  0  0  0  0
   -1.4759    0.4743    3.0595 N   0  0  0  0  0  0  0  0  0  0  0  0
   -2.4132    0.6318    2.7275 H   0  0  0  0  0  0  0  0  0  0  0  0
   -1.1971    0.7118    4.4750 C   0  0  0  0  0  0  0  0  0  0  0  0
   -0.3779    1.4272    4.5748 H   0  0  0  0  0  0  0  0  0  0  0  0
   -2.0826    1.1064    4.9754 H   0  0  0  0  0  0  0  0  0  0  0  0
   -0.8992   -0.2240    4.9525 H   0  0  0  0  0  0  0  0  0  0  0  0
  5  6  2  0  0  0  0
  5  7  1  0  0  0  0
  2  3  1  0  0  0  0
  2  4  1  0  0  0  0
  2  5  1  0  0  0  0
  1  2  1  0  0  0  0
 26 27  2  0  0  0  0
 26 28  1  0  0  0  0
 23 24  1  0  0  0  0
 23 25  1  0  0  0  0
 20 21  1  0  0  0  0
 20 22  1  0  0  0  0
 20 23  1  0  0  0  0
 17 18  1  0  0  0  0
 17 19  1  0  0  0  0
 17 20  1  0  0  0  0
 14 15  1  0  0  0  0
 14 16  1  0  0  0  0
 14 17  1  0  0  0  0
 11 12  1  0  0  0  0
 11 13  1  0  0  0  0
 11 14  1  0  0  0  0
  9 10  1  0  0  0  0
  9 11  1  0  0  0  0
  9 26  1  0  0  0  0
  7  8  1  0  0  0  0
  7  9  1  0  0  0  0
 30 31  1  0  0  0  0
 30 32  1  0  0  0  0
 30 33  1  0  0  0  0
 28 29  1  0  0  0  0
 28 30  1  0  0  0  0
M  END
$$$$
default_name
  -OEChem-02102213163D

 33 32  0     1  0  0  0  0  0999 V2000
   -3.8420   -3.6918    1.5562 H   0  0  0  0  0  0  0  0  0  0  0  0
   -3.8430   -2.7008    1.1032 C   0  0  0  0  0  0  0  0  0  0  0  0
   -4.5510   -2.0608    1.6242 H   0  0  0  0  0  0  0  0  0  0  0  0
   -4.1140   -2.7798    0.0522 H   0  0  0  0  0  0  0  0  0  0  0  0
   -2.4570   -2.1098    1.2172 C   0  0  0  0  0  0  0  0  0  0  0  0
   -1.5600   -2.7438    1.7572 O   0  0  0  0  0  0  0  0  0  0  0  0
   -2.2870   -0.8898    0.7102 N   0  0  0  0  0  0  0  0  0  0  0  0
   -3.0820   -0.4218    0.2992 H   0  0  0  0  0  0  0  0  0  0  0  0
   -1.0240   -0.1468    0.7262 C   0  0  1  0  0  0  0  0  0  0  0  0
   -0.2680   -0.7367    0.2062 H   0  0  0  0  0  0  0  0  0  0  0  0
   -1.2212    1.1806   -0.0314 C   0  0  0  0  0  0  0  0  0  0  0  0
   -2.2536    1.2292   -0.3837 H   0  0  0  0  0  0  0  0  0  0  0  0
   -1.0555    2.0136    0.6532 H   0  0  0  0  0  0  0  0  0  0  0  0
   -0.2924    1.3312   -1.2464 C   0  0  0  0  0  0  0  0  0  0  0  0
    0.3378    0.4461   -1.3372 H   0  0  0  0  0  0  0  0  0  0  0  0
   -0.8967    1.4339   -2.1496 H   0  0  0  0  0  0  0  0  0  0  0  0
    0.6067    2.5638   -1.0986 C   0  0  0  0  0  0  0  0  0  0  0  0
   -0.0101    3.4575   -0.9988 H   0  0  0  0  0  0  0  0  0  0  0  0
    1.2297    2.4550   -0.2104 H   0  0  0  0  0  0  0  0  0  0  0  0
    1.5009    2.7038   -2.3291 C   0  0  0  0  0  0  0  0  0  0  0  0
    2.1310    1.8205   -2.4203 H   0  0  0  0  0  0  0  0  0  0  0  0
    0.8804    2.7947   -3.2191 H   0  0  0  0  0  0  0  0  0  0  0  0
    2.3596    3.8896   -2.2310 N   0  0  0  0  0  0  0  0  0  0  0  0
    2.9449    3.9429   -3.0517 H   0  0  0  0  0  0  0  0  0  0  0  0
    1.7798    4.7151   -2.1782 H   0  0  0  0  0  0  0  0  0  0  0  0
   -0.5564    0.0727    2.1744 C   0  0  0  0  0  0  0  0  0  0  0  0
    0.6169   -0.1288    2.4805 O   0  0  0  0  0  0  0  0  0  0  0  0
   -1.4759    0.4743    3.0595 N   0  0  0  0  0  0  0  0  0  0  0  0
   -2.4132    0.6318    2.7275 H   0  0  0  0  0  0  0  0  0  0  0  0
   -1.1971    0.7118    4.4750 C   0  0  0  0  0  0  0  0  0  0  0  0
   -0.3779    1.4272    4.5748 H   0  0  0  0  0  0  0  0  0  0  0  0
   -2.0826    1.1064    4.9754 H   0  0  0  0  0  0  0  0  0  0  0  0
   -0.8992   -0.2240    4.9525 H   0  0  0  0  0  0  0  0  0  0  0  0
  5  6  2  0  0  0  0
  5  7  1  0  0  0  0
  2  3  1  0  0  0  0
  2  4  1  0  0  0  0
  2  5  1  0  0  0  0
  1  2  1  0  0  0  0
 26 27  2  0  0  0  0
 26 28  1  0  0  0  0
 23 24  1  0  0  0  0
 23 25  1  0  0  0  0
 20 21  1  0  0  0  0
 20 22  1  0  0  0  0
 20 23  1  0  0  0  0
 17 18  1  0  0  0  0
 17 19  1  0  0  0  0
 17 20  1  0  0  0  0
 14 15  1  0  0  0  0
 14 16  1  0  0  0  0
 14 17  1  0  0  0  0
 11 12  1  0  0  0  0
 11 13  1  0  0  0  0
 11 14  1  0  0  0  0
  9 10  1  0  0  0  0
  9 11  1  0  0  0  0
  9 26  1  0  0  0  0
  7  8  1  0  0  0  0
  7  9  1  0  0  0  0
 30 31  1  0  0  0  0
 30 32  1  0  0  0  0
 30 33  1  0  0  0  0
 28 29  1  0  0  0  0
 28 30  1  0  0  0  0
M  END
$$$$
default_name
  -OEChem-02102213163D

 33 32  0     1  0  0  0  0  0999 V2000
   -3.8420   -3.6918    1.5562 H   0  0  0  0  0  0  0  0  0  0  0  0
   -3.8430   -2.7008    1.1032 C   0  0  0  0  0  0  0  0  0  0  0  0
   -4.5510   -2.0608    1.6242 H   0  0  0  0  0  0  0  0  0  0  0  0
   -4.1140   -2.7798    0.0522 H   0  0  0  0  0  0  0  0  0  0  0  0
   -2.4570   -2.1098    1.2172 C   0  0  0  0  0  0  0  0  0  0  0  0
   -1.5600   -2.7438    1.7572 O   0  0  0  0  0  0  0  0  0  0  0  0
   -2.2870   -0.8898    0.7102 N   0  0  0  0  0  0  0  0  0  0  0  0
   -3.0820   -0.4218    0.2992 H   0  0  0  0  0  0  0  0  0  0  0  0
   -1.0240   -0.1468    0.7262 C   0  0  1  0  0  0  0  0  0  0  0  0
   -0.2680   -0.7367    0.2062 H   0  0  0  0  0  0  0  0  0  0  0  0
   -1.2212    1.1806   -0.0314 C   0  0  0  0  0  0  0  0  0  0  0  0
   -2.2536    1.2292   -0.3837 H   0  0  0  0  0  0  0  0  0  0  0  0
   -1.0555    2.0136    0.6532 H   0  0  0  0  0  0  0  0  0  0  0  0
   -0.2924    1.3312   -1.2464 C   0  0  0  0  0  0  0  0  0  0  0  0
    0.1405    0.3627   -1.4984 H   0  0  0  0  0  0  0  0  0  0  0  0
   -0.8706    1.6965   -2.0971 H   0  0  0  0  0  0  0  0  0  0  0  0
    0.8433    2.3165   -0.9484 C   0  0  0  0  0  0  0  0  0  0  0  0
    0.4255    3.2891   -0.6867 H   0  0  0  0  0  0  0  0  0  0  0  0
    1.4384    1.9439   -0.1142 H   0  0  0  0  0  0  0  0  0  0  0  0
    1.7359    2.4663   -2.1788 C   0  0  0  0  0  0  0  0  0  0  0  0
    2.1691    1.4997   -2.4310 H   0  0  0  0  0  0  0  0  0  0  0  0
    1.1395    2.8214   -3.0177 H   0  0  0  0  0  0  0  0  0  0  0  0
    2.8220    3.4225   -1.9353 N   0  0  0  0  0  0  0  0  0  0  0  0
    3.3982    3.4859   -2.7618 H   0  0  0  0  0  0  0  0  0  0  0  0
    2.4259    4.3292   -1.7322 H   0  0  0  0  0  0  0  0  0  0  0  0
   -0.5564    0.0727    2.1744 C   0  0  0  0  0  0  0  0  0  0  0  0
    0.6169   -0.1288    2.4805 O   0  0  0  0  0  0  0  0  0  0  0  0
   -1.4759    0.4743    3.0595 N   0  0  0  0  0  0  0  0  0  0  0  0
   -2.4132    0.6318    2.7275 H   0  0  0  0  0  0  0  0  0  0  0  0
   -1.1971    0.7118    4.4750 C   0  0  0  0  0  0  0  0  0  0  0  0
   -0.3779    1.4272    4.5748 H   0  0  0  0  0  0  0  0  0  0  0  0
   -2.0826    1.1064    4.9754 H   0  0  0  0  0  0  0  0  0  0  0  0
   -0.8992   -0.2240    4.9525 H   0  0  0  0  0  0  0  0  0  0  0  0
  5  6  2  0  0  0  0
  5  7  1  0  0  0  0
  2  3  1  0  0  0  0
  2  4  1  0  0  0  0
  2  5  1  0  0  0  0
  1  2  1  0  0  0  0
 26 27  2  0  0  0  0
 26 28  1  0  0  0  0
 23 24  1  0  0  0  0
 23 25  1  0  0  0  0
 20 21  1  0  0  0  0
 20 22  1  0  0  0  0
 20 23  1  0  0  0  0
 17 18  1  0  0  0  0
 17 19  1  0  0  0  0
 17 20  1  0  0  0  0
 14 15  1  0  0  0  0
 14 16  1  0  0  0  0
 14 17  1  0  0  0  0
 11 12  1  0  0  0  0
 11 13  1  0  0  0  0
 11 14  1  0  0  0  0
  9 10  1  0  0  0  0
  9 11  1  0  0  0  0
  9 26  1  0  0  0  0
  7  8  1  0  0  0  0
  7  9  1  0  0  0  0
 30 31  1  0  0  0  0
 30 32  1  0  0  0  0
 30 33  1  0  0  0  0
 28 29  1  0  0  0  0
 28 30  1  0  0  0  0
M  END
$$$$
default_name
  -OEChem-02102213163D

 33 32  0     1  0  0  0  0  0999 V2000
   -3.8420   -3.6918    1.5562 H   0  0  0  0  0  0  0  0  0  0  0  0
   -3.8430   -2.7008    1.1032 C   0  0  0  0  0  0  0  0  0  0  0  0
   -4.5510   -2.0608    1.6242 H   0  0  0  0  0  0  0  0  0  0  0  0
   -4.1140   -2.7798    0.0522 H   0  0  0  0  0  0  0  0  0  0  0  0
   -2.4570   -2.1098    1.2172 C   0  0  0  0  0  0  0  0  0  0  0  0
   -1.5600   -2.7438    1.7572 O   0  0  0  0  0  0  0  0  0  0  0  0
   -2.2870   -0.8898    0.7102 N   0  0  0  0  0  0  0  0  0  0  0  0
   -3.0820   -0.4218    0.2992 H   0  0  0  0  0  0  0  0  0  0  0  0
   -1.0240   -0.1468    0.7262 C   0  0  1  0  0  0  0  0  0  0  0  0
   -0.2680   -0.7367    0.2062 H   0  0  0  0  0  0  0  0  0  0  0  0
   -1.2212    1.1806   -0.0314 C   0  0  0  0  0  0  0  0  0  0  0  0
   -2.2536    1.2292   -0.3837 H   0  0  0  0  0  0  0  0  0  0  0  0
   -1.0555    2.0136    0.6532 H   0  0  0  0  0  0  0  0  0  0  0  0
   -0.2924    1.3312   -1.2464 C   0  0  0  0  0  0  0  0  0  0  0  0
   -0.0713    0.3477   -1.6621 H   0  0  0  0  0  0  0  0  0  0  0  0
   -0.7903    1.9366   -2.0060 H   0  0  0  0  0  0  0  0  0  0  0  0
    1.0251    2.0058   -0.8479 C   0  0  0  0  0  0  0  0  0  0  0  0
    0.8196    2.9886   -0.4226 H   0  0  0  0  0  0  0  0  0  0  0  0
    1.5379    1.3924   -0.1065 H   0  0  0  0  0  0  0  0  0  0  0  0
    1.9182    2.1653   -2.0768 C   0  0  0  0  0  0  0  0  0  0  0  0
    2.1399    1.1837   -2.4924 H   0  0  0  0  0  0  0  0  0  0  0  0
    1.4005    2.7628   -2.8255 H   0  0  0  0  0  0  0  0  0  0  0  0
    3.1806    2.8305   -1.7346 N   0  0  0  0  0  0  0  0  0  0  0  0
    3.7499    2.9065   -2.5647 H   0  0  0  0  0  0  0  0  0  0  0  0
    2.9822    3.7546   -1.3781 H   0  0  0  0  0  0  0  0  0  0  0  0
   -0.5564    0.0727    2.1744 C   0  0  0  0  0  0  0  0  0  0  0  0
    0.6169   -0.1288    2.4805 O   0  0  0  0  0  0  0  0  0  0  0  0
   -1.4759    0.4743    3.0595 N   0  0  0  0  0  0  0  0  0  0  0  0
   -2.4132    0.6318    2.7275 H   0  0  0  0  0  0  0  0  0  0  0  0
   -1.1971    0.7118    4.4750 C   0  0  0  0  0  0  0  0  0  0  0  0
   -0.3779    1.4272    4.5748 H   0  0  0  0  0  0  0  0  0  0  0  0
   -2.0826    1.1064    4.9754 H   0  0  0  0  0  0  0  0  0  0  0  0
   -0.8992   -0.2240    4.9525 H   0  0  0  0  0  0  0  0  0  0  0  0
  5  6  2  0  0  0  0
  5  7  1  0  0  0  0
  2  3  1  0  0  0  0
  2  4  1  0  0  0  0
  2  5  1  0  0  0  0
  1  2  1  0  0  0  0
 26 27  2  0  0  0  0
 26 28  1  0  0  0  0
 23 24  1  0  0  0  0
 23 25  1  0  0  0  0
 20 21  1  0  0  0  0
 20 22  1  0  0  0  0
 20 23  1  0  0  0  0
 17 18  1  0  0  0  0
 17 19  1  0  0  0  0
 17 20  1  0  0  0  0
 14 15  1  0  0  0  0
 14 16  1  0  0  0  0
 14 17  1  0  0  0  0
 11 12  1  0  0  0  0
 11 13  1  0  0  0  0
 11 14  1  0  0  0  0
  9 10  1  0  0  0  0
  9 11  1  0  0  0  0
  9 26  1  0  0  0  0
  7  8  1  0  0  0  0
  7  9  1  0  0  0  0
 30 31  1  0  0  0  0
 30 32  1  0  0  0  0
 30 33  1  0  0  0  0
 28 29  1  0  0  0  0
 28 30  1  0  0  0  0
M  END
$$$$
default_name
  -OEChem-02102213163D

 33 32  0     1  0  0  0  0  0999 V2000
   -3.8420   -3.6918    1.5562 H   0  0  0  0  0  0  0  0  0  0  0  0
   -3.8430   -2.7008    1.1032 C   0  0  0  0  0  0  0  0  0  0  0  0
   -4.5510   -2.0608    1.6242 H   0  0  0  0  0  0  0  0  0  0  0  0
   -4.1140   -2.7798    0.0522 H   0  0  0  0  0  0  0  0  0  0  0  0
   -2.4570   -2.1098    1.2172 C   0  0  0  0  0  0  0  0  0  0  0  0
   -1.5600   -2.7438    1.7572 O   0  0  0  0  0  0  0  0  0  0  0  0
   -2.2870   -0.8898    0.7102 N   0  0  0  0  0  0  0  0  0  0  0  0
   -3.0820   -0.4218    0.2992 H   0  0  0  0  0  0  0  0  0  0  0  0
   -1.0240   -0.1468    0.7262 C   0  0  1  0  0  0  0  0  0  0  0  0
   -0.2680   -0.7367    0.2062 H   0  0  0  0  0  0  0  0  0  0  0  0
   -1.2212    1.1806   -0.0314 C   0  0  0  0  0  0  0  0  0  0  0  0
   -2.2536    1.2292   -0.3837 H   0  0  0  0  0  0  0  0  0  0  0  0
   -1.0555    2.0136    0.6532 H   0  0  0  0  0  0  0  0  0  0  0  0
   -0.2924    1.3312   -1.2464 C   0  0  0  0  0  0  0  0  0  0  0  0
   -0.2831    0.4023   -1.8173 H   0  0  0  0  0  0  0  0  0  0  0  0
   -0.6613    2.1379   -1.8824 H   0  0  0  0  0  0  0  0  0  0  0  0
    1.1396    1.6527   -0.8041 C   0  0  0  0  0  0  0  0  0  0  0  0
    1.1456    2.5763   -0.2245 H   0  0  0  0  0  0  0  0  0  0  0  0
    1.5213    0.8382   -0.1878 H   0  0  0  0  0  0  0  0  0  0  0  0
    2.0352    1.8214   -2.0299 C   0  0  0  0  0  0  0  0  0  0  0  0
    2.0455    0.8941   -2.6005 H   0  0  0  0  0  0  0  0  0  0  0  0
    1.6454    2.6226   -2.6556 H   0  0  0  0  0  0  0  0  0  0  0  0
    3.4109    2.1539   -1.6424 N   0  0  0  0  0  0  0  0  0  0  0  0
    3.9761    2.2440   -2.4739 H   0  0  0  0  0  0  0  0  0  0  0  0
    3.4110    3.0302   -1.1401 H   0  0  0  0  0  0  0  0  0  0  0  0
   -0.5564    0.0727    2.1744 C   0  0  0  0  0  0  0  0  0  0  0  0
    0.6169   -0.1288    2.4805 O   0  0  0  0  0  0  0  0  0  0  0  0
   -1.4759    0.4743    3.0595 N   0  0  0  0  0  0  0  0  0  0  0  0
   -2.4132    0.6318    2.7275 H   0  0  0  0  0  0  0  0  0  0  0  0
   -1.1971    0.7118    4.4750 C   0  0  0  0  0  0  0  0  0  0  0  0
   -0.3779    1.4272    4.5748 H   0  0  0  0  0  0  0  0  0  0  0  0
   -2.0826    1.1064    4.9754 H   0  0  0  0  0  0  0  0  0  0  0  0
   -0.8992   -0.2240    4.9525 H   0  0  0  0  0  0  0  0  0  0  0  0
  5  6  2  0  0  0  0
  5  7  1  0  0  0  0
  2  3  1  0  0  0  0
  2  4  1  0  0  0  0
  2  5  1  0  0  0  0
  1  2  1  0  0  0  0
 26 27  2  0  0  0  0
 26 28  1  0  0  0  0
 23 24  1  0  0  0  0
 23 25  1  0  0  0  0
 20 21  1  0  0  0  0
 20 22  1  0  0  0  0
 20 23  1  0  0  0  0
 17 18  1  0  0  0  0
 17 19  1  0  0  0  0
 17 20  1  0  0  0  0
 14 15  1  0  0  0  0
 14 16  1  0  0  0  0
 14 17  1  0  0  0  0
 11 12  1  0  0  0  0
 11 13  1  0  0  0  0
 11 14  1  0  0  0  0
  9 10  1  0  0  0  0
  9 11  1  0  0  0  0
  9 26  1  0  0  0  0
  7  8  1  0  0  0  0
  7  9  1  0  0  0  0
 30 31  1  0  0  0  0
 30 32  1  0  0  0  0
 30 33  1  0  0  0  0
 28 29  1  0  0  0  0
 28 30  1  0  0  0  0
M  END
$$$$
default_name
  -OEChem-02102213163D

 33 32  0     1  0  0  0  0  0999 V2000
   -3.8420   -3.6918    1.5562 H   0  0  0  0  0  0  0  0  0  0  0  0
   -3.8430   -2.7008    1.1032 C   0  0  0  0  0  0  0  0  0  0  0  0
   -4.5510   -2.0608    1.6242 H   0  0  0  0  0  0  0  0  0  0  0  0
   -4.1140   -2.7798    0.0522 H   0  0  0  0  0  0  0  0  0  0  0  0
   -2.4570   -2.1098    1.2172 C   0  0  0  0  0  0  0  0  0  0  0  0
   -1.5600   -2.7438    1.7572 O   0  0  0  0  0  0  0  0  0  0  0  0
   -2.2870   -0.8898    0.7102 N   0  0  0  0  0  0  0  0  0  0  0  0
   -3.0820   -0.4218    0.2992 H   0  0  0  0  0  0  0  0  0  0  0  0
   -1.0240   -0.1468    0.7262 C   0  0  1  0  0  0  0  0  0  0  0  0
   -0.2680   -0.7367    0.2062 H   0  0  0  0  0  0  0  0  0  0  0  0
   -1.2212    1.1806   -0.0314 C   0  0  0  0  0  0  0  0  0  0  0  0
   -2.2536    1.2292   -0.3837 H   0  0  0  0  0  0  0  0  0  0  0  0
   -1.0555    2.0136    0.6532 H   0  0  0  0  0  0  0  0  0  0  0  0
   -0.2924    1.3312   -1.2464 C   0  0  0  0  0  0  0  0  0  0  0  0
   -0.4804    0.5225   -1.9532 H   0  0  0  0  0  0  0  0  0  0  0  0
   -0.4924    2.2866   -1.7349 H   0  0  0  0  0  0  0  0  0  0  0  0
    1.1791    1.2813   -0.8200 C   0  0  0  0  0  0  0  0  0  0  0  0
    1.3810    2.0804   -0.1060 H   0  0  0  0  0  0  0  0  0  0  0  0
    1.3898    0.3189   -0.3527 H   0  0  0  0  0  0  0  0  0  0  0  0
    2.0791    1.4579   -2.0414 C   0  0  0  0  0  0  0  0  0  0  0  0
    1.8924    0.6505   -2.7477 H   0  0  0  0  0  0  0  0  0  0  0  0
    1.8576    2.4106   -2.5197 H   0  0  0  0  0  0  0  0  0  0  0  0
    3.4972    1.4387   -1.6650 N   0  0  0  0  0  0  0  0  0  0  0  0
    4.0613    1.5436   -2.4955 H   0  0  0  0  0  0  0  0  0  0  0  0
    3.6830    2.2056   -1.0343 H   0  0  0  0  0  0  0  0  0  0  0  0
   -0.5564    0.0727    2.1744 C   0  0  0  0  0  0  0  0  0  0  0  0
    0.6169   -0.1288    2.4805 O   0  0  0  0  0  0  0  0  0  0  0  0
   -1.4759    0.4743    3.0595 N   0  0  0  0  0  0  0  0  0  0  0  0
   -2.4132    0.6318    2.7275 H   0  0  0  0  0  0  0  0  0  0  0  0
   -1.1971    0.7118    4.4750 C   0  0  0  0  0  0  0  0  0  0  0  0
   -0.3779    1.4272    4.5748 H   0  0  0  0  0  0  0  0  0  0  0  0
   -2.0826    1.1064    4.9754 H   0  0  0  0  0  0  0  0  0  0  0  0
   -0.8992   -0.2240    4.9525 H   0  0  0  0  0  0  0  0  0  0  0  0
  5  6  2  0  0  0  0
  5  7  1  0  0  0  0
  2  3  1  0  0  0  0
  2  4  1  0  0  0  0
  2  5  1  0  0  0  0
  1  2  1  0  0  0  0
 26 27  2  0  0  0  0
 26 28  1  0  0  0  0
 23 24  1  0  0  0  0
 23 25  1  0  0  0  0
 20 21  1  0  0  0  0
 20 22  1  0  0  0  0
 20 23  1  0  0  0  0
 17 18  1  0  0  0  0
 17 19  1  0  0  0  0
 17 20  1  0  0  0  0
 14 15  1  0  0  0  0
 14 16  1  0  0  0  0
 14 17  1  0  0  0  0
 11 12  1  0  0  0  0
 11 13  1  0  0  0  0
 11 14  1  0  0  0  0
  9 10  1  0  0  0  0
  9 11  1  0  0  0  0
  9 26  1  0  0  0  0
  7  8  1  0  0  0  0
  7  9  1  0  0  0  0
 30 31  1  0  0  0  0
 30 32  1  0  0  0  0
 30 33  1  0  0  0  0
 28 29  1  0  0  0  0
 28 30  1  0  0  0  0
M  END
$$$$
default_name
  -OEChem-02102213163D

 33 32  0     1  0  0  0  0  0999 V2000
   -3.8420   -3.6918    1.5562 H   0  0  0  0  0  0  0  0  0  0  0  0
   -3.8430   -2.7008    1.1032 C   0  0  0  0  0  0  0  0  0  0  0  0
   -4.5510   -2.0608    1.6242 H   0  0  0  0  0  0  0  0  0  0  0  0
   -4.1140   -2.7798    0.0522 H   0  0  0  0  0  0  0  0  0  0  0  0
   -2.4570   -2.1098    1.2172 C   0  0  0  0  0  0  0  0  0  0  0  0
   -1.5600   -2.7438    1.7572 O   0  0  0  0  0  0  0  0  0  0  0  0
   -2.2870   -0.8898    0.7102 N   0  0  0  0  0  0  0  0  0  0  0  0
   -3.0820   -0.4218    0.2992 H   0  0  0  0  0  0  0  0  0  0  0  0
   -1.0240   -0.1468    0.7262 C   0  0  1  0  0  0  0  0  0  0  0  0
   -0.2680   -0.7367    0.2062 H   0  0  0  0  0  0  0  0  0  0  0  0
   -1.2212    1.1806   -0.0314 C   0  0  0  0  0  0  0  0  0  0  0  0
   -2.2536    1.2292   -0.3837 H   0  0  0  0  0  0  0  0  0  0  0  0
   -1.0555    2.0136    0.6532 H   0  0  0  0  0  0  0  0  0  0  0  0
   -0.2924    1.3312   -1.2464 C   0  0  0  0  0  0  0  0  0  0  0  0
   -0.6499    0.7003   -2.0607 H   0  0  0  0  0  0  0  0  0  0  0  0
   -0.2951    2.3726   -1.5734 H   0  0  0  0  0  0  0  0  0  0  0  0
    1.1408    0.9170   -0.8943 C   0  0  0  0  0  0  0  0  0  0  0  0
    1.5100    1.5346   -0.0750 H   0  0  0  0  0  0  0  0  0  0  0  0
    1.1524   -0.1299   -0.5898 H   0  0  0  0  0  0  0  0  0  0  0  0
    2.0467    1.0995   -2.1105 C   0  0  0  0  0  0  0  0  0  0  0  0
    1.6908    0.4696   -2.9242 H   0  0  0  0  0  0  0  0  0  0  0  0
    2.0226    2.1410   -2.4269 H   0  0  0  0  0  0  0  0  0  0  0  0
    3.4337    0.7338   -1.8009 N   0  0  0  0  0  0  0  0  0  0  0  0
    3.9997    0.8530   -2.6282 H   0  0  0  0  0  0  0  0  0  0  0  0
    3.7796    1.3369   -1.0681 H   0  0  0  0  0  0  0  0  0  0  0  0
   -0.5564    0.0727    2.1744 C   0  0  0  0  0  0  0  0  0  0  0  0
    0.6169   -0.1288    2.4805 O   0  0  0  0  0  0  0  0  0  0  0  0
   -1.4759    0.4743    3.0595 N   0  0  0  0  0  0  0  0  0  0  0  0
   -2.4132    0.6318    2.7275 H   0  0  0  0  0  0  0  0  0  0  0  0
   -1.1971    0.7118    4.4750 C   0  0  0  0  0  0  0  0  0  0  0  0
   -0.3779    1.4272    4.5748 H   0  0  0  0  0  0  0  0  0  0  0  0
   -2.0826    1.1064    4.9754 H   0  0  0  0  0  0  0  0  0  0  0  0
   -0.8992   -0.2240    4.9525 H   0  0  0  0  0  0  0  0  0  0  0  0
  5  6  2  0  0  0  0
  5  7  1  0  0  0  0
  2  3  1  0  0  0  0
  2  4  1  0  0  0  0
  2  5  1  0  0  0  0
  1  2  1  0  0  0  0
 26 27  2  0  0  0  0
 26 28  1  0  0  0  0
 23 24  1  0  0  0  0
 23 25  1  0  0  0  0
 20 21  1  0  0  0  0
 20 22  1  0  0  0  0
 20 23  1  0  0  0  0
 17 18  1  0  0  0  0
 17 19  1  0  0  0  0
 17 20  1  0  0  0  0
 14 15  1  0  0  0  0
 14 16  1  0  0  0  0
 14 17  1  0  0  0  0
 11 12  1  0  0  0  0
 11 13  1  0  0  0  0
 11 14  1  0  0  0  0
  9 10  1  0  0  0  0
  9 11  1  0  0  0  0
  9 26  1  0  0  0  0
  7  8  1  0  0  0  0
  7  9  1  0  0  0  0
 30 31  1  0  0  0  0
 30 32  1  0  0  0  0
 30 33  1  0  0  0  0
 28 29  1  0  0  0  0
 28 30  1  0  0  0  0
M  END
$$$$
default_name
  -OEChem-02102213163D

 33 32  0     1  0  0  0  0  0999 V2000
   -3.8420   -3.6918    1.5562 H   0  0  0  0  0  0  0  0  0  0  0  0
   -3.8430   -2.7008    1.1032 C   0  0  0  0  0  0  0  0  0  0  0  0
   -4.5510   -2.0608    1.6242 H   0  0  0  0  0  0  0  0  0  0  0  0
   -4.1140   -2.7798    0.0522 H   0  0  0  0  0  0  0  0  0  0  0  0
   -2.4570   -2.1098    1.2172 C   0  0  0  0  0  0  0  0  0  0  0  0
   -1.5600   -2.7438    1.7572 O   0  0  0  0  0  0  0  0  0  0  0  0
   -2.2870   -0.8898    0.7102 N   0  0  0  0  0  0  0  0  0  0  0  0
   -3.0820   -0.4218    0.2992 H   0  0  0  0  0  0  0  0  0  0  0  0
   -1.0240   -0.1468    0.7262 C   0  0  1  0  0  0  0  0  0  0  0  0
   -0.2680   -0.7367    0.2062 H   0  0  0  0  0  0  0  0  0  0  0  0
   -1.2212    1.1806   -0.0314 C   0  0  0  0  0  0  0  0  0  0  0  0
   -2.2536    1.2292   -0.3837 H   0  0  0  0  0  0  0  0  0  0  0  0
   -1.0555    2.0136    0.6532 H   0  0  0  0  0  0  0  0  0  0  0  0
   -0.2924    1.3312   -1.2464 C   0  0  0  0  0  0  0  0  0  0  0  0
   -0.7799    0.9236   -2.1325 H   0  0  0  0  0  0  0  0  0  0  0  0
   -0.0828    2.3900   -1.4089 H   0  0  0  0  0  0  0  0  0  0  0  0
    1.0275    0.5846   -1.0222 C   0  0  0  0  0  0  0  0  0  0  0  0
    1.5237    0.9762   -0.1337 H   0  0  0  0  0  0  0  0  0  0  0  0
    0.8251   -0.4778   -0.8830 H   0  0  0  0  0  0  0  0  0  0  0  0
    1.9404    0.7709   -2.2325 C   0  0  0  0  0  0  0  0  0  0  0  0
    1.4547    0.3637   -3.1178 H   0  0  0  0  0  0  0  0  0  0  0  0
    2.1292    1.8324   -2.3837 H   0  0  0  0  0  0  0  0  0  0  0  0
    3.2246    0.0872   -2.0408 N   0  0  0  0  0  0  0  0  0  0  0  0
    3.7955    0.2193   -2.8628 H   0  0  0  0  0  0  0  0  0  0  0  0
    3.6944    0.4832   -1.2390 H   0  0  0  0  0  0  0  0  0  0  0  0
   -0.5564    0.0727    2.1744 C   0  0  0  0  0  0  0  0  0  0  0  0
    0.6169   -0.1288    2.4805 O   0  0  0  0  0  0  0  0  0  0  0  0
   -1.4759    0.4743    3.0595 N   0  0  0  0  0  0  0  0  0  0  0  0
   -2.4132    0.6318    2.7275 H   0  0  0  0  0  0  0  0  0  0  0  0
   -1.1971    0.7118    4.4750 C   0  0  0  0  0  0  0  0  0  0  0  0
   -0.3779    1.4272    4.5748 H   0  0  0  0  0  0  0  0  0  0  0  0
   -2.0826    1.1064    4.9754 H   0  0  0  0  0  0  0  0  0  0  0  0
   -0.8992   -0.2240    4.9525 H   0  0  0  0  0  0  0  0  0  0  0  0
  5  6  2  0  0  0  0
  5  7  1  0  0  0  0
  2  3  1  0  0  0  0
  2  4  1  0  0  0  0
  2  5  1  0  0  0  0
  1  2  1  0  0  0  0
 26 27  2  0  0  0  0
 26 28  1  0  0  0  0
 23 24  1  0  0  0  0
 23 25  1  0  0  0  0
 20 21  1  0  0  0  0
 20 22  1  0  0  0  0
 20 23  1  0  0  0  0
 17 18  1  0  0  0  0
 17 19  1  0  0  0  0
 17 20  1  0  0  0  0
 14 15  1  0  0  0  0
 14 16  1  0  0  0  0
 14 17  1  0  0  0  0
 11 12  1  0  0  0  0
 11 13  1  0  0  0  0
 11 14  1  0  0  0  0
  9 10  1  0  0  0  0
  9 11  1  0  0  0  0
  9 26  1  0  0  0  0
  7  8  1  0  0  0  0
  7  9  1  0  0  0  0
 30 31  1  0  0  0  0
 30 32  1  0  0  0  0
 30 33  1  0  0  0  0
 28 29  1  0  0  0  0
 28 30  1  0  0  0  0
M  END
$$$$
default_name
  -OEChem-02102213163D

 33 32  0     1  0  0  0  0  0999 V2000
   -3.8420   -3.6918    1.5562 H   0  0  0  0  0  0  0  0  0  0  0  0
   -3.8430   -2.7008    1.1032 C   0  0  0  0  0  0  0  0  0  0  0  0
   -4.5510   -2.0608    1.6242 H   0  0  0  0  0  0  0  0  0  0  0  0
   -4.1140   -2.7798    0.0522 H   0  0  0  0  0  0  0  0  0  0  0  0
   -2.4570   -2.1098    1.2172 C   0  0  0  0  0  0  0  0  0  0  0  0
   -1.5600   -2.7438    1.7572 O   0  0  0  0  0  0  0  0  0  0  0  0
   -2.2870   -0.8898    0.7102 N   0  0  0  0  0  0  0  0  0  0  0  0
   -3.0820   -0.4218    0.2992 H   0  0  0  0  0  0  0  0  0  0  0  0
   -1.0240   -0.1468    0.7262 C   0  0  1  0  0  0  0  0  0  0  0  0
   -0.2680   -0.7367    0.2062 H   0  0  0  0  0  0  0  0  0  0  0  0
   -1.2212    1.1806   -0.0314 C   0  0  0  0  0  0  0  0  0  0  0  0
   -2.2536    1.2292   -0.3837 H   0  0  0  0  0  0  0  0  0  0  0  0
   -1.0555    2.0136    0.6532 H   0  0  0  0  0  0  0  0  0  0  0  0
   -0.2924    1.3312   -1.2464 C   0  0  0  0  0  0  0  0  0  0  0  0
   -0.8616    1.1770   -2.1635 H   0  0  0  0  0  0  0  0  0  0  0  0
    0.1300    2.3376   -1.2527 H   0  0  0  0  0  0  0  0  0  0  0  0
    0.8467    0.3067   -1.1948 C   0  0  0  0  0  0  0  0  0  0  0  0
    1.4212    0.4432   -0.2781 H   0  0  0  0  0  0  0  0  0  0  0  0
    0.4304   -0.7010   -1.2124 H   0  0  0  0  0  0  0  0  0  0  0  0
    1.7674    0.4942   -2.3991 C   0  0  0  0  0  0  0  0  0  0  0  0
    1.2000    0.3401   -3.3154 H   0  0  0  0  0  0  0  0  0  0  0  0
    2.1701    1.5058   -2.3929 H   0  0  0  0  0  0  0  0  0  0  0  0
    2.8843   -0.4571   -2.3684 N   0  0  0  0  0  0  0  0  0  0  0  0
    3.4626   -0.3144   -3.1833 H   0  0  0  0  0  0  0  0  0  0  0  0
    3.4330   -0.2971   -1.5355 H   0  0  0  0  0  0  0  0  0  0  0  0
   -0.5564    0.0727    2.1744 C   0  0  0  0  0  0  0  0  0  0  0  0
    0.6169   -0.1288    2.4805 O   0  0  0  0  0  0  0  0  0  0  0  0
   -1.4759    0.4743    3.0595 N   0  0  0  0  0  0  0  0  0  0  0  0
   -2.4132    0.6318    2.7275 H   0  0  0  0  0  0  0  0  0  0  0  0
   -1.1971    0.7118    4.4750 C   0  0  0  0  0  0  0  0  0  0  0  0
   -0.3779    1.4272    4.5748 H   0  0  0  0  0  0  0  0  0  0  0  0
   -2.0826    1.1064    4.9754 H   0  0  0  0  0  0  0  0  0  0  0  0
   -0.8992   -0.2240    4.9525 H   0  0  0  0  0  0  0  0  0  0  0  0
  5  6  2  0  0  0  0
  5  7  1  0  0  0  0
  2  3  1  0  0  0  0
  2  4  1  0  0  0  0
  2  5  1  0  0  0  0
  1  2  1  0  0  0  0
 26 27  2  0  0  0  0
 26 28  1  0  0  0  0
 23 24  1  0  0  0  0
 23 25  1  0  0  0  0
 20 21  1  0  0  0  0
 20 22  1  0  0  0  0
 20 23  1  0  0  0  0
 17 18  1  0  0  0  0
 17 19  1  0  0  0  0
 17 20  1  0  0  0  0
 14 15  1  0  0  0  0
 14 16  1  0  0  0  0
 14 17  1  0  0  0  0
 11 12  1  0  0  0  0
 11 13  1  0  0  0  0
 11 14  1  0  0  0  0
  9 10  1  0  0  0  0
  9 11  1  0  0  0  0
  9 26  1  0  0  0  0
  7  8  1  0  0  0  0
  7  9  1  0  0  0  0
 30 31  1  0  0  0  0
 30 32  1  0  0  0  0
 30 33  1  0  0  0  0
 28 29  1  0  0  0  0
 28 30  1  0  0  0  0
M  END
$$$$
default_name
  -OEChem-02102213163D

 33 32  0     1  0  0  0  0  0999 V2000
   -3.8420   -3.6918    1.5562 H   0  0  0  0  0  0  0  0  0  0  0  0
   -3.8430   -2.7008    1.1032 C   0  0  0  0  0  0  0  0  0  0  0  0
   -4.5510   -2.0608    1.6242 H   0  0  0  0  0  0  0  0  0  0  0  0
   -4.1140   -2.7798    0.0522 H   0  0  0  0  0  0  0  0  0  0  0  0
   -2.4570   -2.1098    1.2172 C   0  0  0  0  0  0  0  0  0  0  0  0
   -1.5600   -2.7438    1.7572 O   0  0  0  0  0  0  0  0  0  0  0  0
   -2.2870   -0.8898    0.7102 N   0  0  0  0  0  0  0  0  0  0  0  0
   -3.0820   -0.4218    0.2992 H   0  0  0  0  0  0  0  0  0  0  0  0
   -1.0240   -0.1468    0.7262 C   0  0  1  0  0  0  0  0  0  0  0  0
   -0.2680   -0.7367    0.2062 H   0  0  0  0  0  0  0  0  0  0  0  0
   -1.2212    1.1806   -0.0314 C   0  0  0  0  0  0  0  0  0  0  0  0
   -2.2536    1.2292   -0.3837 H   0  0  0  0  0  0  0  0  0  0  0  0
   -1.0555    2.0136    0.6532 H   0  0  0  0  0  0  0  0  0  0  0  0
   -0.2924    1.3312   -1.2464 C   0  0  0  0  0  0  0  0  0  0  0  0
   -0.8895    1.4435   -2.1518 H   0  0  0  0  0  0  0  0  0  0  0  0
    0.3288    2.2191   -1.1155 H   0  0  0  0  0  0  0  0  0  0  0  0
    0.6108    0.1023   -1.4005 C   0  0  0  0  0  0  0  0  0  0  0  0
    1.2094   -0.0280   -0.4984 H   0  0  0  0  0  0  0  0  0  0  0  0
   -0.0048   -0.7843   -1.5554 H   0  0  0  0  0  0  0  0  0  0  0  0
    1.5395    0.2885   -2.5988 C   0  0  0  0  0  0  0  0  0  0  0  0
    0.9441    0.4002   -3.5036 H   0  0  0  0  0  0  0  0  0  0  0  0
    2.1425    1.1833   -2.4539 H   0  0  0  0  0  0  0  0  0  0  0  0
    2.4359   -0.8619   -2.7613 N   0  0  0  0  0  0  0  0  0  0  0  0
    3.0238   -0.7116   -3.5680 H   0  0  0  0  0  0  0  0  0  0  0  0
    3.0133   -0.9510   -1.9373 H   0  0  0  0  0  0  0  0  0  0  0  0
   -0.5564    0.0727    2.1744 C   0  0  0  0  0  0  0  0  0  0  0  0
    0.6169   -0.1288    2.4805 O   0  0  0  0  0  0  0  0  0  0  0  0
   -1.4759    0.4743    3.0595 N   0  0  0  0  0  0  0  0  0  0  0  0
   -2.4132    0.6318    2.7275 H   0  0  0  0  0  0  0  0  0  0  0  0
   -1.1971    0.7118    4.4750 C   0  0  0  0  0  0  0  0  0  0  0  0
   -0.3779    1.4272    4.5748 H   0  0  0  0  0  0  0  0  0  0  0  0
   -2.0826    1.1064    4.9754 H   0  0  0  0  0  0  0  0  0  0  0  0
   -0.8992   -0.2240    4.9525 H   0  0  0  0  0  0  0  0  0  0  0  0
  5  6  2  0  0  0  0
  5  7  1  0  0  0  0
  2  3  1  0  0  0  0
  2  4  1  0  0  0  0
  2  5  1  0  0  0  0
  1  2  1  0  0  0  0
 26 27  2  0  0  0  0
 26 28  1  0  0  0  0
 23 24  1  0  0  0  0
 23 25  1  0  0  0  0
 20 21  1  0  0  0  0
 20 22  1  0  0  0  0
 20 23  1  0  0  0  0
 17 18  1  0  0  0  0
 17 19  1  0  0  0  0
 17 20  1  0  0  0  0
 14 15  1  0  0  0  0
 14 16  1  0  0  0  0
 14 17  1  0  0  0  0
 11 12  1  0  0  0  0
 11 13  1  0  0  0  0
 11 14  1  0  0  0  0
  9 10  1  0  0  0  0
  9 11  1  0  0  0  0
  9 26  1  0  0  0  0
  7  8  1  0  0  0  0
  7  9  1  0  0  0  0
 30 31  1  0  0  0  0
 30 32  1  0  0  0  0
 30 33  1  0  0  0  0
 28 29  1  0  0  0  0
 28 30  1  0  0  0  0
M  END
$$$$
default_name
  -OEChem-02102213163D

 33 32  0     1  0  0  0  0  0999 V2000
   -3.8420   -3.6918    1.5562 H   0  0  0  0  0  0  0  0  0  0  0  0
   -3.8430   -2.7008    1.1032 C   0  0  0  0  0  0  0  0  0  0  0  0
   -4.5510   -2.0608    1.6242 H   0  0  0  0  0  0  0  0  0  0  0  0
   -4.1140   -2.7798    0.0522 H   0  0  0  0  0  0  0  0  0  0  0  0
   -2.4570   -2.1098    1.2172 C   0  0  0  0  0  0  0  0  0  0  0  0
   -1.5600   -2.7438    1.7572 O   0  0  0  0  0  0  0  0  0  0  0  0
   -2.2870   -0.8898    0.7102 N   0  0  0  0  0  0  0  0  0  0  0  0
   -3.0820   -0.4218    0.2992 H   0  0  0  0  0  0  0  0  0  0  0  0
   -1.0240   -0.1468    0.7262 C   0  0  1  0  0  0  0  0  0  0  0  0
   -0.2680   -0.7367    0.2062 H   0  0  0  0  0  0  0  0  0  0  0  0
   -1.2212    1.1806   -0.0314 C   0  0  0  0  0  0  0  0  0  0  0  0
   -2.2536    1.2292   -0.3837 H   0  0  0  0  0  0  0  0  0  0  0  0
   -1.0555    2.0136    0.6532 H   0  0  0  0  0  0  0  0  0  0  0  0
   -0.2924    1.3312   -1.2464 C   0  0  0  0  0  0  0  0  0  0  0  0
   -0.8616    1.7047   -2.0981 H   0  0  0  0  0  0  0  0  0  0  0  0
    0.5001    2.0424   -1.0065 H   0  0  0  0  0  0  0  0  0  0  0  0
    0.3359   -0.0148   -1.6251 C   0  0  0  0  0  0  0  0  0  0  0  0
    0.9028   -0.4054   -0.7795 H   0  0  0  0  0  0  0  0  0  0  0  0
   -0.4510   -0.7220   -1.8888 H   0  0  0  0  0  0  0  0  0  0  0  0
    1.2721    0.1676   -2.8182 C   0  0  0  0  0  0  0  0  0  0  0  0
    0.7045    0.5401   -3.6694 H   0  0  0  0  0  0  0  0  0  0  0  0
    2.0483    0.8870   -2.5626 H   0  0  0  0  0  0  0  0  0  0  0  0
    1.9100   -1.0997   -3.1928 N   0  0  0  0  0  0  0  0  0  0  0  0
    2.5089   -0.9453   -3.9906 H   0  0  0  0  0  0  0  0  0  0  0  0
    2.4639   -1.4339   -2.4171 H   0  0  0  0  0  0  0  0  0  0  0  0
   -0.5564    0.0727    2.1744 C   0  0  0  0  0  0  0  0  0  0  0  0
    0.6169   -0.1288    2.4805 O   0  0  0  0  0  0  0  0  0  0  0  0
   -1.4759    0.4743    3.0595 N   0  0  0  0  0  0  0  0  0  0  0  0
   -2.4132    0.6318    2.7275 H   0  0  0  0  0  0  0  0  0  0  0  0
   -1.1971    0.7118    4.4750 C   0  0  0  0  0  0  0  0  0  0  0  0
   -0.3779    1.4272    4.5748 H   0  0  0  0  0  0  0  0  0  0  0  0
   -2.0826    1.1064    4.9754 H   0  0  0  0  0  0  0  0  0  0  0  0
   -0.8992   -0.2240    4.9525 H   0  0  0  0  0  0  0  0  0  0  0  0
  5  6  2  0  0  0  0
  5  7  1  0  0  0  0
  2  3  1  0  0  0  0
  2  4  1  0  0  0  0
  2  5  1  0  0  0  0
  1  2  1  0  0  0  0
 26 27  2  0  0  0  0
 26 28  1  0  0  0  0
 23 24  1  0  0  0  0
 23 25  1  0  0  0  0
 20 21  1  0  0  0  0
 20 22  1  0  0  0  0
 20 23  1  0  0  0  0
 17 18  1  0  0  0  0
 17 19  1  0  0  0  0
 17 20  1  0  0  0  0
 14 15  1  0  0  0  0
 14 16  1  0  0  0  0
 14 17  1  0  0  0  0
 11 12  1  0  0  0  0
 11 13  1  0  0  0  0
 11 14  1  0  0  0  0
  9 10  1  0  0  0  0
  9 11  1  0  0  0  0
  9 26  1  0  0  0  0
  7  8  1  0  0  0  0
  7  9  1  0  0  0  0
 30 31  1  0  0  0  0
 30 32  1  0  0  0  0
 30 33  1  0  0  0  0
 28 29  1  0  0  0  0
 28 30  1  0  0  0  0
M  END
$$$$
default_name
  -OEChem-02102213163D

 33 32  0     1  0  0  0  0  0999 V2000
   -3.8420   -3.6918    1.5562 H   0  0  0  0  0  0  0  0  0  0  0  0
   -3.8430   -2.7008    1.1032 C   0  0  0  0  0  0  0  0  0  0  0  0
   -4.5510   -2.0608    1.6242 H   0  0  0  0  0  0  0  0  0  0  0  0
   -4.1140   -2.7798    0.0522 H   0  0  0  0  0  0  0  0  0  0  0  0
   -2.4570   -2.1098    1.2172 C   0  0  0  0  0  0  0  0  0  0  0  0
   -1.5600   -2.7438    1.7572 O   0  0  0  0  0  0  0  0  0  0  0  0
   -2.2870   -0.8898    0.7102 N   0  0  0  0  0  0  0  0  0  0  0  0
   -3.0820   -0.4218    0.2992 H   0  0  0  0  0  0  0  0  0  0  0  0
   -1.0240   -0.1468    0.7262 C   0  0  1  0  0  0  0  0  0  0  0  0
   -0.2680   -0.7367    0.2062 H   0  0  0  0  0  0  0  0  0  0  0  0
   -1.2212    1.1806   -0.0314 C   0  0  0  0  0  0  0  0  0  0  0  0
   -2.2536    1.2292   -0.3837 H   0  0  0  0  0  0  0  0  0  0  0  0
   -1.0555    2.0136    0.6532 H   0  0  0  0  0  0  0  0  0  0  0  0
   -0.2924    1.3312   -1.2464 C   0  0  0  0  0  0  0  0  0  0  0  0
   -0.7798    1.9428   -2.0061 H   0  0  0  0  0  0  0  0  0  0  0  0
    0.6321    1.8196   -0.9331 H   0  0  0  0  0  0  0  0  0  0  0  0
    0.0407   -0.0364   -1.8534 C   0  0  0  0  0  0  0  0  0  0  0  0
    0.5223   -0.6633   -1.1023 H   0  0  0  0  0  0  0  0  0  0  0  0
   -0.8777   -0.5184   -2.1897 H   0  0  0  0  0  0  0  0  0  0  0  0
    0.9836    0.1399   -3.0422 C   0  0  0  0  0  0  0  0  0  0  0  0
    0.4975    0.7502   -3.8016 H   0  0  0  0  0  0  0  0  0  0  0  0
    1.8940    0.6371   -2.7116 H   0  0  0  0  0  0  0  0  0  0  0  0
    1.3423   -1.1543   -3.6335 N   0  0  0  0  0  0  0  0  0  0  0  0
    1.9530   -0.9996   -4.4222 H   0  0  0  0  0  0  0  0  0  0  0  0
    1.8223   -1.7128   -2.9421 H   0  0  0  0  0  0  0  0  0  0  0  0
   -0.5564    0.0727    2.1744 C   0  0  0  0  0  0  0  0  0  0  0  0
    0.6169   -0.1288    2.4805 O   0  0  0  0  0  0  0  0  0  0  0  0
   -1.4759    0.4743    3.0595 N   0  0  0  0  0  0  0  0  0  0  0  0
   -2.4132    0.6318    2.7275 H   0  0  0  0  0  0  0  0  0  0  0  0
   -1.1971    0.7118    4.4750 C   0  0  0  0  0  0  0  0  0  0  0  0
   -0.3779    1.4272    4.5748 H   0  0  0  0  0  0  0  0  0  0  0  0
   -2.0826    1.1064    4.9754 H   0  0  0  0  0  0  0  0  0  0  0  0
   -0.8992   -0.2240    4.9525 H   0  0  0  0  0  0  0  0  0  0  0  0
  5  6  2  0  0  0  0
  5  7  1  0  0  0  0
  2  3  1  0  0  0  0
  2  4  1  0  0  0  0
  2  5  1  0  0  0  0
  1  2  1  0  0  0  0
 26 27  2  0  0  0  0
 26 28  1  0  0  0  0
 23 24  1  0  0  0  0
 23 25  1  0  0  0  0
 20 21  1  0  0  0  0
 20 22  1  0  0  0  0
 20 23  1  0  0  0  0
 17 18  1  0  0  0  0
 17 19  1  0  0  0  0
 17 20  1  0  0  0  0
 14 15  1  0  0  0  0
 14 16  1  0  0  0  0
 14 17  1  0  0  0  0
 11 12  1  0  0  0  0
 11 13  1  0  0  0  0
 11 14  1  0  0  0  0
  9 10  1  0  0  0  0
  9 11  1  0  0  0  0
  9 26  1  0  0  0  0
  7  8  1  0  0  0  0
  7  9  1  0  0  0  0
 30 31  1  0  0  0  0
 30 32  1  0  0  0  0
 30 33  1  0  0  0  0
 28 29  1  0  0  0  0
 28 30  1  0  0  0  0
M  END
$$$$
default_name
  -OEChem-02102213163D

 33 32  0     1  0  0  0  0  0999 V2000
   -3.8420   -3.6918    1.5562 H   0  0  0  0  0  0  0  0  0  0  0  0
   -3.8430   -2.7008    1.1032 C   0  0  0  0  0  0  0  0  0  0  0  0
   -4.5510   -2.0608    1.6242 H   0  0  0  0  0  0  0  0  0  0  0  0
   -4.1140   -2.7798    0.0522 H   0  0  0  0  0  0  0  0  0  0  0  0
   -2.4570   -2.1098    1.2172 C   0  0  0  0  0  0  0  0  0  0  0  0
   -1.5600   -2.7438    1.7572 O   0  0  0  0  0  0  0  0  0  0  0  0
   -2.2870   -0.8898    0.7102 N   0  0  0  0  0  0  0  0  0  0  0  0
   -3.0820   -0.4218    0.2992 H   0  0  0  0  0  0  0  0  0  0  0  0
   -1.0240   -0.1468    0.7262 C   0  0  1  0  0  0  0  0  0  0  0  0
   -0.2680   -0.7367    0.2062 H   0  0  0  0  0  0  0  0  0  0  0  0
   -1.2212    1.1806   -0.0314 C   0  0  0  0  0  0  0  0  0  0  0  0
   -2.2536    1.2292   -0.3837 H   0  0  0  0  0  0  0  0  0  0  0  0
   -1.0555    2.0136    0.6532 H   0  0  0  0  0  0  0  0  0  0  0  0
   -0.2924    1.3312   -1.2464 C   0  0  0  0  0  0  0  0  0  0  0  0
   -0.6497    2.1418   -1.8820 H   0  0  0  0  0  0  0  0  0  0  0  0
    0.7159    1.5660   -0.9005 H   0  0  0  0  0  0  0  0  0  0  0  0
   -0.2546    0.0388   -2.0698 C   0  0  0  0  0  0  0  0  0  0  0  0
    0.0939   -0.7840   -1.4448 H   0  0  0  0  0  0  0  0  0  0  0  0
   -1.2558   -0.1873   -2.4377 H   0  0  0  0  0  0  0  0  0  0  0  0
    0.6935    0.2072   -3.2556 C   0  0  0  0  0  0  0  0  0  0  0  0
    0.3372    1.0162   -3.8912 H   0  0  0  0  0  0  0  0  0  0  0  0
    1.6900    0.4506   -2.8906 H   0  0  0  0  0  0  0  0  0  0  0  0
    0.7717   -1.0220   -4.0533 N   0  0  0  0  0  0  0  0  0  0  0  0
    1.3940   -0.8707   -4.8336 H   0  0  0  0  0  0  0  0  0  0  0  0
    1.1321   -1.7689   -3.4766 H   0  0  0  0  0  0  0  0  0  0  0  0
   -0.5564    0.0727    2.1744 C   0  0  0  0  0  0  0  0  0  0  0  0
    0.6169   -0.1288    2.4805 O   0  0  0  0  0  0  0  0  0  0  0  0
   -1.4759    0.4743    3.0595 N   0  0  0  0  0  0  0  0  0  0  0  0
   -2.4132    0.6318    2.7275 H   0  0  0  0  0  0  0  0  0  0  0  0
   -1.1971    0.7118    4.4750 C   0  0  0  0  0  0  0  0  0  0  0  0
   -0.3779    1.4272    4.5748 H   0  0  0  0  0  0  0  0  0  0  0  0
   -2.0826    1.1064    4.9754 H   0  0  0  0  0  0  0  0  0  0  0  0
   -0.8992   -0.2240    4.9525 H   0  0  0  0  0  0  0  0  0  0  0  0
  5  6  2  0  0  0  0
  5  7  1  0  0  0  0
  2  3  1  0  0  0  0
  2  4  1  0  0  0  0
  2  5  1  0  0  0  0
  1  2  1  0  0  0  0
 26 27  2  0  0  0  0
 26 28  1  0  0  0  0
 23 24  1  0  0  0  0
 23 25  1  0  0  0  0
 20 21  1  0  0  0  0
 20 22  1  0  0  0  0
 20 23  1  0  0  0  0
 17 18  1  0  0  0  0
 17 19  1  0  0  0  0
 17 20  1  0  0  0  0
 14 15  1  0  0  0  0
 14 16  1  0  0  0  0
 14 17  1  0  0  0  0
 11 12  1  0  0  0  0
 11 13  1  0  0  0  0
 11 14  1  0  0  0  0
  9 10  1  0  0  0  0
  9 11  1  0  0  0  0
  9 26  1  0  0  0  0
  7  8  1  0  0  0  0
  7  9  1  0  0  0  0
 30 31  1  0  0  0  0
 30 32  1  0  0  0  0
 30 33  1  0  0  0  0
 28 29  1  0  0  0  0
 28 30  1  0  0  0  0
M  END
$$$$
default_name
  -OEChem-02102213163D

 33 32  0     1  0  0  0  0  0999 V2000
   -3.8420   -3.6918    1.5562 H   0  0  0  0  0  0  0  0  0  0  0  0
   -3.8430   -2.7008    1.1032 C   0  0  0  0  0  0  0  0  0  0  0  0
   -4.5510   -2.0608    1.6242 H   0  0  0  0  0  0  0  0  0  0  0  0
   -4.1140   -2.7798    0.0522 H   0  0  0  0  0  0  0  0  0  0  0  0
   -2.4570   -2.1098    1.2172 C   0  0  0  0  0  0  0  0  0  0  0  0
   -1.5600   -2.7438    1.7572 O   0  0  0  0  0  0  0  0  0  0  0  0
   -2.2870   -0.8898    0.7102 N   0  0  0  0  0  0  0  0  0  0  0  0
   -3.0820   -0.4218    0.2992 H   0  0  0  0  0  0  0  0  0  0  0  0
   -1.0240   -0.1468    0.7262 C   0  0  1  0  0  0  0  0  0  0  0  0
   -0.2680   -0.7367    0.2062 H   0  0  0  0  0  0  0  0  0  0  0  0
   -1.2212    1.1806   -0.0314 C   0  0  0  0  0  0  0  0  0  0  0  0
   -2.2536    1.2292   -0.3837 H   0  0  0  0  0  0  0  0  0  0  0  0
   -1.0555    2.0136    0.6532 H   0  0  0  0  0  0  0  0  0  0  0  0
   -0.2924    1.3312   -1.2464 C   0  0  0  0  0  0  0  0  0  0  0  0
   -0.4803    2.2879   -1.7344 H   0  0  0  0  0  0  0  0  0  0  0  0
    0.7457    1.2988   -0.9108 H   0  0  0  0  0  0  0  0  0  0  0  0
   -0.5299    0.2057   -2.2596 C   0  0  0  0  0  0  0  0  0  0  0  0
   -0.3534   -0.7593   -1.7836 H   0  0  0  0  0  0  0  0  0  0  0  0
   -1.5596    0.2486   -2.6159 H   0  0  0  0  0  0  0  0  0  0  0  0
    0.4217    0.3649   -3.4438 C   0  0  0  0  0  0  0  0  0  0  0  0
    0.2345    1.3200   -3.9320 H   0  0  0  0  0  0  0  0  0  0  0  0
    1.4502    0.3402   -3.0876 H   0  0  0  0  0  0  0  0  0  0  0  0
    0.2369   -0.7117   -4.4236 N   0  0  0  0  0  0  0  0  0  0  0  0
    0.8699   -0.5675   -5.1966 H   0  0  0  0  0  0  0  0  0  0  0  0
    0.4405   -1.5981   -3.9842 H   0  0  0  0  0  0  0  0  0  0  0  0
   -0.5564    0.0727    2.1744 C   0  0  0  0  0  0  0  0  0  0  0  0
    0.6169   -0.1288    2.4805 O   0  0  0  0  0  0  0  0  0  0  0  0
   -1.4759    0.4743    3.0595 N   0  0  0  0  0  0  0  0  0  0  0  0
   -2.4132    0.6318    2.7275 H   0  0  0  0  0  0  0  0  0  0  0  0
   -1.1971    0.7118    4.4750 C   0  0  0  0  0  0  0  0  0  0  0  0
   -0.3779    1.4272    4.5748 H   0  0  0  0  0  0  0  0  0  0  0  0
   -2.0826    1.1064    4.9754 H   0  0  0  0  0  0  0  0  0  0  0  0
   -0.8992   -0.2240    4.9525 H   0  0  0  0  0  0  0  0  0  0  0  0
  5  6  2  0  0  0  0
  5  7  1  0  0  0  0
  2  3  1  0  0  0  0
  2  4  1  0  0  0  0
  2  5  1  0  0  0  0
  1  2  1  0  0  0  0
 26 27  2  0  0  0  0
 26 28  1  0  0  0  0
 23 24  1  0  0  0  0
 23 25  1  0  0  0  0
 20 21  1  0  0  0  0
 20 22  1  0  0  0  0
 20 23  1  0  0  0  0
 17 18  1  0  0  0  0
 17 19  1  0  0  0  0
 17 20  1  0  0  0  0
 14 15  1  0  0  0  0
 14 16  1  0  0  0  0
 14 17  1  0  0  0  0
 11 12  1  0  0  0  0
 11 13  1  0  0  0  0
 11 14  1  0  0  0  0
  9 10  1  0  0  0  0
  9 11  1  0  0  0  0
  9 26  1  0  0  0  0
  7  8  1  0  0  0  0
  7  9  1  0  0  0  0
 30 31  1  0  0  0  0
 30 32  1  0  0  0  0
 30 33  1  0  0  0  0
 28 29  1  0  0  0  0
 28 30  1  0  0  0  0
M  END
$$$$
default_name
  -OEChem-02102213163D

 33 32  0     1  0  0  0  0  0999 V2000
   -3.8420   -3.6918    1.5562 H   0  0  0  0  0  0  0  0  0  0  0  0
   -3.8430   -2.7008    1.1032 C   0  0  0  0  0  0  0  0  0  0  0  0
   -4.5510   -2.0608    1.6242 H   0  0  0  0  0  0  0  0  0  0  0  0
   -4.1140   -2.7798    0.0522 H   0  0  0  0  0  0  0  0  0  0  0  0
   -2.4570   -2.1098    1.2172 C   0  0  0  0  0  0  0  0  0  0  0  0
   -1.5600   -2.7438    1.7572 O   0  0  0  0  0  0  0  0  0  0  0  0
   -2.2870   -0.8898    0.7102 N   0  0  0  0  0  0  0  0  0  0  0  0
   -3.0820   -0.4218    0.2992 H   0  0  0  0  0  0  0  0  0  0  0  0
   -1.0240   -0.1468    0.7262 C   0  0  1  0  0  0  0  0  0  0  0  0
   -0.2680   -0.7367    0.2062 H   0  0  0  0  0  0  0  0  0  0  0  0
   -1.2212    1.1806   -0.0314 C   0  0  0  0  0  0  0  0  0  0  0  0
   -2.2536    1.2292   -0.3837 H   0  0  0  0  0  0  0  0  0  0  0  0
   -1.0555    2.0136    0.6532 H   0  0  0  0  0  0  0  0  0  0  0  0
   -0.2924    1.3312   -1.2464 C   0  0  0  0  0  0  0  0  0  0  0  0
   -0.2829    2.3713   -1.5732 H   0  0  0  0  0  0  0  0  0  0  0  0
    0.7196    1.0361   -0.9633 H   0  0  0  0  0  0  0  0  0  0  0  0
   -0.7666    0.4530   -2.4099 C   0  0  0  0  0  0  0  0  0  0  0  0
   -0.7889   -0.5909   -2.0957 H   0  0  0  0  0  0  0  0  0  0  0  0
   -1.7683    0.7597   -2.7122 H   0  0  0  0  0  0  0  0  0  0  0  0
    0.1866    0.6024   -3.5940 C   0  0  0  0  0  0  0  0  0  0  0  0
    0.1965    1.6408   -3.9214 H   0  0  0  0  0  0  0  0  0  0  0  0
    1.1910    0.3134   -3.2890 H   0  0  0  0  0  0  0  0  0  0  0  0
   -0.2255   -0.2446   -4.7192 N   0  0  0  0  0  0  0  0  0  0  0  0
    0.4166   -0.1106   -5.4865 H   0  0  0  0  0  0  0  0  0  0  0  0
   -0.2055   -1.2123   -4.4302 H   0  0  0  0  0  0  0  0  0  0  0  0
   -0.5564    0.0727    2.1744 C   0  0  0  0  0  0  0  0  0  0  0  0
    0.6169   -0.1288    2.4805 O   0  0  0  0  0  0  0  0  0  0  0  0
   -1.4759    0.4743    3.0595 N   0  0  0  0  0  0  0  0  0  0  0  0
   -2.4132    0.6318    2.7275 H   0  0  0  0  0  0  0  0  0  0  0  0
   -1.1971    0.7118    4.4750 C   0  0  0  0  0  0  0  0  0  0  0  0
   -0.3779    1.4272    4.5748 H   0  0  0  0  0  0  0  0  0  0  0  0
   -2.0826    1.1064    4.9754 H   0  0  0  0  0  0  0  0  0  0  0  0
   -0.8992   -0.2240    4.9525 H   0  0  0  0  0  0  0  0  0  0  0  0
  5  6  2  0  0  0  0
  5  7  1  0  0  0  0
  2  3  1  0  0  0  0
  2  4  1  0  0  0  0
  2  5  1  0  0  0  0
  1  2  1  0  0  0  0
 26 27  2  0  0  0  0
 26 28  1  0  0  0  0
 23 24  1  0  0  0  0
 23 25  1  0  0  0  0
 20 21  1  0  0  0  0
 20 22  1  0  0  0  0
 20 23  1  0  0  0  0
 17 18  1  0  0  0  0
 17 19  1  0  0  0  0
 17 20  1  0  0  0  0
 14 15  1  0  0  0  0
 14 16  1  0  0  0  0
 14 17  1  0  0  0  0
 11 12  1  0  0  0  0
 11 13  1  0  0  0  0
 11 14  1  0  0  0  0
  9 10  1  0  0  0  0
  9 11  1  0  0  0  0
  9 26  1  0  0  0  0
  7  8  1  0  0  0  0
  7  9  1  0  0  0  0
 30 31  1  0  0  0  0
 30 32  1  0  0  0  0
 30 33  1  0  0  0  0
 28 29  1  0  0  0  0
 28 30  1  0  0  0  0
M  END
$$$$
default_name
  -OEChem-02102213163D

 33 32  0     1  0  0  0  0  0999 V2000
   -3.8420   -3.6918    1.5562 H   0  0  0  0  0  0  0  0  0  0  0  0
   -3.8430   -2.7008    1.1032 C   0  0  0  0  0  0  0  0  0  0  0  0
   -4.5510   -2.0608    1.6242 H   0  0  0  0  0  0  0  0  0  0  0  0
   -4.1140   -2.7798    0.0522 H   0  0  0  0  0  0  0  0  0  0  0  0
   -2.4570   -2.1098    1.2172 C   0  0  0  0  0  0  0  0  0  0  0  0
   -1.5600   -2.7438    1.7572 O   0  0  0  0  0  0  0  0  0  0  0  0
   -2.2870   -0.8898    0.7102 N   0  0  0  0  0  0  0  0  0  0  0  0
   -3.0820   -0.4218    0.2992 H   0  0  0  0  0  0  0  0  0  0  0  0
   -1.0240   -0.1468    0.7262 C   0  0  1  0  0  0  0  0  0  0  0  0
   -0.2680   -0.7367    0.2062 H   0  0  0  0  0  0  0  0  0  0  0  0
   -1.2212    1.1806   -0.0314 C   0  0  0  0  0  0  0  0  0  0  0  0
   -2.2536    1.2292   -0.3837 H   0  0  0  0  0  0  0  0  0  0  0  0
   -1.0555    2.0136    0.6532 H   0  0  0  0  0  0  0  0  0  0  0  0
   -0.2924    1.3312   -1.2464 C   0  0  0  0  0  0  0  0  0  0  0  0
   -0.0711    2.3863   -1.4094 H   0  0  0  0  0  0  0  0  0  0  0  0
    0.6394    0.7960   -1.0544 H   0  0  0  0  0  0  0  0  0  0  0  0
   -0.9483    0.7638   -2.5103 C   0  0  0  0  0  0  0  0  0  0  0  0
   -1.1831   -0.2904   -2.3598 H   0  0  0  0  0  0  0  0  0  0  0  0
   -1.8678    1.3112   -2.7199 H   0  0  0  0  0  0  0  0  0  0  0  0
    0.0044    0.9034   -3.6961 C   0  0  0  0  0  0  0  0  0  0  0  0
    0.2256    1.9568   -3.8600 H   0  0  0  0  0  0  0  0  0  0  0  0
    0.9301    0.3721   -3.4812 H   0  0  0  0  0  0  0  0  0  0  0  0
   -0.5841    0.3474   -4.9200 N   0  0  0  0  0  0  0  0  0  0  0  0
    0.0649    0.4689   -5.6836 H   0  0  0  0  0  0  0  0  0  0  0  0
   -0.7619   -0.6376   -4.7843 H   0  0  0  0  0  0  0  0  0  0  0  0
   -0.5564    0.0727    2.1744 C   0  0  0  0  0  0  0  0  0  0  0  0
    0.6169   -0.1288    2.4805 O   0  0  0  0  0  0  0  0  0  0  0  0
   -1.4759    0.4743    3.0595 N   0  0  0  0  0  0  0  0  0  0  0  0
   -2.4132    0.6318    2.7275 H   0  0  0  0  0  0  0  0  0  0  0  0
   -1.1971    0.7118    4.4750 C   0  0  0  0  0  0  0  0  0  0  0  0
   -0.3779    1.4272    4.5748 H   0  0  0  0  0  0  0  0  0  0  0  0
   -2.0826    1.1064    4.9754 H   0  0  0  0  0  0  0  0  0  0  0  0
   -0.8992   -0.2240    4.9525 H   0  0  0  0  0  0  0  0  0  0  0  0
  5  6  2  0  0  0  0
  5  7  1  0  0  0  0
  2  3  1  0  0  0  0
  2  4  1  0  0  0  0
  2  5  1  0  0  0  0
  1  2  1  0  0  0  0
 26 27  2  0  0  0  0
 26 28  1  0  0  0  0
 23 24  1  0  0  0  0
 23 25  1  0  0  0  0
 20 21  1  0  0  0  0
 20 22  1  0  0  0  0
 20 23  1  0  0  0  0
 17 18  1  0  0  0  0
 17 19  1  0  0  0  0
 17 20  1  0  0  0  0
 14 15  1  0  0  0  0
 14 16  1  0  0  0  0
 14 17  1  0  0  0  0
 11 12  1  0  0  0  0
 11 13  1  0  0  0  0
 11 14  1  0  0  0  0
  9 10  1  0  0  0  0
  9 11  1  0  0  0  0
  9 26  1  0  0  0  0
  7  8  1  0  0  0  0
  7  9  1  0  0  0  0
 30 31  1  0  0  0  0
 30 32  1  0  0  0  0
 30 33  1  0  0  0  0
 28 29  1  0  0  0  0
 28 30  1  0  0  0  0
M  END
$$$$
default_name
  -OEChem-02102213163D

 33 32  0     1  0  0  0  0  0999 V2000
   -3.8420   -3.6918    1.5562 H   0  0  0  0  0  0  0  0  0  0  0  0
   -3.8430   -2.7008    1.1032 C   0  0  0  0  0  0  0  0  0  0  0  0
   -4.5510   -2.0608    1.6242 H   0  0  0  0  0  0  0  0  0  0  0  0
   -4.1140   -2.7798    0.0522 H   0  0  0  0  0  0  0  0  0  0  0  0
   -2.4570   -2.1098    1.2172 C   0  0  0  0  0  0  0  0  0  0  0  0
   -1.5600   -2.7438    1.7572 O   0  0  0  0  0  0  0  0  0  0  0  0
   -2.2870   -0.8898    0.7102 N   0  0  0  0  0  0  0  0  0  0  0  0
   -3.0820   -0.4218    0.2992 H   0  0  0  0  0  0  0  0  0  0  0  0
   -1.0240   -0.1468    0.7262 C   0  0  1  0  0  0  0  0  0  0  0  0
   -0.2680   -0.7367    0.2062 H   0  0  0  0  0  0  0  0  0  0  0  0
   -1.2212    1.1806   -0.0314 C   0  0  0  0  0  0  0  0  0  0  0  0
   -2.2536    1.2292   -0.3837 H   0  0  0  0  0  0  0  0  0  0  0  0
   -1.0555    2.0136    0.6532 H   0  0  0  0  0  0  0  0  0  0  0  0
   -0.2924    1.3312   -1.2464 C   0  0  0  0  0  0  0  0  0  0  0  0
    0.1407    2.3318   -1.2543 H   0  0  0  0  0  0  0  0  0  0  0  0
    0.5104    0.5947   -1.1780 H   0  0  0  0  0  0  0  0  0  0  0  0
   -1.0629    1.1169   -2.5541 C   0  0  0  0  0  0  0  0  0  0  0  0
   -1.5090    0.1219   -2.5578 H   0  0  0  0  0  0  0  0  0  0  0  0
   -1.8512    1.8655   -2.6385 H   0  0  0  0  0  0  0  0  0  0  0  0
   -0.1127    1.2473   -3.7429 C   0  0  0  0  0  0  0  0  0  0  0  0
    0.3200    2.2464   -3.7519 H   0  0  0  0  0  0  0  0  0  0  0  0
    0.6852    0.5122   -3.6511 H   0  0  0  0  0  0  0  0  0  0  0  0
   -0.8144    1.0241   -5.0122 N   0  0  0  0  0  0  0  0  0  0  0  0
   -0.1613    1.1314   -5.7744 H   0  0  0  0  0  0  0  0  0  0  0  0
   -1.1907    0.0867   -5.0224 H   0  0  0  0  0  0  0  0  0  0  0  0
   -0.5564    0.0727    2.1744 C   0  0  0  0  0  0  0  0  0  0  0  0
    0.6169   -0.1288    2.4805 O   0  0  0  0  0  0  0  0  0  0  0  0
   -1.4759    0.4743    3.0595 N   0  0  0  0  0  0  0  0  0  0  0  0
   -2.4132    0.6318    2.7275 H   0  0  0  0  0  0  0  0  0  0  0  0
   -1.1971    0.7118    4.4750 C   0  0  0  0  0  0  0  0  0  0  0  0
   -0.3779    1.4272    4.5748 H   0  0  0  0  0  0  0  0  0  0  0  0
   -2.0826    1.1064    4.9754 H   0  0  0  0  0  0  0  0  0  0  0  0
   -0.8992   -0.2240    4.9525 H   0  0  0  0  0  0  0  0  0  0  0  0
  5  6  2  0  0  0  0
  5  7  1  0  0  0  0
  2  3  1  0  0  0  0
  2  4  1  0  0  0  0
  2  5  1  0  0  0  0
  1  2  1  0  0  0  0
 26 27  2  0  0  0  0
 26 28  1  0  0  0  0
 23 24  1  0  0  0  0
 23 25  1  0  0  0  0
 20 21  1  0  0  0  0
 20 22  1  0  0  0  0
 20 23  1  0  0  0  0
 17 18  1  0  0  0  0
 17 19  1  0  0  0  0
 17 20  1  0  0  0  0
 14 15  1  0  0  0  0
 14 16  1  0  0  0  0
 14 17  1  0  0  0  0
 11 12  1  0  0  0  0
 11 13  1  0  0  0  0
 11 14  1  0  0  0  0
  9 10  1  0  0  0  0
  9 11  1  0  0  0  0
  9 26  1  0  0  0  0
  7  8  1  0  0  0  0
  7  9  1  0  0  0  0
 30 31  1  0  0  0  0
 30 32  1  0  0  0  0
 30 33  1  0  0  0  0
 28 29  1  0  0  0  0
 28 30  1  0  0  0  0
M  END
$$$$
default_name
  -OEChem-02102213163D

 33 32  0     1  0  0  0  0  0999 V2000
   -3.8420   -3.6918    1.5562 H   0  0  0  0  0  0  0  0  0  0  0  0
   -3.8430   -2.7008    1.1032 C   0  0  0  0  0  0  0  0  0  0  0  0
   -4.5510   -2.0608    1.6242 H   0  0  0  0  0  0  0  0  0  0  0  0
   -4.1140   -2.7798    0.0522 H   0  0  0  0  0  0  0  0  0  0  0  0
   -2.4570   -2.1098    1.2172 C   0  0  0  0  0  0  0  0  0  0  0  0
   -1.5600   -2.7438    1.7572 O   0  0  0  0  0  0  0  0  0  0  0  0
   -2.2870   -0.8898    0.7102 N   0  0  0  0  0  0  0  0  0  0  0  0
   -3.0820   -0.4218    0.2992 H   0  0  0  0  0  0  0  0  0  0  0  0
   -1.0240   -0.1468    0.7262 C   0  0  1  0  0  0  0  0  0  0  0  0
   -0.2680   -0.7367    0.2062 H   0  0  0  0  0  0  0  0  0  0  0  0
   -1.2212    1.1806   -0.0314 C   0  0  0  0  0  0  0  0  0  0  0  0
   -2.2536    1.2292   -0.3837 H   0  0  0  0  0  0  0  0  0  0  0  0
   -1.0555    2.0136    0.6532 H   0  0  0  0  0  0  0  0  0  0  0  0
   -0.2924    1.3312   -1.2464 C   0  0  0  0  0  0  0  0  0  0  0  0
    0.3380    2.2115   -1.1183 H   0  0  0  0  0  0  0  0  0  0  0  0
    0.3414    0.4460   -1.3255 H   0  0  0  0  0  0  0  0  0  0  0  0
   -1.1023    1.4882   -2.5383 C   0  0  0  0  0  0  0  0  0  0  0  0
   -1.7445    0.6178   -2.6764 H   0  0  0  0  0  0  0  0  0  0  0  0
   -1.7197    2.3847   -2.4737 H   0  0  0  0  0  0  0  0  0  0  0  0
   -0.1565    1.6108   -3.7314 C   0  0  0  0  0  0  0  0  0  0  0  0
    0.4732    2.4900   -3.6047 H   0  0  0  0  0  0  0  0  0  0  0  0
    0.4730    0.7243   -3.7870 H   0  0  0  0  0  0  0  0  0  0  0  0
   -0.9007    1.7392   -4.9896 N   0  0  0  0  0  0  0  0  0  0  0  0
   -0.2465    1.8318   -5.7528 H   0  0  0  0  0  0  0  0  0  0  0  0
   -1.4627    0.9114   -5.1281 H   0  0  0  0  0  0  0  0  0  0  0  0
   -0.5564    0.0727    2.1744 C   0  0  0  0  0  0  0  0  0  0  0  0
    0.6169   -0.1288    2.4805 O   0  0  0  0  0  0  0  0  0  0  0  0
   -1.4759    0.4743    3.0595 N   0  0  0  0  0  0  0  0  0  0  0  0
   -2.4132    0.6318    2.7275 H   0  0  0  0  0  0  0  0  0  0  0  0
   -1.1971    0.7118    4.4750 C   0  0  0  0  0  0  0  0  0  0  0  0
   -0.3779    1.4272    4.5748 H   0  0  0  0  0  0  0  0  0  0  0  0
   -2.0826    1.1064    4.9754 H   0  0  0  0  0  0  0  0  0  0  0  0
   -0.8992   -0.2240    4.9525 H   0  0  0  0  0  0  0  0  0  0  0  0
  5  6  2  0  0  0  0
  5  7  1  0  0  0  0
  2  3  1  0  0  0  0
  2  4  1  0  0  0  0
  2  5  1  0  0  0  0
  1  2  1  0  0  0  0
 26 27  2  0  0  0  0
 26 28  1  0  0  0  0
 23 24  1  0  0  0  0
 23 25  1  0  0  0  0
 20 21  1  0  0  0  0
 20 22  1  0  0  0  0
 20 23  1  0  0  0  0
 17 18  1  0  0  0  0
 17 19  1  0  0  0  0
 17 20  1  0  0  0  0
 14 15  1  0  0  0  0
 14 16  1  0  0  0  0
 14 17  1  0  0  0  0
 11 12  1  0  0  0  0
 11 13  1  0  0  0  0
 11 14  1  0  0  0  0
  9 10  1  0  0  0  0
  9 11  1  0  0  0  0
  9 26  1  0  0  0  0
  7  8  1  0  0  0  0
  7  9  1  0  0  0  0
 30 31  1  0  0  0  0
 30 32  1  0  0  0  0
 30 33  1  0  0  0  0
 28 29  1  0  0  0  0
 28 30  1  0  0  0  0
M  END
$$$$
default_name
  -OEChem-02102213163D

 33 32  0     1  0  0  0  0  0999 V2000
   -3.8420   -3.6918    1.5562 H   0  0  0  0  0  0  0  0  0  0  0  0
   -3.8430   -2.7008    1.1032 C   0  0  0  0  0  0  0  0  0  0  0  0
   -4.5510   -2.0608    1.6242 H   0  0  0  0  0  0  0  0  0  0  0  0
   -4.1140   -2.7798    0.0522 H   0  0  0  0  0  0  0  0  0  0  0  0
   -2.4570   -2.1098    1.2172 C   0  0  0  0  0  0  0  0  0  0  0  0
   -1.5600   -2.7438    1.7572 O   0  0  0  0  0  0  0  0  0  0  0  0
   -2.2870   -0.8898    0.7102 N   0  0  0  0  0  0  0  0  0  0  0  0
   -3.0820   -0.4218    0.2992 H   0  0  0  0  0  0  0  0  0  0  0  0
   -1.0240   -0.1468    0.7262 C   0  0  1  0  0  0  0  0  0  0  0  0
   -0.2680   -0.7367    0.2062 H   0  0  0  0  0  0  0  0  0  0  0  0
   -1.2212    1.1806   -0.0314 C   0  0  0  0  0  0  0  0  0  0  0  0
   -2.2536    1.2292   -0.3837 H   0  0  0  0  0  0  0  0  0  0  0  0
   -1.0555    2.0136    0.6532 H   0  0  0  0  0  0  0  0  0  0  0  0
   -0.2924    1.3312   -1.2464 C   0  0  0  0  0  0  0  0  0  0  0  0
    0.5075    2.0337   -1.0108 H   0  0  0  0  0  0  0  0  0  0  0  0
    0.1441    0.3601   -1.4870 H   0  0  0  0  0  0  0  0  0  0  0  0
   -1.0641    1.8525   -2.4639 C   0  0  0  0  0  0  0  0  0  0  0  0
   -1.8735    1.1636   -2.7074 H   0  0  0  0  0  0  0  0  0  0  0  0
   -1.4822    2.8336   -2.2366 H   0  0  0  0  0  0  0  0  0  0  0  0
   -0.1242    1.9691   -3.6623 C   0  0  0  0  0  0  0  0  0  0  0  0
    0.6747    2.6709   -3.4282 H   0  0  0  0  0  0  0  0  0  0  0  0
    0.3080    0.9938   -3.8797 H   0  0  0  0  0  0  0  0  0  0  0  0
   -0.8372    2.4441   -4.8537 N   0  0  0  0  0  0  0  0  0  0  0  0
   -0.1849    2.5224   -5.6201 H   0  0  0  0  0  0  0  0  0  0  0  0
   -1.5593    1.7801   -5.0944 H   0  0  0  0  0  0  0  0  0  0  0  0
   -0.5564    0.0727    2.1744 C   0  0  0  0  0  0  0  0  0  0  0  0
    0.6169   -0.1288    2.4805 O   0  0  0  0  0  0  0  0  0  0  0  0
   -1.4759    0.4743    3.0595 N   0  0  0  0  0  0  0  0  0  0  0  0
   -2.4132    0.6318    2.7275 H   0  0  0  0  0  0  0  0  0  0  0  0
   -1.1971    0.7118    4.4750 C   0  0  0  0  0  0  0  0  0  0  0  0
   -0.3779    1.4272    4.5748 H   0  0  0  0  0  0  0  0  0  0  0  0
   -2.0826    1.1064    4.9754 H   0  0  0  0  0  0  0  0  0  0  0  0
   -0.8992   -0.2240    4.9525 H   0  0  0  0  0  0  0  0  0  0  0  0
  5  6  2  0  0  0  0
  5  7  1  0  0  0  0
  2  3  1  0  0  0  0
  2  4  1  0  0  0  0
  2  5  1  0  0  0  0
  1  2  1  0  0  0  0
 26 27  2  0  0  0  0
 26 28  1  0  0  0  0
 23 24  1  0  0  0  0
 23 25  1  0  0  0  0
 20 21  1  0  0  0  0
 20 22  1  0  0  0  0
 20 23  1  0  0  0  0
 17 18  1  0  0  0  0
 17 19  1  0  0  0  0
 17 20  1  0  0  0  0
 14 15  1  0  0  0  0
 14 16  1  0  0  0  0
 14 17  1  0  0  0  0
 11 12  1  0  0  0  0
 11 13  1  0  0  0  0
 11 14  1  0  0  0  0
  9 10  1  0  0  0  0
  9 11  1  0  0  0  0
  9 26  1  0  0  0  0
  7  8  1  0  0  0  0
  7  9  1  0  0  0  0
 30 31  1  0  0  0  0
 30 32  1  0  0  0  0
 30 33  1  0  0  0  0
 28 29  1  0  0  0  0
 28 30  1  0  0  0  0
M  END
$$$$
default_name
  -OEChem-02102213163D

 33 32  0     1  0  0  0  0  0999 V2000
   -3.8420   -3.6918    1.5562 H   0  0  0  0  0  0  0  0  0  0  0  0
   -3.8430   -2.7008    1.1032 C   0  0  0  0  0  0  0  0  0  0  0  0
   -4.5510   -2.0608    1.6242 H   0  0  0  0  0  0  0  0  0  0  0  0
   -4.1140   -2.7798    0.0522 H   0  0  0  0  0  0  0  0  0  0  0  0
   -2.4570   -2.1098    1.2172 C   0  0  0  0  0  0  0  0  0  0  0  0
   -1.5600   -2.7438    1.7572 O   0  0  0  0  0  0  0  0  0  0  0  0
   -2.2870   -0.8898    0.7102 N   0  0  0  0  0  0  0  0  0  0  0  0
   -3.0820   -0.4218    0.2992 H   0  0  0  0  0  0  0  0  0  0  0  0
   -1.0240   -0.1468    0.7262 C   0  0  1  0  0  0  0  0  0  0  0  0
   -0.2680   -0.7367    0.2062 H   0  0  0  0  0  0  0  0  0  0  0  0
   -1.2212    1.1806   -0.0314 C   0  0  0  0  0  0  0  0  0  0  0  0
   -2.2536    1.2292   -0.3837 H   0  0  0  0  0  0  0  0  0  0  0  0
   -1.0555    2.0136    0.6532 H   0  0  0  0  0  0  0  0  0  0  0  0
   -0.2924    1.3312   -1.2464 C   0  0  0  0  0  0  0  0  0  0  0  0
    0.6375    1.8104   -0.9391 H   0  0  0  0  0  0  0  0  0  0  0  0
   -0.0682    0.3427   -1.6515 H   0  0  0  0  0  0  0  0  0  0  0  0
   -0.9507    2.1850   -2.3361 C   0  0  0  0  0  0  0  0  0  0  0  0
   -1.8872    1.7220   -2.6487 H   0  0  0  0  0  0  0  0  0  0  0  0
   -1.1550    3.1814   -1.9433 H   0  0  0  0  0  0  0  0  0  0  0  0
   -0.0179    2.2978   -3.5404 C   0  0  0  0  0  0  0  0  0  0  0  0
    0.9109    2.7768   -3.2346 H   0  0  0  0  0  0  0  0  0  0  0  0
    0.2014    1.3024   -3.9230 H   0  0  0  0  0  0  0  0  0  0  0  0
   -0.6281    3.0907   -4.6138 N   0  0  0  0  0  0  0  0  0  0  0  0
    0.0193    3.1561   -5.3855 H   0  0  0  0  0  0  0  0  0  0  0  0
   -1.4741    2.6337   -4.9234 H   0  0  0  0  0  0  0  0  0  0  0  0
   -0.5564    0.0727    2.1744 C   0  0  0  0  0  0  0  0  0  0  0  0
    0.6169   -0.1288    2.4805 O   0  0  0  0  0  0  0  0  0  0  0  0
   -1.4759    0.4743    3.0595 N   0  0  0  0  0  0  0  0  0  0  0  0
   -2.4132    0.6318    2.7275 H   0  0  0  0  0  0  0  0  0  0  0  0
   -1.1971    0.7118    4.4750 C   0  0  0  0  0  0  0  0  0  0  0  0
   -0.3779    1.4272    4.5748 H   0  0  0  0  0  0  0  0  0  0  0  0
   -2.0826    1.1064    4.9754 H   0  0  0  0  0  0  0  0  0  0  0  0
   -0.8992   -0.2240    4.9525 H   0  0  0  0  0  0  0  0  0  0  0  0
  5  6  2  0  0  0  0
  5  7  1  0  0  0  0
  2  3  1  0  0  0  0
  2  4  1  0  0  0  0
  2  5  1  0  0  0  0
  1  2  1  0  0  0  0
 26 27  2  0  0  0  0
 26 28  1  0  0  0  0
 23 24  1  0  0  0  0
 23 25  1  0  0  0  0
 20 21  1  0  0  0  0
 20 22  1  0  0  0  0
 20 23  1  0  0  0  0
 17 18  1  0  0  0  0
 17 19  1  0  0  0  0
 17 20  1  0  0  0  0
 14 15  1  0  0  0  0
 14 16  1  0  0  0  0
 14 17  1  0  0  0  0
 11 12  1  0  0  0  0
 11 13  1  0  0  0  0
 11 14  1  0  0  0  0
  9 10  1  0  0  0  0
  9 11  1  0  0  0  0
  9 26  1  0  0  0  0
  7  8  1  0  0  0  0
  7  9  1  0  0  0  0
 30 31  1  0  0  0  0
 30 32  1  0  0  0  0
 30 33  1  0  0  0  0
 28 29  1  0  0  0  0
 28 30  1  0  0  0  0
M  END
$$$$
default_name
  -OEChem-02102213163D

 33 32  0     1  0  0  0  0  0999 V2000
   -3.8420   -3.6918    1.5562 H   0  0  0  0  0  0  0  0  0  0  0  0
   -3.8430   -2.7008    1.1032 C   0  0  0  0  0  0  0  0  0  0  0  0
   -4.5510   -2.0608    1.6242 H   0  0  0  0  0  0  0  0  0  0  0  0
   -4.1140   -2.7798    0.0522 H   0  0  0  0  0  0  0  0  0  0  0  0
   -2.4570   -2.1098    1.2172 C   0  0  0  0  0  0  0  0  0  0  0  0
   -1.5600   -2.7438    1.7572 O   0  0  0  0  0  0  0  0  0  0  0  0
   -2.2870   -0.8898    0.7102 N   0  0  0  0  0  0  0  0  0  0  0  0
   -3.0820   -0.4218    0.2992 H   0  0  0  0  0  0  0  0  0  0  0  0
   -1.0240   -0.1468    0.7262 C   0  0  1  0  0  0  0  0  0  0  0  0
   -0.2680   -0.7367    0.2062 H   0  0  0  0  0  0  0  0  0  0  0  0
   -1.2212    1.1806   -0.0314 C   0  0  0  0  0  0  0  0  0  0  0  0
   -2.2536    1.2292   -0.3837 H   0  0  0  0  0  0  0  0  0  0  0  0
   -1.0555    2.0136    0.6532 H   0  0  0  0  0  0  0  0  0  0  0  0
   -0.2924    1.3312   -1.2464 C   0  0  0  0  0  0  0  0  0  0  0  0
    0.7192    1.5570   -0.9080 H   0  0  0  0  0  0  0  0  0  0  0  0
   -0.2810    0.3950   -1.8076 H   0  0  0  0  0  0  0  0  0  0  0  0
   -0.7699    2.4629   -2.1634 C   0  0  0  0  0  0  0  0  0  0  0  0
   -1.7846    2.2550   -2.5042 H   0  0  0  0  0  0  0  0  0  0  0  0
   -0.7603    3.4046   -1.6140 H   0  0  0  0  0  0  0  0  0  0  0  0
    0.1551    2.5745   -3.3738 C   0  0  0  0  0  0  0  0  0  0  0  0
    1.1655    2.8004   -3.0370 H   0  0  0  0  0  0  0  0  0  0  0  0
    0.1605    1.6291   -3.9138 H   0  0  0  0  0  0  0  0  0  0  0  0
   -0.2878    3.6350   -4.2862 N   0  0  0  0  0  0  0  0  0  0  0  0
    0.3522    3.6898   -5.0650 H   0  0  0  0  0  0  0  0  0  0  0  0
   -1.2127    3.4141   -4.6269 H   0  0  0  0  0  0  0  0  0  0  0  0
   -0.5564    0.0727    2.1744 C   0  0  0  0  0  0  0  0  0  0  0  0
    0.6169   -0.1288    2.4805 O   0  0  0  0  0  0  0  0  0  0  0  0
   -1.4759    0.4743    3.0595 N   0  0  0  0  0  0  0  0  0  0  0  0
   -2.4132    0.6318    2.7275 H   0  0  0  0  0  0  0  0  0  0  0  0
   -1.1971    0.7118    4.4750 C   0  0  0  0  0  0  0  0  0  0  0  0
   -0.3779    1.4272    4.5748 H   0  0  0  0  0  0  0  0  0  0  0  0
   -2.0826    1.1064    4.9754 H   0  0  0  0  0  0  0  0  0  0  0  0
   -0.8992   -0.2240    4.9525 H   0  0  0  0  0  0  0  0  0  0  0  0
  5  6  2  0  0  0  0
  5  7  1  0  0  0  0
  2  3  1  0  0  0  0
  2  4  1  0  0  0  0
  2  5  1  0  0  0  0
  1  2  1  0  0  0  0
 26 27  2  0  0  0  0
 26 28  1  0  0  0  0
 23 24  1  0  0  0  0
 23 25  1  0  0  0  0
 20 21  1  0  0  0  0
 20 22  1  0  0  0  0
 20 23  1  0  0  0  0
 17 18  1  0  0  0  0
 17 19  1  0  0  0  0
 17 20  1  0  0  0  0
 14 15  1  0  0  0  0
 14 16  1  0  0  0  0
 14 17  1  0  0  0  0
 11 12  1  0  0  0  0
 11 13  1  0  0  0  0
 11 14  1  0  0  0  0
  9 10  1  0  0  0  0
  9 11  1  0  0  0  0
  9 26  1  0  0  0  0
  7  8  1  0  0  0  0
  7  9  1  0  0  0  0
 30 31  1  0  0  0  0
 30 32  1  0  0  0  0
 30 33  1  0  0  0  0
 28 29  1  0  0  0  0
 28 30  1  0  0  0  0
M  END
$$$$
default_name
  -OEChem-02102213163D

 33 32  0     1  0  0  0  0  0999 V2000
   -3.8420   -3.6918    1.5562 H   0  0  0  0  0  0  0  0  0  0  0  0
   -3.8430   -2.7008    1.1032 C   0  0  0  0  0  0  0  0  0  0  0  0
   -4.5510   -2.0608    1.6242 H   0  0  0  0  0  0  0  0  0  0  0  0
   -4.1140   -2.7798    0.0522 H   0  0  0  0  0  0  0  0  0  0  0  0
   -2.4570   -2.1098    1.2172 C   0  0  0  0  0  0  0  0  0  0  0  0
   -1.5600   -2.7438    1.7572 O   0  0  0  0  0  0  0  0  0  0  0  0
   -2.2870   -0.8898    0.7102 N   0  0  0  0  0  0  0  0  0  0  0  0
   -3.0820   -0.4218    0.2992 H   0  0  0  0  0  0  0  0  0  0  0  0
   -1.0240   -0.1468    0.7262 C   0  0  1  0  0  0  0  0  0  0  0  0
   -0.2680   -0.7367    0.2062 H   0  0  0  0  0  0  0  0  0  0  0  0
   -1.2212    1.1806   -0.0314 C   0  0  0  0  0  0  0  0  0  0  0  0
   -2.2923    1.3574   -0.1489 H   0  0  0  0  0  0  0  0  0  0  0  0
   -0.8041    1.9973    0.5594 H   0  0  0  0  0  0  0  0  0  0  0  0
   -0.5784    1.1855   -1.4272 C   0  0  0  0  0  0  0  0  0  0  0  0
    0.4947    1.0152   -1.3366 H   0  0  0  0  0  0  0  0  0  0  0  0
   -1.0177    0.3866   -2.0274 H   0  0  0  0  0  0  0  0  0  0  0  0
   -0.8071    2.5282   -2.1304 C   0  0  0  0  0  0  0  0  0  0  0  0
   -1.8772    2.7166   -2.2216 H   0  0  0  0  0  0  0  0  0  0  0  0
   -0.3491    3.3271   -1.5464 H   0  0  0  0  0  0  0  0  0  0  0  0
   -0.1805    2.4973   -3.5231 C   0  0  0  0  0  0  0  0  0  0  0  0
    0.8913    2.3277   -3.4336 H   0  0  0  0  0  0  0  0  0  0  0  0
   -0.6241    1.6887   -4.1018 H   0  0  0  0  0  0  0  0  0  0  0  0
   -0.4018    3.7615   -4.2345 N   0  0  0  0  0  0  0  0  0  0  0  0
    0.0361    3.7110   -5.1426 H   0  0  0  0  0  0  0  0  0  0  0  0
   -1.3947    3.9081   -4.3486 H   0  0  0  0  0  0  0  0  0  0  0  0
   -0.5564    0.0727    2.1744 C   0  0  0  0  0  0  0  0  0  0  0  0
    0.6169   -0.1288    2.4805 O   0  0  0  0  0  0  0  0  0  0  0  0
   -1.4759    0.4743    3.0595 N   0  0  0  0  0  0  0  0  0  0  0  0
   -2.4132    0.6318    2.7275 H   0  0  0  0  0  0  0  0  0  0  0  0
   -1.1971    0.7118    4.4750 C   0  0  0  0  0  0  0  0  0  0  0  0
   -0.3779    1.4272    4.5748 H   0  0  0  0  0  0  0  0  0  0  0  0
   -2.0826    1.1064    4.9754 H   0  0  0  0  0  0  0  0  0  0  0  0
   -0.8992   -0.2240    4.9525 H   0  0  0  0  0  0  0  0  0  0  0  0
  5  6  2  0  0  0  0
  5  7  1  0  0  0  0
  2  3  1  0  0  0  0
  2  4  1  0  0  0  0
  2  5  1  0  0  0  0
  1  2  1  0  0  0  0
 26 27  2  0  0  0  0
 26 28  1  0  0  0  0
 23 24  1  0  0  0  0
 23 25  1  0  0  0  0
 20 21  1  0  0  0  0
 20 22  1  0  0  0  0
 20 23  1  0  0  0  0
 17 18  1  0  0  0  0
 17 19  1  0  0  0  0
 17 20  1  0  0  0  0
 14 15  1  0  0  0  0
 14 16  1  0  0  0  0
 14 17  1  0  0  0  0
 11 12  1  0  0  0  0
 11 13  1  0  0  0  0
 11 14  1  0  0  0  0
  9 10  1  0  0  0  0
  9 11  1  0  0  0  0
  9 26  1  0  0  0  0
  7  8  1  0  0  0  0
  7  9  1  0  0  0  0
 30 31  1  0  0  0  0
 30 32  1  0  0  0  0
 30 33  1  0  0  0  0
 28 29  1  0  0  0  0
 28 30  1  0  0  0  0
M  END
$$$$
default_name
  -OEChem-02102213163D

 33 32  0     1  0  0  0  0  0999 V2000
   -3.8420   -3.6918    1.5562 H   0  0  0  0  0  0  0  0  0  0  0  0
   -3.8430   -2.7008    1.1032 C   0  0  0  0  0  0  0  0  0  0  0  0
   -4.5510   -2.0608    1.6242 H   0  0  0  0  0  0  0  0  0  0  0  0
   -4.1140   -2.7798    0.0522 H   0  0  0  0  0  0  0  0  0  0  0  0
   -2.4570   -2.1098    1.2172 C   0  0  0  0  0  0  0  0  0  0  0  0
   -1.5600   -2.7438    1.7572 O   0  0  0  0  0  0  0  0  0  0  0  0
   -2.2870   -0.8898    0.7102 N   0  0  0  0  0  0  0  0  0  0  0  0
   -3.0820   -0.4218    0.2992 H   0  0  0  0  0  0  0  0  0  0  0  0
   -1.0240   -0.1468    0.7262 C   0  0  1  0  0  0  0  0  0  0  0  0
   -0.2680   -0.7367    0.2062 H   0  0  0  0  0  0  0  0  0  0  0  0
   -1.2212    1.1806   -0.0314 C   0  0  0  0  0  0  0  0  0  0  0  0
   -2.2923    1.3574   -0.1489 H   0  0  0  0  0  0  0  0  0  0  0  0
   -0.8041    1.9973    0.5594 H   0  0  0  0  0  0  0  0  0  0  0  0
   -0.5784    1.1855   -1.4272 C   0  0  0  0  0  0  0  0  0  0  0  0
    0.4234    0.7589   -1.3703 H   0  0  0  0  0  0  0  0  0  0  0  0
   -1.1859    0.5821   -2.1042 H   0  0  0  0  0  0  0  0  0  0  0  0
   -0.4764    2.6124   -1.9779 C   0  0  0  0  0  0  0  0  0  0  0  0
   -1.4710    3.0558   -2.0334 H   0  0  0  0  0  0  0  0  0  0  0  0
    0.1494    3.2131   -1.3172 H   0  0  0  0  0  0  0  0  0  0  0  0
    0.1422    2.5862   -3.3742 C   0  0  0  0  0  0  0  0  0  0  0  0
    1.1429    2.1608   -3.3184 H   0  0  0  0  0  0  0  0  0  0  0  0
   -0.4720    1.9721   -4.0308 H   0  0  0  0  0  0  0  0  0  0  0  0
    0.2330    3.9364   -3.9416 N   0  0  0  0  0  0  0  0  0  0  0  0
    0.6577    3.8830   -4.8558 H   0  0  0  0  0  0  0  0  0  0  0  0
   -0.6961    4.3237   -4.0254 H   0  0  0  0  0  0  0  0  0  0  0  0
   -0.5564    0.0727    2.1744 C   0  0  0  0  0  0  0  0  0  0  0  0
    0.6169   -0.1288    2.4805 O   0  0  0  0  0  0  0  0  0  0  0  0
   -1.4759    0.4743    3.0595 N   0  0  0  0  0  0  0  0  0  0  0  0
   -2.4132    0.6318    2.7275 H   0  0  0  0  0  0  0  0  0  0  0  0
   -1.1971    0.7118    4.4750 C   0  0  0  0  0  0  0  0  0  0  0  0
   -0.3779    1.4272    4.5748 H   0  0  0  0  0  0  0  0  0  0  0  0
   -2.0826    1.1064    4.9754 H   0  0  0  0  0  0  0  0  0  0  0  0
   -0.8992   -0.2240    4.9525 H   0  0  0  0  0  0  0  0  0  0  0  0
  5  6  2  0  0  0  0
  5  7  1  0  0  0  0
  2  3  1  0  0  0  0
  2  4  1  0  0  0  0
  2  5  1  0  0  0  0
  1  2  1  0  0  0  0
 26 27  2  0  0  0  0
 26 28  1  0  0  0  0
 23 24  1  0  0  0  0
 23 25  1  0  0  0  0
 20 21  1  0  0  0  0
 20 22  1  0  0  0  0
 20 23  1  0  0  0  0
 17 18  1  0  0  0  0
 17 19  1  0  0  0  0
 17 20  1  0  0  0  0
 14 15  1  0  0  0  0
 14 16  1  0  0  0  0
 14 17  1  0  0  0  0
 11 12  1  0  0  0  0
 11 13  1  0  0  0  0
 11 14  1  0  0  0  0
  9 10  1  0  0  0  0
  9 11  1  0  0  0  0
  9 26  1  0  0  0  0
  7  8  1  0  0  0  0
  7  9  1  0  0  0  0
 30 31  1  0  0  0  0
 30 32  1  0  0  0  0
 30 33  1  0  0  0  0
 28 29  1  0  0  0  0
 28 30  1  0  0  0  0
M  END
$$$$
default_name
  -OEChem-02102213163D

 33 32  0     1  0  0  0  0  0999 V2000
   -3.8420   -3.6918    1.5562 H   0  0  0  0  0  0  0  0  0  0  0  0
   -3.8430   -2.7008    1.1032 C   0  0  0  0  0  0  0  0  0  0  0  0
   -4.5510   -2.0608    1.6242 H   0  0  0  0  0  0  0  0  0  0  0  0
   -4.1140   -2.7798    0.0522 H   0  0  0  0  0  0  0  0  0  0  0  0
   -2.4570   -2.1098    1.2172 C   0  0  0  0  0  0  0  0  0  0  0  0
   -1.5600   -2.7438    1.7572 O   0  0  0  0  0  0  0  0  0  0  0  0
   -2.2870   -0.8898    0.7102 N   0  0  0  0  0  0  0  0  0  0  0  0
   -3.0820   -0.4218    0.2992 H   0  0  0  0  0  0  0  0  0  0  0  0
   -1.0240   -0.1468    0.7262 C   0  0  1  0  0  0  0  0  0  0  0  0
   -0.2680   -0.7367    0.2062 H   0  0  0  0  0  0  0  0  0  0  0  0
   -1.2212    1.1806   -0.0314 C   0  0  0  0  0  0  0  0  0  0  0  0
   -2.2923    1.3574   -0.1489 H   0  0  0  0  0  0  0  0  0  0  0  0
   -0.8041    1.9973    0.5594 H   0  0  0  0  0  0  0  0  0  0  0  0
   -0.5784    1.1855   -1.4272 C   0  0  0  0  0  0  0  0  0  0  0  0
    0.2942    0.5318   -1.4306 H   0  0  0  0  0  0  0  0  0  0  0  0
   -1.3025    0.8188   -2.1571 H   0  0  0  0  0  0  0  0  0  0  0  0
   -0.1371    2.5994   -1.8216 C   0  0  0  0  0  0  0  0  0  0  0  0
   -0.9988    3.2675   -1.8152 H   0  0  0  0  0  0  0  0  0  0  0  0
    0.6044    2.9610   -1.1086 H   0  0  0  0  0  0  0  0  0  0  0  0
    0.4749    2.5800   -3.2210 C   0  0  0  0  0  0  0  0  0  0  0  0
    1.3468    1.9279   -3.2253 H   0  0  0  0  0  0  0  0  0  0  0  0
   -0.2584    2.2024   -3.9317 H   0  0  0  0  0  0  0  0  0  0  0  0
    0.8875    3.9244   -3.6402 N   0  0  0  0  0  0  0  0  0  0  0  0
    1.2989    3.8721   -4.5606 H   0  0  0  0  0  0  0  0  0  0  0  0
    0.0766    4.5260   -3.6689 H   0  0  0  0  0  0  0  0  0  0  0  0
   -0.5564    0.0727    2.1744 C   0  0  0  0  0  0  0  0  0  0  0  0
    0.6169   -0.1288    2.4805 O   0  0  0  0  0  0  0  0  0  0  0  0
   -1.4759    0.4743    3.0595 N   0  0  0  0  0  0  0  0  0  0  0  0
   -2.4132    0.6318    2.7275 H   0  0  0  0  0  0  0  0  0  0  0  0
   -1.1971    0.7118    4.4750 C   0  0  0  0  0  0  0  0  0  0  0  0
   -0.3779    1.4272    4.5748 H   0  0  0  0  0  0  0  0  0  0  0  0
   -2.0826    1.1064    4.9754 H   0  0  0  0  0  0  0  0  0  0  0  0
   -0.8992   -0.2240    4.9525 H   0  0  0  0  0  0  0  0  0  0  0  0
  5  6  2  0  0  0  0
  5  7  1  0  0  0  0
  2  3  1  0  0  0  0
  2  4  1  0  0  0  0
  2  5  1  0  0  0  0
  1  2  1  0  0  0  0
 26 27  2  0  0  0  0
 26 28  1  0  0  0  0
 23 24  1  0  0  0  0
 23 25  1  0  0  0  0
 20 21  1  0  0  0  0
 20 22  1  0  0  0  0
 20 23  1  0  0  0  0
 17 18  1  0  0  0  0
 17 19  1  0  0  0  0
 17 20  1  0  0  0  0
 14 15  1  0  0  0  0
 14 16  1  0  0  0  0
 14 17  1  0  0  0  0
 11 12  1  0  0  0  0
 11 13  1  0  0  0  0
 11 14  1  0  0  0  0
  9 10  1  0  0  0  0
  9 11  1  0  0  0  0
  9 26  1  0  0  0  0
  7  8  1  0  0  0  0
  7  9  1  0  0  0  0
 30 31  1  0  0  0  0
 30 32  1  0  0  0  0
 30 33  1  0  0  0  0
 28 29  1  0  0  0  0
 28 30  1  0  0  0  0
M  END
$$$$
default_name
  -OEChem-02102213163D

 33 32  0     1  0  0  0  0  0999 V2000
   -3.8420   -3.6918    1.5562 H   0  0  0  0  0  0  0  0  0  0  0  0
   -3.8430   -2.7008    1.1032 C   0  0  0  0  0  0  0  0  0  0  0  0
   -4.5510   -2.0608    1.6242 H   0  0  0  0  0  0  0  0  0  0  0  0
   -4.1140   -2.7798    0.0522 H   0  0  0  0  0  0  0  0  0  0  0  0
   -2.4570   -2.1098    1.2172 C   0  0  0  0  0  0  0  0  0  0  0  0
   -1.5600   -2.7438    1.7572 O   0  0  0  0  0  0  0  0  0  0  0  0
   -2.2870   -0.8898    0.7102 N   0  0  0  0  0  0  0  0  0  0  0  0
   -3.0820   -0.4218    0.2992 H   0  0  0  0  0  0  0  0  0  0  0  0
   -1.0240   -0.1468    0.7262 C   0  0  1  0  0  0  0  0  0  0  0  0
   -0.2680   -0.7367    0.2062 H   0  0  0  0  0  0  0  0  0  0  0  0
   -1.2212    1.1806   -0.0314 C   0  0  0  0  0  0  0  0  0  0  0  0
   -2.2923    1.3574   -0.1489 H   0  0  0  0  0  0  0  0  0  0  0  0
   -0.8041    1.9973    0.5594 H   0  0  0  0  0  0  0  0  0  0  0  0
   -0.5784    1.1855   -1.4272 C   0  0  0  0  0  0  0  0  0  0  0  0
    0.1161    0.3493   -1.5133 H   0  0  0  0  0  0  0  0  0  0  0  0
   -1.3595    1.0805   -2.1824 H   0  0  0  0  0  0  0  0  0  0  0  0
    0.1878    2.4903   -1.6724 C   0  0  0  0  0  0  0  0  0  0  0  0
   -0.4927    3.3374   -1.5819 H   0  0  0  0  0  0  0  0  0  0  0  0
    0.9848    2.5880   -0.9347 H   0  0  0  0  0  0  0  0  0  0  0  0
    0.7950    2.4793   -3.0740 C   0  0  0  0  0  0  0  0  0  0  0  0
    1.4890    1.6449   -3.1607 H   0  0  0  0  0  0  0  0  0  0  0  0
    0.0021    2.3639   -3.8112 H   0  0  0  0  0  0  0  0  0  0  0  0
    1.5172    3.7263   -3.3510 N   0  0  0  0  0  0  0  0  0  0  0  0
    1.9158    3.6788   -4.2772 H   0  0  0  0  0  0  0  0  0  0  0  0
    0.8709    4.5011   -3.3032 H   0  0  0  0  0  0  0  0  0  0  0  0
   -0.5564    0.0727    2.1744 C   0  0  0  0  0  0  0  0  0  0  0  0
    0.6169   -0.1288    2.4805 O   0  0  0  0  0  0  0  0  0  0  0  0
   -1.4759    0.4743    3.0595 N   0  0  0  0  0  0  0  0  0  0  0  0
   -2.4132    0.6318    2.7275 H   0  0  0  0  0  0  0  0  0  0  0  0
   -1.1971    0.7118    4.4750 C   0  0  0  0  0  0  0  0  0  0  0  0
   -0.3779    1.4272    4.5748 H   0  0  0  0  0  0  0  0  0  0  0  0
   -2.0826    1.1064    4.9754 H   0  0  0  0  0  0  0  0  0  0  0  0
   -0.8992   -0.2240    4.9525 H   0  0  0  0  0  0  0  0  0  0  0  0
  5  6  2  0  0  0  0
  5  7  1  0  0  0  0
  2  3  1  0  0  0  0
  2  4  1  0  0  0  0
  2  5  1  0  0  0  0
  1  2  1  0  0  0  0
 26 27  2  0  0  0  0
 26 28  1  0  0  0  0
 23 24  1  0  0  0  0
 23 25  1  0  0  0  0
 20 21  1  0  0  0  0
 20 22  1  0  0  0  0
 20 23  1  0  0  0  0
 17 18  1  0  0  0  0
 17 19  1  0  0  0  0
 17 20  1  0  0  0  0
 14 15  1  0  0  0  0
 14 16  1  0  0  0  0
 14 17  1  0  0  0  0
 11 12  1  0  0  0  0
 11 13  1  0  0  0  0
 11 14  1  0  0  0  0
  9 10  1  0  0  0  0
  9 11  1  0  0  0  0
  9 26  1  0  0  0  0
  7  8  1  0  0  0  0
  7  9  1  0  0  0  0
 30 31  1  0  0  0  0
 30 32  1  0  0  0  0
 30 33  1  0  0  0  0
 28 29  1  0  0  0  0
 28 30  1  0  0  0  0
M  END
$$$$
default_name
  -OEChem-02102213163D

 33 32  0     1  0  0  0  0  0999 V2000
   -3.8420   -3.6918    1.5562 H   0  0  0  0  0  0  0  0  0  0  0  0
   -3.8430   -2.7008    1.1032 C   0  0  0  0  0  0  0  0  0  0  0  0
   -4.5510   -2.0608    1.6242 H   0  0  0  0  0  0  0  0  0  0  0  0
   -4.1140   -2.7798    0.0522 H   0  0  0  0  0  0  0  0  0  0  0  0
   -2.4570   -2.1098    1.2172 C   0  0  0  0  0  0  0  0  0  0  0  0
   -1.5600   -2.7438    1.7572 O   0  0  0  0  0  0  0  0  0  0  0  0
   -2.2870   -0.8898    0.7102 N   0  0  0  0  0  0  0  0  0  0  0  0
   -3.0820   -0.4218    0.2992 H   0  0  0  0  0  0  0  0  0  0  0  0
   -1.0240   -0.1468    0.7262 C   0  0  1  0  0  0  0  0  0  0  0  0
   -0.2680   -0.7367    0.2062 H   0  0  0  0  0  0  0  0  0  0  0  0
   -1.2212    1.1806   -0.0314 C   0  0  0  0  0  0  0  0  0  0  0  0
   -2.2923    1.3574   -0.1489 H   0  0  0  0  0  0  0  0  0  0  0  0
   -0.8041    1.9973    0.5594 H   0  0  0  0  0  0  0  0  0  0  0  0
   -0.5784    1.1855   -1.4272 C   0  0  0  0  0  0  0  0  0  0  0  0
   -0.0990    0.2239   -1.6127 H   0  0  0  0  0  0  0  0  0  0  0  0
   -1.3531    1.3495   -2.1785 H   0  0  0  0  0  0  0  0  0  0  0  0
    0.4760    2.2923   -1.5404 C   0  0  0  0  0  0  0  0  0  0  0  0
    0.0128    3.2607   -1.3494 H   0  0  0  0  0  0  0  0  0  0  0  0
    1.2647    2.1194   -0.8075 H   0  0  0  0  0  0  0  0  0  0  0  0
    1.0806    2.2908   -2.9431 C   0  0  0  0  0  0  0  0  0  0  0  0
    1.5600    1.3311   -3.1292 H   0  0  0  0  0  0  0  0  0  0  0  0
    0.2918    2.4456   -3.6775 H   0  0  0  0  0  0  0  0  0  0  0  0
    2.0790    3.3556   -3.0935 N   0  0  0  0  0  0  0  0  0  0  0  0
    2.4665    3.3164   -4.0248 H   0  0  0  0  0  0  0  0  0  0  0  0
    1.6325    4.2508   -2.9534 H   0  0  0  0  0  0  0  0  0  0  0  0
   -0.5564    0.0727    2.1744 C   0  0  0  0  0  0  0  0  0  0  0  0
    0.6169   -0.1288    2.4805 O   0  0  0  0  0  0  0  0  0  0  0  0
   -1.4759    0.4743    3.0595 N   0  0  0  0  0  0  0  0  0  0  0  0
   -2.4132    0.6318    2.7275 H   0  0  0  0  0  0  0  0  0  0  0  0
   -1.1971    0.7118    4.4750 C   0  0  0  0  0  0  0  0  0  0  0  0
   -0.3779    1.4272    4.5748 H   0  0  0  0  0  0  0  0  0  0  0  0
   -2.0826    1.1064    4.9754 H   0  0  0  0  0  0  0  0  0  0  0  0
   -0.8992   -0.2240    4.9525 H   0  0  0  0  0  0  0  0  0  0  0  0
  5  6  2  0  0  0  0
  5  7  1  0  0  0  0
  2  3  1  0  0  0  0
  2  4  1  0  0  0  0
  2  5  1  0  0  0  0
  1  2  1  0  0  0  0
 26 27  2  0  0  0  0
 26 28  1  0  0  0  0
 23 24  1  0  0  0  0
 23 25  1  0  0  0  0
 20 21  1  0  0  0  0
 20 22  1  0  0  0  0
 20 23  1  0  0  0  0
 17 18  1  0  0  0  0
 17 19  1  0  0  0  0
 17 20  1  0  0  0  0
 14 15  1  0  0  0  0
 14 16  1  0  0  0  0
 14 17  1  0  0  0  0
 11 12  1  0  0  0  0
 11 13  1  0  0  0  0
 11 14  1  0  0  0  0
  9 10  1  0  0  0  0
  9 11  1  0  0  0  0
  9 26  1  0  0  0  0
  7  8  1  0  0  0  0
  7  9  1  0  0  0  0
 30 31  1  0  0  0  0
 30 32  1  0  0  0  0
 30 33  1  0  0  0  0
 28 29  1  0  0  0  0
 28 30  1  0  0  0  0
M  END
$$$$
default_name
  -OEChem-02102213163D

 33 32  0     1  0  0  0  0  0999 V2000
   -3.8420   -3.6918    1.5562 H   0  0  0  0  0  0  0  0  0  0  0  0
   -3.8430   -2.7008    1.1032 C   0  0  0  0  0  0  0  0  0  0  0  0
   -4.5510   -2.0608    1.6242 H   0  0  0  0  0  0  0  0  0  0  0  0
   -4.1140   -2.7798    0.0522 H   0  0  0  0  0  0  0  0  0  0  0  0
   -2.4570   -2.1098    1.2172 C   0  0  0  0  0  0  0  0  0  0  0  0
   -1.5600   -2.7438    1.7572 O   0  0  0  0  0  0  0  0  0  0  0  0
   -2.2870   -0.8898    0.7102 N   0  0  0  0  0  0  0  0  0  0  0  0
   -3.0820   -0.4218    0.2992 H   0  0  0  0  0  0  0  0  0  0  0  0
   -1.0240   -0.1468    0.7262 C   0  0  1  0  0  0  0  0  0  0  0  0
   -0.2680   -0.7367    0.2062 H   0  0  0  0  0  0  0  0  0  0  0  0
   -1.2212    1.1806   -0.0314 C   0  0  0  0  0  0  0  0  0  0  0  0
   -2.2923    1.3574   -0.1489 H   0  0  0  0  0  0  0  0  0  0  0  0
   -0.8041    1.9973    0.5594 H   0  0  0  0  0  0  0  0  0  0  0  0
   -0.5784    1.1855   -1.4272 C   0  0  0  0  0  0  0  0  0  0  0  0
   -0.3363    0.1641   -1.7222 H   0  0  0  0  0  0  0  0  0  0  0  0
   -1.2836    1.6074   -2.1456 H   0  0  0  0  0  0  0  0  0  0  0  0
    0.7080    2.0190   -1.4345 C   0  0  0  0  0  0  0  0  0  0  0  0
    0.4832    3.0426   -1.1336 H   0  0  0  0  0  0  0  0  0  0  0  0
    1.4249    1.5872   -0.7355 H   0  0  0  0  0  0  0  0  0  0  0  0
    1.3122    2.0275   -2.8374 C   0  0  0  0  0  0  0  0  0  0  0  0
    1.5547    1.0080   -3.1327 H   0  0  0  0  0  0  0  0  0  0  0  0
    0.5909    2.4420   -3.5397 H   0  0  0  0  0  0  0  0  0  0  0  0
    2.5348    2.8376   -2.8854 N   0  0  0  0  0  0  0  0  0  0  0  0
    2.9135    2.8095   -3.8207 H   0  0  0  0  0  0  0  0  0  0  0  0
    2.3096    3.7920   -2.6432 H   0  0  0  0  0  0  0  0  0  0  0  0
   -0.5564    0.0727    2.1744 C   0  0  0  0  0  0  0  0  0  0  0  0
    0.6169   -0.1288    2.4805 O   0  0  0  0  0  0  0  0  0  0  0  0
   -1.4759    0.4743    3.0595 N   0  0  0  0  0  0  0  0  0  0  0  0
   -2.4132    0.6318    2.7275 H   0  0  0  0  0  0  0  0  0  0  0  0
   -1.1971    0.7118    4.4750 C   0  0  0  0  0  0  0  0  0  0  0  0
   -0.3779    1.4272    4.5748 H   0  0  0  0  0  0  0  0  0  0  0  0
   -2.0826    1.1064    4.9754 H   0  0  0  0  0  0  0  0  0  0  0  0
   -0.8992   -0.2240    4.9525 H   0  0  0  0  0  0  0  0  0  0  0  0
  5  6  2  0  0  0  0
  5  7  1  0  0  0  0
  2  3  1  0  0  0  0
  2  4  1  0  0  0  0
  2  5  1  0  0  0  0
  1  2  1  0  0  0  0
 26 27  2  0  0  0  0
 26 28  1  0  0  0  0
 23 24  1  0  0  0  0
 23 25  1  0  0  0  0
 20 21  1  0  0  0  0
 20 22  1  0  0  0  0
 20 23  1  0  0  0  0
 17 18  1  0  0  0  0
 17 19  1  0  0  0  0
 17 20  1  0  0  0  0
 14 15  1  0  0  0  0
 14 16  1  0  0  0  0
 14 17  1  0  0  0  0
 11 12  1  0  0  0  0
 11 13  1  0  0  0  0
 11 14  1  0  0  0  0
  9 10  1  0  0  0  0
  9 11  1  0  0  0  0
  9 26  1  0  0  0  0
  7  8  1  0  0  0  0
  7  9  1  0  0  0  0
 30 31  1  0  0  0  0
 30 32  1  0  0  0  0
 30 33  1  0  0  0  0
 28 29  1  0  0  0  0
 28 30  1  0  0  0  0
M  END
$$$$
default_name
  -OEChem-02102213163D

 33 32  0     1  0  0  0  0  0999 V2000
   -3.8420   -3.6918    1.5562 H   0  0  0  0  0  0  0  0  0  0  0  0
   -3.8430   -2.7008    1.1032 C   0  0  0  0  0  0  0  0  0  0  0  0
   -4.5510   -2.0608    1.6242 H   0  0  0  0  0  0  0  0  0  0  0  0
   -4.1140   -2.7798    0.0522 H   0  0  0  0  0  0  0  0  0  0  0  0
   -2.4570   -2.1098    1.2172 C   0  0  0  0  0  0  0  0  0  0  0  0
   -1.5600   -2.7438    1.7572 O   0  0  0  0  0  0  0  0  0  0  0  0
   -2.2870   -0.8898    0.7102 N   0  0  0  0  0  0  0  0  0  0  0  0
   -3.0820   -0.4218    0.2992 H   0  0  0  0  0  0  0  0  0  0  0  0
   -1.0240   -0.1468    0.7262 C   0  0  1  0  0  0  0  0  0  0  0  0
   -0.2680   -0.7367    0.2062 H   0  0  0  0  0  0  0  0  0  0  0  0
   -1.2212    1.1806   -0.0314 C   0  0  0  0  0  0  0  0  0  0  0  0
   -2.2923    1.3574   -0.1489 H   0  0  0  0  0  0  0  0  0  0  0  0
   -0.8041    1.9973    0.5594 H   0  0  0  0  0  0  0  0  0  0  0  0
   -0.5784    1.1855   -1.4272 C   0  0  0  0  0  0  0  0  0  0  0  0
   -0.5797    0.1740   -1.8343 H   0  0  0  0  0  0  0  0  0  0  0  0
   -1.1558    1.8366   -2.0860 H   0  0  0  0  0  0  0  0  0  0  0  0
    0.8679    1.6890   -1.3620 C   0  0  0  0  0  0  0  0  0  0  0  0
    0.8864    2.6980   -0.9490 H   0  0  0  0  0  0  0  0  0  0  0  0
    1.4547    1.0277   -0.7238 H   0  0  0  0  0  0  0  0  0  0  0  0
    1.4742    1.7072   -2.7639 C   0  0  0  0  0  0  0  0  0  0  0  0
    1.4737    0.6974   -3.1711 H   0  0  0  0  0  0  0  0  0  0  0  0
    0.8791    2.3532   -3.4073 H   0  0  0  0  0  0  0  0  0  0  0  0
    2.8535    2.2075   -2.7409 N   0  0  0  0  0  0  0  0  0  0  0  0
    3.2262    2.1928   -3.6789 H   0  0  0  0  0  0  0  0  0  0  0  0
    2.8561    3.1561   -2.3937 H   0  0  0  0  0  0  0  0  0  0  0  0
   -0.5564    0.0727    2.1744 C   0  0  0  0  0  0  0  0  0  0  0  0
    0.6169   -0.1288    2.4805 O   0  0  0  0  0  0  0  0  0  0  0  0
   -1.4759    0.4743    3.0595 N   0  0  0  0  0  0  0  0  0  0  0  0
   -2.4132    0.6318    2.7275 H   0  0  0  0  0  0  0  0  0  0  0  0
   -1.1971    0.7118    4.4750 C   0  0  0  0  0  0  0  0  0  0  0  0
   -0.3779    1.4272    4.5748 H   0  0  0  0  0  0  0  0  0  0  0  0
   -2.0826    1.1064    4.9754 H   0  0  0  0  0  0  0  0  0  0  0  0
   -0.8992   -0.2240    4.9525 H   0  0  0  0  0  0  0  0  0  0  0  0
  5  6  2  0  0  0  0
  5  7  1  0  0  0  0
  2  3  1  0  0  0  0
  2  4  1  0  0  0  0
  2  5  1  0  0  0  0
  1  2  1  0  0  0  0
 26 27  2  0  0  0  0
 26 28  1  0  0  0  0
 23 24  1  0  0  0  0
 23 25  1  0  0  0  0
 20 21  1  0  0  0  0
 20 22  1  0  0  0  0
 20 23  1  0  0  0  0
 17 18  1  0  0  0  0
 17 19  1  0  0  0  0
 17 20  1  0  0  0  0
 14 15  1  0  0  0  0
 14 16  1  0  0  0  0
 14 17  1  0  0  0  0
 11 12  1  0  0  0  0
 11 13  1  0  0  0  0
 11 14  1  0  0  0  0
  9 10  1  0  0  0  0
  9 11  1  0  0  0  0
  9 26  1  0  0  0  0
  7  8  1  0  0  0  0
  7  9  1  0  0  0  0
 30 31  1  0  0  0  0
 30 32  1  0  0  0  0
 30 33  1  0  0  0  0
 28 29  1  0  0  0  0
 28 30  1  0  0  0  0
M  END
$$$$
default_name
  -OEChem-02102213163D

 33 32  0     1  0  0  0  0  0999 V2000
   -3.8420   -3.6918    1.5562 H   0  0  0  0  0  0  0  0  0  0  0  0
   -3.8430   -2.7008    1.1032 C   0  0  0  0  0  0  0  0  0  0  0  0
   -4.5510   -2.0608    1.6242 H   0  0  0  0  0  0  0  0  0  0  0  0
   -4.1140   -2.7798    0.0522 H   0  0  0  0  0  0  0  0  0  0  0  0
   -2.4570   -2.1098    1.2172 C   0  0  0  0  0  0  0  0  0  0  0  0
   -1.5600   -2.7438    1.7572 O   0  0  0  0  0  0  0  0  0  0  0  0
   -2.2870   -0.8898    0.7102 N   0  0  0  0  0  0  0  0  0  0  0  0
   -3.0820   -0.4218    0.2992 H   0  0  0  0  0  0  0  0  0  0  0  0
   -1.0240   -0.1468    0.7262 C   0  0  1  0  0  0  0  0  0  0  0  0
   -0.2680   -0.7367    0.2062 H   0  0  0  0  0  0  0  0  0  0  0  0
   -1.2212    1.1806   -0.0314 C   0  0  0  0  0  0  0  0  0  0  0  0
   -2.2923    1.3574   -0.1489 H   0  0  0  0  0  0  0  0  0  0  0  0
   -0.8041    1.9973    0.5594 H   0  0  0  0  0  0  0  0  0  0  0  0
   -0.5784    1.1855   -1.4272 C   0  0  0  0  0  0  0  0  0  0  0  0
   -0.8126    0.2528   -1.9412 H   0  0  0  0  0  0  0  0  0  0  0  0
   -0.9785    2.0216   -2.0037 H   0  0  0  0  0  0  0  0  0  0  0  0
    0.9449    1.3248   -1.3278 C   0  0  0  0  0  0  0  0  0  0  0  0
    1.1951    2.2504   -0.8085 H   0  0  0  0  0  0  0  0  0  0  0  0
    1.3519    0.4790   -0.7730 H   0  0  0  0  0  0  0  0  0  0  0  0
    1.5554    1.3518   -2.7277 C   0  0  0  0  0  0  0  0  0  0  0  0
    1.3224    0.4206   -3.2417 H   0  0  0  0  0  0  0  0  0  0  0  0
    1.1367    2.1854   -3.2893 H   0  0  0  0  0  0  0  0  0  0  0  0
    3.0132    1.5084   -2.6697 N   0  0  0  0  0  0  0  0  0  0  0  0
    3.3835    1.5082   -3.6088 H   0  0  0  0  0  0  0  0  0  0  0  0
    3.2346    2.3864   -2.2221 H   0  0  0  0  0  0  0  0  0  0  0  0
   -0.5564    0.0727    2.1744 C   0  0  0  0  0  0  0  0  0  0  0  0
    0.6169   -0.1288    2.4805 O   0  0  0  0  0  0  0  0  0  0  0  0
   -1.4759    0.4743    3.0595 N   0  0  0  0  0  0  0  0  0  0  0  0
   -2.4132    0.6318    2.7275 H   0  0  0  0  0  0  0  0  0  0  0  0
   -1.1971    0.7118    4.4750 C   0  0  0  0  0  0  0  0  0  0  0  0
   -0.3779    1.4272    4.5748 H   0  0  0  0  0  0  0  0  0  0  0  0
   -2.0826    1.1064    4.9754 H   0  0  0  0  0  0  0  0  0  0  0  0
   -0.8992   -0.2240    4.9525 H   0  0  0  0  0  0  0  0  0  0  0  0
  5  6  2  0  0  0  0
  5  7  1  0  0  0  0
  2  3  1  0  0  0  0
  2  4  1  0  0  0  0
  2  5  1  0  0  0  0
  1  2  1  0  0  0  0
 26 27  2  0  0  0  0
 26 28  1  0  0  0  0
 23 24  1  0  0  0  0
 23 25  1  0  0  0  0
 20 21  1  0  0  0  0
 20 22  1  0  0  0  0
 20 23  1  0  0  0  0
 17 18  1  0  0  0  0
 17 19  1  0  0  0  0
 17 20  1  0  0  0  0
 14 15  1  0  0  0  0
 14 16  1  0  0  0  0
 14 17  1  0  0  0  0
 11 12  1  0  0  0  0
 11 13  1  0  0  0  0
 11 14  1  0  0  0  0
  9 10  1  0  0  0  0
  9 11  1  0  0  0  0
  9 26  1  0  0  0  0
  7  8  1  0  0  0  0
  7  9  1  0  0  0  0
 30 31  1  0  0  0  0
 30 32  1  0  0  0  0
 30 33  1  0  0  0  0
 28 29  1  0  0  0  0
 28 30  1  0  0  0  0
M  END
$$$$
default_name
  -OEChem-02102213163D

 33 32  0     1  0  0  0  0  0999 V2000
   -3.8420   -3.6918    1.5562 H   0  0  0  0  0  0  0  0  0  0  0  0
   -3.8430   -2.7008    1.1032 C   0  0  0  0  0  0  0  0  0  0  0  0
   -4.5510   -2.0608    1.6242 H   0  0  0  0  0  0  0  0  0  0  0  0
   -4.1140   -2.7798    0.0522 H   0  0  0  0  0  0  0  0  0  0  0  0
   -2.4570   -2.1098    1.2172 C   0  0  0  0  0  0  0  0  0  0  0  0
   -1.5600   -2.7438    1.7572 O   0  0  0  0  0  0  0  0  0  0  0  0
   -2.2870   -0.8898    0.7102 N   0  0  0  0  0  0  0  0  0  0  0  0
   -3.0820   -0.4218    0.2992 H   0  0  0  0  0  0  0  0  0  0  0  0
   -1.0240   -0.1468    0.7262 C   0  0  1  0  0  0  0  0  0  0  0  0
   -0.2680   -0.7367    0.2062 H   0  0  0  0  0  0  0  0  0  0  0  0
   -1.2212    1.1806   -0.0314 C   0  0  0  0  0  0  0  0  0  0  0  0
   -2.2923    1.3574   -0.1489 H   0  0  0  0  0  0  0  0  0  0  0  0
   -0.8041    1.9973    0.5594 H   0  0  0  0  0  0  0  0  0  0  0  0
   -0.5784    1.1855   -1.4272 C   0  0  0  0  0  0  0  0  0  0  0  0
   -1.0191    0.3954   -2.0358 H   0  0  0  0  0  0  0  0  0  0  0  0
   -0.7636    2.1496   -1.9043 H   0  0  0  0  0  0  0  0  0  0  0  0
    0.9336    0.9513   -1.3343 C   0  0  0  0  0  0  0  0  0  0  0  0
    1.3881    1.7302   -0.7214 H   0  0  0  0  0  0  0  0  0  0  0  0
    1.1236   -0.0215   -0.8799 H   0  0  0  0  0  0  0  0  0  0  0  0
    1.5503    0.9855   -2.7314 C   0  0  0  0  0  0  0  0  0  0  0  0
    1.1112    0.1965   -3.3398 H   0  0  0  0  0  0  0  0  0  0  0  0
    1.3462    1.9499   -3.1936 H   0  0  0  0  0  0  0  0  0  0  0  0
    3.0033    0.7878   -2.6768 N   0  0  0  0  0  0  0  0  0  0  0  0
    3.3744    0.8023   -3.6154 H   0  0  0  0  0  0  0  0  0  0  0  0
    3.4195    1.5354   -2.1399 H   0  0  0  0  0  0  0  0  0  0  0  0
   -0.5564    0.0727    2.1744 C   0  0  0  0  0  0  0  0  0  0  0  0
    0.6169   -0.1288    2.4805 O   0  0  0  0  0  0  0  0  0  0  0  0
   -1.4759    0.4743    3.0595 N   0  0  0  0  0  0  0  0  0  0  0  0
   -2.4132    0.6318    2.7275 H   0  0  0  0  0  0  0  0  0  0  0  0
   -1.1971    0.7118    4.4750 C   0  0  0  0  0  0  0  0  0  0  0  0
   -0.3779    1.4272    4.5748 H   0  0  0  0  0  0  0  0  0  0  0  0
   -2.0826    1.1064    4.9754 H   0  0  0  0  0  0  0  0  0  0  0  0
   -0.8992   -0.2240    4.9525 H   0  0  0  0  0  0  0  0  0  0  0  0
  5  6  2  0  0  0  0
  5  7  1  0  0  0  0
  2  3  1  0  0  0  0
  2  4  1  0  0  0  0
  2  5  1  0  0  0  0
  1  2  1  0  0  0  0
 26 27  2  0  0  0  0
 26 28  1  0  0  0  0
 23 24  1  0  0  0  0
 23 25  1  0  0  0  0
 20 21  1  0  0  0  0
 20 22  1  0  0  0  0
 20 23  1  0  0  0  0
 17 18  1  0  0  0  0
 17 19  1  0  0  0  0
 17 20  1  0  0  0  0
 14 15  1  0  0  0  0
 14 16  1  0  0  0  0
 14 17  1  0  0  0  0
 11 12  1  0  0  0  0
 11 13  1  0  0  0  0
 11 14  1  0  0  0  0
  9 10  1  0  0  0  0
  9 11  1  0  0  0  0
  9 26  1  0  0  0  0
  7  8  1  0  0  0  0
  7  9  1  0  0  0  0
 30 31  1  0  0  0  0
 30 32  1  0  0  0  0
 30 33  1  0  0  0  0
 28 29  1  0  0  0  0
 28 30  1  0  0  0  0
M  END
$$$$
default_name
  -OEChem-02102213163D

 33 32  0     1  0  0  0  0  0999 V2000
   -3.8420   -3.6918    1.5562 H   0  0  0  0  0  0  0  0  0  0  0  0
   -3.8430   -2.7008    1.1032 C   0  0  0  0  0  0  0  0  0  0  0  0
   -4.5510   -2.0608    1.6242 H   0  0  0  0  0  0  0  0  0  0  0  0
   -4.1140   -2.7798    0.0522 H   0  0  0  0  0  0  0  0  0  0  0  0
   -2.4570   -2.1098    1.2172 C   0  0  0  0  0  0  0  0  0  0  0  0
   -1.5600   -2.7438    1.7572 O   0  0  0  0  0  0  0  0  0  0  0  0
   -2.2870   -0.8898    0.7102 N   0  0  0  0  0  0  0  0  0  0  0  0
   -3.0820   -0.4218    0.2992 H   0  0  0  0  0  0  0  0  0  0  0  0
   -1.0240   -0.1468    0.7262 C   0  0  1  0  0  0  0  0  0  0  0  0
   -0.2680   -0.7367    0.2062 H   0  0  0  0  0  0  0  0  0  0  0  0
   -1.2212    1.1806   -0.0314 C   0  0  0  0  0  0  0  0  0  0  0  0
   -2.2923    1.3574   -0.1489 H   0  0  0  0  0  0  0  0  0  0  0  0
   -0.8041    1.9973    0.5594 H   0  0  0  0  0  0  0  0  0  0  0  0
   -0.5784    1.1855   -1.4272 C   0  0  0  0  0  0  0  0  0  0  0  0
   -1.1851    0.5918   -2.1116 H   0  0  0  0  0  0  0  0  0  0  0  0
   -0.5260    2.2119   -1.7947 H   0  0  0  0  0  0  0  0  0  0  0  0
    0.8349    0.5938   -1.3810 C   0  0  0  0  0  0  0  0  0  0  0  0
    1.4524    1.1729   -0.6937 H   0  0  0  0  0  0  0  0  0  0  0  0
    0.7853   -0.4398   -1.0371 H   0  0  0  0  0  0  0  0  0  0  0  0
    1.4592    0.6333   -2.7745 C   0  0  0  0  0  0  0  0  0  0  0  0
    0.8543    0.0403   -3.4586 H   0  0  0  0  0  0  0  0  0  0  0  0
    1.4933    1.6629   -3.1269 H   0  0  0  0  0  0  0  0  0  0  0  0
    2.8242    0.0949   -2.7617 N   0  0  0  0  0  0  0  0  0  0  0  0
    3.1997    0.1234   -3.6982 H   0  0  0  0  0  0  0  0  0  0  0  0
    3.3980    0.6610   -2.1528 H   0  0  0  0  0  0  0  0  0  0  0  0
   -0.5564    0.0727    2.1744 C   0  0  0  0  0  0  0  0  0  0  0  0
    0.6169   -0.1288    2.4805 O   0  0  0  0  0  0  0  0  0  0  0  0
   -1.4759    0.4743    3.0595 N   0  0  0  0  0  0  0  0  0  0  0  0
   -2.4132    0.6318    2.7275 H   0  0  0  0  0  0  0  0  0  0  0  0
   -1.1971    0.7118    4.4750 C   0  0  0  0  0  0  0  0  0  0  0  0
   -0.3779    1.4272    4.5748 H   0  0  0  0  0  0  0  0  0  0  0  0
   -2.0826    1.1064    4.9754 H   0  0  0  0  0  0  0  0  0  0  0  0
   -0.8992   -0.2240    4.9525 H   0  0  0  0  0  0  0  0  0  0  0  0
  5  6  2  0  0  0  0
  5  7  1  0  0  0  0
  2  3  1  0  0  0  0
  2  4  1  0  0  0  0
  2  5  1  0  0  0  0
  1  2  1  0  0  0  0
 26 27  2  0  0  0  0
 26 28  1  0  0  0  0
 23 24  1  0  0  0  0
 23 25  1  0  0  0  0
 20 21  1  0  0  0  0
 20 22  1  0  0  0  0
 20 23  1  0  0  0  0
 17 18  1  0  0  0  0
 17 19  1  0  0  0  0
 17 20  1  0  0  0  0
 14 15  1  0  0  0  0
 14 16  1  0  0  0  0
 14 17  1  0  0  0  0
 11 12  1  0  0  0  0
 11 13  1  0  0  0  0
 11 14  1  0  0  0  0
  9 10  1  0  0  0  0
  9 11  1  0  0  0  0
  9 26  1  0  0  0  0
  7  8  1  0  0  0  0
  7  9  1  0  0  0  0
 30 31  1  0  0  0  0
 30 32  1  0  0  0  0
 30 33  1  0  0  0  0
 28 29  1  0  0  0  0
 28 30  1  0  0  0  0
M  END
$$$$
default_name
  -OEChem-02102213163D

 33 32  0     1  0  0  0  0  0999 V2000
   -3.8420   -3.6918    1.5562 H   0  0  0  0  0  0  0  0  0  0  0  0
   -3.8430   -2.7008    1.1032 C   0  0  0  0  0  0  0  0  0  0  0  0
   -4.5510   -2.0608    1.6242 H   0  0  0  0  0  0  0  0  0  0  0  0
   -4.1140   -2.7798    0.0522 H   0  0  0  0  0  0  0  0  0  0  0  0
   -2.4570   -2.1098    1.2172 C   0  0  0  0  0  0  0  0  0  0  0  0
   -1.5600   -2.7438    1.7572 O   0  0  0  0  0  0  0  0  0  0  0  0
   -2.2870   -0.8898    0.7102 N   0  0  0  0  0  0  0  0  0  0  0  0
   -3.0820   -0.4218    0.2992 H   0  0  0  0  0  0  0  0  0  0  0  0
   -1.0240   -0.1468    0.7262 C   0  0  1  0  0  0  0  0  0  0  0  0
   -0.2680   -0.7367    0.2062 H   0  0  0  0  0  0  0  0  0  0  0  0
   -1.2212    1.1806   -0.0314 C   0  0  0  0  0  0  0  0  0  0  0  0
   -2.2923    1.3574   -0.1489 H   0  0  0  0  0  0  0  0  0  0  0  0
   -0.8041    1.9973    0.5594 H   0  0  0  0  0  0  0  0  0  0  0  0
   -0.5784    1.1855   -1.4272 C   0  0  0  0  0  0  0  0  0  0  0  0
   -1.2993    0.8288   -2.1634 H   0  0  0  0  0  0  0  0  0  0  0  0
   -0.2816    2.2045   -1.6822 H   0  0  0  0  0  0  0  0  0  0  0  0
    0.6555    0.2767   -1.4647 C   0  0  0  0  0  0  0  0  0  0  0  0
    1.3834    0.6165   -0.7274 H   0  0  0  0  0  0  0  0  0  0  0  0
    0.3601   -0.7472   -1.2340 H   0  0  0  0  0  0  0  0  0  0  0  0
    1.2885    0.3192   -2.8542 C   0  0  0  0  0  0  0  0  0  0  0  0
    0.5694   -0.0373   -3.5900 H   0  0  0  0  0  0  0  0  0  0  0  0
    1.5679    1.3439   -3.0936 H   0  0  0  0  0  0  0  0  0  0  0  0
    2.4884   -0.5231   -2.9185 N   0  0  0  0  0  0  0  0  0  0  0  0
    2.8714   -0.4824   -3.8516 H   0  0  0  0  0  0  0  0  0  0  0  0
    3.1717   -0.1771   -2.2599 H   0  0  0  0  0  0  0  0  0  0  0  0
   -0.5564    0.0727    2.1744 C   0  0  0  0  0  0  0  0  0  0  0  0
    0.6169   -0.1288    2.4805 O   0  0  0  0  0  0  0  0  0  0  0  0
   -1.4759    0.4743    3.0595 N   0  0  0  0  0  0  0  0  0  0  0  0
   -2.4132    0.6318    2.7275 H   0  0  0  0  0  0  0  0  0  0  0  0
   -1.1971    0.7118    4.4750 C   0  0  0  0  0  0  0  0  0  0  0  0
   -0.3779    1.4272    4.5748 H   0  0  0  0  0  0  0  0  0  0  0  0
   -2.0826    1.1064    4.9754 H   0  0  0  0  0  0  0  0  0  0  0  0
   -0.8992   -0.2240    4.9525 H   0  0  0  0  0  0  0  0  0  0  0  0
  5  6  2  0  0  0  0
  5  7  1  0  0  0  0
  2  3  1  0  0  0  0
  2  4  1  0  0  0  0
  2  5  1  0  0  0  0
  1  2  1  0  0  0  0
 26 27  2  0  0  0  0
 26 28  1  0  0  0  0
 23 24  1  0  0  0  0
 23 25  1  0  0  0  0
 20 21  1  0  0  0  0
 20 22  1  0  0  0  0
 20 23  1  0  0  0  0
 17 18  1  0  0  0  0
 17 19  1  0  0  0  0
 17 20  1  0  0  0  0
 14 15  1  0  0  0  0
 14 16  1  0  0  0  0
 14 17  1  0  0  0  0
 11 12  1  0  0  0  0
 11 13  1  0  0  0  0
 11 14  1  0  0  0  0
  9 10  1  0  0  0  0
  9 11  1  0  0  0  0
  9 26  1  0  0  0  0
  7  8  1  0  0  0  0
  7  9  1  0  0  0  0
 30 31  1  0  0  0  0
 30 32  1  0  0  0  0
 30 33  1  0  0  0  0
 28 29  1  0  0  0  0
 28 30  1  0  0  0  0
M  END
$$$$
default_name
  -OEChem-02102213163D

 33 32  0     1  0  0  0  0  0999 V2000
   -3.8420   -3.6918    1.5562 H   0  0  0  0  0  0  0  0  0  0  0  0
   -3.8430   -2.7008    1.1032 C   0  0  0  0  0  0  0  0  0  0  0  0
   -4.5510   -2.0608    1.6242 H   0  0  0  0  0  0  0  0  0  0  0  0
   -4.1140   -2.7798    0.0522 H   0  0  0  0  0  0  0  0  0  0  0  0
   -2.4570   -2.1098    1.2172 C   0  0  0  0  0  0  0  0  0  0  0  0
   -1.5600   -2.7438    1.7572 O   0  0  0  0  0  0  0  0  0  0  0  0
   -2.2870   -0.8898    0.7102 N   0  0  0  0  0  0  0  0  0  0  0  0
   -3.0820   -0.4218    0.2992 H   0  0  0  0  0  0  0  0  0  0  0  0
   -1.0240   -0.1468    0.7262 C   0  0  1  0  0  0  0  0  0  0  0  0
   -0.2680   -0.7367    0.2062 H   0  0  0  0  0  0  0  0  0  0  0  0
   -1.2212    1.1806   -0.0314 C   0  0  0  0  0  0  0  0  0  0  0  0
   -2.2923    1.3574   -0.1489 H   0  0  0  0  0  0  0  0  0  0  0  0
   -0.8041    1.9973    0.5594 H   0  0  0  0  0  0  0  0  0  0  0  0
   -0.5784    1.1855   -1.4272 C   0  0  0  0  0  0  0  0  0  0  0  0
   -1.3540    1.0901   -2.1876 H   0  0  0  0  0  0  0  0  0  0  0  0
   -0.0473    2.1276   -1.5745 H   0  0  0  0  0  0  0  0  0  0  0  0
    0.4076    0.0217   -1.5798 C   0  0  0  0  0  0  0  0  0  0  0  0
    1.1860    0.0990   -0.8201 H   0  0  0  0  0  0  0  0  0  0  0  0
   -0.1231   -0.9229   -1.4571 H   0  0  0  0  0  0  0  0  0  0  0  0
    1.0496    0.0645   -2.9651 C   0  0  0  0  0  0  0  0  0  0  0  0
    0.2759   -0.0311   -3.7252 H   0  0  0  0  0  0  0  0  0  0  0  0
    1.5650    1.0145   -3.0961 H   0  0  0  0  0  0  0  0  0  0  0  0
    2.0185   -1.0241   -3.1366 N   0  0  0  0  0  0  0  0  0  0  0  0
    2.4116   -0.9737   -4.0650 H   0  0  0  0  0  0  0  0  0  0  0  0
    2.7560   -0.9219   -2.4540 H   0  0  0  0  0  0  0  0  0  0  0  0
   -0.5564    0.0727    2.1744 C   0  0  0  0  0  0  0  0  0  0  0  0
    0.6169   -0.1288    2.4805 O   0  0  0  0  0  0  0  0  0  0  0  0
   -1.4759    0.4743    3.0595 N   0  0  0  0  0  0  0  0  0  0  0  0
   -2.4132    0.6318    2.7275 H   0  0  0  0  0  0  0  0  0  0  0  0
   -1.1971    0.7118    4.4750 C   0  0  0  0  0  0  0  0  0  0  0  0
   -0.3779    1.4272    4.5748 H   0  0  0  0  0  0  0  0  0  0  0  0
   -2.0826    1.1064    4.9754 H   0  0  0  0  0  0  0  0  0  0  0  0
   -0.8992   -0.2240    4.9525 H   0  0  0  0  0  0  0  0  0  0  0  0
  5  6  2  0  0  0  0
  5  7  1  0  0  0  0
  2  3  1  0  0  0  0
  2  4  1  0  0  0  0
  2  5  1  0  0  0  0
  1  2  1  0  0  0  0
 26 27  2  0  0  0  0
 26 28  1  0  0  0  0
 23 24  1  0  0  0  0
 23 25  1  0  0  0  0
 20 21  1  0  0  0  0
 20 22  1  0  0  0  0
 20 23  1  0  0  0  0
 17 18  1  0  0  0  0
 17 19  1  0  0  0  0
 17 20  1  0  0  0  0
 14 15  1  0  0  0  0
 14 16  1  0  0  0  0
 14 17  1  0  0  0  0
 11 12  1  0  0  0  0
 11 13  1  0  0  0  0
 11 14  1  0  0  0  0
  9 10  1  0  0  0  0
  9 11  1  0  0  0  0
  9 26  1  0  0  0  0
  7  8  1  0  0  0  0
  7  9  1  0  0  0  0
 30 31  1  0  0  0  0
 30 32  1  0  0  0  0
 30 33  1  0  0  0  0
 28 29  1  0  0  0  0
 28 30  1  0  0  0  0
M  END
$$$$
default_name
  -OEChem-02102213163D

 33 32  0     1  0  0  0  0  0999 V2000
   -3.8420   -3.6918    1.5562 H   0  0  0  0  0  0  0  0  0  0  0  0
   -3.8430   -2.7008    1.1032 C   0  0  0  0  0  0  0  0  0  0  0  0
   -4.5510   -2.0608    1.6242 H   0  0  0  0  0  0  0  0  0  0  0  0
   -4.1140   -2.7798    0.0522 H   0  0  0  0  0  0  0  0  0  0  0  0
   -2.4570   -2.1098    1.2172 C   0  0  0  0  0  0  0  0  0  0  0  0
   -1.5600   -2.7438    1.7572 O   0  0  0  0  0  0  0  0  0  0  0  0
   -2.2870   -0.8898    0.7102 N   0  0  0  0  0  0  0  0  0  0  0  0
   -3.0820   -0.4218    0.2992 H   0  0  0  0  0  0  0  0  0  0  0  0
   -1.0240   -0.1468    0.7262 C   0  0  1  0  0  0  0  0  0  0  0  0
   -0.2680   -0.7367    0.2062 H   0  0  0  0  0  0  0  0  0  0  0  0
   -1.2212    1.1806   -0.0314 C   0  0  0  0  0  0  0  0  0  0  0  0
   -2.2923    1.3574   -0.1489 H   0  0  0  0  0  0  0  0  0  0  0  0
   -0.8041    1.9973    0.5594 H   0  0  0  0  0  0  0  0  0  0  0  0
   -0.5784    1.1855   -1.4272 C   0  0  0  0  0  0  0  0  0  0  0  0
   -1.3454    1.3581   -2.1828 H   0  0  0  0  0  0  0  0  0  0  0  0
    0.1611    1.9866   -1.4791 H   0  0  0  0  0  0  0  0  0  0  0  0
    0.1081   -0.1538   -1.7183 C   0  0  0  0  0  0  0  0  0  0  0  0
    0.8736   -0.3445   -0.9655 H   0  0  0  0  0  0  0  0  0  0  0  0
   -0.6313   -0.9548   -1.6912 H   0  0  0  0  0  0  0  0  0  0  0  0
    0.7589   -0.1133   -3.0996 C   0  0  0  0  0  0  0  0  0  0  0  0
   -0.0063    0.0586   -3.8548 H   0  0  0  0  0  0  0  0  0  0  0  0
    1.4848    0.6974   -3.1341 H   0  0  0  0  0  0  0  0  0  0  0  0
    1.4467   -1.3740   -3.4011 N   0  0  0  0  0  0  0  0  0  0  0  0
    1.8519   -1.3171   -4.3239 H   0  0  0  0  0  0  0  0  0  0  0  0
    2.1792   -1.5226   -2.7216 H   0  0  0  0  0  0  0  0  0  0  0  0
   -0.5564    0.0727    2.1744 C   0  0  0  0  0  0  0  0  0  0  0  0
    0.6169   -0.1288    2.4805 O   0  0  0  0  0  0  0  0  0  0  0  0
   -1.4759    0.4743    3.0595 N   0  0  0  0  0  0  0  0  0  0  0  0
   -2.4132    0.6318    2.7275 H   0  0  0  0  0  0  0  0  0  0  0  0
   -1.1971    0.7118    4.4750 C   0  0  0  0  0  0  0  0  0  0  0  0
   -0.3779    1.4272    4.5748 H   0  0  0  0  0  0  0  0  0  0  0  0
   -2.0826    1.1064    4.9754 H   0  0  0  0  0  0  0  0  0  0  0  0
   -0.8992   -0.2240    4.9525 H   0  0  0  0  0  0  0  0  0  0  0  0
  5  6  2  0  0  0  0
  5  7  1  0  0  0  0
  2  3  1  0  0  0  0
  2  4  1  0  0  0  0
  2  5  1  0  0  0  0
  1  2  1  0  0  0  0
 26 27  2  0  0  0  0
 26 28  1  0  0  0  0
 23 24  1  0  0  0  0
 23 25  1  0  0  0  0
 20 21  1  0  0  0  0
 20 22  1  0  0  0  0
 20 23  1  0  0  0  0
 17 18  1  0  0  0  0
 17 19  1  0  0  0  0
 17 20  1  0  0  0  0
 14 15  1  0  0  0  0
 14 16  1  0  0  0  0
 14 17  1  0  0  0  0
 11 12  1  0  0  0  0
 11 13  1  0  0  0  0
 11 14  1  0  0  0  0
  9 10  1  0  0  0  0
  9 11  1  0  0  0  0
  9 26  1  0  0  0  0
  7  8  1  0  0  0  0
  7  9  1  0  0  0  0
 30 31  1  0  0  0  0
 30 32  1  0  0  0  0
 30 33  1  0  0  0  0
 28 29  1  0  0  0  0
 28 30  1  0  0  0  0
M  END
$$$$
default_name
  -OEChem-02102213163D

 33 32  0     1  0  0  0  0  0999 V2000
   -3.8420   -3.6918    1.5562 H   0  0  0  0  0  0  0  0  0  0  0  0
   -3.8430   -2.7008    1.1032 C   0  0  0  0  0  0  0  0  0  0  0  0
   -4.5510   -2.0608    1.6242 H   0  0  0  0  0  0  0  0  0  0  0  0
   -4.1140   -2.7798    0.0522 H   0  0  0  0  0  0  0  0  0  0  0  0
   -2.4570   -2.1098    1.2172 C   0  0  0  0  0  0  0  0  0  0  0  0
   -1.5600   -2.7438    1.7572 O   0  0  0  0  0  0  0  0  0  0  0  0
   -2.2870   -0.8898    0.7102 N   0  0  0  0  0  0  0  0  0  0  0  0
   -3.0820   -0.4218    0.2992 H   0  0  0  0  0  0  0  0  0  0  0  0
   -1.0240   -0.1468    0.7262 C   0  0  1  0  0  0  0  0  0  0  0  0
   -0.2680   -0.7367    0.2062 H   0  0  0  0  0  0  0  0  0  0  0  0
   -1.2212    1.1806   -0.0314 C   0  0  0  0  0  0  0  0  0  0  0  0
   -2.2923    1.3574   -0.1489 H   0  0  0  0  0  0  0  0  0  0  0  0
   -0.8041    1.9973    0.5594 H   0  0  0  0  0  0  0  0  0  0  0  0
   -0.5784    1.1855   -1.4272 C   0  0  0  0  0  0  0  0  0  0  0  0
   -1.2741    1.6143   -2.1490 H   0  0  0  0  0  0  0  0  0  0  0  0
    0.3293    1.7911   -1.4023 H   0  0  0  0  0  0  0  0  0  0  0  0
   -0.2226   -0.2380   -1.8709 C   0  0  0  0  0  0  0  0  0  0  0  0
    0.4674   -0.6837   -1.1537 H   0  0  0  0  0  0  0  0  0  0  0  0
   -1.1298   -0.8409   -1.9204 H   0  0  0  0  0  0  0  0  0  0  0  0
    0.4362   -0.2022   -3.2485 C   0  0  0  0  0  0  0  0  0  0  0  0
   -0.2579    0.2255   -3.9701 H   0  0  0  0  0  0  0  0  0  0  0  0
    1.3328    0.4140   -3.2051 H   0  0  0  0  0  0  0  0  0  0  0  0
    0.8119   -1.5489   -3.6940 N   0  0  0  0  0  0  0  0  0  0  0  0
    1.2302   -1.4892   -4.6108 H   0  0  0  0  0  0  0  0  0  0  0  0
    1.4806   -1.9382   -3.0448 H   0  0  0  0  0  0  0  0  0  0  0  0
   -0.5564    0.0727    2.1744 C   0  0  0  0  0  0  0  0  0  0  0  0
    0.6169   -0.1288    2.4805 O   0  0  0  0  0  0  0  0  0  0  0  0
   -1.4759    0.4743    3.0595 N   0  0  0  0  0  0  0  0  0  0  0  0
   -2.4132    0.6318    2.7275 H   0  0  0  0  0  0  0  0  0  0  0  0
   -1.1971    0.7118    4.4750 C   0  0  0  0  0  0  0  0  0  0  0  0
   -0.3779    1.4272    4.5748 H   0  0  0  0  0  0  0  0  0  0  0  0
   -2.0826    1.1064    4.9754 H   0  0  0  0  0  0  0  0  0  0  0  0
   -0.8992   -0.2240    4.9525 H   0  0  0  0  0  0  0  0  0  0  0  0
  5  6  2  0  0  0  0
  5  7  1  0  0  0  0
  2  3  1  0  0  0  0
  2  4  1  0  0  0  0
  2  5  1  0  0  0  0
  1  2  1  0  0  0  0
 26 27  2  0  0  0  0
 26 28  1  0  0  0  0
 23 24  1  0  0  0  0
 23 25  1  0  0  0  0
 20 21  1  0  0  0  0
 20 22  1  0  0  0  0
 20 23  1  0  0  0  0
 17 18  1  0  0  0  0
 17 19  1  0  0  0  0
 17 20  1  0  0  0  0
 14 15  1  0  0  0  0
 14 16  1  0  0  0  0
 14 17  1  0  0  0  0
 11 12  1  0  0  0  0
 11 13  1  0  0  0  0
 11 14  1  0  0  0  0
  9 10  1  0  0  0  0
  9 11  1  0  0  0  0
  9 26  1  0  0  0  0
  7  8  1  0  0  0  0
  7  9  1  0  0  0  0
 30 31  1  0  0  0  0
 30 32  1  0  0  0  0
 30 33  1  0  0  0  0
 28 29  1  0  0  0  0
 28 30  1  0  0  0  0
M  END
$$$$
default_name
  -OEChem-02102213163D

 33 32  0     1  0  0  0  0  0999 V2000
   -3.8420   -3.6918    1.5562 H   0  0  0  0  0  0  0  0  0  0  0  0
   -3.8430   -2.7008    1.1032 C   0  0  0  0  0  0  0  0  0  0  0  0
   -4.5510   -2.0608    1.6242 H   0  0  0  0  0  0  0  0  0  0  0  0
   -4.1140   -2.7798    0.0522 H   0  0  0  0  0  0  0  0  0  0  0  0
   -2.4570   -2.1098    1.2172 C   0  0  0  0  0  0  0  0  0  0  0  0
   -1.5600   -2.7438    1.7572 O   0  0  0  0  0  0  0  0  0  0  0  0
   -2.2870   -0.8898    0.7102 N   0  0  0  0  0  0  0  0  0  0  0  0
   -3.0820   -0.4218    0.2992 H   0  0  0  0  0  0  0  0  0  0  0  0
   -1.0240   -0.1468    0.7262 C   0  0  1  0  0  0  0  0  0  0  0  0
   -0.2680   -0.7367    0.2062 H   0  0  0  0  0  0  0  0  0  0  0  0
   -1.2212    1.1806   -0.0314 C   0  0  0  0  0  0  0  0  0  0  0  0
   -2.2923    1.3574   -0.1489 H   0  0  0  0  0  0  0  0  0  0  0  0
   -0.8041    1.9973    0.5594 H   0  0  0  0  0  0  0  0  0  0  0  0
   -0.5784    1.1855   -1.4272 C   0  0  0  0  0  0  0  0  0  0  0  0
   -1.1449    1.8414   -2.0888 H   0  0  0  0  0  0  0  0  0  0  0  0
    0.4459    1.5544   -1.3494 H   0  0  0  0  0  0  0  0  0  0  0  0
   -0.5619   -0.2251   -2.0271 C   0  0  0  0  0  0  0  0  0  0  0  0
   -0.0048   -0.8955   -1.3719 H   0  0  0  0  0  0  0  0  0  0  0  0
   -1.5848   -0.5888   -2.1290 H   0  0  0  0  0  0  0  0  0  0  0  0
    0.1035   -0.1961   -3.4017 C   0  0  0  0  0  0  0  0  0  0  0  0
   -0.4618    0.4584   -4.0632 H   0  0  0  0  0  0  0  0  0  0  0  0
    1.1192    0.1837   -3.3043 H   0  0  0  0  0  0  0  0  0  0  0  0
    0.1573   -1.5369   -3.9954 N   0  0  0  0  0  0  0  0  0  0  0  0
    0.5891   -1.4782   -4.9060 H   0  0  0  0  0  0  0  0  0  0  0  0
    0.7079   -2.1405   -3.4013 H   0  0  0  0  0  0  0  0  0  0  0  0
   -0.5564    0.0727    2.1744 C   0  0  0  0  0  0  0  0  0  0  0  0
    0.6169   -0.1288    2.4805 O   0  0  0  0  0  0  0  0  0  0  0  0
   -1.4759    0.4743    3.0595 N   0  0  0  0  0  0  0  0  0  0  0  0
   -2.4132    0.6318    2.7275 H   0  0  0  0  0  0  0  0  0  0  0  0
   -1.1971    0.7118    4.4750 C   0  0  0  0  0  0  0  0  0  0  0  0
   -0.3779    1.4272    4.5748 H   0  0  0  0  0  0  0  0  0  0  0  0
   -2.0826    1.1064    4.9754 H   0  0  0  0  0  0  0  0  0  0  0  0
   -0.8992   -0.2240    4.9525 H   0  0  0  0  0  0  0  0  0  0  0  0
  5  6  2  0  0  0  0
  5  7  1  0  0  0  0
  2  3  1  0  0  0  0
  2  4  1  0  0  0  0
  2  5  1  0  0  0  0
  1  2  1  0  0  0  0
 26 27  2  0  0  0  0
 26 28  1  0  0  0  0
 23 24  1  0  0  0  0
 23 25  1  0  0  0  0
 20 21  1  0  0  0  0
 20 22  1  0  0  0  0
 20 23  1  0  0  0  0
 17 18  1  0  0  0  0
 17 19  1  0  0  0  0
 17 20  1  0  0  0  0
 14 15  1  0  0  0  0
 14 16  1  0  0  0  0
 14 17  1  0  0  0  0
 11 12  1  0  0  0  0
 11 13  1  0  0  0  0
 11 14  1  0  0  0  0
  9 10  1  0  0  0  0
  9 11  1  0  0  0  0
  9 26  1  0  0  0  0
  7  8  1  0  0  0  0
  7  9  1  0  0  0  0
 30 31  1  0  0  0  0
 30 32  1  0  0  0  0
 30 33  1  0  0  0  0
 28 29  1  0  0  0  0
 28 30  1  0  0  0  0
M  END
$$$$
default_name
  -OEChem-02102213163D

 33 32  0     1  0  0  0  0  0999 V2000
   -3.8420   -3.6918    1.5562 H   0  0  0  0  0  0  0  0  0  0  0  0
   -3.8430   -2.7008    1.1032 C   0  0  0  0  0  0  0  0  0  0  0  0
   -4.5510   -2.0608    1.6242 H   0  0  0  0  0  0  0  0  0  0  0  0
   -4.1140   -2.7798    0.0522 H   0  0  0  0  0  0  0  0  0  0  0  0
   -2.4570   -2.1098    1.2172 C   0  0  0  0  0  0  0  0  0  0  0  0
   -1.5600   -2.7438    1.7572 O   0  0  0  0  0  0  0  0  0  0  0  0
   -2.2870   -0.8898    0.7102 N   0  0  0  0  0  0  0  0  0  0  0  0
   -3.0820   -0.4218    0.2992 H   0  0  0  0  0  0  0  0  0  0  0  0
   -1.0240   -0.1468    0.7262 C   0  0  1  0  0  0  0  0  0  0  0  0
   -0.2680   -0.7367    0.2062 H   0  0  0  0  0  0  0  0  0  0  0  0
   -1.2212    1.1806   -0.0314 C   0  0  0  0  0  0  0  0  0  0  0  0
   -2.2923    1.3574   -0.1489 H   0  0  0  0  0  0  0  0  0  0  0  0
   -0.8041    1.9973    0.5594 H   0  0  0  0  0  0  0  0  0  0  0  0
   -0.5784    1.1855   -1.4272 C   0  0  0  0  0  0  0  0  0  0  0  0
   -0.9667    2.0239   -2.0061 H   0  0  0  0  0  0  0  0  0  0  0  0
    0.5029    1.2926   -1.3241 H   0  0  0  0  0  0  0  0  0  0  0  0
   -0.8868   -0.1159   -2.1763 C   0  0  0  0  0  0  0  0  0  0  0  0
   -0.5109   -0.9654   -1.6052 H   0  0  0  0  0  0  0  0  0  0  0  0
   -1.9652   -0.2157   -2.3029 H   0  0  0  0  0  0  0  0  0  0  0  0
   -0.2166   -0.0953   -3.5487 C   0  0  0  0  0  0  0  0  0  0  0  0
   -0.6040    0.7414   -4.1277 H   0  0  0  0  0  0  0  0  0  0  0  0
    0.8587    0.0222   -3.4248 H   0  0  0  0  0  0  0  0  0  0  0  0
   -0.4723   -1.3388   -4.2847 N   0  0  0  0  0  0  0  0  0  0  0  0
   -0.0279   -1.2850   -5.1894 H   0  0  0  0  0  0  0  0  0  0  0  0
   -0.0864   -2.1156   -3.7670 H   0  0  0  0  0  0  0  0  0  0  0  0
   -0.5564    0.0727    2.1744 C   0  0  0  0  0  0  0  0  0  0  0  0
    0.6169   -0.1288    2.4805 O   0  0  0  0  0  0  0  0  0  0  0  0
   -1.4759    0.4743    3.0595 N   0  0  0  0  0  0  0  0  0  0  0  0
   -2.4132    0.6318    2.7275 H   0  0  0  0  0  0  0  0  0  0  0  0
   -1.1971    0.7118    4.4750 C   0  0  0  0  0  0  0  0  0  0  0  0
   -0.3779    1.4272    4.5748 H   0  0  0  0  0  0  0  0  0  0  0  0
   -2.0826    1.1064    4.9754 H   0  0  0  0  0  0  0  0  0  0  0  0
   -0.8992   -0.2240    4.9525 H   0  0  0  0  0  0  0  0  0  0  0  0
  5  6  2  0  0  0  0
  5  7  1  0  0  0  0
  2  3  1  0  0  0  0
  2  4  1  0  0  0  0
  2  5  1  0  0  0  0
  1  2  1  0  0  0  0
 26 27  2  0  0  0  0
 26 28  1  0  0  0  0
 23 24  1  0  0  0  0
 23 25  1  0  0  0  0
 20 21  1  0  0  0  0
 20 22  1  0  0  0  0
 20 23  1  0  0  0  0
 17 18  1  0  0  0  0
 17 19  1  0  0  0  0
 17 20  1  0  0  0  0
 14 15  1  0  0  0  0
 14 16  1  0  0  0  0
 14 17  1  0  0  0  0
 11 12  1  0  0  0  0
 11 13  1  0  0  0  0
 11 14  1  0  0  0  0
  9 10  1  0  0  0  0
  9 11  1  0  0  0  0
  9 26  1  0  0  0  0
  7  8  1  0  0  0  0
  7  9  1  0  0  0  0
 30 31  1  0  0  0  0
 30 32  1  0  0  0  0
 30 33  1  0  0  0  0
 28 29  1  0  0  0  0
 28 30  1  0  0  0  0
M  END
$$$$
default_name
  -OEChem-02102213163D

 33 32  0     1  0  0  0  0  0999 V2000
   -3.8420   -3.6918    1.5562 H   0  0  0  0  0  0  0  0  0  0  0  0
   -3.8430   -2.7008    1.1032 C   0  0  0  0  0  0  0  0  0  0  0  0
   -4.5510   -2.0608    1.6242 H   0  0  0  0  0  0  0  0  0  0  0  0
   -4.1140   -2.7798    0.0522 H   0  0  0  0  0  0  0  0  0  0  0  0
   -2.4570   -2.1098    1.2172 C   0  0  0  0  0  0  0  0  0  0  0  0
   -1.5600   -2.7438    1.7572 O   0  0  0  0  0  0  0  0  0  0  0  0
   -2.2870   -0.8898    0.7102 N   0  0  0  0  0  0  0  0  0  0  0  0
   -3.0820   -0.4218    0.2992 H   0  0  0  0  0  0  0  0  0  0  0  0
   -1.0240   -0.1468    0.7262 C   0  0  1  0  0  0  0  0  0  0  0  0
   -0.2680   -0.7367    0.2062 H   0  0  0  0  0  0  0  0  0  0  0  0
   -1.2212    1.1806   -0.0314 C   0  0  0  0  0  0  0  0  0  0  0  0
   -2.2923    1.3574   -0.1489 H   0  0  0  0  0  0  0  0  0  0  0  0
   -0.8041    1.9973    0.5594 H   0  0  0  0  0  0  0  0  0  0  0  0
   -0.5784    1.1855   -1.4272 C   0  0  0  0  0  0  0  0  0  0  0  0
   -0.7516    2.1493   -1.9066 H   0  0  0  0  0  0  0  0  0  0  0  0
    0.4965    1.0236   -1.3280 H   0  0  0  0  0  0  0  0  0  0  0  0
   -1.1750    0.0821   -2.3083 C   0  0  0  0  0  0  0  0  0  0  0  0
   -1.0164   -0.8887   -1.8377 H   0  0  0  0  0  0  0  0  0  0  0  0
   -2.2450    0.2528   -2.4301 H   0  0  0  0  0  0  0  0  0  0  0  0
   -0.5022    0.0931   -3.6796 C   0  0  0  0  0  0  0  0  0  0  0  0
   -0.6750    1.0552   -4.1593 H   0  0  0  0  0  0  0  0  0  0  0  0
    0.5690   -0.0595   -3.5585 H   0  0  0  0  0  0  0  0  0  0  0  0
   -1.0342   -0.9681   -4.5421 N   0  0  0  0  0  0  0  0  0  0  0  0
   -0.5786   -0.9225   -5.4417 H   0  0  0  0  0  0  0  0  0  0  0  0
   -0.8480   -1.8652   -4.1168 H   0  0  0  0  0  0  0  0  0  0  0  0
   -0.5564    0.0727    2.1744 C   0  0  0  0  0  0  0  0  0  0  0  0
    0.6169   -0.1288    2.4805 O   0  0  0  0  0  0  0  0  0  0  0  0
   -1.4759    0.4743    3.0595 N   0  0  0  0  0  0  0  0  0  0  0  0
   -2.4132    0.6318    2.7275 H   0  0  0  0  0  0  0  0  0  0  0  0
   -1.1971    0.7118    4.4750 C   0  0  0  0  0  0  0  0  0  0  0  0
   -0.3779    1.4272    4.5748 H   0  0  0  0  0  0  0  0  0  0  0  0
   -2.0826    1.1064    4.9754 H   0  0  0  0  0  0  0  0  0  0  0  0
   -0.8992   -0.2240    4.9525 H   0  0  0  0  0  0  0  0  0  0  0  0
  5  6  2  0  0  0  0
  5  7  1  0  0  0  0
  2  3  1  0  0  0  0
  2  4  1  0  0  0  0
  2  5  1  0  0  0  0
  1  2  1  0  0  0  0
 26 27  2  0  0  0  0
 26 28  1  0  0  0  0
 23 24  1  0  0  0  0
 23 25  1  0  0  0  0
 20 21  1  0  0  0  0
 20 22  1  0  0  0  0
 20 23  1  0  0  0  0
 17 18  1  0  0  0  0
 17 19  1  0  0  0  0
 17 20  1  0  0  0  0
 14 15  1  0  0  0  0
 14 16  1  0  0  0  0
 14 17  1  0  0  0  0
 11 12  1  0  0  0  0
 11 13  1  0  0  0  0
 11 14  1  0  0  0  0
  9 10  1  0  0  0  0
  9 11  1  0  0  0  0
  9 26  1  0  0  0  0
  7  8  1  0  0  0  0
  7  9  1  0  0  0  0
 30 31  1  0  0  0  0
 30 32  1  0  0  0  0
 30 33  1  0  0  0  0
 28 29  1  0  0  0  0
 28 30  1  0  0  0  0
M  END
$$$$
default_name
  -OEChem-02102213163D

 33 32  0     1  0  0  0  0  0999 V2000
   -3.8420   -3.6918    1.5562 H   0  0  0  0  0  0  0  0  0  0  0  0
   -3.8430   -2.7008    1.1032 C   0  0  0  0  0  0  0  0  0  0  0  0
   -4.5510   -2.0608    1.6242 H   0  0  0  0  0  0  0  0  0  0  0  0
   -4.1140   -2.7798    0.0522 H   0  0  0  0  0  0  0  0  0  0  0  0
   -2.4570   -2.1098    1.2172 C   0  0  0  0  0  0  0  0  0  0  0  0
   -1.5600   -2.7438    1.7572 O   0  0  0  0  0  0  0  0  0  0  0  0
   -2.2870   -0.8898    0.7102 N   0  0  0  0  0  0  0  0  0  0  0  0
   -3.0820   -0.4218    0.2992 H   0  0  0  0  0  0  0  0  0  0  0  0
   -1.0240   -0.1468    0.7262 C   0  0  1  0  0  0  0  0  0  0  0  0
   -0.2680   -0.7367    0.2062 H   0  0  0  0  0  0  0  0  0  0  0  0
   -1.2212    1.1806   -0.0314 C   0  0  0  0  0  0  0  0  0  0  0  0
   -2.2923    1.3574   -0.1489 H   0  0  0  0  0  0  0  0  0  0  0  0
   -0.8041    1.9973    0.5594 H   0  0  0  0  0  0  0  0  0  0  0  0
   -0.5784    1.1855   -1.4272 C   0  0  0  0  0  0  0  0  0  0  0  0
   -0.5143    2.2091   -1.7971 H   0  0  0  0  0  0  0  0  0  0  0  0
    0.4270    0.7658   -1.3609 H   0  0  0  0  0  0  0  0  0  0  0  0
   -1.4070    0.3554   -2.4142 C   0  0  0  0  0  0  0  0  0  0  0  0
   -1.4868   -0.6706   -2.0536 H   0  0  0  0  0  0  0  0  0  0  0  0
   -2.4053    0.7850   -2.5021 H   0  0  0  0  0  0  0  0  0  0  0  0
   -0.7338    0.3565   -3.7853 C   0  0  0  0  0  0  0  0  0  0  0  0
   -0.6698    1.3783   -4.1558 H   0  0  0  0  0  0  0  0  0  0  0  0
    0.2699   -0.0559   -3.6962 H   0  0  0  0  0  0  0  0  0  0  0  0
   -1.4900   -0.4501   -4.7502 N   0  0  0  0  0  0  0  0  0  0  0  0
   -1.0255   -0.4157   -5.6458 H   0  0  0  0  0  0  0  0  0  0  0  0
   -1.5252   -1.4065   -4.4271 H   0  0  0  0  0  0  0  0  0  0  0  0
   -0.5564    0.0727    2.1744 C   0  0  0  0  0  0  0  0  0  0  0  0
    0.6169   -0.1288    2.4805 O   0  0  0  0  0  0  0  0  0  0  0  0
   -1.4759    0.4743    3.0595 N   0  0  0  0  0  0  0  0  0  0  0  0
   -2.4132    0.6318    2.7275 H   0  0  0  0  0  0  0  0  0  0  0  0
   -1.1971    0.7118    4.4750 C   0  0  0  0  0  0  0  0  0  0  0  0
   -0.3779    1.4272    4.5748 H   0  0  0  0  0  0  0  0  0  0  0  0
   -2.0826    1.1064    4.9754 H   0  0  0  0  0  0  0  0  0  0  0  0
   -0.8992   -0.2240    4.9525 H   0  0  0  0  0  0  0  0  0  0  0  0
  5  6  2  0  0  0  0
  5  7  1  0  0  0  0
  2  3  1  0  0  0  0
  2  4  1  0  0  0  0
  2  5  1  0  0  0  0
  1  2  1  0  0  0  0
 26 27  2  0  0  0  0
 26 28  1  0  0  0  0
 23 24  1  0  0  0  0
 23 25  1  0  0  0  0
 20 21  1  0  0  0  0
 20 22  1  0  0  0  0
 20 23  1  0  0  0  0
 17 18  1  0  0  0  0
 17 19  1  0  0  0  0
 17 20  1  0  0  0  0
 14 15  1  0  0  0  0
 14 16  1  0  0  0  0
 14 17  1  0  0  0  0
 11 12  1  0  0  0  0
 11 13  1  0  0  0  0
 11 14  1  0  0  0  0
  9 10  1  0  0  0  0
  9 11  1  0  0  0  0
  9 26  1  0  0  0  0
  7  8  1  0  0  0  0
  7  9  1  0  0  0  0
 30 31  1  0  0  0  0
 30 32  1  0  0  0  0
 30 33  1  0  0  0  0
 28 29  1  0  0  0  0
 28 30  1  0  0  0  0
M  END
$$$$
default_name
  -OEChem-02102213163D

 33 32  0     1  0  0  0  0  0999 V2000
   -3.8420   -3.6918    1.5562 H   0  0  0  0  0  0  0  0  0  0  0  0
   -3.8430   -2.7008    1.1032 C   0  0  0  0  0  0  0  0  0  0  0  0
   -4.5510   -2.0608    1.6242 H   0  0  0  0  0  0  0  0  0  0  0  0
   -4.1140   -2.7798    0.0522 H   0  0  0  0  0  0  0  0  0  0  0  0
   -2.4570   -2.1098    1.2172 C   0  0  0  0  0  0  0  0  0  0  0  0
   -1.5600   -2.7438    1.7572 O   0  0  0  0  0  0  0  0  0  0  0  0
   -2.2870   -0.8898    0.7102 N   0  0  0  0  0  0  0  0  0  0  0  0
   -3.0820   -0.4218    0.2992 H   0  0  0  0  0  0  0  0  0  0  0  0
   -1.0240   -0.1468    0.7262 C   0  0  1  0  0  0  0  0  0  0  0  0
   -0.2680   -0.7367    0.2062 H   0  0  0  0  0  0  0  0  0  0  0  0
   -1.2212    1.1806   -0.0314 C   0  0  0  0  0  0  0  0  0  0  0  0
   -2.2923    1.3574   -0.1489 H   0  0  0  0  0  0  0  0  0  0  0  0
   -0.8041    1.9973    0.5594 H   0  0  0  0  0  0  0  0  0  0  0  0
   -0.5784    1.1855   -1.4272 C   0  0  0  0  0  0  0  0  0  0  0  0
   -0.2709    2.1993   -1.6851 H   0  0  0  0  0  0  0  0  0  0  0  0
    0.2992    0.5365   -1.4205 H   0  0  0  0  0  0  0  0  0  0  0  0
   -1.5669    0.6854   -2.4867 C   0  0  0  0  0  0  0  0  0  0  0  0
   -1.8901   -0.3259   -2.2381 H   0  0  0  0  0  0  0  0  0  0  0  0
   -2.4351    1.3445   -2.5139 H   0  0  0  0  0  0  0  0  0  0  0  0
   -0.8958    0.6768   -3.8588 C   0  0  0  0  0  0  0  0  0  0  0  0
   -0.5887    1.6889   -4.1174 H   0  0  0  0  0  0  0  0  0  0  0  0
   -0.0183    0.0329   -3.8286 H   0  0  0  0  0  0  0  0  0  0  0  0
   -1.8086    0.1799   -4.8947 N   0  0  0  0  0  0  0  0  0  0  0  0
   -1.3383    0.2011   -5.7877 H   0  0  0  0  0  0  0  0  0  0  0  0
   -2.0716   -0.7706   -4.6765 H   0  0  0  0  0  0  0  0  0  0  0  0
   -0.5564    0.0727    2.1744 C   0  0  0  0  0  0  0  0  0  0  0  0
    0.6169   -0.1288    2.4805 O   0  0  0  0  0  0  0  0  0  0  0  0
   -1.4759    0.4743    3.0595 N   0  0  0  0  0  0  0  0  0  0  0  0
   -2.4132    0.6318    2.7275 H   0  0  0  0  0  0  0  0  0  0  0  0
   -1.1971    0.7118    4.4750 C   0  0  0  0  0  0  0  0  0  0  0  0
   -0.3779    1.4272    4.5748 H   0  0  0  0  0  0  0  0  0  0  0  0
   -2.0826    1.1064    4.9754 H   0  0  0  0  0  0  0  0  0  0  0  0
   -0.8992   -0.2240    4.9525 H   0  0  0  0  0  0  0  0  0  0  0  0
  5  6  2  0  0  0  0
  5  7  1  0  0  0  0
  2  3  1  0  0  0  0
  2  4  1  0  0  0  0
  2  5  1  0  0  0  0
  1  2  1  0  0  0  0
 26 27  2  0  0  0  0
 26 28  1  0  0  0  0
 23 24  1  0  0  0  0
 23 25  1  0  0  0  0
 20 21  1  0  0  0  0
 20 22  1  0  0  0  0
 20 23  1  0  0  0  0
 17 18  1  0  0  0  0
 17 19  1  0  0  0  0
 17 20  1  0  0  0  0
 14 15  1  0  0  0  0
 14 16  1  0  0  0  0
 14 17  1  0  0  0  0
 11 12  1  0  0  0  0
 11 13  1  0  0  0  0
 11 14  1  0  0  0  0
  9 10  1  0  0  0  0
  9 11  1  0  0  0  0
  9 26  1  0  0  0  0
  7  8  1  0  0  0  0
  7  9  1  0  0  0  0
 30 31  1  0  0  0  0
 30 32  1  0  0  0  0
 30 33  1  0  0  0  0
 28 29  1  0  0  0  0
 28 30  1  0  0  0  0
M  END
$$$$
default_name
  -OEChem-02102213163D

 33 32  0     1  0  0  0  0  0999 V2000
   -3.8420   -3.6918    1.5562 H   0  0  0  0  0  0  0  0  0  0  0  0
   -3.8430   -2.7008    1.1032 C   0  0  0  0  0  0  0  0  0  0  0  0
   -4.5510   -2.0608    1.6242 H   0  0  0  0  0  0  0  0  0  0  0  0
   -4.1140   -2.7798    0.0522 H   0  0  0  0  0  0  0  0  0  0  0  0
   -2.4570   -2.1098    1.2172 C   0  0  0  0  0  0  0  0  0  0  0  0
   -1.5600   -2.7438    1.7572 O   0  0  0  0  0  0  0  0  0  0  0  0
   -2.2870   -0.8898    0.7102 N   0  0  0  0  0  0  0  0  0  0  0  0
   -3.0820   -0.4218    0.2992 H   0  0  0  0  0  0  0  0  0  0  0  0
   -1.0240   -0.1468    0.7262 C   0  0  1  0  0  0  0  0  0  0  0  0
   -0.2680   -0.7367    0.2062 H   0  0  0  0  0  0  0  0  0  0  0  0
   -1.2212    1.1806   -0.0314 C   0  0  0  0  0  0  0  0  0  0  0  0
   -2.2923    1.3574   -0.1489 H   0  0  0  0  0  0  0  0  0  0  0  0
   -0.8041    1.9973    0.5594 H   0  0  0  0  0  0  0  0  0  0  0  0
   -0.5784    1.1855   -1.4272 C   0  0  0  0  0  0  0  0  0  0  0  0
   -0.0381    2.1204   -1.5781 H   0  0  0  0  0  0  0  0  0  0  0  0
    0.1219    0.3516   -1.5028 H   0  0  0  0  0  0  0  0  0  0  0  0
   -1.6439    1.0496   -2.5209 C   0  0  0  0  0  0  0  0  0  0  0  0
   -2.1988    0.1217   -2.3787 H   0  0  0  0  0  0  0  0  0  0  0  0
   -2.3323    1.8933   -2.4646 H   0  0  0  0  0  0  0  0  0  0  0  0
   -0.9770    1.0322   -3.8950 C   0  0  0  0  0  0  0  0  0  0  0  0
   -0.4374    1.9656   -4.0468 H   0  0  0  0  0  0  0  0  0  0  0  0
   -0.2759    0.2007   -3.9467 H   0  0  0  0  0  0  0  0  0  0  0  0
   -1.9684    0.8791   -4.9659 N   0  0  0  0  0  0  0  0  0  0  0  0
   -1.4955    0.8857   -5.8577 H   0  0  0  0  0  0  0  0  0  0  0  0
   -2.4501   -0.0009   -4.8481 H   0  0  0  0  0  0  0  0  0  0  0  0
   -0.5564    0.0727    2.1744 C   0  0  0  0  0  0  0  0  0  0  0  0
    0.6169   -0.1288    2.4805 O   0  0  0  0  0  0  0  0  0  0  0  0
   -1.4759    0.4743    3.0595 N   0  0  0  0  0  0  0  0  0  0  0  0
   -2.4132    0.6318    2.7275 H   0  0  0  0  0  0  0  0  0  0  0  0
   -1.1971    0.7118    4.4750 C   0  0  0  0  0  0  0  0  0  0  0  0
   -0.3779    1.4272    4.5748 H   0  0  0  0  0  0  0  0  0  0  0  0
   -2.0826    1.1064    4.9754 H   0  0  0  0  0  0  0  0  0  0  0  0
   -0.8992   -0.2240    4.9525 H   0  0  0  0  0  0  0  0  0  0  0  0
  5  6  2  0  0  0  0
  5  7  1  0  0  0  0
  2  3  1  0  0  0  0
  2  4  1  0  0  0  0
  2  5  1  0  0  0  0
  1  2  1  0  0  0  0
 26 27  2  0  0  0  0
 26 28  1  0  0  0  0
 23 24  1  0  0  0  0
 23 25  1  0  0  0  0
 20 21  1  0  0  0  0
 20 22  1  0  0  0  0
 20 23  1  0  0  0  0
 17 18  1  0  0  0  0
 17 19  1  0  0  0  0
 17 20  1  0  0  0  0
 14 15  1  0  0  0  0
 14 16  1  0  0  0  0
 14 17  1  0  0  0  0
 11 12  1  0  0  0  0
 11 13  1  0  0  0  0
 11 14  1  0  0  0  0
  9 10  1  0  0  0  0
  9 11  1  0  0  0  0
  9 26  1  0  0  0  0
  7  8  1  0  0  0  0
  7  9  1  0  0  0  0
 30 31  1  0  0  0  0
 30 32  1  0  0  0  0
 30 33  1  0  0  0  0
 28 29  1  0  0  0  0
 28 30  1  0  0  0  0
M  END
$$$$
default_name
  -OEChem-02102213163D

 33 32  0     1  0  0  0  0  0999 V2000
   -3.8420   -3.6918    1.5562 H   0  0  0  0  0  0  0  0  0  0  0  0
   -3.8430   -2.7008    1.1032 C   0  0  0  0  0  0  0  0  0  0  0  0
   -4.5510   -2.0608    1.6242 H   0  0  0  0  0  0  0  0  0  0  0  0
   -4.1140   -2.7798    0.0522 H   0  0  0  0  0  0  0  0  0  0  0  0
   -2.4570   -2.1098    1.2172 C   0  0  0  0  0  0  0  0  0  0  0  0
   -1.5600   -2.7438    1.7572 O   0  0  0  0  0  0  0  0  0  0  0  0
   -2.2870   -0.8898    0.7102 N   0  0  0  0  0  0  0  0  0  0  0  0
   -3.0820   -0.4218    0.2992 H   0  0  0  0  0  0  0  0  0  0  0  0
   -1.0240   -0.1468    0.7262 C   0  0  1  0  0  0  0  0  0  0  0  0
   -0.2680   -0.7367    0.2062 H   0  0  0  0  0  0  0  0  0  0  0  0
   -1.2212    1.1806   -0.0314 C   0  0  0  0  0  0  0  0  0  0  0  0
   -2.2923    1.3574   -0.1489 H   0  0  0  0  0  0  0  0  0  0  0  0
   -0.8041    1.9973    0.5594 H   0  0  0  0  0  0  0  0  0  0  0  0
   -0.5784    1.1855   -1.4272 C   0  0  0  0  0  0  0  0  0  0  0  0
    0.1684    1.9779   -1.4835 H   0  0  0  0  0  0  0  0  0  0  0  0
   -0.0929    0.2236   -1.6022 H   0  0  0  0  0  0  0  0  0  0  0  0
   -1.6326    1.4231   -2.5144 C   0  0  0  0  0  0  0  0  0  0  0  0
   -2.3918    0.6419   -2.4658 H   0  0  0  0  0  0  0  0  0  0  0  0
   -2.1040    2.3938   -2.3578 H   0  0  0  0  0  0  0  0  0  0  0  0
   -0.9719    1.3984   -3.8913 C   0  0  0  0  0  0  0  0  0  0  0  0
   -0.2262    2.1898   -3.9487 H   0  0  0  0  0  0  0  0  0  0  0  0
   -0.4854    0.4362   -4.0423 H   0  0  0  0  0  0  0  0  0  0  0  0
   -1.9584    1.5997   -4.9588 N   0  0  0  0  0  0  0  0  0  0  0  0
   -1.4865    1.5915   -5.8511 H   0  0  0  0  0  0  0  0  0  0  0  0
   -2.6350    0.8501   -4.9303 H   0  0  0  0  0  0  0  0  0  0  0  0
   -0.5564    0.0727    2.1744 C   0  0  0  0  0  0  0  0  0  0  0  0
    0.6169   -0.1288    2.4805 O   0  0  0  0  0  0  0  0  0  0  0  0
   -1.4759    0.4743    3.0595 N   0  0  0  0  0  0  0  0  0  0  0  0
   -2.4132    0.6318    2.7275 H   0  0  0  0  0  0  0  0  0  0  0  0
   -1.1971    0.7118    4.4750 C   0  0  0  0  0  0  0  0  0  0  0  0
   -0.3779    1.4272    4.5748 H   0  0  0  0  0  0  0  0  0  0  0  0
   -2.0826    1.1064    4.9754 H   0  0  0  0  0  0  0  0  0  0  0  0
   -0.8992   -0.2240    4.9525 H   0  0  0  0  0  0  0  0  0  0  0  0
  5  6  2  0  0  0  0
  5  7  1  0  0  0  0
  2  3  1  0  0  0  0
  2  4  1  0  0  0  0
  2  5  1  0  0  0  0
  1  2  1  0  0  0  0
 26 27  2  0  0  0  0
 26 28  1  0  0  0  0
 23 24  1  0  0  0  0
 23 25  1  0  0  0  0
 20 21  1  0  0  0  0
 20 22  1  0  0  0  0
 20 23  1  0  0  0  0
 17 18  1  0  0  0  0
 17 19  1  0  0  0  0
 17 20  1  0  0  0  0
 14 15  1  0  0  0  0
 14 16  1  0  0  0  0
 14 17  1  0  0  0  0
 11 12  1  0  0  0  0
 11 13  1  0  0  0  0
 11 14  1  0  0  0  0
  9 10  1  0  0  0  0
  9 11  1  0  0  0  0
  9 26  1  0  0  0  0
  7  8  1  0  0  0  0
  7  9  1  0  0  0  0
 30 31  1  0  0  0  0
 30 32  1  0  0  0  0
 30 33  1  0  0  0  0
 28 29  1  0  0  0  0
 28 30  1  0  0  0  0
M  END
$$$$
default_name
  -OEChem-02102213163D

 33 32  0     1  0  0  0  0  0999 V2000
   -3.8420   -3.6918    1.5562 H   0  0  0  0  0  0  0  0  0  0  0  0
   -3.8430   -2.7008    1.1032 C   0  0  0  0  0  0  0  0  0  0  0  0
   -4.5510   -2.0608    1.6242 H   0  0  0  0  0  0  0  0  0  0  0  0
   -4.1140   -2.7798    0.0522 H   0  0  0  0  0  0  0  0  0  0  0  0
   -2.4570   -2.1098    1.2172 C   0  0  0  0  0  0  0  0  0  0  0  0
   -1.5600   -2.7438    1.7572 O   0  0  0  0  0  0  0  0  0  0  0  0
   -2.2870   -0.8898    0.7102 N   0  0  0  0  0  0  0  0  0  0  0  0
   -3.0820   -0.4218    0.2992 H   0  0  0  0  0  0  0  0  0  0  0  0
   -1.0240   -0.1468    0.7262 C   0  0  1  0  0  0  0  0  0  0  0  0
   -0.2680   -0.7367    0.2062 H   0  0  0  0  0  0  0  0  0  0  0  0
   -1.2212    1.1806   -0.0314 C   0  0  0  0  0  0  0  0  0  0  0  0
   -2.2923    1.3574   -0.1489 H   0  0  0  0  0  0  0  0  0  0  0  0
   -0.8041    1.9973    0.5594 H   0  0  0  0  0  0  0  0  0  0  0  0
   -0.5784    1.1855   -1.4272 C   0  0  0  0  0  0  0  0  0  0  0  0
    0.3344    1.7814   -1.4078 H   0  0  0  0  0  0  0  0  0  0  0  0
   -0.3306    0.1612   -1.7118 H   0  0  0  0  0  0  0  0  0  0  0  0
   -1.5339    1.7806   -2.4677 C   0  0  0  0  0  0  0  0  0  0  0  0
   -2.4560    1.1992   -2.4934 H   0  0  0  0  0  0  0  0  0  0  0  0
   -1.7657    2.8120   -2.2005 H   0  0  0  0  0  0  0  0  0  0  0  0
   -0.8808    1.7507   -3.8482 C   0  0  0  0  0  0  0  0  0  0  0  0
    0.0306    2.3460   -3.8299 H   0  0  0  0  0  0  0  0  0  0  0  0
   -0.6325    0.7232   -4.1090 H   0  0  0  0  0  0  0  0  0  0  0  0
   -1.7794    2.2926   -4.8740 N   0  0  0  0  0  0  0  0  0  0  0  0
   -1.3118    2.2704   -5.7683 H   0  0  0  0  0  0  0  0  0  0  0  0
   -2.6135    1.7245   -4.9174 H   0  0  0  0  0  0  0  0  0  0  0  0
   -0.5564    0.0727    2.1744 C   0  0  0  0  0  0  0  0  0  0  0  0
    0.6169   -0.1288    2.4805 O   0  0  0  0  0  0  0  0  0  0  0  0
   -1.4759    0.4743    3.0595 N   0  0  0  0  0  0  0  0  0  0  0  0
   -2.4132    0.6318    2.7275 H   0  0  0  0  0  0  0  0  0  0  0  0
   -1.1971    0.7118    4.4750 C   0  0  0  0  0  0  0  0  0  0  0  0
   -0.3779    1.4272    4.5748 H   0  0  0  0  0  0  0  0  0  0  0  0
   -2.0826    1.1064    4.9754 H   0  0  0  0  0  0  0  0  0  0  0  0
   -0.8992   -0.2240    4.9525 H   0  0  0  0  0  0  0  0  0  0  0  0
  5  6  2  0  0  0  0
  5  7  1  0  0  0  0
  2  3  1  0  0  0  0
  2  4  1  0  0  0  0
  2  5  1  0  0  0  0
  1  2  1  0  0  0  0
 26 27  2  0  0  0  0
 26 28  1  0  0  0  0
 23 24  1  0  0  0  0
 23 25  1  0  0  0  0
 20 21  1  0  0  0  0
 20 22  1  0  0  0  0
 20 23  1  0  0  0  0
 17 18  1  0  0  0  0
 17 19  1  0  0  0  0
 17 20  1  0  0  0  0
 14 15  1  0  0  0  0
 14 16  1  0  0  0  0
 14 17  1  0  0  0  0
 11 12  1  0  0  0  0
 11 13  1  0  0  0  0
 11 14  1  0  0  0  0
  9 10  1  0  0  0  0
  9 11  1  0  0  0  0
  9 26  1  0  0  0  0
  7  8  1  0  0  0  0
  7  9  1  0  0  0  0
 30 31  1  0  0  0  0
 30 32  1  0  0  0  0
 30 33  1  0  0  0  0
 28 29  1  0  0  0  0
 28 30  1  0  0  0  0
M  END
$$$$
default_name
  -OEChem-02102213163D

 33 32  0     1  0  0  0  0  0999 V2000
   -3.8420   -3.6918    1.5562 H   0  0  0  0  0  0  0  0  0  0  0  0
   -3.8430   -2.7008    1.1032 C   0  0  0  0  0  0  0  0  0  0  0  0
   -4.5510   -2.0608    1.6242 H   0  0  0  0  0  0  0  0  0  0  0  0
   -4.1140   -2.7798    0.0522 H   0  0  0  0  0  0  0  0  0  0  0  0
   -2.4570   -2.1098    1.2172 C   0  0  0  0  0  0  0  0  0  0  0  0
   -1.5600   -2.7438    1.7572 O   0  0  0  0  0  0  0  0  0  0  0  0
   -2.2870   -0.8898    0.7102 N   0  0  0  0  0  0  0  0  0  0  0  0
   -3.0820   -0.4218    0.2992 H   0  0  0  0  0  0  0  0  0  0  0  0
   -1.0240   -0.1468    0.7262 C   0  0  1  0  0  0  0  0  0  0  0  0
   -0.2680   -0.7367    0.2062 H   0  0  0  0  0  0  0  0  0  0  0  0
   -1.2212    1.1806   -0.0314 C   0  0  0  0  0  0  0  0  0  0  0  0
   -2.2923    1.3574   -0.1489 H   0  0  0  0  0  0  0  0  0  0  0  0
   -0.8041    1.9973    0.5594 H   0  0  0  0  0  0  0  0  0  0  0  0
   -0.5784    1.1855   -1.4272 C   0  0  0  0  0  0  0  0  0  0  0  0
    0.4487    1.5445   -1.3560 H   0  0  0  0  0  0  0  0  0  0  0  0
   -0.5750    0.1687   -1.8243 H   0  0  0  0  0  0  0  0  0  0  0  0
   -1.3545    2.0976   -2.3840 C   0  0  0  0  0  0  0  0  0  0  0  0
   -2.3871    1.7556   -2.4597 H   0  0  0  0  0  0  0  0  0  0  0  0
   -1.3405    3.1194   -2.0037 H   0  0  0  0  0  0  0  0  0  0  0  0
   -0.7101    2.0648   -3.7685 C   0  0  0  0  0  0  0  0  0  0  0  0
    0.3155    2.4236   -3.6984 H   0  0  0  0  0  0  0  0  0  0  0  0
   -0.7071    1.0422   -4.1423 H   0  0  0  0  0  0  0  0  0  0  0  0
   -1.4435    2.9106   -4.7172 N   0  0  0  0  0  0  0  0  0  0  0  0
   -0.9834    2.8762   -5.6150 H   0  0  0  0  0  0  0  0  0  0  0  0
   -2.3872    2.5627   -4.8103 H   0  0  0  0  0  0  0  0  0  0  0  0
   -0.5564    0.0727    2.1744 C   0  0  0  0  0  0  0  0  0  0  0  0
    0.6169   -0.1288    2.4805 O   0  0  0  0  0  0  0  0  0  0  0  0
   -1.4759    0.4743    3.0595 N   0  0  0  0  0  0  0  0  0  0  0  0
   -2.4132    0.6318    2.7275 H   0  0  0  0  0  0  0  0  0  0  0  0
   -1.1971    0.7118    4.4750 C   0  0  0  0  0  0  0  0  0  0  0  0
   -0.3779    1.4272    4.5748 H   0  0  0  0  0  0  0  0  0  0  0  0
   -2.0826    1.1064    4.9754 H   0  0  0  0  0  0  0  0  0  0  0  0
   -0.8992   -0.2240    4.9525 H   0  0  0  0  0  0  0  0  0  0  0  0
  5  6  2  0  0  0  0
  5  7  1  0  0  0  0
  2  3  1  0  0  0  0
  2  4  1  0  0  0  0
  2  5  1  0  0  0  0
  1  2  1  0  0  0  0
 26 27  2  0  0  0  0
 26 28  1  0  0  0  0
 23 24  1  0  0  0  0
 23 25  1  0  0  0  0
 20 21  1  0  0  0  0
 20 22  1  0  0  0  0
 20 23  1  0  0  0  0
 17 18  1  0  0  0  0
 17 19  1  0  0  0  0
 17 20  1  0  0  0  0
 14 15  1  0  0  0  0
 14 16  1  0  0  0  0
 14 17  1  0  0  0  0
 11 12  1  0  0  0  0
 11 13  1  0  0  0  0
 11 14  1  0  0  0  0
  9 10  1  0  0  0  0
  9 11  1  0  0  0  0
  9 26  1  0  0  0  0
  7  8  1  0  0  0  0
  7  9  1  0  0  0  0
 30 31  1  0  0  0  0
 30 32  1  0  0  0  0
 30 33  1  0  0  0  0
 28 29  1  0  0  0  0
 28 30  1  0  0  0  0
M  END
$$$$
default_name
  -OEChem-02102213163D

 33 32  0     1  0  0  0  0  0999 V2000
   -3.8420   -3.6918    1.5562 H   0  0  0  0  0  0  0  0  0  0  0  0
   -3.8430   -2.7008    1.1032 C   0  0  0  0  0  0  0  0  0  0  0  0
   -4.5510   -2.0608    1.6242 H   0  0  0  0  0  0  0  0  0  0  0  0
   -4.1140   -2.7798    0.0522 H   0  0  0  0  0  0  0  0  0  0  0  0
   -2.4570   -2.1098    1.2172 C   0  0  0  0  0  0  0  0  0  0  0  0
   -1.5600   -2.7438    1.7572 O   0  0  0  0  0  0  0  0  0  0  0  0
   -2.2870   -0.8898    0.7102 N   0  0  0  0  0  0  0  0  0  0  0  0
   -3.0820   -0.4218    0.2992 H   0  0  0  0  0  0  0  0  0  0  0  0
   -1.0240   -0.1468    0.7262 C   0  0  1  0  0  0  0  0  0  0  0  0
   -0.2680   -0.7367    0.2062 H   0  0  0  0  0  0  0  0  0  0  0  0
   -1.2212    1.1806   -0.0314 C   0  0  0  0  0  0  0  0  0  0  0  0
   -2.2923    1.3574   -0.1489 H   0  0  0  0  0  0  0  0  0  0  0  0
   -0.8041    1.9973    0.5594 H   0  0  0  0  0  0  0  0  0  0  0  0
   -0.5784    1.1855   -1.4272 C   0  0  0  0  0  0  0  0  0  0  0  0
    0.5033    1.2831   -1.3317 H   0  0  0  0  0  0  0  0  0  0  0  0
   -0.8093    0.2456   -1.9320 H   0  0  0  0  0  0  0  0  0  0  0  0
   -1.1066    2.3526   -2.2690 C   0  0  0  0  0  0  0  0  0  0  0  0
   -2.1897    2.2731   -2.3670 H   0  0  0  0  0  0  0  0  0  0  0  0
   -0.8573    3.2951   -1.7806 H   0  0  0  0  0  0  0  0  0  0  0  0
   -0.4712    2.3195   -3.6576 C   0  0  0  0  0  0  0  0  0  0  0  0
    0.6091    2.4174   -3.5633 H   0  0  0  0  0  0  0  0  0  0  0  0
   -0.7043    1.3716   -4.1398 H   0  0  0  0  0  0  0  0  0  0  0  0
   -0.9736    3.4116   -4.4991 N   0  0  0  0  0  0  0  0  0  0  0  0
   -0.5237    3.3675   -5.4016 H   0  0  0  0  0  0  0  0  0  0  0  0
   -1.9715    3.3074   -4.6163 H   0  0  0  0  0  0  0  0  0  0  0  0
   -0.5564    0.0727    2.1744 C   0  0  0  0  0  0  0  0  0  0  0  0
    0.6169   -0.1288    2.4805 O   0  0  0  0  0  0  0  0  0  0  0  0
   -1.4759    0.4743    3.0595 N   0  0  0  0  0  0  0  0  0  0  0  0
   -2.4132    0.6318    2.7275 H   0  0  0  0  0  0  0  0  0  0  0  0
   -1.1971    0.7118    4.4750 C   0  0  0  0  0  0  0  0  0  0  0  0
   -0.3779    1.4272    4.5748 H   0  0  0  0  0  0  0  0  0  0  0  0
   -2.0826    1.1064    4.9754 H   0  0  0  0  0  0  0  0  0  0  0  0
   -0.8992   -0.2240    4.9525 H   0  0  0  0  0  0  0  0  0  0  0  0
  5  6  2  0  0  0  0
  5  7  1  0  0  0  0
  2  3  1  0  0  0  0
  2  4  1  0  0  0  0
  2  5  1  0  0  0  0
  1  2  1  0  0  0  0
 26 27  2  0  0  0  0
 26 28  1  0  0  0  0
 23 24  1  0  0  0  0
 23 25  1  0  0  0  0
 20 21  1  0  0  0  0
 20 22  1  0  0  0  0
 20 23  1  0  0  0  0
 17 18  1  0  0  0  0
 17 19  1  0  0  0  0
 17 20  1  0  0  0  0
 14 15  1  0  0  0  0
 14 16  1  0  0  0  0
 14 17  1  0  0  0  0
 11 12  1  0  0  0  0
 11 13  1  0  0  0  0
 11 14  1  0  0  0  0
  9 10  1  0  0  0  0
  9 11  1  0  0  0  0
  9 26  1  0  0  0  0
  7  8  1  0  0  0  0
  7  9  1  0  0  0  0
 30 31  1  0  0  0  0
 30 32  1  0  0  0  0
 30 33  1  0  0  0  0
 28 29  1  0  0  0  0
 28 30  1  0  0  0  0
M  END
$$$$
default_name
  -OEChem-02102213163D

 33 32  0     1  0  0  0  0  0999 V2000
   -3.8420   -3.6918    1.5562 H   0  0  0  0  0  0  0  0  0  0  0  0
   -3.8430   -2.7008    1.1032 C   0  0  0  0  0  0  0  0  0  0  0  0
   -4.5510   -2.0608    1.6242 H   0  0  0  0  0  0  0  0  0  0  0  0
   -4.1140   -2.7798    0.0522 H   0  0  0  0  0  0  0  0  0  0  0  0
   -2.4570   -2.1098    1.2172 C   0  0  0  0  0  0  0  0  0  0  0  0
   -1.5600   -2.7438    1.7572 O   0  0  0  0  0  0  0  0  0  0  0  0
   -2.2870   -0.8898    0.7102 N   0  0  0  0  0  0  0  0  0  0  0  0
   -3.0820   -0.4218    0.2992 H   0  0  0  0  0  0  0  0  0  0  0  0
   -1.0240   -0.1468    0.7262 C   0  0  1  0  0  0  0  0  0  0  0  0
   -0.2680   -0.7367    0.2062 H   0  0  0  0  0  0  0  0  0  0  0  0
   -1.2212    1.1806   -0.0314 C   0  0  0  0  0  0  0  0  0  0  0  0
   -2.2610    1.4940    0.0822 H   0  0  0  0  0  0  0  0  0  0  0  0
   -0.5842    1.9466    0.4132 H   0  0  0  0  0  0  0  0  0  0  0  0
   -0.9135    1.0751   -1.5333 C   0  0  0  0  0  0  0  0  0  0  0  0
    0.1230    0.7674   -1.6739 H   0  0  0  0  0  0  0  0  0  0  0  0
   -1.5718    0.3296   -1.9830 H   0  0  0  0  0  0  0  0  0  0  0  0
   -1.1270    2.4229   -2.2317 C   0  0  0  0  0  0  0  0  0  0  0  0
   -2.1585    2.7481   -2.0932 H   0  0  0  0  0  0  0  0  0  0  0  0
   -0.4543    3.1656   -1.8019 H   0  0  0  0  0  0  0  0  0  0  0  0
   -0.8387    2.2841   -3.7253 C   0  0  0  0  0  0  0  0  0  0  0  0
    0.1964    1.9773   -3.8667 H   0  0  0  0  0  0  0  0  0  0  0  0
   -1.4975    1.5300   -4.1526 H   0  0  0  0  0  0  0  0  0  0  0  0
   -1.0566    3.5529   -4.4295 N   0  0  0  0  0  0  0  0  0  0  0  0
   -0.8440    3.4285   -5.4085 H   0  0  0  0  0  0  0  0  0  0  0  0
   -2.0238    3.8262   -4.3284 H   0  0  0  0  0  0  0  0  0  0  0  0
   -0.5564    0.0727    2.1744 C   0  0  0  0  0  0  0  0  0  0  0  0
    0.6169   -0.1288    2.4805 O   0  0  0  0  0  0  0  0  0  0  0  0
   -1.4759    0.4743    3.0595 N   0  0  0  0  0  0  0  0  0  0  0  0
   -2.4132    0.6318    2.7275 H   0  0  0  0  0  0  0  0  0  0  0  0
   -1.1971    0.7118    4.4750 C   0  0  0  0  0  0  0  0  0  0  0  0
   -0.3779    1.4272    4.5748 H   0  0  0  0  0  0  0  0  0  0  0  0
   -2.0826    1.1064    4.9754 H   0  0  0  0  0  0  0  0  0  0  0  0
   -0.8992   -0.2240    4.9525 H   0  0  0  0  0  0  0  0  0  0  0  0
  5  6  2  0  0  0  0
  5  7  1  0  0  0  0
  2  3  1  0  0  0  0
  2  4  1  0  0  0  0
  2  5  1  0  0  0  0
  1  2  1  0  0  0  0
 26 27  2  0  0  0  0
 26 28  1  0  0  0  0
 23 24  1  0  0  0  0
 23 25  1  0  0  0  0
 20 21  1  0  0  0  0
 20 22  1  0  0  0  0
 20 23  1  0  0  0  0
 17 18  1  0  0  0  0
 17 19  1  0  0  0  0
 17 20  1  0  0  0  0
 14 15  1  0  0  0  0
 14 16  1  0  0  0  0
 14 17  1  0  0  0  0
 11 12  1  0  0  0  0
 11 13  1  0  0  0  0
 11 14  1  0  0  0  0
  9 10  1  0  0  0  0
  9 11  1  0  0  0  0
  9 26  1  0  0  0  0
  7  8  1  0  0  0  0
  7  9  1  0  0  0  0
 30 31  1  0  0  0  0
 30 32  1  0  0  0  0
 30 33  1  0  0  0  0
 28 29  1  0  0  0  0
 28 30  1  0  0  0  0
M  END
$$$$
default_name
  -OEChem-02102213163D

 33 32  0     1  0  0  0  0  0999 V2000
   -3.8420   -3.6918    1.5562 H   0  0  0  0  0  0  0  0  0  0  0  0
   -3.8430   -2.7008    1.1032 C   0  0  0  0  0  0  0  0  0  0  0  0
   -4.5510   -2.0608    1.6242 H   0  0  0  0  0  0  0  0  0  0  0  0
   -4.1140   -2.7798    0.0522 H   0  0  0  0  0  0  0  0  0  0  0  0
   -2.4570   -2.1098    1.2172 C   0  0  0  0  0  0  0  0  0  0  0  0
   -1.5600   -2.7438    1.7572 O   0  0  0  0  0  0  0  0  0  0  0  0
   -2.2870   -0.8898    0.7102 N   0  0  0  0  0  0  0  0  0  0  0  0
   -3.0820   -0.4218    0.2992 H   0  0  0  0  0  0  0  0  0  0  0  0
   -1.0240   -0.1468    0.7262 C   0  0  1  0  0  0  0  0  0  0  0  0
   -0.2680   -0.7367    0.2062 H   0  0  0  0  0  0  0  0  0  0  0  0
   -1.2212    1.1806   -0.0314 C   0  0  0  0  0  0  0  0  0  0  0  0
   -2.2610    1.4940    0.0822 H   0  0  0  0  0  0  0  0  0  0  0  0
   -0.5842    1.9466    0.4132 H   0  0  0  0  0  0  0  0  0  0  0  0
   -0.9135    1.0751   -1.5333 C   0  0  0  0  0  0  0  0  0  0  0  0
    0.0148    0.5222   -1.6788 H   0  0  0  0  0  0  0  0  0  0  0  0
   -1.7276    0.5440   -2.0300 H   0  0  0  0  0  0  0  0  0  0  0  0
   -0.7626    2.4659   -2.1601 C   0  0  0  0  0  0  0  0  0  0  0  0
   -1.6817    3.0346   -2.0157 H   0  0  0  0  0  0  0  0  0  0  0  0
    0.0651    2.9917   -1.6833 H   0  0  0  0  0  0  0  0  0  0  0  0
   -0.4823    2.3327   -3.6557 C   0  0  0  0  0  0  0  0  0  0  0  0
    0.4449    1.7810   -3.8020 H   0  0  0  0  0  0  0  0  0  0  0  0
   -1.2995    1.7923   -4.1305 H   0  0  0  0  0  0  0  0  0  0  0  0
   -0.3555    3.6486   -4.2927 N   0  0  0  0  0  0  0  0  0  0  0  0
   -0.1574    3.5230   -5.2745 H   0  0  0  0  0  0  0  0  0  0  0  0
   -1.2246    4.1527   -4.1876 H   0  0  0  0  0  0  0  0  0  0  0  0
   -0.5564    0.0727    2.1744 C   0  0  0  0  0  0  0  0  0  0  0  0
    0.6169   -0.1288    2.4805 O   0  0  0  0  0  0  0  0  0  0  0  0
   -1.4759    0.4743    3.0595 N   0  0  0  0  0  0  0  0  0  0  0  0
   -2.4132    0.6318    2.7275 H   0  0  0  0  0  0  0  0  0  0  0  0
   -1.1971    0.7118    4.4750 C   0  0  0  0  0  0  0  0  0  0  0  0
   -0.3779    1.4272    4.5748 H   0  0  0  0  0  0  0  0  0  0  0  0
   -2.0826    1.1064    4.9754 H   0  0  0  0  0  0  0  0  0  0  0  0
   -0.8992   -0.2240    4.9525 H   0  0  0  0  0  0  0  0  0  0  0  0
  5  6  2  0  0  0  0
  5  7  1  0  0  0  0
  2  3  1  0  0  0  0
  2  4  1  0  0  0  0
  2  5  1  0  0  0  0
  1  2  1  0  0  0  0
 26 27  2  0  0  0  0
 26 28  1  0  0  0  0
 23 24  1  0  0  0  0
 23 25  1  0  0  0  0
 20 21  1  0  0  0  0
 20 22  1  0  0  0  0
 20 23  1  0  0  0  0
 17 18  1  0  0  0  0
 17 19  1  0  0  0  0
 17 20  1  0  0  0  0
 14 15  1  0  0  0  0
 14 16  1  0  0  0  0
 14 17  1  0  0  0  0
 11 12  1  0  0  0  0
 11 13  1  0  0  0  0
 11 14  1  0  0  0  0
  9 10  1  0  0  0  0
  9 11  1  0  0  0  0
  9 26  1  0  0  0  0
  7  8  1  0  0  0  0
  7  9  1  0  0  0  0
 30 31  1  0  0  0  0
 30 32  1  0  0  0  0
 30 33  1  0  0  0  0
 28 29  1  0  0  0  0
 28 30  1  0  0  0  0
M  END
$$$$
default_name
  -OEChem-02102213163D

 33 32  0     1  0  0  0  0  0999 V2000
   -3.8420   -3.6918    1.5562 H   0  0  0  0  0  0  0  0  0  0  0  0
   -3.8430   -2.7008    1.1032 C   0  0  0  0  0  0  0  0  0  0  0  0
   -4.5510   -2.0608    1.6242 H   0  0  0  0  0  0  0  0  0  0  0  0
   -4.1140   -2.7798    0.0522 H   0  0  0  0  0  0  0  0  0  0  0  0
   -2.4570   -2.1098    1.2172 C   0  0  0  0  0  0  0  0  0  0  0  0
   -1.5600   -2.7438    1.7572 O   0  0  0  0  0  0  0  0  0  0  0  0
   -2.2870   -0.8898    0.7102 N   0  0  0  0  0  0  0  0  0  0  0  0
   -3.0820   -0.4218    0.2992 H   0  0  0  0  0  0  0  0  0  0  0  0
   -1.0240   -0.1468    0.7262 C   0  0  1  0  0  0  0  0  0  0  0  0
   -0.2680   -0.7367    0.2062 H   0  0  0  0  0  0  0  0  0  0  0  0
   -1.2212    1.1806   -0.0314 C   0  0  0  0  0  0  0  0  0  0  0  0
   -2.2610    1.4940    0.0822 H   0  0  0  0  0  0  0  0  0  0  0  0
   -0.5842    1.9466    0.4132 H   0  0  0  0  0  0  0  0  0  0  0  0
   -0.9135    1.0751   -1.5333 C   0  0  0  0  0  0  0  0  0  0  0  0
   -0.1516    0.3128   -1.6982 H   0  0  0  0  0  0  0  0  0  0  0  0
   -1.8229    0.7929   -2.0670 H   0  0  0  0  0  0  0  0  0  0  0  0
   -0.4011    2.4115   -2.0822 C   0  0  0  0  0  0  0  0  0  0  0  0
   -1.1500    3.1867   -1.9174 H   0  0  0  0  0  0  0  0  0  0  0  0
    0.5206    2.6861   -1.5685 H   0  0  0  0  0  0  0  0  0  0  0  0
   -0.1270    2.2859   -3.5796 C   0  0  0  0  0  0  0  0  0  0  0  0
    0.6341    1.5252   -3.7453 H   0  0  0  0  0  0  0  0  0  0  0  0
   -1.0424    1.9944   -4.0920 H   0  0  0  0  0  0  0  0  0  0  0  0
    0.3434    3.5566   -4.1430 N   0  0  0  0  0  0  0  0  0  0  0  0
    0.5274    3.4336   -5.1279 H   0  0  0  0  0  0  0  0  0  0  0  0
   -0.3725    4.2586   -4.0205 H   0  0  0  0  0  0  0  0  0  0  0  0
   -0.5564    0.0727    2.1744 C   0  0  0  0  0  0  0  0  0  0  0  0
    0.6169   -0.1288    2.4805 O   0  0  0  0  0  0  0  0  0  0  0  0
   -1.4759    0.4743    3.0595 N   0  0  0  0  0  0  0  0  0  0  0  0
   -2.4132    0.6318    2.7275 H   0  0  0  0  0  0  0  0  0  0  0  0
   -1.1971    0.7118    4.4750 C   0  0  0  0  0  0  0  0  0  0  0  0
   -0.3779    1.4272    4.5748 H   0  0  0  0  0  0  0  0  0  0  0  0
   -2.0826    1.1064    4.9754 H   0  0  0  0  0  0  0  0  0  0  0  0
   -0.8992   -0.2240    4.9525 H   0  0  0  0  0  0  0  0  0  0  0  0
  5  6  2  0  0  0  0
  5  7  1  0  0  0  0
  2  3  1  0  0  0  0
  2  4  1  0  0  0  0
  2  5  1  0  0  0  0
  1  2  1  0  0  0  0
 26 27  2  0  0  0  0
 26 28  1  0  0  0  0
 23 24  1  0  0  0  0
 23 25  1  0  0  0  0
 20 21  1  0  0  0  0
 20 22  1  0  0  0  0
 20 23  1  0  0  0  0
 17 18  1  0  0  0  0
 17 19  1  0  0  0  0
 17 20  1  0  0  0  0
 14 15  1  0  0  0  0
 14 16  1  0  0  0  0
 14 17  1  0  0  0  0
 11 12  1  0  0  0  0
 11 13  1  0  0  0  0
 11 14  1  0  0  0  0
  9 10  1  0  0  0  0
  9 11  1  0  0  0  0
  9 26  1  0  0  0  0
  7  8  1  0  0  0  0
  7  9  1  0  0  0  0
 30 31  1  0  0  0  0
 30 32  1  0  0  0  0
 30 33  1  0  0  0  0
 28 29  1  0  0  0  0
 28 30  1  0  0  0  0
M  END
$$$$
default_name
  -OEChem-02102213163D

 33 32  0     1  0  0  0  0  0999 V2000
   -3.8420   -3.6918    1.5562 H   0  0  0  0  0  0  0  0  0  0  0  0
   -3.8430   -2.7008    1.1032 C   0  0  0  0  0  0  0  0  0  0  0  0
   -4.5510   -2.0608    1.6242 H   0  0  0  0  0  0  0  0  0  0  0  0
   -4.1140   -2.7798    0.0522 H   0  0  0  0  0  0  0  0  0  0  0  0
   -2.4570   -2.1098    1.2172 C   0  0  0  0  0  0  0  0  0  0  0  0
   -1.5600   -2.7438    1.7572 O   0  0  0  0  0  0  0  0  0  0  0  0
   -2.2870   -0.8898    0.7102 N   0  0  0  0  0  0  0  0  0  0  0  0
   -3.0820   -0.4218    0.2992 H   0  0  0  0  0  0  0  0  0  0  0  0
   -1.0240   -0.1468    0.7262 C   0  0  1  0  0  0  0  0  0  0  0  0
   -0.2680   -0.7367    0.2062 H   0  0  0  0  0  0  0  0  0  0  0  0
   -1.2212    1.1806   -0.0314 C   0  0  0  0  0  0  0  0  0  0  0  0
   -2.2610    1.4940    0.0822 H   0  0  0  0  0  0  0  0  0  0  0  0
   -0.5842    1.9466    0.4132 H   0  0  0  0  0  0  0  0  0  0  0  0
   -0.9135    1.0751   -1.5333 C   0  0  0  0  0  0  0  0  0  0  0  0
   -0.3649    0.1538   -1.7307 H   0  0  0  0  0  0  0  0  0  0  0  0
   -1.8514    1.0594   -2.0916 H   0  0  0  0  0  0  0  0  0  0  0  0
   -0.0671    2.2635   -2.0034 C   0  0  0  0  0  0  0  0  0  0  0  0
   -0.5998    3.1941   -1.8052 H   0  0  0  0  0  0  0  0  0  0  0  0
    0.8813    2.2697   -1.4654 H   0  0  0  0  0  0  0  0  0  0  0  0
    0.2029    2.1469   -3.5023 C   0  0  0  0  0  0  0  0  0  0  0  0
    0.7512    1.2273   -3.7004 H   0  0  0  0  0  0  0  0  0  0  0  0
   -0.7435    2.1226   -4.0398 H   0  0  0  0  0  0  0  0  0  0  0  0
    0.9926    3.2832   -3.9908 N   0  0  0  0  0  0  0  0  0  0  0  0
    1.1636    3.1665   -4.9788 H   0  0  0  0  0  0  0  0  0  0  0  0
    0.4744    4.1367   -3.8385 H   0  0  0  0  0  0  0  0  0  0  0  0
   -0.5564    0.0727    2.1744 C   0  0  0  0  0  0  0  0  0  0  0  0
    0.6169   -0.1288    2.4805 O   0  0  0  0  0  0  0  0  0  0  0  0
   -1.4759    0.4743    3.0595 N   0  0  0  0  0  0  0  0  0  0  0  0
   -2.4132    0.6318    2.7275 H   0  0  0  0  0  0  0  0  0  0  0  0
   -1.1971    0.7118    4.4750 C   0  0  0  0  0  0  0  0  0  0  0  0
   -0.3779    1.4272    4.5748 H   0  0  0  0  0  0  0  0  0  0  0  0
   -2.0826    1.1064    4.9754 H   0  0  0  0  0  0  0  0  0  0  0  0
   -0.8992   -0.2240    4.9525 H   0  0  0  0  0  0  0  0  0  0  0  0
  5  6  2  0  0  0  0
  5  7  1  0  0  0  0
  2  3  1  0  0  0  0
  2  4  1  0  0  0  0
  2  5  1  0  0  0  0
  1  2  1  0  0  0  0
 26 27  2  0  0  0  0
 26 28  1  0  0  0  0
 23 24  1  0  0  0  0
 23 25  1  0  0  0  0
 20 21  1  0  0  0  0
 20 22  1  0  0  0  0
 20 23  1  0  0  0  0
 17 18  1  0  0  0  0
 17 19  1  0  0  0  0
 17 20  1  0  0  0  0
 14 15  1  0  0  0  0
 14 16  1  0  0  0  0
 14 17  1  0  0  0  0
 11 12  1  0  0  0  0
 11 13  1  0  0  0  0
 11 14  1  0  0  0  0
  9 10  1  0  0  0  0
  9 11  1  0  0  0  0
  9 26  1  0  0  0  0
  7  8  1  0  0  0  0
  7  9  1  0  0  0  0
 30 31  1  0  0  0  0
 30 32  1  0  0  0  0
 30 33  1  0  0  0  0
 28 29  1  0  0  0  0
 28 30  1  0  0  0  0
M  END
$$$$
default_name
  -OEChem-02102213163D

 33 32  0     1  0  0  0  0  0999 V2000
   -3.8420   -3.6918    1.5562 H   0  0  0  0  0  0  0  0  0  0  0  0
   -3.8430   -2.7008    1.1032 C   0  0  0  0  0  0  0  0  0  0  0  0
   -4.5510   -2.0608    1.6242 H   0  0  0  0  0  0  0  0  0  0  0  0
   -4.1140   -2.7798    0.0522 H   0  0  0  0  0  0  0  0  0  0  0  0
   -2.4570   -2.1098    1.2172 C   0  0  0  0  0  0  0  0  0  0  0  0
   -1.5600   -2.7438    1.7572 O   0  0  0  0  0  0  0  0  0  0  0  0
   -2.2870   -0.8898    0.7102 N   0  0  0  0  0  0  0  0  0  0  0  0
   -3.0820   -0.4218    0.2992 H   0  0  0  0  0  0  0  0  0  0  0  0
   -1.0240   -0.1468    0.7262 C   0  0  1  0  0  0  0  0  0  0  0  0
   -0.2680   -0.7367    0.2062 H   0  0  0  0  0  0  0  0  0  0  0  0
   -1.2212    1.1806   -0.0314 C   0  0  0  0  0  0  0  0  0  0  0  0
   -2.2610    1.4940    0.0822 H   0  0  0  0  0  0  0  0  0  0  0  0
   -0.5842    1.9466    0.4132 H   0  0  0  0  0  0  0  0  0  0  0  0
   -0.9135    1.0751   -1.5333 C   0  0  0  0  0  0  0  0  0  0  0  0
   -0.6107    0.0558   -1.7742 H   0  0  0  0  0  0  0  0  0  0  0  0
   -1.8110    1.3252   -2.1020 H   0  0  0  0  0  0  0  0  0  0  0  0
    0.2168    2.0320   -1.9290 C   0  0  0  0  0  0  0  0  0  0  0  0
   -0.0684    3.0562   -1.6867 H   0  0  0  0  0  0  0  0  0  0  0  0
    1.1226    1.7710   -1.3809 H   0  0  0  0  0  0  0  0  0  0  0  0
    0.4851    1.9251   -3.4289 C   0  0  0  0  0  0  0  0  0  0  0  0
    0.7881    0.9076   -3.6703 H   0  0  0  0  0  0  0  0  0  0  0  0
   -0.4234    2.1682   -3.9774 H   0  0  0  0  0  0  0  0  0  0  0  0
    1.5478    2.8469   -3.8465 N   0  0  0  0  0  0  0  0  0  0  0  0
    1.7079    2.7399   -4.8374 H   0  0  0  0  0  0  0  0  0  0  0  0
    1.2583    3.7953   -3.6539 H   0  0  0  0  0  0  0  0  0  0  0  0
   -0.5564    0.0727    2.1744 C   0  0  0  0  0  0  0  0  0  0  0  0
    0.6169   -0.1288    2.4805 O   0  0  0  0  0  0  0  0  0  0  0  0
   -1.4759    0.4743    3.0595 N   0  0  0  0  0  0  0  0  0  0  0  0
   -2.4132    0.6318    2.7275 H   0  0  0  0  0  0  0  0  0  0  0  0
   -1.1971    0.7118    4.4750 C   0  0  0  0  0  0  0  0  0  0  0  0
   -0.3779    1.4272    4.5748 H   0  0  0  0  0  0  0  0  0  0  0  0
   -2.0826    1.1064    4.9754 H   0  0  0  0  0  0  0  0  0  0  0  0
   -0.8992   -0.2240    4.9525 H   0  0  0  0  0  0  0  0  0  0  0  0
  5  6  2  0  0  0  0
  5  7  1  0  0  0  0
  2  3  1  0  0  0  0
  2  4  1  0  0  0  0
  2  5  1  0  0  0  0
  1  2  1  0  0  0  0
 26 27  2  0  0  0  0
 26 28  1  0  0  0  0
 23 24  1  0  0  0  0
 23 25  1  0  0  0  0
 20 21  1  0  0  0  0
 20 22  1  0  0  0  0
 20 23  1  0  0  0  0
 17 18  1  0  0  0  0
 17 19  1  0  0  0  0
 17 20  1  0  0  0  0
 14 15  1  0  0  0  0
 14 16  1  0  0  0  0
 14 17  1  0  0  0  0
 11 12  1  0  0  0  0
 11 13  1  0  0  0  0
 11 14  1  0  0  0  0
  9 10  1  0  0  0  0
  9 11  1  0  0  0  0
  9 26  1  0  0  0  0
  7  8  1  0  0  0  0
  7  9  1  0  0  0  0
 30 31  1  0  0  0  0
 30 32  1  0  0  0  0
 30 33  1  0  0  0  0
 28 29  1  0  0  0  0
 28 30  1  0  0  0  0
M  END
$$$$
default_name
  -OEChem-02102213163D

 33 32  0     1  0  0  0  0  0999 V2000
   -3.8420   -3.6918    1.5562 H   0  0  0  0  0  0  0  0  0  0  0  0
   -3.8430   -2.7008    1.1032 C   0  0  0  0  0  0  0  0  0  0  0  0
   -4.5510   -2.0608    1.6242 H   0  0  0  0  0  0  0  0  0  0  0  0
   -4.1140   -2.7798    0.0522 H   0  0  0  0  0  0  0  0  0  0  0  0
   -2.4570   -2.1098    1.2172 C   0  0  0  0  0  0  0  0  0  0  0  0
   -1.5600   -2.7438    1.7572 O   0  0  0  0  0  0  0  0  0  0  0  0
   -2.2870   -0.8898    0.7102 N   0  0  0  0  0  0  0  0  0  0  0  0
   -3.0820   -0.4218    0.2992 H   0  0  0  0  0  0  0  0  0  0  0  0
   -1.0240   -0.1468    0.7262 C   0  0  1  0  0  0  0  0  0  0  0  0
   -0.2680   -0.7367    0.2062 H   0  0  0  0  0  0  0  0  0  0  0  0
   -1.2212    1.1806   -0.0314 C   0  0  0  0  0  0  0  0  0  0  0  0
   -2.2610    1.4940    0.0822 H   0  0  0  0  0  0  0  0  0  0  0  0
   -0.5842    1.9466    0.4132 H   0  0  0  0  0  0  0  0  0  0  0  0
   -0.9135    1.0751   -1.5333 C   0  0  0  0  0  0  0  0  0  0  0  0
   -0.8721    0.0255   -1.8256 H   0  0  0  0  0  0  0  0  0  0  0  0
   -1.7047    1.5723   -2.0975 H   0  0  0  0  0  0  0  0  0  0  0  0
    0.4311    1.7327   -1.8641 C   0  0  0  0  0  0  0  0  0  0  0  0
    0.4079    2.7824   -1.5699 H   0  0  0  0  0  0  0  0  0  0  0  0
    1.2280    1.2239   -1.3209 H   0  0  0  0  0  0  0  0  0  0  0  0
    0.7003    1.6357   -3.3645 C   0  0  0  0  0  0  0  0  0  0  0  0
    0.7423    0.5879   -3.6573 H   0  0  0  0  0  0  0  0  0  0  0  0
   -0.1037    2.1279   -3.9091 H   0  0  0  0  0  0  0  0  0  0  0  0
    1.9712    2.2777   -3.7198 N   0  0  0  0  0  0  0  0  0  0  0  0
    2.1232    2.1828   -4.7132 H   0  0  0  0  0  0  0  0  0  0  0  0
    1.9259    3.2577   -3.4794 H   0  0  0  0  0  0  0  0  0  0  0  0
   -0.5564    0.0727    2.1744 C   0  0  0  0  0  0  0  0  0  0  0  0
    0.6169   -0.1288    2.4805 O   0  0  0  0  0  0  0  0  0  0  0  0
   -1.4759    0.4743    3.0595 N   0  0  0  0  0  0  0  0  0  0  0  0
   -2.4132    0.6318    2.7275 H   0  0  0  0  0  0  0  0  0  0  0  0
   -1.1971    0.7118    4.4750 C   0  0  0  0  0  0  0  0  0  0  0  0
   -0.3779    1.4272    4.5748 H   0  0  0  0  0  0  0  0  0  0  0  0
   -2.0826    1.1064    4.9754 H   0  0  0  0  0  0  0  0  0  0  0  0
   -0.8992   -0.2240    4.9525 H   0  0  0  0  0  0  0  0  0  0  0  0
  5  6  2  0  0  0  0
  5  7  1  0  0  0  0
  2  3  1  0  0  0  0
  2  4  1  0  0  0  0
  2  5  1  0  0  0  0
  1  2  1  0  0  0  0
 26 27  2  0  0  0  0
 26 28  1  0  0  0  0
 23 24  1  0  0  0  0
 23 25  1  0  0  0  0
 20 21  1  0  0  0  0
 20 22  1  0  0  0  0
 20 23  1  0  0  0  0
 17 18  1  0  0  0  0
 17 19  1  0  0  0  0
 17 20  1  0  0  0  0
 14 15  1  0  0  0  0
 14 16  1  0  0  0  0
 14 17  1  0  0  0  0
 11 12  1  0  0  0  0
 11 13  1  0  0  0  0
 11 14  1  0  0  0  0
  9 10  1  0  0  0  0
  9 11  1  0  0  0  0
  9 26  1  0  0  0  0
  7  8  1  0  0  0  0
  7  9  1  0  0  0  0
 30 31  1  0  0  0  0
 30 32  1  0  0  0  0
 30 33  1  0  0  0  0
 28 29  1  0  0  0  0
 28 30  1  0  0  0  0
M  END
$$$$
default_name
  -OEChem-02102213163D

 33 32  0     1  0  0  0  0  0999 V2000
   -3.8420   -3.6918    1.5562 H   0  0  0  0  0  0  0  0  0  0  0  0
   -3.8430   -2.7008    1.1032 C   0  0  0  0  0  0  0  0  0  0  0  0
   -4.5510   -2.0608    1.6242 H   0  0  0  0  0  0  0  0  0  0  0  0
   -4.1140   -2.7798    0.0522 H   0  0  0  0  0  0  0  0  0  0  0  0
   -2.4570   -2.1098    1.2172 C   0  0  0  0  0  0  0  0  0  0  0  0
   -1.5600   -2.7438    1.7572 O   0  0  0  0  0  0  0  0  0  0  0  0
   -2.2870   -0.8898    0.7102 N   0  0  0  0  0  0  0  0  0  0  0  0
   -3.0820   -0.4218    0.2992 H   0  0  0  0  0  0  0  0  0  0  0  0
   -1.0240   -0.1468    0.7262 C   0  0  1  0  0  0  0  0  0  0  0  0
   -0.2680   -0.7367    0.2062 H   0  0  0  0  0  0  0  0  0  0  0  0
   -1.2212    1.1806   -0.0314 C   0  0  0  0  0  0  0  0  0  0  0  0
   -2.2610    1.4940    0.0822 H   0  0  0  0  0  0  0  0  0  0  0  0
   -0.5842    1.9466    0.4132 H   0  0  0  0  0  0  0  0  0  0  0  0
   -0.9135    1.0751   -1.5333 C   0  0  0  0  0  0  0  0  0  0  0  0
   -1.1313    0.0651   -1.8815 H   0  0  0  0  0  0  0  0  0  0  0  0
   -1.5395    1.7839   -2.0786 H   0  0  0  0  0  0  0  0  0  0  0  0
    0.5612    1.3860   -1.8131 C   0  0  0  0  0  0  0  0  0  0  0  0
    0.7966    2.3914   -1.4628 H   0  0  0  0  0  0  0  0  0  0  0  0
    1.1903    0.6656   -1.2894 H   0  0  0  0  0  0  0  0  0  0  0  0
    0.8338    1.2984   -3.3134 C   0  0  0  0  0  0  0  0  0  0  0  0
    0.6171    0.2900   -3.6620 H   0  0  0  0  0  0  0  0  0  0  0  0
    0.1937    2.0047   -3.8396 H   0  0  0  0  0  0  0  0  0  0  0  0
    2.2339    1.6141   -3.6193 N   0  0  0  0  0  0  0  0  0  0  0  0
    2.3812    1.5331   -4.6147 H   0  0  0  0  0  0  0  0  0  0  0  0
    2.4317    2.5605   -3.3268 H   0  0  0  0  0  0  0  0  0  0  0  0
   -0.5564    0.0727    2.1744 C   0  0  0  0  0  0  0  0  0  0  0  0
    0.6169   -0.1288    2.4805 O   0  0  0  0  0  0  0  0  0  0  0  0
   -1.4759    0.4743    3.0595 N   0  0  0  0  0  0  0  0  0  0  0  0
   -2.4132    0.6318    2.7275 H   0  0  0  0  0  0  0  0  0  0  0  0
   -1.1971    0.7118    4.4750 C   0  0  0  0  0  0  0  0  0  0  0  0
   -0.3779    1.4272    4.5748 H   0  0  0  0  0  0  0  0  0  0  0  0
   -2.0826    1.1064    4.9754 H   0  0  0  0  0  0  0  0  0  0  0  0
   -0.8992   -0.2240    4.9525 H   0  0  0  0  0  0  0  0  0  0  0  0
  5  6  2  0  0  0  0
  5  7  1  0  0  0  0
  2  3  1  0  0  0  0
  2  4  1  0  0  0  0
  2  5  1  0  0  0  0
  1  2  1  0  0  0  0
 26 27  2  0  0  0  0
 26 28  1  0  0  0  0
 23 24  1  0  0  0  0
 23 25  1  0  0  0  0
 20 21  1  0  0  0  0
 20 22  1  0  0  0  0
 20 23  1  0  0  0  0
 17 18  1  0  0  0  0
 17 19  1  0  0  0  0
 17 20  1  0  0  0  0
 14 15  1  0  0  0  0
 14 16  1  0  0  0  0
 14 17  1  0  0  0  0
 11 12  1  0  0  0  0
 11 13  1  0  0  0  0
 11 14  1  0  0  0  0
  9 10  1  0  0  0  0
  9 11  1  0  0  0  0
  9 26  1  0  0  0  0
  7  8  1  0  0  0  0
  7  9  1  0  0  0  0
 30 31  1  0  0  0  0
 30 32  1  0  0  0  0
 30 33  1  0  0  0  0
 28 29  1  0  0  0  0
 28 30  1  0  0  0  0
M  END
$$$$
default_name
  -OEChem-02102213163D

 33 32  0     1  0  0  0  0  0999 V2000
   -3.8420   -3.6918    1.5562 H   0  0  0  0  0  0  0  0  0  0  0  0
   -3.8430   -2.7008    1.1032 C   0  0  0  0  0  0  0  0  0  0  0  0
   -4.5510   -2.0608    1.6242 H   0  0  0  0  0  0  0  0  0  0  0  0
   -4.1140   -2.7798    0.0522 H   0  0  0  0  0  0  0  0  0  0  0  0
   -2.4570   -2.1098    1.2172 C   0  0  0  0  0  0  0  0  0  0  0  0
   -1.5600   -2.7438    1.7572 O   0  0  0  0  0  0  0  0  0  0  0  0
   -2.2870   -0.8898    0.7102 N   0  0  0  0  0  0  0  0  0  0  0  0
   -3.0820   -0.4218    0.2992 H   0  0  0  0  0  0  0  0  0  0  0  0
   -1.0240   -0.1468    0.7262 C   0  0  1  0  0  0  0  0  0  0  0  0
   -0.2680   -0.7367    0.2062 H   0  0  0  0  0  0  0  0  0  0  0  0
   -1.2212    1.1806   -0.0314 C   0  0  0  0  0  0  0  0  0  0  0  0
   -2.2610    1.4940    0.0822 H   0  0  0  0  0  0  0  0  0  0  0  0
   -0.5842    1.9466    0.4132 H   0  0  0  0  0  0  0  0  0  0  0  0
   -0.9135    1.0751   -1.5333 C   0  0  0  0  0  0  0  0  0  0  0  0
   -1.3707    0.1718   -1.9380 H   0  0  0  0  0  0  0  0  0  0  0  0
   -1.3267    1.9455   -2.0463 H   0  0  0  0  0  0  0  0  0  0  0  0
    0.5983    1.0156   -1.7794 C   0  0  0  0  0  0  0  0  0  0  0  0
    1.0713    1.9099   -1.3727 H   0  0  0  0  0  0  0  0  0  0  0  0
    1.0121    0.1342   -1.2886 H   0  0  0  0  0  0  0  0  0  0  0  0
    0.8766    0.9362   -3.2792 C   0  0  0  0  0  0  0  0  0  0  0  0
    0.4208    0.0341   -3.6842 H   0  0  0  0  0  0  0  0  0  0  0  0
    0.4485    1.8068   -3.7735 H   0  0  0  0  0  0  0  0  0  0  0  0
    2.3180    0.9015   -3.5521 N   0  0  0  0  0  0  0  0  0  0  0  0
    2.4644    0.8352   -4.5486 H   0  0  0  0  0  0  0  0  0  0  0  0
    2.7411    1.7512   -3.2066 H   0  0  0  0  0  0  0  0  0  0  0  0
   -0.5564    0.0727    2.1744 C   0  0  0  0  0  0  0  0  0  0  0  0
    0.6169   -0.1288    2.4805 O   0  0  0  0  0  0  0  0  0  0  0  0
   -1.4759    0.4743    3.0595 N   0  0  0  0  0  0  0  0  0  0  0  0
   -2.4132    0.6318    2.7275 H   0  0  0  0  0  0  0  0  0  0  0  0
   -1.1971    0.7118    4.4750 C   0  0  0  0  0  0  0  0  0  0  0  0
   -0.3779    1.4272    4.5748 H   0  0  0  0  0  0  0  0  0  0  0  0
   -2.0826    1.1064    4.9754 H   0  0  0  0  0  0  0  0  0  0  0  0
   -0.8992   -0.2240    4.9525 H   0  0  0  0  0  0  0  0  0  0  0  0
  5  6  2  0  0  0  0
  5  7  1  0  0  0  0
  2  3  1  0  0  0  0
  2  4  1  0  0  0  0
  2  5  1  0  0  0  0
  1  2  1  0  0  0  0
 26 27  2  0  0  0  0
 26 28  1  0  0  0  0
 23 24  1  0  0  0  0
 23 25  1  0  0  0  0
 20 21  1  0  0  0  0
 20 22  1  0  0  0  0
 20 23  1  0  0  0  0
 17 18  1  0  0  0  0
 17 19  1  0  0  0  0
 17 20  1  0  0  0  0
 14 15  1  0  0  0  0
 14 16  1  0  0  0  0
 14 17  1  0  0  0  0
 11 12  1  0  0  0  0
 11 13  1  0  0  0  0
 11 14  1  0  0  0  0
  9 10  1  0  0  0  0
  9 11  1  0  0  0  0
  9 26  1  0  0  0  0
  7  8  1  0  0  0  0
  7  9  1  0  0  0  0
 30 31  1  0  0  0  0
 30 32  1  0  0  0  0
 30 33  1  0  0  0  0
 28 29  1  0  0  0  0
 28 30  1  0  0  0  0
M  END
$$$$
default_name
  -OEChem-02102213163D

 33 32  0     1  0  0  0  0  0999 V2000
   -3.8420   -3.6918    1.5562 H   0  0  0  0  0  0  0  0  0  0  0  0
   -3.8430   -2.7008    1.1032 C   0  0  0  0  0  0  0  0  0  0  0  0
   -4.5510   -2.0608    1.6242 H   0  0  0  0  0  0  0  0  0  0  0  0
   -4.1140   -2.7798    0.0522 H   0  0  0  0  0  0  0  0  0  0  0  0
   -2.4570   -2.1098    1.2172 C   0  0  0  0  0  0  0  0  0  0  0  0
   -1.5600   -2.7438    1.7572 O   0  0  0  0  0  0  0  0  0  0  0  0
   -2.2870   -0.8898    0.7102 N   0  0  0  0  0  0  0  0  0  0  0  0
   -3.0820   -0.4218    0.2992 H   0  0  0  0  0  0  0  0  0  0  0  0
   -1.0240   -0.1468    0.7262 C   0  0  1  0  0  0  0  0  0  0  0  0
   -0.2680   -0.7367    0.2062 H   0  0  0  0  0  0  0  0  0  0  0  0
   -1.2212    1.1806   -0.0314 C   0  0  0  0  0  0  0  0  0  0  0  0
   -2.2610    1.4940    0.0822 H   0  0  0  0  0  0  0  0  0  0  0  0
   -0.5842    1.9466    0.4132 H   0  0  0  0  0  0  0  0  0  0  0  0
   -0.9135    1.0751   -1.5333 C   0  0  0  0  0  0  0  0  0  0  0  0
   -1.5740    0.3383   -1.9913 H   0  0  0  0  0  0  0  0  0  0  0  0
   -1.0809    2.0461   -2.0030 H   0  0  0  0  0  0  0  0  0  0  0  0
    0.5398    0.6467   -1.7655 C   0  0  0  0  0  0  0  0  0  0  0  0
    1.2133    1.3706   -1.3058 H   0  0  0  0  0  0  0  0  0  0  0  0
    0.7056   -0.3340   -1.3185 H   0  0  0  0  0  0  0  0  0  0  0  0
    0.8256    0.5737   -3.2642 C   0  0  0  0  0  0  0  0  0  0  0  0
    0.1668   -0.1622   -3.7225 H   0  0  0  0  0  0  0  0  0  0  0  0
    0.6434    1.5478   -3.7153 H   0  0  0  0  0  0  0  0  0  0  0  0
    2.2178    0.1885   -3.5225 N   0  0  0  0  0  0  0  0  0  0  0  0
    2.3670    0.1367   -4.5195 H   0  0  0  0  0  0  0  0  0  0  0  0
    2.8332    0.8850   -3.1269 H   0  0  0  0  0  0  0  0  0  0  0  0
   -0.5564    0.0727    2.1744 C   0  0  0  0  0  0  0  0  0  0  0  0
    0.6169   -0.1288    2.4805 O   0  0  0  0  0  0  0  0  0  0  0  0
   -1.4759    0.4743    3.0595 N   0  0  0  0  0  0  0  0  0  0  0  0
   -2.4132    0.6318    2.7275 H   0  0  0  0  0  0  0  0  0  0  0  0
   -1.1971    0.7118    4.4750 C   0  0  0  0  0  0  0  0  0  0  0  0
   -0.3779    1.4272    4.5748 H   0  0  0  0  0  0  0  0  0  0  0  0
   -2.0826    1.1064    4.9754 H   0  0  0  0  0  0  0  0  0  0  0  0
   -0.8992   -0.2240    4.9525 H   0  0  0  0  0  0  0  0  0  0  0  0
  5  6  2  0  0  0  0
  5  7  1  0  0  0  0
  2  3  1  0  0  0  0
  2  4  1  0  0  0  0
  2  5  1  0  0  0  0
  1  2  1  0  0  0  0
 26 27  2  0  0  0  0
 26 28  1  0  0  0  0
 23 24  1  0  0  0  0
 23 25  1  0  0  0  0
 20 21  1  0  0  0  0
 20 22  1  0  0  0  0
 20 23  1  0  0  0  0
 17 18  1  0  0  0  0
 17 19  1  0  0  0  0
 17 20  1  0  0  0  0
 14 15  1  0  0  0  0
 14 16  1  0  0  0  0
 14 17  1  0  0  0  0
 11 12  1  0  0  0  0
 11 13  1  0  0  0  0
 11 14  1  0  0  0  0
  9 10  1  0  0  0  0
  9 11  1  0  0  0  0
  9 26  1  0  0  0  0
  7  8  1  0  0  0  0
  7  9  1  0  0  0  0
 30 31  1  0  0  0  0
 30 32  1  0  0  0  0
 30 33  1  0  0  0  0
 28 29  1  0  0  0  0
 28 30  1  0  0  0  0
M  END
$$$$
default_name
  -OEChem-02102213163D

 33 32  0     1  0  0  0  0  0999 V2000
   -3.8420   -3.6918    1.5562 H   0  0  0  0  0  0  0  0  0  0  0  0
   -3.8430   -2.7008    1.1032 C   0  0  0  0  0  0  0  0  0  0  0  0
   -4.5510   -2.0608    1.6242 H   0  0  0  0  0  0  0  0  0  0  0  0
   -4.1140   -2.7798    0.0522 H   0  0  0  0  0  0  0  0  0  0  0  0
   -2.4570   -2.1098    1.2172 C   0  0  0  0  0  0  0  0  0  0  0  0
   -1.5600   -2.7438    1.7572 O   0  0  0  0  0  0  0  0  0  0  0  0
   -2.2870   -0.8898    0.7102 N   0  0  0  0  0  0  0  0  0  0  0  0
   -3.0820   -0.4218    0.2992 H   0  0  0  0  0  0  0  0  0  0  0  0
   -1.0240   -0.1468    0.7262 C   0  0  1  0  0  0  0  0  0  0  0  0
   -0.2680   -0.7367    0.2062 H   0  0  0  0  0  0  0  0  0  0  0  0
   -1.2212    1.1806   -0.0314 C   0  0  0  0  0  0  0  0  0  0  0  0
   -2.2610    1.4940    0.0822 H   0  0  0  0  0  0  0  0  0  0  0  0
   -0.5842    1.9466    0.4132 H   0  0  0  0  0  0  0  0  0  0  0  0
   -0.9135    1.0751   -1.5333 C   0  0  0  0  0  0  0  0  0  0  0  0
   -1.7272    0.5534   -2.0378 H   0  0  0  0  0  0  0  0  0  0  0  0
   -0.8188    2.0789   -1.9516 H   0  0  0  0  0  0  0  0  0  0  0  0
    0.3898    0.3044   -1.7722 C   0  0  0  0  0  0  0  0  0  0  0  0
    1.2127    0.8104   -1.2665 H   0  0  0  0  0  0  0  0  0  0  0  0
    0.2916   -0.7071   -1.3771 H   0  0  0  0  0  0  0  0  0  0  0  0
    0.6844    0.2357   -3.2694 C   0  0  0  0  0  0  0  0  0  0  0  0
   -0.1274   -0.2856   -3.7741 H   0  0  0  0  0  0  0  0  0  0  0  0
    0.7651    1.2452   -3.6692 H   0  0  0  0  0  0  0  0  0  0  0  0
    1.9401   -0.4765   -3.5327 N   0  0  0  0  0  0  0  0  0  0  0  0
    2.0957   -0.5150   -4.5293 H   0  0  0  0  0  0  0  0  0  0  0  0
    2.7015    0.0208   -3.0932 H   0  0  0  0  0  0  0  0  0  0  0  0
   -0.5564    0.0727    2.1744 C   0  0  0  0  0  0  0  0  0  0  0  0
    0.6169   -0.1288    2.4805 O   0  0  0  0  0  0  0  0  0  0  0  0
   -1.4759    0.4743    3.0595 N   0  0  0  0  0  0  0  0  0  0  0  0
   -2.4132    0.6318    2.7275 H   0  0  0  0  0  0  0  0  0  0  0  0
   -1.1971    0.7118    4.4750 C   0  0  0  0  0  0  0  0  0  0  0  0
   -0.3779    1.4272    4.5748 H   0  0  0  0  0  0  0  0  0  0  0  0
   -2.0826    1.1064    4.9754 H   0  0  0  0  0  0  0  0  0  0  0  0
   -0.8992   -0.2240    4.9525 H   0  0  0  0  0  0  0  0  0  0  0  0
  5  6  2  0  0  0  0
  5  7  1  0  0  0  0
  2  3  1  0  0  0  0
  2  4  1  0  0  0  0
  2  5  1  0  0  0  0
  1  2  1  0  0  0  0
 26 27  2  0  0  0  0
 26 28  1  0  0  0  0
 23 24  1  0  0  0  0
 23 25  1  0  0  0  0
 20 21  1  0  0  0  0
 20 22  1  0  0  0  0
 20 23  1  0  0  0  0
 17 18  1  0  0  0  0
 17 19  1  0  0  0  0
 17 20  1  0  0  0  0
 14 15  1  0  0  0  0
 14 16  1  0  0  0  0
 14 17  1  0  0  0  0
 11 12  1  0  0  0  0
 11 13  1  0  0  0  0
 11 14  1  0  0  0  0
  9 10  1  0  0  0  0
  9 11  1  0  0  0  0
  9 26  1  0  0  0  0
  7  8  1  0  0  0  0
  7  9  1  0  0  0  0
 30 31  1  0  0  0  0
 30 32  1  0  0  0  0
 30 33  1  0  0  0  0
 28 29  1  0  0  0  0
 28 30  1  0  0  0  0
M  END
$$$$
default_name
  -OEChem-02102213163D

 33 32  0     1  0  0  0  0  0999 V2000
   -3.8420   -3.6918    1.5562 H   0  0  0  0  0  0  0  0  0  0  0  0
   -3.8430   -2.7008    1.1032 C   0  0  0  0  0  0  0  0  0  0  0  0
   -4.5510   -2.0608    1.6242 H   0  0  0  0  0  0  0  0  0  0  0  0
   -4.1140   -2.7798    0.0522 H   0  0  0  0  0  0  0  0  0  0  0  0
   -2.4570   -2.1098    1.2172 C   0  0  0  0  0  0  0  0  0  0  0  0
   -1.5600   -2.7438    1.7572 O   0  0  0  0  0  0  0  0  0  0  0  0
   -2.2870   -0.8898    0.7102 N   0  0  0  0  0  0  0  0  0  0  0  0
   -3.0820   -0.4218    0.2992 H   0  0  0  0  0  0  0  0  0  0  0  0
   -1.0240   -0.1468    0.7262 C   0  0  1  0  0  0  0  0  0  0  0  0
   -0.2680   -0.7367    0.2062 H   0  0  0  0  0  0  0  0  0  0  0  0
   -1.2212    1.1806   -0.0314 C   0  0  0  0  0  0  0  0  0  0  0  0
   -2.2610    1.4940    0.0822 H   0  0  0  0  0  0  0  0  0  0  0  0
   -0.5842    1.9466    0.4132 H   0  0  0  0  0  0  0  0  0  0  0  0
   -0.9135    1.0751   -1.5333 C   0  0  0  0  0  0  0  0  0  0  0  0
   -1.8200    0.8023   -2.0743 H   0  0  0  0  0  0  0  0  0  0  0  0
   -0.5582    2.0415   -1.8957 H   0  0  0  0  0  0  0  0  0  0  0  0
    0.1584    0.0121   -1.7991 C   0  0  0  0  0  0  0  0  0  0  0  0
    1.0698    0.2673   -1.2577 H   0  0  0  0  0  0  0  0  0  0  0  0
   -0.2017   -0.9598   -1.4604 H   0  0  0  0  0  0  0  0  0  0  0  0
    0.4626   -0.0548   -3.2944 C   0  0  0  0  0  0  0  0  0  0  0  0
   -0.4419   -0.3277   -3.8355 H   0  0  0  0  0  0  0  0  0  0  0  0
    0.8054    0.9198   -3.6381 H   0  0  0  0  0  0  0  0  0  0  0  0
    1.5038   -1.0480   -3.5819 N   0  0  0  0  0  0  0  0  0  0  0  0
    1.6690   -1.0753   -4.5774 H   0  0  0  0  0  0  0  0  0  0  0  0
    2.3552   -0.7823   -3.1077 H   0  0  0  0  0  0  0  0  0  0  0  0
   -0.5564    0.0727    2.1744 C   0  0  0  0  0  0  0  0  0  0  0  0
    0.6169   -0.1288    2.4805 O   0  0  0  0  0  0  0  0  0  0  0  0
   -1.4759    0.4743    3.0595 N   0  0  0  0  0  0  0  0  0  0  0  0
   -2.4132    0.6318    2.7275 H   0  0  0  0  0  0  0  0  0  0  0  0
   -1.1971    0.7118    4.4750 C   0  0  0  0  0  0  0  0  0  0  0  0
   -0.3779    1.4272    4.5748 H   0  0  0  0  0  0  0  0  0  0  0  0
   -2.0826    1.1064    4.9754 H   0  0  0  0  0  0  0  0  0  0  0  0
   -0.8992   -0.2240    4.9525 H   0  0  0  0  0  0  0  0  0  0  0  0
  5  6  2  0  0  0  0
  5  7  1  0  0  0  0
  2  3  1  0  0  0  0
  2  4  1  0  0  0  0
  2  5  1  0  0  0  0
  1  2  1  0  0  0  0
 26 27  2  0  0  0  0
 26 28  1  0  0  0  0
 23 24  1  0  0  0  0
 23 25  1  0  0  0  0
 20 21  1  0  0  0  0
 20 22  1  0  0  0  0
 20 23  1  0  0  0  0
 17 18  1  0  0  0  0
 17 19  1  0  0  0  0
 17 20  1  0  0  0  0
 14 15  1  0  0  0  0
 14 16  1  0  0  0  0
 14 17  1  0  0  0  0
 11 12  1  0  0  0  0
 11 13  1  0  0  0  0
 11 14  1  0  0  0  0
  9 10  1  0  0  0  0
  9 11  1  0  0  0  0
  9 26  1  0  0  0  0
  7  8  1  0  0  0  0
  7  9  1  0  0  0  0
 30 31  1  0  0  0  0
 30 32  1  0  0  0  0
 30 33  1  0  0  0  0
 28 29  1  0  0  0  0
 28 30  1  0  0  0  0
M  END
$$$$
default_name
  -OEChem-02102213163D

 33 32  0     1  0  0  0  0  0999 V2000
   -3.8420   -3.6918    1.5562 H   0  0  0  0  0  0  0  0  0  0  0  0
   -3.8430   -2.7008    1.1032 C   0  0  0  0  0  0  0  0  0  0  0  0
   -4.5510   -2.0608    1.6242 H   0  0  0  0  0  0  0  0  0  0  0  0
   -4.1140   -2.7798    0.0522 H   0  0  0  0  0  0  0  0  0  0  0  0
   -2.4570   -2.1098    1.2172 C   0  0  0  0  0  0  0  0  0  0  0  0
   -1.5600   -2.7438    1.7572 O   0  0  0  0  0  0  0  0  0  0  0  0
   -2.2870   -0.8898    0.7102 N   0  0  0  0  0  0  0  0  0  0  0  0
   -3.0820   -0.4218    0.2992 H   0  0  0  0  0  0  0  0  0  0  0  0
   -1.0240   -0.1468    0.7262 C   0  0  1  0  0  0  0  0  0  0  0  0
   -0.2680   -0.7367    0.2062 H   0  0  0  0  0  0  0  0  0  0  0  0
   -1.2212    1.1806   -0.0314 C   0  0  0  0  0  0  0  0  0  0  0  0
   -2.2610    1.4940    0.0822 H   0  0  0  0  0  0  0  0  0  0  0  0
   -0.5842    1.9466    0.4132 H   0  0  0  0  0  0  0  0  0  0  0  0
   -0.9135    1.0751   -1.5333 C   0  0  0  0  0  0  0  0  0  0  0  0
   -1.8460    1.0680   -2.0983 H   0  0  0  0  0  0  0  0  0  0  0  0
   -0.3170    1.9367   -1.8389 H   0  0  0  0  0  0  0  0  0  0  0  0
   -0.1386   -0.2104   -1.8443 C   0  0  0  0  0  0  0  0  0  0  0  0
    0.7942   -0.2216   -1.2798 H   0  0  0  0  0  0  0  0  0  0  0  0
   -0.7405   -1.0749   -1.5627 H   0  0  0  0  0  0  0  0  0  0  0  0
    0.1754   -0.2780   -3.3376 C   0  0  0  0  0  0  0  0  0  0  0  0
   -0.7553   -0.2856   -3.9027 H   0  0  0  0  0  0  0  0  0  0  0  0
    0.7614    0.5937   -3.6242 H   0  0  0  0  0  0  0  0  0  0  0  0
    0.9387   -1.4872   -3.6668 N   0  0  0  0  0  0  0  0  0  0  0  0
    1.1160   -1.5060   -4.6604 H   0  0  0  0  0  0  0  0  0  0  0  0
    1.8178   -1.4697   -3.1695 H   0  0  0  0  0  0  0  0  0  0  0  0
   -0.5564    0.0727    2.1744 C   0  0  0  0  0  0  0  0  0  0  0  0
    0.6169   -0.1288    2.4805 O   0  0  0  0  0  0  0  0  0  0  0  0
   -1.4759    0.4743    3.0595 N   0  0  0  0  0  0  0  0  0  0  0  0
   -2.4132    0.6318    2.7275 H   0  0  0  0  0  0  0  0  0  0  0  0
   -1.1971    0.7118    4.4750 C   0  0  0  0  0  0  0  0  0  0  0  0
   -0.3779    1.4272    4.5748 H   0  0  0  0  0  0  0  0  0  0  0  0
   -2.0826    1.1064    4.9754 H   0  0  0  0  0  0  0  0  0  0  0  0
   -0.8992   -0.2240    4.9525 H   0  0  0  0  0  0  0  0  0  0  0  0
  5  6  2  0  0  0  0
  5  7  1  0  0  0  0
  2  3  1  0  0  0  0
  2  4  1  0  0  0  0
  2  5  1  0  0  0  0
  1  2  1  0  0  0  0
 26 27  2  0  0  0  0
 26 28  1  0  0  0  0
 23 24  1  0  0  0  0
 23 25  1  0  0  0  0
 20 21  1  0  0  0  0
 20 22  1  0  0  0  0
 20 23  1  0  0  0  0
 17 18  1  0  0  0  0
 17 19  1  0  0  0  0
 17 20  1  0  0  0  0
 14 15  1  0  0  0  0
 14 16  1  0  0  0  0
 14 17  1  0  0  0  0
 11 12  1  0  0  0  0
 11 13  1  0  0  0  0
 11 14  1  0  0  0  0
  9 10  1  0  0  0  0
  9 11  1  0  0  0  0
  9 26  1  0  0  0  0
  7  8  1  0  0  0  0
  7  9  1  0  0  0  0
 30 31  1  0  0  0  0
 30 32  1  0  0  0  0
 30 33  1  0  0  0  0
 28 29  1  0  0  0  0
 28 30  1  0  0  0  0
M  END
$$$$
default_name
  -OEChem-02102213163D

 33 32  0     1  0  0  0  0  0999 V2000
   -3.8420   -3.6918    1.5562 H   0  0  0  0  0  0  0  0  0  0  0  0
   -3.8430   -2.7008    1.1032 C   0  0  0  0  0  0  0  0  0  0  0  0
   -4.5510   -2.0608    1.6242 H   0  0  0  0  0  0  0  0  0  0  0  0
   -4.1140   -2.7798    0.0522 H   0  0  0  0  0  0  0  0  0  0  0  0
   -2.4570   -2.1098    1.2172 C   0  0  0  0  0  0  0  0  0  0  0  0
   -1.5600   -2.7438    1.7572 O   0  0  0  0  0  0  0  0  0  0  0  0
   -2.2870   -0.8898    0.7102 N   0  0  0  0  0  0  0  0  0  0  0  0
   -3.0820   -0.4218    0.2992 H   0  0  0  0  0  0  0  0  0  0  0  0
   -1.0240   -0.1468    0.7262 C   0  0  1  0  0  0  0  0  0  0  0  0
   -0.2680   -0.7367    0.2062 H   0  0  0  0  0  0  0  0  0  0  0  0
   -1.2212    1.1806   -0.0314 C   0  0  0  0  0  0  0  0  0  0  0  0
   -2.2610    1.4940    0.0822 H   0  0  0  0  0  0  0  0  0  0  0  0
   -0.5842    1.9466    0.4132 H   0  0  0  0  0  0  0  0  0  0  0  0
   -0.9135    1.0751   -1.5333 C   0  0  0  0  0  0  0  0  0  0  0  0
   -1.8035    1.3326   -2.1082 H   0  0  0  0  0  0  0  0  0  0  0  0
   -0.1115    1.7714   -1.7852 H   0  0  0  0  0  0  0  0  0  0  0  0
   -0.4809   -0.3477   -1.9048 C   0  0  0  0  0  0  0  0  0  0  0  0
    0.4048   -0.6230   -1.3314 H   0  0  0  0  0  0  0  0  0  0  0  0
   -1.2883   -1.0443   -1.6770 H   0  0  0  0  0  0  0  0  0  0  0  0
   -0.1578   -0.4187   -3.3960 C   0  0  0  0  0  0  0  0  0  0  0  0
   -1.0462   -0.1622   -3.9709 H   0  0  0  0  0  0  0  0  0  0  0  0
    0.6361    0.2892   -3.6284 H   0  0  0  0  0  0  0  0  0  0  0  0
    0.2833   -1.7640   -3.7816 N   0  0  0  0  0  0  0  0  0  0  0  0
    0.4743   -1.7779   -4.7727 H   0  0  0  0  0  0  0  0  0  0  0  0
    1.1259   -1.9945   -3.2744 H   0  0  0  0  0  0  0  0  0  0  0  0
   -0.5564    0.0727    2.1744 C   0  0  0  0  0  0  0  0  0  0  0  0
    0.6169   -0.1288    2.4805 O   0  0  0  0  0  0  0  0  0  0  0  0
   -1.4759    0.4743    3.0595 N   0  0  0  0  0  0  0  0  0  0  0  0
   -2.4132    0.6318    2.7275 H   0  0  0  0  0  0  0  0  0  0  0  0
   -1.1971    0.7118    4.4750 C   0  0  0  0  0  0  0  0  0  0  0  0
   -0.3779    1.4272    4.5748 H   0  0  0  0  0  0  0  0  0  0  0  0
   -2.0826    1.1064    4.9754 H   0  0  0  0  0  0  0  0  0  0  0  0
   -0.8992   -0.2240    4.9525 H   0  0  0  0  0  0  0  0  0  0  0  0
  5  6  2  0  0  0  0
  5  7  1  0  0  0  0
  2  3  1  0  0  0  0
  2  4  1  0  0  0  0
  2  5  1  0  0  0  0
  1  2  1  0  0  0  0
 26 27  2  0  0  0  0
 26 28  1  0  0  0  0
 23 24  1  0  0  0  0
 23 25  1  0  0  0  0
 20 21  1  0  0  0  0
 20 22  1  0  0  0  0
 20 23  1  0  0  0  0
 17 18  1  0  0  0  0
 17 19  1  0  0  0  0
 17 20  1  0  0  0  0
 14 15  1  0  0  0  0
 14 16  1  0  0  0  0
 14 17  1  0  0  0  0
 11 12  1  0  0  0  0
 11 13  1  0  0  0  0
 11 14  1  0  0  0  0
  9 10  1  0  0  0  0
  9 11  1  0  0  0  0
  9 26  1  0  0  0  0
  7  8  1  0  0  0  0
  7  9  1  0  0  0  0
 30 31  1  0  0  0  0
 30 32  1  0  0  0  0
 30 33  1  0  0  0  0
 28 29  1  0  0  0  0
 28 30  1  0  0  0  0
M  END
$$$$
default_name
  -OEChem-02102213163D

 33 32  0     1  0  0  0  0  0999 V2000
   -3.8420   -3.6918    1.5562 H   0  0  0  0  0  0  0  0  0  0  0  0
   -3.8430   -2.7008    1.1032 C   0  0  0  0  0  0  0  0  0  0  0  0
   -4.5510   -2.0608    1.6242 H   0  0  0  0  0  0  0  0  0  0  0  0
   -4.1140   -2.7798    0.0522 H   0  0  0  0  0  0  0  0  0  0  0  0
   -2.4570   -2.1098    1.2172 C   0  0  0  0  0  0  0  0  0  0  0  0
   -1.5600   -2.7438    1.7572 O   0  0  0  0  0  0  0  0  0  0  0  0
   -2.2870   -0.8898    0.7102 N   0  0  0  0  0  0  0  0  0  0  0  0
   -3.0820   -0.4218    0.2992 H   0  0  0  0  0  0  0  0  0  0  0  0
   -1.0240   -0.1468    0.7262 C   0  0  1  0  0  0  0  0  0  0  0  0
   -0.2680   -0.7367    0.2062 H   0  0  0  0  0  0  0  0  0  0  0  0
   -1.2212    1.1806   -0.0314 C   0  0  0  0  0  0  0  0  0  0  0  0
   -2.2610    1.4940    0.0822 H   0  0  0  0  0  0  0  0  0  0  0  0
   -0.5842    1.9466    0.4132 H   0  0  0  0  0  0  0  0  0  0  0  0
   -0.9135    1.0751   -1.5333 C   0  0  0  0  0  0  0  0  0  0  0  0
   -1.6954    1.5779   -2.1033 H   0  0  0  0  0  0  0  0  0  0  0  0
    0.0442    1.5570   -1.7382 H   0  0  0  0  0  0  0  0  0  0  0  0
   -0.8453   -0.3907   -1.9764 C   0  0  0  0  0  0  0  0  0  0  0  0
   -0.0720   -0.9095   -1.4089 H   0  0  0  0  0  0  0  0  0  0  0  0
   -1.8077   -0.8703   -1.7956 H   0  0  0  0  0  0  0  0  0  0  0  0
   -0.5142   -0.4673   -3.4655 C   0  0  0  0  0  0  0  0  0  0  0  0
   -1.2947    0.0341   -4.0356 H   0  0  0  0  0  0  0  0  0  0  0  0
    0.4382    0.0269   -3.6506 H   0  0  0  0  0  0  0  0  0  0  0  0
   -0.4177   -1.8597   -3.9185 N   0  0  0  0  0  0  0  0  0  0  0  0
   -0.2123   -1.8724   -4.9067 H   0  0  0  0  0  0  0  0  0  0  0  0
    0.3267   -2.3210   -3.4152 H   0  0  0  0  0  0  0  0  0  0  0  0
   -0.5564    0.0727    2.1744 C   0  0  0  0  0  0  0  0  0  0  0  0
    0.6169   -0.1288    2.4805 O   0  0  0  0  0  0  0  0  0  0  0  0
   -1.4759    0.4743    3.0595 N   0  0  0  0  0  0  0  0  0  0  0  0
   -2.4132    0.6318    2.7275 H   0  0  0  0  0  0  0  0  0  0  0  0
   -1.1971    0.7118    4.4750 C   0  0  0  0  0  0  0  0  0  0  0  0
   -0.3779    1.4272    4.5748 H   0  0  0  0  0  0  0  0  0  0  0  0
   -2.0826    1.1064    4.9754 H   0  0  0  0  0  0  0  0  0  0  0  0
   -0.8992   -0.2240    4.9525 H   0  0  0  0  0  0  0  0  0  0  0  0
  5  6  2  0  0  0  0
  5  7  1  0  0  0  0
  2  3  1  0  0  0  0
  2  4  1  0  0  0  0
  2  5  1  0  0  0  0
  1  2  1  0  0  0  0
 26 27  2  0  0  0  0
 26 28  1  0  0  0  0
 23 24  1  0  0  0  0
 23 25  1  0  0  0  0
 20 21  1  0  0  0  0
 20 22  1  0  0  0  0
 20 23  1  0  0  0  0
 17 18  1  0  0  0  0
 17 19  1  0  0  0  0
 17 20  1  0  0  0  0
 14 15  1  0  0  0  0
 14 16  1  0  0  0  0
 14 17  1  0  0  0  0
 11 12  1  0  0  0  0
 11 13  1  0  0  0  0
 11 14  1  0  0  0  0
  9 10  1  0  0  0  0
  9 11  1  0  0  0  0
  9 26  1  0  0  0  0
  7  8  1  0  0  0  0
  7  9  1  0  0  0  0
 30 31  1  0  0  0  0
 30 32  1  0  0  0  0
 30 33  1  0  0  0  0
 28 29  1  0  0  0  0
 28 30  1  0  0  0  0
M  END
$$$$
default_name
  -OEChem-02102213163D

 33 32  0     1  0  0  0  0  0999 V2000
   -3.8420   -3.6918    1.5562 H   0  0  0  0  0  0  0  0  0  0  0  0
   -3.8430   -2.7008    1.1032 C   0  0  0  0  0  0  0  0  0  0  0  0
   -4.5510   -2.0608    1.6242 H   0  0  0  0  0  0  0  0  0  0  0  0
   -4.1140   -2.7798    0.0522 H   0  0  0  0  0  0  0  0  0  0  0  0
   -2.4570   -2.1098    1.2172 C   0  0  0  0  0  0  0  0  0  0  0  0
   -1.5600   -2.7438    1.7572 O   0  0  0  0  0  0  0  0  0  0  0  0
   -2.2870   -0.8898    0.7102 N   0  0  0  0  0  0  0  0  0  0  0  0
   -3.0820   -0.4218    0.2992 H   0  0  0  0  0  0  0  0  0  0  0  0
   -1.0240   -0.1468    0.7262 C   0  0  1  0  0  0  0  0  0  0  0  0
   -0.2680   -0.7367    0.2062 H   0  0  0  0  0  0  0  0  0  0  0  0
   -1.2212    1.1806   -0.0314 C   0  0  0  0  0  0  0  0  0  0  0  0
   -2.2610    1.4940    0.0822 H   0  0  0  0  0  0  0  0  0  0  0  0
   -0.5842    1.9466    0.4132 H   0  0  0  0  0  0  0  0  0  0  0  0
   -0.9135    1.0751   -1.5333 C   0  0  0  0  0  0  0  0  0  0  0  0
   -1.5289    1.7872   -2.0839 H   0  0  0  0  0  0  0  0  0  0  0  0
    0.1395    1.3081   -1.7012 H   0  0  0  0  0  0  0  0  0  0  0  0
   -1.2068   -0.3364   -2.0542 C   0  0  0  0  0  0  0  0  0  0  0  0
   -0.6037   -1.0616   -1.5071 H   0  0  0  0  0  0  0  0  0  0  0  0
   -2.2632   -0.5648   -1.9104 H   0  0  0  0  0  0  0  0  0  0  0  0
   -0.8695   -0.4205   -3.5416 C   0  0  0  0  0  0  0  0  0  0  0  0
   -1.4839    0.2900   -4.0923 H   0  0  0  0  0  0  0  0  0  0  0  0
    0.1810   -0.1753   -3.6890 H   0  0  0  0  0  0  0  0  0  0  0  0
   -1.1167   -1.7677   -4.0681 N   0  0  0  0  0  0  0  0  0  0  0  0
   -0.8971   -1.7831   -5.0533 H   0  0  0  0  0  0  0  0  0  0  0  0
   -0.5254   -2.4269   -3.5823 H   0  0  0  0  0  0  0  0  0  0  0  0
   -0.5564    0.0727    2.1744 C   0  0  0  0  0  0  0  0  0  0  0  0
    0.6169   -0.1288    2.4805 O   0  0  0  0  0  0  0  0  0  0  0  0
   -1.4759    0.4743    3.0595 N   0  0  0  0  0  0  0  0  0  0  0  0
   -2.4132    0.6318    2.7275 H   0  0  0  0  0  0  0  0  0  0  0  0
   -1.1971    0.7118    4.4750 C   0  0  0  0  0  0  0  0  0  0  0  0
   -0.3779    1.4272    4.5748 H   0  0  0  0  0  0  0  0  0  0  0  0
   -2.0826    1.1064    4.9754 H   0  0  0  0  0  0  0  0  0  0  0  0
   -0.8992   -0.2240    4.9525 H   0  0  0  0  0  0  0  0  0  0  0  0
  5  6  2  0  0  0  0
  5  7  1  0  0  0  0
  2  3  1  0  0  0  0
  2  4  1  0  0  0  0
  2  5  1  0  0  0  0
  1  2  1  0  0  0  0
 26 27  2  0  0  0  0
 26 28  1  0  0  0  0
 23 24  1  0  0  0  0
 23 25  1  0  0  0  0
 20 21  1  0  0  0  0
 20 22  1  0  0  0  0
 20 23  1  0  0  0  0
 17 18  1  0  0  0  0
 17 19  1  0  0  0  0
 17 20  1  0  0  0  0
 14 15  1  0  0  0  0
 14 16  1  0  0  0  0
 14 17  1  0  0  0  0
 11 12  1  0  0  0  0
 11 13  1  0  0  0  0
 11 14  1  0  0  0  0
  9 10  1  0  0  0  0
  9 11  1  0  0  0  0
  9 26  1  0  0  0  0
  7  8  1  0  0  0  0
  7  9  1  0  0  0  0
 30 31  1  0  0  0  0
 30 32  1  0  0  0  0
 30 33  1  0  0  0  0
 28 29  1  0  0  0  0
 28 30  1  0  0  0  0
M  END
$$$$
default_name
  -OEChem-02102213163D

 33 32  0     1  0  0  0  0  0999 V2000
   -3.8420   -3.6918    1.5562 H   0  0  0  0  0  0  0  0  0  0  0  0
   -3.8430   -2.7008    1.1032 C   0  0  0  0  0  0  0  0  0  0  0  0
   -4.5510   -2.0608    1.6242 H   0  0  0  0  0  0  0  0  0  0  0  0
   -4.1140   -2.7798    0.0522 H   0  0  0  0  0  0  0  0  0  0  0  0
   -2.4570   -2.1098    1.2172 C   0  0  0  0  0  0  0  0  0  0  0  0
   -1.5600   -2.7438    1.7572 O   0  0  0  0  0  0  0  0  0  0  0  0
   -2.2870   -0.8898    0.7102 N   0  0  0  0  0  0  0  0  0  0  0  0
   -3.0820   -0.4218    0.2992 H   0  0  0  0  0  0  0  0  0  0  0  0
   -1.0240   -0.1468    0.7262 C   0  0  1  0  0  0  0  0  0  0  0  0
   -0.2680   -0.7367    0.2062 H   0  0  0  0  0  0  0  0  0  0  0  0
   -1.2212    1.1806   -0.0314 C   0  0  0  0  0  0  0  0  0  0  0  0
   -2.2610    1.4940    0.0822 H   0  0  0  0  0  0  0  0  0  0  0  0
   -0.5842    1.9466    0.4132 H   0  0  0  0  0  0  0  0  0  0  0  0
   -0.9135    1.0751   -1.5333 C   0  0  0  0  0  0  0  0  0  0  0  0
   -1.3156    1.9463   -2.0513 H   0  0  0  0  0  0  0  0  0  0  0  0
    0.1680    1.0416   -1.6767 H   0  0  0  0  0  0  0  0  0  0  0  0
   -1.5409   -0.1884   -2.1331 C   0  0  0  0  0  0  0  0  0  0  0  0
   -1.1540   -1.0689   -1.6193 H   0  0  0  0  0  0  0  0  0  0  0  0
   -2.6239   -0.1484   -2.0135 H   0  0  0  0  0  0  0  0  0  0  0  0
   -1.1995   -0.2814   -3.6190 C   0  0  0  0  0  0  0  0  0  0  0  0
   -1.6010    0.5879   -4.1373 H   0  0  0  0  0  0  0  0  0  0  0  0
   -0.1178   -0.3035   -3.7413 H   0  0  0  0  0  0  0  0  0  0  0  0
   -1.7659   -1.4942   -4.2203 N   0  0  0  0  0  0  0  0  0  0  0  0
   -1.5333   -1.5160   -5.2024 H   0  0  0  0  0  0  0  0  0  0  0  0
   -1.3723   -2.3051   -3.7643 H   0  0  0  0  0  0  0  0  0  0  0  0
   -0.5564    0.0727    2.1744 C   0  0  0  0  0  0  0  0  0  0  0  0
    0.6169   -0.1288    2.4805 O   0  0  0  0  0  0  0  0  0  0  0  0
   -1.4759    0.4743    3.0595 N   0  0  0  0  0  0  0  0  0  0  0  0
   -2.4132    0.6318    2.7275 H   0  0  0  0  0  0  0  0  0  0  0  0
   -1.1971    0.7118    4.4750 C   0  0  0  0  0  0  0  0  0  0  0  0
   -0.3779    1.4272    4.5748 H   0  0  0  0  0  0  0  0  0  0  0  0
   -2.0826    1.1064    4.9754 H   0  0  0  0  0  0  0  0  0  0  0  0
   -0.8992   -0.2240    4.9525 H   0  0  0  0  0  0  0  0  0  0  0  0
  5  6  2  0  0  0  0
  5  7  1  0  0  0  0
  2  3  1  0  0  0  0
  2  4  1  0  0  0  0
  2  5  1  0  0  0  0
  1  2  1  0  0  0  0
 26 27  2  0  0  0  0
 26 28  1  0  0  0  0
 23 24  1  0  0  0  0
 23 25  1  0  0  0  0
 20 21  1  0  0  0  0
 20 22  1  0  0  0  0
 20 23  1  0  0  0  0
 17 18  1  0  0  0  0
 17 19  1  0  0  0  0
 17 20  1  0  0  0  0
 14 15  1  0  0  0  0
 14 16  1  0  0  0  0
 14 17  1  0  0  0  0
 11 12  1  0  0  0  0
 11 13  1  0  0  0  0
 11 14  1  0  0  0  0
  9 10  1  0  0  0  0
  9 11  1  0  0  0  0
  9 26  1  0  0  0  0
  7  8  1  0  0  0  0
  7  9  1  0  0  0  0
 30 31  1  0  0  0  0
 30 32  1  0  0  0  0
 30 33  1  0  0  0  0
 28 29  1  0  0  0  0
 28 30  1  0  0  0  0
M  END
$$$$
default_name
  -OEChem-02102213163D

 33 32  0     1  0  0  0  0  0999 V2000
   -3.8420   -3.6918    1.5562 H   0  0  0  0  0  0  0  0  0  0  0  0
   -3.8430   -2.7008    1.1032 C   0  0  0  0  0  0  0  0  0  0  0  0
   -4.5510   -2.0608    1.6242 H   0  0  0  0  0  0  0  0  0  0  0  0
   -4.1140   -2.7798    0.0522 H   0  0  0  0  0  0  0  0  0  0  0  0
   -2.4570   -2.1098    1.2172 C   0  0  0  0  0  0  0  0  0  0  0  0
   -1.5600   -2.7438    1.7572 O   0  0  0  0  0  0  0  0  0  0  0  0
   -2.2870   -0.8898    0.7102 N   0  0  0  0  0  0  0  0  0  0  0  0
   -3.0820   -0.4218    0.2992 H   0  0  0  0  0  0  0  0  0  0  0  0
   -1.0240   -0.1468    0.7262 C   0  0  1  0  0  0  0  0  0  0  0  0
   -0.2680   -0.7367    0.2062 H   0  0  0  0  0  0  0  0  0  0  0  0
   -1.2212    1.1806   -0.0314 C   0  0  0  0  0  0  0  0  0  0  0  0
   -2.2610    1.4940    0.0822 H   0  0  0  0  0  0  0  0  0  0  0  0
   -0.5842    1.9466    0.4132 H   0  0  0  0  0  0  0  0  0  0  0  0
   -0.9135    1.0751   -1.5333 C   0  0  0  0  0  0  0  0  0  0  0  0
   -1.0698    2.0443   -2.0079 H   0  0  0  0  0  0  0  0  0  0  0  0
    0.1277    0.7758   -1.6662 H   0  0  0  0  0  0  0  0  0  0  0  0
   -1.8247    0.0432   -2.2075 C   0  0  0  0  0  0  0  0  0  0  0  0
   -1.6854   -0.9310   -1.7379 H   0  0  0  0  0  0  0  0  0  0  0  0
   -2.8652    0.3503   -2.0980 H   0  0  0  0  0  0  0  0  0  0  0  0
   -1.4817   -0.0597   -3.6924 C   0  0  0  0  0  0  0  0  0  0  0  0
   -1.6379    0.9076   -4.1673 H   0  0  0  0  0  0  0  0  0  0  0  0
   -0.4380   -0.3490   -3.8036 H   0  0  0  0  0  0  0  0  0  0  0  0
   -2.3211   -1.0580   -4.3647 N   0  0  0  0  0  0  0  0  0  0  0  0
   -2.0776   -1.0893   -5.3438 H   0  0  0  0  0  0  0  0  0  0  0  0
   -2.1562   -1.9637   -3.9488 H   0  0  0  0  0  0  0  0  0  0  0  0
   -0.5564    0.0727    2.1744 C   0  0  0  0  0  0  0  0  0  0  0  0
    0.6169   -0.1288    2.4805 O   0  0  0  0  0  0  0  0  0  0  0  0
   -1.4759    0.4743    3.0595 N   0  0  0  0  0  0  0  0  0  0  0  0
   -2.4132    0.6318    2.7275 H   0  0  0  0  0  0  0  0  0  0  0  0
   -1.1971    0.7118    4.4750 C   0  0  0  0  0  0  0  0  0  0  0  0
   -0.3779    1.4272    4.5748 H   0  0  0  0  0  0  0  0  0  0  0  0
   -2.0826    1.1064    4.9754 H   0  0  0  0  0  0  0  0  0  0  0  0
   -0.8992   -0.2240    4.9525 H   0  0  0  0  0  0  0  0  0  0  0  0
  5  6  2  0  0  0  0
  5  7  1  0  0  0  0
  2  3  1  0  0  0  0
  2  4  1  0  0  0  0
  2  5  1  0  0  0  0
  1  2  1  0  0  0  0
 26 27  2  0  0  0  0
 26 28  1  0  0  0  0
 23 24  1  0  0  0  0
 23 25  1  0  0  0  0
 20 21  1  0  0  0  0
 20 22  1  0  0  0  0
 20 23  1  0  0  0  0
 17 18  1  0  0  0  0
 17 19  1  0  0  0  0
 17 20  1  0  0  0  0
 14 15  1  0  0  0  0
 14 16  1  0  0  0  0
 14 17  1  0  0  0  0
 11 12  1  0  0  0  0
 11 13  1  0  0  0  0
 11 14  1  0  0  0  0
  9 10  1  0  0  0  0
  9 11  1  0  0  0  0
  9 26  1  0  0  0  0
  7  8  1  0  0  0  0
  7  9  1  0  0  0  0
 30 31  1  0  0  0  0
 30 32  1  0  0  0  0
 30 33  1  0  0  0  0
 28 29  1  0  0  0  0
 28 30  1  0  0  0  0
M  END
$$$$
default_name
  -OEChem-02102213163D

 33 32  0     1  0  0  0  0  0999 V2000
   -3.8420   -3.6918    1.5562 H   0  0  0  0  0  0  0  0  0  0  0  0
   -3.8430   -2.7008    1.1032 C   0  0  0  0  0  0  0  0  0  0  0  0
   -4.5510   -2.0608    1.6242 H   0  0  0  0  0  0  0  0  0  0  0  0
   -4.1140   -2.7798    0.0522 H   0  0  0  0  0  0  0  0  0  0  0  0
   -2.4570   -2.1098    1.2172 C   0  0  0  0  0  0  0  0  0  0  0  0
   -1.5600   -2.7438    1.7572 O   0  0  0  0  0  0  0  0  0  0  0  0
   -2.2870   -0.8898    0.7102 N   0  0  0  0  0  0  0  0  0  0  0  0
   -3.0820   -0.4218    0.2992 H   0  0  0  0  0  0  0  0  0  0  0  0
   -1.0240   -0.1468    0.7262 C   0  0  1  0  0  0  0  0  0  0  0  0
   -0.2680   -0.7367    0.2062 H   0  0  0  0  0  0  0  0  0  0  0  0
   -1.2212    1.1806   -0.0314 C   0  0  0  0  0  0  0  0  0  0  0  0
   -2.2610    1.4940    0.0822 H   0  0  0  0  0  0  0  0  0  0  0  0
   -0.5842    1.9466    0.4132 H   0  0  0  0  0  0  0  0  0  0  0  0
   -0.9135    1.0751   -1.5333 C   0  0  0  0  0  0  0  0  0  0  0  0
   -0.8084    2.0745   -1.9565 H   0  0  0  0  0  0  0  0  0  0  0  0
    0.0213    0.5286   -1.6707 H   0  0  0  0  0  0  0  0  0  0  0  0
   -2.0390    0.3425   -2.2724 C   0  0  0  0  0  0  0  0  0  0  0  0
   -2.1617   -0.6573   -1.8547 H   0  0  0  0  0  0  0  0  0  0  0  0
   -2.9706    0.8975   -2.1580 H   0  0  0  0  0  0  0  0  0  0  0  0
   -1.6969    0.2297   -3.7568 C   0  0  0  0  0  0  0  0  0  0  0  0
   -1.5921    1.2273   -4.1804 H   0  0  0  0  0  0  0  0  0  0  0  0
   -0.7576   -0.3088   -3.8719 H   0  0  0  0  0  0  0  0  0  0  0  0
   -2.7444   -0.4887   -4.4914 N   0  0  0  0  0  0  0  0  0  0  0  0
   -2.4929   -0.5322   -5.4680 H   0  0  0  0  0  0  0  0  0  0  0  0
   -2.8238   -1.4260   -4.1234 H   0  0  0  0  0  0  0  0  0  0  0  0
   -0.5564    0.0727    2.1744 C   0  0  0  0  0  0  0  0  0  0  0  0
    0.6169   -0.1288    2.4805 O   0  0  0  0  0  0  0  0  0  0  0  0
   -1.4759    0.4743    3.0595 N   0  0  0  0  0  0  0  0  0  0  0  0
   -2.4132    0.6318    2.7275 H   0  0  0  0  0  0  0  0  0  0  0  0
   -1.1971    0.7118    4.4750 C   0  0  0  0  0  0  0  0  0  0  0  0
   -0.3779    1.4272    4.5748 H   0  0  0  0  0  0  0  0  0  0  0  0
   -2.0826    1.1064    4.9754 H   0  0  0  0  0  0  0  0  0  0  0  0
   -0.8992   -0.2240    4.9525 H   0  0  0  0  0  0  0  0  0  0  0  0
  5  6  2  0  0  0  0
  5  7  1  0  0  0  0
  2  3  1  0  0  0  0
  2  4  1  0  0  0  0
  2  5  1  0  0  0  0
  1  2  1  0  0  0  0
 26 27  2  0  0  0  0
 26 28  1  0  0  0  0
 23 24  1  0  0  0  0
 23 25  1  0  0  0  0
 20 21  1  0  0  0  0
 20 22  1  0  0  0  0
 20 23  1  0  0  0  0
 17 18  1  0  0  0  0
 17 19  1  0  0  0  0
 17 20  1  0  0  0  0
 14 15  1  0  0  0  0
 14 16  1  0  0  0  0
 14 17  1  0  0  0  0
 11 12  1  0  0  0  0
 11 13  1  0  0  0  0
 11 14  1  0  0  0  0
  9 10  1  0  0  0  0
  9 11  1  0  0  0  0
  9 26  1  0  0  0  0
  7  8  1  0  0  0  0
  7  9  1  0  0  0  0
 30 31  1  0  0  0  0
 30 32  1  0  0  0  0
 30 33  1  0  0  0  0
 28 29  1  0  0  0  0
 28 30  1  0  0  0  0
M  END
$$$$
default_name
  -OEChem-02102213163D

 33 32  0     1  0  0  0  0  0999 V2000
   -3.8420   -3.6918    1.5562 H   0  0  0  0  0  0  0  0  0  0  0  0
   -3.8430   -2.7008    1.1032 C   0  0  0  0  0  0  0  0  0  0  0  0
   -4.5510   -2.0608    1.6242 H   0  0  0  0  0  0  0  0  0  0  0  0
   -4.1140   -2.7798    0.0522 H   0  0  0  0  0  0  0  0  0  0  0  0
   -2.4570   -2.1098    1.2172 C   0  0  0  0  0  0  0  0  0  0  0  0
   -1.5600   -2.7438    1.7572 O   0  0  0  0  0  0  0  0  0  0  0  0
   -2.2870   -0.8898    0.7102 N   0  0  0  0  0  0  0  0  0  0  0  0
   -3.0820   -0.4218    0.2992 H   0  0  0  0  0  0  0  0  0  0  0  0
   -1.0240   -0.1468    0.7262 C   0  0  1  0  0  0  0  0  0  0  0  0
   -0.2680   -0.7367    0.2062 H   0  0  0  0  0  0  0  0  0  0  0  0
   -1.2212    1.1806   -0.0314 C   0  0  0  0  0  0  0  0  0  0  0  0
   -2.2610    1.4940    0.0822 H   0  0  0  0  0  0  0  0  0  0  0  0
   -0.5842    1.9466    0.4132 H   0  0  0  0  0  0  0  0  0  0  0  0
   -0.9135    1.0751   -1.5333 C   0  0  0  0  0  0  0  0  0  0  0  0
   -0.5492    2.0349   -1.9006 H   0  0  0  0  0  0  0  0  0  0  0  0
   -0.1439    0.3171   -1.6897 H   0  0  0  0  0  0  0  0  0  0  0  0
   -2.1691    0.6891   -2.3234 C   0  0  0  0  0  0  0  0  0  0  0  0
   -2.5504   -0.2663   -1.9617 H   0  0  0  0  0  0  0  0  0  0  0  0
   -2.9329    1.4557   -2.1895 H   0  0  0  0  0  0  0  0  0  0  0  0
   -1.8304    0.5670   -3.8078 C   0  0  0  0  0  0  0  0  0  0  0  0
   -1.4668    1.5252   -4.1756 H   0  0  0  0  0  0  0  0  0  0  0  0
   -1.0550   -0.1855   -3.9415 H   0  0  0  0  0  0  0  0  0  0  0  0
   -3.0071    0.1748   -4.5918 N   0  0  0  0  0  0  0  0  0  0  0  0
   -2.7509    0.1174   -5.5665 H   0  0  0  0  0  0  0  0  0  0  0  0
   -3.3296   -0.7288   -4.2759 H   0  0  0  0  0  0  0  0  0  0  0  0
   -0.5564    0.0727    2.1744 C   0  0  0  0  0  0  0  0  0  0  0  0
    0.6169   -0.1288    2.4805 O   0  0  0  0  0  0  0  0  0  0  0  0
   -1.4759    0.4743    3.0595 N   0  0  0  0  0  0  0  0  0  0  0  0
   -2.4132    0.6318    2.7275 H   0  0  0  0  0  0  0  0  0  0  0  0
   -1.1971    0.7118    4.4750 C   0  0  0  0  0  0  0  0  0  0  0  0
   -0.3779    1.4272    4.5748 H   0  0  0  0  0  0  0  0  0  0  0  0
   -2.0826    1.1064    4.9754 H   0  0  0  0  0  0  0  0  0  0  0  0
   -0.8992   -0.2240    4.9525 H   0  0  0  0  0  0  0  0  0  0  0  0
  5  6  2  0  0  0  0
  5  7  1  0  0  0  0
  2  3  1  0  0  0  0
  2  4  1  0  0  0  0
  2  5  1  0  0  0  0
  1  2  1  0  0  0  0
 26 27  2  0  0  0  0
 26 28  1  0  0  0  0
 23 24  1  0  0  0  0
 23 25  1  0  0  0  0
 20 21  1  0  0  0  0
 20 22  1  0  0  0  0
 20 23  1  0  0  0  0
 17 18  1  0  0  0  0
 17 19  1  0  0  0  0
 17 20  1  0  0  0  0
 14 15  1  0  0  0  0
 14 16  1  0  0  0  0
 14 17  1  0  0  0  0
 11 12  1  0  0  0  0
 11 13  1  0  0  0  0
 11 14  1  0  0  0  0
  9 10  1  0  0  0  0
  9 11  1  0  0  0  0
  9 26  1  0  0  0  0
  7  8  1  0  0  0  0
  7  9  1  0  0  0  0
 30 31  1  0  0  0  0
 30 32  1  0  0  0  0
 30 33  1  0  0  0  0
 28 29  1  0  0  0  0
 28 30  1  0  0  0  0
M  END
$$$$
default_name
  -OEChem-02102213163D

 33 32  0     1  0  0  0  0  0999 V2000
   -3.8420   -3.6918    1.5562 H   0  0  0  0  0  0  0  0  0  0  0  0
   -3.8430   -2.7008    1.1032 C   0  0  0  0  0  0  0  0  0  0  0  0
   -4.5510   -2.0608    1.6242 H   0  0  0  0  0  0  0  0  0  0  0  0
   -4.1140   -2.7798    0.0522 H   0  0  0  0  0  0  0  0  0  0  0  0
   -2.4570   -2.1098    1.2172 C   0  0  0  0  0  0  0  0  0  0  0  0
   -1.5600   -2.7438    1.7572 O   0  0  0  0  0  0  0  0  0  0  0  0
   -2.2870   -0.8898    0.7102 N   0  0  0  0  0  0  0  0  0  0  0  0
   -3.0820   -0.4218    0.2992 H   0  0  0  0  0  0  0  0  0  0  0  0
   -1.0240   -0.1468    0.7262 C   0  0  1  0  0  0  0  0  0  0  0  0
   -0.2680   -0.7367    0.2062 H   0  0  0  0  0  0  0  0  0  0  0  0
   -1.2212    1.1806   -0.0314 C   0  0  0  0  0  0  0  0  0  0  0  0
   -2.2610    1.4940    0.0822 H   0  0  0  0  0  0  0  0  0  0  0  0
   -0.5842    1.9466    0.4132 H   0  0  0  0  0  0  0  0  0  0  0  0
   -0.9135    1.0751   -1.5333 C   0  0  0  0  0  0  0  0  0  0  0  0
   -0.3098    1.9282   -1.8440 H   0  0  0  0  0  0  0  0  0  0  0  0
   -0.3567    0.1555   -1.7219 H   0  0  0  0  0  0  0  0  0  0  0  0
   -2.2062    1.0596   -2.3570 C   0  0  0  0  0  0  0  0  0  0  0  0
   -2.8251    0.2152   -2.0518 H   0  0  0  0  0  0  0  0  0  0  0  0
   -2.7547    1.9871   -2.1903 H   0  0  0  0  0  0  0  0  0  0  0  0
   -1.8731    0.9293   -3.8420 C   0  0  0  0  0  0  0  0  0  0  0  0
   -1.2705    1.7810   -4.1534 H   0  0  0  0  0  0  0  0  0  0  0  0
   -1.3099    0.0123   -4.0076 H   0  0  0  0  0  0  0  0  0  0  0  0
   -3.0912    0.8874   -4.6591 N   0  0  0  0  0  0  0  0  0  0  0  0
   -2.8341    0.8153   -5.6326 H   0  0  0  0  0  0  0  0  0  0  0  0
   -3.6390    0.0805   -4.3962 H   0  0  0  0  0  0  0  0  0  0  0  0
   -0.5564    0.0727    2.1744 C   0  0  0  0  0  0  0  0  0  0  0  0
    0.6169   -0.1288    2.4805 O   0  0  0  0  0  0  0  0  0  0  0  0
   -1.4759    0.4743    3.0595 N   0  0  0  0  0  0  0  0  0  0  0  0
   -2.4132    0.6318    2.7275 H   0  0  0  0  0  0  0  0  0  0  0  0
   -1.1971    0.7118    4.4750 C   0  0  0  0  0  0  0  0  0  0  0  0
   -0.3779    1.4272    4.5748 H   0  0  0  0  0  0  0  0  0  0  0  0
   -2.0826    1.1064    4.9754 H   0  0  0  0  0  0  0  0  0  0  0  0
   -0.8992   -0.2240    4.9525 H   0  0  0  0  0  0  0  0  0  0  0  0
  5  6  2  0  0  0  0
  5  7  1  0  0  0  0
  2  3  1  0  0  0  0
  2  4  1  0  0  0  0
  2  5  1  0  0  0  0
  1  2  1  0  0  0  0
 26 27  2  0  0  0  0
 26 28  1  0  0  0  0
 23 24  1  0  0  0  0
 23 25  1  0  0  0  0
 20 21  1  0  0  0  0
 20 22  1  0  0  0  0
 20 23  1  0  0  0  0
 17 18  1  0  0  0  0
 17 19  1  0  0  0  0
 17 20  1  0  0  0  0
 14 15  1  0  0  0  0
 14 16  1  0  0  0  0
 14 17  1  0  0  0  0
 11 12  1  0  0  0  0
 11 13  1  0  0  0  0
 11 14  1  0  0  0  0
  9 10  1  0  0  0  0
  9 11  1  0  0  0  0
  9 26  1  0  0  0  0
  7  8  1  0  0  0  0
  7  9  1  0  0  0  0
 30 31  1  0  0  0  0
 30 32  1  0  0  0  0
 30 33  1  0  0  0  0
 28 29  1  0  0  0  0
 28 30  1  0  0  0  0
M  END
$$$$
default_name
  -OEChem-02102213163D

 33 32  0     1  0  0  0  0  0999 V2000
   -3.8420   -3.6918    1.5562 H   0  0  0  0  0  0  0  0  0  0  0  0
   -3.8430   -2.7008    1.1032 C   0  0  0  0  0  0  0  0  0  0  0  0
   -4.5510   -2.0608    1.6242 H   0  0  0  0  0  0  0  0  0  0  0  0
   -4.1140   -2.7798    0.0522 H   0  0  0  0  0  0  0  0  0  0  0  0
   -2.4570   -2.1098    1.2172 C   0  0  0  0  0  0  0  0  0  0  0  0
   -1.5600   -2.7438    1.7572 O   0  0  0  0  0  0  0  0  0  0  0  0
   -2.2870   -0.8898    0.7102 N   0  0  0  0  0  0  0  0  0  0  0  0
   -3.0820   -0.4218    0.2992 H   0  0  0  0  0  0  0  0  0  0  0  0
   -1.0240   -0.1468    0.7262 C   0  0  1  0  0  0  0  0  0  0  0  0
   -0.2680   -0.7367    0.2062 H   0  0  0  0  0  0  0  0  0  0  0  0
   -1.2212    1.1806   -0.0314 C   0  0  0  0  0  0  0  0  0  0  0  0
   -2.2610    1.4940    0.0822 H   0  0  0  0  0  0  0  0  0  0  0  0
   -0.5842    1.9466    0.4132 H   0  0  0  0  0  0  0  0  0  0  0  0
   -0.9135    1.0751   -1.5333 C   0  0  0  0  0  0  0  0  0  0  0  0
   -0.1066    1.7617   -1.7907 H   0  0  0  0  0  0  0  0  0  0  0  0
   -0.6025    0.0549   -1.7652 H   0  0  0  0  0  0  0  0  0  0  0  0
   -2.1477    1.4285   -2.3709 C   0  0  0  0  0  0  0  0  0  0  0  0
   -2.9670    0.7545   -2.1188 H   0  0  0  0  0  0  0  0  0  0  0  0
   -2.4482    2.4553   -2.1604 H   0  0  0  0  0  0  0  0  0  0  0  0
   -1.8221    1.2917   -3.8570 C   0  0  0  0  0  0  0  0  0  0  0  0
   -1.0166    1.9773   -4.1151 H   0  0  0  0  0  0  0  0  0  0  0  0
   -1.5048    0.2714   -4.0657 H   0  0  0  0  0  0  0  0  0  0  0  0
   -2.9910    1.6005   -4.6886 N   0  0  0  0  0  0  0  0  0  0  0  0
   -2.7367    1.5139   -5.6617 H   0  0  0  0  0  0  0  0  0  0  0  0
   -3.7310    0.9467   -4.4759 H   0  0  0  0  0  0  0  0  0  0  0  0
   -0.5564    0.0727    2.1744 C   0  0  0  0  0  0  0  0  0  0  0  0
    0.6169   -0.1288    2.4805 O   0  0  0  0  0  0  0  0  0  0  0  0
   -1.4759    0.4743    3.0595 N   0  0  0  0  0  0  0  0  0  0  0  0
   -2.4132    0.6318    2.7275 H   0  0  0  0  0  0  0  0  0  0  0  0
   -1.1971    0.7118    4.4750 C   0  0  0  0  0  0  0  0  0  0  0  0
   -0.3779    1.4272    4.5748 H   0  0  0  0  0  0  0  0  0  0  0  0
   -2.0826    1.1064    4.9754 H   0  0  0  0  0  0  0  0  0  0  0  0
   -0.8992   -0.2240    4.9525 H   0  0  0  0  0  0  0  0  0  0  0  0
  5  6  2  0  0  0  0
  5  7  1  0  0  0  0
  2  3  1  0  0  0  0
  2  4  1  0  0  0  0
  2  5  1  0  0  0  0
  1  2  1  0  0  0  0
 26 27  2  0  0  0  0
 26 28  1  0  0  0  0
 23 24  1  0  0  0  0
 23 25  1  0  0  0  0
 20 21  1  0  0  0  0
 20 22  1  0  0  0  0
 20 23  1  0  0  0  0
 17 18  1  0  0  0  0
 17 19  1  0  0  0  0
 17 20  1  0  0  0  0
 14 15  1  0  0  0  0
 14 16  1  0  0  0  0
 14 17  1  0  0  0  0
 11 12  1  0  0  0  0
 11 13  1  0  0  0  0
 11 14  1  0  0  0  0
  9 10  1  0  0  0  0
  9 11  1  0  0  0  0
  9 26  1  0  0  0  0
  7  8  1  0  0  0  0
  7  9  1  0  0  0  0
 30 31  1  0  0  0  0
 30 32  1  0  0  0  0
 30 33  1  0  0  0  0
 28 29  1  0  0  0  0
 28 30  1  0  0  0  0
M  END
$$$$
default_name
  -OEChem-02102213163D

 33 32  0     1  0  0  0  0  0999 V2000
   -3.8420   -3.6918    1.5562 H   0  0  0  0  0  0  0  0  0  0  0  0
   -3.8430   -2.7008    1.1032 C   0  0  0  0  0  0  0  0  0  0  0  0
   -4.5510   -2.0608    1.6242 H   0  0  0  0  0  0  0  0  0  0  0  0
   -4.1140   -2.7798    0.0522 H   0  0  0  0  0  0  0  0  0  0  0  0
   -2.4570   -2.1098    1.2172 C   0  0  0  0  0  0  0  0  0  0  0  0
   -1.5600   -2.7438    1.7572 O   0  0  0  0  0  0  0  0  0  0  0  0
   -2.2870   -0.8898    0.7102 N   0  0  0  0  0  0  0  0  0  0  0  0
   -3.0820   -0.4218    0.2992 H   0  0  0  0  0  0  0  0  0  0  0  0
   -1.0240   -0.1468    0.7262 C   0  0  1  0  0  0  0  0  0  0  0  0
   -0.2680   -0.7367    0.2062 H   0  0  0  0  0  0  0  0  0  0  0  0
   -1.2212    1.1806   -0.0314 C   0  0  0  0  0  0  0  0  0  0  0  0
   -2.2610    1.4940    0.0822 H   0  0  0  0  0  0  0  0  0  0  0  0
   -0.5842    1.9466    0.4132 H   0  0  0  0  0  0  0  0  0  0  0  0
   -0.9135    1.0751   -1.5333 C   0  0  0  0  0  0  0  0  0  0  0  0
    0.0467    1.5467   -1.7442 H   0  0  0  0  0  0  0  0  0  0  0  0
   -0.8646    0.0221   -1.8166 H   0  0  0  0  0  0  0  0  0  0  0  0
   -1.9977    1.7708   -2.3642 C   0  0  0  0  0  0  0  0  0  0  0  0
   -2.9665    1.3148   -2.1580 H   0  0  0  0  0  0  0  0  0  0  0  0
   -2.0342    2.8285   -2.1018 H   0  0  0  0  0  0  0  0  0  0  0  0
   -1.6809    1.6297   -3.8518 C   0  0  0  0  0  0  0  0  0  0  0  0
   -0.7224    2.1007   -4.0635 H   0  0  0  0  0  0  0  0  0  0  0  0
   -1.6265    0.5739   -4.1119 H   0  0  0  0  0  0  0  0  0  0  0  0
   -2.7133    2.2654   -4.6785 N   0  0  0  0  0  0  0  0  0  0  0  0
   -2.4654    2.1655   -5.6519 H   0  0  0  0  0  0  0  0  0  0  0  0
   -3.5994    1.8108   -4.5096 H   0  0  0  0  0  0  0  0  0  0  0  0
   -0.5564    0.0727    2.1744 C   0  0  0  0  0  0  0  0  0  0  0  0
    0.6169   -0.1288    2.4805 O   0  0  0  0  0  0  0  0  0  0  0  0
   -1.4759    0.4743    3.0595 N   0  0  0  0  0  0  0  0  0  0  0  0
   -2.4132    0.6318    2.7275 H   0  0  0  0  0  0  0  0  0  0  0  0
   -1.1971    0.7118    4.4750 C   0  0  0  0  0  0  0  0  0  0  0  0
   -0.3779    1.4272    4.5748 H   0  0  0  0  0  0  0  0  0  0  0  0
   -2.0826    1.1064    4.9754 H   0  0  0  0  0  0  0  0  0  0  0  0
   -0.8992   -0.2240    4.9525 H   0  0  0  0  0  0  0  0  0  0  0  0
  5  6  2  0  0  0  0
  5  7  1  0  0  0  0
  2  3  1  0  0  0  0
  2  4  1  0  0  0  0
  2  5  1  0  0  0  0
  1  2  1  0  0  0  0
 26 27  2  0  0  0  0
 26 28  1  0  0  0  0
 23 24  1  0  0  0  0
 23 25  1  0  0  0  0
 20 21  1  0  0  0  0
 20 22  1  0  0  0  0
 20 23  1  0  0  0  0
 17 18  1  0  0  0  0
 17 19  1  0  0  0  0
 17 20  1  0  0  0  0
 14 15  1  0  0  0  0
 14 16  1  0  0  0  0
 14 17  1  0  0  0  0
 11 12  1  0  0  0  0
 11 13  1  0  0  0  0
 11 14  1  0  0  0  0
  9 10  1  0  0  0  0
  9 11  1  0  0  0  0
  9 26  1  0  0  0  0
  7  8  1  0  0  0  0
  7  9  1  0  0  0  0
 30 31  1  0  0  0  0
 30 32  1  0  0  0  0
 30 33  1  0  0  0  0
 28 29  1  0  0  0  0
 28 30  1  0  0  0  0
M  END
$$$$
default_name
  -OEChem-02102213163D

 33 32  0     1  0  0  0  0  0999 V2000
   -3.8420   -3.6918    1.5562 H   0  0  0  0  0  0  0  0  0  0  0  0
   -3.8430   -2.7008    1.1032 C   0  0  0  0  0  0  0  0  0  0  0  0
   -4.5510   -2.0608    1.6242 H   0  0  0  0  0  0  0  0  0  0  0  0
   -4.1140   -2.7798    0.0522 H   0  0  0  0  0  0  0  0  0  0  0  0
   -2.4570   -2.1098    1.2172 C   0  0  0  0  0  0  0  0  0  0  0  0
   -1.5600   -2.7438    1.7572 O   0  0  0  0  0  0  0  0  0  0  0  0
   -2.2870   -0.8898    0.7102 N   0  0  0  0  0  0  0  0  0  0  0  0
   -3.0820   -0.4218    0.2992 H   0  0  0  0  0  0  0  0  0  0  0  0
   -1.0240   -0.1468    0.7262 C   0  0  1  0  0  0  0  0  0  0  0  0
   -0.2680   -0.7367    0.2062 H   0  0  0  0  0  0  0  0  0  0  0  0
   -1.2212    1.1806   -0.0314 C   0  0  0  0  0  0  0  0  0  0  0  0
   -2.2610    1.4940    0.0822 H   0  0  0  0  0  0  0  0  0  0  0  0
   -0.5842    1.9466    0.4132 H   0  0  0  0  0  0  0  0  0  0  0  0
   -0.9135    1.0751   -1.5333 C   0  0  0  0  0  0  0  0  0  0  0  0
    0.1395    1.2978   -1.7077 H   0  0  0  0  0  0  0  0  0  0  0  0
   -1.1251    0.0595   -1.8726 H   0  0  0  0  0  0  0  0  0  0  0  0
   -1.7663    2.0631   -2.3374 C   0  0  0  0  0  0  0  0  0  0  0  0
   -2.8236    1.8579   -2.1669 H   0  0  0  0  0  0  0  0  0  0  0  0
   -1.5410    3.0812   -2.0185 H   0  0  0  0  0  0  0  0  0  0  0  0
   -1.4591    1.9202   -3.8268 C   0  0  0  0  0  0  0  0  0  0  0  0
   -0.4078    2.1428   -4.0021 H   0  0  0  0  0  0  0  0  0  0  0  0
   -1.6667    0.8993   -4.1430 H   0  0  0  0  0  0  0  0  0  0  0  0
   -2.2771    2.8370   -4.6293 N   0  0  0  0  0  0  0  0  0  0  0  0
   -2.0387    2.7258   -5.6038 H   0  0  0  0  0  0  0  0  0  0  0  0
   -3.2531    2.6139   -4.4951 H   0  0  0  0  0  0  0  0  0  0  0  0
   -0.5564    0.0727    2.1744 C   0  0  0  0  0  0  0  0  0  0  0  0
    0.6169   -0.1288    2.4805 O   0  0  0  0  0  0  0  0  0  0  0  0
   -1.4759    0.4743    3.0595 N   0  0  0  0  0  0  0  0  0  0  0  0
   -2.4132    0.6318    2.7275 H   0  0  0  0  0  0  0  0  0  0  0  0
   -1.1971    0.7118    4.4750 C   0  0  0  0  0  0  0  0  0  0  0  0
   -0.3779    1.4272    4.5748 H   0  0  0  0  0  0  0  0  0  0  0  0
   -2.0826    1.1064    4.9754 H   0  0  0  0  0  0  0  0  0  0  0  0
   -0.8992   -0.2240    4.9525 H   0  0  0  0  0  0  0  0  0  0  0  0
  5  6  2  0  0  0  0
  5  7  1  0  0  0  0
  2  3  1  0  0  0  0
  2  4  1  0  0  0  0
  2  5  1  0  0  0  0
  1  2  1  0  0  0  0
 26 27  2  0  0  0  0
 26 28  1  0  0  0  0
 23 24  1  0  0  0  0
 23 25  1  0  0  0  0
 20 21  1  0  0  0  0
 20 22  1  0  0  0  0
 20 23  1  0  0  0  0
 17 18  1  0  0  0  0
 17 19  1  0  0  0  0
 17 20  1  0  0  0  0
 14 15  1  0  0  0  0
 14 16  1  0  0  0  0
 14 17  1  0  0  0  0
 11 12  1  0  0  0  0
 11 13  1  0  0  0  0
 11 14  1  0  0  0  0
  9 10  1  0  0  0  0
  9 11  1  0  0  0  0
  9 26  1  0  0  0  0
  7  8  1  0  0  0  0
  7  9  1  0  0  0  0
 30 31  1  0  0  0  0
 30 32  1  0  0  0  0
 30 33  1  0  0  0  0
 28 29  1  0  0  0  0
 28 30  1  0  0  0  0
M  END
$$$$
default_name
  -OEChem-02102213163D

 33 32  0     1  0  0  0  0  0999 V2000
   -3.8420   -3.6918    1.5562 H   0  0  0  0  0  0  0  0  0  0  0  0
   -3.8430   -2.7008    1.1032 C   0  0  0  0  0  0  0  0  0  0  0  0
   -4.5510   -2.0608    1.6242 H   0  0  0  0  0  0  0  0  0  0  0  0
   -4.1140   -2.7798    0.0522 H   0  0  0  0  0  0  0  0  0  0  0  0
   -2.4570   -2.1098    1.2172 C   0  0  0  0  0  0  0  0  0  0  0  0
   -1.5600   -2.7438    1.7572 O   0  0  0  0  0  0  0  0  0  0  0  0
   -2.2870   -0.8898    0.7102 N   0  0  0  0  0  0  0  0  0  0  0  0
   -3.0820   -0.4218    0.2992 H   0  0  0  0  0  0  0  0  0  0  0  0
   -1.0240   -0.1468    0.7262 C   0  0  1  0  0  0  0  0  0  0  0  0
   -0.2680   -0.7367    0.2062 H   0  0  0  0  0  0  0  0  0  0  0  0
   -1.2212    1.1806   -0.0314 C   0  0  0  0  0  0  0  0  0  0  0  0
   -2.2610    1.4940    0.0822 H   0  0  0  0  0  0  0  0  0  0  0  0
   -0.5842    1.9466    0.4132 H   0  0  0  0  0  0  0  0  0  0  0  0
   -0.9135    1.0751   -1.5333 C   0  0  0  0  0  0  0  0  0  0  0  0
    0.1655    1.0320   -1.6837 H   0  0  0  0  0  0  0  0  0  0  0  0
   -1.3664    0.1643   -1.9293 H   0  0  0  0  0  0  0  0  0  0  0  0
   -1.4693    2.2855   -2.2922 C   0  0  0  0  0  0  0  0  0  0  0  0
   -2.5480    2.3467   -2.1448 H   0  0  0  0  0  0  0  0  0  0  0  0
   -1.0021    3.1962   -1.9162 H   0  0  0  0  0  0  0  0  0  0  0  0
   -1.1719    2.1434   -3.7836 C   0  0  0  0  0  0  0  0  0  0  0  0
   -0.0945    2.1007   -3.9349 H   0  0  0  0  0  0  0  0  0  0  0  0
   -1.6227    1.2254   -4.1569 H   0  0  0  0  0  0  0  0  0  0  0  0
   -1.7120    3.2761   -4.5443 N   0  0  0  0  0  0  0  0  0  0  0  0
   -1.4857    3.1566   -5.5208 H   0  0  0  0  0  0  0  0  0  0  0  0
   -2.7157    3.3014   -4.4333 H   0  0  0  0  0  0  0  0  0  0  0  0
   -0.5564    0.0727    2.1744 C   0  0  0  0  0  0  0  0  0  0  0  0
    0.6169   -0.1288    2.4805 O   0  0  0  0  0  0  0  0  0  0  0  0
   -1.4759    0.4743    3.0595 N   0  0  0  0  0  0  0  0  0  0  0  0
   -2.4132    0.6318    2.7275 H   0  0  0  0  0  0  0  0  0  0  0  0
   -1.1971    0.7118    4.4750 C   0  0  0  0  0  0  0  0  0  0  0  0
   -0.3779    1.4272    4.5748 H   0  0  0  0  0  0  0  0  0  0  0  0
   -2.0826    1.1064    4.9754 H   0  0  0  0  0  0  0  0  0  0  0  0
   -0.8992   -0.2240    4.9525 H   0  0  0  0  0  0  0  0  0  0  0  0
  5  6  2  0  0  0  0
  5  7  1  0  0  0  0
  2  3  1  0  0  0  0
  2  4  1  0  0  0  0
  2  5  1  0  0  0  0
  1  2  1  0  0  0  0
 26 27  2  0  0  0  0
 26 28  1  0  0  0  0
 23 24  1  0  0  0  0
 23 25  1  0  0  0  0
 20 21  1  0  0  0  0
 20 22  1  0  0  0  0
 20 23  1  0  0  0  0
 17 18  1  0  0  0  0
 17 19  1  0  0  0  0
 17 20  1  0  0  0  0
 14 15  1  0  0  0  0
 14 16  1  0  0  0  0
 14 17  1  0  0  0  0
 11 12  1  0  0  0  0
 11 13  1  0  0  0  0
 11 14  1  0  0  0  0
  9 10  1  0  0  0  0
  9 11  1  0  0  0  0
  9 26  1  0  0  0  0
  7  8  1  0  0  0  0
  7  9  1  0  0  0  0
 30 31  1  0  0  0  0
 30 32  1  0  0  0  0
 30 33  1  0  0  0  0
 28 29  1  0  0  0  0
 28 30  1  0  0  0  0
M  END
$$$$
default_name
  -OEChem-02102213163D

 33 32  0     1  0  0  0  0  0999 V2000
   -3.8420   -3.6918    1.5562 H   0  0  0  0  0  0  0  0  0  0  0  0
   -3.8430   -2.7008    1.1032 C   0  0  0  0  0  0  0  0  0  0  0  0
   -4.5510   -2.0608    1.6242 H   0  0  0  0  0  0  0  0  0  0  0  0
   -4.1140   -2.7798    0.0522 H   0  0  0  0  0  0  0  0  0  0  0  0
   -2.4570   -2.1098    1.2172 C   0  0  0  0  0  0  0  0  0  0  0  0
   -1.5600   -2.7438    1.7572 O   0  0  0  0  0  0  0  0  0  0  0  0
   -2.2870   -0.8898    0.7102 N   0  0  0  0  0  0  0  0  0  0  0  0
   -3.0820   -0.4218    0.2992 H   0  0  0  0  0  0  0  0  0  0  0  0
   -1.0240   -0.1468    0.7262 C   0  0  1  0  0  0  0  0  0  0  0  0
   -0.2680   -0.7367    0.2062 H   0  0  0  0  0  0  0  0  0  0  0  0
   -1.2212    1.1806   -0.0314 C   0  0  0  0  0  0  0  0  0  0  0  0
   -2.1619    1.6295    0.2940 H   0  0  0  0  0  0  0  0  0  0  0  0
   -0.4109    1.8647    0.2246 H   0  0  0  0  0  0  0  0  0  0  0  0
   -1.2749    1.0077   -1.5574 C   0  0  0  0  0  0  0  0  0  0  0  0
   -0.3427    0.5643   -1.9086 H   0  0  0  0  0  0  0  0  0  0  0  0
   -2.1044    0.3466   -1.8147 H   0  0  0  0  0  0  0  0  0  0  0  0
   -1.4720    2.3585   -2.2547 C   0  0  0  0  0  0  0  0  0  0  0  0
   -2.3976    2.8186   -1.9075 H   0  0  0  0  0  0  0  0  0  0  0  0
   -0.6334    3.0146   -2.0198 H   0  0  0  0  0  0  0  0  0  0  0  0
   -1.5467    2.1553   -3.7667 C   0  0  0  0  0  0  0  0  0  0  0  0
   -0.6160    1.7130   -4.1184 H   0  0  0  0  0  0  0  0  0  0  0  0
   -2.3727    1.4861   -4.0018 H   0  0  0  0  0  0  0  0  0  0  0  0
   -1.7591    3.4283   -4.4650 N   0  0  0  0  0  0  0  0  0  0  0  0
   -1.7893    3.2588   -5.4597 H   0  0  0  0  0  0  0  0  0  0  0  0
   -2.6373    3.8278   -4.1659 H   0  0  0  0  0  0  0  0  0  0  0  0
   -0.5564    0.0727    2.1744 C   0  0  0  0  0  0  0  0  0  0  0  0
    0.6169   -0.1288    2.4805 O   0  0  0  0  0  0  0  0  0  0  0  0
   -1.4759    0.4743    3.0595 N   0  0  0  0  0  0  0  0  0  0  0  0
   -2.4132    0.6318    2.7275 H   0  0  0  0  0  0  0  0  0  0  0  0
   -1.1971    0.7118    4.4750 C   0  0  0  0  0  0  0  0  0  0  0  0
   -0.3779    1.4272    4.5748 H   0  0  0  0  0  0  0  0  0  0  0  0
   -2.0826    1.1064    4.9754 H   0  0  0  0  0  0  0  0  0  0  0  0
   -0.8992   -0.2240    4.9525 H   0  0  0  0  0  0  0  0  0  0  0  0
  5  6  2  0  0  0  0
  5  7  1  0  0  0  0
  2  3  1  0  0  0  0
  2  4  1  0  0  0  0
  2  5  1  0  0  0  0
  1  2  1  0  0  0  0
 26 27  2  0  0  0  0
 26 28  1  0  0  0  0
 23 24  1  0  0  0  0
 23 25  1  0  0  0  0
 20 21  1  0  0  0  0
 20 22  1  0  0  0  0
 20 23  1  0  0  0  0
 17 18  1  0  0  0  0
 17 19  1  0  0  0  0
 17 20  1  0  0  0  0
 14 15  1  0  0  0  0
 14 16  1  0  0  0  0
 14 17  1  0  0  0  0
 11 12  1  0  0  0  0
 11 13  1  0  0  0  0
 11 14  1  0  0  0  0
  9 10  1  0  0  0  0
  9 11  1  0  0  0  0
  9 26  1  0  0  0  0
  7  8  1  0  0  0  0
  7  9  1  0  0  0  0
 30 31  1  0  0  0  0
 30 32  1  0  0  0  0
 30 33  1  0  0  0  0
 28 29  1  0  0  0  0
 28 30  1  0  0  0  0
M  END
$$$$
default_name
  -OEChem-02102213163D

 33 32  0     1  0  0  0  0  0999 V2000
   -3.8420   -3.6918    1.5562 H   0  0  0  0  0  0  0  0  0  0  0  0
   -3.8430   -2.7008    1.1032 C   0  0  0  0  0  0  0  0  0  0  0  0
   -4.5510   -2.0608    1.6242 H   0  0  0  0  0  0  0  0  0  0  0  0
   -4.1140   -2.7798    0.0522 H   0  0  0  0  0  0  0  0  0  0  0  0
   -2.4570   -2.1098    1.2172 C   0  0  0  0  0  0  0  0  0  0  0  0
   -1.5600   -2.7438    1.7572 O   0  0  0  0  0  0  0  0  0  0  0  0
   -2.2870   -0.8898    0.7102 N   0  0  0  0  0  0  0  0  0  0  0  0
   -3.0820   -0.4218    0.2992 H   0  0  0  0  0  0  0  0  0  0  0  0
   -1.0240   -0.1468    0.7262 C   0  0  1  0  0  0  0  0  0  0  0  0
   -0.2680   -0.7367    0.2062 H   0  0  0  0  0  0  0  0  0  0  0  0
   -1.2212    1.1806   -0.0314 C   0  0  0  0  0  0  0  0  0  0  0  0
   -2.1619    1.6295    0.2940 H   0  0  0  0  0  0  0  0  0  0  0  0
   -0.4109    1.8647    0.2246 H   0  0  0  0  0  0  0  0  0  0  0  0
   -1.2749    1.0077   -1.5574 C   0  0  0  0  0  0  0  0  0  0  0  0
   -0.4787    0.3352   -1.8778 H   0  0  0  0  0  0  0  0  0  0  0  0
   -2.2390    0.5786   -1.8363 H   0  0  0  0  0  0  0  0  0  0  0  0
   -1.0984    2.3547   -2.2674 C   0  0  0  0  0  0  0  0  0  0  0  0
   -1.8839    3.0416   -1.9509 H   0  0  0  0  0  0  0  0  0  0  0  0
   -0.1262    2.7764   -2.0107 H   0  0  0  0  0  0  0  0  0  0  0  0
   -1.1806    2.1581   -3.7799 C   0  0  0  0  0  0  0  0  0  0  0  0
   -0.3855    1.4870   -4.1010 H   0  0  0  0  0  0  0  0  0  0  0  0
   -2.1440    1.7206   -4.0364 H   0  0  0  0  0  0  0  0  0  0  0  0
   -1.0389    3.4339   -4.4910 N   0  0  0  0  0  0  0  0  0  0  0  0
   -1.0839    3.2651   -5.4852 H   0  0  0  0  0  0  0  0  0  0  0  0
   -1.7929    4.0493   -4.2208 H   0  0  0  0  0  0  0  0  0  0  0  0
   -0.5564    0.0727    2.1744 C   0  0  0  0  0  0  0  0  0  0  0  0
    0.6169   -0.1288    2.4805 O   0  0  0  0  0  0  0  0  0  0  0  0
   -1.4759    0.4743    3.0595 N   0  0  0  0  0  0  0  0  0  0  0  0
   -2.4132    0.6318    2.7275 H   0  0  0  0  0  0  0  0  0  0  0  0
   -1.1971    0.7118    4.4750 C   0  0  0  0  0  0  0  0  0  0  0  0
   -0.3779    1.4272    4.5748 H   0  0  0  0  0  0  0  0  0  0  0  0
   -2.0826    1.1064    4.9754 H   0  0  0  0  0  0  0  0  0  0  0  0
   -0.8992   -0.2240    4.9525 H   0  0  0  0  0  0  0  0  0  0  0  0
  5  6  2  0  0  0  0
  5  7  1  0  0  0  0
  2  3  1  0  0  0  0
  2  4  1  0  0  0  0
  2  5  1  0  0  0  0
  1  2  1  0  0  0  0
 26 27  2  0  0  0  0
 26 28  1  0  0  0  0
 23 24  1  0  0  0  0
 23 25  1  0  0  0  0
 20 21  1  0  0  0  0
 20 22  1  0  0  0  0
 20 23  1  0  0  0  0
 17 18  1  0  0  0  0
 17 19  1  0  0  0  0
 17 20  1  0  0  0  0
 14 15  1  0  0  0  0
 14 16  1  0  0  0  0
 14 17  1  0  0  0  0
 11 12  1  0  0  0  0
 11 13  1  0  0  0  0
 11 14  1  0  0  0  0
  9 10  1  0  0  0  0
  9 11  1  0  0  0  0
  9 26  1  0  0  0  0
  7  8  1  0  0  0  0
  7  9  1  0  0  0  0
 30 31  1  0  0  0  0
 30 32  1  0  0  0  0
 30 33  1  0  0  0  0
 28 29  1  0  0  0  0
 28 30  1  0  0  0  0
M  END
$$$$
default_name
  -OEChem-02102213163D

 33 32  0     1  0  0  0  0  0999 V2000
   -3.8420   -3.6918    1.5562 H   0  0  0  0  0  0  0  0  0  0  0  0
   -3.8430   -2.7008    1.1032 C   0  0  0  0  0  0  0  0  0  0  0  0
   -4.5510   -2.0608    1.6242 H   0  0  0  0  0  0  0  0  0  0  0  0
   -4.1140   -2.7798    0.0522 H   0  0  0  0  0  0  0  0  0  0  0  0
   -2.4570   -2.1098    1.2172 C   0  0  0  0  0  0  0  0  0  0  0  0
   -1.5600   -2.7438    1.7572 O   0  0  0  0  0  0  0  0  0  0  0  0
   -2.2870   -0.8898    0.7102 N   0  0  0  0  0  0  0  0  0  0  0  0
   -3.0820   -0.4218    0.2992 H   0  0  0  0  0  0  0  0  0  0  0  0
   -1.0240   -0.1468    0.7262 C   0  0  1  0  0  0  0  0  0  0  0  0
   -0.2680   -0.7367    0.2062 H   0  0  0  0  0  0  0  0  0  0  0  0
   -1.2212    1.1806   -0.0314 C   0  0  0  0  0  0  0  0  0  0  0  0
   -2.1619    1.6295    0.2940 H   0  0  0  0  0  0  0  0  0  0  0  0
   -0.4109    1.8647    0.2246 H   0  0  0  0  0  0  0  0  0  0  0  0
   -1.2749    1.0077   -1.5574 C   0  0  0  0  0  0  0  0  0  0  0  0
   -0.6697    0.1492   -1.8500 H   0  0  0  0  0  0  0  0  0  0  0  0
   -2.3088    0.8371   -1.8631 H   0  0  0  0  0  0  0  0  0  0  0  0
   -0.7382    2.2549   -2.2688 C   0  0  0  0  0  0  0  0  0  0  0  0
   -1.3292    3.1245   -1.9798 H   0  0  0  0  0  0  0  0  0  0  0  0
    0.3022    2.4160   -1.9849 H   0  0  0  0  0  0  0  0  0  0  0  0
   -0.8258    2.0666   -3.7821 C   0  0  0  0  0  0  0  0  0  0  0  0
   -0.2214    1.2097   -4.0753 H   0  0  0  0  0  0  0  0  0  0  0  0
   -1.8618    1.8880   -4.0653 H   0  0  0  0  0  0  0  0  0  0  0  0
   -0.3411    3.2539   -4.4952 N   0  0  0  0  0  0  0  0  0  0  0  0
   -0.4001    3.0895   -5.4894 H   0  0  0  0  0  0  0  0  0  0  0  0
   -0.9187    4.0458   -4.2512 H   0  0  0  0  0  0  0  0  0  0  0  0
   -0.5564    0.0727    2.1744 C   0  0  0  0  0  0  0  0  0  0  0  0
    0.6169   -0.1288    2.4805 O   0  0  0  0  0  0  0  0  0  0  0  0
   -1.4759    0.4743    3.0595 N   0  0  0  0  0  0  0  0  0  0  0  0
   -2.4132    0.6318    2.7275 H   0  0  0  0  0  0  0  0  0  0  0  0
   -1.1971    0.7118    4.4750 C   0  0  0  0  0  0  0  0  0  0  0  0
   -0.3779    1.4272    4.5748 H   0  0  0  0  0  0  0  0  0  0  0  0
   -2.0826    1.1064    4.9754 H   0  0  0  0  0  0  0  0  0  0  0  0
   -0.8992   -0.2240    4.9525 H   0  0  0  0  0  0  0  0  0  0  0  0
  5  6  2  0  0  0  0
  5  7  1  0  0  0  0
  2  3  1  0  0  0  0
  2  4  1  0  0  0  0
  2  5  1  0  0  0  0
  1  2  1  0  0  0  0
 26 27  2  0  0  0  0
 26 28  1  0  0  0  0
 23 24  1  0  0  0  0
 23 25  1  0  0  0  0
 20 21  1  0  0  0  0
 20 22  1  0  0  0  0
 20 23  1  0  0  0  0
 17 18  1  0  0  0  0
 17 19  1  0  0  0  0
 17 20  1  0  0  0  0
 14 15  1  0  0  0  0
 14 16  1  0  0  0  0
 14 17  1  0  0  0  0
 11 12  1  0  0  0  0
 11 13  1  0  0  0  0
 11 14  1  0  0  0  0
  9 10  1  0  0  0  0
  9 11  1  0  0  0  0
  9 26  1  0  0  0  0
  7  8  1  0  0  0  0
  7  9  1  0  0  0  0
 30 31  1  0  0  0  0
 30 32  1  0  0  0  0
 30 33  1  0  0  0  0
 28 29  1  0  0  0  0
 28 30  1  0  0  0  0
M  END
$$$$
default_name
  -OEChem-02102213163D

 33 32  0     1  0  0  0  0  0999 V2000
   -3.8420   -3.6918    1.5562 H   0  0  0  0  0  0  0  0  0  0  0  0
   -3.8430   -2.7008    1.1032 C   0  0  0  0  0  0  0  0  0  0  0  0
   -4.5510   -2.0608    1.6242 H   0  0  0  0  0  0  0  0  0  0  0  0
   -4.1140   -2.7798    0.0522 H   0  0  0  0  0  0  0  0  0  0  0  0
   -2.4570   -2.1098    1.2172 C   0  0  0  0  0  0  0  0  0  0  0  0
   -1.5600   -2.7438    1.7572 O   0  0  0  0  0  0  0  0  0  0  0  0
   -2.2870   -0.8898    0.7102 N   0  0  0  0  0  0  0  0  0  0  0  0
   -3.0820   -0.4218    0.2992 H   0  0  0  0  0  0  0  0  0  0  0  0
   -1.0240   -0.1468    0.7262 C   0  0  1  0  0  0  0  0  0  0  0  0
   -0.2680   -0.7367    0.2062 H   0  0  0  0  0  0  0  0  0  0  0  0
   -1.2212    1.1806   -0.0314 C   0  0  0  0  0  0  0  0  0  0  0  0
   -2.1619    1.6295    0.2940 H   0  0  0  0  0  0  0  0  0  0  0  0
   -0.4109    1.8647    0.2246 H   0  0  0  0  0  0  0  0  0  0  0  0
   -1.2749    1.0077   -1.5574 C   0  0  0  0  0  0  0  0  0  0  0  0
   -0.9029    0.0189   -1.8270 H   0  0  0  0  0  0  0  0  0  0  0  0
   -2.3089    1.1045   -1.8934 H   0  0  0  0  0  0  0  0  0  0  0  0
   -0.4159    2.0659   -2.2587 C   0  0  0  0  0  0  0  0  0  0  0  0
   -0.7712    3.0618   -1.9923 H   0  0  0  0  0  0  0  0  0  0  0  0
    0.6226    1.9580   -1.9443 H   0  0  0  0  0  0  0  0  0  0  0  0
   -0.5067    1.8870   -3.7730 C   0  0  0  0  0  0  0  0  0  0  0  0
   -0.1350    0.8999   -4.0433 H   0  0  0  0  0  0  0  0  0  0  0  0
   -1.5454    1.9769   -4.0865 H   0  0  0  0  0  0  0  0  0  0  0  0
    0.2869    2.9007   -4.4773 N   0  0  0  0  0  0  0  0  0  0  0  0
    0.2153    2.7442   -5.4720 H   0  0  0  0  0  0  0  0  0  0  0  0
   -0.0743    3.8175   -4.2550 H   0  0  0  0  0  0  0  0  0  0  0  0
   -0.5564    0.0727    2.1744 C   0  0  0  0  0  0  0  0  0  0  0  0
    0.6169   -0.1288    2.4805 O   0  0  0  0  0  0  0  0  0  0  0  0
   -1.4759    0.4743    3.0595 N   0  0  0  0  0  0  0  0  0  0  0  0
   -2.4132    0.6318    2.7275 H   0  0  0  0  0  0  0  0  0  0  0  0
   -1.1971    0.7118    4.4750 C   0  0  0  0  0  0  0  0  0  0  0  0
   -0.3779    1.4272    4.5748 H   0  0  0  0  0  0  0  0  0  0  0  0
   -2.0826    1.1064    4.9754 H   0  0  0  0  0  0  0  0  0  0  0  0
   -0.8992   -0.2240    4.9525 H   0  0  0  0  0  0  0  0  0  0  0  0
  5  6  2  0  0  0  0
  5  7  1  0  0  0  0
  2  3  1  0  0  0  0
  2  4  1  0  0  0  0
  2  5  1  0  0  0  0
  1  2  1  0  0  0  0
 26 27  2  0  0  0  0
 26 28  1  0  0  0  0
 23 24  1  0  0  0  0
 23 25  1  0  0  0  0
 20 21  1  0  0  0  0
 20 22  1  0  0  0  0
 20 23  1  0  0  0  0
 17 18  1  0  0  0  0
 17 19  1  0  0  0  0
 17 20  1  0  0  0  0
 14 15  1  0  0  0  0
 14 16  1  0  0  0  0
 14 17  1  0  0  0  0
 11 12  1  0  0  0  0
 11 13  1  0  0  0  0
 11 14  1  0  0  0  0
  9 10  1  0  0  0  0
  9 11  1  0  0  0  0
  9 26  1  0  0  0  0
  7  8  1  0  0  0  0
  7  9  1  0  0  0  0
 30 31  1  0  0  0  0
 30 32  1  0  0  0  0
 30 33  1  0  0  0  0
 28 29  1  0  0  0  0
 28 30  1  0  0  0  0
M  END
$$$$
default_name
  -OEChem-02102213163D

 33 32  0     1  0  0  0  0  0999 V2000
   -3.8420   -3.6918    1.5562 H   0  0  0  0  0  0  0  0  0  0  0  0
   -3.8430   -2.7008    1.1032 C   0  0  0  0  0  0  0  0  0  0  0  0
   -4.5510   -2.0608    1.6242 H   0  0  0  0  0  0  0  0  0  0  0  0
   -4.1140   -2.7798    0.0522 H   0  0  0  0  0  0  0  0  0  0  0  0
   -2.4570   -2.1098    1.2172 C   0  0  0  0  0  0  0  0  0  0  0  0
   -1.5600   -2.7438    1.7572 O   0  0  0  0  0  0  0  0  0  0  0  0
   -2.2870   -0.8898    0.7102 N   0  0  0  0  0  0  0  0  0  0  0  0
   -3.0820   -0.4218    0.2992 H   0  0  0  0  0  0  0  0  0  0  0  0
   -1.0240   -0.1468    0.7262 C   0  0  1  0  0  0  0  0  0  0  0  0
   -0.2680   -0.7367    0.2062 H   0  0  0  0  0  0  0  0  0  0  0  0
   -1.2212    1.1806   -0.0314 C   0  0  0  0  0  0  0  0  0  0  0  0
   -2.1619    1.6295    0.2940 H   0  0  0  0  0  0  0  0  0  0  0  0
   -0.4109    1.8647    0.2246 H   0  0  0  0  0  0  0  0  0  0  0  0
   -1.2749    1.0077   -1.5574 C   0  0  0  0  0  0  0  0  0  0  0  0
   -1.1623   -0.0469   -1.8104 H   0  0  0  0  0  0  0  0  0  0  0  0
   -2.2395    1.3625   -1.9251 H   0  0  0  0  0  0  0  0  0  0  0  0
   -0.1534    1.8006   -2.2379 C   0  0  0  0  0  0  0  0  0  0  0  0
   -0.2480    2.8577   -1.9876 H   0  0  0  0  0  0  0  0  0  0  0  0
    0.8132    1.4336   -1.8916 H   0  0  0  0  0  0  0  0  0  0  0  0
   -0.2448    1.6316   -3.7532 C   0  0  0  0  0  0  0  0  0  0  0  0
   -0.1320    0.5788   -4.0070 H   0  0  0  0  0  0  0  0  0  0  0  0
   -1.2163    1.9812   -4.0986 H   0  0  0  0  0  0  0  0  0  0  0  0
    0.8021    2.3983   -4.4385 N   0  0  0  0  0  0  0  0  0  0  0  0
    0.7205    2.2527   -5.4340 H   0  0  0  0  0  0  0  0  0  0  0  0
    0.6828    3.3798   -4.2321 H   0  0  0  0  0  0  0  0  0  0  0  0
   -0.5564    0.0727    2.1744 C   0  0  0  0  0  0  0  0  0  0  0  0
    0.6169   -0.1288    2.4805 O   0  0  0  0  0  0  0  0  0  0  0  0
   -1.4759    0.4743    3.0595 N   0  0  0  0  0  0  0  0  0  0  0  0
   -2.4132    0.6318    2.7275 H   0  0  0  0  0  0  0  0  0  0  0  0
   -1.1971    0.7118    4.4750 C   0  0  0  0  0  0  0  0  0  0  0  0
   -0.3779    1.4272    4.5748 H   0  0  0  0  0  0  0  0  0  0  0  0
   -2.0826    1.1064    4.9754 H   0  0  0  0  0  0  0  0  0  0  0  0
   -0.8992   -0.2240    4.9525 H   0  0  0  0  0  0  0  0  0  0  0  0
  5  6  2  0  0  0  0
  5  7  1  0  0  0  0
  2  3  1  0  0  0  0
  2  4  1  0  0  0  0
  2  5  1  0  0  0  0
  1  2  1  0  0  0  0
 26 27  2  0  0  0  0
 26 28  1  0  0  0  0
 23 24  1  0  0  0  0
 23 25  1  0  0  0  0
 20 21  1  0  0  0  0
 20 22  1  0  0  0  0
 20 23  1  0  0  0  0
 17 18  1  0  0  0  0
 17 19  1  0  0  0  0
 17 20  1  0  0  0  0
 14 15  1  0  0  0  0
 14 16  1  0  0  0  0
 14 17  1  0  0  0  0
 11 12  1  0  0  0  0
 11 13  1  0  0  0  0
 11 14  1  0  0  0  0
  9 10  1  0  0  0  0
  9 11  1  0  0  0  0
  9 26  1  0  0  0  0
  7  8  1  0  0  0  0
  7  9  1  0  0  0  0
 30 31  1  0  0  0  0
 30 32  1  0  0  0  0
 30 33  1  0  0  0  0
 28 29  1  0  0  0  0
 28 30  1  0  0  0  0
M  END
$$$$
default_name
  -OEChem-02102213163D

 33 32  0     1  0  0  0  0  0999 V2000
   -3.8420   -3.6918    1.5562 H   0  0  0  0  0  0  0  0  0  0  0  0
   -3.8430   -2.7008    1.1032 C   0  0  0  0  0  0  0  0  0  0  0  0
   -4.5510   -2.0608    1.6242 H   0  0  0  0  0  0  0  0  0  0  0  0
   -4.1140   -2.7798    0.0522 H   0  0  0  0  0  0  0  0  0  0  0  0
   -2.4570   -2.1098    1.2172 C   0  0  0  0  0  0  0  0  0  0  0  0
   -1.5600   -2.7438    1.7572 O   0  0  0  0  0  0  0  0  0  0  0  0
   -2.2870   -0.8898    0.7102 N   0  0  0  0  0  0  0  0  0  0  0  0
   -3.0820   -0.4218    0.2992 H   0  0  0  0  0  0  0  0  0  0  0  0
   -1.0240   -0.1468    0.7262 C   0  0  1  0  0  0  0  0  0  0  0  0
   -0.2680   -0.7367    0.2062 H   0  0  0  0  0  0  0  0  0  0  0  0
   -1.2212    1.1806   -0.0314 C   0  0  0  0  0  0  0  0  0  0  0  0
   -2.1619    1.6295    0.2940 H   0  0  0  0  0  0  0  0  0  0  0  0
   -0.4109    1.8647    0.2246 H   0  0  0  0  0  0  0  0  0  0  0  0
   -1.2749    1.0077   -1.5574 C   0  0  0  0  0  0  0  0  0  0  0  0
   -1.4303   -0.0436   -1.8014 H   0  0  0  0  0  0  0  0  0  0  0  0
   -2.1051    1.5936   -1.9560 H   0  0  0  0  0  0  0  0  0  0  0  0
    0.0314    1.4771   -2.2078 C   0  0  0  0  0  0  0  0  0  0  0  0
    0.2048    2.5262   -1.9660 H   0  0  0  0  0  0  0  0  0  0  0  0
    0.8610    0.8785   -1.8304 H   0  0  0  0  0  0  0  0  0  0  0  0
   -0.0581    1.3177   -3.7242 C   0  0  0  0  0  0  0  0  0  0  0  0
   -0.2128    0.2681   -3.9689 H   0  0  0  0  0  0  0  0  0  0  0  0
   -0.8970    1.9008   -4.1007 H   0  0  0  0  0  0  0  0  0  0  0  0
    1.1695    1.7809   -4.3815 N   0  0  0  0  0  0  0  0  0  0  0  0
    1.0811    1.6483   -5.3783 H   0  0  0  0  0  0  0  0  0  0  0  0
    1.3009    2.7627   -4.1839 H   0  0  0  0  0  0  0  0  0  0  0  0
   -0.5564    0.0727    2.1744 C   0  0  0  0  0  0  0  0  0  0  0  0
    0.6169   -0.1288    2.4805 O   0  0  0  0  0  0  0  0  0  0  0  0
   -1.4759    0.4743    3.0595 N   0  0  0  0  0  0  0  0  0  0  0  0
   -2.4132    0.6318    2.7275 H   0  0  0  0  0  0  0  0  0  0  0  0
   -1.1971    0.7118    4.4750 C   0  0  0  0  0  0  0  0  0  0  0  0
   -0.3779    1.4272    4.5748 H   0  0  0  0  0  0  0  0  0  0  0  0
   -2.0826    1.1064    4.9754 H   0  0  0  0  0  0  0  0  0  0  0  0
   -0.8992   -0.2240    4.9525 H   0  0  0  0  0  0  0  0  0  0  0  0
  5  6  2  0  0  0  0
  5  7  1  0  0  0  0
  2  3  1  0  0  0  0
  2  4  1  0  0  0  0
  2  5  1  0  0  0  0
  1  2  1  0  0  0  0
 26 27  2  0  0  0  0
 26 28  1  0  0  0  0
 23 24  1  0  0  0  0
 23 25  1  0  0  0  0
 20 21  1  0  0  0  0
 20 22  1  0  0  0  0
 20 23  1  0  0  0  0
 17 18  1  0  0  0  0
 17 19  1  0  0  0  0
 17 20  1  0  0  0  0
 14 15  1  0  0  0  0
 14 16  1  0  0  0  0
 14 17  1  0  0  0  0
 11 12  1  0  0  0  0
 11 13  1  0  0  0  0
 11 14  1  0  0  0  0
  9 10  1  0  0  0  0
  9 11  1  0  0  0  0
  9 26  1  0  0  0  0
  7  8  1  0  0  0  0
  7  9  1  0  0  0  0
 30 31  1  0  0  0  0
 30 32  1  0  0  0  0
 30 33  1  0  0  0  0
 28 29  1  0  0  0  0
 28 30  1  0  0  0  0
M  END
$$$$
default_name
  -OEChem-02102213163D

 33 32  0     1  0  0  0  0  0999 V2000
   -3.8420   -3.6918    1.5562 H   0  0  0  0  0  0  0  0  0  0  0  0
   -3.8430   -2.7008    1.1032 C   0  0  0  0  0  0  0  0  0  0  0  0
   -4.5510   -2.0608    1.6242 H   0  0  0  0  0  0  0  0  0  0  0  0
   -4.1140   -2.7798    0.0522 H   0  0  0  0  0  0  0  0  0  0  0  0
   -2.4570   -2.1098    1.2172 C   0  0  0  0  0  0  0  0  0  0  0  0
   -1.5600   -2.7438    1.7572 O   0  0  0  0  0  0  0  0  0  0  0  0
   -2.2870   -0.8898    0.7102 N   0  0  0  0  0  0  0  0  0  0  0  0
   -3.0820   -0.4218    0.2992 H   0  0  0  0  0  0  0  0  0  0  0  0
   -1.0240   -0.1468    0.7262 C   0  0  1  0  0  0  0  0  0  0  0  0
   -0.2680   -0.7367    0.2062 H   0  0  0  0  0  0  0  0  0  0  0  0
   -1.2212    1.1806   -0.0314 C   0  0  0  0  0  0  0  0  0  0  0  0
   -2.1619    1.6295    0.2940 H   0  0  0  0  0  0  0  0  0  0  0  0
   -0.4109    1.8647    0.2246 H   0  0  0  0  0  0  0  0  0  0  0  0
   -1.2749    1.0077   -1.5574 C   0  0  0  0  0  0  0  0  0  0  0  0
   -1.6885    0.0286   -1.8005 H   0  0  0  0  0  0  0  0  0  0  0  0
   -1.9150    1.7821   -1.9841 H   0  0  0  0  0  0  0  0  0  0  0  0
    0.1258    1.1174   -2.1703 C   0  0  0  0  0  0  0  0  0  0  0  0
    0.5564    2.0897   -1.9289 H   0  0  0  0  0  0  0  0  0  0  0  0
    0.7627    0.3307   -1.7648 H   0  0  0  0  0  0  0  0  0  0  0  0
    0.0408    0.9669   -3.6880 C   0  0  0  0  0  0  0  0  0  0  0  0
   -0.3717   -0.0109   -3.9317 H   0  0  0  0  0  0  0  0  0  0  0  0
   -0.6091    1.7409   -4.0927 H   0  0  0  0  0  0  0  0  0  0  0  0
    1.3640    1.0906   -4.3101 N   0  0  0  0  0  0  0  0  0  0  0  0
    1.2724    0.9725   -5.3084 H   0  0  0  0  0  0  0  0  0  0  0  0
    1.7379    2.0083   -4.1138 H   0  0  0  0  0  0  0  0  0  0  0  0
   -0.5564    0.0727    2.1744 C   0  0  0  0  0  0  0  0  0  0  0  0
    0.6169   -0.1288    2.4805 O   0  0  0  0  0  0  0  0  0  0  0  0
   -1.4759    0.4743    3.0595 N   0  0  0  0  0  0  0  0  0  0  0  0
   -2.4132    0.6318    2.7275 H   0  0  0  0  0  0  0  0  0  0  0  0
   -1.1971    0.7118    4.4750 C   0  0  0  0  0  0  0  0  0  0  0  0
   -0.3779    1.4272    4.5748 H   0  0  0  0  0  0  0  0  0  0  0  0
   -2.0826    1.1064    4.9754 H   0  0  0  0  0  0  0  0  0  0  0  0
   -0.8992   -0.2240    4.9525 H   0  0  0  0  0  0  0  0  0  0  0  0
  5  6  2  0  0  0  0
  5  7  1  0  0  0  0
  2  3  1  0  0  0  0
  2  4  1  0  0  0  0
  2  5  1  0  0  0  0
  1  2  1  0  0  0  0
 26 27  2  0  0  0  0
 26 28  1  0  0  0  0
 23 24  1  0  0  0  0
 23 25  1  0  0  0  0
 20 21  1  0  0  0  0
 20 22  1  0  0  0  0
 20 23  1  0  0  0  0
 17 18  1  0  0  0  0
 17 19  1  0  0  0  0
 17 20  1  0  0  0  0
 14 15  1  0  0  0  0
 14 16  1  0  0  0  0
 14 17  1  0  0  0  0
 11 12  1  0  0  0  0
 11 13  1  0  0  0  0
 11 14  1  0  0  0  0
  9 10  1  0  0  0  0
  9 11  1  0  0  0  0
  9 26  1  0  0  0  0
  7  8  1  0  0  0  0
  7  9  1  0  0  0  0
 30 31  1  0  0  0  0
 30 32  1  0  0  0  0
 30 33  1  0  0  0  0
 28 29  1  0  0  0  0
 28 30  1  0  0  0  0
M  END
$$$$
default_name
  -OEChem-02102213163D

 33 32  0     1  0  0  0  0  0999 V2000
   -3.8420   -3.6918    1.5562 H   0  0  0  0  0  0  0  0  0  0  0  0
   -3.8430   -2.7008    1.1032 C   0  0  0  0  0  0  0  0  0  0  0  0
   -4.5510   -2.0608    1.6242 H   0  0  0  0  0  0  0  0  0  0  0  0
   -4.1140   -2.7798    0.0522 H   0  0  0  0  0  0  0  0  0  0  0  0
   -2.4570   -2.1098    1.2172 C   0  0  0  0  0  0  0  0  0  0  0  0
   -1.5600   -2.7438    1.7572 O   0  0  0  0  0  0  0  0  0  0  0  0
   -2.2870   -0.8898    0.7102 N   0  0  0  0  0  0  0  0  0  0  0  0
   -3.0820   -0.4218    0.2992 H   0  0  0  0  0  0  0  0  0  0  0  0
   -1.0240   -0.1468    0.7262 C   0  0  1  0  0  0  0  0  0  0  0  0
   -0.2680   -0.7367    0.2062 H   0  0  0  0  0  0  0  0  0  0  0  0
   -1.2212    1.1806   -0.0314 C   0  0  0  0  0  0  0  0  0  0  0  0
   -2.1619    1.6295    0.2940 H   0  0  0  0  0  0  0  0  0  0  0  0
   -0.4109    1.8647    0.2246 H   0  0  0  0  0  0  0  0  0  0  0  0
   -1.2749    1.0077   -1.5574 C   0  0  0  0  0  0  0  0  0  0  0  0
   -1.9194    0.1646   -1.8077 H   0  0  0  0  0  0  0  0  0  0  0  0
   -1.6822    1.9150   -2.0073 H   0  0  0  0  0  0  0  0  0  0  0  0
    0.1235    0.7460   -2.1282 C   0  0  0  0  0  0  0  0  0  0  0  0
    0.7827    1.5781   -1.8789 H   0  0  0  0  0  0  0  0  0  0  0  0
    0.5251   -0.1726   -1.6994 H   0  0  0  0  0  0  0  0  0  0  0  0
    0.0450    0.6029   -3.6469 C   0  0  0  0  0  0  0  0  0  0  0  0
   -0.5980   -0.2391   -3.8979 H   0  0  0  0  0  0  0  0  0  0  0  0
   -0.3724    1.5126   -4.0752 H   0  0  0  0  0  0  0  0  0  0  0  0
    1.3725    0.3746   -4.2292 N   0  0  0  0  0  0  0  0  0  0  0  0
    1.2815    0.2711   -5.2292 H   0  0  0  0  0  0  0  0  0  0  0  0
    1.9641    1.1678   -4.0265 H   0  0  0  0  0  0  0  0  0  0  0  0
   -0.5564    0.0727    2.1744 C   0  0  0  0  0  0  0  0  0  0  0  0
    0.6169   -0.1288    2.4805 O   0  0  0  0  0  0  0  0  0  0  0  0
   -1.4759    0.4743    3.0595 N   0  0  0  0  0  0  0  0  0  0  0  0
   -2.4132    0.6318    2.7275 H   0  0  0  0  0  0  0  0  0  0  0  0
   -1.1971    0.7118    4.4750 C   0  0  0  0  0  0  0  0  0  0  0  0
   -0.3779    1.4272    4.5748 H   0  0  0  0  0  0  0  0  0  0  0  0
   -2.0826    1.1064    4.9754 H   0  0  0  0  0  0  0  0  0  0  0  0
   -0.8992   -0.2240    4.9525 H   0  0  0  0  0  0  0  0  0  0  0  0
  5  6  2  0  0  0  0
  5  7  1  0  0  0  0
  2  3  1  0  0  0  0
  2  4  1  0  0  0  0
  2  5  1  0  0  0  0
  1  2  1  0  0  0  0
 26 27  2  0  0  0  0
 26 28  1  0  0  0  0
 23 24  1  0  0  0  0
 23 25  1  0  0  0  0
 20 21  1  0  0  0  0
 20 22  1  0  0  0  0
 20 23  1  0  0  0  0
 17 18  1  0  0  0  0
 17 19  1  0  0  0  0
 17 20  1  0  0  0  0
 14 15  1  0  0  0  0
 14 16  1  0  0  0  0
 14 17  1  0  0  0  0
 11 12  1  0  0  0  0
 11 13  1  0  0  0  0
 11 14  1  0  0  0  0
  9 10  1  0  0  0  0
  9 11  1  0  0  0  0
  9 26  1  0  0  0  0
  7  8  1  0  0  0  0
  7  9  1  0  0  0  0
 30 31  1  0  0  0  0
 30 32  1  0  0  0  0
 30 33  1  0  0  0  0
 28 29  1  0  0  0  0
 28 30  1  0  0  0  0
M  END
$$$$
default_name
  -OEChem-02102213163D

 33 32  0     1  0  0  0  0  0999 V2000
   -3.8420   -3.6918    1.5562 H   0  0  0  0  0  0  0  0  0  0  0  0
   -3.8430   -2.7008    1.1032 C   0  0  0  0  0  0  0  0  0  0  0  0
   -4.5510   -2.0608    1.6242 H   0  0  0  0  0  0  0  0  0  0  0  0
   -4.1140   -2.7798    0.0522 H   0  0  0  0  0  0  0  0  0  0  0  0
   -2.4570   -2.1098    1.2172 C   0  0  0  0  0  0  0  0  0  0  0  0
   -1.5600   -2.7438    1.7572 O   0  0  0  0  0  0  0  0  0  0  0  0
   -2.2870   -0.8898    0.7102 N   0  0  0  0  0  0  0  0  0  0  0  0
   -3.0820   -0.4218    0.2992 H   0  0  0  0  0  0  0  0  0  0  0  0
   -1.0240   -0.1468    0.7262 C   0  0  1  0  0  0  0  0  0  0  0  0
   -0.2680   -0.7367    0.2062 H   0  0  0  0  0  0  0  0  0  0  0  0
   -1.2212    1.1806   -0.0314 C   0  0  0  0  0  0  0  0  0  0  0  0
   -2.1619    1.6295    0.2940 H   0  0  0  0  0  0  0  0  0  0  0  0
   -0.4109    1.8647    0.2246 H   0  0  0  0  0  0  0  0  0  0  0  0
   -1.2749    1.0077   -1.5574 C   0  0  0  0  0  0  0  0  0  0  0  0
   -2.1073    0.3553   -1.8227 H   0  0  0  0  0  0  0  0  0  0  0  0
   -1.4225    1.9833   -2.0242 H   0  0  0  0  0  0  0  0  0  0  0  0
    0.0245    0.3883   -2.0841 C   0  0  0  0  0  0  0  0  0  0  0  0
    0.8683    1.0262   -1.8194 H   0  0  0  0  0  0  0  0  0  0  0  0
    0.1643   -0.5971   -1.6386 H   0  0  0  0  0  0  0  0  0  0  0  0
   -0.0456    0.2505   -3.6037 C   0  0  0  0  0  0  0  0  0  0  0  0
   -0.8763   -0.4012   -3.8697 H   0  0  0  0  0  0  0  0  0  0  0  0
   -0.2029    1.2314   -4.0493 H   0  0  0  0  0  0  0  0  0  0  0  0
    1.1942   -0.3186   -4.1444 N   0  0  0  0  0  0  0  0  0  0  0  0
    1.1076   -0.4081   -5.1462 H   0  0  0  0  0  0  0  0  0  0  0  0
    1.9640    0.2986   -3.9280 H   0  0  0  0  0  0  0  0  0  0  0  0
   -0.5564    0.0727    2.1744 C   0  0  0  0  0  0  0  0  0  0  0  0
    0.6169   -0.1288    2.4805 O   0  0  0  0  0  0  0  0  0  0  0  0
   -1.4759    0.4743    3.0595 N   0  0  0  0  0  0  0  0  0  0  0  0
   -2.4132    0.6318    2.7275 H   0  0  0  0  0  0  0  0  0  0  0  0
   -1.1971    0.7118    4.4750 C   0  0  0  0  0  0  0  0  0  0  0  0
   -0.3779    1.4272    4.5748 H   0  0  0  0  0  0  0  0  0  0  0  0
   -2.0826    1.1064    4.9754 H   0  0  0  0  0  0  0  0  0  0  0  0
   -0.8992   -0.2240    4.9525 H   0  0  0  0  0  0  0  0  0  0  0  0
  5  6  2  0  0  0  0
  5  7  1  0  0  0  0
  2  3  1  0  0  0  0
  2  4  1  0  0  0  0
  2  5  1  0  0  0  0
  1  2  1  0  0  0  0
 26 27  2  0  0  0  0
 26 28  1  0  0  0  0
 23 24  1  0  0  0  0
 23 25  1  0  0  0  0
 20 21  1  0  0  0  0
 20 22  1  0  0  0  0
 20 23  1  0  0  0  0
 17 18  1  0  0  0  0
 17 19  1  0  0  0  0
 17 20  1  0  0  0  0
 14 15  1  0  0  0  0
 14 16  1  0  0  0  0
 14 17  1  0  0  0  0
 11 12  1  0  0  0  0
 11 13  1  0  0  0  0
 11 14  1  0  0  0  0
  9 10  1  0  0  0  0
  9 11  1  0  0  0  0
  9 26  1  0  0  0  0
  7  8  1  0  0  0  0
  7  9  1  0  0  0  0
 30 31  1  0  0  0  0
 30 32  1  0  0  0  0
 30 33  1  0  0  0  0
 28 29  1  0  0  0  0
 28 30  1  0  0  0  0
M  END
$$$$
default_name
  -OEChem-02102213163D

 33 32  0     1  0  0  0  0  0999 V2000
   -3.8420   -3.6918    1.5562 H   0  0  0  0  0  0  0  0  0  0  0  0
   -3.8430   -2.7008    1.1032 C   0  0  0  0  0  0  0  0  0  0  0  0
   -4.5510   -2.0608    1.6242 H   0  0  0  0  0  0  0  0  0  0  0  0
   -4.1140   -2.7798    0.0522 H   0  0  0  0  0  0  0  0  0  0  0  0
   -2.4570   -2.1098    1.2172 C   0  0  0  0  0  0  0  0  0  0  0  0
   -1.5600   -2.7438    1.7572 O   0  0  0  0  0  0  0  0  0  0  0  0
   -2.2870   -0.8898    0.7102 N   0  0  0  0  0  0  0  0  0  0  0  0
   -3.0820   -0.4218    0.2992 H   0  0  0  0  0  0  0  0  0  0  0  0
   -1.0240   -0.1468    0.7262 C   0  0  1  0  0  0  0  0  0  0  0  0
   -0.2680   -0.7367    0.2062 H   0  0  0  0  0  0  0  0  0  0  0  0
   -1.2212    1.1806   -0.0314 C   0  0  0  0  0  0  0  0  0  0  0  0
   -2.1619    1.6295    0.2940 H   0  0  0  0  0  0  0  0  0  0  0  0
   -0.4109    1.8647    0.2246 H   0  0  0  0  0  0  0  0  0  0  0  0
   -1.2749    1.0077   -1.5574 C   0  0  0  0  0  0  0  0  0  0  0  0
   -2.2393    0.5877   -1.8444 H   0  0  0  0  0  0  0  0  0  0  0  0
   -1.1535    1.9824   -2.0336 H   0  0  0  0  0  0  0  0  0  0  0  0
   -0.1643    0.0685   -2.0412 C   0  0  0  0  0  0  0  0  0  0  0  0
    0.8074    0.4717   -1.7544 H   0  0  0  0  0  0  0  0  0  0  0  0
   -0.2951   -0.9139   -1.5866 H   0  0  0  0  0  0  0  0  0  0  0  0
   -0.2250   -0.0661   -3.5615 C   0  0  0  0  0  0  0  0  0  0  0  0
   -1.1875   -0.4859   -3.8491 H   0  0  0  0  0  0  0  0  0  0  0  0
   -0.1122    0.9165   -4.0168 H   0  0  0  0  0  0  0  0  0  0  0  0
    0.8414   -0.9415   -4.0614 N   0  0  0  0  0  0  0  0  0  0  0  0
    0.7628   -1.0186   -5.0648 H   0  0  0  0  0  0  0  0  0  0  0  0
    1.7377   -0.5400   -3.8250 H   0  0  0  0  0  0  0  0  0  0  0  0
   -0.5564    0.0727    2.1744 C   0  0  0  0  0  0  0  0  0  0  0  0
    0.6169   -0.1288    2.4805 O   0  0  0  0  0  0  0  0  0  0  0  0
   -1.4759    0.4743    3.0595 N   0  0  0  0  0  0  0  0  0  0  0  0
   -2.4132    0.6318    2.7275 H   0  0  0  0  0  0  0  0  0  0  0  0
   -1.1971    0.7118    4.4750 C   0  0  0  0  0  0  0  0  0  0  0  0
   -0.3779    1.4272    4.5748 H   0  0  0  0  0  0  0  0  0  0  0  0
   -2.0826    1.1064    4.9754 H   0  0  0  0  0  0  0  0  0  0  0  0
   -0.8992   -0.2240    4.9525 H   0  0  0  0  0  0  0  0  0  0  0  0
  5  6  2  0  0  0  0
  5  7  1  0  0  0  0
  2  3  1  0  0  0  0
  2  4  1  0  0  0  0
  2  5  1  0  0  0  0
  1  2  1  0  0  0  0
 26 27  2  0  0  0  0
 26 28  1  0  0  0  0
 23 24  1  0  0  0  0
 23 25  1  0  0  0  0
 20 21  1  0  0  0  0
 20 22  1  0  0  0  0
 20 23  1  0  0  0  0
 17 18  1  0  0  0  0
 17 19  1  0  0  0  0
 17 20  1  0  0  0  0
 14 15  1  0  0  0  0
 14 16  1  0  0  0  0
 14 17  1  0  0  0  0
 11 12  1  0  0  0  0
 11 13  1  0  0  0  0
 11 14  1  0  0  0  0
  9 10  1  0  0  0  0
  9 11  1  0  0  0  0
  9 26  1  0  0  0  0
  7  8  1  0  0  0  0
  7  9  1  0  0  0  0
 30 31  1  0  0  0  0
 30 32  1  0  0  0  0
 30 33  1  0  0  0  0
 28 29  1  0  0  0  0
 28 30  1  0  0  0  0
M  END
$$$$
default_name
  -OEChem-02102213163D

 33 32  0     1  0  0  0  0  0999 V2000
   -3.8420   -3.6918    1.5562 H   0  0  0  0  0  0  0  0  0  0  0  0
   -3.8430   -2.7008    1.1032 C   0  0  0  0  0  0  0  0  0  0  0  0
   -4.5510   -2.0608    1.6242 H   0  0  0  0  0  0  0  0  0  0  0  0
   -4.1140   -2.7798    0.0522 H   0  0  0  0  0  0  0  0  0  0  0  0
   -2.4570   -2.1098    1.2172 C   0  0  0  0  0  0  0  0  0  0  0  0
   -1.5600   -2.7438    1.7572 O   0  0  0  0  0  0  0  0  0  0  0  0
   -2.2870   -0.8898    0.7102 N   0  0  0  0  0  0  0  0  0  0  0  0
   -3.0820   -0.4218    0.2992 H   0  0  0  0  0  0  0  0  0  0  0  0
   -1.0240   -0.1468    0.7262 C   0  0  1  0  0  0  0  0  0  0  0  0
   -0.2680   -0.7367    0.2062 H   0  0  0  0  0  0  0  0  0  0  0  0
   -1.2212    1.1806   -0.0314 C   0  0  0  0  0  0  0  0  0  0  0  0
   -2.1619    1.6295    0.2940 H   0  0  0  0  0  0  0  0  0  0  0  0
   -0.4109    1.8647    0.2246 H   0  0  0  0  0  0  0  0  0  0  0  0
   -1.2749    1.0077   -1.5574 C   0  0  0  0  0  0  0  0  0  0  0  0
   -2.3065    0.8459   -1.8713 H   0  0  0  0  0  0  0  0  0  0  0  0
   -0.8937    1.9123   -2.0348 H   0  0  0  0  0  0  0  0  0  0  0  0
   -0.4300   -0.1914   -2.0024 C   0  0  0  0  0  0  0  0  0  0  0  0
    0.6042   -0.0477   -1.6884 H   0  0  0  0  0  0  0  0  0  0  0  0
   -0.8218   -1.1013   -1.5468 H   0  0  0  0  0  0  0  0  0  0  0  0
   -0.4808   -0.3254   -3.5231 C   0  0  0  0  0  0  0  0  0  0  0  0
   -1.5105   -0.4876   -3.8376 H   0  0  0  0  0  0  0  0  0  0  0  0
   -0.1065    0.5893   -3.9799 H   0  0  0  0  0  0  0  0  0  0  0  0
    0.3381   -1.4517   -3.9859 N   0  0  0  0  0  0  0  0  0  0  0  0
    0.2704   -1.5190   -4.9908 H   0  0  0  0  0  0  0  0  0  0  0  0
    1.3005   -1.2910   -3.7245 H   0  0  0  0  0  0  0  0  0  0  0  0
   -0.5564    0.0727    2.1744 C   0  0  0  0  0  0  0  0  0  0  0  0
    0.6169   -0.1288    2.4805 O   0  0  0  0  0  0  0  0  0  0  0  0
   -1.4759    0.4743    3.0595 N   0  0  0  0  0  0  0  0  0  0  0  0
   -2.4132    0.6318    2.7275 H   0  0  0  0  0  0  0  0  0  0  0  0
   -1.1971    0.7118    4.4750 C   0  0  0  0  0  0  0  0  0  0  0  0
   -0.3779    1.4272    4.5748 H   0  0  0  0  0  0  0  0  0  0  0  0
   -2.0826    1.1064    4.9754 H   0  0  0  0  0  0  0  0  0  0  0  0
   -0.8992   -0.2240    4.9525 H   0  0  0  0  0  0  0  0  0  0  0  0
  5  6  2  0  0  0  0
  5  7  1  0  0  0  0
  2  3  1  0  0  0  0
  2  4  1  0  0  0  0
  2  5  1  0  0  0  0
  1  2  1  0  0  0  0
 26 27  2  0  0  0  0
 26 28  1  0  0  0  0
 23 24  1  0  0  0  0
 23 25  1  0  0  0  0
 20 21  1  0  0  0  0
 20 22  1  0  0  0  0
 20 23  1  0  0  0  0
 17 18  1  0  0  0  0
 17 19  1  0  0  0  0
 17 20  1  0  0  0  0
 14 15  1  0  0  0  0
 14 16  1  0  0  0  0
 14 17  1  0  0  0  0
 11 12  1  0  0  0  0
 11 13  1  0  0  0  0
 11 14  1  0  0  0  0
  9 10  1  0  0  0  0
  9 11  1  0  0  0  0
  9 26  1  0  0  0  0
  7  8  1  0  0  0  0
  7  9  1  0  0  0  0
 30 31  1  0  0  0  0
 30 32  1  0  0  0  0
 30 33  1  0  0  0  0
 28 29  1  0  0  0  0
 28 30  1  0  0  0  0
M  END
$$$$
default_name
  -OEChem-02102213163D

 33 32  0     1  0  0  0  0  0999 V2000
   -3.8420   -3.6918    1.5562 H   0  0  0  0  0  0  0  0  0  0  0  0
   -3.8430   -2.7008    1.1032 C   0  0  0  0  0  0  0  0  0  0  0  0
   -4.5510   -2.0608    1.6242 H   0  0  0  0  0  0  0  0  0  0  0  0
   -4.1140   -2.7798    0.0522 H   0  0  0  0  0  0  0  0  0  0  0  0
   -2.4570   -2.1098    1.2172 C   0  0  0  0  0  0  0  0  0  0  0  0
   -1.5600   -2.7438    1.7572 O   0  0  0  0  0  0  0  0  0  0  0  0
   -2.2870   -0.8898    0.7102 N   0  0  0  0  0  0  0  0  0  0  0  0
   -3.0820   -0.4218    0.2992 H   0  0  0  0  0  0  0  0  0  0  0  0
   -1.0240   -0.1468    0.7262 C   0  0  1  0  0  0  0  0  0  0  0  0
   -0.2680   -0.7367    0.2062 H   0  0  0  0  0  0  0  0  0  0  0  0
   -1.2212    1.1806   -0.0314 C   0  0  0  0  0  0  0  0  0  0  0  0
   -2.1619    1.6295    0.2940 H   0  0  0  0  0  0  0  0  0  0  0  0
   -0.4109    1.8647    0.2246 H   0  0  0  0  0  0  0  0  0  0  0  0
   -1.2749    1.0077   -1.5574 C   0  0  0  0  0  0  0  0  0  0  0  0
   -2.3042    1.1123   -1.9016 H   0  0  0  0  0  0  0  0  0  0  0  0
   -0.6608    1.7778   -2.0278 H   0  0  0  0  0  0  0  0  0  0  0  0
   -0.7547   -0.3738   -1.9703 C   0  0  0  0  0  0  0  0  0  0  0  0
    0.2725   -0.4966   -1.6258 H   0  0  0  0  0  0  0  0  0  0  0  0
   -1.3798   -1.1466   -1.5220 H   0  0  0  0  0  0  0  0  0  0  0  0
   -0.7957   -0.5099   -3.4912 C   0  0  0  0  0  0  0  0  0  0  0  0
   -1.8233   -0.4061   -3.8358 H   0  0  0  0  0  0  0  0  0  0  0  0
   -0.1862    0.2720   -3.9412 H   0  0  0  0  0  0  0  0  0  0  0  0
   -0.2813   -1.8146   -3.9229 N   0  0  0  0  0  0  0  0  0  0  0  0
   -0.3360   -1.8751   -4.9291 H   0  0  0  0  0  0  0  0  0  0  0  0
    0.6823   -1.9031   -3.6334 H   0  0  0  0  0  0  0  0  0  0  0  0
   -0.5564    0.0727    2.1744 C   0  0  0  0  0  0  0  0  0  0  0  0
    0.6169   -0.1288    2.4805 O   0  0  0  0  0  0  0  0  0  0  0  0
   -1.4759    0.4743    3.0595 N   0  0  0  0  0  0  0  0  0  0  0  0
   -2.4132    0.6318    2.7275 H   0  0  0  0  0  0  0  0  0  0  0  0
   -1.1971    0.7118    4.4750 C   0  0  0  0  0  0  0  0  0  0  0  0
   -0.3779    1.4272    4.5748 H   0  0  0  0  0  0  0  0  0  0  0  0
   -2.0826    1.1064    4.9754 H   0  0  0  0  0  0  0  0  0  0  0  0
   -0.8992   -0.2240    4.9525 H   0  0  0  0  0  0  0  0  0  0  0  0
  5  6  2  0  0  0  0
  5  7  1  0  0  0  0
  2  3  1  0  0  0  0
  2  4  1  0  0  0  0
  2  5  1  0  0  0  0
  1  2  1  0  0  0  0
 26 27  2  0  0  0  0
 26 28  1  0  0  0  0
 23 24  1  0  0  0  0
 23 25  1  0  0  0  0
 20 21  1  0  0  0  0
 20 22  1  0  0  0  0
 20 23  1  0  0  0  0
 17 18  1  0  0  0  0
 17 19  1  0  0  0  0
 17 20  1  0  0  0  0
 14 15  1  0  0  0  0
 14 16  1  0  0  0  0
 14 17  1  0  0  0  0
 11 12  1  0  0  0  0
 11 13  1  0  0  0  0
 11 14  1  0  0  0  0
  9 10  1  0  0  0  0
  9 11  1  0  0  0  0
  9 26  1  0  0  0  0
  7  8  1  0  0  0  0
  7  9  1  0  0  0  0
 30 31  1  0  0  0  0
 30 32  1  0  0  0  0
 30 33  1  0  0  0  0
 28 29  1  0  0  0  0
 28 30  1  0  0  0  0
M  END
$$$$
default_name
  -OEChem-02102213163D

 33 32  0     1  0  0  0  0  0999 V2000
   -3.8420   -3.6918    1.5562 H   0  0  0  0  0  0  0  0  0  0  0  0
   -3.8430   -2.7008    1.1032 C   0  0  0  0  0  0  0  0  0  0  0  0
   -4.5510   -2.0608    1.6242 H   0  0  0  0  0  0  0  0  0  0  0  0
   -4.1140   -2.7798    0.0522 H   0  0  0  0  0  0  0  0  0  0  0  0
   -2.4570   -2.1098    1.2172 C   0  0  0  0  0  0  0  0  0  0  0  0
   -1.5600   -2.7438    1.7572 O   0  0  0  0  0  0  0  0  0  0  0  0
   -2.2870   -0.8898    0.7102 N   0  0  0  0  0  0  0  0  0  0  0  0
   -3.0820   -0.4218    0.2992 H   0  0  0  0  0  0  0  0  0  0  0  0
   -1.0240   -0.1468    0.7262 C   0  0  1  0  0  0  0  0  0  0  0  0
   -0.2680   -0.7367    0.2062 H   0  0  0  0  0  0  0  0  0  0  0  0
   -1.2212    1.1806   -0.0314 C   0  0  0  0  0  0  0  0  0  0  0  0
   -2.1619    1.6295    0.2940 H   0  0  0  0  0  0  0  0  0  0  0  0
   -0.4109    1.8647    0.2246 H   0  0  0  0  0  0  0  0  0  0  0  0
   -1.2749    1.0077   -1.5574 C   0  0  0  0  0  0  0  0  0  0  0  0
   -2.2327    1.3687   -1.9332 H   0  0  0  0  0  0  0  0  0  0  0  0
   -0.4705    1.5881   -2.0130 H   0  0  0  0  0  0  0  0  0  0  0  0
   -1.1161   -0.4663   -1.9471 C   0  0  0  0  0  0  0  0  0  0  0  0
   -0.1650   -0.8444   -1.5710 H   0  0  0  0  0  0  0  0  0  0  0  0
   -1.9312   -1.0467   -1.5139 H   0  0  0  0  0  0  0  0  0  0  0  0
   -1.1482   -0.6068   -3.4678 C   0  0  0  0  0  0  0  0  0  0  0  0
   -2.1045   -0.2469   -3.8439 H   0  0  0  0  0  0  0  0  0  0  0  0
   -0.3458   -0.0135   -3.9032 H   0  0  0  0  0  0  0  0  0  0  0  0
   -0.9748   -2.0053   -3.8769 N   0  0  0  0  0  0  0  0  0  0  0  0
   -1.0151   -2.0626   -4.8839 H   0  0  0  0  0  0  0  0  0  0  0  0
   -0.0748   -2.3347   -3.5578 H   0  0  0  0  0  0  0  0  0  0  0  0
   -0.5564    0.0727    2.1744 C   0  0  0  0  0  0  0  0  0  0  0  0
    0.6169   -0.1288    2.4805 O   0  0  0  0  0  0  0  0  0  0  0  0
   -1.4759    0.4743    3.0595 N   0  0  0  0  0  0  0  0  0  0  0  0
   -2.4132    0.6318    2.7275 H   0  0  0  0  0  0  0  0  0  0  0  0
   -1.1971    0.7118    4.4750 C   0  0  0  0  0  0  0  0  0  0  0  0
   -0.3779    1.4272    4.5748 H   0  0  0  0  0  0  0  0  0  0  0  0
   -2.0826    1.1064    4.9754 H   0  0  0  0  0  0  0  0  0  0  0  0
   -0.8992   -0.2240    4.9525 H   0  0  0  0  0  0  0  0  0  0  0  0
  5  6  2  0  0  0  0
  5  7  1  0  0  0  0
  2  3  1  0  0  0  0
  2  4  1  0  0  0  0
  2  5  1  0  0  0  0
  1  2  1  0  0  0  0
 26 27  2  0  0  0  0
 26 28  1  0  0  0  0
 23 24  1  0  0  0  0
 23 25  1  0  0  0  0
 20 21  1  0  0  0  0
 20 22  1  0  0  0  0
 20 23  1  0  0  0  0
 17 18  1  0  0  0  0
 17 19  1  0  0  0  0
 17 20  1  0  0  0  0
 14 15  1  0  0  0  0
 14 16  1  0  0  0  0
 14 17  1  0  0  0  0
 11 12  1  0  0  0  0
 11 13  1  0  0  0  0
 11 14  1  0  0  0  0
  9 10  1  0  0  0  0
  9 11  1  0  0  0  0
  9 26  1  0  0  0  0
  7  8  1  0  0  0  0
  7  9  1  0  0  0  0
 30 31  1  0  0  0  0
 30 32  1  0  0  0  0
 30 33  1  0  0  0  0
 28 29  1  0  0  0  0
 28 30  1  0  0  0  0
M  END
$$$$
default_name
  -OEChem-02102213163D

 33 32  0     1  0  0  0  0  0999 V2000
   -3.8420   -3.6918    1.5562 H   0  0  0  0  0  0  0  0  0  0  0  0
   -3.8430   -2.7008    1.1032 C   0  0  0  0  0  0  0  0  0  0  0  0
   -4.5510   -2.0608    1.6242 H   0  0  0  0  0  0  0  0  0  0  0  0
   -4.1140   -2.7798    0.0522 H   0  0  0  0  0  0  0  0  0  0  0  0
   -2.4570   -2.1098    1.2172 C   0  0  0  0  0  0  0  0  0  0  0  0
   -1.5600   -2.7438    1.7572 O   0  0  0  0  0  0  0  0  0  0  0  0
   -2.2870   -0.8898    0.7102 N   0  0  0  0  0  0  0  0  0  0  0  0
   -3.0820   -0.4218    0.2992 H   0  0  0  0  0  0  0  0  0  0  0  0
   -1.0240   -0.1468    0.7262 C   0  0  1  0  0  0  0  0  0  0  0  0
   -0.2680   -0.7367    0.2062 H   0  0  0  0  0  0  0  0  0  0  0  0
   -1.2212    1.1806   -0.0314 C   0  0  0  0  0  0  0  0  0  0  0  0
   -2.1619    1.6295    0.2940 H   0  0  0  0  0  0  0  0  0  0  0  0
   -0.4109    1.8647    0.2246 H   0  0  0  0  0  0  0  0  0  0  0  0
   -1.2749    1.0077   -1.5574 C   0  0  0  0  0  0  0  0  0  0  0  0
   -2.0967    1.5978   -1.9639 H   0  0  0  0  0  0  0  0  0  0  0  0
   -0.3359    1.3560   -1.9914 H   0  0  0  0  0  0  0  0  0  0  0  0
   -1.4897   -0.4625   -1.9344 C   0  0  0  0  0  0  0  0  0  0  0  0
   -0.6787   -1.0674   -1.5277 H   0  0  0  0  0  0  0  0  0  0  0  0
   -2.4384   -0.8084   -1.5230 H   0  0  0  0  0  0  0  0  0  0  0  0
   -1.5143   -0.6096   -3.4546 C   0  0  0  0  0  0  0  0  0  0  0  0
   -2.3350   -0.0210   -3.8614 H   0  0  0  0  0  0  0  0  0  0  0  0
   -0.5745   -0.2480   -3.8686 H   0  0  0  0  0  0  0  0  0  0  0  0
   -1.6950   -2.0108   -3.8509 N   0  0  0  0  0  0  0  0  0  0  0  0
   -1.7205   -2.0689   -4.8584 H   0  0  0  0  0  0  0  0  0  0  0  0
   -0.9192   -2.5562   -3.5030 H   0  0  0  0  0  0  0  0  0  0  0  0
   -0.5564    0.0727    2.1744 C   0  0  0  0  0  0  0  0  0  0  0  0
    0.6169   -0.1288    2.4805 O   0  0  0  0  0  0  0  0  0  0  0  0
   -1.4759    0.4743    3.0595 N   0  0  0  0  0  0  0  0  0  0  0  0
   -2.4132    0.6318    2.7275 H   0  0  0  0  0  0  0  0  0  0  0  0
   -1.1971    0.7118    4.4750 C   0  0  0  0  0  0  0  0  0  0  0  0
   -0.3779    1.4272    4.5748 H   0  0  0  0  0  0  0  0  0  0  0  0
   -2.0826    1.1064    4.9754 H   0  0  0  0  0  0  0  0  0  0  0  0
   -0.8992   -0.2240    4.9525 H   0  0  0  0  0  0  0  0  0  0  0  0
  5  6  2  0  0  0  0
  5  7  1  0  0  0  0
  2  3  1  0  0  0  0
  2  4  1  0  0  0  0
  2  5  1  0  0  0  0
  1  2  1  0  0  0  0
 26 27  2  0  0  0  0
 26 28  1  0  0  0  0
 23 24  1  0  0  0  0
 23 25  1  0  0  0  0
 20 21  1  0  0  0  0
 20 22  1  0  0  0  0
 20 23  1  0  0  0  0
 17 18  1  0  0  0  0
 17 19  1  0  0  0  0
 17 20  1  0  0  0  0
 14 15  1  0  0  0  0
 14 16  1  0  0  0  0
 14 17  1  0  0  0  0
 11 12  1  0  0  0  0
 11 13  1  0  0  0  0
 11 14  1  0  0  0  0
  9 10  1  0  0  0  0
  9 11  1  0  0  0  0
  9 26  1  0  0  0  0
  7  8  1  0  0  0  0
  7  9  1  0  0  0  0
 30 31  1  0  0  0  0
 30 32  1  0  0  0  0
 30 33  1  0  0  0  0
 28 29  1  0  0  0  0
 28 30  1  0  0  0  0
M  END
$$$$
default_name
  -OEChem-02102213163D

 33 32  0     1  0  0  0  0  0999 V2000
   -3.8420   -3.6918    1.5562 H   0  0  0  0  0  0  0  0  0  0  0  0
   -3.8430   -2.7008    1.1032 C   0  0  0  0  0  0  0  0  0  0  0  0
   -4.5510   -2.0608    1.6242 H   0  0  0  0  0  0  0  0  0  0  0  0
   -4.1140   -2.7798    0.0522 H   0  0  0  0  0  0  0  0  0  0  0  0
   -2.4570   -2.1098    1.2172 C   0  0  0  0  0  0  0  0  0  0  0  0
   -1.5600   -2.7438    1.7572 O   0  0  0  0  0  0  0  0  0  0  0  0
   -2.2870   -0.8898    0.7102 N   0  0  0  0  0  0  0  0  0  0  0  0
   -3.0820   -0.4218    0.2992 H   0  0  0  0  0  0  0  0  0  0  0  0
   -1.0240   -0.1468    0.7262 C   0  0  1  0  0  0  0  0  0  0  0  0
   -0.2680   -0.7367    0.2062 H   0  0  0  0  0  0  0  0  0  0  0  0
   -1.2212    1.1806   -0.0314 C   0  0  0  0  0  0  0  0  0  0  0  0
   -2.1619    1.6295    0.2940 H   0  0  0  0  0  0  0  0  0  0  0  0
   -0.4109    1.8647    0.2246 H   0  0  0  0  0  0  0  0  0  0  0  0
   -1.2749    1.0077   -1.5574 C   0  0  0  0  0  0  0  0  0  0  0  0
   -1.9057    1.7838   -1.9917 H   0  0  0  0  0  0  0  0  0  0  0  0
   -0.2662    1.0975   -1.9646 H   0  0  0  0  0  0  0  0  0  0  0  0
   -1.8499   -0.3627   -1.9330 C   0  0  0  0  0  0  0  0  0  0  0  0
   -1.2334   -1.1503   -1.4987 H   0  0  0  0  0  0  0  0  0  0  0  0
   -2.8668   -0.4480   -1.5488 H   0  0  0  0  0  0  0  0  0  0  0  0
   -1.8690   -0.5180   -3.4524 C   0  0  0  0  0  0  0  0  0  0  0  0
   -2.4991    0.2563   -3.8871 H   0  0  0  0  0  0  0  0  0  0  0  0
   -0.8567   -0.4154   -3.8397 H   0  0  0  0  0  0  0  0  0  0  0  0
   -2.3928   -1.8309   -3.8467 N   0  0  0  0  0  0  0  0  0  0  0  0
   -2.4042   -1.8933   -4.8542 H   0  0  0  0  0  0  0  0  0  0  0  0
   -1.7934   -2.5527   -3.4726 H   0  0  0  0  0  0  0  0  0  0  0  0
   -0.5564    0.0727    2.1744 C   0  0  0  0  0  0  0  0  0  0  0  0
    0.6169   -0.1288    2.4805 O   0  0  0  0  0  0  0  0  0  0  0  0
   -1.4759    0.4743    3.0595 N   0  0  0  0  0  0  0  0  0  0  0  0
   -2.4132    0.6318    2.7275 H   0  0  0  0  0  0  0  0  0  0  0  0
   -1.1971    0.7118    4.4750 C   0  0  0  0  0  0  0  0  0  0  0  0
   -0.3779    1.4272    4.5748 H   0  0  0  0  0  0  0  0  0  0  0  0
   -2.0826    1.1064    4.9754 H   0  0  0  0  0  0  0  0  0  0  0  0
   -0.8992   -0.2240    4.9525 H   0  0  0  0  0  0  0  0  0  0  0  0
  5  6  2  0  0  0  0
  5  7  1  0  0  0  0
  2  3  1  0  0  0  0
  2  4  1  0  0  0  0
  2  5  1  0  0  0  0
  1  2  1  0  0  0  0
 26 27  2  0  0  0  0
 26 28  1  0  0  0  0
 23 24  1  0  0  0  0
 23 25  1  0  0  0  0
 20 21  1  0  0  0  0
 20 22  1  0  0  0  0
 20 23  1  0  0  0  0
 17 18  1  0  0  0  0
 17 19  1  0  0  0  0
 17 20  1  0  0  0  0
 14 15  1  0  0  0  0
 14 16  1  0  0  0  0
 14 17  1  0  0  0  0
 11 12  1  0  0  0  0
 11 13  1  0  0  0  0
 11 14  1  0  0  0  0
  9 10  1  0  0  0  0
  9 11  1  0  0  0  0
  9 26  1  0  0  0  0
  7  8  1  0  0  0  0
  7  9  1  0  0  0  0
 30 31  1  0  0  0  0
 30 32  1  0  0  0  0
 30 33  1  0  0  0  0
 28 29  1  0  0  0  0
 28 30  1  0  0  0  0
M  END
$$$$
default_name
  -OEChem-02102213163D

 33 32  0     1  0  0  0  0  0999 V2000
   -3.8420   -3.6918    1.5562 H   0  0  0  0  0  0  0  0  0  0  0  0
   -3.8430   -2.7008    1.1032 C   0  0  0  0  0  0  0  0  0  0  0  0
   -4.5510   -2.0608    1.6242 H   0  0  0  0  0  0  0  0  0  0  0  0
   -4.1140   -2.7798    0.0522 H   0  0  0  0  0  0  0  0  0  0  0  0
   -2.4570   -2.1098    1.2172 C   0  0  0  0  0  0  0  0  0  0  0  0
   -1.5600   -2.7438    1.7572 O   0  0  0  0  0  0  0  0  0  0  0  0
   -2.2870   -0.8898    0.7102 N   0  0  0  0  0  0  0  0  0  0  0  0
   -3.0820   -0.4218    0.2992 H   0  0  0  0  0  0  0  0  0  0  0  0
   -1.0240   -0.1468    0.7262 C   0  0  1  0  0  0  0  0  0  0  0  0
   -0.2680   -0.7367    0.2062 H   0  0  0  0  0  0  0  0  0  0  0  0
   -1.2212    1.1806   -0.0314 C   0  0  0  0  0  0  0  0  0  0  0  0
   -2.1619    1.6295    0.2940 H   0  0  0  0  0  0  0  0  0  0  0  0
   -0.4109    1.8647    0.2246 H   0  0  0  0  0  0  0  0  0  0  0  0
   -1.2749    1.0077   -1.5574 C   0  0  0  0  0  0  0  0  0  0  0  0
   -1.6725    1.9141   -2.0147 H   0  0  0  0  0  0  0  0  0  0  0  0
   -0.2660    0.8301   -1.9343 H   0  0  0  0  0  0  0  0  0  0  0  0
   -2.1722   -0.1737   -1.9431 C   0  0  0  0  0  0  0  0  0  0  0  0
   -1.7914   -1.0876   -1.4862 H   0  0  0  0  0  0  0  0  0  0  0  0
   -3.1872    0.0100   -1.5894 H   0  0  0  0  0  0  0  0  0  0  0  0
   -2.1882   -0.3385   -3.4616 C   0  0  0  0  0  0  0  0  0  0  0  0
   -2.5856    0.5661   -3.9191 H   0  0  0  0  0  0  0  0  0  0  0  0
   -1.1731   -0.5043   -3.8184 H   0  0  0  0  0  0  0  0  0  0  0  0
   -3.0208   -1.4776   -3.8646 N   0  0  0  0  0  0  0  0  0  0  0  0
   -3.0197   -1.5480   -4.8716 H   0  0  0  0  0  0  0  0  0  0  0  0
   -2.6378   -2.3244   -3.4687 H   0  0  0  0  0  0  0  0  0  0  0  0
   -0.5564    0.0727    2.1744 C   0  0  0  0  0  0  0  0  0  0  0  0
    0.6169   -0.1288    2.4805 O   0  0  0  0  0  0  0  0  0  0  0  0
   -1.4759    0.4743    3.0595 N   0  0  0  0  0  0  0  0  0  0  0  0
   -2.4132    0.6318    2.7275 H   0  0  0  0  0  0  0  0  0  0  0  0
   -1.1971    0.7118    4.4750 C   0  0  0  0  0  0  0  0  0  0  0  0
   -0.3779    1.4272    4.5748 H   0  0  0  0  0  0  0  0  0  0  0  0
   -2.0826    1.1064    4.9754 H   0  0  0  0  0  0  0  0  0  0  0  0
   -0.8992   -0.2240    4.9525 H   0  0  0  0  0  0  0  0  0  0  0  0
  5  6  2  0  0  0  0
  5  7  1  0  0  0  0
  2  3  1  0  0  0  0
  2  4  1  0  0  0  0
  2  5  1  0  0  0  0
  1  2  1  0  0  0  0
 26 27  2  0  0  0  0
 26 28  1  0  0  0  0
 23 24  1  0  0  0  0
 23 25  1  0  0  0  0
 20 21  1  0  0  0  0
 20 22  1  0  0  0  0
 20 23  1  0  0  0  0
 17 18  1  0  0  0  0
 17 19  1  0  0  0  0
 17 20  1  0  0  0  0
 14 15  1  0  0  0  0
 14 16  1  0  0  0  0
 14 17  1  0  0  0  0
 11 12  1  0  0  0  0
 11 13  1  0  0  0  0
 11 14  1  0  0  0  0
  9 10  1  0  0  0  0
  9 11  1  0  0  0  0
  9 26  1  0  0  0  0
  7  8  1  0  0  0  0
  7  9  1  0  0  0  0
 30 31  1  0  0  0  0
 30 32  1  0  0  0  0
 30 33  1  0  0  0  0
 28 29  1  0  0  0  0
 28 30  1  0  0  0  0
M  END
$$$$
default_name
  -OEChem-02102213163D

 33 32  0     1  0  0  0  0  0999 V2000
   -3.8420   -3.6918    1.5562 H   0  0  0  0  0  0  0  0  0  0  0  0
   -3.8430   -2.7008    1.1032 C   0  0  0  0  0  0  0  0  0  0  0  0
   -4.5510   -2.0608    1.6242 H   0  0  0  0  0  0  0  0  0  0  0  0
   -4.1140   -2.7798    0.0522 H   0  0  0  0  0  0  0  0  0  0  0  0
   -2.4570   -2.1098    1.2172 C   0  0  0  0  0  0  0  0  0  0  0  0
   -1.5600   -2.7438    1.7572 O   0  0  0  0  0  0  0  0  0  0  0  0
   -2.2870   -0.8898    0.7102 N   0  0  0  0  0  0  0  0  0  0  0  0
   -3.0820   -0.4218    0.2992 H   0  0  0  0  0  0  0  0  0  0  0  0
   -1.0240   -0.1468    0.7262 C   0  0  1  0  0  0  0  0  0  0  0  0
   -0.2680   -0.7367    0.2062 H   0  0  0  0  0  0  0  0  0  0  0  0
   -1.2212    1.1806   -0.0314 C   0  0  0  0  0  0  0  0  0  0  0  0
   -2.1619    1.6295    0.2940 H   0  0  0  0  0  0  0  0  0  0  0  0
   -0.4109    1.8647    0.2246 H   0  0  0  0  0  0  0  0  0  0  0  0
   -1.2749    1.0077   -1.5574 C   0  0  0  0  0  0  0  0  0  0  0  0
   -1.4131    1.9799   -2.0313 H   0  0  0  0  0  0  0  0  0  0  0  0
   -0.3355    0.5721   -1.9026 H   0  0  0  0  0  0  0  0  0  0  0  0
   -2.4347    0.0916   -1.9639 C   0  0  0  0  0  0  0  0  0  0  0  0
   -2.3147   -0.8836   -1.4909 H   0  0  0  0  0  0  0  0  0  0  0  0
   -3.3778    0.5344   -1.6421 H   0  0  0  0  0  0  0  0  0  0  0  0
   -2.4501   -0.0830   -3.4813 C   0  0  0  0  0  0  0  0  0  0  0  0
   -2.5885    0.8873   -3.9554 H   0  0  0  0  0  0  0  0  0  0  0  0
   -1.5022   -0.5087   -3.8064 H   0  0  0  0  0  0  0  0  0  0  0  0
   -3.5360   -0.9752   -3.9034 N   0  0  0  0  0  0  0  0  0  0  0  0
   -3.5249   -1.0565   -4.9096 H   0  0  0  0  0  0  0  0  0  0  0  0
   -3.3949   -1.8867   -3.4917 H   0  0  0  0  0  0  0  0  0  0  0  0
   -0.5564    0.0727    2.1744 C   0  0  0  0  0  0  0  0  0  0  0  0
    0.6169   -0.1288    2.4805 O   0  0  0  0  0  0  0  0  0  0  0  0
   -1.4759    0.4743    3.0595 N   0  0  0  0  0  0  0  0  0  0  0  0
   -2.4132    0.6318    2.7275 H   0  0  0  0  0  0  0  0  0  0  0  0
   -1.1971    0.7118    4.4750 C   0  0  0  0  0  0  0  0  0  0  0  0
   -0.3779    1.4272    4.5748 H   0  0  0  0  0  0  0  0  0  0  0  0
   -2.0826    1.1064    4.9754 H   0  0  0  0  0  0  0  0  0  0  0  0
   -0.8992   -0.2240    4.9525 H   0  0  0  0  0  0  0  0  0  0  0  0
  5  6  2  0  0  0  0
  5  7  1  0  0  0  0
  2  3  1  0  0  0  0
  2  4  1  0  0  0  0
  2  5  1  0  0  0  0
  1  2  1  0  0  0  0
 26 27  2  0  0  0  0
 26 28  1  0  0  0  0
 23 24  1  0  0  0  0
 23 25  1  0  0  0  0
 20 21  1  0  0  0  0
 20 22  1  0  0  0  0
 20 23  1  0  0  0  0
 17 18  1  0  0  0  0
 17 19  1  0  0  0  0
 17 20  1  0  0  0  0
 14 15  1  0  0  0  0
 14 16  1  0  0  0  0
 14 17  1  0  0  0  0
 11 12  1  0  0  0  0
 11 13  1  0  0  0  0
 11 14  1  0  0  0  0
  9 10  1  0  0  0  0
  9 11  1  0  0  0  0
  9 26  1  0  0  0  0
  7  8  1  0  0  0  0
  7  9  1  0  0  0  0
 30 31  1  0  0  0  0
 30 32  1  0  0  0  0
 30 33  1  0  0  0  0
 28 29  1  0  0  0  0
 28 30  1  0  0  0  0
M  END
$$$$
default_name
  -OEChem-02102213163D

 33 32  0     1  0  0  0  0  0999 V2000
   -3.8420   -3.6918    1.5562 H   0  0  0  0  0  0  0  0  0  0  0  0
   -3.8430   -2.7008    1.1032 C   0  0  0  0  0  0  0  0  0  0  0  0
   -4.5510   -2.0608    1.6242 H   0  0  0  0  0  0  0  0  0  0  0  0
   -4.1140   -2.7798    0.0522 H   0  0  0  0  0  0  0  0  0  0  0  0
   -2.4570   -2.1098    1.2172 C   0  0  0  0  0  0  0  0  0  0  0  0
   -1.5600   -2.7438    1.7572 O   0  0  0  0  0  0  0  0  0  0  0  0
   -2.2870   -0.8898    0.7102 N   0  0  0  0  0  0  0  0  0  0  0  0
   -3.0820   -0.4218    0.2992 H   0  0  0  0  0  0  0  0  0  0  0  0
   -1.0240   -0.1468    0.7262 C   0  0  1  0  0  0  0  0  0  0  0  0
   -0.2680   -0.7367    0.2062 H   0  0  0  0  0  0  0  0  0  0  0  0
   -1.2212    1.1806   -0.0314 C   0  0  0  0  0  0  0  0  0  0  0  0
   -2.1619    1.6295    0.2940 H   0  0  0  0  0  0  0  0  0  0  0  0
   -0.4109    1.8647    0.2246 H   0  0  0  0  0  0  0  0  0  0  0  0
   -1.2749    1.0077   -1.5574 C   0  0  0  0  0  0  0  0  0  0  0  0
   -1.1452    1.9766   -2.0403 H   0  0  0  0  0  0  0  0  0  0  0  0
   -0.4698    0.3410   -1.8717 H   0  0  0  0  0  0  0  0  0  0  0  0
   -2.6195    0.4151   -1.9941 C   0  0  0  0  0  0  0  0  0  0  0  0
   -2.7675   -0.5520   -1.5125 H   0  0  0  0  0  0  0  0  0  0  0  0
   -3.4256    1.0894   -1.7033 H   0  0  0  0  0  0  0  0  0  0  0  0
   -2.6368    0.2308   -3.5103 C   0  0  0  0  0  0  0  0  0  0  0  0
   -2.5078    1.1979   -3.9935 H   0  0  0  0  0  0  0  0  0  0  0  0
   -1.8215   -0.4282   -3.8042 H   0  0  0  0  0  0  0  0  0  0  0  0
   -3.9034   -0.3578   -3.9605 N   0  0  0  0  0  0  0  0  0  0  0  0
   -3.8855   -0.4521   -4.9653 H   0  0  0  0  0  0  0  0  0  0  0  0
   -4.0130   -1.2696   -3.5398 H   0  0  0  0  0  0  0  0  0  0  0  0
   -0.5564    0.0727    2.1744 C   0  0  0  0  0  0  0  0  0  0  0  0
    0.6169   -0.1288    2.4805 O   0  0  0  0  0  0  0  0  0  0  0  0
   -1.4759    0.4743    3.0595 N   0  0  0  0  0  0  0  0  0  0  0  0
   -2.4132    0.6318    2.7275 H   0  0  0  0  0  0  0  0  0  0  0  0
   -1.1971    0.7118    4.4750 C   0  0  0  0  0  0  0  0  0  0  0  0
   -0.3779    1.4272    4.5748 H   0  0  0  0  0  0  0  0  0  0  0  0
   -2.0826    1.1064    4.9754 H   0  0  0  0  0  0  0  0  0  0  0  0
   -0.8992   -0.2240    4.9525 H   0  0  0  0  0  0  0  0  0  0  0  0
  5  6  2  0  0  0  0
  5  7  1  0  0  0  0
  2  3  1  0  0  0  0
  2  4  1  0  0  0  0
  2  5  1  0  0  0  0
  1  2  1  0  0  0  0
 26 27  2  0  0  0  0
 26 28  1  0  0  0  0
 23 24  1  0  0  0  0
 23 25  1  0  0  0  0
 20 21  1  0  0  0  0
 20 22  1  0  0  0  0
 20 23  1  0  0  0  0
 17 18  1  0  0  0  0
 17 19  1  0  0  0  0
 17 20  1  0  0  0  0
 14 15  1  0  0  0  0
 14 16  1  0  0  0  0
 14 17  1  0  0  0  0
 11 12  1  0  0  0  0
 11 13  1  0  0  0  0
 11 14  1  0  0  0  0
  9 10  1  0  0  0  0
  9 11  1  0  0  0  0
  9 26  1  0  0  0  0
  7  8  1  0  0  0  0
  7  9  1  0  0  0  0
 30 31  1  0  0  0  0
 30 32  1  0  0  0  0
 30 33  1  0  0  0  0
 28 29  1  0  0  0  0
 28 30  1  0  0  0  0
M  END
$$$$
default_name
  -OEChem-02102213163D

 33 32  0     1  0  0  0  0  0999 V2000
   -3.8420   -3.6918    1.5562 H   0  0  0  0  0  0  0  0  0  0  0  0
   -3.8430   -2.7008    1.1032 C   0  0  0  0  0  0  0  0  0  0  0  0
   -4.5510   -2.0608    1.6242 H   0  0  0  0  0  0  0  0  0  0  0  0
   -4.1140   -2.7798    0.0522 H   0  0  0  0  0  0  0  0  0  0  0  0
   -2.4570   -2.1098    1.2172 C   0  0  0  0  0  0  0  0  0  0  0  0
   -1.5600   -2.7438    1.7572 O   0  0  0  0  0  0  0  0  0  0  0  0
   -2.2870   -0.8898    0.7102 N   0  0  0  0  0  0  0  0  0  0  0  0
   -3.0820   -0.4218    0.2992 H   0  0  0  0  0  0  0  0  0  0  0  0
   -1.0240   -0.1468    0.7262 C   0  0  1  0  0  0  0  0  0  0  0  0
   -0.2680   -0.7367    0.2062 H   0  0  0  0  0  0  0  0  0  0  0  0
   -1.2212    1.1806   -0.0314 C   0  0  0  0  0  0  0  0  0  0  0  0
   -2.1619    1.6295    0.2940 H   0  0  0  0  0  0  0  0  0  0  0  0
   -0.4109    1.8647    0.2246 H   0  0  0  0  0  0  0  0  0  0  0  0
   -1.2749    1.0077   -1.5574 C   0  0  0  0  0  0  0  0  0  0  0  0
   -0.8869    1.9045   -2.0413 H   0  0  0  0  0  0  0  0  0  0  0  0
   -0.6599    0.1526   -1.8436 H   0  0  0  0  0  0  0  0  0  0  0  0
   -2.7139    0.7748   -2.0315 C   0  0  0  0  0  0  0  0  0  0  0  0
   -3.1190   -0.1155   -1.5496 H   0  0  0  0  0  0  0  0  0  0  0  0
   -3.3273    1.6372   -1.7689 H   0  0  0  0  0  0  0  0  0  0  0  0
   -2.7357    0.5817   -3.5465 C   0  0  0  0  0  0  0  0  0  0  0  0
   -2.3488    1.4769   -4.0307 H   0  0  0  0  0  0  0  0  0  0  0  0
   -2.1094   -0.2684   -3.8122 H   0  0  0  0  0  0  0  0  0  0  0  0
   -4.0979    0.3324   -4.0318 N   0  0  0  0  0  0  0  0  0  0  0  0
   -4.0768    0.2238   -5.0352 H   0  0  0  0  0  0  0  0  0  0  0  0
   -4.4500   -0.5152   -3.6100 H   0  0  0  0  0  0  0  0  0  0  0  0
   -0.5564    0.0727    2.1744 C   0  0  0  0  0  0  0  0  0  0  0  0
    0.6169   -0.1288    2.4805 O   0  0  0  0  0  0  0  0  0  0  0  0
   -1.4759    0.4743    3.0595 N   0  0  0  0  0  0  0  0  0  0  0  0
   -2.4132    0.6318    2.7275 H   0  0  0  0  0  0  0  0  0  0  0  0
   -1.1971    0.7118    4.4750 C   0  0  0  0  0  0  0  0  0  0  0  0
   -0.3779    1.4272    4.5748 H   0  0  0  0  0  0  0  0  0  0  0  0
   -2.0826    1.1064    4.9754 H   0  0  0  0  0  0  0  0  0  0  0  0
   -0.8992   -0.2240    4.9525 H   0  0  0  0  0  0  0  0  0  0  0  0
  5  6  2  0  0  0  0
  5  7  1  0  0  0  0
  2  3  1  0  0  0  0
  2  4  1  0  0  0  0
  2  5  1  0  0  0  0
  1  2  1  0  0  0  0
 26 27  2  0  0  0  0
 26 28  1  0  0  0  0
 23 24  1  0  0  0  0
 23 25  1  0  0  0  0
 20 21  1  0  0  0  0
 20 22  1  0  0  0  0
 20 23  1  0  0  0  0
 17 18  1  0  0  0  0
 17 19  1  0  0  0  0
 17 20  1  0  0  0  0
 14 15  1  0  0  0  0
 14 16  1  0  0  0  0
 14 17  1  0  0  0  0
 11 12  1  0  0  0  0
 11 13  1  0  0  0  0
 11 14  1  0  0  0  0
  9 10  1  0  0  0  0
  9 11  1  0  0  0  0
  9 26  1  0  0  0  0
  7  8  1  0  0  0  0
  7  9  1  0  0  0  0
 30 31  1  0  0  0  0
 30 32  1  0  0  0  0
 30 33  1  0  0  0  0
 28 29  1  0  0  0  0
 28 30  1  0  0  0  0
M  END
$$$$
default_name
  -OEChem-02102213163D

 33 32  0     1  0  0  0  0  0999 V2000
   -3.8420   -3.6918    1.5562 H   0  0  0  0  0  0  0  0  0  0  0  0
   -3.8430   -2.7008    1.1032 C   0  0  0  0  0  0  0  0  0  0  0  0
   -4.5510   -2.0608    1.6242 H   0  0  0  0  0  0  0  0  0  0  0  0
   -4.1140   -2.7798    0.0522 H   0  0  0  0  0  0  0  0  0  0  0  0
   -2.4570   -2.1098    1.2172 C   0  0  0  0  0  0  0  0  0  0  0  0
   -1.5600   -2.7438    1.7572 O   0  0  0  0  0  0  0  0  0  0  0  0
   -2.2870   -0.8898    0.7102 N   0  0  0  0  0  0  0  0  0  0  0  0
   -3.0820   -0.4218    0.2992 H   0  0  0  0  0  0  0  0  0  0  0  0
   -1.0240   -0.1468    0.7262 C   0  0  1  0  0  0  0  0  0  0  0  0
   -0.2680   -0.7367    0.2062 H   0  0  0  0  0  0  0  0  0  0  0  0
   -1.2212    1.1806   -0.0314 C   0  0  0  0  0  0  0  0  0  0  0  0
   -2.1619    1.6295    0.2940 H   0  0  0  0  0  0  0  0  0  0  0  0
   -0.4109    1.8647    0.2246 H   0  0  0  0  0  0  0  0  0  0  0  0
   -1.2749    1.0077   -1.5574 C   0  0  0  0  0  0  0  0  0  0  0  0
   -0.6560    1.7684   -2.0340 H   0  0  0  0  0  0  0  0  0  0  0  0
   -0.8927    0.0197   -1.8204 H   0  0  0  0  0  0  0  0  0  0  0  0
   -2.7116    1.1462   -2.0737 C   0  0  0  0  0  0  0  0  0  0  0  0
   -3.3453    0.3961   -1.5996 H   0  0  0  0  0  0  0  0  0  0  0  0
   -3.0896    2.1405   -1.8343 H   0  0  0  0  0  0  0  0  0  0  0  0
   -2.7399    0.9457   -3.5876 C   0  0  0  0  0  0  0  0  0  0  0  0
   -2.1225    1.7052   -4.0645 H   0  0  0  0  0  0  0  0  0  0  0  0
   -2.3461   -0.0401   -3.8297 H   0  0  0  0  0  0  0  0  0  0  0  0
   -4.1064    1.0485   -4.1127 N   0  0  0  0  0  0  0  0  0  0  0  0
   -4.0858    0.9252   -5.1144 H   0  0  0  0  0  0  0  0  0  0  0  0
   -4.6762    0.3253   -3.6972 H   0  0  0  0  0  0  0  0  0  0  0  0
   -0.5564    0.0727    2.1744 C   0  0  0  0  0  0  0  0  0  0  0  0
    0.6169   -0.1288    2.4805 O   0  0  0  0  0  0  0  0  0  0  0  0
   -1.4759    0.4743    3.0595 N   0  0  0  0  0  0  0  0  0  0  0  0
   -2.4132    0.6318    2.7275 H   0  0  0  0  0  0  0  0  0  0  0  0
   -1.1971    0.7118    4.4750 C   0  0  0  0  0  0  0  0  0  0  0  0
   -0.3779    1.4272    4.5748 H   0  0  0  0  0  0  0  0  0  0  0  0
   -2.0826    1.1064    4.9754 H   0  0  0  0  0  0  0  0  0  0  0  0
   -0.8992   -0.2240    4.9525 H   0  0  0  0  0  0  0  0  0  0  0  0
  5  6  2  0  0  0  0
  5  7  1  0  0  0  0
  2  3  1  0  0  0  0
  2  4  1  0  0  0  0
  2  5  1  0  0  0  0
  1  2  1  0  0  0  0
 26 27  2  0  0  0  0
 26 28  1  0  0  0  0
 23 24  1  0  0  0  0
 23 25  1  0  0  0  0
 20 21  1  0  0  0  0
 20 22  1  0  0  0  0
 20 23  1  0  0  0  0
 17 18  1  0  0  0  0
 17 19  1  0  0  0  0
 17 20  1  0  0  0  0
 14 15  1  0  0  0  0
 14 16  1  0  0  0  0
 14 17  1  0  0  0  0
 11 12  1  0  0  0  0
 11 13  1  0  0  0  0
 11 14  1  0  0  0  0
  9 10  1  0  0  0  0
  9 11  1  0  0  0  0
  9 26  1  0  0  0  0
  7  8  1  0  0  0  0
  7  9  1  0  0  0  0
 30 31  1  0  0  0  0
 30 32  1  0  0  0  0
 30 33  1  0  0  0  0
 28 29  1  0  0  0  0
 28 30  1  0  0  0  0
M  END
$$$$
default_name
  -OEChem-02102213163D

 33 32  0     1  0  0  0  0  0999 V2000
   -3.8420   -3.6918    1.5562 H   0  0  0  0  0  0  0  0  0  0  0  0
   -3.8430   -2.7008    1.1032 C   0  0  0  0  0  0  0  0  0  0  0  0
   -4.5510   -2.0608    1.6242 H   0  0  0  0  0  0  0  0  0  0  0  0
   -4.1140   -2.7798    0.0522 H   0  0  0  0  0  0  0  0  0  0  0  0
   -2.4570   -2.1098    1.2172 C   0  0  0  0  0  0  0  0  0  0  0  0
   -1.5600   -2.7438    1.7572 O   0  0  0  0  0  0  0  0  0  0  0  0
   -2.2870   -0.8898    0.7102 N   0  0  0  0  0  0  0  0  0  0  0  0
   -3.0820   -0.4218    0.2992 H   0  0  0  0  0  0  0  0  0  0  0  0
   -1.0240   -0.1468    0.7262 C   0  0  1  0  0  0  0  0  0  0  0  0
   -0.2680   -0.7367    0.2062 H   0  0  0  0  0  0  0  0  0  0  0  0
   -1.2212    1.1806   -0.0314 C   0  0  0  0  0  0  0  0  0  0  0  0
   -2.1619    1.6295    0.2940 H   0  0  0  0  0  0  0  0  0  0  0  0
   -0.4109    1.8647    0.2246 H   0  0  0  0  0  0  0  0  0  0  0  0
   -1.2749    1.0077   -1.5574 C   0  0  0  0  0  0  0  0  0  0  0  0
   -0.4681    1.5777   -2.0190 H   0  0  0  0  0  0  0  0  0  0  0  0
   -1.1524   -0.0487   -1.8035 H   0  0  0  0  0  0  0  0  0  0  0  0
   -2.6126    1.5040   -2.1177 C   0  0  0  0  0  0  0  0  0  0  0  0
   -3.4309    0.9480   -1.6591 H   0  0  0  0  0  0  0  0  0  0  0  0
   -2.7288    2.5650   -1.8951 H   0  0  0  0  0  0  0  0  0  0  0  0
   -2.6493    1.2980   -3.6308 C   0  0  0  0  0  0  0  0  0  0  0  0
   -1.8442    1.8672   -4.0927 H   0  0  0  0  0  0  0  0  0  0  0  0
   -2.5156    0.2411   -3.8556 H   0  0  0  0  0  0  0  0  0  0  0  0
   -3.9281    1.7416   -4.1975 N   0  0  0  0  0  0  0  0  0  0  0  0
   -3.9120    1.6043   -5.1974 H   0  0  0  0  0  0  0  0  0  0  0  0
   -4.6762    1.1945   -3.7957 H   0  0  0  0  0  0  0  0  0  0  0  0
   -0.5564    0.0727    2.1744 C   0  0  0  0  0  0  0  0  0  0  0  0
    0.6169   -0.1288    2.4805 O   0  0  0  0  0  0  0  0  0  0  0  0
   -1.4759    0.4743    3.0595 N   0  0  0  0  0  0  0  0  0  0  0  0
   -2.4132    0.6318    2.7275 H   0  0  0  0  0  0  0  0  0  0  0  0
   -1.1971    0.7118    4.4750 C   0  0  0  0  0  0  0  0  0  0  0  0
   -0.3779    1.4272    4.5748 H   0  0  0  0  0  0  0  0  0  0  0  0
   -2.0826    1.1064    4.9754 H   0  0  0  0  0  0  0  0  0  0  0  0
   -0.8992   -0.2240    4.9525 H   0  0  0  0  0  0  0  0  0  0  0  0
  5  6  2  0  0  0  0
  5  7  1  0  0  0  0
  2  3  1  0  0  0  0
  2  4  1  0  0  0  0
  2  5  1  0  0  0  0
  1  2  1  0  0  0  0
 26 27  2  0  0  0  0
 26 28  1  0  0  0  0
 23 24  1  0  0  0  0
 23 25  1  0  0  0  0
 20 21  1  0  0  0  0
 20 22  1  0  0  0  0
 20 23  1  0  0  0  0
 17 18  1  0  0  0  0
 17 19  1  0  0  0  0
 17 20  1  0  0  0  0
 14 15  1  0  0  0  0
 14 16  1  0  0  0  0
 14 17  1  0  0  0  0
 11 12  1  0  0  0  0
 11 13  1  0  0  0  0
 11 14  1  0  0  0  0
  9 10  1  0  0  0  0
  9 11  1  0  0  0  0
  9 26  1  0  0  0  0
  7  8  1  0  0  0  0
  7  9  1  0  0  0  0
 30 31  1  0  0  0  0
 30 32  1  0  0  0  0
 30 33  1  0  0  0  0
 28 29  1  0  0  0  0
 28 30  1  0  0  0  0
M  END
$$$$
default_name
  -OEChem-02102213163D

 33 32  0     1  0  0  0  0  0999 V2000
   -3.8420   -3.6918    1.5562 H   0  0  0  0  0  0  0  0  0  0  0  0
   -3.8430   -2.7008    1.1032 C   0  0  0  0  0  0  0  0  0  0  0  0
   -4.5510   -2.0608    1.6242 H   0  0  0  0  0  0  0  0  0  0  0  0
   -4.1140   -2.7798    0.0522 H   0  0  0  0  0  0  0  0  0  0  0  0
   -2.4570   -2.1098    1.2172 C   0  0  0  0  0  0  0  0  0  0  0  0
   -1.5600   -2.7438    1.7572 O   0  0  0  0  0  0  0  0  0  0  0  0
   -2.2870   -0.8898    0.7102 N   0  0  0  0  0  0  0  0  0  0  0  0
   -3.0820   -0.4218    0.2992 H   0  0  0  0  0  0  0  0  0  0  0  0
   -1.0240   -0.1468    0.7262 C   0  0  1  0  0  0  0  0  0  0  0  0
   -0.2680   -0.7367    0.2062 H   0  0  0  0  0  0  0  0  0  0  0  0
   -1.2212    1.1806   -0.0314 C   0  0  0  0  0  0  0  0  0  0  0  0
   -2.1619    1.6295    0.2940 H   0  0  0  0  0  0  0  0  0  0  0  0
   -0.4109    1.8647    0.2246 H   0  0  0  0  0  0  0  0  0  0  0  0
   -1.2749    1.0077   -1.5574 C   0  0  0  0  0  0  0  0  0  0  0  0
   -0.3361    1.3453   -1.9973 H   0  0  0  0  0  0  0  0  0  0  0  0
   -1.4214   -0.0477   -1.7941 H   0  0  0  0  0  0  0  0  0  0  0  0
   -2.4238    1.8237   -2.1606 C   0  0  0  0  0  0  0  0  0  0  0  0
   -3.3701    1.5025   -1.7241 H   0  0  0  0  0  0  0  0  0  0  0  0
   -2.2695    2.8818   -1.9472 H   0  0  0  0  0  0  0  0  0  0  0  0
   -2.4699    1.6146   -3.6730 C   0  0  0  0  0  0  0  0  0  0  0  0
   -1.5330    1.9520   -4.1132 H   0  0  0  0  0  0  0  0  0  0  0  0
   -2.6063    0.5561   -3.8881 H   0  0  0  0  0  0  0  0  0  0  0  0
   -3.5753    2.3645   -4.2805 N   0  0  0  0  0  0  0  0  0  0  0  0
   -3.5671    2.2148   -5.2788 H   0  0  0  0  0  0  0  0  0  0  0  0
   -4.4498    2.0331   -3.8987 H   0  0  0  0  0  0  0  0  0  0  0  0
   -0.5564    0.0727    2.1744 C   0  0  0  0  0  0  0  0  0  0  0  0
    0.6169   -0.1288    2.4805 O   0  0  0  0  0  0  0  0  0  0  0  0
   -1.4759    0.4743    3.0595 N   0  0  0  0  0  0  0  0  0  0  0  0
   -2.4132    0.6318    2.7275 H   0  0  0  0  0  0  0  0  0  0  0  0
   -1.1971    0.7118    4.4750 C   0  0  0  0  0  0  0  0  0  0  0  0
   -0.3779    1.4272    4.5748 H   0  0  0  0  0  0  0  0  0  0  0  0
   -2.0826    1.1064    4.9754 H   0  0  0  0  0  0  0  0  0  0  0  0
   -0.8992   -0.2240    4.9525 H   0  0  0  0  0  0  0  0  0  0  0  0
  5  6  2  0  0  0  0
  5  7  1  0  0  0  0
  2  3  1  0  0  0  0
  2  4  1  0  0  0  0
  2  5  1  0  0  0  0
  1  2  1  0  0  0  0
 26 27  2  0  0  0  0
 26 28  1  0  0  0  0
 23 24  1  0  0  0  0
 23 25  1  0  0  0  0
 20 21  1  0  0  0  0
 20 22  1  0  0  0  0
 20 23  1  0  0  0  0
 17 18  1  0  0  0  0
 17 19  1  0  0  0  0
 17 20  1  0  0  0  0
 14 15  1  0  0  0  0
 14 16  1  0  0  0  0
 14 17  1  0  0  0  0
 11 12  1  0  0  0  0
 11 13  1  0  0  0  0
 11 14  1  0  0  0  0
  9 10  1  0  0  0  0
  9 11  1  0  0  0  0
  9 26  1  0  0  0  0
  7  8  1  0  0  0  0
  7  9  1  0  0  0  0
 30 31  1  0  0  0  0
 30 32  1  0  0  0  0
 30 33  1  0  0  0  0
 28 29  1  0  0  0  0
 28 30  1  0  0  0  0
M  END
$$$$
default_name
  -OEChem-02102213163D

 33 32  0     1  0  0  0  0  0999 V2000
   -3.8420   -3.6918    1.5562 H   0  0  0  0  0  0  0  0  0  0  0  0
   -3.8430   -2.7008    1.1032 C   0  0  0  0  0  0  0  0  0  0  0  0
   -4.5510   -2.0608    1.6242 H   0  0  0  0  0  0  0  0  0  0  0  0
   -4.1140   -2.7798    0.0522 H   0  0  0  0  0  0  0  0  0  0  0  0
   -2.4570   -2.1098    1.2172 C   0  0  0  0  0  0  0  0  0  0  0  0
   -1.5600   -2.7438    1.7572 O   0  0  0  0  0  0  0  0  0  0  0  0
   -2.2870   -0.8898    0.7102 N   0  0  0  0  0  0  0  0  0  0  0  0
   -3.0820   -0.4218    0.2992 H   0  0  0  0  0  0  0  0  0  0  0  0
   -1.0240   -0.1468    0.7262 C   0  0  1  0  0  0  0  0  0  0  0  0
   -0.2680   -0.7367    0.2062 H   0  0  0  0  0  0  0  0  0  0  0  0
   -1.2212    1.1806   -0.0314 C   0  0  0  0  0  0  0  0  0  0  0  0
   -2.1619    1.6295    0.2940 H   0  0  0  0  0  0  0  0  0  0  0  0
   -0.4109    1.8647    0.2246 H   0  0  0  0  0  0  0  0  0  0  0  0
   -1.2749    1.0077   -1.5574 C   0  0  0  0  0  0  0  0  0  0  0  0
   -0.2690    1.0872   -1.9704 H   0  0  0  0  0  0  0  0  0  0  0  0
   -1.6812    0.0223   -1.7929 H   0  0  0  0  0  0  0  0  0  0  0  0
   -2.1581    2.0836   -2.1994 C   0  0  0  0  0  0  0  0  0  0  0  0
   -3.1669    2.0219   -1.7901 H   0  0  0  0  0  0  0  0  0  0  0  0
   -1.7428    3.0692   -1.9870 H   0  0  0  0  0  0  0  0  0  0  0  0
   -2.2141    1.8740   -3.7114 C   0  0  0  0  0  0  0  0  0  0  0  0
   -1.2100    1.9536   -4.1248 H   0  0  0  0  0  0  0  0  0  0  0  0
   -2.6120    0.8833   -3.9250 H   0  0  0  0  0  0  0  0  0  0  0  0
   -3.0720    2.8748   -4.3561 N   0  0  0  0  0  0  0  0  0  0  0  0
   -3.0747    2.7152   -5.3528 H   0  0  0  0  0  0  0  0  0  0  0  0
   -4.0127    2.7841   -3.9992 H   0  0  0  0  0  0  0  0  0  0  0  0
   -0.5564    0.0727    2.1744 C   0  0  0  0  0  0  0  0  0  0  0  0
    0.6169   -0.1288    2.4805 O   0  0  0  0  0  0  0  0  0  0  0  0
   -1.4759    0.4743    3.0595 N   0  0  0  0  0  0  0  0  0  0  0  0
   -2.4132    0.6318    2.7275 H   0  0  0  0  0  0  0  0  0  0  0  0
   -1.1971    0.7118    4.4750 C   0  0  0  0  0  0  0  0  0  0  0  0
   -0.3779    1.4272    4.5748 H   0  0  0  0  0  0  0  0  0  0  0  0
   -2.0826    1.1064    4.9754 H   0  0  0  0  0  0  0  0  0  0  0  0
   -0.8992   -0.2240    4.9525 H   0  0  0  0  0  0  0  0  0  0  0  0
  5  6  2  0  0  0  0
  5  7  1  0  0  0  0
  2  3  1  0  0  0  0
  2  4  1  0  0  0  0
  2  5  1  0  0  0  0
  1  2  1  0  0  0  0
 26 27  2  0  0  0  0
 26 28  1  0  0  0  0
 23 24  1  0  0  0  0
 23 25  1  0  0  0  0
 20 21  1  0  0  0  0
 20 22  1  0  0  0  0
 20 23  1  0  0  0  0
 17 18  1  0  0  0  0
 17 19  1  0  0  0  0
 17 20  1  0  0  0  0
 14 15  1  0  0  0  0
 14 16  1  0  0  0  0
 14 17  1  0  0  0  0
 11 12  1  0  0  0  0
 11 13  1  0  0  0  0
 11 14  1  0  0  0  0
  9 10  1  0  0  0  0
  9 11  1  0  0  0  0
  9 26  1  0  0  0  0
  7  8  1  0  0  0  0
  7  9  1  0  0  0  0
 30 31  1  0  0  0  0
 30 32  1  0  0  0  0
 30 33  1  0  0  0  0
 28 29  1  0  0  0  0
 28 30  1  0  0  0  0
M  END
$$$$
default_name
  -OEChem-02102213163D

 33 32  0     1  0  0  0  0  0999 V2000
   -3.8420   -3.6918    1.5562 H   0  0  0  0  0  0  0  0  0  0  0  0
   -3.8430   -2.7008    1.1032 C   0  0  0  0  0  0  0  0  0  0  0  0
   -4.5510   -2.0608    1.6242 H   0  0  0  0  0  0  0  0  0  0  0  0
   -4.1140   -2.7798    0.0522 H   0  0  0  0  0  0  0  0  0  0  0  0
   -2.4570   -2.1098    1.2172 C   0  0  0  0  0  0  0  0  0  0  0  0
   -1.5600   -2.7438    1.7572 O   0  0  0  0  0  0  0  0  0  0  0  0
   -2.2870   -0.8898    0.7102 N   0  0  0  0  0  0  0  0  0  0  0  0
   -3.0820   -0.4218    0.2992 H   0  0  0  0  0  0  0  0  0  0  0  0
   -1.0240   -0.1468    0.7262 C   0  0  1  0  0  0  0  0  0  0  0  0
   -0.2680   -0.7367    0.2062 H   0  0  0  0  0  0  0  0  0  0  0  0
   -1.2212    1.1806   -0.0314 C   0  0  0  0  0  0  0  0  0  0  0  0
   -2.1619    1.6295    0.2940 H   0  0  0  0  0  0  0  0  0  0  0  0
   -0.4109    1.8647    0.2246 H   0  0  0  0  0  0  0  0  0  0  0  0
   -1.2749    1.0077   -1.5574 C   0  0  0  0  0  0  0  0  0  0  0  0
   -0.2712    0.8208   -1.9401 H   0  0  0  0  0  0  0  0  0  0  0  0
   -1.9142    0.1568   -1.7999 H   0  0  0  0  0  0  0  0  0  0  0  0
   -1.8334    2.2660   -2.2315 C   0  0  0  0  0  0  0  0  0  0  0  0
   -2.8352    2.4708   -1.8527 H   0  0  0  0  0  0  0  0  0  0  0  0
   -1.1848    3.1145   -2.0117 H   0  0  0  0  0  0  0  0  0  0  0  0
   -1.8992    2.0584   -3.7433 C   0  0  0  0  0  0  0  0  0  0  0  0
   -0.8972    1.8721   -4.1266 H   0  0  0  0  0  0  0  0  0  0  0  0
   -2.5323    1.2005   -3.9638 H   0  0  0  0  0  0  0  0  0  0  0  0
   -2.4525    3.2376   -4.4190 N   0  0  0  0  0  0  0  0  0  0  0  0
   -2.4683    3.0713   -5.4145 H   0  0  0  0  0  0  0  0  0  0  0  0
   -3.3944    3.3962   -4.0904 H   0  0  0  0  0  0  0  0  0  0  0  0
   -0.5564    0.0727    2.1744 C   0  0  0  0  0  0  0  0  0  0  0  0
    0.6169   -0.1288    2.4805 O   0  0  0  0  0  0  0  0  0  0  0  0
   -1.4759    0.4743    3.0595 N   0  0  0  0  0  0  0  0  0  0  0  0
   -2.4132    0.6318    2.7275 H   0  0  0  0  0  0  0  0  0  0  0  0
   -1.1971    0.7118    4.4750 C   0  0  0  0  0  0  0  0  0  0  0  0
   -0.3779    1.4272    4.5748 H   0  0  0  0  0  0  0  0  0  0  0  0
   -2.0826    1.1064    4.9754 H   0  0  0  0  0  0  0  0  0  0  0  0
   -0.8992   -0.2240    4.9525 H   0  0  0  0  0  0  0  0  0  0  0  0
  5  6  2  0  0  0  0
  5  7  1  0  0  0  0
  2  3  1  0  0  0  0
  2  4  1  0  0  0  0
  2  5  1  0  0  0  0
  1  2  1  0  0  0  0
 26 27  2  0  0  0  0
 26 28  1  0  0  0  0
 23 24  1  0  0  0  0
 23 25  1  0  0  0  0
 20 21  1  0  0  0  0
 20 22  1  0  0  0  0
 20 23  1  0  0  0  0
 17 18  1  0  0  0  0
 17 19  1  0  0  0  0
 17 20  1  0  0  0  0
 14 15  1  0  0  0  0
 14 16  1  0  0  0  0
 14 17  1  0  0  0  0
 11 12  1  0  0  0  0
 11 13  1  0  0  0  0
 11 14  1  0  0  0  0
  9 10  1  0  0  0  0
  9 11  1  0  0  0  0
  9 26  1  0  0  0  0
  7  8  1  0  0  0  0
  7  9  1  0  0  0  0
 30 31  1  0  0  0  0
 30 32  1  0  0  0  0
 30 33  1  0  0  0  0
 28 29  1  0  0  0  0
 28 30  1  0  0  0  0
M  END
$$$$
default_name
  -OEChem-02102213163D

 33 32  0     1  0  0  0  0  0999 V2000
   -3.8420   -3.6918    1.5562 H   0  0  0  0  0  0  0  0  0  0  0  0
   -3.8430   -2.7008    1.1032 C   0  0  0  0  0  0  0  0  0  0  0  0
   -4.5510   -2.0608    1.6242 H   0  0  0  0  0  0  0  0  0  0  0  0
   -4.1140   -2.7798    0.0522 H   0  0  0  0  0  0  0  0  0  0  0  0
   -2.4570   -2.1098    1.2172 C   0  0  0  0  0  0  0  0  0  0  0  0
   -1.5600   -2.7438    1.7572 O   0  0  0  0  0  0  0  0  0  0  0  0
   -2.2870   -0.8898    0.7102 N   0  0  0  0  0  0  0  0  0  0  0  0
   -3.0820   -0.4218    0.2992 H   0  0  0  0  0  0  0  0  0  0  0  0
   -1.0240   -0.1468    0.7262 C   0  0  1  0  0  0  0  0  0  0  0  0
   -0.2680   -0.7367    0.2062 H   0  0  0  0  0  0  0  0  0  0  0  0
   -1.2212    1.1806   -0.0314 C   0  0  0  0  0  0  0  0  0  0  0  0
   -2.0017    1.7549    0.4719 H   0  0  0  0  0  0  0  0  0  0  0  0
   -0.2960    1.7573    0.0066 H   0  0  0  0  0  0  0  0  0  0  0  0
   -1.6379    0.9877   -1.4979 C   0  0  0  0  0  0  0  0  0  0  0  0
   -0.8708    0.4196   -2.0247 H   0  0  0  0  0  0  0  0  0  0  0  0
   -2.5792    0.4363   -1.5340 H   0  0  0  0  0  0  0  0  0  0  0  0
   -1.8185    2.3394   -2.1979 C   0  0  0  0  0  0  0  0  0  0  0  0
   -2.5782    2.9232   -1.6772 H   0  0  0  0  0  0  0  0  0  0  0  0
   -0.8741    2.8844   -2.1854 H   0  0  0  0  0  0  0  0  0  0  0  0
   -2.2561    2.1196   -3.6447 C   0  0  0  0  0  0  0  0  0  0  0  0
   -1.4904    1.5526   -4.1718 H   0  0  0  0  0  0  0  0  0  0  0  0
   -3.1900    1.5601   -3.6595 H   0  0  0  0  0  0  0  0  0  0  0  0
   -2.4614    3.3962   -4.3386 N   0  0  0  0  0  0  0  0  0  0  0  0
   -2.7354    3.2136   -5.2928 H   0  0  0  0  0  0  0  0  0  0  0  0
   -3.1936    3.9127   -3.8723 H   0  0  0  0  0  0  0  0  0  0  0  0
   -0.5564    0.0727    2.1744 C   0  0  0  0  0  0  0  0  0  0  0  0
    0.6169   -0.1288    2.4805 O   0  0  0  0  0  0  0  0  0  0  0  0
   -1.4759    0.4743    3.0595 N   0  0  0  0  0  0  0  0  0  0  0  0
   -2.4132    0.6318    2.7275 H   0  0  0  0  0  0  0  0  0  0  0  0
   -1.1971    0.7118    4.4750 C   0  0  0  0  0  0  0  0  0  0  0  0
   -0.3779    1.4272    4.5748 H   0  0  0  0  0  0  0  0  0  0  0  0
   -2.0826    1.1064    4.9754 H   0  0  0  0  0  0  0  0  0  0  0  0
   -0.8992   -0.2240    4.9525 H   0  0  0  0  0  0  0  0  0  0  0  0
  5  6  2  0  0  0  0
  5  7  1  0  0  0  0
  2  3  1  0  0  0  0
  2  4  1  0  0  0  0
  2  5  1  0  0  0  0
  1  2  1  0  0  0  0
 26 27  2  0  0  0  0
 26 28  1  0  0  0  0
 23 24  1  0  0  0  0
 23 25  1  0  0  0  0
 20 21  1  0  0  0  0
 20 22  1  0  0  0  0
 20 23  1  0  0  0  0
 17 18  1  0  0  0  0
 17 19  1  0  0  0  0
 17 20  1  0  0  0  0
 14 15  1  0  0  0  0
 14 16  1  0  0  0  0
 14 17  1  0  0  0  0
 11 12  1  0  0  0  0
 11 13  1  0  0  0  0
 11 14  1  0  0  0  0
  9 10  1  0  0  0  0
  9 11  1  0  0  0  0
  9 26  1  0  0  0  0
  7  8  1  0  0  0  0
  7  9  1  0  0  0  0
 30 31  1  0  0  0  0
 30 32  1  0  0  0  0
 30 33  1  0  0  0  0
 28 29  1  0  0  0  0
 28 30  1  0  0  0  0
M  END
$$$$
default_name
  -OEChem-02102213163D

 33 32  0     1  0  0  0  0  0999 V2000
   -3.8420   -3.6918    1.5562 H   0  0  0  0  0  0  0  0  0  0  0  0
   -3.8430   -2.7008    1.1032 C   0  0  0  0  0  0  0  0  0  0  0  0
   -4.5510   -2.0608    1.6242 H   0  0  0  0  0  0  0  0  0  0  0  0
   -4.1140   -2.7798    0.0522 H   0  0  0  0  0  0  0  0  0  0  0  0
   -2.4570   -2.1098    1.2172 C   0  0  0  0  0  0  0  0  0  0  0  0
   -1.5600   -2.7438    1.7572 O   0  0  0  0  0  0  0  0  0  0  0  0
   -2.2870   -0.8898    0.7102 N   0  0  0  0  0  0  0  0  0  0  0  0
   -3.0820   -0.4218    0.2992 H   0  0  0  0  0  0  0  0  0  0  0  0
   -1.0240   -0.1468    0.7262 C   0  0  1  0  0  0  0  0  0  0  0  0
   -0.2680   -0.7367    0.2062 H   0  0  0  0  0  0  0  0  0  0  0  0
   -1.2212    1.1806   -0.0314 C   0  0  0  0  0  0  0  0  0  0  0  0
   -2.0017    1.7549    0.4719 H   0  0  0  0  0  0  0  0  0  0  0  0
   -0.2960    1.7573    0.0066 H   0  0  0  0  0  0  0  0  0  0  0  0
   -1.6379    0.9877   -1.4979 C   0  0  0  0  0  0  0  0  0  0  0  0
   -1.0235    0.2109   -1.9538 H   0  0  0  0  0  0  0  0  0  0  0  0
   -2.6855    0.6835   -1.5363 H   0  0  0  0  0  0  0  0  0  0  0  0
   -1.4608    2.2865   -2.2926 C   0  0  0  0  0  0  0  0  0  0  0  0
   -2.0639    3.0762   -1.8434 H   0  0  0  0  0  0  0  0  0  0  0  0
   -0.4113    2.5819   -2.2772 H   0  0  0  0  0  0  0  0  0  0  0  0
   -1.9049    2.0741   -3.7385 C   0  0  0  0  0  0  0  0  0  0  0  0
   -1.2916    1.2988   -4.1949 H   0  0  0  0  0  0  0  0  0  0  0  0
   -2.9478    1.7619   -3.7548 H   0  0  0  0  0  0  0  0  0  0  0  0
   -1.7705    3.3069   -4.5232 N   0  0  0  0  0  0  0  0  0  0  0  0
   -2.0586    3.1268   -5.4737 H   0  0  0  0  0  0  0  0  0  0  0  0
   -2.3624    4.0207   -4.1227 H   0  0  0  0  0  0  0  0  0  0  0  0
   -0.5564    0.0727    2.1744 C   0  0  0  0  0  0  0  0  0  0  0  0
    0.6169   -0.1288    2.4805 O   0  0  0  0  0  0  0  0  0  0  0  0
   -1.4759    0.4743    3.0595 N   0  0  0  0  0  0  0  0  0  0  0  0
   -2.4132    0.6318    2.7275 H   0  0  0  0  0  0  0  0  0  0  0  0
   -1.1971    0.7118    4.4750 C   0  0  0  0  0  0  0  0  0  0  0  0
   -0.3779    1.4272    4.5748 H   0  0  0  0  0  0  0  0  0  0  0  0
   -2.0826    1.1064    4.9754 H   0  0  0  0  0  0  0  0  0  0  0  0
   -0.8992   -0.2240    4.9525 H   0  0  0  0  0  0  0  0  0  0  0  0
  5  6  2  0  0  0  0
  5  7  1  0  0  0  0
  2  3  1  0  0  0  0
  2  4  1  0  0  0  0
  2  5  1  0  0  0  0
  1  2  1  0  0  0  0
 26 27  2  0  0  0  0
 26 28  1  0  0  0  0
 23 24  1  0  0  0  0
 23 25  1  0  0  0  0
 20 21  1  0  0  0  0
 20 22  1  0  0  0  0
 20 23  1  0  0  0  0
 17 18  1  0  0  0  0
 17 19  1  0  0  0  0
 17 20  1  0  0  0  0
 14 15  1  0  0  0  0
 14 16  1  0  0  0  0
 14 17  1  0  0  0  0
 11 12  1  0  0  0  0
 11 13  1  0  0  0  0
 11 14  1  0  0  0  0
  9 10  1  0  0  0  0
  9 11  1  0  0  0  0
  9 26  1  0  0  0  0
  7  8  1  0  0  0  0
  7  9  1  0  0  0  0
 30 31  1  0  0  0  0
 30 32  1  0  0  0  0
 30 33  1  0  0  0  0
 28 29  1  0  0  0  0
 28 30  1  0  0  0  0
M  END
$$$$
default_name
  -OEChem-02102213163D

 33 32  0     1  0  0  0  0  0999 V2000
   -3.8420   -3.6918    1.5562 H   0  0  0  0  0  0  0  0  0  0  0  0
   -3.8430   -2.7008    1.1032 C   0  0  0  0  0  0  0  0  0  0  0  0
   -4.5510   -2.0608    1.6242 H   0  0  0  0  0  0  0  0  0  0  0  0
   -4.1140   -2.7798    0.0522 H   0  0  0  0  0  0  0  0  0  0  0  0
   -2.4570   -2.1098    1.2172 C   0  0  0  0  0  0  0  0  0  0  0  0
   -1.5600   -2.7438    1.7572 O   0  0  0  0  0  0  0  0  0  0  0  0
   -2.2870   -0.8898    0.7102 N   0  0  0  0  0  0  0  0  0  0  0  0
   -3.0820   -0.4218    0.2992 H   0  0  0  0  0  0  0  0  0  0  0  0
   -1.0240   -0.1468    0.7262 C   0  0  1  0  0  0  0  0  0  0  0  0
   -0.2680   -0.7367    0.2062 H   0  0  0  0  0  0  0  0  0  0  0  0
   -1.2212    1.1806   -0.0314 C   0  0  0  0  0  0  0  0  0  0  0  0
   -2.0017    1.7549    0.4719 H   0  0  0  0  0  0  0  0  0  0  0  0
   -0.2960    1.7573    0.0066 H   0  0  0  0  0  0  0  0  0  0  0  0
   -1.6379    0.9877   -1.4979 C   0  0  0  0  0  0  0  0  0  0  0  0
   -1.2249    0.0521   -1.8757 H   0  0  0  0  0  0  0  0  0  0  0  0
   -2.7270    0.9484   -1.5593 H   0  0  0  0  0  0  0  0  0  0  0  0
   -1.1253    2.1404   -2.3687 C   0  0  0  0  0  0  0  0  0  0  0  0
   -1.5241    3.0852   -1.9980 H   0  0  0  0  0  0  0  0  0  0  0  0
   -0.0360    2.1690   -2.3295 H   0  0  0  0  0  0  0  0  0  0  0  0
   -1.5739    1.9369   -3.8146 C   0  0  0  0  0  0  0  0  0  0  0  0
   -1.1615    1.0029   -4.1929 H   0  0  0  0  0  0  0  0  0  0  0  0
   -2.6610    1.8903   -3.8532 H   0  0  0  0  0  0  0  0  0  0  0  0
   -1.1192    3.0370   -4.6728 N   0  0  0  0  0  0  0  0  0  0  0  0
   -1.4204    2.8632   -5.6204 H   0  0  0  0  0  0  0  0  0  0  0  0
   -1.5248    3.9021   -4.3452 H   0  0  0  0  0  0  0  0  0  0  0  0
   -0.5564    0.0727    2.1744 C   0  0  0  0  0  0  0  0  0  0  0  0
    0.6169   -0.1288    2.4805 O   0  0  0  0  0  0  0  0  0  0  0  0
   -1.4759    0.4743    3.0595 N   0  0  0  0  0  0  0  0  0  0  0  0
   -2.4132    0.6318    2.7275 H   0  0  0  0  0  0  0  0  0  0  0  0
   -1.1971    0.7118    4.4750 C   0  0  0  0  0  0  0  0  0  0  0  0
   -0.3779    1.4272    4.5748 H   0  0  0  0  0  0  0  0  0  0  0  0
   -2.0826    1.1064    4.9754 H   0  0  0  0  0  0  0  0  0  0  0  0
   -0.8992   -0.2240    4.9525 H   0  0  0  0  0  0  0  0  0  0  0  0
  5  6  2  0  0  0  0
  5  7  1  0  0  0  0
  2  3  1  0  0  0  0
  2  4  1  0  0  0  0
  2  5  1  0  0  0  0
  1  2  1  0  0  0  0
 26 27  2  0  0  0  0
 26 28  1  0  0  0  0
 23 24  1  0  0  0  0
 23 25  1  0  0  0  0
 20 21  1  0  0  0  0
 20 22  1  0  0  0  0
 20 23  1  0  0  0  0
 17 18  1  0  0  0  0
 17 19  1  0  0  0  0
 17 20  1  0  0  0  0
 14 15  1  0  0  0  0
 14 16  1  0  0  0  0
 14 17  1  0  0  0  0
 11 12  1  0  0  0  0
 11 13  1  0  0  0  0
 11 14  1  0  0  0  0
  9 10  1  0  0  0  0
  9 11  1  0  0  0  0
  9 26  1  0  0  0  0
  7  8  1  0  0  0  0
  7  9  1  0  0  0  0
 30 31  1  0  0  0  0
 30 32  1  0  0  0  0
 30 33  1  0  0  0  0
 28 29  1  0  0  0  0
 28 30  1  0  0  0  0
M  END
$$$$
default_name
  -OEChem-02102213163D

 33 32  0     1  0  0  0  0  0999 V2000
   -3.8420   -3.6918    1.5562 H   0  0  0  0  0  0  0  0  0  0  0  0
   -3.8430   -2.7008    1.1032 C   0  0  0  0  0  0  0  0  0  0  0  0
   -4.5510   -2.0608    1.6242 H   0  0  0  0  0  0  0  0  0  0  0  0
   -4.1140   -2.7798    0.0522 H   0  0  0  0  0  0  0  0  0  0  0  0
   -2.4570   -2.1098    1.2172 C   0  0  0  0  0  0  0  0  0  0  0  0
   -1.5600   -2.7438    1.7572 O   0  0  0  0  0  0  0  0  0  0  0  0
   -2.2870   -0.8898    0.7102 N   0  0  0  0  0  0  0  0  0  0  0  0
   -3.0820   -0.4218    0.2992 H   0  0  0  0  0  0  0  0  0  0  0  0
   -1.0240   -0.1468    0.7262 C   0  0  1  0  0  0  0  0  0  0  0  0
   -0.2680   -0.7367    0.2062 H   0  0  0  0  0  0  0  0  0  0  0  0
   -1.2212    1.1806   -0.0314 C   0  0  0  0  0  0  0  0  0  0  0  0
   -2.0017    1.7549    0.4719 H   0  0  0  0  0  0  0  0  0  0  0  0
   -0.2960    1.7573    0.0066 H   0  0  0  0  0  0  0  0  0  0  0  0
   -1.6379    0.9877   -1.4979 C   0  0  0  0  0  0  0  0  0  0  0  0
   -1.4612   -0.0461   -1.7957 H   0  0  0  0  0  0  0  0  0  0  0  0
   -2.7010    1.2128   -1.6015 H   0  0  0  0  0  0  0  0  0  0  0  0
   -0.8349    1.9110   -2.4211 C   0  0  0  0  0  0  0  0  0  0  0  0
   -0.9953    2.9497   -2.1305 H   0  0  0  0  0  0  0  0  0  0  0  0
    0.2262    1.6738   -2.3389 H   0  0  0  0  0  0  0  0  0  0  0  0
   -1.2855    1.7173   -3.8676 C   0  0  0  0  0  0  0  0  0  0  0  0
   -1.1090    0.6851   -4.1661 H   0  0  0  0  0  0  0  0  0  0  0  0
   -2.3489    1.9366   -3.9480 H   0  0  0  0  0  0  0  0  0  0  0  0
   -0.5519    2.6049   -4.7771 N   0  0  0  0  0  0  0  0  0  0  0  0
   -0.8643    2.4406   -5.7229 H   0  0  0  0  0  0  0  0  0  0  0  0
   -0.7377    3.5651   -4.5245 H   0  0  0  0  0  0  0  0  0  0  0  0
   -0.5564    0.0727    2.1744 C   0  0  0  0  0  0  0  0  0  0  0  0
    0.6169   -0.1288    2.4805 O   0  0  0  0  0  0  0  0  0  0  0  0
   -1.4759    0.4743    3.0595 N   0  0  0  0  0  0  0  0  0  0  0  0
   -2.4132    0.6318    2.7275 H   0  0  0  0  0  0  0  0  0  0  0  0
   -1.1971    0.7118    4.4750 C   0  0  0  0  0  0  0  0  0  0  0  0
   -0.3779    1.4272    4.5748 H   0  0  0  0  0  0  0  0  0  0  0  0
   -2.0826    1.1064    4.9754 H   0  0  0  0  0  0  0  0  0  0  0  0
   -0.8992   -0.2240    4.9525 H   0  0  0  0  0  0  0  0  0  0  0  0
  5  6  2  0  0  0  0
  5  7  1  0  0  0  0
  2  3  1  0  0  0  0
  2  4  1  0  0  0  0
  2  5  1  0  0  0  0
  1  2  1  0  0  0  0
 26 27  2  0  0  0  0
 26 28  1  0  0  0  0
 23 24  1  0  0  0  0
 23 25  1  0  0  0  0
 20 21  1  0  0  0  0
 20 22  1  0  0  0  0
 20 23  1  0  0  0  0
 17 18  1  0  0  0  0
 17 19  1  0  0  0  0
 17 20  1  0  0  0  0
 14 15  1  0  0  0  0
 14 16  1  0  0  0  0
 14 17  1  0  0  0  0
 11 12  1  0  0  0  0
 11 13  1  0  0  0  0
 11 14  1  0  0  0  0
  9 10  1  0  0  0  0
  9 11  1  0  0  0  0
  9 26  1  0  0  0  0
  7  8  1  0  0  0  0
  7  9  1  0  0  0  0
 30 31  1  0  0  0  0
 30 32  1  0  0  0  0
 30 33  1  0  0  0  0
 28 29  1  0  0  0  0
 28 30  1  0  0  0  0
M  END
$$$$
default_name
  -OEChem-02102213163D

 33 32  0     1  0  0  0  0  0999 V2000
   -3.8420   -3.6918    1.5562 H   0  0  0  0  0  0  0  0  0  0  0  0
   -3.8430   -2.7008    1.1032 C   0  0  0  0  0  0  0  0  0  0  0  0
   -4.5510   -2.0608    1.6242 H   0  0  0  0  0  0  0  0  0  0  0  0
   -4.1140   -2.7798    0.0522 H   0  0  0  0  0  0  0  0  0  0  0  0
   -2.4570   -2.1098    1.2172 C   0  0  0  0  0  0  0  0  0  0  0  0
   -1.5600   -2.7438    1.7572 O   0  0  0  0  0  0  0  0  0  0  0  0
   -2.2870   -0.8898    0.7102 N   0  0  0  0  0  0  0  0  0  0  0  0
   -3.0820   -0.4218    0.2992 H   0  0  0  0  0  0  0  0  0  0  0  0
   -1.0240   -0.1468    0.7262 C   0  0  1  0  0  0  0  0  0  0  0  0
   -0.2680   -0.7367    0.2062 H   0  0  0  0  0  0  0  0  0  0  0  0
   -1.2212    1.1806   -0.0314 C   0  0  0  0  0  0  0  0  0  0  0  0
   -2.0017    1.7549    0.4719 H   0  0  0  0  0  0  0  0  0  0  0  0
   -0.2960    1.7573    0.0066 H   0  0  0  0  0  0  0  0  0  0  0  0
   -1.6379    0.9877   -1.4979 C   0  0  0  0  0  0  0  0  0  0  0  0
   -1.7163   -0.0770   -1.7191 H   0  0  0  0  0  0  0  0  0  0  0  0
   -2.6091    1.4589   -1.6600 H   0  0  0  0  0  0  0  0  0  0  0  0
   -0.6092    1.6141   -2.4461 C   0  0  0  0  0  0  0  0  0  0  0  0
   -0.5138    2.6789   -2.2317 H   0  0  0  0  0  0  0  0  0  0  0  0
    0.3576    1.1301   -2.3047 H   0  0  0  0  0  0  0  0  0  0  0  0
   -1.0595    1.4302   -3.8941 C   0  0  0  0  0  0  0  0  0  0  0  0
   -1.1376    0.3671   -4.1161 H   0  0  0  0  0  0  0  0  0  0  0  0
   -2.0331    1.8976   -4.0326 H   0  0  0  0  0  0  0  0  0  0  0  0
   -0.1073    2.0402   -4.8292 N   0  0  0  0  0  0  0  0  0  0  0  0
   -0.4282    1.8879   -5.7741 H   0  0  0  0  0  0  0  0  0  0  0  0
   -0.0550    3.0326   -4.6485 H   0  0  0  0  0  0  0  0  0  0  0  0
   -0.5564    0.0727    2.1744 C   0  0  0  0  0  0  0  0  0  0  0  0
    0.6169   -0.1288    2.4805 O   0  0  0  0  0  0  0  0  0  0  0  0
   -1.4759    0.4743    3.0595 N   0  0  0  0  0  0  0  0  0  0  0  0
   -2.4132    0.6318    2.7275 H   0  0  0  0  0  0  0  0  0  0  0  0
   -1.1971    0.7118    4.4750 C   0  0  0  0  0  0  0  0  0  0  0  0
   -0.3779    1.4272    4.5748 H   0  0  0  0  0  0  0  0  0  0  0  0
   -2.0826    1.1064    4.9754 H   0  0  0  0  0  0  0  0  0  0  0  0
   -0.8992   -0.2240    4.9525 H   0  0  0  0  0  0  0  0  0  0  0  0
  5  6  2  0  0  0  0
  5  7  1  0  0  0  0
  2  3  1  0  0  0  0
  2  4  1  0  0  0  0
  2  5  1  0  0  0  0
  1  2  1  0  0  0  0
 26 27  2  0  0  0  0
 26 28  1  0  0  0  0
 23 24  1  0  0  0  0
 23 25  1  0  0  0  0
 20 21  1  0  0  0  0
 20 22  1  0  0  0  0
 20 23  1  0  0  0  0
 17 18  1  0  0  0  0
 17 19  1  0  0  0  0
 17 20  1  0  0  0  0
 14 15  1  0  0  0  0
 14 16  1  0  0  0  0
 14 17  1  0  0  0  0
 11 12  1  0  0  0  0
 11 13  1  0  0  0  0
 11 14  1  0  0  0  0
  9 10  1  0  0  0  0
  9 11  1  0  0  0  0
  9 26  1  0  0  0  0
  7  8  1  0  0  0  0
  7  9  1  0  0  0  0
 30 31  1  0  0  0  0
 30 32  1  0  0  0  0
 30 33  1  0  0  0  0
 28 29  1  0  0  0  0
 28 30  1  0  0  0  0
M  END
$$$$
default_name
  -OEChem-02102213163D

 33 32  0     1  0  0  0  0  0999 V2000
   -3.8420   -3.6918    1.5562 H   0  0  0  0  0  0  0  0  0  0  0  0
   -3.8430   -2.7008    1.1032 C   0  0  0  0  0  0  0  0  0  0  0  0
   -4.5510   -2.0608    1.6242 H   0  0  0  0  0  0  0  0  0  0  0  0
   -4.1140   -2.7798    0.0522 H   0  0  0  0  0  0  0  0  0  0  0  0
   -2.4570   -2.1098    1.2172 C   0  0  0  0  0  0  0  0  0  0  0  0
   -1.5600   -2.7438    1.7572 O   0  0  0  0  0  0  0  0  0  0  0  0
   -2.2870   -0.8898    0.7102 N   0  0  0  0  0  0  0  0  0  0  0  0
   -3.0820   -0.4218    0.2992 H   0  0  0  0  0  0  0  0  0  0  0  0
   -1.0240   -0.1468    0.7262 C   0  0  1  0  0  0  0  0  0  0  0  0
   -0.2680   -0.7367    0.2062 H   0  0  0  0  0  0  0  0  0  0  0  0
   -1.2212    1.1806   -0.0314 C   0  0  0  0  0  0  0  0  0  0  0  0
   -2.0017    1.7549    0.4719 H   0  0  0  0  0  0  0  0  0  0  0  0
   -0.2960    1.7573    0.0066 H   0  0  0  0  0  0  0  0  0  0  0  0
   -1.6379    0.9877   -1.4979 C   0  0  0  0  0  0  0  0  0  0  0  0
   -1.9728   -0.0385   -1.6513 H   0  0  0  0  0  0  0  0  0  0  0  0
   -2.4577    1.6698   -1.7308 H   0  0  0  0  0  0  0  0  0  0  0  0
   -0.4638    1.2698   -2.4422 C   0  0  0  0  0  0  0  0  0  0  0  0
   -0.1122    2.2914   -2.2948 H   0  0  0  0  0  0  0  0  0  0  0  0
    0.3490    0.5748   -2.2293 H   0  0  0  0  0  0  0  0  0  0  0  0
   -0.9113    1.0952   -3.8922 C   0  0  0  0  0  0  0  0  0  0  0  0
   -1.2455    0.0705   -4.0464 H   0  0  0  0  0  0  0  0  0  0  0  0
   -1.7348    1.7759   -4.1014 H   0  0  0  0  0  0  0  0  0  0  0  0
    0.1844    1.3812   -4.8254 N   0  0  0  0  0  0  0  0  0  0  0  0
   -0.1418    1.2427   -5.7707 H   0  0  0  0  0  0  0  0  0  0  0  0
    0.4771    2.3408   -4.7087 H   0  0  0  0  0  0  0  0  0  0  0  0
   -0.5564    0.0727    2.1744 C   0  0  0  0  0  0  0  0  0  0  0  0
    0.6169   -0.1288    2.4805 O   0  0  0  0  0  0  0  0  0  0  0  0
   -1.4759    0.4743    3.0595 N   0  0  0  0  0  0  0  0  0  0  0  0
   -2.4132    0.6318    2.7275 H   0  0  0  0  0  0  0  0  0  0  0  0
   -1.1971    0.7118    4.4750 C   0  0  0  0  0  0  0  0  0  0  0  0
   -0.3779    1.4272    4.5748 H   0  0  0  0  0  0  0  0  0  0  0  0
   -2.0826    1.1064    4.9754 H   0  0  0  0  0  0  0  0  0  0  0  0
   -0.8992   -0.2240    4.9525 H   0  0  0  0  0  0  0  0  0  0  0  0
  5  6  2  0  0  0  0
  5  7  1  0  0  0  0
  2  3  1  0  0  0  0
  2  4  1  0  0  0  0
  2  5  1  0  0  0  0
  1  2  1  0  0  0  0
 26 27  2  0  0  0  0
 26 28  1  0  0  0  0
 23 24  1  0  0  0  0
 23 25  1  0  0  0  0
 20 21  1  0  0  0  0
 20 22  1  0  0  0  0
 20 23  1  0  0  0  0
 17 18  1  0  0  0  0
 17 19  1  0  0  0  0
 17 20  1  0  0  0  0
 14 15  1  0  0  0  0
 14 16  1  0  0  0  0
 14 17  1  0  0  0  0
 11 12  1  0  0  0  0
 11 13  1  0  0  0  0
 11 14  1  0  0  0  0
  9 10  1  0  0  0  0
  9 11  1  0  0  0  0
  9 26  1  0  0  0  0
  7  8  1  0  0  0  0
  7  9  1  0  0  0  0
 30 31  1  0  0  0  0
 30 32  1  0  0  0  0
 30 33  1  0  0  0  0
 28 29  1  0  0  0  0
 28 30  1  0  0  0  0
M  END
$$$$
default_name
  -OEChem-02102213163D

 33 32  0     1  0  0  0  0  0999 V2000
   -3.8420   -3.6918    1.5562 H   0  0  0  0  0  0  0  0  0  0  0  0
   -3.8430   -2.7008    1.1032 C   0  0  0  0  0  0  0  0  0  0  0  0
   -4.5510   -2.0608    1.6242 H   0  0  0  0  0  0  0  0  0  0  0  0
   -4.1140   -2.7798    0.0522 H   0  0  0  0  0  0  0  0  0  0  0  0
   -2.4570   -2.1098    1.2172 C   0  0  0  0  0  0  0  0  0  0  0  0
   -1.5600   -2.7438    1.7572 O   0  0  0  0  0  0  0  0  0  0  0  0
   -2.2870   -0.8898    0.7102 N   0  0  0  0  0  0  0  0  0  0  0  0
   -3.0820   -0.4218    0.2992 H   0  0  0  0  0  0  0  0  0  0  0  0
   -1.0240   -0.1468    0.7262 C   0  0  1  0  0  0  0  0  0  0  0  0
   -0.2680   -0.7367    0.2062 H   0  0  0  0  0  0  0  0  0  0  0  0
   -1.2212    1.1806   -0.0314 C   0  0  0  0  0  0  0  0  0  0  0  0
   -2.0017    1.7549    0.4719 H   0  0  0  0  0  0  0  0  0  0  0  0
   -0.2960    1.7573    0.0066 H   0  0  0  0  0  0  0  0  0  0  0  0
   -1.6379    0.9877   -1.4979 C   0  0  0  0  0  0  0  0  0  0  0  0
   -2.2133    0.0669   -1.5968 H   0  0  0  0  0  0  0  0  0  0  0  0
   -2.2570    1.8312   -1.8090 H   0  0  0  0  0  0  0  0  0  0  0  0
   -0.4086    0.9015   -2.4095 C   0  0  0  0  0  0  0  0  0  0  0  0
    0.1820    1.8134   -2.3156 H   0  0  0  0  0  0  0  0  0  0  0  0
    0.2011    0.0459   -2.1177 H   0  0  0  0  0  0  0  0  0  0  0  0
   -0.8509    0.7351   -3.8620 C   0  0  0  0  0  0  0  0  0  0  0  0
   -1.4252   -0.1845   -3.9618 H   0  0  0  0  0  0  0  0  0  0  0  0
   -1.4746    1.5799   -4.1496 H   0  0  0  0  0  0  0  0  0  0  0  0
    0.3032    0.6728   -4.7660 N   0  0  0  0  0  0  0  0  0  0  0  0
   -0.0246    0.5490   -5.7127 H   0  0  0  0  0  0  0  0  0  0  0  0
    0.8221    1.5371   -4.7010 H   0  0  0  0  0  0  0  0  0  0  0  0
   -0.5564    0.0727    2.1744 C   0  0  0  0  0  0  0  0  0  0  0  0
    0.6169   -0.1288    2.4805 O   0  0  0  0  0  0  0  0  0  0  0  0
   -1.4759    0.4743    3.0595 N   0  0  0  0  0  0  0  0  0  0  0  0
   -2.4132    0.6318    2.7275 H   0  0  0  0  0  0  0  0  0  0  0  0
   -1.1971    0.7118    4.4750 C   0  0  0  0  0  0  0  0  0  0  0  0
   -0.3779    1.4272    4.5748 H   0  0  0  0  0  0  0  0  0  0  0  0
   -2.0826    1.1064    4.9754 H   0  0  0  0  0  0  0  0  0  0  0  0
   -0.8992   -0.2240    4.9525 H   0  0  0  0  0  0  0  0  0  0  0  0
  5  6  2  0  0  0  0
  5  7  1  0  0  0  0
  2  3  1  0  0  0  0
  2  4  1  0  0  0  0
  2  5  1  0  0  0  0
  1  2  1  0  0  0  0
 26 27  2  0  0  0  0
 26 28  1  0  0  0  0
 23 24  1  0  0  0  0
 23 25  1  0  0  0  0
 20 21  1  0  0  0  0
 20 22  1  0  0  0  0
 20 23  1  0  0  0  0
 17 18  1  0  0  0  0
 17 19  1  0  0  0  0
 17 20  1  0  0  0  0
 14 15  1  0  0  0  0
 14 16  1  0  0  0  0
 14 17  1  0  0  0  0
 11 12  1  0  0  0  0
 11 13  1  0  0  0  0
 11 14  1  0  0  0  0
  9 10  1  0  0  0  0
  9 11  1  0  0  0  0
  9 26  1  0  0  0  0
  7  8  1  0  0  0  0
  7  9  1  0  0  0  0
 30 31  1  0  0  0  0
 30 32  1  0  0  0  0
 30 33  1  0  0  0  0
 28 29  1  0  0  0  0
 28 30  1  0  0  0  0
M  END
$$$$
default_name
  -OEChem-02102213163D

 33 32  0     1  0  0  0  0  0999 V2000
   -3.8420   -3.6918    1.5562 H   0  0  0  0  0  0  0  0  0  0  0  0
   -3.8430   -2.7008    1.1032 C   0  0  0  0  0  0  0  0  0  0  0  0
   -4.5510   -2.0608    1.6242 H   0  0  0  0  0  0  0  0  0  0  0  0
   -4.1140   -2.7798    0.0522 H   0  0  0  0  0  0  0  0  0  0  0  0
   -2.4570   -2.1098    1.2172 C   0  0  0  0  0  0  0  0  0  0  0  0
   -1.5600   -2.7438    1.7572 O   0  0  0  0  0  0  0  0  0  0  0  0
   -2.2870   -0.8898    0.7102 N   0  0  0  0  0  0  0  0  0  0  0  0
   -3.0820   -0.4218    0.2992 H   0  0  0  0  0  0  0  0  0  0  0  0
   -1.0240   -0.1468    0.7262 C   0  0  1  0  0  0  0  0  0  0  0  0
   -0.2680   -0.7367    0.2062 H   0  0  0  0  0  0  0  0  0  0  0  0
   -1.2212    1.1806   -0.0314 C   0  0  0  0  0  0  0  0  0  0  0  0
   -2.0017    1.7549    0.4719 H   0  0  0  0  0  0  0  0  0  0  0  0
   -0.2960    1.7573    0.0066 H   0  0  0  0  0  0  0  0  0  0  0  0
   -1.6379    0.9877   -1.4979 C   0  0  0  0  0  0  0  0  0  0  0  0
   -2.4213    0.2318   -1.5594 H   0  0  0  0  0  0  0  0  0  0  0  0
   -2.0208    1.9320   -1.8894 H   0  0  0  0  0  0  0  0  0  0  0  0
   -0.4472    0.5345   -2.3502 C   0  0  0  0  0  0  0  0  0  0  0  0
    0.3487    1.2776   -2.2925 H   0  0  0  0  0  0  0  0  0  0  0  0
   -0.0760   -0.4206   -1.9776 H   0  0  0  0  0  0  0  0  0  0  0  0
   -0.8825    0.3745   -3.8055 C   0  0  0  0  0  0  0  0  0  0  0  0
   -1.6645   -0.3805   -3.8680 H   0  0  0  0  0  0  0  0  0  0  0  0
   -1.2700    1.3230   -4.1739 H   0  0  0  0  0  0  0  0  0  0  0  0
    0.2412   -0.0366   -4.6551 N   0  0  0  0  0  0  0  0  0  0  0  0
   -0.0847   -0.1459   -5.6042 H   0  0  0  0  0  0  0  0  0  0  0  0
    0.9565    0.6760   -4.6260 H   0  0  0  0  0  0  0  0  0  0  0  0
   -0.5564    0.0727    2.1744 C   0  0  0  0  0  0  0  0  0  0  0  0
    0.6169   -0.1288    2.4805 O   0  0  0  0  0  0  0  0  0  0  0  0
   -1.4759    0.4743    3.0595 N   0  0  0  0  0  0  0  0  0  0  0  0
   -2.4132    0.6318    2.7275 H   0  0  0  0  0  0  0  0  0  0  0  0
   -1.1971    0.7118    4.4750 C   0  0  0  0  0  0  0  0  0  0  0  0
   -0.3779    1.4272    4.5748 H   0  0  0  0  0  0  0  0  0  0  0  0
   -2.0826    1.1064    4.9754 H   0  0  0  0  0  0  0  0  0  0  0  0
   -0.8992   -0.2240    4.9525 H   0  0  0  0  0  0  0  0  0  0  0  0
  5  6  2  0  0  0  0
  5  7  1  0  0  0  0
  2  3  1  0  0  0  0
  2  4  1  0  0  0  0
  2  5  1  0  0  0  0
  1  2  1  0  0  0  0
 26 27  2  0  0  0  0
 26 28  1  0  0  0  0
 23 24  1  0  0  0  0
 23 25  1  0  0  0  0
 20 21  1  0  0  0  0
 20 22  1  0  0  0  0
 20 23  1  0  0  0  0
 17 18  1  0  0  0  0
 17 19  1  0  0  0  0
 17 20  1  0  0  0  0
 14 15  1  0  0  0  0
 14 16  1  0  0  0  0
 14 17  1  0  0  0  0
 11 12  1  0  0  0  0
 11 13  1  0  0  0  0
 11 14  1  0  0  0  0
  9 10  1  0  0  0  0
  9 11  1  0  0  0  0
  9 26  1  0  0  0  0
  7  8  1  0  0  0  0
  7  9  1  0  0  0  0
 30 31  1  0  0  0  0
 30 32  1  0  0  0  0
 30 33  1  0  0  0  0
 28 29  1  0  0  0  0
 28 30  1  0  0  0  0
M  END
$$$$
default_name
  -OEChem-02102213163D

 33 32  0     1  0  0  0  0  0999 V2000
   -3.8420   -3.6918    1.5562 H   0  0  0  0  0  0  0  0  0  0  0  0
   -3.8430   -2.7008    1.1032 C   0  0  0  0  0  0  0  0  0  0  0  0
   -4.5510   -2.0608    1.6242 H   0  0  0  0  0  0  0  0  0  0  0  0
   -4.1140   -2.7798    0.0522 H   0  0  0  0  0  0  0  0  0  0  0  0
   -2.4570   -2.1098    1.2172 C   0  0  0  0  0  0  0  0  0  0  0  0
   -1.5600   -2.7438    1.7572 O   0  0  0  0  0  0  0  0  0  0  0  0
   -2.2870   -0.8898    0.7102 N   0  0  0  0  0  0  0  0  0  0  0  0
   -3.0820   -0.4218    0.2992 H   0  0  0  0  0  0  0  0  0  0  0  0
   -1.0240   -0.1468    0.7262 C   0  0  1  0  0  0  0  0  0  0  0  0
   -0.2680   -0.7367    0.2062 H   0  0  0  0  0  0  0  0  0  0  0  0
   -1.2212    1.1806   -0.0314 C   0  0  0  0  0  0  0  0  0  0  0  0
   -2.0017    1.7549    0.4719 H   0  0  0  0  0  0  0  0  0  0  0  0
   -0.2960    1.7573    0.0066 H   0  0  0  0  0  0  0  0  0  0  0  0
   -1.6379    0.9877   -1.4979 C   0  0  0  0  0  0  0  0  0  0  0  0
   -2.5827    0.4452   -1.5416 H   0  0  0  0  0  0  0  0  0  0  0  0
   -1.7652    1.9654   -1.9664 H   0  0  0  0  0  0  0  0  0  0  0  0
   -0.5771    0.1937   -2.2685 C   0  0  0  0  0  0  0  0  0  0  0  0
    0.3768    0.7205   -2.2272 H   0  0  0  0  0  0  0  0  0  0  0  0
   -0.4634   -0.7930   -1.8185 H   0  0  0  0  0  0  0  0  0  0  0  0
   -1.0039    0.0380   -3.7268 C   0  0  0  0  0  0  0  0  0  0  0  0
   -1.9471   -0.5042   -3.7715 H   0  0  0  0  0  0  0  0  0  0  0  0
   -1.1351    1.0225   -4.1727 H   0  0  0  0  0  0  0  0  0  0  0  0
    0.0024   -0.6986   -4.5002 N   0  0  0  0  0  0  0  0  0  0  0  0
   -0.3178   -0.7947   -5.4526 H   0  0  0  0  0  0  0  0  0  0  0  0
    0.8713   -0.1837   -4.4887 H   0  0  0  0  0  0  0  0  0  0  0  0
   -0.5564    0.0727    2.1744 C   0  0  0  0  0  0  0  0  0  0  0  0
    0.6169   -0.1288    2.4805 O   0  0  0  0  0  0  0  0  0  0  0  0
   -1.4759    0.4743    3.0595 N   0  0  0  0  0  0  0  0  0  0  0  0
   -2.4132    0.6318    2.7275 H   0  0  0  0  0  0  0  0  0  0  0  0
   -1.1971    0.7118    4.4750 C   0  0  0  0  0  0  0  0  0  0  0  0
   -0.3779    1.4272    4.5748 H   0  0  0  0  0  0  0  0  0  0  0  0
   -2.0826    1.1064    4.9754 H   0  0  0  0  0  0  0  0  0  0  0  0
   -0.8992   -0.2240    4.9525 H   0  0  0  0  0  0  0  0  0  0  0  0
  5  6  2  0  0  0  0
  5  7  1  0  0  0  0
  2  3  1  0  0  0  0
  2  4  1  0  0  0  0
  2  5  1  0  0  0  0
  1  2  1  0  0  0  0
 26 27  2  0  0  0  0
 26 28  1  0  0  0  0
 23 24  1  0  0  0  0
 23 25  1  0  0  0  0
 20 21  1  0  0  0  0
 20 22  1  0  0  0  0
 20 23  1  0  0  0  0
 17 18  1  0  0  0  0
 17 19  1  0  0  0  0
 17 20  1  0  0  0  0
 14 15  1  0  0  0  0
 14 16  1  0  0  0  0
 14 17  1  0  0  0  0
 11 12  1  0  0  0  0
 11 13  1  0  0  0  0
 11 14  1  0  0  0  0
  9 10  1  0  0  0  0
  9 11  1  0  0  0  0
  9 26  1  0  0  0  0
  7  8  1  0  0  0  0
  7  9  1  0  0  0  0
 30 31  1  0  0  0  0
 30 32  1  0  0  0  0
 30 33  1  0  0  0  0
 28 29  1  0  0  0  0
 28 30  1  0  0  0  0
M  END
$$$$
default_name
  -OEChem-02102213163D

 33 32  0     1  0  0  0  0  0999 V2000
   -3.8420   -3.6918    1.5562 H   0  0  0  0  0  0  0  0  0  0  0  0
   -3.8430   -2.7008    1.1032 C   0  0  0  0  0  0  0  0  0  0  0  0
   -4.5510   -2.0608    1.6242 H   0  0  0  0  0  0  0  0  0  0  0  0
   -4.1140   -2.7798    0.0522 H   0  0  0  0  0  0  0  0  0  0  0  0
   -2.4570   -2.1098    1.2172 C   0  0  0  0  0  0  0  0  0  0  0  0
   -1.5600   -2.7438    1.7572 O   0  0  0  0  0  0  0  0  0  0  0  0
   -2.2870   -0.8898    0.7102 N   0  0  0  0  0  0  0  0  0  0  0  0
   -3.0820   -0.4218    0.2992 H   0  0  0  0  0  0  0  0  0  0  0  0
   -1.0240   -0.1468    0.7262 C   0  0  1  0  0  0  0  0  0  0  0  0
   -0.2680   -0.7367    0.2062 H   0  0  0  0  0  0  0  0  0  0  0  0
   -1.2212    1.1806   -0.0314 C   0  0  0  0  0  0  0  0  0  0  0  0
   -2.0017    1.7549    0.4719 H   0  0  0  0  0  0  0  0  0  0  0  0
   -0.2960    1.7573    0.0066 H   0  0  0  0  0  0  0  0  0  0  0  0
   -1.6379    0.9877   -1.4979 C   0  0  0  0  0  0  0  0  0  0  0  0
   -2.6865    0.6924   -1.5446 H   0  0  0  0  0  0  0  0  0  0  0  0
   -1.5075    1.9290   -2.0349 H   0  0  0  0  0  0  0  0  0  0  0  0
   -0.7894   -0.0977   -2.1698 C   0  0  0  0  0  0  0  0  0  0  0  0
    0.2641    0.1800   -2.1241 H   0  0  0  0  0  0  0  0  0  0  0  0
   -0.9348   -1.0458   -1.6513 H   0  0  0  0  0  0  0  0  0  0  0  0
   -1.2068   -0.2516   -3.6310 C   0  0  0  0  0  0  0  0  0  0  0  0
   -2.2537   -0.5470   -3.6787 H   0  0  0  0  0  0  0  0  0  0  0  0
   -1.0790    0.6991   -4.1461 H   0  0  0  0  0  0  0  0  0  0  0  0
   -0.3968   -1.2683   -4.3118 N   0  0  0  0  0  0  0  0  0  0  0  0
   -0.7082   -1.3532   -5.2682 H   0  0  0  0  0  0  0  0  0  0  0  0
    0.5722   -0.9834   -4.2985 H   0  0  0  0  0  0  0  0  0  0  0  0
   -0.5564    0.0727    2.1744 C   0  0  0  0  0  0  0  0  0  0  0  0
    0.6169   -0.1288    2.4805 O   0  0  0  0  0  0  0  0  0  0  0  0
   -1.4759    0.4743    3.0595 N   0  0  0  0  0  0  0  0  0  0  0  0
   -2.4132    0.6318    2.7275 H   0  0  0  0  0  0  0  0  0  0  0  0
   -1.1971    0.7118    4.4750 C   0  0  0  0  0  0  0  0  0  0  0  0
   -0.3779    1.4272    4.5748 H   0  0  0  0  0  0  0  0  0  0  0  0
   -2.0826    1.1064    4.9754 H   0  0  0  0  0  0  0  0  0  0  0  0
   -0.8992   -0.2240    4.9525 H   0  0  0  0  0  0  0  0  0  0  0  0
  5  6  2  0  0  0  0
  5  7  1  0  0  0  0
  2  3  1  0  0  0  0
  2  4  1  0  0  0  0
  2  5  1  0  0  0  0
  1  2  1  0  0  0  0
 26 27  2  0  0  0  0
 26 28  1  0  0  0  0
 23 24  1  0  0  0  0
 23 25  1  0  0  0  0
 20 21  1  0  0  0  0
 20 22  1  0  0  0  0
 20 23  1  0  0  0  0
 17 18  1  0  0  0  0
 17 19  1  0  0  0  0
 17 20  1  0  0  0  0
 14 15  1  0  0  0  0
 14 16  1  0  0  0  0
 14 17  1  0  0  0  0
 11 12  1  0  0  0  0
 11 13  1  0  0  0  0
 11 14  1  0  0  0  0
  9 10  1  0  0  0  0
  9 11  1  0  0  0  0
  9 26  1  0  0  0  0
  7  8  1  0  0  0  0
  7  9  1  0  0  0  0
 30 31  1  0  0  0  0
 30 32  1  0  0  0  0
 30 33  1  0  0  0  0
 28 29  1  0  0  0  0
 28 30  1  0  0  0  0
M  END
$$$$
default_name
  -OEChem-02102213163D

 33 32  0     1  0  0  0  0  0999 V2000
   -3.8420   -3.6918    1.5562 H   0  0  0  0  0  0  0  0  0  0  0  0
   -3.8430   -2.7008    1.1032 C   0  0  0  0  0  0  0  0  0  0  0  0
   -4.5510   -2.0608    1.6242 H   0  0  0  0  0  0  0  0  0  0  0  0
   -4.1140   -2.7798    0.0522 H   0  0  0  0  0  0  0  0  0  0  0  0
   -2.4570   -2.1098    1.2172 C   0  0  0  0  0  0  0  0  0  0  0  0
   -1.5600   -2.7438    1.7572 O   0  0  0  0  0  0  0  0  0  0  0  0
   -2.2870   -0.8898    0.7102 N   0  0  0  0  0  0  0  0  0  0  0  0
   -3.0820   -0.4218    0.2992 H   0  0  0  0  0  0  0  0  0  0  0  0
   -1.0240   -0.1468    0.7262 C   0  0  1  0  0  0  0  0  0  0  0  0
   -0.2680   -0.7367    0.2062 H   0  0  0  0  0  0  0  0  0  0  0  0
   -1.2212    1.1806   -0.0314 C   0  0  0  0  0  0  0  0  0  0  0  0
   -2.0017    1.7549    0.4719 H   0  0  0  0  0  0  0  0  0  0  0  0
   -0.2960    1.7573    0.0066 H   0  0  0  0  0  0  0  0  0  0  0  0
   -1.6379    0.9877   -1.4979 C   0  0  0  0  0  0  0  0  0  0  0  0
   -2.7256    0.9566   -1.5682 H   0  0  0  0  0  0  0  0  0  0  0  0
   -1.2653    1.8255   -2.0901 H   0  0  0  0  0  0  0  0  0  0  0  0
   -1.0696   -0.3198   -2.0609 C   0  0  0  0  0  0  0  0  0  0  0  0
    0.0184   -0.3070   -1.9902 H   0  0  0  0  0  0  0  0  0  0  0  0
   -1.4580   -1.1619   -1.4873 H   0  0  0  0  0  0  0  0  0  0  0  0
   -1.4775   -0.4744   -3.5248 C   0  0  0  0  0  0  0  0  0  0  0  0
   -2.5635   -0.5061   -3.5960 H   0  0  0  0  0  0  0  0  0  0  0  0
   -1.1056    0.3747   -4.0959 H   0  0  0  0  0  0  0  0  0  0  0  0
   -0.9292   -1.7068   -4.1028 N   0  0  0  0  0  0  0  0  0  0  0  0
   -1.2292   -1.7833   -5.0636 H   0  0  0  0  0  0  0  0  0  0  0  0
    0.0796   -1.6686   -4.0684 H   0  0  0  0  0  0  0  0  0  0  0  0
   -0.5564    0.0727    2.1744 C   0  0  0  0  0  0  0  0  0  0  0  0
    0.6169   -0.1288    2.4805 O   0  0  0  0  0  0  0  0  0  0  0  0
   -1.4759    0.4743    3.0595 N   0  0  0  0  0  0  0  0  0  0  0  0
   -2.4132    0.6318    2.7275 H   0  0  0  0  0  0  0  0  0  0  0  0
   -1.1971    0.7118    4.4750 C   0  0  0  0  0  0  0  0  0  0  0  0
   -0.3779    1.4272    4.5748 H   0  0  0  0  0  0  0  0  0  0  0  0
   -2.0826    1.1064    4.9754 H   0  0  0  0  0  0  0  0  0  0  0  0
   -0.8992   -0.2240    4.9525 H   0  0  0  0  0  0  0  0  0  0  0  0
  5  6  2  0  0  0  0
  5  7  1  0  0  0  0
  2  3  1  0  0  0  0
  2  4  1  0  0  0  0
  2  5  1  0  0  0  0
  1  2  1  0  0  0  0
 26 27  2  0  0  0  0
 26 28  1  0  0  0  0
 23 24  1  0  0  0  0
 23 25  1  0  0  0  0
 20 21  1  0  0  0  0
 20 22  1  0  0  0  0
 20 23  1  0  0  0  0
 17 18  1  0  0  0  0
 17 19  1  0  0  0  0
 17 20  1  0  0  0  0
 14 15  1  0  0  0  0
 14 16  1  0  0  0  0
 14 17  1  0  0  0  0
 11 12  1  0  0  0  0
 11 13  1  0  0  0  0
 11 14  1  0  0  0  0
  9 10  1  0  0  0  0
  9 11  1  0  0  0  0
  9 26  1  0  0  0  0
  7  8  1  0  0  0  0
  7  9  1  0  0  0  0
 30 31  1  0  0  0  0
 30 32  1  0  0  0  0
 30 33  1  0  0  0  0
 28 29  1  0  0  0  0
 28 30  1  0  0  0  0
M  END
$$$$
default_name
  -OEChem-02102213163D

 33 32  0     1  0  0  0  0  0999 V2000
   -3.8420   -3.6918    1.5562 H   0  0  0  0  0  0  0  0  0  0  0  0
   -3.8430   -2.7008    1.1032 C   0  0  0  0  0  0  0  0  0  0  0  0
   -4.5510   -2.0608    1.6242 H   0  0  0  0  0  0  0  0  0  0  0  0
   -4.1140   -2.7798    0.0522 H   0  0  0  0  0  0  0  0  0  0  0  0
   -2.4570   -2.1098    1.2172 C   0  0  0  0  0  0  0  0  0  0  0  0
   -1.5600   -2.7438    1.7572 O   0  0  0  0  0  0  0  0  0  0  0  0
   -2.2870   -0.8898    0.7102 N   0  0  0  0  0  0  0  0  0  0  0  0
   -3.0820   -0.4218    0.2992 H   0  0  0  0  0  0  0  0  0  0  0  0
   -1.0240   -0.1468    0.7262 C   0  0  1  0  0  0  0  0  0  0  0  0
   -0.2680   -0.7367    0.2062 H   0  0  0  0  0  0  0  0  0  0  0  0
   -1.2212    1.1806   -0.0314 C   0  0  0  0  0  0  0  0  0  0  0  0
   -2.0017    1.7549    0.4719 H   0  0  0  0  0  0  0  0  0  0  0  0
   -0.2960    1.7573    0.0066 H   0  0  0  0  0  0  0  0  0  0  0  0
   -1.6379    0.9877   -1.4979 C   0  0  0  0  0  0  0  0  0  0  0  0
   -2.6973    1.2198   -1.6109 H   0  0  0  0  0  0  0  0  0  0  0  0
   -1.0551    1.6618   -2.1283 H   0  0  0  0  0  0  0  0  0  0  0  0
   -1.3987   -0.4575   -1.9493 C   0  0  0  0  0  0  0  0  0  0  0  0
   -0.3435   -0.7073   -1.8347 H   0  0  0  0  0  0  0  0  0  0  0  0
   -1.9974   -1.1332   -1.3378 H   0  0  0  0  0  0  0  0  0  0  0  0
   -1.7974   -0.6154   -3.4153 C   0  0  0  0  0  0  0  0  0  0  0  0
   -2.8554   -0.3843   -3.5291 H   0  0  0  0  0  0  0  0  0  0  0  0
   -1.2131    0.0714   -4.0255 H   0  0  0  0  0  0  0  0  0  0  0  0
   -1.5586   -1.9841   -3.8875 N   0  0  0  0  0  0  0  0  0  0  0  0
   -1.8454   -2.0557   -4.8527 H   0  0  0  0  0  0  0  0  0  0  0  0
   -0.5730   -2.1927   -3.8140 H   0  0  0  0  0  0  0  0  0  0  0  0
   -0.5564    0.0727    2.1744 C   0  0  0  0  0  0  0  0  0  0  0  0
    0.6169   -0.1288    2.4805 O   0  0  0  0  0  0  0  0  0  0  0  0
   -1.4759    0.4743    3.0595 N   0  0  0  0  0  0  0  0  0  0  0  0
   -2.4132    0.6318    2.7275 H   0  0  0  0  0  0  0  0  0  0  0  0
   -1.1971    0.7118    4.4750 C   0  0  0  0  0  0  0  0  0  0  0  0
   -0.3779    1.4272    4.5748 H   0  0  0  0  0  0  0  0  0  0  0  0
   -2.0826    1.1064    4.9754 H   0  0  0  0  0  0  0  0  0  0  0  0
   -0.8992   -0.2240    4.9525 H   0  0  0  0  0  0  0  0  0  0  0  0
  5  6  2  0  0  0  0
  5  7  1  0  0  0  0
  2  3  1  0  0  0  0
  2  4  1  0  0  0  0
  2  5  1  0  0  0  0
  1  2  1  0  0  0  0
 26 27  2  0  0  0  0
 26 28  1  0  0  0  0
 23 24  1  0  0  0  0
 23 25  1  0  0  0  0
 20 21  1  0  0  0  0
 20 22  1  0  0  0  0
 20 23  1  0  0  0  0
 17 18  1  0  0  0  0
 17 19  1  0  0  0  0
 17 20  1  0  0  0  0
 14 15  1  0  0  0  0
 14 16  1  0  0  0  0
 14 17  1  0  0  0  0
 11 12  1  0  0  0  0
 11 13  1  0  0  0  0
 11 14  1  0  0  0  0
  9 10  1  0  0  0  0
  9 11  1  0  0  0  0
  9 26  1  0  0  0  0
  7  8  1  0  0  0  0
  7  9  1  0  0  0  0
 30 31  1  0  0  0  0
 30 32  1  0  0  0  0
 30 33  1  0  0  0  0
 28 29  1  0  0  0  0
 28 30  1  0  0  0  0
M  END
$$$$
default_name
  -OEChem-02102213163D

 33 32  0     1  0  0  0  0  0999 V2000
   -3.8420   -3.6918    1.5562 H   0  0  0  0  0  0  0  0  0  0  0  0
   -3.8430   -2.7008    1.1032 C   0  0  0  0  0  0  0  0  0  0  0  0
   -4.5510   -2.0608    1.6242 H   0  0  0  0  0  0  0  0  0  0  0  0
   -4.1140   -2.7798    0.0522 H   0  0  0  0  0  0  0  0  0  0  0  0
   -2.4570   -2.1098    1.2172 C   0  0  0  0  0  0  0  0  0  0  0  0
   -1.5600   -2.7438    1.7572 O   0  0  0  0  0  0  0  0  0  0  0  0
   -2.2870   -0.8898    0.7102 N   0  0  0  0  0  0  0  0  0  0  0  0
   -3.0820   -0.4218    0.2992 H   0  0  0  0  0  0  0  0  0  0  0  0
   -1.0240   -0.1468    0.7262 C   0  0  1  0  0  0  0  0  0  0  0  0
   -0.2680   -0.7367    0.2062 H   0  0  0  0  0  0  0  0  0  0  0  0
   -1.2212    1.1806   -0.0314 C   0  0  0  0  0  0  0  0  0  0  0  0
   -2.0017    1.7549    0.4719 H   0  0  0  0  0  0  0  0  0  0  0  0
   -0.2960    1.7573    0.0066 H   0  0  0  0  0  0  0  0  0  0  0  0
   -1.6379    0.9877   -1.4979 C   0  0  0  0  0  0  0  0  0  0  0  0
   -2.6036    1.4640   -1.6696 H   0  0  0  0  0  0  0  0  0  0  0  0
   -0.8913    1.4491   -2.1469 H   0  0  0  0  0  0  0  0  0  0  0  0
   -1.7542   -0.5014   -1.8425 C   0  0  0  0  0  0  0  0  0  0  0  0
   -0.7970   -0.9937   -1.6681 H   0  0  0  0  0  0  0  0  0  0  0  0
   -2.5161   -0.9618   -1.2129 H   0  0  0  0  0  0  0  0  0  0  0  0
   -2.1449   -0.6648   -3.3101 C   0  0  0  0  0  0  0  0  0  0  0  0
   -3.1093   -0.1899   -3.4825 H   0  0  0  0  0  0  0  0  0  0  0  0
   -1.3941   -0.1900   -3.9396 H   0  0  0  0  0  0  0  0  0  0  0  0
   -2.2420   -2.0814   -3.6805 N   0  0  0  0  0  0  0  0  0  0  0  0
   -2.5147   -2.1518   -4.6498 H   0  0  0  0  0  0  0  0  0  0  0  0
   -1.3410   -2.5198   -3.5527 H   0  0  0  0  0  0  0  0  0  0  0  0
   -0.5564    0.0727    2.1744 C   0  0  0  0  0  0  0  0  0  0  0  0
    0.6169   -0.1288    2.4805 O   0  0  0  0  0  0  0  0  0  0  0  0
   -1.4759    0.4743    3.0595 N   0  0  0  0  0  0  0  0  0  0  0  0
   -2.4132    0.6318    2.7275 H   0  0  0  0  0  0  0  0  0  0  0  0
   -1.1971    0.7118    4.4750 C   0  0  0  0  0  0  0  0  0  0  0  0
   -0.3779    1.4272    4.5748 H   0  0  0  0  0  0  0  0  0  0  0  0
   -2.0826    1.1064    4.9754 H   0  0  0  0  0  0  0  0  0  0  0  0
   -0.8992   -0.2240    4.9525 H   0  0  0  0  0  0  0  0  0  0  0  0
  5  6  2  0  0  0  0
  5  7  1  0  0  0  0
  2  3  1  0  0  0  0
  2  4  1  0  0  0  0
  2  5  1  0  0  0  0
  1  2  1  0  0  0  0
 26 27  2  0  0  0  0
 26 28  1  0  0  0  0
 23 24  1  0  0  0  0
 23 25  1  0  0  0  0
 20 21  1  0  0  0  0
 20 22  1  0  0  0  0
 20 23  1  0  0  0  0
 17 18  1  0  0  0  0
 17 19  1  0  0  0  0
 17 20  1  0  0  0  0
 14 15  1  0  0  0  0
 14 16  1  0  0  0  0
 14 17  1  0  0  0  0
 11 12  1  0  0  0  0
 11 13  1  0  0  0  0
 11 14  1  0  0  0  0
  9 10  1  0  0  0  0
  9 11  1  0  0  0  0
  9 26  1  0  0  0  0
  7  8  1  0  0  0  0
  7  9  1  0  0  0  0
 30 31  1  0  0  0  0
 30 32  1  0  0  0  0
 30 33  1  0  0  0  0
 28 29  1  0  0  0  0
 28 30  1  0  0  0  0
M  END
$$$$
default_name
  -OEChem-02102213163D

 33 32  0     1  0  0  0  0  0999 V2000
   -3.8420   -3.6918    1.5562 H   0  0  0  0  0  0  0  0  0  0  0  0
   -3.8430   -2.7008    1.1032 C   0  0  0  0  0  0  0  0  0  0  0  0
   -4.5510   -2.0608    1.6242 H   0  0  0  0  0  0  0  0  0  0  0  0
   -4.1140   -2.7798    0.0522 H   0  0  0  0  0  0  0  0  0  0  0  0
   -2.4570   -2.1098    1.2172 C   0  0  0  0  0  0  0  0  0  0  0  0
   -1.5600   -2.7438    1.7572 O   0  0  0  0  0  0  0  0  0  0  0  0
   -2.2870   -0.8898    0.7102 N   0  0  0  0  0  0  0  0  0  0  0  0
   -3.0820   -0.4218    0.2992 H   0  0  0  0  0  0  0  0  0  0  0  0
   -1.0240   -0.1468    0.7262 C   0  0  1  0  0  0  0  0  0  0  0  0
   -0.2680   -0.7367    0.2062 H   0  0  0  0  0  0  0  0  0  0  0  0
   -1.2212    1.1806   -0.0314 C   0  0  0  0  0  0  0  0  0  0  0  0
   -2.0017    1.7549    0.4719 H   0  0  0  0  0  0  0  0  0  0  0  0
   -0.2960    1.7573    0.0066 H   0  0  0  0  0  0  0  0  0  0  0  0
   -1.6379    0.9877   -1.4979 C   0  0  0  0  0  0  0  0  0  0  0  0
   -2.4508    1.6727   -1.7405 H   0  0  0  0  0  0  0  0  0  0  0  0
   -0.7851    1.2019   -2.1446 H   0  0  0  0  0  0  0  0  0  0  0  0
   -2.1119   -0.4484   -1.7478 C   0  0  0  0  0  0  0  0  0  0  0  0
   -1.3113   -1.1466   -1.5019 H   0  0  0  0  0  0  0  0  0  0  0  0
   -2.9789   -0.6594   -1.1212 H   0  0  0  0  0  0  0  0  0  0  0  0
   -2.4960   -0.6194   -3.2163 C   0  0  0  0  0  0  0  0  0  0  0  0
   -3.3081    0.0639   -3.4594 H   0  0  0  0  0  0  0  0  0  0  0  0
   -1.6363   -0.3918   -3.8443 H   0  0  0  0  0  0  0  0  0  0  0  0
   -2.9329   -1.9921   -3.4959 N   0  0  0  0  0  0  0  0  0  0  0  0
   -3.1915   -2.0651   -4.4689 H   0  0  0  0  0  0  0  0  0  0  0  0
   -2.1722   -2.6278   -3.3023 H   0  0  0  0  0  0  0  0  0  0  0  0
   -0.5564    0.0727    2.1744 C   0  0  0  0  0  0  0  0  0  0  0  0
    0.6169   -0.1288    2.4805 O   0  0  0  0  0  0  0  0  0  0  0  0
   -1.4759    0.4743    3.0595 N   0  0  0  0  0  0  0  0  0  0  0  0
   -2.4132    0.6318    2.7275 H   0  0  0  0  0  0  0  0  0  0  0  0
   -1.1971    0.7118    4.4750 C   0  0  0  0  0  0  0  0  0  0  0  0
   -0.3779    1.4272    4.5748 H   0  0  0  0  0  0  0  0  0  0  0  0
   -2.0826    1.1064    4.9754 H   0  0  0  0  0  0  0  0  0  0  0  0
   -0.8992   -0.2240    4.9525 H   0  0  0  0  0  0  0  0  0  0  0  0
  5  6  2  0  0  0  0
  5  7  1  0  0  0  0
  2  3  1  0  0  0  0
  2  4  1  0  0  0  0
  2  5  1  0  0  0  0
  1  2  1  0  0  0  0
 26 27  2  0  0  0  0
 26 28  1  0  0  0  0
 23 24  1  0  0  0  0
 23 25  1  0  0  0  0
 20 21  1  0  0  0  0
 20 22  1  0  0  0  0
 20 23  1  0  0  0  0
 17 18  1  0  0  0  0
 17 19  1  0  0  0  0
 17 20  1  0  0  0  0
 14 15  1  0  0  0  0
 14 16  1  0  0  0  0
 14 17  1  0  0  0  0
 11 12  1  0  0  0  0
 11 13  1  0  0  0  0
 11 14  1  0  0  0  0
  9 10  1  0  0  0  0
  9 11  1  0  0  0  0
  9 26  1  0  0  0  0
  7  8  1  0  0  0  0
  7  9  1  0  0  0  0
 30 31  1  0  0  0  0
 30 32  1  0  0  0  0
 30 33  1  0  0  0  0
 28 29  1  0  0  0  0
 28 30  1  0  0  0  0
M  END
$$$$
default_name
  -OEChem-02102213163D

 33 32  0     1  0  0  0  0  0999 V2000
   -3.8420   -3.6918    1.5562 H   0  0  0  0  0  0  0  0  0  0  0  0
   -3.8430   -2.7008    1.1032 C   0  0  0  0  0  0  0  0  0  0  0  0
   -4.5510   -2.0608    1.6242 H   0  0  0  0  0  0  0  0  0  0  0  0
   -4.1140   -2.7798    0.0522 H   0  0  0  0  0  0  0  0  0  0  0  0
   -2.4570   -2.1098    1.2172 C   0  0  0  0  0  0  0  0  0  0  0  0
   -1.5600   -2.7438    1.7572 O   0  0  0  0  0  0  0  0  0  0  0  0
   -2.2870   -0.8898    0.7102 N   0  0  0  0  0  0  0  0  0  0  0  0
   -3.0820   -0.4218    0.2992 H   0  0  0  0  0  0  0  0  0  0  0  0
   -1.0240   -0.1468    0.7262 C   0  0  1  0  0  0  0  0  0  0  0  0
   -0.2680   -0.7367    0.2062 H   0  0  0  0  0  0  0  0  0  0  0  0
   -1.2212    1.1806   -0.0314 C   0  0  0  0  0  0  0  0  0  0  0  0
   -2.0017    1.7549    0.4719 H   0  0  0  0  0  0  0  0  0  0  0  0
   -0.2960    1.7573    0.0066 H   0  0  0  0  0  0  0  0  0  0  0  0
   -1.6379    0.9877   -1.4979 C   0  0  0  0  0  0  0  0  0  0  0  0
   -2.2495    1.8315   -1.8186 H   0  0  0  0  0  0  0  0  0  0  0  0
   -0.7435    0.9370   -2.1215 H   0  0  0  0  0  0  0  0  0  0  0  0
   -2.4474   -0.3023   -1.6717 C   0  0  0  0  0  0  0  0  0  0  0  0
   -1.8511   -1.1557   -1.3473 H   0  0  0  0  0  0  0  0  0  0  0  0
   -3.3543   -0.2465   -1.0688 H   0  0  0  0  0  0  0  0  0  0  0  0
   -2.8271   -0.4822   -3.1402 C   0  0  0  0  0  0  0  0  0  0  0  0
   -3.4382    0.3598   -3.4613 H   0  0  0  0  0  0  0  0  0  0  0  0
   -1.9231   -0.5203   -3.7459 H   0  0  0  0  0  0  0  0  0  0  0  0
   -3.5842   -1.7222   -3.3463 N   0  0  0  0  0  0  0  0  0  0  0  0
   -3.8297   -1.8014   -4.3222 H   0  0  0  0  0  0  0  0  0  0  0  0
   -3.0098   -2.5092   -3.0798 H   0  0  0  0  0  0  0  0  0  0  0  0
   -0.5564    0.0727    2.1744 C   0  0  0  0  0  0  0  0  0  0  0  0
    0.6169   -0.1288    2.4805 O   0  0  0  0  0  0  0  0  0  0  0  0
   -1.4759    0.4743    3.0595 N   0  0  0  0  0  0  0  0  0  0  0  0
   -2.4132    0.6318    2.7275 H   0  0  0  0  0  0  0  0  0  0  0  0
   -1.1971    0.7118    4.4750 C   0  0  0  0  0  0  0  0  0  0  0  0
   -0.3779    1.4272    4.5748 H   0  0  0  0  0  0  0  0  0  0  0  0
   -2.0826    1.1064    4.9754 H   0  0  0  0  0  0  0  0  0  0  0  0
   -0.8992   -0.2240    4.9525 H   0  0  0  0  0  0  0  0  0  0  0  0
  5  6  2  0  0  0  0
  5  7  1  0  0  0  0
  2  3  1  0  0  0  0
  2  4  1  0  0  0  0
  2  5  1  0  0  0  0
  1  2  1  0  0  0  0
 26 27  2  0  0  0  0
 26 28  1  0  0  0  0
 23 24  1  0  0  0  0
 23 25  1  0  0  0  0
 20 21  1  0  0  0  0
 20 22  1  0  0  0  0
 20 23  1  0  0  0  0
 17 18  1  0  0  0  0
 17 19  1  0  0  0  0
 17 20  1  0  0  0  0
 14 15  1  0  0  0  0
 14 16  1  0  0  0  0
 14 17  1  0  0  0  0
 11 12  1  0  0  0  0
 11 13  1  0  0  0  0
 11 14  1  0  0  0  0
  9 10  1  0  0  0  0
  9 11  1  0  0  0  0
  9 26  1  0  0  0  0
  7  8  1  0  0  0  0
  7  9  1  0  0  0  0
 30 31  1  0  0  0  0
 30 32  1  0  0  0  0
 30 33  1  0  0  0  0
 28 29  1  0  0  0  0
 28 30  1  0  0  0  0
M  END
$$$$
default_name
  -OEChem-02102213163D

 33 32  0     1  0  0  0  0  0999 V2000
   -3.8420   -3.6918    1.5562 H   0  0  0  0  0  0  0  0  0  0  0  0
   -3.8430   -2.7008    1.1032 C   0  0  0  0  0  0  0  0  0  0  0  0
   -4.5510   -2.0608    1.6242 H   0  0  0  0  0  0  0  0  0  0  0  0
   -4.1140   -2.7798    0.0522 H   0  0  0  0  0  0  0  0  0  0  0  0
   -2.4570   -2.1098    1.2172 C   0  0  0  0  0  0  0  0  0  0  0  0
   -1.5600   -2.7438    1.7572 O   0  0  0  0  0  0  0  0  0  0  0  0
   -2.2870   -0.8898    0.7102 N   0  0  0  0  0  0  0  0  0  0  0  0
   -3.0820   -0.4218    0.2992 H   0  0  0  0  0  0  0  0  0  0  0  0
   -1.0240   -0.1468    0.7262 C   0  0  1  0  0  0  0  0  0  0  0  0
   -0.2680   -0.7367    0.2062 H   0  0  0  0  0  0  0  0  0  0  0  0
   -1.2212    1.1806   -0.0314 C   0  0  0  0  0  0  0  0  0  0  0  0
   -2.0017    1.7549    0.4719 H   0  0  0  0  0  0  0  0  0  0  0  0
   -0.2960    1.7573    0.0066 H   0  0  0  0  0  0  0  0  0  0  0  0
   -1.6379    0.9877   -1.4979 C   0  0  0  0  0  0  0  0  0  0  0  0
   -2.0132    1.9298   -1.8987 H   0  0  0  0  0  0  0  0  0  0  0  0
   -0.7696    0.6725   -2.0793 H   0  0  0  0  0  0  0  0  0  0  0  0
   -2.7379   -0.0730   -1.6193 C   0  0  0  0  0  0  0  0  0  0  0  0
   -2.3798   -1.0202   -1.2148 H   0  0  0  0  0  0  0  0  0  0  0  0
   -3.6165    0.2487   -1.0594 H   0  0  0  0  0  0  0  0  0  0  0  0
   -3.1154   -0.2625   -3.0872 C   0  0  0  0  0  0  0  0  0  0  0  0
   -3.4908    0.6776   -3.4882 H   0  0  0  0  0  0  0  0  0  0  0  0
   -2.2351   -0.5665   -3.6511 H   0  0  0  0  0  0  0  0  0  0  0  0
   -4.1515   -1.2901   -3.2419 N   0  0  0  0  0  0  0  0  0  0  0  0
   -4.3858   -1.3789   -4.2197 H   0  0  0  0  0  0  0  0  0  0  0  0
   -3.7968   -2.1722   -2.9005 H   0  0  0  0  0  0  0  0  0  0  0  0
   -0.5564    0.0727    2.1744 C   0  0  0  0  0  0  0  0  0  0  0  0
    0.6169   -0.1288    2.4805 O   0  0  0  0  0  0  0  0  0  0  0  0
   -1.4759    0.4743    3.0595 N   0  0  0  0  0  0  0  0  0  0  0  0
   -2.4132    0.6318    2.7275 H   0  0  0  0  0  0  0  0  0  0  0  0
   -1.1971    0.7118    4.4750 C   0  0  0  0  0  0  0  0  0  0  0  0
   -0.3779    1.4272    4.5748 H   0  0  0  0  0  0  0  0  0  0  0  0
   -2.0826    1.1064    4.9754 H   0  0  0  0  0  0  0  0  0  0  0  0
   -0.8992   -0.2240    4.9525 H   0  0  0  0  0  0  0  0  0  0  0  0
  5  6  2  0  0  0  0
  5  7  1  0  0  0  0
  2  3  1  0  0  0  0
  2  4  1  0  0  0  0
  2  5  1  0  0  0  0
  1  2  1  0  0  0  0
 26 27  2  0  0  0  0
 26 28  1  0  0  0  0
 23 24  1  0  0  0  0
 23 25  1  0  0  0  0
 20 21  1  0  0  0  0
 20 22  1  0  0  0  0
 20 23  1  0  0  0  0
 17 18  1  0  0  0  0
 17 19  1  0  0  0  0
 17 20  1  0  0  0  0
 14 15  1  0  0  0  0
 14 16  1  0  0  0  0
 14 17  1  0  0  0  0
 11 12  1  0  0  0  0
 11 13  1  0  0  0  0
 11 14  1  0  0  0  0
  9 10  1  0  0  0  0
  9 11  1  0  0  0  0
  9 26  1  0  0  0  0
  7  8  1  0  0  0  0
  7  9  1  0  0  0  0
 30 31  1  0  0  0  0
 30 32  1  0  0  0  0
 30 33  1  0  0  0  0
 28 29  1  0  0  0  0
 28 30  1  0  0  0  0
M  END
$$$$
default_name
  -OEChem-02102213163D

 33 32  0     1  0  0  0  0  0999 V2000
   -3.8420   -3.6918    1.5562 H   0  0  0  0  0  0  0  0  0  0  0  0
   -3.8430   -2.7008    1.1032 C   0  0  0  0  0  0  0  0  0  0  0  0
   -4.5510   -2.0608    1.6242 H   0  0  0  0  0  0  0  0  0  0  0  0
   -4.1140   -2.7798    0.0522 H   0  0  0  0  0  0  0  0  0  0  0  0
   -2.4570   -2.1098    1.2172 C   0  0  0  0  0  0  0  0  0  0  0  0
   -1.5600   -2.7438    1.7572 O   0  0  0  0  0  0  0  0  0  0  0  0
   -2.2870   -0.8898    0.7102 N   0  0  0  0  0  0  0  0  0  0  0  0
   -3.0820   -0.4218    0.2992 H   0  0  0  0  0  0  0  0  0  0  0  0
   -1.0240   -0.1468    0.7262 C   0  0  1  0  0  0  0  0  0  0  0  0
   -0.2680   -0.7367    0.2062 H   0  0  0  0  0  0  0  0  0  0  0  0
   -1.2212    1.1806   -0.0314 C   0  0  0  0  0  0  0  0  0  0  0  0
   -2.0017    1.7549    0.4719 H   0  0  0  0  0  0  0  0  0  0  0  0
   -0.2960    1.7573    0.0066 H   0  0  0  0  0  0  0  0  0  0  0  0
   -1.6379    0.9877   -1.4979 C   0  0  0  0  0  0  0  0  0  0  0  0
   -1.7581    1.9606   -1.9752 H   0  0  0  0  0  0  0  0  0  0  0  0
   -0.8615    0.4265   -2.0209 H   0  0  0  0  0  0  0  0  0  0  0  0
   -2.9635    0.2240   -1.5943 C   0  0  0  0  0  0  0  0  0  0  0  0
   -2.8614   -0.7494   -1.1136 H   0  0  0  0  0  0  0  0  0  0  0  0
   -3.7478    0.7925   -1.0936 H   0  0  0  0  0  0  0  0  0  0  0  0
   -3.3414    0.0246   -3.0607 C   0  0  0  0  0  0  0  0  0  0  0  0
   -3.4621    0.9957   -3.5382 H   0  0  0  0  0  0  0  0  0  0  0  0
   -2.5510   -0.5275   -3.5665 H   0  0  0  0  0  0  0  0  0  0  0  0
   -4.5961   -0.7254   -3.1898 N   0  0  0  0  0  0  0  0  0  0  0  0
   -4.8219   -0.8262   -4.1685 H   0  0  0  0  0  0  0  0  0  0  0  0
   -4.4796   -1.6397   -2.7765 H   0  0  0  0  0  0  0  0  0  0  0  0
   -0.5564    0.0727    2.1744 C   0  0  0  0  0  0  0  0  0  0  0  0
    0.6169   -0.1288    2.4805 O   0  0  0  0  0  0  0  0  0  0  0  0
   -1.4759    0.4743    3.0595 N   0  0  0  0  0  0  0  0  0  0  0  0
   -2.4132    0.6318    2.7275 H   0  0  0  0  0  0  0  0  0  0  0  0
   -1.1971    0.7118    4.4750 C   0  0  0  0  0  0  0  0  0  0  0  0
   -0.3779    1.4272    4.5748 H   0  0  0  0  0  0  0  0  0  0  0  0
   -2.0826    1.1064    4.9754 H   0  0  0  0  0  0  0  0  0  0  0  0
   -0.8992   -0.2240    4.9525 H   0  0  0  0  0  0  0  0  0  0  0  0
  5  6  2  0  0  0  0
  5  7  1  0  0  0  0
  2  3  1  0  0  0  0
  2  4  1  0  0  0  0
  2  5  1  0  0  0  0
  1  2  1  0  0  0  0
 26 27  2  0  0  0  0
 26 28  1  0  0  0  0
 23 24  1  0  0  0  0
 23 25  1  0  0  0  0
 20 21  1  0  0  0  0
 20 22  1  0  0  0  0
 20 23  1  0  0  0  0
 17 18  1  0  0  0  0
 17 19  1  0  0  0  0
 17 20  1  0  0  0  0
 14 15  1  0  0  0  0
 14 16  1  0  0  0  0
 14 17  1  0  0  0  0
 11 12  1  0  0  0  0
 11 13  1  0  0  0  0
 11 14  1  0  0  0  0
  9 10  1  0  0  0  0
  9 11  1  0  0  0  0
  9 26  1  0  0  0  0
  7  8  1  0  0  0  0
  7  9  1  0  0  0  0
 30 31  1  0  0  0  0
 30 32  1  0  0  0  0
 30 33  1  0  0  0  0
 28 29  1  0  0  0  0
 28 30  1  0  0  0  0
M  END
$$$$
default_name
  -OEChem-02102213163D

 33 32  0     1  0  0  0  0  0999 V2000
   -3.8420   -3.6918    1.5562 H   0  0  0  0  0  0  0  0  0  0  0  0
   -3.8430   -2.7008    1.1032 C   0  0  0  0  0  0  0  0  0  0  0  0
   -4.5510   -2.0608    1.6242 H   0  0  0  0  0  0  0  0  0  0  0  0
   -4.1140   -2.7798    0.0522 H   0  0  0  0  0  0  0  0  0  0  0  0
   -2.4570   -2.1098    1.2172 C   0  0  0  0  0  0  0  0  0  0  0  0
   -1.5600   -2.7438    1.7572 O   0  0  0  0  0  0  0  0  0  0  0  0
   -2.2870   -0.8898    0.7102 N   0  0  0  0  0  0  0  0  0  0  0  0
   -3.0820   -0.4218    0.2992 H   0  0  0  0  0  0  0  0  0  0  0  0
   -1.0240   -0.1468    0.7262 C   0  0  1  0  0  0  0  0  0  0  0  0
   -0.2680   -0.7367    0.2062 H   0  0  0  0  0  0  0  0  0  0  0  0
   -1.2212    1.1806   -0.0314 C   0  0  0  0  0  0  0  0  0  0  0  0
   -2.0017    1.7549    0.4719 H   0  0  0  0  0  0  0  0  0  0  0  0
   -0.2960    1.7573    0.0066 H   0  0  0  0  0  0  0  0  0  0  0  0
   -1.6379    0.9877   -1.4979 C   0  0  0  0  0  0  0  0  0  0  0  0
   -1.5016    1.9221   -2.0431 H   0  0  0  0  0  0  0  0  0  0  0  0
   -1.0129    0.2156   -1.9501 H   0  0  0  0  0  0  0  0  0  0  0  0
   -3.1089    0.5683   -1.5982 C   0  0  0  0  0  0  0  0  0  0  0  0
   -3.2630   -0.3619   -1.0505 H   0  0  0  0  0  0  0  0  0  0  0  0
   -3.7393    1.3477   -1.1691 H   0  0  0  0  0  0  0  0  0  0  0  0
   -3.4897    0.3596   -3.0627 C   0  0  0  0  0  0  0  0  0  0  0  0
   -3.3543    1.2923   -3.6079 H   0  0  0  0  0  0  0  0  0  0  0  0
   -2.8493   -0.4059   -3.4977 H   0  0  0  0  0  0  0  0  0  0  0  0
   -4.8878   -0.0664   -3.1936 N   0  0  0  0  0  0  0  0  0  0  0  0
   -5.1083   -0.1810   -4.1720 H   0  0  0  0  0  0  0  0  0  0  0  0
   -5.0117   -0.9479   -2.7163 H   0  0  0  0  0  0  0  0  0  0  0  0
   -0.5564    0.0727    2.1744 C   0  0  0  0  0  0  0  0  0  0  0  0
    0.6169   -0.1288    2.4805 O   0  0  0  0  0  0  0  0  0  0  0  0
   -1.4759    0.4743    3.0595 N   0  0  0  0  0  0  0  0  0  0  0  0
   -2.4132    0.6318    2.7275 H   0  0  0  0  0  0  0  0  0  0  0  0
   -1.1971    0.7118    4.4750 C   0  0  0  0  0  0  0  0  0  0  0  0
   -0.3779    1.4272    4.5748 H   0  0  0  0  0  0  0  0  0  0  0  0
   -2.0826    1.1064    4.9754 H   0  0  0  0  0  0  0  0  0  0  0  0
   -0.8992   -0.2240    4.9525 H   0  0  0  0  0  0  0  0  0  0  0  0
  5  6  2  0  0  0  0
  5  7  1  0  0  0  0
  2  3  1  0  0  0  0
  2  4  1  0  0  0  0
  2  5  1  0  0  0  0
  1  2  1  0  0  0  0
 26 27  2  0  0  0  0
 26 28  1  0  0  0  0
 23 24  1  0  0  0  0
 23 25  1  0  0  0  0
 20 21  1  0  0  0  0
 20 22  1  0  0  0  0
 20 23  1  0  0  0  0
 17 18  1  0  0  0  0
 17 19  1  0  0  0  0
 17 20  1  0  0  0  0
 14 15  1  0  0  0  0
 14 16  1  0  0  0  0
 14 17  1  0  0  0  0
 11 12  1  0  0  0  0
 11 13  1  0  0  0  0
 11 14  1  0  0  0  0
  9 10  1  0  0  0  0
  9 11  1  0  0  0  0
  9 26  1  0  0  0  0
  7  8  1  0  0  0  0
  7  9  1  0  0  0  0
 30 31  1  0  0  0  0
 30 32  1  0  0  0  0
 30 33  1  0  0  0  0
 28 29  1  0  0  0  0
 28 30  1  0  0  0  0
M  END
$$$$
default_name
  -OEChem-02102213163D

 33 32  0     1  0  0  0  0  0999 V2000
   -3.8420   -3.6918    1.5562 H   0  0  0  0  0  0  0  0  0  0  0  0
   -3.8430   -2.7008    1.1032 C   0  0  0  0  0  0  0  0  0  0  0  0
   -4.5510   -2.0608    1.6242 H   0  0  0  0  0  0  0  0  0  0  0  0
   -4.1140   -2.7798    0.0522 H   0  0  0  0  0  0  0  0  0  0  0  0
   -2.4570   -2.1098    1.2172 C   0  0  0  0  0  0  0  0  0  0  0  0
   -1.5600   -2.7438    1.7572 O   0  0  0  0  0  0  0  0  0  0  0  0
   -2.2870   -0.8898    0.7102 N   0  0  0  0  0  0  0  0  0  0  0  0
   -3.0820   -0.4218    0.2992 H   0  0  0  0  0  0  0  0  0  0  0  0
   -1.0240   -0.1468    0.7262 C   0  0  1  0  0  0  0  0  0  0  0  0
   -0.2680   -0.7367    0.2062 H   0  0  0  0  0  0  0  0  0  0  0  0
   -1.2212    1.1806   -0.0314 C   0  0  0  0  0  0  0  0  0  0  0  0
   -2.0017    1.7549    0.4719 H   0  0  0  0  0  0  0  0  0  0  0  0
   -0.2960    1.7573    0.0066 H   0  0  0  0  0  0  0  0  0  0  0  0
   -1.6379    0.9877   -1.4979 C   0  0  0  0  0  0  0  0  0  0  0  0
   -1.2611    1.8167   -2.0976 H   0  0  0  0  0  0  0  0  0  0  0  0
   -1.2135    0.0542   -1.8718 H   0  0  0  0  0  0  0  0  0  0  0  0
   -3.1642    0.9366   -1.6309 C   0  0  0  0  0  0  0  0  0  0  0  0
   -3.5571    0.1161   -1.0297 H   0  0  0  0  0  0  0  0  0  0  0  0
   -3.5914    1.8766   -1.2807 H   0  0  0  0  0  0  0  0  0  0  0  0
   -3.5501    0.7197   -3.0929 C   0  0  0  0  0  0  0  0  0  0  0  0
   -3.1746    1.5473   -3.6925 H   0  0  0  0  0  0  0  0  0  0  0  0
   -3.1095   -0.2099   -3.4495 H   0  0  0  0  0  0  0  0  0  0  0  0
   -5.0066    0.6420   -3.2530 N   0  0  0  0  0  0  0  0  0  0  0  0
   -5.2255    0.5128   -4.2299 H   0  0  0  0  0  0  0  0  0  0  0  0
   -5.3567   -0.1441   -2.7240 H   0  0  0  0  0  0  0  0  0  0  0  0
   -0.5564    0.0727    2.1744 C   0  0  0  0  0  0  0  0  0  0  0  0
    0.6169   -0.1288    2.4805 O   0  0  0  0  0  0  0  0  0  0  0  0
   -1.4759    0.4743    3.0595 N   0  0  0  0  0  0  0  0  0  0  0  0
   -2.4132    0.6318    2.7275 H   0  0  0  0  0  0  0  0  0  0  0  0
   -1.1971    0.7118    4.4750 C   0  0  0  0  0  0  0  0  0  0  0  0
   -0.3779    1.4272    4.5748 H   0  0  0  0  0  0  0  0  0  0  0  0
   -2.0826    1.1064    4.9754 H   0  0  0  0  0  0  0  0  0  0  0  0
   -0.8992   -0.2240    4.9525 H   0  0  0  0  0  0  0  0  0  0  0  0
  5  6  2  0  0  0  0
  5  7  1  0  0  0  0
  2  3  1  0  0  0  0
  2  4  1  0  0  0  0
  2  5  1  0  0  0  0
  1  2  1  0  0  0  0
 26 27  2  0  0  0  0
 26 28  1  0  0  0  0
 23 24  1  0  0  0  0
 23 25  1  0  0  0  0
 20 21  1  0  0  0  0
 20 22  1  0  0  0  0
 20 23  1  0  0  0  0
 17 18  1  0  0  0  0
 17 19  1  0  0  0  0
 17 20  1  0  0  0  0
 14 15  1  0  0  0  0
 14 16  1  0  0  0  0
 14 17  1  0  0  0  0
 11 12  1  0  0  0  0
 11 13  1  0  0  0  0
 11 14  1  0  0  0  0
  9 10  1  0  0  0  0
  9 11  1  0  0  0  0
  9 26  1  0  0  0  0
  7  8  1  0  0  0  0
  7  9  1  0  0  0  0
 30 31  1  0  0  0  0
 30 32  1  0  0  0  0
 30 33  1  0  0  0  0
 28 29  1  0  0  0  0
 28 30  1  0  0  0  0
M  END
$$$$
default_name
  -OEChem-02102213163D

 33 32  0     1  0  0  0  0  0999 V2000
   -3.8420   -3.6918    1.5562 H   0  0  0  0  0  0  0  0  0  0  0  0
   -3.8430   -2.7008    1.1032 C   0  0  0  0  0  0  0  0  0  0  0  0
   -4.5510   -2.0608    1.6242 H   0  0  0  0  0  0  0  0  0  0  0  0
   -4.1140   -2.7798    0.0522 H   0  0  0  0  0  0  0  0  0  0  0  0
   -2.4570   -2.1098    1.2172 C   0  0  0  0  0  0  0  0  0  0  0  0
   -1.5600   -2.7438    1.7572 O   0  0  0  0  0  0  0  0  0  0  0  0
   -2.2870   -0.8898    0.7102 N   0  0  0  0  0  0  0  0  0  0  0  0
   -3.0820   -0.4218    0.2992 H   0  0  0  0  0  0  0  0  0  0  0  0
   -1.0240   -0.1468    0.7262 C   0  0  1  0  0  0  0  0  0  0  0  0
   -0.2680   -0.7367    0.2062 H   0  0  0  0  0  0  0  0  0  0  0  0
   -1.2212    1.1806   -0.0314 C   0  0  0  0  0  0  0  0  0  0  0  0
   -2.0017    1.7549    0.4719 H   0  0  0  0  0  0  0  0  0  0  0  0
   -0.2960    1.7573    0.0066 H   0  0  0  0  0  0  0  0  0  0  0  0
   -1.6379    0.9877   -1.4979 C   0  0  0  0  0  0  0  0  0  0  0  0
   -1.0531    1.6518   -2.1350 H   0  0  0  0  0  0  0  0  0  0  0  0
   -1.4497   -0.0466   -1.7915 H   0  0  0  0  0  0  0  0  0  0  0  0
   -3.1255    1.3036   -1.6902 C   0  0  0  0  0  0  0  0  0  0  0  0
   -3.7239    0.6519   -1.0528 H   0  0  0  0  0  0  0  0  0  0  0  0
   -3.3143    2.3432   -1.4208 H   0  0  0  0  0  0  0  0  0  0  0  0
   -3.5185    1.0802   -3.1493 C   0  0  0  0  0  0  0  0  0  0  0  0
   -2.9353    1.7433   -3.7862 H   0  0  0  0  0  0  0  0  0  0  0  0
   -3.3141    0.0471   -3.4252 H   0  0  0  0  0  0  0  0  0  0  0  0
   -4.9446    1.3513   -3.3639 N   0  0  0  0  0  0  0  0  0  0  0  0
   -5.1654    1.2077   -4.3384 H   0  0  0  0  0  0  0  0  0  0  0  0
   -5.4911    0.7169   -2.7990 H   0  0  0  0  0  0  0  0  0  0  0  0
   -0.5564    0.0727    2.1744 C   0  0  0  0  0  0  0  0  0  0  0  0
    0.6169   -0.1288    2.4805 O   0  0  0  0  0  0  0  0  0  0  0  0
   -1.4759    0.4743    3.0595 N   0  0  0  0  0  0  0  0  0  0  0  0
   -2.4132    0.6318    2.7275 H   0  0  0  0  0  0  0  0  0  0  0  0
   -1.1971    0.7118    4.4750 C   0  0  0  0  0  0  0  0  0  0  0  0
   -0.3779    1.4272    4.5748 H   0  0  0  0  0  0  0  0  0  0  0  0
   -2.0826    1.1064    4.9754 H   0  0  0  0  0  0  0  0  0  0  0  0
   -0.8992   -0.2240    4.9525 H   0  0  0  0  0  0  0  0  0  0  0  0
  5  6  2  0  0  0  0
  5  7  1  0  0  0  0
  2  3  1  0  0  0  0
  2  4  1  0  0  0  0
  2  5  1  0  0  0  0
  1  2  1  0  0  0  0
 26 27  2  0  0  0  0
 26 28  1  0  0  0  0
 23 24  1  0  0  0  0
 23 25  1  0  0  0  0
 20 21  1  0  0  0  0
 20 22  1  0  0  0  0
 20 23  1  0  0  0  0
 17 18  1  0  0  0  0
 17 19  1  0  0  0  0
 17 20  1  0  0  0  0
 14 15  1  0  0  0  0
 14 16  1  0  0  0  0
 14 17  1  0  0  0  0
 11 12  1  0  0  0  0
 11 13  1  0  0  0  0
 11 14  1  0  0  0  0
  9 10  1  0  0  0  0
  9 11  1  0  0  0  0
  9 26  1  0  0  0  0
  7  8  1  0  0  0  0
  7  9  1  0  0  0  0
 30 31  1  0  0  0  0
 30 32  1  0  0  0  0
 30 33  1  0  0  0  0
 28 29  1  0  0  0  0
 28 30  1  0  0  0  0
M  END
$$$$
default_name
  -OEChem-02102213163D

 33 32  0     1  0  0  0  0  0999 V2000
   -3.8420   -3.6918    1.5562 H   0  0  0  0  0  0  0  0  0  0  0  0
   -3.8430   -2.7008    1.1032 C   0  0  0  0  0  0  0  0  0  0  0  0
   -4.5510   -2.0608    1.6242 H   0  0  0  0  0  0  0  0  0  0  0  0
   -4.1140   -2.7798    0.0522 H   0  0  0  0  0  0  0  0  0  0  0  0
   -2.4570   -2.1098    1.2172 C   0  0  0  0  0  0  0  0  0  0  0  0
   -1.5600   -2.7438    1.7572 O   0  0  0  0  0  0  0  0  0  0  0  0
   -2.2870   -0.8898    0.7102 N   0  0  0  0  0  0  0  0  0  0  0  0
   -3.0820   -0.4218    0.2992 H   0  0  0  0  0  0  0  0  0  0  0  0
   -1.0240   -0.1468    0.7262 C   0  0  1  0  0  0  0  0  0  0  0  0
   -0.2680   -0.7367    0.2062 H   0  0  0  0  0  0  0  0  0  0  0  0
   -1.2212    1.1806   -0.0314 C   0  0  0  0  0  0  0  0  0  0  0  0
   -2.0017    1.7549    0.4719 H   0  0  0  0  0  0  0  0  0  0  0  0
   -0.2960    1.7573    0.0066 H   0  0  0  0  0  0  0  0  0  0  0  0
   -1.6379    0.9877   -1.4979 C   0  0  0  0  0  0  0  0  0  0  0  0
   -0.8917    1.4384   -2.1528 H   0  0  0  0  0  0  0  0  0  0  0  0
   -1.7054   -0.0800   -1.7144 H   0  0  0  0  0  0  0  0  0  0  0  0
   -2.9957    1.6444   -1.7719 C   0  0  0  0  0  0  0  0  0  0  0  0
   -3.7520    1.2091   -1.1181 H   0  0  0  0  0  0  0  0  0  0  0  0
   -2.9268    2.7155   -1.5799 H   0  0  0  0  0  0  0  0  0  0  0  0
   -3.3971    1.4168   -3.2280 C   0  0  0  0  0  0  0  0  0  0  0  0
   -2.6527    1.8669   -3.8828 H   0  0  0  0  0  0  0  0  0  0  0  0
   -3.4490    0.3475   -3.4264 H   0  0  0  0  0  0  0  0  0  0  0  0
   -4.7058    2.0134   -3.5189 N   0  0  0  0  0  0  0  0  0  0  0  0
   -4.9323    1.8565   -4.4900 H   0  0  0  0  0  0  0  0  0  0  0  0
   -5.4059    1.5766   -2.9363 H   0  0  0  0  0  0  0  0  0  0  0  0
   -0.5564    0.0727    2.1744 C   0  0  0  0  0  0  0  0  0  0  0  0
    0.6169   -0.1288    2.4805 O   0  0  0  0  0  0  0  0  0  0  0  0
   -1.4759    0.4743    3.0595 N   0  0  0  0  0  0  0  0  0  0  0  0
   -2.4132    0.6318    2.7275 H   0  0  0  0  0  0  0  0  0  0  0  0
   -1.1971    0.7118    4.4750 C   0  0  0  0  0  0  0  0  0  0  0  0
   -0.3779    1.4272    4.5748 H   0  0  0  0  0  0  0  0  0  0  0  0
   -2.0826    1.1064    4.9754 H   0  0  0  0  0  0  0  0  0  0  0  0
   -0.8992   -0.2240    4.9525 H   0  0  0  0  0  0  0  0  0  0  0  0
  5  6  2  0  0  0  0
  5  7  1  0  0  0  0
  2  3  1  0  0  0  0
  2  4  1  0  0  0  0
  2  5  1  0  0  0  0
  1  2  1  0  0  0  0
 26 27  2  0  0  0  0
 26 28  1  0  0  0  0
 23 24  1  0  0  0  0
 23 25  1  0  0  0  0
 20 21  1  0  0  0  0
 20 22  1  0  0  0  0
 20 23  1  0  0  0  0
 17 18  1  0  0  0  0
 17 19  1  0  0  0  0
 17 20  1  0  0  0  0
 14 15  1  0  0  0  0
 14 16  1  0  0  0  0
 14 17  1  0  0  0  0
 11 12  1  0  0  0  0
 11 13  1  0  0  0  0
 11 14  1  0  0  0  0
  9 10  1  0  0  0  0
  9 11  1  0  0  0  0
  9 26  1  0  0  0  0
  7  8  1  0  0  0  0
  7  9  1  0  0  0  0
 30 31  1  0  0  0  0
 30 32  1  0  0  0  0
 30 33  1  0  0  0  0
 28 29  1  0  0  0  0
 28 30  1  0  0  0  0
M  END
$$$$
default_name
  -OEChem-02102213163D

 33 32  0     1  0  0  0  0  0999 V2000
   -3.8420   -3.6918    1.5562 H   0  0  0  0  0  0  0  0  0  0  0  0
   -3.8430   -2.7008    1.1032 C   0  0  0  0  0  0  0  0  0  0  0  0
   -4.5510   -2.0608    1.6242 H   0  0  0  0  0  0  0  0  0  0  0  0
   -4.1140   -2.7798    0.0522 H   0  0  0  0  0  0  0  0  0  0  0  0
   -2.4570   -2.1098    1.2172 C   0  0  0  0  0  0  0  0  0  0  0  0
   -1.5600   -2.7438    1.7572 O   0  0  0  0  0  0  0  0  0  0  0  0
   -2.2870   -0.8898    0.7102 N   0  0  0  0  0  0  0  0  0  0  0  0
   -3.0820   -0.4218    0.2992 H   0  0  0  0  0  0  0  0  0  0  0  0
   -1.0240   -0.1468    0.7262 C   0  0  1  0  0  0  0  0  0  0  0  0
   -0.2680   -0.7367    0.2062 H   0  0  0  0  0  0  0  0  0  0  0  0
   -1.2212    1.1806   -0.0314 C   0  0  0  0  0  0  0  0  0  0  0  0
   -2.0017    1.7549    0.4719 H   0  0  0  0  0  0  0  0  0  0  0  0
   -0.2960    1.7573    0.0066 H   0  0  0  0  0  0  0  0  0  0  0  0
   -1.6379    0.9877   -1.4979 C   0  0  0  0  0  0  0  0  0  0  0  0
   -0.7879    1.1912   -2.1497 H   0  0  0  0  0  0  0  0  0  0  0  0
   -1.9631   -0.0437   -1.6459 H   0  0  0  0  0  0  0  0  0  0  0  0
   -2.7834    1.9358   -1.8706 C   0  0  0  0  0  0  0  0  0  0  0  0
   -3.6393    1.7495   -1.2212 H   0  0  0  0  0  0  0  0  0  0  0  0
   -2.4554    2.9684   -1.7471 H   0  0  0  0  0  0  0  0  0  0  0  0
   -3.1941    1.7064   -3.3238 C   0  0  0  0  0  0  0  0  0  0  0  0
   -2.3460    1.9097   -3.9756 H   0  0  0  0  0  0  0  0  0  0  0  0
   -3.5050    0.6710   -3.4530 H   0  0  0  0  0  0  0  0  0  0  0  0
   -4.3066    2.5831   -3.7072 N   0  0  0  0  0  0  0  0  0  0  0  0
   -4.5419    2.4150   -4.6744 H   0  0  0  0  0  0  0  0  0  0  0  0
   -5.1068    2.3763   -3.1265 H   0  0  0  0  0  0  0  0  0  0  0  0
   -0.5564    0.0727    2.1744 C   0  0  0  0  0  0  0  0  0  0  0  0
    0.6169   -0.1288    2.4805 O   0  0  0  0  0  0  0  0  0  0  0  0
   -1.4759    0.4743    3.0595 N   0  0  0  0  0  0  0  0  0  0  0  0
   -2.4132    0.6318    2.7275 H   0  0  0  0  0  0  0  0  0  0  0  0
   -1.1971    0.7118    4.4750 C   0  0  0  0  0  0  0  0  0  0  0  0
   -0.3779    1.4272    4.5748 H   0  0  0  0  0  0  0  0  0  0  0  0
   -2.0826    1.1064    4.9754 H   0  0  0  0  0  0  0  0  0  0  0  0
   -0.8992   -0.2240    4.9525 H   0  0  0  0  0  0  0  0  0  0  0  0
  5  6  2  0  0  0  0
  5  7  1  0  0  0  0
  2  3  1  0  0  0  0
  2  4  1  0  0  0  0
  2  5  1  0  0  0  0
  1  2  1  0  0  0  0
 26 27  2  0  0  0  0
 26 28  1  0  0  0  0
 23 24  1  0  0  0  0
 23 25  1  0  0  0  0
 20 21  1  0  0  0  0
 20 22  1  0  0  0  0
 20 23  1  0  0  0  0
 17 18  1  0  0  0  0
 17 19  1  0  0  0  0
 17 20  1  0  0  0  0
 14 15  1  0  0  0  0
 14 16  1  0  0  0  0
 14 17  1  0  0  0  0
 11 12  1  0  0  0  0
 11 13  1  0  0  0  0
 11 14  1  0  0  0  0
  9 10  1  0  0  0  0
  9 11  1  0  0  0  0
  9 26  1  0  0  0  0
  7  8  1  0  0  0  0
  7  9  1  0  0  0  0
 30 31  1  0  0  0  0
 30 32  1  0  0  0  0
 30 33  1  0  0  0  0
 28 29  1  0  0  0  0
 28 30  1  0  0  0  0
M  END
$$$$
default_name
  -OEChem-02102213163D

 33 32  0     1  0  0  0  0  0999 V2000
   -3.8420   -3.6918    1.5562 H   0  0  0  0  0  0  0  0  0  0  0  0
   -3.8430   -2.7008    1.1032 C   0  0  0  0  0  0  0  0  0  0  0  0
   -4.5510   -2.0608    1.6242 H   0  0  0  0  0  0  0  0  0  0  0  0
   -4.1140   -2.7798    0.0522 H   0  0  0  0  0  0  0  0  0  0  0  0
   -2.4570   -2.1098    1.2172 C   0  0  0  0  0  0  0  0  0  0  0  0
   -1.5600   -2.7438    1.7572 O   0  0  0  0  0  0  0  0  0  0  0  0
   -2.2870   -0.8898    0.7102 N   0  0  0  0  0  0  0  0  0  0  0  0
   -3.0820   -0.4218    0.2992 H   0  0  0  0  0  0  0  0  0  0  0  0
   -1.0240   -0.1468    0.7262 C   0  0  1  0  0  0  0  0  0  0  0  0
   -0.2680   -0.7367    0.2062 H   0  0  0  0  0  0  0  0  0  0  0  0
   -1.2212    1.1806   -0.0314 C   0  0  0  0  0  0  0  0  0  0  0  0
   -2.0017    1.7549    0.4719 H   0  0  0  0  0  0  0  0  0  0  0  0
   -0.2960    1.7573    0.0066 H   0  0  0  0  0  0  0  0  0  0  0  0
   -1.6379    0.9877   -1.4979 C   0  0  0  0  0  0  0  0  0  0  0  0
   -0.7488    0.9270   -2.1261 H   0  0  0  0  0  0  0  0  0  0  0  0
   -2.2053    0.0599   -1.5907 H   0  0  0  0  0  0  0  0  0  0  0  0
   -2.5031    2.1579   -1.9795 C   0  0  0  0  0  0  0  0  0  0  0  0
   -3.3936    2.2365   -1.3551 H   0  0  0  0  0  0  0  0  0  0  0  0
   -1.9322    3.0844   -1.9110 H   0  0  0  0  0  0  0  0  0  0  0  0
   -2.9235    1.9292   -3.4300 C   0  0  0  0  0  0  0  0  0  0  0  0
   -2.0362    1.8689   -4.0583 H   0  0  0  0  0  0  0  0  0  0  0  0
   -3.4784    0.9954   -3.5032 H   0  0  0  0  0  0  0  0  0  0  0  0
   -3.7742    3.0215   -3.9162 N   0  0  0  0  0  0  0  0  0  0  0  0
   -4.0208    2.8451   -4.8790 H   0  0  0  0  0  0  0  0  0  0  0  0
   -4.6142    3.0615   -3.3566 H   0  0  0  0  0  0  0  0  0  0  0  0
   -0.5564    0.0727    2.1744 C   0  0  0  0  0  0  0  0  0  0  0  0
    0.6169   -0.1288    2.4805 O   0  0  0  0  0  0  0  0  0  0  0  0
   -1.4759    0.4743    3.0595 N   0  0  0  0  0  0  0  0  0  0  0  0
   -2.4132    0.6318    2.7275 H   0  0  0  0  0  0  0  0  0  0  0  0
   -1.1971    0.7118    4.4750 C   0  0  0  0  0  0  0  0  0  0  0  0
   -0.3779    1.4272    4.5748 H   0  0  0  0  0  0  0  0  0  0  0  0
   -2.0826    1.1064    4.9754 H   0  0  0  0  0  0  0  0  0  0  0  0
   -0.8992   -0.2240    4.9525 H   0  0  0  0  0  0  0  0  0  0  0  0
  5  6  2  0  0  0  0
  5  7  1  0  0  0  0
  2  3  1  0  0  0  0
  2  4  1  0  0  0  0
  2  5  1  0  0  0  0
  1  2  1  0  0  0  0
 26 27  2  0  0  0  0
 26 28  1  0  0  0  0
 23 24  1  0  0  0  0
 23 25  1  0  0  0  0
 20 21  1  0  0  0  0
 20 22  1  0  0  0  0
 20 23  1  0  0  0  0
 17 18  1  0  0  0  0
 17 19  1  0  0  0  0
 17 20  1  0  0  0  0
 14 15  1  0  0  0  0
 14 16  1  0  0  0  0
 14 17  1  0  0  0  0
 11 12  1  0  0  0  0
 11 13  1  0  0  0  0
 11 14  1  0  0  0  0
  9 10  1  0  0  0  0
  9 11  1  0  0  0  0
  9 26  1  0  0  0  0
  7  8  1  0  0  0  0
  7  9  1  0  0  0  0
 30 31  1  0  0  0  0
 30 32  1  0  0  0  0
 30 33  1  0  0  0  0
 28 29  1  0  0  0  0
 28 30  1  0  0  0  0
M  END
$$$$
default_name
  -OEChem-02102213163D

 33 32  0     1  0  0  0  0  0999 V2000
   -3.8420   -3.6918    1.5562 H   0  0  0  0  0  0  0  0  0  0  0  0
   -3.8430   -2.7008    1.1032 C   0  0  0  0  0  0  0  0  0  0  0  0
   -4.5510   -2.0608    1.6242 H   0  0  0  0  0  0  0  0  0  0  0  0
   -4.1140   -2.7798    0.0522 H   0  0  0  0  0  0  0  0  0  0  0  0
   -2.4570   -2.1098    1.2172 C   0  0  0  0  0  0  0  0  0  0  0  0
   -1.5600   -2.7438    1.7572 O   0  0  0  0  0  0  0  0  0  0  0  0
   -2.2870   -0.8898    0.7102 N   0  0  0  0  0  0  0  0  0  0  0  0
   -3.0820   -0.4218    0.2992 H   0  0  0  0  0  0  0  0  0  0  0  0
   -1.0240   -0.1468    0.7262 C   0  0  1  0  0  0  0  0  0  0  0  0
   -0.2680   -0.7367    0.2062 H   0  0  0  0  0  0  0  0  0  0  0  0
   -1.2212    1.1806   -0.0314 C   0  0  0  0  0  0  0  0  0  0  0  0
   -2.0017    1.7549    0.4719 H   0  0  0  0  0  0  0  0  0  0  0  0
   -0.2960    1.7573    0.0066 H   0  0  0  0  0  0  0  0  0  0  0  0
   -1.6379    0.9877   -1.4979 C   0  0  0  0  0  0  0  0  0  0  0  0
   -0.7771    0.6638   -2.0835 H   0  0  0  0  0  0  0  0  0  0  0  0
   -2.4154    0.2236   -1.5525 H   0  0  0  0  0  0  0  0  0  0  0  0
   -2.1740    2.2956   -2.0911 C   0  0  0  0  0  0  0  0  0  0  0  0
   -3.0317    2.6369   -1.5106 H   0  0  0  0  0  0  0  0  0  0  0  0
   -1.3929    3.0557   -2.0606 H   0  0  0  0  0  0  0  0  0  0  0  0
   -2.6035    2.0701   -3.5395 C   0  0  0  0  0  0  0  0  0  0  0  0
   -1.7444    1.7471   -4.1252 H   0  0  0  0  0  0  0  0  0  0  0  0
   -3.3710    1.2986   -3.5736 H   0  0  0  0  0  0  0  0  0  0  0  0
   -3.1448    3.2989   -4.1316 N   0  0  0  0  0  0  0  0  0  0  0  0
   -3.4047    3.1174   -5.0900 H   0  0  0  0  0  0  0  0  0  0  0  0
   -3.9616    3.5856   -3.6110 H   0  0  0  0  0  0  0  0  0  0  0  0
   -0.5564    0.0727    2.1744 C   0  0  0  0  0  0  0  0  0  0  0  0
    0.6169   -0.1288    2.4805 O   0  0  0  0  0  0  0  0  0  0  0  0
   -1.4759    0.4743    3.0595 N   0  0  0  0  0  0  0  0  0  0  0  0
   -2.4132    0.6318    2.7275 H   0  0  0  0  0  0  0  0  0  0  0  0
   -1.1971    0.7118    4.4750 C   0  0  0  0  0  0  0  0  0  0  0  0
   -0.3779    1.4272    4.5748 H   0  0  0  0  0  0  0  0  0  0  0  0
   -2.0826    1.1064    4.9754 H   0  0  0  0  0  0  0  0  0  0  0  0
   -0.8992   -0.2240    4.9525 H   0  0  0  0  0  0  0  0  0  0  0  0
  5  6  2  0  0  0  0
  5  7  1  0  0  0  0
  2  3  1  0  0  0  0
  2  4  1  0  0  0  0
  2  5  1  0  0  0  0
  1  2  1  0  0  0  0
 26 27  2  0  0  0  0
 26 28  1  0  0  0  0
 23 24  1  0  0  0  0
 23 25  1  0  0  0  0
 20 21  1  0  0  0  0
 20 22  1  0  0  0  0
 20 23  1  0  0  0  0
 17 18  1  0  0  0  0
 17 19  1  0  0  0  0
 17 20  1  0  0  0  0
 14 15  1  0  0  0  0
 14 16  1  0  0  0  0
 14 17  1  0  0  0  0
 11 12  1  0  0  0  0
 11 13  1  0  0  0  0
 11 14  1  0  0  0  0
  9 10  1  0  0  0  0
  9 11  1  0  0  0  0
  9 26  1  0  0  0  0
  7  8  1  0  0  0  0
  7  9  1  0  0  0  0
 30 31  1  0  0  0  0
 30 32  1  0  0  0  0
 30 33  1  0  0  0  0
 28 29  1  0  0  0  0
 28 30  1  0  0  0  0
M  END
$$$$
default_name
  -OEChem-02102213163D

 33 32  0     1  0  0  0  0  0999 V2000
   -3.8420   -3.6918    1.5562 H   0  0  0  0  0  0  0  0  0  0  0  0
   -3.8430   -2.7008    1.1032 C   0  0  0  0  0  0  0  0  0  0  0  0
   -4.5510   -2.0608    1.6242 H   0  0  0  0  0  0  0  0  0  0  0  0
   -4.1140   -2.7798    0.0522 H   0  0  0  0  0  0  0  0  0  0  0  0
   -2.4570   -2.1098    1.2172 C   0  0  0  0  0  0  0  0  0  0  0  0
   -1.5600   -2.7438    1.7572 O   0  0  0  0  0  0  0  0  0  0  0  0
   -2.2870   -0.8898    0.7102 N   0  0  0  0  0  0  0  0  0  0  0  0
   -3.0820   -0.4218    0.2992 H   0  0  0  0  0  0  0  0  0  0  0  0
   -1.0240   -0.1468    0.7262 C   0  0  1  0  0  0  0  0  0  0  0  0
   -0.2680   -0.7367    0.2062 H   0  0  0  0  0  0  0  0  0  0  0  0
   -1.2212    1.1806   -0.0314 C   0  0  0  0  0  0  0  0  0  0  0  0
   -1.7913    1.8615    0.6039 H   0  0  0  0  0  0  0  0  0  0  0  0
   -0.2472    1.6318   -0.2261 H   0  0  0  0  0  0  0  0  0  0  0  0
   -1.9778    1.0166   -1.3588 C   0  0  0  0  0  0  0  0  0  0  0  0
   -1.4252    0.3431   -2.0144 H   0  0  0  0  0  0  0  0  0  0  0  0
   -2.9638    0.5926   -1.1599 H   0  0  0  0  0  0  0  0  0  0  0  0
   -2.1430    2.3670   -2.0651 C   0  0  0  0  0  0  0  0  0  0  0  0
   -2.6879    3.0549   -1.4179 H   0  0  0  0  0  0  0  0  0  0  0  0
   -1.1602    2.7837   -2.2874 H   0  0  0  0  0  0  0  0  0  0  0  0
   -2.9188    2.1794   -3.3675 C   0  0  0  0  0  0  0  0  0  0  0  0
   -2.3674    1.5073   -4.0230 H   0  0  0  0  0  0  0  0  0  0  0  0
   -3.8937    1.7468   -3.1491 H   0  0  0  0  0  0  0  0  0  0  0  0
   -3.1157    3.4587   -4.0588 N   0  0  0  0  0  0  0  0  0  0  0  0
   -3.6178    3.2957   -4.9192 H   0  0  0  0  0  0  0  0  0  0  0  0
   -3.6546    4.0753   -3.4675 H   0  0  0  0  0  0  0  0  0  0  0  0
   -0.5564    0.0727    2.1744 C   0  0  0  0  0  0  0  0  0  0  0  0
    0.6169   -0.1288    2.4805 O   0  0  0  0  0  0  0  0  0  0  0  0
   -1.4759    0.4743    3.0595 N   0  0  0  0  0  0  0  0  0  0  0  0
   -2.4132    0.6318    2.7275 H   0  0  0  0  0  0  0  0  0  0  0  0
   -1.1971    0.7118    4.4750 C   0  0  0  0  0  0  0  0  0  0  0  0
   -0.3779    1.4272    4.5748 H   0  0  0  0  0  0  0  0  0  0  0  0
   -2.0826    1.1064    4.9754 H   0  0  0  0  0  0  0  0  0  0  0  0
   -0.8992   -0.2240    4.9525 H   0  0  0  0  0  0  0  0  0  0  0  0
  5  6  2  0  0  0  0
  5  7  1  0  0  0  0
  2  3  1  0  0  0  0
  2  4  1  0  0  0  0
  2  5  1  0  0  0  0
  1  2  1  0  0  0  0
 26 27  2  0  0  0  0
 26 28  1  0  0  0  0
 23 24  1  0  0  0  0
 23 25  1  0  0  0  0
 20 21  1  0  0  0  0
 20 22  1  0  0  0  0
 20 23  1  0  0  0  0
 17 18  1  0  0  0  0
 17 19  1  0  0  0  0
 17 20  1  0  0  0  0
 14 15  1  0  0  0  0
 14 16  1  0  0  0  0
 14 17  1  0  0  0  0
 11 12  1  0  0  0  0
 11 13  1  0  0  0  0
 11 14  1  0  0  0  0
  9 10  1  0  0  0  0
  9 11  1  0  0  0  0
  9 26  1  0  0  0  0
  7  8  1  0  0  0  0
  7  9  1  0  0  0  0
 30 31  1  0  0  0  0
 30 32  1  0  0  0  0
 30 33  1  0  0  0  0
 28 29  1  0  0  0  0
 28 30  1  0  0  0  0
M  END
$$$$
default_name
  -OEChem-02102213163D

 33 32  0     1  0  0  0  0  0999 V2000
   -3.8420   -3.6918    1.5562 H   0  0  0  0  0  0  0  0  0  0  0  0
   -3.8430   -2.7008    1.1032 C   0  0  0  0  0  0  0  0  0  0  0  0
   -4.5510   -2.0608    1.6242 H   0  0  0  0  0  0  0  0  0  0  0  0
   -4.1140   -2.7798    0.0522 H   0  0  0  0  0  0  0  0  0  0  0  0
   -2.4570   -2.1098    1.2172 C   0  0  0  0  0  0  0  0  0  0  0  0
   -1.5600   -2.7438    1.7572 O   0  0  0  0  0  0  0  0  0  0  0  0
   -2.2870   -0.8898    0.7102 N   0  0  0  0  0  0  0  0  0  0  0  0
   -3.0820   -0.4218    0.2992 H   0  0  0  0  0  0  0  0  0  0  0  0
   -1.0240   -0.1468    0.7262 C   0  0  1  0  0  0  0  0  0  0  0  0
   -0.2680   -0.7367    0.2062 H   0  0  0  0  0  0  0  0  0  0  0  0
   -1.2212    1.1806   -0.0314 C   0  0  0  0  0  0  0  0  0  0  0  0
   -1.7913    1.8615    0.6039 H   0  0  0  0  0  0  0  0  0  0  0  0
   -0.2472    1.6318   -0.2261 H   0  0  0  0  0  0  0  0  0  0  0  0
   -1.9778    1.0166   -1.3588 C   0  0  0  0  0  0  0  0  0  0  0  0
   -1.5826    0.1576   -1.9017 H   0  0  0  0  0  0  0  0  0  0  0  0
   -3.0365    0.8516   -1.1505 H   0  0  0  0  0  0  0  0  0  0  0  0
   -1.8252    2.2659   -2.2338 C   0  0  0  0  0  0  0  0  0  0  0  0
   -2.2095    3.1360   -1.7006 H   0  0  0  0  0  0  0  0  0  0  0  0
   -0.7709    2.4215   -2.4646 H   0  0  0  0  0  0  0  0  0  0  0  0
   -2.6061    2.0866   -3.5343 C   0  0  0  0  0  0  0  0  0  0  0  0
   -2.2118    1.2292   -4.0774 H   0  0  0  0  0  0  0  0  0  0  0  0
   -3.6562    1.9134   -3.3050 H   0  0  0  0  0  0  0  0  0  0  0  0
   -2.5005    3.2762   -4.3869 N   0  0  0  0  0  0  0  0  0  0  0  0
   -3.0151    3.1177   -5.2408 H   0  0  0  0  0  0  0  0  0  0  0  0
   -2.8943    4.0688   -3.9001 H   0  0  0  0  0  0  0  0  0  0  0  0
   -0.5564    0.0727    2.1744 C   0  0  0  0  0  0  0  0  0  0  0  0
    0.6169   -0.1288    2.4805 O   0  0  0  0  0  0  0  0  0  0  0  0
   -1.4759    0.4743    3.0595 N   0  0  0  0  0  0  0  0  0  0  0  0
   -2.4132    0.6318    2.7275 H   0  0  0  0  0  0  0  0  0  0  0  0
   -1.1971    0.7118    4.4750 C   0  0  0  0  0  0  0  0  0  0  0  0
   -0.3779    1.4272    4.5748 H   0  0  0  0  0  0  0  0  0  0  0  0
   -2.0826    1.1064    4.9754 H   0  0  0  0  0  0  0  0  0  0  0  0
   -0.8992   -0.2240    4.9525 H   0  0  0  0  0  0  0  0  0  0  0  0
  5  6  2  0  0  0  0
  5  7  1  0  0  0  0
  2  3  1  0  0  0  0
  2  4  1  0  0  0  0
  2  5  1  0  0  0  0
  1  2  1  0  0  0  0
 26 27  2  0  0  0  0
 26 28  1  0  0  0  0
 23 24  1  0  0  0  0
 23 25  1  0  0  0  0
 20 21  1  0  0  0  0
 20 22  1  0  0  0  0
 20 23  1  0  0  0  0
 17 18  1  0  0  0  0
 17 19  1  0  0  0  0
 17 20  1  0  0  0  0
 14 15  1  0  0  0  0
 14 16  1  0  0  0  0
 14 17  1  0  0  0  0
 11 12  1  0  0  0  0
 11 13  1  0  0  0  0
 11 14  1  0  0  0  0
  9 10  1  0  0  0  0
  9 11  1  0  0  0  0
  9 26  1  0  0  0  0
  7  8  1  0  0  0  0
  7  9  1  0  0  0  0
 30 31  1  0  0  0  0
 30 32  1  0  0  0  0
 30 33  1  0  0  0  0
 28 29  1  0  0  0  0
 28 30  1  0  0  0  0
M  END
$$$$
default_name
  -OEChem-02102213163D

 33 32  0     1  0  0  0  0  0999 V2000
   -3.8420   -3.6918    1.5562 H   0  0  0  0  0  0  0  0  0  0  0  0
   -3.8430   -2.7008    1.1032 C   0  0  0  0  0  0  0  0  0  0  0  0
   -4.5510   -2.0608    1.6242 H   0  0  0  0  0  0  0  0  0  0  0  0
   -4.1140   -2.7798    0.0522 H   0  0  0  0  0  0  0  0  0  0  0  0
   -2.4570   -2.1098    1.2172 C   0  0  0  0  0  0  0  0  0  0  0  0
   -1.5600   -2.7438    1.7572 O   0  0  0  0  0  0  0  0  0  0  0  0
   -2.2870   -0.8898    0.7102 N   0  0  0  0  0  0  0  0  0  0  0  0
   -3.0820   -0.4218    0.2992 H   0  0  0  0  0  0  0  0  0  0  0  0
   -1.0240   -0.1468    0.7262 C   0  0  1  0  0  0  0  0  0  0  0  0
   -0.2680   -0.7367    0.2062 H   0  0  0  0  0  0  0  0  0  0  0  0
   -1.2212    1.1806   -0.0314 C   0  0  0  0  0  0  0  0  0  0  0  0
   -1.7913    1.8615    0.6039 H   0  0  0  0  0  0  0  0  0  0  0  0
   -0.2472    1.6318   -0.2261 H   0  0  0  0  0  0  0  0  0  0  0  0
   -1.9778    1.0166   -1.3588 C   0  0  0  0  0  0  0  0  0  0  0  0
   -1.7793    0.0280   -1.7736 H   0  0  0  0  0  0  0  0  0  0  0  0
   -3.0491    1.1191   -1.1763 H   0  0  0  0  0  0  0  0  0  0  0  0
   -1.5361    2.0757   -2.3751 C   0  0  0  0  0  0  0  0  0  0  0  0
   -1.7214    3.0714   -1.9709 H   0  0  0  0  0  0  0  0  0  0  0  0
   -0.4709    1.9621   -2.5788 H   0  0  0  0  0  0  0  0  0  0  0  0
   -2.3202    1.9058   -3.6749 C   0  0  0  0  0  0  0  0  0  0  0  0
   -2.1221    0.9189   -4.0901 H   0  0  0  0  0  0  0  0  0  0  0  0
   -3.3853    2.0012   -3.4703 H   0  0  0  0  0  0  0  0  0  0  0  0
   -1.9381    2.9206   -4.6636 N   0  0  0  0  0  0  0  0  0  0  0  0
   -2.4639    2.7701   -5.5120 H   0  0  0  0  0  0  0  0  0  0  0  0
   -2.1495    3.8374   -4.2961 H   0  0  0  0  0  0  0  0  0  0  0  0
   -0.5564    0.0727    2.1744 C   0  0  0  0  0  0  0  0  0  0  0  0
    0.6169   -0.1288    2.4805 O   0  0  0  0  0  0  0  0  0  0  0  0
   -1.4759    0.4743    3.0595 N   0  0  0  0  0  0  0  0  0  0  0  0
   -2.4132    0.6318    2.7275 H   0  0  0  0  0  0  0  0  0  0  0  0
   -1.1971    0.7118    4.4750 C   0  0  0  0  0  0  0  0  0  0  0  0
   -0.3779    1.4272    4.5748 H   0  0  0  0  0  0  0  0  0  0  0  0
   -2.0826    1.1064    4.9754 H   0  0  0  0  0  0  0  0  0  0  0  0
   -0.8992   -0.2240    4.9525 H   0  0  0  0  0  0  0  0  0  0  0  0
  5  6  2  0  0  0  0
  5  7  1  0  0  0  0
  2  3  1  0  0  0  0
  2  4  1  0  0  0  0
  2  5  1  0  0  0  0
  1  2  1  0  0  0  0
 26 27  2  0  0  0  0
 26 28  1  0  0  0  0
 23 24  1  0  0  0  0
 23 25  1  0  0  0  0
 20 21  1  0  0  0  0
 20 22  1  0  0  0  0
 20 23  1  0  0  0  0
 17 18  1  0  0  0  0
 17 19  1  0  0  0  0
 17 20  1  0  0  0  0
 14 15  1  0  0  0  0
 14 16  1  0  0  0  0
 14 17  1  0  0  0  0
 11 12  1  0  0  0  0
 11 13  1  0  0  0  0
 11 14  1  0  0  0  0
  9 10  1  0  0  0  0
  9 11  1  0  0  0  0
  9 26  1  0  0  0  0
  7  8  1  0  0  0  0
  7  9  1  0  0  0  0
 30 31  1  0  0  0  0
 30 32  1  0  0  0  0
 30 33  1  0  0  0  0
 28 29  1  0  0  0  0
 28 30  1  0  0  0  0
M  END
$$$$
default_name
  -OEChem-02102213163D

 33 32  0     1  0  0  0  0  0999 V2000
   -3.8420   -3.6918    1.5562 H   0  0  0  0  0  0  0  0  0  0  0  0
   -3.8430   -2.7008    1.1032 C   0  0  0  0  0  0  0  0  0  0  0  0
   -4.5510   -2.0608    1.6242 H   0  0  0  0  0  0  0  0  0  0  0  0
   -4.1140   -2.7798    0.0522 H   0  0  0  0  0  0  0  0  0  0  0  0
   -2.4570   -2.1098    1.2172 C   0  0  0  0  0  0  0  0  0  0  0  0
   -1.5600   -2.7438    1.7572 O   0  0  0  0  0  0  0  0  0  0  0  0
   -2.2870   -0.8898    0.7102 N   0  0  0  0  0  0  0  0  0  0  0  0
   -3.0820   -0.4218    0.2992 H   0  0  0  0  0  0  0  0  0  0  0  0
   -1.0240   -0.1468    0.7262 C   0  0  1  0  0  0  0  0  0  0  0  0
   -0.2680   -0.7367    0.2062 H   0  0  0  0  0  0  0  0  0  0  0  0
   -1.2212    1.1806   -0.0314 C   0  0  0  0  0  0  0  0  0  0  0  0
   -1.7913    1.8615    0.6039 H   0  0  0  0  0  0  0  0  0  0  0  0
   -0.2472    1.6318   -0.2261 H   0  0  0  0  0  0  0  0  0  0  0  0
   -1.9778    1.0166   -1.3588 C   0  0  0  0  0  0  0  0  0  0  0  0
   -2.0017   -0.0369   -1.6388 H   0  0  0  0  0  0  0  0  0  0  0  0
   -3.0008    1.3771   -1.2358 H   0  0  0  0  0  0  0  0  0  0  0  0
   -1.2955    1.8094   -2.4794 C   0  0  0  0  0  0  0  0  0  0  0  0
   -1.2569    2.8653   -2.2102 H   0  0  0  0  0  0  0  0  0  0  0  0
   -0.2807    1.4368   -2.6223 H   0  0  0  0  0  0  0  0  0  0  0  0
   -2.0805    1.6493   -3.7798 C   0  0  0  0  0  0  0  0  0  0  0  0
   -2.1046    0.5975   -4.0604 H   0  0  0  0  0  0  0  0  0  0  0  0
   -3.0993    2.0045   -3.6337 H   0  0  0  0  0  0  0  0  0  0  0  0
   -1.4666    2.4160   -4.8700 N   0  0  0  0  0  0  0  0  0  0  0  0
   -2.0017    2.2765   -5.7145 H   0  0  0  0  0  0  0  0  0  0  0  0
   -1.4708    3.3969   -4.6285 H   0  0  0  0  0  0  0  0  0  0  0  0
   -0.5564    0.0727    2.1744 C   0  0  0  0  0  0  0  0  0  0  0  0
    0.6169   -0.1288    2.4805 O   0  0  0  0  0  0  0  0  0  0  0  0
   -1.4759    0.4743    3.0595 N   0  0  0  0  0  0  0  0  0  0  0  0
   -2.4132    0.6318    2.7275 H   0  0  0  0  0  0  0  0  0  0  0  0
   -1.1971    0.7118    4.4750 C   0  0  0  0  0  0  0  0  0  0  0  0
   -0.3779    1.4272    4.5748 H   0  0  0  0  0  0  0  0  0  0  0  0
   -2.0826    1.1064    4.9754 H   0  0  0  0  0  0  0  0  0  0  0  0
   -0.8992   -0.2240    4.9525 H   0  0  0  0  0  0  0  0  0  0  0  0
  5  6  2  0  0  0  0
  5  7  1  0  0  0  0
  2  3  1  0  0  0  0
  2  4  1  0  0  0  0
  2  5  1  0  0  0  0
  1  2  1  0  0  0  0
 26 27  2  0  0  0  0
 26 28  1  0  0  0  0
 23 24  1  0  0  0  0
 23 25  1  0  0  0  0
 20 21  1  0  0  0  0
 20 22  1  0  0  0  0
 20 23  1  0  0  0  0
 17 18  1  0  0  0  0
 17 19  1  0  0  0  0
 17 20  1  0  0  0  0
 14 15  1  0  0  0  0
 14 16  1  0  0  0  0
 14 17  1  0  0  0  0
 11 12  1  0  0  0  0
 11 13  1  0  0  0  0
 11 14  1  0  0  0  0
  9 10  1  0  0  0  0
  9 11  1  0  0  0  0
  9 26  1  0  0  0  0
  7  8  1  0  0  0  0
  7  9  1  0  0  0  0
 30 31  1  0  0  0  0
 30 32  1  0  0  0  0
 30 33  1  0  0  0  0
 28 29  1  0  0  0  0
 28 30  1  0  0  0  0
M  END
$$$$
default_name
  -OEChem-02102213163D

 33 32  0     1  0  0  0  0  0999 V2000
   -3.8420   -3.6918    1.5562 H   0  0  0  0  0  0  0  0  0  0  0  0
   -3.8430   -2.7008    1.1032 C   0  0  0  0  0  0  0  0  0  0  0  0
   -4.5510   -2.0608    1.6242 H   0  0  0  0  0  0  0  0  0  0  0  0
   -4.1140   -2.7798    0.0522 H   0  0  0  0  0  0  0  0  0  0  0  0
   -2.4570   -2.1098    1.2172 C   0  0  0  0  0  0  0  0  0  0  0  0
   -1.5600   -2.7438    1.7572 O   0  0  0  0  0  0  0  0  0  0  0  0
   -2.2870   -0.8898    0.7102 N   0  0  0  0  0  0  0  0  0  0  0  0
   -3.0820   -0.4218    0.2992 H   0  0  0  0  0  0  0  0  0  0  0  0
   -1.0240   -0.1468    0.7262 C   0  0  1  0  0  0  0  0  0  0  0  0
   -0.2680   -0.7367    0.2062 H   0  0  0  0  0  0  0  0  0  0  0  0
   -1.2212    1.1806   -0.0314 C   0  0  0  0  0  0  0  0  0  0  0  0
   -1.7913    1.8615    0.6039 H   0  0  0  0  0  0  0  0  0  0  0  0
   -0.2472    1.6318   -0.2261 H   0  0  0  0  0  0  0  0  0  0  0  0
   -1.9778    1.0166   -1.3588 C   0  0  0  0  0  0  0  0  0  0  0  0
   -2.2349   -0.0327   -1.5064 H   0  0  0  0  0  0  0  0  0  0  0  0
   -2.8948    1.6079   -1.3247 H   0  0  0  0  0  0  0  0  0  0  0  0
   -1.1197    1.4850   -2.5395 C   0  0  0  0  0  0  0  0  0  0  0  0
   -0.8477    2.5320   -2.4023 H   0  0  0  0  0  0  0  0  0  0  0  0
   -0.2133    0.8812   -2.5922 H   0  0  0  0  0  0  0  0  0  0  0  0
   -1.9035    1.3346   -3.8418 C   0  0  0  0  0  0  0  0  0  0  0  0
   -2.1603    0.2870   -3.9903 H   0  0  0  0  0  0  0  0  0  0  0  0
   -2.8179    1.9228   -3.7841 H   0  0  0  0  0  0  0  0  0  0  0  0
   -1.1184    1.7970   -4.9921 N   0  0  0  0  0  0  0  0  0  0  0  0
   -1.6600    1.6705   -5.8345 H   0  0  0  0  0  0  0  0  0  0  0  0
   -0.9045    2.7772   -4.8747 H   0  0  0  0  0  0  0  0  0  0  0  0
   -0.5564    0.0727    2.1744 C   0  0  0  0  0  0  0  0  0  0  0  0
    0.6169   -0.1288    2.4805 O   0  0  0  0  0  0  0  0  0  0  0  0
   -1.4759    0.4743    3.0595 N   0  0  0  0  0  0  0  0  0  0  0  0
   -2.4132    0.6318    2.7275 H   0  0  0  0  0  0  0  0  0  0  0  0
   -1.1971    0.7118    4.4750 C   0  0  0  0  0  0  0  0  0  0  0  0
   -0.3779    1.4272    4.5748 H   0  0  0  0  0  0  0  0  0  0  0  0
   -2.0826    1.1064    4.9754 H   0  0  0  0  0  0  0  0  0  0  0  0
   -0.8992   -0.2240    4.9525 H   0  0  0  0  0  0  0  0  0  0  0  0
  5  6  2  0  0  0  0
  5  7  1  0  0  0  0
  2  3  1  0  0  0  0
  2  4  1  0  0  0  0
  2  5  1  0  0  0  0
  1  2  1  0  0  0  0
 26 27  2  0  0  0  0
 26 28  1  0  0  0  0
 23 24  1  0  0  0  0
 23 25  1  0  0  0  0
 20 21  1  0  0  0  0
 20 22  1  0  0  0  0
 20 23  1  0  0  0  0
 17 18  1  0  0  0  0
 17 19  1  0  0  0  0
 17 20  1  0  0  0  0
 14 15  1  0  0  0  0
 14 16  1  0  0  0  0
 14 17  1  0  0  0  0
 11 12  1  0  0  0  0
 11 13  1  0  0  0  0
 11 14  1  0  0  0  0
  9 10  1  0  0  0  0
  9 11  1  0  0  0  0
  9 26  1  0  0  0  0
  7  8  1  0  0  0  0
  7  9  1  0  0  0  0
 30 31  1  0  0  0  0
 30 32  1  0  0  0  0
 30 33  1  0  0  0  0
 28 29  1  0  0  0  0
 28 30  1  0  0  0  0
M  END
$$$$
default_name
  -OEChem-02102213163D

 33 32  0     1  0  0  0  0  0999 V2000
   -3.8420   -3.6918    1.5562 H   0  0  0  0  0  0  0  0  0  0  0  0
   -3.8430   -2.7008    1.1032 C   0  0  0  0  0  0  0  0  0  0  0  0
   -4.5510   -2.0608    1.6242 H   0  0  0  0  0  0  0  0  0  0  0  0
   -4.1140   -2.7798    0.0522 H   0  0  0  0  0  0  0  0  0  0  0  0
   -2.4570   -2.1098    1.2172 C   0  0  0  0  0  0  0  0  0  0  0  0
   -1.5600   -2.7438    1.7572 O   0  0  0  0  0  0  0  0  0  0  0  0
   -2.2870   -0.8898    0.7102 N   0  0  0  0  0  0  0  0  0  0  0  0
   -3.0820   -0.4218    0.2992 H   0  0  0  0  0  0  0  0  0  0  0  0
   -1.0240   -0.1468    0.7262 C   0  0  1  0  0  0  0  0  0  0  0  0
   -0.2680   -0.7367    0.2062 H   0  0  0  0  0  0  0  0  0  0  0  0
   -1.2212    1.1806   -0.0314 C   0  0  0  0  0  0  0  0  0  0  0  0
   -1.7913    1.8615    0.6039 H   0  0  0  0  0  0  0  0  0  0  0  0
   -0.2472    1.6318   -0.2261 H   0  0  0  0  0  0  0  0  0  0  0  0
   -1.9778    1.0166   -1.3588 C   0  0  0  0  0  0  0  0  0  0  0  0
   -2.4628    0.0404   -1.3855 H   0  0  0  0  0  0  0  0  0  0  0  0
   -2.7383    1.7958   -1.4371 H   0  0  0  0  0  0  0  0  0  0  0  0
   -1.0208    1.1247   -2.5513 C   0  0  0  0  0  0  0  0  0  0  0  0
   -0.5217    2.0940   -2.5340 H   0  0  0  0  0  0  0  0  0  0  0  0
   -0.2731    0.3334   -2.4904 H   0  0  0  0  0  0  0  0  0  0  0  0
   -1.8012    0.9832   -3.8568 C   0  0  0  0  0  0  0  0  0  0  0  0
   -2.2855    0.0084   -3.8845 H   0  0  0  0  0  0  0  0  0  0  0  0
   -2.5602    1.7619   -3.9111 H   0  0  0  0  0  0  0  0  0  0  0  0
   -0.9170    1.1057   -5.0214 N   0  0  0  0  0  0  0  0  0  0  0  0
   -1.4621    0.9935   -5.8636 H   0  0  0  0  0  0  0  0  0  0  0  0
   -0.4893    2.0208   -5.0180 H   0  0  0  0  0  0  0  0  0  0  0  0
   -0.5564    0.0727    2.1744 C   0  0  0  0  0  0  0  0  0  0  0  0
    0.6169   -0.1288    2.4805 O   0  0  0  0  0  0  0  0  0  0  0  0
   -1.4759    0.4743    3.0595 N   0  0  0  0  0  0  0  0  0  0  0  0
   -2.4132    0.6318    2.7275 H   0  0  0  0  0  0  0  0  0  0  0  0
   -1.1971    0.7118    4.4750 C   0  0  0  0  0  0  0  0  0  0  0  0
   -0.3779    1.4272    4.5748 H   0  0  0  0  0  0  0  0  0  0  0  0
   -2.0826    1.1064    4.9754 H   0  0  0  0  0  0  0  0  0  0  0  0
   -0.8992   -0.2240    4.9525 H   0  0  0  0  0  0  0  0  0  0  0  0
  5  6  2  0  0  0  0
  5  7  1  0  0  0  0
  2  3  1  0  0  0  0
  2  4  1  0  0  0  0
  2  5  1  0  0  0  0
  1  2  1  0  0  0  0
 26 27  2  0  0  0  0
 26 28  1  0  0  0  0
 23 24  1  0  0  0  0
 23 25  1  0  0  0  0
 20 21  1  0  0  0  0
 20 22  1  0  0  0  0
 20 23  1  0  0  0  0
 17 18  1  0  0  0  0
 17 19  1  0  0  0  0
 17 20  1  0  0  0  0
 14 15  1  0  0  0  0
 14 16  1  0  0  0  0
 14 17  1  0  0  0  0
 11 12  1  0  0  0  0
 11 13  1  0  0  0  0
 11 14  1  0  0  0  0
  9 10  1  0  0  0  0
  9 11  1  0  0  0  0
  9 26  1  0  0  0  0
  7  8  1  0  0  0  0
  7  9  1  0  0  0  0
 30 31  1  0  0  0  0
 30 32  1  0  0  0  0
 30 33  1  0  0  0  0
 28 29  1  0  0  0  0
 28 30  1  0  0  0  0
M  END
$$$$
default_name
  -OEChem-02102213163D

 33 32  0     1  0  0  0  0  0999 V2000
   -3.8420   -3.6918    1.5562 H   0  0  0  0  0  0  0  0  0  0  0  0
   -3.8430   -2.7008    1.1032 C   0  0  0  0  0  0  0  0  0  0  0  0
   -4.5510   -2.0608    1.6242 H   0  0  0  0  0  0  0  0  0  0  0  0
   -4.1140   -2.7798    0.0522 H   0  0  0  0  0  0  0  0  0  0  0  0
   -2.4570   -2.1098    1.2172 C   0  0  0  0  0  0  0  0  0  0  0  0
   -1.5600   -2.7438    1.7572 O   0  0  0  0  0  0  0  0  0  0  0  0
   -2.2870   -0.8898    0.7102 N   0  0  0  0  0  0  0  0  0  0  0  0
   -3.0820   -0.4218    0.2992 H   0  0  0  0  0  0  0  0  0  0  0  0
   -1.0240   -0.1468    0.7262 C   0  0  1  0  0  0  0  0  0  0  0  0
   -0.2680   -0.7367    0.2062 H   0  0  0  0  0  0  0  0  0  0  0  0
   -1.2212    1.1806   -0.0314 C   0  0  0  0  0  0  0  0  0  0  0  0
   -1.7913    1.8615    0.6039 H   0  0  0  0  0  0  0  0  0  0  0  0
   -0.2472    1.6318   -0.2261 H   0  0  0  0  0  0  0  0  0  0  0  0
   -1.9778    1.0166   -1.3588 C   0  0  0  0  0  0  0  0  0  0  0  0
   -2.6699    0.1774   -1.2843 H   0  0  0  0  0  0  0  0  0  0  0  0
   -2.5421    1.9279   -1.5653 H   0  0  0  0  0  0  0  0  0  0  0  0
   -1.0055    0.7531   -2.5142 C   0  0  0  0  0  0  0  0  0  0  0  0
   -0.3010    1.5813   -2.5964 H   0  0  0  0  0  0  0  0  0  0  0  0
   -0.4563   -0.1694   -2.3238 H   0  0  0  0  0  0  0  0  0  0  0  0
   -1.7805    0.6189   -3.8235 C   0  0  0  0  0  0  0  0  0  0  0  0
   -2.4716   -0.2193   -3.7503 H   0  0  0  0  0  0  0  0  0  0  0  0
   -2.3437    1.5327   -4.0062 H   0  0  0  0  0  0  0  0  0  0  0  0
   -0.8762    0.3891   -4.9561 N   0  0  0  0  0  0  0  0  0  0  0  0
   -1.4214    0.2917   -5.8001 H   0  0  0  0  0  0  0  0  0  0  0  0
   -0.2534    1.1790   -5.0484 H   0  0  0  0  0  0  0  0  0  0  0  0
   -0.5564    0.0727    2.1744 C   0  0  0  0  0  0  0  0  0  0  0  0
    0.6169   -0.1288    2.4805 O   0  0  0  0  0  0  0  0  0  0  0  0
   -1.4759    0.4743    3.0595 N   0  0  0  0  0  0  0  0  0  0  0  0
   -2.4132    0.6318    2.7275 H   0  0  0  0  0  0  0  0  0  0  0  0
   -1.1971    0.7118    4.4750 C   0  0  0  0  0  0  0  0  0  0  0  0
   -0.3779    1.4272    4.5748 H   0  0  0  0  0  0  0  0  0  0  0  0
   -2.0826    1.1064    4.9754 H   0  0  0  0  0  0  0  0  0  0  0  0
   -0.8992   -0.2240    4.9525 H   0  0  0  0  0  0  0  0  0  0  0  0
  5  6  2  0  0  0  0
  5  7  1  0  0  0  0
  2  3  1  0  0  0  0
  2  4  1  0  0  0  0
  2  5  1  0  0  0  0
  1  2  1  0  0  0  0
 26 27  2  0  0  0  0
 26 28  1  0  0  0  0
 23 24  1  0  0  0  0
 23 25  1  0  0  0  0
 20 21  1  0  0  0  0
 20 22  1  0  0  0  0
 20 23  1  0  0  0  0
 17 18  1  0  0  0  0
 17 19  1  0  0  0  0
 17 20  1  0  0  0  0
 14 15  1  0  0  0  0
 14 16  1  0  0  0  0
 14 17  1  0  0  0  0
 11 12  1  0  0  0  0
 11 13  1  0  0  0  0
 11 14  1  0  0  0  0
  9 10  1  0  0  0  0
  9 11  1  0  0  0  0
  9 26  1  0  0  0  0
  7  8  1  0  0  0  0
  7  9  1  0  0  0  0
 30 31  1  0  0  0  0
 30 32  1  0  0  0  0
 30 33  1  0  0  0  0
 28 29  1  0  0  0  0
 28 30  1  0  0  0  0
M  END
$$$$
default_name
  -OEChem-02102213163D

 33 32  0     1  0  0  0  0  0999 V2000
   -3.8420   -3.6918    1.5562 H   0  0  0  0  0  0  0  0  0  0  0  0
   -3.8430   -2.7008    1.1032 C   0  0  0  0  0  0  0  0  0  0  0  0
   -4.5510   -2.0608    1.6242 H   0  0  0  0  0  0  0  0  0  0  0  0
   -4.1140   -2.7798    0.0522 H   0  0  0  0  0  0  0  0  0  0  0  0
   -2.4570   -2.1098    1.2172 C   0  0  0  0  0  0  0  0  0  0  0  0
   -1.5600   -2.7438    1.7572 O   0  0  0  0  0  0  0  0  0  0  0  0
   -2.2870   -0.8898    0.7102 N   0  0  0  0  0  0  0  0  0  0  0  0
   -3.0820   -0.4218    0.2992 H   0  0  0  0  0  0  0  0  0  0  0  0
   -1.0240   -0.1468    0.7262 C   0  0  1  0  0  0  0  0  0  0  0  0
   -0.2680   -0.7367    0.2062 H   0  0  0  0  0  0  0  0  0  0  0  0
   -1.2212    1.1806   -0.0314 C   0  0  0  0  0  0  0  0  0  0  0  0
   -1.7913    1.8615    0.6039 H   0  0  0  0  0  0  0  0  0  0  0  0
   -0.2472    1.6318   -0.2261 H   0  0  0  0  0  0  0  0  0  0  0  0
   -1.9778    1.0166   -1.3588 C   0  0  0  0  0  0  0  0  0  0  0  0
   -2.8421    0.3688   -1.2098 H   0  0  0  0  0  0  0  0  0  0  0  0
   -2.3194    1.9954   -1.7006 H   0  0  0  0  0  0  0  0  0  0  0  0
   -1.0748    0.3955   -2.4305 C   0  0  0  0  0  0  0  0  0  0  0  0
   -0.2008    1.0288   -2.5853 H   0  0  0  0  0  0  0  0  0  0  0  0
   -0.7502   -0.5929   -2.1040 H   0  0  0  0  0  0  0  0  0  0  0  0
   -1.8429    0.2667   -3.7445 C   0  0  0  0  0  0  0  0  0  0  0  0
   -2.7059   -0.3804   -3.5968 H   0  0  0  0  0  0  0  0  0  0  0  0
   -2.1832    1.2507   -4.0629 H   0  0  0  0  0  0  0  0  0  0  0  0
   -0.9988   -0.3038   -4.8006 N   0  0  0  0  0  0  0  0  0  0  0  0
   -1.5409   -0.3873   -5.6481 H   0  0  0  0  0  0  0  0  0  0  0  0
   -0.2129    0.3093   -4.9641 H   0  0  0  0  0  0  0  0  0  0  0  0
   -0.5564    0.0727    2.1744 C   0  0  0  0  0  0  0  0  0  0  0  0
    0.6169   -0.1288    2.4805 O   0  0  0  0  0  0  0  0  0  0  0  0
   -1.4759    0.4743    3.0595 N   0  0  0  0  0  0  0  0  0  0  0  0
   -2.4132    0.6318    2.7275 H   0  0  0  0  0  0  0  0  0  0  0  0
   -1.1971    0.7118    4.4750 C   0  0  0  0  0  0  0  0  0  0  0  0
   -0.3779    1.4272    4.5748 H   0  0  0  0  0  0  0  0  0  0  0  0
   -2.0826    1.1064    4.9754 H   0  0  0  0  0  0  0  0  0  0  0  0
   -0.8992   -0.2240    4.9525 H   0  0  0  0  0  0  0  0  0  0  0  0
  5  6  2  0  0  0  0
  5  7  1  0  0  0  0
  2  3  1  0  0  0  0
  2  4  1  0  0  0  0
  2  5  1  0  0  0  0
  1  2  1  0  0  0  0
 26 27  2  0  0  0  0
 26 28  1  0  0  0  0
 23 24  1  0  0  0  0
 23 25  1  0  0  0  0
 20 21  1  0  0  0  0
 20 22  1  0  0  0  0
 20 23  1  0  0  0  0
 17 18  1  0  0  0  0
 17 19  1  0  0  0  0
 17 20  1  0  0  0  0
 14 15  1  0  0  0  0
 14 16  1  0  0  0  0
 14 17  1  0  0  0  0
 11 12  1  0  0  0  0
 11 13  1  0  0  0  0
 11 14  1  0  0  0  0
  9 10  1  0  0  0  0
  9 11  1  0  0  0  0
  9 26  1  0  0  0  0
  7  8  1  0  0  0  0
  7  9  1  0  0  0  0
 30 31  1  0  0  0  0
 30 32  1  0  0  0  0
 30 33  1  0  0  0  0
 28 29  1  0  0  0  0
 28 30  1  0  0  0  0
M  END
$$$$
default_name
  -OEChem-02102213163D

 33 32  0     1  0  0  0  0  0999 V2000
   -3.8420   -3.6918    1.5562 H   0  0  0  0  0  0  0  0  0  0  0  0
   -3.8430   -2.7008    1.1032 C   0  0  0  0  0  0  0  0  0  0  0  0
   -4.5510   -2.0608    1.6242 H   0  0  0  0  0  0  0  0  0  0  0  0
   -4.1140   -2.7798    0.0522 H   0  0  0  0  0  0  0  0  0  0  0  0
   -2.4570   -2.1098    1.2172 C   0  0  0  0  0  0  0  0  0  0  0  0
   -1.5600   -2.7438    1.7572 O   0  0  0  0  0  0  0  0  0  0  0  0
   -2.2870   -0.8898    0.7102 N   0  0  0  0  0  0  0  0  0  0  0  0
   -3.0820   -0.4218    0.2992 H   0  0  0  0  0  0  0  0  0  0  0  0
   -1.0240   -0.1468    0.7262 C   0  0  1  0  0  0  0  0  0  0  0  0
   -0.2680   -0.7367    0.2062 H   0  0  0  0  0  0  0  0  0  0  0  0
   -1.2212    1.1806   -0.0314 C   0  0  0  0  0  0  0  0  0  0  0  0
   -1.7913    1.8615    0.6039 H   0  0  0  0  0  0  0  0  0  0  0  0
   -0.2472    1.6318   -0.2261 H   0  0  0  0  0  0  0  0  0  0  0  0
   -1.9778    1.0166   -1.3588 C   0  0  0  0  0  0  0  0  0  0  0  0
   -2.9678    0.6018   -1.1670 H   0  0  0  0  0  0  0  0  0  0  0  0
   -2.0855    1.9936   -1.8337 H   0  0  0  0  0  0  0  0  0  0  0  0
   -1.2241    0.0762   -2.3059 C   0  0  0  0  0  0  0  0  0  0  0  0
   -0.2278    0.4741   -2.5014 H   0  0  0  0  0  0  0  0  0  0  0  0
   -1.1348   -0.9083   -1.8458 H   0  0  0  0  0  0  0  0  0  0  0  0
   -1.9840   -0.0495   -3.6249 C   0  0  0  0  0  0  0  0  0  0  0  0
   -2.9726   -0.4641   -3.4345 H   0  0  0  0  0  0  0  0  0  0  0  0
   -2.0896    0.9352   -4.0772 H   0  0  0  0  0  0  0  0  0  0  0  0
   -1.2765   -0.9259   -4.5655 N   0  0  0  0  0  0  0  0  0  0  0  0
   -1.8122   -0.9970   -5.4181 H   0  0  0  0  0  0  0  0  0  0  0  0
   -0.3705   -0.5291   -4.7706 H   0  0  0  0  0  0  0  0  0  0  0  0
   -0.5564    0.0727    2.1744 C   0  0  0  0  0  0  0  0  0  0  0  0
    0.6169   -0.1288    2.4805 O   0  0  0  0  0  0  0  0  0  0  0  0
   -1.4759    0.4743    3.0595 N   0  0  0  0  0  0  0  0  0  0  0  0
   -2.4132    0.6318    2.7275 H   0  0  0  0  0  0  0  0  0  0  0  0
   -1.1971    0.7118    4.4750 C   0  0  0  0  0  0  0  0  0  0  0  0
   -0.3779    1.4272    4.5748 H   0  0  0  0  0  0  0  0  0  0  0  0
   -2.0826    1.1064    4.9754 H   0  0  0  0  0  0  0  0  0  0  0  0
   -0.8992   -0.2240    4.9525 H   0  0  0  0  0  0  0  0  0  0  0  0
  5  6  2  0  0  0  0
  5  7  1  0  0  0  0
  2  3  1  0  0  0  0
  2  4  1  0  0  0  0
  2  5  1  0  0  0  0
  1  2  1  0  0  0  0
 26 27  2  0  0  0  0
 26 28  1  0  0  0  0
 23 24  1  0  0  0  0
 23 25  1  0  0  0  0
 20 21  1  0  0  0  0
 20 22  1  0  0  0  0
 20 23  1  0  0  0  0
 17 18  1  0  0  0  0
 17 19  1  0  0  0  0
 17 20  1  0  0  0  0
 14 15  1  0  0  0  0
 14 16  1  0  0  0  0
 14 17  1  0  0  0  0
 11 12  1  0  0  0  0
 11 13  1  0  0  0  0
 11 14  1  0  0  0  0
  9 10  1  0  0  0  0
  9 11  1  0  0  0  0
  9 26  1  0  0  0  0
  7  8  1  0  0  0  0
  7  9  1  0  0  0  0
 30 31  1  0  0  0  0
 30 32  1  0  0  0  0
 30 33  1  0  0  0  0
 28 29  1  0  0  0  0
 28 30  1  0  0  0  0
M  END
$$$$
default_name
  -OEChem-02102213163D

 33 32  0     1  0  0  0  0  0999 V2000
   -3.8420   -3.6918    1.5562 H   0  0  0  0  0  0  0  0  0  0  0  0
   -3.8430   -2.7008    1.1032 C   0  0  0  0  0  0  0  0  0  0  0  0
   -4.5510   -2.0608    1.6242 H   0  0  0  0  0  0  0  0  0  0  0  0
   -4.1140   -2.7798    0.0522 H   0  0  0  0  0  0  0  0  0  0  0  0
   -2.4570   -2.1098    1.2172 C   0  0  0  0  0  0  0  0  0  0  0  0
   -1.5600   -2.7438    1.7572 O   0  0  0  0  0  0  0  0  0  0  0  0
   -2.2870   -0.8898    0.7102 N   0  0  0  0  0  0  0  0  0  0  0  0
   -3.0820   -0.4218    0.2992 H   0  0  0  0  0  0  0  0  0  0  0  0
   -1.0240   -0.1468    0.7262 C   0  0  1  0  0  0  0  0  0  0  0  0
   -0.2680   -0.7367    0.2062 H   0  0  0  0  0  0  0  0  0  0  0  0
   -1.2212    1.1806   -0.0314 C   0  0  0  0  0  0  0  0  0  0  0  0
   -1.7913    1.8615    0.6039 H   0  0  0  0  0  0  0  0  0  0  0  0
   -0.2472    1.6318   -0.2261 H   0  0  0  0  0  0  0  0  0  0  0  0
   -1.9778    1.0166   -1.3588 C   0  0  0  0  0  0  0  0  0  0  0  0
   -3.0382    0.8604   -1.1588 H   0  0  0  0  0  0  0  0  0  0  0  0
   -1.8564    1.9225   -1.9555 H   0  0  0  0  0  0  0  0  0  0  0  0
   -1.4430   -0.1830   -2.1491 C   0  0  0  0  0  0  0  0  0  0  0  0
   -0.3803   -0.0449   -2.3504 H   0  0  0  0  0  0  0  0  0  0  0  0
   -1.5840   -1.0940   -1.5668 H   0  0  0  0  0  0  0  0  0  0  0  0
   -2.1944   -0.3081   -3.4731 C   0  0  0  0  0  0  0  0  0  0  0  0
   -3.2534   -0.4647   -3.2743 H   0  0  0  0  0  0  0  0  0  0  0  0
   -2.0694    0.6078   -4.0483 H   0  0  0  0  0  0  0  0  0  0  0  0
   -1.6903   -1.4348   -4.2668 N   0  0  0  0  0  0  0  0  0  0  0  0
   -2.2170   -1.4960   -5.1257 H   0  0  0  0  0  0  0  0  0  0  0  0
   -0.7156   -1.2790   -4.4813 H   0  0  0  0  0  0  0  0  0  0  0  0
   -0.5564    0.0727    2.1744 C   0  0  0  0  0  0  0  0  0  0  0  0
    0.6169   -0.1288    2.4805 O   0  0  0  0  0  0  0  0  0  0  0  0
   -1.4759    0.4743    3.0595 N   0  0  0  0  0  0  0  0  0  0  0  0
   -2.4132    0.6318    2.7275 H   0  0  0  0  0  0  0  0  0  0  0  0
   -1.1971    0.7118    4.4750 C   0  0  0  0  0  0  0  0  0  0  0  0
   -0.3779    1.4272    4.5748 H   0  0  0  0  0  0  0  0  0  0  0  0
   -2.0826    1.1064    4.9754 H   0  0  0  0  0  0  0  0  0  0  0  0
   -0.8992   -0.2240    4.9525 H   0  0  0  0  0  0  0  0  0  0  0  0
  5  6  2  0  0  0  0
  5  7  1  0  0  0  0
  2  3  1  0  0  0  0
  2  4  1  0  0  0  0
  2  5  1  0  0  0  0
  1  2  1  0  0  0  0
 26 27  2  0  0  0  0
 26 28  1  0  0  0  0
 23 24  1  0  0  0  0
 23 25  1  0  0  0  0
 20 21  1  0  0  0  0
 20 22  1  0  0  0  0
 20 23  1  0  0  0  0
 17 18  1  0  0  0  0
 17 19  1  0  0  0  0
 17 20  1  0  0  0  0
 14 15  1  0  0  0  0
 14 16  1  0  0  0  0
 14 17  1  0  0  0  0
 11 12  1  0  0  0  0
 11 13  1  0  0  0  0
 11 14  1  0  0  0  0
  9 10  1  0  0  0  0
  9 11  1  0  0  0  0
  9 26  1  0  0  0  0
  7  8  1  0  0  0  0
  7  9  1  0  0  0  0
 30 31  1  0  0  0  0
 30 32  1  0  0  0  0
 30 33  1  0  0  0  0
 28 29  1  0  0  0  0
 28 30  1  0  0  0  0
M  END
$$$$
default_name
  -OEChem-02102213163D

 33 32  0     1  0  0  0  0  0999 V2000
   -3.8420   -3.6918    1.5562 H   0  0  0  0  0  0  0  0  0  0  0  0
   -3.8430   -2.7008    1.1032 C   0  0  0  0  0  0  0  0  0  0  0  0
   -4.5510   -2.0608    1.6242 H   0  0  0  0  0  0  0  0  0  0  0  0
   -4.1140   -2.7798    0.0522 H   0  0  0  0  0  0  0  0  0  0  0  0
   -2.4570   -2.1098    1.2172 C   0  0  0  0  0  0  0  0  0  0  0  0
   -1.5600   -2.7438    1.7572 O   0  0  0  0  0  0  0  0  0  0  0  0
   -2.2870   -0.8898    0.7102 N   0  0  0  0  0  0  0  0  0  0  0  0
   -3.0820   -0.4218    0.2992 H   0  0  0  0  0  0  0  0  0  0  0  0
   -1.0240   -0.1468    0.7262 C   0  0  1  0  0  0  0  0  0  0  0  0
   -0.2680   -0.7367    0.2062 H   0  0  0  0  0  0  0  0  0  0  0  0
   -1.2212    1.1806   -0.0314 C   0  0  0  0  0  0  0  0  0  0  0  0
   -1.7913    1.8615    0.6039 H   0  0  0  0  0  0  0  0  0  0  0  0
   -0.2472    1.6318   -0.2261 H   0  0  0  0  0  0  0  0  0  0  0  0
   -1.9778    1.0166   -1.3588 C   0  0  0  0  0  0  0  0  0  0  0  0
   -3.0487    1.1269   -1.1857 H   0  0  0  0  0  0  0  0  0  0  0  0
   -1.6475    1.7871   -2.0578 H   0  0  0  0  0  0  0  0  0  0  0  0
   -1.7168   -0.3644   -1.9706 C   0  0  0  0  0  0  0  0  0  0  0  0
   -0.6477   -0.4929   -2.1426 H   0  0  0  0  0  0  0  0  0  0  0  0
   -2.0670   -1.1374   -1.2860 H   0  0  0  0  0  0  0  0  0  0  0  0
   -2.4596   -0.4916   -3.2992 C   0  0  0  0  0  0  0  0  0  0  0  0
   -3.5291   -0.3820   -3.1273 H   0  0  0  0  0  0  0  0  0  0  0  0
   -2.1239    0.2907   -3.9781 H   0  0  0  0  0  0  0  0  0  0  0  0
   -2.2120   -1.7957   -3.9248 N   0  0  0  0  0  0  0  0  0  0  0  0
   -2.7276   -1.8502   -4.7909 H   0  0  0  0  0  0  0  0  0  0  0  0
   -1.2245   -1.8894   -4.1158 H   0  0  0  0  0  0  0  0  0  0  0  0
   -0.5564    0.0727    2.1744 C   0  0  0  0  0  0  0  0  0  0  0  0
    0.6169   -0.1288    2.4805 O   0  0  0  0  0  0  0  0  0  0  0  0
   -1.4759    0.4743    3.0595 N   0  0  0  0  0  0  0  0  0  0  0  0
   -2.4132    0.6318    2.7275 H   0  0  0  0  0  0  0  0  0  0  0  0
   -1.1971    0.7118    4.4750 C   0  0  0  0  0  0  0  0  0  0  0  0
   -0.3779    1.4272    4.5748 H   0  0  0  0  0  0  0  0  0  0  0  0
   -2.0826    1.1064    4.9754 H   0  0  0  0  0  0  0  0  0  0  0  0
   -0.8992   -0.2240    4.9525 H   0  0  0  0  0  0  0  0  0  0  0  0
  5  6  2  0  0  0  0
  5  7  1  0  0  0  0
  2  3  1  0  0  0  0
  2  4  1  0  0  0  0
  2  5  1  0  0  0  0
  1  2  1  0  0  0  0
 26 27  2  0  0  0  0
 26 28  1  0  0  0  0
 23 24  1  0  0  0  0
 23 25  1  0  0  0  0
 20 21  1  0  0  0  0
 20 22  1  0  0  0  0
 20 23  1  0  0  0  0
 17 18  1  0  0  0  0
 17 19  1  0  0  0  0
 17 20  1  0  0  0  0
 14 15  1  0  0  0  0
 14 16  1  0  0  0  0
 14 17  1  0  0  0  0
 11 12  1  0  0  0  0
 11 13  1  0  0  0  0
 11 14  1  0  0  0  0
  9 10  1  0  0  0  0
  9 11  1  0  0  0  0
  9 26  1  0  0  0  0
  7  8  1  0  0  0  0
  7  9  1  0  0  0  0
 30 31  1  0  0  0  0
 30 32  1  0  0  0  0
 30 33  1  0  0  0  0
 28 29  1  0  0  0  0
 28 30  1  0  0  0  0
M  END
$$$$
default_name
  -OEChem-02102213163D

 33 32  0     1  0  0  0  0  0999 V2000
   -3.8420   -3.6918    1.5562 H   0  0  0  0  0  0  0  0  0  0  0  0
   -3.8430   -2.7008    1.1032 C   0  0  0  0  0  0  0  0  0  0  0  0
   -4.5510   -2.0608    1.6242 H   0  0  0  0  0  0  0  0  0  0  0  0
   -4.1140   -2.7798    0.0522 H   0  0  0  0  0  0  0  0  0  0  0  0
   -2.4570   -2.1098    1.2172 C   0  0  0  0  0  0  0  0  0  0  0  0
   -1.5600   -2.7438    1.7572 O   0  0  0  0  0  0  0  0  0  0  0  0
   -2.2870   -0.8898    0.7102 N   0  0  0  0  0  0  0  0  0  0  0  0
   -3.0820   -0.4218    0.2992 H   0  0  0  0  0  0  0  0  0  0  0  0
   -1.0240   -0.1468    0.7262 C   0  0  1  0  0  0  0  0  0  0  0  0
   -0.2680   -0.7367    0.2062 H   0  0  0  0  0  0  0  0  0  0  0  0
   -1.2212    1.1806   -0.0314 C   0  0  0  0  0  0  0  0  0  0  0  0
   -1.7913    1.8615    0.6039 H   0  0  0  0  0  0  0  0  0  0  0  0
   -0.2472    1.6318   -0.2261 H   0  0  0  0  0  0  0  0  0  0  0  0
   -1.9778    1.0166   -1.3588 C   0  0  0  0  0  0  0  0  0  0  0  0
   -2.9985    1.3833   -1.2460 H   0  0  0  0  0  0  0  0  0  0  0  0
   -1.4732    1.5966   -2.1337 H   0  0  0  0  0  0  0  0  0  0  0  0
   -2.0267   -0.4557   -1.7827 C   0  0  0  0  0  0  0  0  0  0  0  0
   -1.0119   -0.8394   -1.8921 H   0  0  0  0  0  0  0  0  0  0  0  0
   -2.5511   -1.0356   -1.0227 H   0  0  0  0  0  0  0  0  0  0  0  0
   -2.7616   -0.5873   -3.1153 C   0  0  0  0  0  0  0  0  0  0  0  0
   -3.7811   -0.2218   -3.0035 H   0  0  0  0  0  0  0  0  0  0  0  0
   -2.2493    0.0055   -3.8713 H   0  0  0  0  0  0  0  0  0  0  0  0
   -2.8060   -1.9841   -3.5629 N   0  0  0  0  0  0  0  0  0  0  0  0
   -3.3093   -2.0355   -4.4364 H   0  0  0  0  0  0  0  0  0  0  0  0
   -1.8627   -2.3186   -3.6990 H   0  0  0  0  0  0  0  0  0  0  0  0
   -0.5564    0.0727    2.1744 C   0  0  0  0  0  0  0  0  0  0  0  0
    0.6169   -0.1288    2.4805 O   0  0  0  0  0  0  0  0  0  0  0  0
   -1.4759    0.4743    3.0595 N   0  0  0  0  0  0  0  0  0  0  0  0
   -2.4132    0.6318    2.7275 H   0  0  0  0  0  0  0  0  0  0  0  0
   -1.1971    0.7118    4.4750 C   0  0  0  0  0  0  0  0  0  0  0  0
   -0.3779    1.4272    4.5748 H   0  0  0  0  0  0  0  0  0  0  0  0
   -2.0826    1.1064    4.9754 H   0  0  0  0  0  0  0  0  0  0  0  0
   -0.8992   -0.2240    4.9525 H   0  0  0  0  0  0  0  0  0  0  0  0
  5  6  2  0  0  0  0
  5  7  1  0  0  0  0
  2  3  1  0  0  0  0
  2  4  1  0  0  0  0
  2  5  1  0  0  0  0
  1  2  1  0  0  0  0
 26 27  2  0  0  0  0
 26 28  1  0  0  0  0
 23 24  1  0  0  0  0
 23 25  1  0  0  0  0
 20 21  1  0  0  0  0
 20 22  1  0  0  0  0
 20 23  1  0  0  0  0
 17 18  1  0  0  0  0
 17 19  1  0  0  0  0
 17 20  1  0  0  0  0
 14 15  1  0  0  0  0
 14 16  1  0  0  0  0
 14 17  1  0  0  0  0
 11 12  1  0  0  0  0
 11 13  1  0  0  0  0
 11 14  1  0  0  0  0
  9 10  1  0  0  0  0
  9 11  1  0  0  0  0
  9 26  1  0  0  0  0
  7  8  1  0  0  0  0
  7  9  1  0  0  0  0
 30 31  1  0  0  0  0
 30 32  1  0  0  0  0
 30 33  1  0  0  0  0
 28 29  1  0  0  0  0
 28 30  1  0  0  0  0
M  END
$$$$
default_name
  -OEChem-02102213163D

 33 32  0     1  0  0  0  0  0999 V2000
   -3.8420   -3.6918    1.5562 H   0  0  0  0  0  0  0  0  0  0  0  0
   -3.8430   -2.7008    1.1032 C   0  0  0  0  0  0  0  0  0  0  0  0
   -4.5510   -2.0608    1.6242 H   0  0  0  0  0  0  0  0  0  0  0  0
   -4.1140   -2.7798    0.0522 H   0  0  0  0  0  0  0  0  0  0  0  0
   -2.4570   -2.1098    1.2172 C   0  0  0  0  0  0  0  0  0  0  0  0
   -1.5600   -2.7438    1.7572 O   0  0  0  0  0  0  0  0  0  0  0  0
   -2.2870   -0.8898    0.7102 N   0  0  0  0  0  0  0  0  0  0  0  0
   -3.0820   -0.4218    0.2992 H   0  0  0  0  0  0  0  0  0  0  0  0
   -1.0240   -0.1468    0.7262 C   0  0  1  0  0  0  0  0  0  0  0  0
   -0.2680   -0.7367    0.2062 H   0  0  0  0  0  0  0  0  0  0  0  0
   -1.2212    1.1806   -0.0314 C   0  0  0  0  0  0  0  0  0  0  0  0
   -1.7913    1.8615    0.6039 H   0  0  0  0  0  0  0  0  0  0  0  0
   -0.2472    1.6318   -0.2261 H   0  0  0  0  0  0  0  0  0  0  0  0
   -1.9778    1.0166   -1.3588 C   0  0  0  0  0  0  0  0  0  0  0  0
   -2.8910    1.6120   -1.3356 H   0  0  0  0  0  0  0  0  0  0  0  0
   -1.3454    1.3640   -2.1778 H   0  0  0  0  0  0  0  0  0  0  0  0
   -2.3517   -0.4506   -1.5981 C   0  0  0  0  0  0  0  0  0  0  0  0
   -1.4481   -1.0608   -1.6161 H   0  0  0  0  0  0  0  0  0  0  0  0
   -3.0032   -0.7954   -0.7946 H   0  0  0  0  0  0  0  0  0  0  0  0
   -3.0797   -0.5889   -2.9337 C   0  0  0  0  0  0  0  0  0  0  0  0
   -3.9920    0.0050   -2.9113 H   0  0  0  0  0  0  0  0  0  0  0  0
   -2.4372   -0.2284   -3.7353 H   0  0  0  0  0  0  0  0  0  0  0  0
   -3.4319   -1.9872   -3.2057 N   0  0  0  0  0  0  0  0  0  0  0  0
   -3.9223   -2.0393   -4.0865 H   0  0  0  0  0  0  0  0  0  0  0  0
   -2.5865   -2.5374   -3.2593 H   0  0  0  0  0  0  0  0  0  0  0  0
   -0.5564    0.0727    2.1744 C   0  0  0  0  0  0  0  0  0  0  0  0
    0.6169   -0.1288    2.4805 O   0  0  0  0  0  0  0  0  0  0  0  0
   -1.4759    0.4743    3.0595 N   0  0  0  0  0  0  0  0  0  0  0  0
   -2.4132    0.6318    2.7275 H   0  0  0  0  0  0  0  0  0  0  0  0
   -1.1971    0.7118    4.4750 C   0  0  0  0  0  0  0  0  0  0  0  0
   -0.3779    1.4272    4.5748 H   0  0  0  0  0  0  0  0  0  0  0  0
   -2.0826    1.1064    4.9754 H   0  0  0  0  0  0  0  0  0  0  0  0
   -0.8992   -0.2240    4.9525 H   0  0  0  0  0  0  0  0  0  0  0  0
  5  6  2  0  0  0  0
  5  7  1  0  0  0  0
  2  3  1  0  0  0  0
  2  4  1  0  0  0  0
  2  5  1  0  0  0  0
  1  2  1  0  0  0  0
 26 27  2  0  0  0  0
 26 28  1  0  0  0  0
 23 24  1  0  0  0  0
 23 25  1  0  0  0  0
 20 21  1  0  0  0  0
 20 22  1  0  0  0  0
 20 23  1  0  0  0  0
 17 18  1  0  0  0  0
 17 19  1  0  0  0  0
 17 20  1  0  0  0  0
 14 15  1  0  0  0  0
 14 16  1  0  0  0  0
 14 17  1  0  0  0  0
 11 12  1  0  0  0  0
 11 13  1  0  0  0  0
 11 14  1  0  0  0  0
  9 10  1  0  0  0  0
  9 11  1  0  0  0  0
  9 26  1  0  0  0  0
  7  8  1  0  0  0  0
  7  9  1  0  0  0  0
 30 31  1  0  0  0  0
 30 32  1  0  0  0  0
 30 33  1  0  0  0  0
 28 29  1  0  0  0  0
 28 30  1  0  0  0  0
M  END
$$$$
default_name
  -OEChem-02102213163D

 33 32  0     1  0  0  0  0  0999 V2000
   -3.8420   -3.6918    1.5562 H   0  0  0  0  0  0  0  0  0  0  0  0
   -3.8430   -2.7008    1.1032 C   0  0  0  0  0  0  0  0  0  0  0  0
   -4.5510   -2.0608    1.6242 H   0  0  0  0  0  0  0  0  0  0  0  0
   -4.1140   -2.7798    0.0522 H   0  0  0  0  0  0  0  0  0  0  0  0
   -2.4570   -2.1098    1.2172 C   0  0  0  0  0  0  0  0  0  0  0  0
   -1.5600   -2.7438    1.7572 O   0  0  0  0  0  0  0  0  0  0  0  0
   -2.2870   -0.8898    0.7102 N   0  0  0  0  0  0  0  0  0  0  0  0
   -3.0820   -0.4218    0.2992 H   0  0  0  0  0  0  0  0  0  0  0  0
   -1.0240   -0.1468    0.7262 C   0  0  1  0  0  0  0  0  0  0  0  0
   -0.2680   -0.7367    0.2062 H   0  0  0  0  0  0  0  0  0  0  0  0
   -1.2212    1.1806   -0.0314 C   0  0  0  0  0  0  0  0  0  0  0  0
   -1.7913    1.8615    0.6039 H   0  0  0  0  0  0  0  0  0  0  0  0
   -0.2472    1.6318   -0.2261 H   0  0  0  0  0  0  0  0  0  0  0  0
   -1.9778    1.0166   -1.3588 C   0  0  0  0  0  0  0  0  0  0  0  0
   -2.7335    1.7975   -1.4482 H   0  0  0  0  0  0  0  0  0  0  0  0
   -1.2727    1.1051   -2.1873 H   0  0  0  0  0  0  0  0  0  0  0  0
   -2.6695   -0.3495   -1.4294 C   0  0  0  0  0  0  0  0  0  0  0  0
   -1.9266   -1.1418   -1.3334 H   0  0  0  0  0  0  0  0  0  0  0  0
   -3.3925   -0.4333   -0.6174 H   0  0  0  0  0  0  0  0  0  0  0  0
   -3.3924   -0.4961   -2.7669 C   0  0  0  0  0  0  0  0  0  0  0  0
   -4.1476    0.2831   -2.8569 H   0  0  0  0  0  0  0  0  0  0  0  0
   -2.6747   -0.3949   -3.5793 H   0  0  0  0  0  0  0  0  0  0  0  0
   -4.0471   -1.8047   -2.8776 N   0  0  0  0  0  0  0  0  0  0  0  0
   -4.5250   -1.8613   -3.7649 H   0  0  0  0  0  0  0  0  0  0  0  0
   -3.3468   -2.5309   -2.8267 H   0  0  0  0  0  0  0  0  0  0  0  0
   -0.5564    0.0727    2.1744 C   0  0  0  0  0  0  0  0  0  0  0  0
    0.6169   -0.1288    2.4805 O   0  0  0  0  0  0  0  0  0  0  0  0
   -1.4759    0.4743    3.0595 N   0  0  0  0  0  0  0  0  0  0  0  0
   -2.4132    0.6318    2.7275 H   0  0  0  0  0  0  0  0  0  0  0  0
   -1.1971    0.7118    4.4750 C   0  0  0  0  0  0  0  0  0  0  0  0
   -0.3779    1.4272    4.5748 H   0  0  0  0  0  0  0  0  0  0  0  0
   -2.0826    1.1064    4.9754 H   0  0  0  0  0  0  0  0  0  0  0  0
   -0.8992   -0.2240    4.9525 H   0  0  0  0  0  0  0  0  0  0  0  0
  5  6  2  0  0  0  0
  5  7  1  0  0  0  0
  2  3  1  0  0  0  0
  2  4  1  0  0  0  0
  2  5  1  0  0  0  0
  1  2  1  0  0  0  0
 26 27  2  0  0  0  0
 26 28  1  0  0  0  0
 23 24  1  0  0  0  0
 23 25  1  0  0  0  0
 20 21  1  0  0  0  0
 20 22  1  0  0  0  0
 20 23  1  0  0  0  0
 17 18  1  0  0  0  0
 17 19  1  0  0  0  0
 17 20  1  0  0  0  0
 14 15  1  0  0  0  0
 14 16  1  0  0  0  0
 14 17  1  0  0  0  0
 11 12  1  0  0  0  0
 11 13  1  0  0  0  0
 11 14  1  0  0  0  0
  9 10  1  0  0  0  0
  9 11  1  0  0  0  0
  9 26  1  0  0  0  0
  7  8  1  0  0  0  0
  7  9  1  0  0  0  0
 30 31  1  0  0  0  0
 30 32  1  0  0  0  0
 30 33  1  0  0  0  0
 28 29  1  0  0  0  0
 28 30  1  0  0  0  0
M  END
$$$$
default_name
  -OEChem-02102213163D

 33 32  0     1  0  0  0  0  0999 V2000
   -3.8420   -3.6918    1.5562 H   0  0  0  0  0  0  0  0  0  0  0  0
   -3.8430   -2.7008    1.1032 C   0  0  0  0  0  0  0  0  0  0  0  0
   -4.5510   -2.0608    1.6242 H   0  0  0  0  0  0  0  0  0  0  0  0
   -4.1140   -2.7798    0.0522 H   0  0  0  0  0  0  0  0  0  0  0  0
   -2.4570   -2.1098    1.2172 C   0  0  0  0  0  0  0  0  0  0  0  0
   -1.5600   -2.7438    1.7572 O   0  0  0  0  0  0  0  0  0  0  0  0
   -2.2870   -0.8898    0.7102 N   0  0  0  0  0  0  0  0  0  0  0  0
   -3.0820   -0.4218    0.2992 H   0  0  0  0  0  0  0  0  0  0  0  0
   -1.0240   -0.1468    0.7262 C   0  0  1  0  0  0  0  0  0  0  0  0
   -0.2680   -0.7367    0.2062 H   0  0  0  0  0  0  0  0  0  0  0  0
   -1.2212    1.1806   -0.0314 C   0  0  0  0  0  0  0  0  0  0  0  0
   -1.7913    1.8615    0.6039 H   0  0  0  0  0  0  0  0  0  0  0  0
   -0.2472    1.6318   -0.2261 H   0  0  0  0  0  0  0  0  0  0  0  0
   -1.9778    1.0166   -1.3588 C   0  0  0  0  0  0  0  0  0  0  0  0
   -2.5369    1.9271   -1.5763 H   0  0  0  0  0  0  0  0  0  0  0  0
   -1.2601    0.8375   -2.1614 H   0  0  0  0  0  0  0  0  0  0  0  0
   -2.9586   -0.1593   -1.2881 C   0  0  0  0  0  0  0  0  0  0  0  0
   -2.4147   -1.0772   -1.0631 H   0  0  0  0  0  0  0  0  0  0  0  0
   -3.6925    0.0261   -0.5032 H   0  0  0  0  0  0  0  0  0  0  0  0
   -3.6783   -0.3153   -2.6263 C   0  0  0  0  0  0  0  0  0  0  0  0
   -4.2373    0.5934   -2.8442 H   0  0  0  0  0  0  0  0  0  0  0  0
   -2.9457   -0.4828   -3.4140 H   0  0  0  0  0  0  0  0  0  0  0  0
   -4.6096   -1.4491   -2.6009 N   0  0  0  0  0  0  0  0  0  0  0  0
   -5.0763   -1.5137   -3.4936 H   0  0  0  0  0  0  0  0  0  0  0  0
   -4.0917   -2.2994   -2.4307 H   0  0  0  0  0  0  0  0  0  0  0  0
   -0.5564    0.0727    2.1744 C   0  0  0  0  0  0  0  0  0  0  0  0
    0.6169   -0.1288    2.4805 O   0  0  0  0  0  0  0  0  0  0  0  0
   -1.4759    0.4743    3.0595 N   0  0  0  0  0  0  0  0  0  0  0  0
   -2.4132    0.6318    2.7275 H   0  0  0  0  0  0  0  0  0  0  0  0
   -1.1971    0.7118    4.4750 C   0  0  0  0  0  0  0  0  0  0  0  0
   -0.3779    1.4272    4.5748 H   0  0  0  0  0  0  0  0  0  0  0  0
   -2.0826    1.1064    4.9754 H   0  0  0  0  0  0  0  0  0  0  0  0
   -0.8992   -0.2240    4.9525 H   0  0  0  0  0  0  0  0  0  0  0  0
  5  6  2  0  0  0  0
  5  7  1  0  0  0  0
  2  3  1  0  0  0  0
  2  4  1  0  0  0  0
  2  5  1  0  0  0  0
  1  2  1  0  0  0  0
 26 27  2  0  0  0  0
 26 28  1  0  0  0  0
 23 24  1  0  0  0  0
 23 25  1  0  0  0  0
 20 21  1  0  0  0  0
 20 22  1  0  0  0  0
 20 23  1  0  0  0  0
 17 18  1  0  0  0  0
 17 19  1  0  0  0  0
 17 20  1  0  0  0  0
 14 15  1  0  0  0  0
 14 16  1  0  0  0  0
 14 17  1  0  0  0  0
 11 12  1  0  0  0  0
 11 13  1  0  0  0  0
 11 14  1  0  0  0  0
  9 10  1  0  0  0  0
  9 11  1  0  0  0  0
  9 26  1  0  0  0  0
  7  8  1  0  0  0  0
  7  9  1  0  0  0  0
 30 31  1  0  0  0  0
 30 32  1  0  0  0  0
 30 33  1  0  0  0  0
 28 29  1  0  0  0  0
 28 30  1  0  0  0  0
M  END
$$$$
default_name
  -OEChem-02102213163D

 33 32  0     1  0  0  0  0  0999 V2000
   -3.8420   -3.6918    1.5562 H   0  0  0  0  0  0  0  0  0  0  0  0
   -3.8430   -2.7008    1.1032 C   0  0  0  0  0  0  0  0  0  0  0  0
   -4.5510   -2.0608    1.6242 H   0  0  0  0  0  0  0  0  0  0  0  0
   -4.1140   -2.7798    0.0522 H   0  0  0  0  0  0  0  0  0  0  0  0
   -2.4570   -2.1098    1.2172 C   0  0  0  0  0  0  0  0  0  0  0  0
   -1.5600   -2.7438    1.7572 O   0  0  0  0  0  0  0  0  0  0  0  0
   -2.2870   -0.8898    0.7102 N   0  0  0  0  0  0  0  0  0  0  0  0
   -3.0820   -0.4218    0.2992 H   0  0  0  0  0  0  0  0  0  0  0  0
   -1.0240   -0.1468    0.7262 C   0  0  1  0  0  0  0  0  0  0  0  0
   -0.2680   -0.7367    0.2062 H   0  0  0  0  0  0  0  0  0  0  0  0
   -1.2212    1.1806   -0.0314 C   0  0  0  0  0  0  0  0  0  0  0  0
   -1.7913    1.8615    0.6039 H   0  0  0  0  0  0  0  0  0  0  0  0
   -0.2472    1.6318   -0.2261 H   0  0  0  0  0  0  0  0  0  0  0  0
   -1.9778    1.0166   -1.3588 C   0  0  0  0  0  0  0  0  0  0  0  0
   -2.3144    1.9920   -1.7112 H   0  0  0  0  0  0  0  0  0  0  0  0
   -1.3084    0.5796   -2.1020 H   0  0  0  0  0  0  0  0  0  0  0  0
   -3.1992    0.1071   -1.1838 C   0  0  0  0  0  0  0  0  0  0  0  0
   -2.8792   -0.8712   -0.8238 H   0  0  0  0  0  0  0  0  0  0  0  0
   -3.8827    0.5515   -0.4597 H   0  0  0  0  0  0  0  0  0  0  0  0
   -3.9179   -0.0588   -2.5214 C   0  0  0  0  0  0  0  0  0  0  0  0
   -4.2548    0.9147   -2.8739 H   0  0  0  0  0  0  0  0  0  0  0  0
   -3.2316   -0.4860   -3.2506 H   0  0  0  0  0  0  0  0  0  0  0  0
   -5.0810   -0.9445   -2.3945 N   0  0  0  0  0  0  0  0  0  0  0  0
   -5.5385   -1.0201   -3.2911 H   0  0  0  0  0  0  0  0  0  0  0  0
   -4.7703   -1.8589   -2.0983 H   0  0  0  0  0  0  0  0  0  0  0  0
   -0.5564    0.0727    2.1744 C   0  0  0  0  0  0  0  0  0  0  0  0
    0.6169   -0.1288    2.4805 O   0  0  0  0  0  0  0  0  0  0  0  0
   -1.4759    0.4743    3.0595 N   0  0  0  0  0  0  0  0  0  0  0  0
   -2.4132    0.6318    2.7275 H   0  0  0  0  0  0  0  0  0  0  0  0
   -1.1971    0.7118    4.4750 C   0  0  0  0  0  0  0  0  0  0  0  0
   -0.3779    1.4272    4.5748 H   0  0  0  0  0  0  0  0  0  0  0  0
   -2.0826    1.1064    4.9754 H   0  0  0  0  0  0  0  0  0  0  0  0
   -0.8992   -0.2240    4.9525 H   0  0  0  0  0  0  0  0  0  0  0  0
  5  6  2  0  0  0  0
  5  7  1  0  0  0  0
  2  3  1  0  0  0  0
  2  4  1  0  0  0  0
  2  5  1  0  0  0  0
  1  2  1  0  0  0  0
 26 27  2  0  0  0  0
 26 28  1  0  0  0  0
 23 24  1  0  0  0  0
 23 25  1  0  0  0  0
 20 21  1  0  0  0  0
 20 22  1  0  0  0  0
 20 23  1  0  0  0  0
 17 18  1  0  0  0  0
 17 19  1  0  0  0  0
 17 20  1  0  0  0  0
 14 15  1  0  0  0  0
 14 16  1  0  0  0  0
 14 17  1  0  0  0  0
 11 12  1  0  0  0  0
 11 13  1  0  0  0  0
 11 14  1  0  0  0  0
  9 10  1  0  0  0  0
  9 11  1  0  0  0  0
  9 26  1  0  0  0  0
  7  8  1  0  0  0  0
  7  9  1  0  0  0  0
 30 31  1  0  0  0  0
 30 32  1  0  0  0  0
 30 33  1  0  0  0  0
 28 29  1  0  0  0  0
 28 30  1  0  0  0  0
M  END
$$$$
default_name
  -OEChem-02102213163D

 33 32  0     1  0  0  0  0  0999 V2000
   -3.8420   -3.6918    1.5562 H   0  0  0  0  0  0  0  0  0  0  0  0
   -3.8430   -2.7008    1.1032 C   0  0  0  0  0  0  0  0  0  0  0  0
   -4.5510   -2.0608    1.6242 H   0  0  0  0  0  0  0  0  0  0  0  0
   -4.1140   -2.7798    0.0522 H   0  0  0  0  0  0  0  0  0  0  0  0
   -2.4570   -2.1098    1.2172 C   0  0  0  0  0  0  0  0  0  0  0  0
   -1.5600   -2.7438    1.7572 O   0  0  0  0  0  0  0  0  0  0  0  0
   -2.2870   -0.8898    0.7102 N   0  0  0  0  0  0  0  0  0  0  0  0
   -3.0820   -0.4218    0.2992 H   0  0  0  0  0  0  0  0  0  0  0  0
   -1.0240   -0.1468    0.7262 C   0  0  1  0  0  0  0  0  0  0  0  0
   -0.2680   -0.7367    0.2062 H   0  0  0  0  0  0  0  0  0  0  0  0
   -1.2212    1.1806   -0.0314 C   0  0  0  0  0  0  0  0  0  0  0  0
   -1.7913    1.8615    0.6039 H   0  0  0  0  0  0  0  0  0  0  0  0
   -0.2472    1.6318   -0.2261 H   0  0  0  0  0  0  0  0  0  0  0  0
   -1.9778    1.0166   -1.3588 C   0  0  0  0  0  0  0  0  0  0  0  0
   -2.0813    1.9878   -1.8436 H   0  0  0  0  0  0  0  0  0  0  0  0
   -1.4144    0.3488   -2.0130 H   0  0  0  0  0  0  0  0  0  0  0  0
   -3.3750    0.4315   -1.1237 C   0  0  0  0  0  0  0  0  0  0  0  0
   -3.2883   -0.5378   -0.6317 H   0  0  0  0  0  0  0  0  0  0  0  0
   -3.9502    1.1070   -0.4899 H   0  0  0  0  0  0  0  0  0  0  0  0
   -4.0950    0.2559   -2.4593 C   0  0  0  0  0  0  0  0  0  0  0  0
   -4.1991    1.2253   -2.9440 H   0  0  0  0  0  0  0  0  0  0  0  0
   -3.5130   -0.4044   -3.1003 H   0  0  0  0  0  0  0  0  0  0  0  0
   -5.4292   -0.3255   -2.2724 N   0  0  0  0  0  0  0  0  0  0  0  0
   -5.8802   -0.4141   -3.1712 H   0  0  0  0  0  0  0  0  0  0  0  0
   -5.3366   -1.2393   -1.8520 H   0  0  0  0  0  0  0  0  0  0  0  0
   -0.5564    0.0727    2.1744 C   0  0  0  0  0  0  0  0  0  0  0  0
    0.6169   -0.1288    2.4805 O   0  0  0  0  0  0  0  0  0  0  0  0
   -1.4759    0.4743    3.0595 N   0  0  0  0  0  0  0  0  0  0  0  0
   -2.4132    0.6318    2.7275 H   0  0  0  0  0  0  0  0  0  0  0  0
   -1.1971    0.7118    4.4750 C   0  0  0  0  0  0  0  0  0  0  0  0
   -0.3779    1.4272    4.5748 H   0  0  0  0  0  0  0  0  0  0  0  0
   -2.0826    1.1064    4.9754 H   0  0  0  0  0  0  0  0  0  0  0  0
   -0.8992   -0.2240    4.9525 H   0  0  0  0  0  0  0  0  0  0  0  0
  5  6  2  0  0  0  0
  5  7  1  0  0  0  0
  2  3  1  0  0  0  0
  2  4  1  0  0  0  0
  2  5  1  0  0  0  0
  1  2  1  0  0  0  0
 26 27  2  0  0  0  0
 26 28  1  0  0  0  0
 23 24  1  0  0  0  0
 23 25  1  0  0  0  0
 20 21  1  0  0  0  0
 20 22  1  0  0  0  0
 20 23  1  0  0  0  0
 17 18  1  0  0  0  0
 17 19  1  0  0  0  0
 17 20  1  0  0  0  0
 14 15  1  0  0  0  0
 14 16  1  0  0  0  0
 14 17  1  0  0  0  0
 11 12  1  0  0  0  0
 11 13  1  0  0  0  0
 11 14  1  0  0  0  0
  9 10  1  0  0  0  0
  9 11  1  0  0  0  0
  9 26  1  0  0  0  0
  7  8  1  0  0  0  0
  7  9  1  0  0  0  0
 30 31  1  0  0  0  0
 30 32  1  0  0  0  0
 30 33  1  0  0  0  0
 28 29  1  0  0  0  0
 28 30  1  0  0  0  0
M  END
$$$$
default_name
  -OEChem-02102213163D

 33 32  0     1  0  0  0  0  0999 V2000
   -3.8420   -3.6918    1.5562 H   0  0  0  0  0  0  0  0  0  0  0  0
   -3.8430   -2.7008    1.1032 C   0  0  0  0  0  0  0  0  0  0  0  0
   -4.5510   -2.0608    1.6242 H   0  0  0  0  0  0  0  0  0  0  0  0
   -4.1140   -2.7798    0.0522 H   0  0  0  0  0  0  0  0  0  0  0  0
   -2.4570   -2.1098    1.2172 C   0  0  0  0  0  0  0  0  0  0  0  0
   -1.5600   -2.7438    1.7572 O   0  0  0  0  0  0  0  0  0  0  0  0
   -2.2870   -0.8898    0.7102 N   0  0  0  0  0  0  0  0  0  0  0  0
   -3.0820   -0.4218    0.2992 H   0  0  0  0  0  0  0  0  0  0  0  0
   -1.0240   -0.1468    0.7262 C   0  0  1  0  0  0  0  0  0  0  0  0
   -0.2680   -0.7367    0.2062 H   0  0  0  0  0  0  0  0  0  0  0  0
   -1.2212    1.1806   -0.0314 C   0  0  0  0  0  0  0  0  0  0  0  0
   -1.7913    1.8615    0.6039 H   0  0  0  0  0  0  0  0  0  0  0  0
   -0.2472    1.6318   -0.2261 H   0  0  0  0  0  0  0  0  0  0  0  0
   -1.9778    1.0166   -1.3588 C   0  0  0  0  0  0  0  0  0  0  0  0
   -1.8534    1.9147   -1.9644 H   0  0  0  0  0  0  0  0  0  0  0  0
   -1.5709    0.1609   -1.9006 H   0  0  0  0  0  0  0  0  0  0  0  0
   -3.4739    0.7917   -1.1118 C   0  0  0  0  0  0  0  0  0  0  0  0
   -3.6144   -0.0999   -0.5000 H   0  0  0  0  0  0  0  0  0  0  0  0
   -3.8903    1.6548   -0.5917 H   0  0  0  0  0  0  0  0  0  0  0  0
   -4.1973    0.6073   -2.4444 C   0  0  0  0  0  0  0  0  0  0  0  0
   -4.0740    1.5039   -3.0498 H   0  0  0  0  0  0  0  0  0  0  0  0
   -3.7708   -0.2434   -2.9732 H   0  0  0  0  0  0  0  0  0  0  0  0
   -5.6306    0.3658   -2.2430 N   0  0  0  0  0  0  0  0  0  0  0  0
   -6.0781    0.2629   -3.1420 H   0  0  0  0  0  0  0  0  0  0  0  0
   -5.7518   -0.4828   -1.7088 H   0  0  0  0  0  0  0  0  0  0  0  0
   -0.5564    0.0727    2.1744 C   0  0  0  0  0  0  0  0  0  0  0  0
    0.6169   -0.1288    2.4805 O   0  0  0  0  0  0  0  0  0  0  0  0
   -1.4759    0.4743    3.0595 N   0  0  0  0  0  0  0  0  0  0  0  0
   -2.4132    0.6318    2.7275 H   0  0  0  0  0  0  0  0  0  0  0  0
   -1.1971    0.7118    4.4750 C   0  0  0  0  0  0  0  0  0  0  0  0
   -0.3779    1.4272    4.5748 H   0  0  0  0  0  0  0  0  0  0  0  0
   -2.0826    1.1064    4.9754 H   0  0  0  0  0  0  0  0  0  0  0  0
   -0.8992   -0.2240    4.9525 H   0  0  0  0  0  0  0  0  0  0  0  0
  5  6  2  0  0  0  0
  5  7  1  0  0  0  0
  2  3  1  0  0  0  0
  2  4  1  0  0  0  0
  2  5  1  0  0  0  0
  1  2  1  0  0  0  0
 26 27  2  0  0  0  0
 26 28  1  0  0  0  0
 23 24  1  0  0  0  0
 23 25  1  0  0  0  0
 20 21  1  0  0  0  0
 20 22  1  0  0  0  0
 20 23  1  0  0  0  0
 17 18  1  0  0  0  0
 17 19  1  0  0  0  0
 17 20  1  0  0  0  0
 14 15  1  0  0  0  0
 14 16  1  0  0  0  0
 14 17  1  0  0  0  0
 11 12  1  0  0  0  0
 11 13  1  0  0  0  0
 11 14  1  0  0  0  0
  9 10  1  0  0  0  0
  9 11  1  0  0  0  0
  9 26  1  0  0  0  0
  7  8  1  0  0  0  0
  7  9  1  0  0  0  0
 30 31  1  0  0  0  0
 30 32  1  0  0  0  0
 30 33  1  0  0  0  0
 28 29  1  0  0  0  0
 28 30  1  0  0  0  0
M  END
$$$$
default_name
  -OEChem-02102213163D

 33 32  0     1  0  0  0  0  0999 V2000
   -3.8420   -3.6918    1.5562 H   0  0  0  0  0  0  0  0  0  0  0  0
   -3.8430   -2.7008    1.1032 C   0  0  0  0  0  0  0  0  0  0  0  0
   -4.5510   -2.0608    1.6242 H   0  0  0  0  0  0  0  0  0  0  0  0
   -4.1140   -2.7798    0.0522 H   0  0  0  0  0  0  0  0  0  0  0  0
   -2.4570   -2.1098    1.2172 C   0  0  0  0  0  0  0  0  0  0  0  0
   -1.5600   -2.7438    1.7572 O   0  0  0  0  0  0  0  0  0  0  0  0
   -2.2870   -0.8898    0.7102 N   0  0  0  0  0  0  0  0  0  0  0  0
   -3.0820   -0.4218    0.2992 H   0  0  0  0  0  0  0  0  0  0  0  0
   -1.0240   -0.1468    0.7262 C   0  0  1  0  0  0  0  0  0  0  0  0
   -0.2680   -0.7367    0.2062 H   0  0  0  0  0  0  0  0  0  0  0  0
   -1.2212    1.1806   -0.0314 C   0  0  0  0  0  0  0  0  0  0  0  0
   -1.7913    1.8615    0.6039 H   0  0  0  0  0  0  0  0  0  0  0  0
   -0.2472    1.6318   -0.2261 H   0  0  0  0  0  0  0  0  0  0  0  0
   -1.9778    1.0166   -1.3588 C   0  0  0  0  0  0  0  0  0  0  0  0
   -1.6463    1.7778   -2.0656 H   0  0  0  0  0  0  0  0  0  0  0  0
   -1.7671    0.0287   -1.7724 H   0  0  0  0  0  0  0  0  0  0  0  0
   -3.4892    1.1633   -1.1490 C   0  0  0  0  0  0  0  0  0  0  0  0
   -3.8350    0.4128   -0.4376 H   0  0  0  0  0  0  0  0  0  0  0  0
   -3.7072    2.1577   -0.7582 H   0  0  0  0  0  0  0  0  0  0  0  0
   -4.2180    0.9716   -2.4776 C   0  0  0  0  0  0  0  0  0  0  0  0
   -3.8878    1.7316   -3.1840 H   0  0  0  0  0  0  0  0  0  0  0  0
   -3.9873   -0.0142   -2.8782 H   0  0  0  0  0  0  0  0  0  0  0  0
   -5.6714    1.0824   -2.3083 N   0  0  0  0  0  0  0  0  0  0  0  0
   -6.1187    0.9647   -3.2056 H   0  0  0  0  0  0  0  0  0  0  0  0
   -5.9877    0.3589   -1.6783 H   0  0  0  0  0  0  0  0  0  0  0  0
   -0.5564    0.0727    2.1744 C   0  0  0  0  0  0  0  0  0  0  0  0
    0.6169   -0.1288    2.4805 O   0  0  0  0  0  0  0  0  0  0  0  0
   -1.4759    0.4743    3.0595 N   0  0  0  0  0  0  0  0  0  0  0  0
   -2.4132    0.6318    2.7275 H   0  0  0  0  0  0  0  0  0  0  0  0
   -1.1971    0.7118    4.4750 C   0  0  0  0  0  0  0  0  0  0  0  0
   -0.3779    1.4272    4.5748 H   0  0  0  0  0  0  0  0  0  0  0  0
   -2.0826    1.1064    4.9754 H   0  0  0  0  0  0  0  0  0  0  0  0
   -0.8992   -0.2240    4.9525 H   0  0  0  0  0  0  0  0  0  0  0  0
  5  6  2  0  0  0  0
  5  7  1  0  0  0  0
  2  3  1  0  0  0  0
  2  4  1  0  0  0  0
  2  5  1  0  0  0  0
  1  2  1  0  0  0  0
 26 27  2  0  0  0  0
 26 28  1  0  0  0  0
 23 24  1  0  0  0  0
 23 25  1  0  0  0  0
 20 21  1  0  0  0  0
 20 22  1  0  0  0  0
 20 23  1  0  0  0  0
 17 18  1  0  0  0  0
 17 19  1  0  0  0  0
 17 20  1  0  0  0  0
 14 15  1  0  0  0  0
 14 16  1  0  0  0  0
 14 17  1  0  0  0  0
 11 12  1  0  0  0  0
 11 13  1  0  0  0  0
 11 14  1  0  0  0  0
  9 10  1  0  0  0  0
  9 11  1  0  0  0  0
  9 26  1  0  0  0  0
  7  8  1  0  0  0  0
  7  9  1  0  0  0  0
 30 31  1  0  0  0  0
 30 32  1  0  0  0  0
 30 33  1  0  0  0  0
 28 29  1  0  0  0  0
 28 30  1  0  0  0  0
M  END
$$$$
default_name
  -OEChem-02102213163D

 33 32  0     1  0  0  0  0  0999 V2000
   -3.8420   -3.6918    1.5562 H   0  0  0  0  0  0  0  0  0  0  0  0
   -3.8430   -2.7008    1.1032 C   0  0  0  0  0  0  0  0  0  0  0  0
   -4.5510   -2.0608    1.6242 H   0  0  0  0  0  0  0  0  0  0  0  0
   -4.1140   -2.7798    0.0522 H   0  0  0  0  0  0  0  0  0  0  0  0
   -2.4570   -2.1098    1.2172 C   0  0  0  0  0  0  0  0  0  0  0  0
   -1.5600   -2.7438    1.7572 O   0  0  0  0  0  0  0  0  0  0  0  0
   -2.2870   -0.8898    0.7102 N   0  0  0  0  0  0  0  0  0  0  0  0
   -3.0820   -0.4218    0.2992 H   0  0  0  0  0  0  0  0  0  0  0  0
   -1.0240   -0.1468    0.7262 C   0  0  1  0  0  0  0  0  0  0  0  0
   -0.2680   -0.7367    0.2062 H   0  0  0  0  0  0  0  0  0  0  0  0
   -1.2212    1.1806   -0.0314 C   0  0  0  0  0  0  0  0  0  0  0  0
   -1.7913    1.8615    0.6039 H   0  0  0  0  0  0  0  0  0  0  0  0
   -0.2472    1.6318   -0.2261 H   0  0  0  0  0  0  0  0  0  0  0  0
   -1.9778    1.0166   -1.3588 C   0  0  0  0  0  0  0  0  0  0  0  0
   -1.4740    1.5863   -2.1401 H   0  0  0  0  0  0  0  0  0  0  0  0
   -1.9898   -0.0387   -1.6372 H   0  0  0  0  0  0  0  0  0  0  0  0
   -3.4199    1.5210   -1.2327 C   0  0  0  0  0  0  0  0  0  0  0  0
   -3.9352    0.9653   -0.4487 H   0  0  0  0  0  0  0  0  0  0  0  0
   -3.4133    2.5812   -0.9780 H   0  0  0  0  0  0  0  0  0  0  0  0
   -4.1556    1.3238   -2.5567 C   0  0  0  0  0  0  0  0  0  0  0  0
   -3.6535    1.8927   -3.3375 H   0  0  0  0  0  0  0  0  0  0  0  0
   -4.1478    0.2678   -2.8215 H   0  0  0  0  0  0  0  0  0  0  0  0
   -5.5488    1.7753   -2.4638 N   0  0  0  0  0  0  0  0  0  0  0  0
   -5.9993    1.6437   -3.3575 H   0  0  0  0  0  0  0  0  0  0  0  0
   -6.0282    1.2287   -1.7627 H   0  0  0  0  0  0  0  0  0  0  0  0
   -0.5564    0.0727    2.1744 C   0  0  0  0  0  0  0  0  0  0  0  0
    0.6169   -0.1288    2.4805 O   0  0  0  0  0  0  0  0  0  0  0  0
   -1.4759    0.4743    3.0595 N   0  0  0  0  0  0  0  0  0  0  0  0
   -2.4132    0.6318    2.7275 H   0  0  0  0  0  0  0  0  0  0  0  0
   -1.1971    0.7118    4.4750 C   0  0  0  0  0  0  0  0  0  0  0  0
   -0.3779    1.4272    4.5748 H   0  0  0  0  0  0  0  0  0  0  0  0
   -2.0826    1.1064    4.9754 H   0  0  0  0  0  0  0  0  0  0  0  0
   -0.8992   -0.2240    4.9525 H   0  0  0  0  0  0  0  0  0  0  0  0
  5  6  2  0  0  0  0
  5  7  1  0  0  0  0
  2  3  1  0  0  0  0
  2  4  1  0  0  0  0
  2  5  1  0  0  0  0
  1  2  1  0  0  0  0
 26 27  2  0  0  0  0
 26 28  1  0  0  0  0
 23 24  1  0  0  0  0
 23 25  1  0  0  0  0
 20 21  1  0  0  0  0
 20 22  1  0  0  0  0
 20 23  1  0  0  0  0
 17 18  1  0  0  0  0
 17 19  1  0  0  0  0
 17 20  1  0  0  0  0
 14 15  1  0  0  0  0
 14 16  1  0  0  0  0
 14 17  1  0  0  0  0
 11 12  1  0  0  0  0
 11 13  1  0  0  0  0
 11 14  1  0  0  0  0
  9 10  1  0  0  0  0
  9 11  1  0  0  0  0
  9 26  1  0  0  0  0
  7  8  1  0  0  0  0
  7  9  1  0  0  0  0
 30 31  1  0  0  0  0
 30 32  1  0  0  0  0
 30 33  1  0  0  0  0
 28 29  1  0  0  0  0
 28 30  1  0  0  0  0
M  END
$$$$
default_name
  -OEChem-02102213163D

 33 32  0     1  0  0  0  0  0999 V2000
   -3.8420   -3.6918    1.5562 H   0  0  0  0  0  0  0  0  0  0  0  0
   -3.8430   -2.7008    1.1032 C   0  0  0  0  0  0  0  0  0  0  0  0
   -4.5510   -2.0608    1.6242 H   0  0  0  0  0  0  0  0  0  0  0  0
   -4.1140   -2.7798    0.0522 H   0  0  0  0  0  0  0  0  0  0  0  0
   -2.4570   -2.1098    1.2172 C   0  0  0  0  0  0  0  0  0  0  0  0
   -1.5600   -2.7438    1.7572 O   0  0  0  0  0  0  0  0  0  0  0  0
   -2.2870   -0.8898    0.7102 N   0  0  0  0  0  0  0  0  0  0  0  0
   -3.0820   -0.4218    0.2992 H   0  0  0  0  0  0  0  0  0  0  0  0
   -1.0240   -0.1468    0.7262 C   0  0  1  0  0  0  0  0  0  0  0  0
   -0.2680   -0.7367    0.2062 H   0  0  0  0  0  0  0  0  0  0  0  0
   -1.2212    1.1806   -0.0314 C   0  0  0  0  0  0  0  0  0  0  0  0
   -1.7913    1.8615    0.6039 H   0  0  0  0  0  0  0  0  0  0  0  0
   -0.2472    1.6318   -0.2261 H   0  0  0  0  0  0  0  0  0  0  0  0
   -1.9778    1.0166   -1.3588 C   0  0  0  0  0  0  0  0  0  0  0  0
   -1.3484    1.3533   -2.1830 H   0  0  0  0  0  0  0  0  0  0  0  0
   -2.2236   -0.0369   -1.5041 H   0  0  0  0  0  0  0  0  0  0  0  0
   -3.2707    1.8403   -1.3572 C   0  0  0  0  0  0  0  0  0  0  0  0
   -3.9082    1.5200   -0.5326 H   0  0  0  0  0  0  0  0  0  0  0  0
   -3.0286    2.8965   -1.2363 H   0  0  0  0  0  0  0  0  0  0  0  0
   -4.0145    1.6400   -2.6762 C   0  0  0  0  0  0  0  0  0  0  0  0
   -3.3868    1.9764   -3.4999 H   0  0  0  0  0  0  0  0  0  0  0  0
   -4.2413    0.5832   -2.8072 H   0  0  0  0  0  0  0  0  0  0  0  0
   -5.2711    2.3974   -2.6990 N   0  0  0  0  0  0  0  0  0  0  0  0
   -5.7279    2.2534   -3.5876 H   0  0  0  0  0  0  0  0  0  0  0  0
   -5.8706    2.0671   -1.9561 H   0  0  0  0  0  0  0  0  0  0  0  0
   -0.5564    0.0727    2.1744 C   0  0  0  0  0  0  0  0  0  0  0  0
    0.6169   -0.1288    2.4805 O   0  0  0  0  0  0  0  0  0  0  0  0
   -1.4759    0.4743    3.0595 N   0  0  0  0  0  0  0  0  0  0  0  0
   -2.4132    0.6318    2.7275 H   0  0  0  0  0  0  0  0  0  0  0  0
   -1.1971    0.7118    4.4750 C   0  0  0  0  0  0  0  0  0  0  0  0
   -0.3779    1.4272    4.5748 H   0  0  0  0  0  0  0  0  0  0  0  0
   -2.0826    1.1064    4.9754 H   0  0  0  0  0  0  0  0  0  0  0  0
   -0.8992   -0.2240    4.9525 H   0  0  0  0  0  0  0  0  0  0  0  0
  5  6  2  0  0  0  0
  5  7  1  0  0  0  0
  2  3  1  0  0  0  0
  2  4  1  0  0  0  0
  2  5  1  0  0  0  0
  1  2  1  0  0  0  0
 26 27  2  0  0  0  0
 26 28  1  0  0  0  0
 23 24  1  0  0  0  0
 23 25  1  0  0  0  0
 20 21  1  0  0  0  0
 20 22  1  0  0  0  0
 20 23  1  0  0  0  0
 17 18  1  0  0  0  0
 17 19  1  0  0  0  0
 17 20  1  0  0  0  0
 14 15  1  0  0  0  0
 14 16  1  0  0  0  0
 14 17  1  0  0  0  0
 11 12  1  0  0  0  0
 11 13  1  0  0  0  0
 11 14  1  0  0  0  0
  9 10  1  0  0  0  0
  9 11  1  0  0  0  0
  9 26  1  0  0  0  0
  7  8  1  0  0  0  0
  7  9  1  0  0  0  0
 30 31  1  0  0  0  0
 30 32  1  0  0  0  0
 30 33  1  0  0  0  0
 28 29  1  0  0  0  0
 28 30  1  0  0  0  0
M  END
$$$$
default_name
  -OEChem-02102213163D

 33 32  0     1  0  0  0  0  0999 V2000
   -3.8420   -3.6918    1.5562 H   0  0  0  0  0  0  0  0  0  0  0  0
   -3.8430   -2.7008    1.1032 C   0  0  0  0  0  0  0  0  0  0  0  0
   -4.5510   -2.0608    1.6242 H   0  0  0  0  0  0  0  0  0  0  0  0
   -4.1140   -2.7798    0.0522 H   0  0  0  0  0  0  0  0  0  0  0  0
   -2.4570   -2.1098    1.2172 C   0  0  0  0  0  0  0  0  0  0  0  0
   -1.5600   -2.7438    1.7572 O   0  0  0  0  0  0  0  0  0  0  0  0
   -2.2870   -0.8898    0.7102 N   0  0  0  0  0  0  0  0  0  0  0  0
   -3.0820   -0.4218    0.2992 H   0  0  0  0  0  0  0  0  0  0  0  0
   -1.0240   -0.1468    0.7262 C   0  0  1  0  0  0  0  0  0  0  0  0
   -0.2680   -0.7367    0.2062 H   0  0  0  0  0  0  0  0  0  0  0  0
   -1.2212    1.1806   -0.0314 C   0  0  0  0  0  0  0  0  0  0  0  0
   -1.7913    1.8615    0.6039 H   0  0  0  0  0  0  0  0  0  0  0  0
   -0.2472    1.6318   -0.2261 H   0  0  0  0  0  0  0  0  0  0  0  0
   -1.9778    1.0166   -1.3588 C   0  0  0  0  0  0  0  0  0  0  0  0
   -1.2779    1.0948   -2.1912 H   0  0  0  0  0  0  0  0  0  0  0  0
   -2.4528    0.0341   -1.3822 H   0  0  0  0  0  0  0  0  0  0  0  0
   -3.0517    2.0994   -1.5141 C   0  0  0  0  0  0  0  0  0  0  0  0
   -3.7558    2.0391   -0.6836 H   0  0  0  0  0  0  0  0  0  0  0  0
   -2.5795    3.0823   -1.5153 H   0  0  0  0  0  0  0  0  0  0  0  0
   -3.8041    1.8987   -2.8281 C   0  0  0  0  0  0  0  0  0  0  0  0
   -3.1060    1.9770   -3.6600 H   0  0  0  0  0  0  0  0  0  0  0  0
   -4.2615    0.9107   -2.8361 H   0  0  0  0  0  0  0  0  0  0  0  0
   -4.8573    2.9063   -2.9977 N   0  0  0  0  0  0  0  0  0  0  0  0
   -5.3232    2.7524   -3.8799 H   0  0  0  0  0  0  0  0  0  0  0  0
   -5.5255    2.8170   -2.2455 H   0  0  0  0  0  0  0  0  0  0  0  0
   -0.5564    0.0727    2.1744 C   0  0  0  0  0  0  0  0  0  0  0  0
    0.6169   -0.1288    2.4805 O   0  0  0  0  0  0  0  0  0  0  0  0
   -1.4759    0.4743    3.0595 N   0  0  0  0  0  0  0  0  0  0  0  0
   -2.4132    0.6318    2.7275 H   0  0  0  0  0  0  0  0  0  0  0  0
   -1.1971    0.7118    4.4750 C   0  0  0  0  0  0  0  0  0  0  0  0
   -0.3779    1.4272    4.5748 H   0  0  0  0  0  0  0  0  0  0  0  0
   -2.0826    1.1064    4.9754 H   0  0  0  0  0  0  0  0  0  0  0  0
   -0.8992   -0.2240    4.9525 H   0  0  0  0  0  0  0  0  0  0  0  0
  5  6  2  0  0  0  0
  5  7  1  0  0  0  0
  2  3  1  0  0  0  0
  2  4  1  0  0  0  0
  2  5  1  0  0  0  0
  1  2  1  0  0  0  0
 26 27  2  0  0  0  0
 26 28  1  0  0  0  0
 23 24  1  0  0  0  0
 23 25  1  0  0  0  0
 20 21  1  0  0  0  0
 20 22  1  0  0  0  0
 20 23  1  0  0  0  0
 17 18  1  0  0  0  0
 17 19  1  0  0  0  0
 17 20  1  0  0  0  0
 14 15  1  0  0  0  0
 14 16  1  0  0  0  0
 14 17  1  0  0  0  0
 11 12  1  0  0  0  0
 11 13  1  0  0  0  0
 11 14  1  0  0  0  0
  9 10  1  0  0  0  0
  9 11  1  0  0  0  0
  9 26  1  0  0  0  0
  7  8  1  0  0  0  0
  7  9  1  0  0  0  0
 30 31  1  0  0  0  0
 30 32  1  0  0  0  0
 30 33  1  0  0  0  0
 28 29  1  0  0  0  0
 28 30  1  0  0  0  0
M  END
$$$$
default_name
  -OEChem-02102213163D

 33 32  0     1  0  0  0  0  0999 V2000
   -3.8420   -3.6918    1.5562 H   0  0  0  0  0  0  0  0  0  0  0  0
   -3.8430   -2.7008    1.1032 C   0  0  0  0  0  0  0  0  0  0  0  0
   -4.5510   -2.0608    1.6242 H   0  0  0  0  0  0  0  0  0  0  0  0
   -4.1140   -2.7798    0.0522 H   0  0  0  0  0  0  0  0  0  0  0  0
   -2.4570   -2.1098    1.2172 C   0  0  0  0  0  0  0  0  0  0  0  0
   -1.5600   -2.7438    1.7572 O   0  0  0  0  0  0  0  0  0  0  0  0
   -2.2870   -0.8898    0.7102 N   0  0  0  0  0  0  0  0  0  0  0  0
   -3.0820   -0.4218    0.2992 H   0  0  0  0  0  0  0  0  0  0  0  0
   -1.0240   -0.1468    0.7262 C   0  0  1  0  0  0  0  0  0  0  0  0
   -0.2680   -0.7367    0.2062 H   0  0  0  0  0  0  0  0  0  0  0  0
   -1.2212    1.1806   -0.0314 C   0  0  0  0  0  0  0  0  0  0  0  0
   -1.7913    1.8615    0.6039 H   0  0  0  0  0  0  0  0  0  0  0  0
   -0.2472    1.6318   -0.2261 H   0  0  0  0  0  0  0  0  0  0  0  0
   -1.9778    1.0166   -1.3588 C   0  0  0  0  0  0  0  0  0  0  0  0
   -1.2675    0.8282   -2.1642 H   0  0  0  0  0  0  0  0  0  0  0  0
   -2.6617    0.1695   -1.2799 H   0  0  0  0  0  0  0  0  0  0  0  0
   -2.7779    2.2808   -1.6925 C   0  0  0  0  0  0  0  0  0  0  0  0
   -3.4883    2.4871   -0.8914 H   0  0  0  0  0  0  0  0  0  0  0  0
   -2.0964    3.1257   -1.7960 H   0  0  0  0  0  0  0  0  0  0  0  0
   -3.5389    2.0821   -3.0019 C   0  0  0  0  0  0  0  0  0  0  0  0
   -2.8303    1.8943   -3.8070 H   0  0  0  0  0  0  0  0  0  0  0  0
   -4.2071    1.2278   -2.9063 H   0  0  0  0  0  0  0  0  0  0  0  0
   -4.3357    3.2672   -3.3397 N   0  0  0  0  0  0  0  0  0  0  0  0
   -4.8126    3.1066   -4.2148 H   0  0  0  0  0  0  0  0  0  0  0  0
   -5.0166    3.4273   -2.6110 H   0  0  0  0  0  0  0  0  0  0  0  0
   -0.5564    0.0727    2.1744 C   0  0  0  0  0  0  0  0  0  0  0  0
    0.6169   -0.1288    2.4805 O   0  0  0  0  0  0  0  0  0  0  0  0
   -1.4759    0.4743    3.0595 N   0  0  0  0  0  0  0  0  0  0  0  0
   -2.4132    0.6318    2.7275 H   0  0  0  0  0  0  0  0  0  0  0  0
   -1.1971    0.7118    4.4750 C   0  0  0  0  0  0  0  0  0  0  0  0
   -0.3779    1.4272    4.5748 H   0  0  0  0  0  0  0  0  0  0  0  0
   -2.0826    1.1064    4.9754 H   0  0  0  0  0  0  0  0  0  0  0  0
   -0.8992   -0.2240    4.9525 H   0  0  0  0  0  0  0  0  0  0  0  0
  5  6  2  0  0  0  0
  5  7  1  0  0  0  0
  2  3  1  0  0  0  0
  2  4  1  0  0  0  0
  2  5  1  0  0  0  0
  1  2  1  0  0  0  0
 26 27  2  0  0  0  0
 26 28  1  0  0  0  0
 23 24  1  0  0  0  0
 23 25  1  0  0  0  0
 20 21  1  0  0  0  0
 20 22  1  0  0  0  0
 20 23  1  0  0  0  0
 17 18  1  0  0  0  0
 17 19  1  0  0  0  0
 17 20  1  0  0  0  0
 14 15  1  0  0  0  0
 14 16  1  0  0  0  0
 14 17  1  0  0  0  0
 11 12  1  0  0  0  0
 11 13  1  0  0  0  0
 11 14  1  0  0  0  0
  9 10  1  0  0  0  0
  9 11  1  0  0  0  0
  9 26  1  0  0  0  0
  7  8  1  0  0  0  0
  7  9  1  0  0  0  0
 30 31  1  0  0  0  0
 30 32  1  0  0  0  0
 30 33  1  0  0  0  0
 28 29  1  0  0  0  0
 28 30  1  0  0  0  0
M  END
$$$$
default_name
  -OEChem-02102213163D

 33 32  0     1  0  0  0  0  0999 V2000
   -3.8420   -3.6918    1.5562 H   0  0  0  0  0  0  0  0  0  0  0  0
   -3.8430   -2.7008    1.1032 C   0  0  0  0  0  0  0  0  0  0  0  0
   -4.5510   -2.0608    1.6242 H   0  0  0  0  0  0  0  0  0  0  0  0
   -4.1140   -2.7798    0.0522 H   0  0  0  0  0  0  0  0  0  0  0  0
   -2.4570   -2.1098    1.2172 C   0  0  0  0  0  0  0  0  0  0  0  0
   -1.5600   -2.7438    1.7572 O   0  0  0  0  0  0  0  0  0  0  0  0
   -2.2870   -0.8898    0.7102 N   0  0  0  0  0  0  0  0  0  0  0  0
   -3.0820   -0.4218    0.2992 H   0  0  0  0  0  0  0  0  0  0  0  0
   -1.0240   -0.1468    0.7262 C   0  0  1  0  0  0  0  0  0  0  0  0
   -0.2680   -0.7367    0.2062 H   0  0  0  0  0  0  0  0  0  0  0  0
   -1.2212    1.1806   -0.0314 C   0  0  0  0  0  0  0  0  0  0  0  0
   -1.7913    1.8615    0.6039 H   0  0  0  0  0  0  0  0  0  0  0  0
   -0.2472    1.6318   -0.2261 H   0  0  0  0  0  0  0  0  0  0  0  0
   -1.9778    1.0166   -1.3588 C   0  0  0  0  0  0  0  0  0  0  0  0
   -1.3177    0.5718   -2.1039 H   0  0  0  0  0  0  0  0  0  0  0  0
   -2.8360    0.3600   -1.2041 H   0  0  0  0  0  0  0  0  0  0  0  0
   -2.4680    2.3721   -1.8805 C   0  0  0  0  0  0  0  0  0  0  0  0
   -3.1241    2.8336   -1.1419 H   0  0  0  0  0  0  0  0  0  0  0  0
   -1.6123    3.0238   -2.0594 H   0  0  0  0  0  0  0  0  0  0  0  0
   -3.2369    2.1779   -3.1859 C   0  0  0  0  0  0  0  0  0  0  0  0
   -2.5783    1.7341   -3.9308 H   0  0  0  0  0  0  0  0  0  0  0  0
   -4.0816    1.5130   -3.0131 H   0  0  0  0  0  0  0  0  0  0  0  0
   -3.7416    3.4556   -3.7016 N   0  0  0  0  0  0  0  0  0  0  0  0
   -4.2309    3.2919   -4.5692 H   0  0  0  0  0  0  0  0  0  0  0  0
   -4.3784    3.8565   -3.0278 H   0  0  0  0  0  0  0  0  0  0  0  0
   -0.5564    0.0727    2.1744 C   0  0  0  0  0  0  0  0  0  0  0  0
    0.6169   -0.1288    2.4805 O   0  0  0  0  0  0  0  0  0  0  0  0
   -1.4759    0.4743    3.0595 N   0  0  0  0  0  0  0  0  0  0  0  0
   -2.4132    0.6318    2.7275 H   0  0  0  0  0  0  0  0  0  0  0  0
   -1.1971    0.7118    4.4750 C   0  0  0  0  0  0  0  0  0  0  0  0
   -0.3779    1.4272    4.5748 H   0  0  0  0  0  0  0  0  0  0  0  0
   -2.0826    1.1064    4.9754 H   0  0  0  0  0  0  0  0  0  0  0  0
   -0.8992   -0.2240    4.9525 H   0  0  0  0  0  0  0  0  0  0  0  0
  5  6  2  0  0  0  0
  5  7  1  0  0  0  0
  2  3  1  0  0  0  0
  2  4  1  0  0  0  0
  2  5  1  0  0  0  0
  1  2  1  0  0  0  0
 26 27  2  0  0  0  0
 26 28  1  0  0  0  0
 23 24  1  0  0  0  0
 23 25  1  0  0  0  0
 20 21  1  0  0  0  0
 20 22  1  0  0  0  0
 20 23  1  0  0  0  0
 17 18  1  0  0  0  0
 17 19  1  0  0  0  0
 17 20  1  0  0  0  0
 14 15  1  0  0  0  0
 14 16  1  0  0  0  0
 14 17  1  0  0  0  0
 11 12  1  0  0  0  0
 11 13  1  0  0  0  0
 11 14  1  0  0  0  0
  9 10  1  0  0  0  0
  9 11  1  0  0  0  0
  9 26  1  0  0  0  0
  7  8  1  0  0  0  0
  7  9  1  0  0  0  0
 30 31  1  0  0  0  0
 30 32  1  0  0  0  0
 30 33  1  0  0  0  0
 28 29  1  0  0  0  0
 28 30  1  0  0  0  0
M  END
$$$$
default_name
  -OEChem-02102213163D

 33 32  0     1  0  0  0  0  0999 V2000
   -3.8420   -3.6918    1.5562 H   0  0  0  0  0  0  0  0  0  0  0  0
   -3.8430   -2.7008    1.1032 C   0  0  0  0  0  0  0  0  0  0  0  0
   -4.5510   -2.0608    1.6242 H   0  0  0  0  0  0  0  0  0  0  0  0
   -4.1140   -2.7798    0.0522 H   0  0  0  0  0  0  0  0  0  0  0  0
   -2.4570   -2.1098    1.2172 C   0  0  0  0  0  0  0  0  0  0  0  0
   -1.5600   -2.7438    1.7572 O   0  0  0  0  0  0  0  0  0  0  0  0
   -2.2870   -0.8898    0.7102 N   0  0  0  0  0  0  0  0  0  0  0  0
   -3.0820   -0.4218    0.2992 H   0  0  0  0  0  0  0  0  0  0  0  0
   -1.0240   -0.1468    0.7262 C   0  0  1  0  0  0  0  0  0  0  0  0
   -0.2680   -0.7367    0.2062 H   0  0  0  0  0  0  0  0  0  0  0  0
   -1.2212    1.1806   -0.0314 C   0  0  0  0  0  0  0  0  0  0  0  0
   -1.5451    1.9421    0.6810 H   0  0  0  0  0  0  0  0  0  0  0  0
   -0.2680    1.4966   -0.4575 H   0  0  0  0  0  0  0  0  0  0  0  0
   -2.2715    1.0924   -1.1496 C   0  0  0  0  0  0  0  0  0  0  0  0
   -1.9681    0.3402   -1.8783 H   0  0  0  0  0  0  0  0  0  0  0  0
   -3.2320    0.8050   -0.7180 H   0  0  0  0  0  0  0  0  0  0  0  0
   -2.4234    2.4393   -1.8654 C   0  0  0  0  0  0  0  0  0  0  0  0
   -2.7194    3.2047   -1.1473 H   0  0  0  0  0  0  0  0  0  0  0  0
   -1.4721    2.7194   -2.3188 H   0  0  0  0  0  0  0  0  0  0  0  0
   -3.4894    2.3306   -2.9540 C   0  0  0  0  0  0  0  0  0  0  0  0
   -3.1870    1.5800   -3.6824 H   0  0  0  0  0  0  0  0  0  0  0  0
   -4.4360    2.0337   -2.5053 H   0  0  0  0  0  0  0  0  0  0  0  0
   -3.6773    3.6116   -3.6448 N   0  0  0  0  0  0  0  0  0  0  0  0
   -4.3764    3.4997   -4.3643 H   0  0  0  0  0  0  0  0  0  0  0  0
   -3.9889    4.3044   -2.9791 H   0  0  0  0  0  0  0  0  0  0  0  0
   -0.5564    0.0727    2.1744 C   0  0  0  0  0  0  0  0  0  0  0  0
    0.6169   -0.1288    2.4805 O   0  0  0  0  0  0  0  0  0  0  0  0
   -1.4759    0.4743    3.0595 N   0  0  0  0  0  0  0  0  0  0  0  0
   -2.4132    0.6318    2.7275 H   0  0  0  0  0  0  0  0  0  0  0  0
   -1.1971    0.7118    4.4750 C   0  0  0  0  0  0  0  0  0  0  0  0
   -0.3779    1.4272    4.5748 H   0  0  0  0  0  0  0  0  0  0  0  0
   -2.0826    1.1064    4.9754 H   0  0  0  0  0  0  0  0  0  0  0  0
   -0.8992   -0.2240    4.9525 H   0  0  0  0  0  0  0  0  0  0  0  0
  5  6  2  0  0  0  0
  5  7  1  0  0  0  0
  2  3  1  0  0  0  0
  2  4  1  0  0  0  0
  2  5  1  0  0  0  0
  1  2  1  0  0  0  0
 26 27  2  0  0  0  0
 26 28  1  0  0  0  0
 23 24  1  0  0  0  0
 23 25  1  0  0  0  0
 20 21  1  0  0  0  0
 20 22  1  0  0  0  0
 20 23  1  0  0  0  0
 17 18  1  0  0  0  0
 17 19  1  0  0  0  0
 17 20  1  0  0  0  0
 14 15  1  0  0  0  0
 14 16  1  0  0  0  0
 14 17  1  0  0  0  0
 11 12  1  0  0  0  0
 11 13  1  0  0  0  0
 11 14  1  0  0  0  0
  9 10  1  0  0  0  0
  9 11  1  0  0  0  0
  9 26  1  0  0  0  0
  7  8  1  0  0  0  0
  7  9  1  0  0  0  0
 30 31  1  0  0  0  0
 30 32  1  0  0  0  0
 30 33  1  0  0  0  0
 28 29  1  0  0  0  0
 28 30  1  0  0  0  0
M  END
$$$$
default_name
  -OEChem-02102213163D

 33 32  0     1  0  0  0  0  0999 V2000
   -3.8420   -3.6918    1.5562 H   0  0  0  0  0  0  0  0  0  0  0  0
   -3.8430   -2.7008    1.1032 C   0  0  0  0  0  0  0  0  0  0  0  0
   -4.5510   -2.0608    1.6242 H   0  0  0  0  0  0  0  0  0  0  0  0
   -4.1140   -2.7798    0.0522 H   0  0  0  0  0  0  0  0  0  0  0  0
   -2.4570   -2.1098    1.2172 C   0  0  0  0  0  0  0  0  0  0  0  0
   -1.5600   -2.7438    1.7572 O   0  0  0  0  0  0  0  0  0  0  0  0
   -2.2870   -0.8898    0.7102 N   0  0  0  0  0  0  0  0  0  0  0  0
   -3.0820   -0.4218    0.2992 H   0  0  0  0  0  0  0  0  0  0  0  0
   -1.0240   -0.1468    0.7262 C   0  0  1  0  0  0  0  0  0  0  0  0
   -0.2680   -0.7367    0.2062 H   0  0  0  0  0  0  0  0  0  0  0  0
   -1.2212    1.1806   -0.0314 C   0  0  0  0  0  0  0  0  0  0  0  0
   -1.5451    1.9421    0.6810 H   0  0  0  0  0  0  0  0  0  0  0  0
   -0.2680    1.4966   -0.4575 H   0  0  0  0  0  0  0  0  0  0  0  0
   -2.2715    1.0924   -1.1496 C   0  0  0  0  0  0  0  0  0  0  0  0
   -2.1178    0.1790   -1.7249 H   0  0  0  0  0  0  0  0  0  0  0  0
   -3.2682    1.0713   -0.7051 H   0  0  0  0  0  0  0  0  0  0  0  0
   -2.1666    2.2944   -2.0952 C   0  0  0  0  0  0  0  0  0  0  0  0
   -2.3106    3.2171   -1.5323 H   0  0  0  0  0  0  0  0  0  0  0  0
   -1.1804    2.3062   -2.5601 H   0  0  0  0  0  0  0  0  0  0  0  0
   -3.2362    2.1946   -3.1811 C   0  0  0  0  0  0  0  0  0  0  0  0
   -3.0832    1.2830   -3.7564 H   0  0  0  0  0  0  0  0  0  0  0  0
   -4.2209    2.1647   -2.7176 H   0  0  0  0  0  0  0  0  0  0  0  0
   -3.1792    3.3440   -4.0915 N   0  0  0  0  0  0  0  0  0  0  0  0
   -3.8883    3.2384   -4.8022 H   0  0  0  0  0  0  0  0  0  0  0  0
   -3.3523    4.1903   -3.5680 H   0  0  0  0  0  0  0  0  0  0  0  0
   -0.5564    0.0727    2.1744 C   0  0  0  0  0  0  0  0  0  0  0  0
    0.6169   -0.1288    2.4805 O   0  0  0  0  0  0  0  0  0  0  0  0
   -1.4759    0.4743    3.0595 N   0  0  0  0  0  0  0  0  0  0  0  0
   -2.4132    0.6318    2.7275 H   0  0  0  0  0  0  0  0  0  0  0  0
   -1.1971    0.7118    4.4750 C   0  0  0  0  0  0  0  0  0  0  0  0
   -0.3779    1.4272    4.5748 H   0  0  0  0  0  0  0  0  0  0  0  0
   -2.0826    1.1064    4.9754 H   0  0  0  0  0  0  0  0  0  0  0  0
   -0.8992   -0.2240    4.9525 H   0  0  0  0  0  0  0  0  0  0  0  0
  5  6  2  0  0  0  0
  5  7  1  0  0  0  0
  2  3  1  0  0  0  0
  2  4  1  0  0  0  0
  2  5  1  0  0  0  0
  1  2  1  0  0  0  0
 26 27  2  0  0  0  0
 26 28  1  0  0  0  0
 23 24  1  0  0  0  0
 23 25  1  0  0  0  0
 20 21  1  0  0  0  0
 20 22  1  0  0  0  0
 20 23  1  0  0  0  0
 17 18  1  0  0  0  0
 17 19  1  0  0  0  0
 17 20  1  0  0  0  0
 14 15  1  0  0  0  0
 14 16  1  0  0  0  0
 14 17  1  0  0  0  0
 11 12  1  0  0  0  0
 11 13  1  0  0  0  0
 11 14  1  0  0  0  0
  9 10  1  0  0  0  0
  9 11  1  0  0  0  0
  9 26  1  0  0  0  0
  7  8  1  0  0  0  0
  7  9  1  0  0  0  0
 30 31  1  0  0  0  0
 30 32  1  0  0  0  0
 30 33  1  0  0  0  0
 28 29  1  0  0  0  0
 28 30  1  0  0  0  0
M  END
$$$$
default_name
  -OEChem-02102213163D

 33 32  0     1  0  0  0  0  0999 V2000
   -3.8420   -3.6918    1.5562 H   0  0  0  0  0  0  0  0  0  0  0  0
   -3.8430   -2.7008    1.1032 C   0  0  0  0  0  0  0  0  0  0  0  0
   -4.5510   -2.0608    1.6242 H   0  0  0  0  0  0  0  0  0  0  0  0
   -4.1140   -2.7798    0.0522 H   0  0  0  0  0  0  0  0  0  0  0  0
   -2.4570   -2.1098    1.2172 C   0  0  0  0  0  0  0  0  0  0  0  0
   -1.5600   -2.7438    1.7572 O   0  0  0  0  0  0  0  0  0  0  0  0
   -2.2870   -0.8898    0.7102 N   0  0  0  0  0  0  0  0  0  0  0  0
   -3.0820   -0.4218    0.2992 H   0  0  0  0  0  0  0  0  0  0  0  0
   -1.0240   -0.1468    0.7262 C   0  0  1  0  0  0  0  0  0  0  0  0
   -0.2680   -0.7367    0.2062 H   0  0  0  0  0  0  0  0  0  0  0  0
   -1.2212    1.1806   -0.0314 C   0  0  0  0  0  0  0  0  0  0  0  0
   -1.5451    1.9421    0.6810 H   0  0  0  0  0  0  0  0  0  0  0  0
   -0.2680    1.4966   -0.4575 H   0  0  0  0  0  0  0  0  0  0  0  0
   -2.2715    1.0924   -1.1496 C   0  0  0  0  0  0  0  0  0  0  0  0
   -2.2950    0.0787   -1.5506 H   0  0  0  0  0  0  0  0  0  0  0  0
   -3.2532    1.3377   -0.7402 H   0  0  0  0  0  0  0  0  0  0  0  0
   -1.9425    2.0653   -2.2876 C   0  0  0  0  0  0  0  0  0  0  0  0
   -1.9076    3.0840   -1.9002 H   0  0  0  0  0  0  0  0  0  0  0  0
   -0.9729    1.8094   -2.7158 H   0  0  0  0  0  0  0  0  0  0  0  0
   -3.0139    1.9753   -3.3726 C   0  0  0  0  0  0  0  0  0  0  0  0
   -3.0378    0.9634   -3.7739 H   0  0  0  0  0  0  0  0  0  0  0  0
   -3.9854    2.2133   -2.9427 H   0  0  0  0  0  0  0  0  0  0  0  0
   -2.7418    2.9126   -4.4684 N   0  0  0  0  0  0  0  0  0  0  0  0
   -3.4595    2.8165   -5.1716 H   0  0  0  0  0  0  0  0  0  0  0  0
   -2.7501    3.8559   -4.1072 H   0  0  0  0  0  0  0  0  0  0  0  0
   -0.5564    0.0727    2.1744 C   0  0  0  0  0  0  0  0  0  0  0  0
    0.6169   -0.1288    2.4805 O   0  0  0  0  0  0  0  0  0  0  0  0
   -1.4759    0.4743    3.0595 N   0  0  0  0  0  0  0  0  0  0  0  0
   -2.4132    0.6318    2.7275 H   0  0  0  0  0  0  0  0  0  0  0  0
   -1.1971    0.7118    4.4750 C   0  0  0  0  0  0  0  0  0  0  0  0
   -0.3779    1.4272    4.5748 H   0  0  0  0  0  0  0  0  0  0  0  0
   -2.0826    1.1064    4.9754 H   0  0  0  0  0  0  0  0  0  0  0  0
   -0.8992   -0.2240    4.9525 H   0  0  0  0  0  0  0  0  0  0  0  0
  5  6  2  0  0  0  0
  5  7  1  0  0  0  0
  2  3  1  0  0  0  0
  2  4  1  0  0  0  0
  2  5  1  0  0  0  0
  1  2  1  0  0  0  0
 26 27  2  0  0  0  0
 26 28  1  0  0  0  0
 23 24  1  0  0  0  0
 23 25  1  0  0  0  0
 20 21  1  0  0  0  0
 20 22  1  0  0  0  0
 20 23  1  0  0  0  0
 17 18  1  0  0  0  0
 17 19  1  0  0  0  0
 17 20  1  0  0  0  0
 14 15  1  0  0  0  0
 14 16  1  0  0  0  0
 14 17  1  0  0  0  0
 11 12  1  0  0  0  0
 11 13  1  0  0  0  0
 11 14  1  0  0  0  0
  9 10  1  0  0  0  0
  9 11  1  0  0  0  0
  9 26  1  0  0  0  0
  7  8  1  0  0  0  0
  7  9  1  0  0  0  0
 30 31  1  0  0  0  0
 30 32  1  0  0  0  0
 30 33  1  0  0  0  0
 28 29  1  0  0  0  0
 28 30  1  0  0  0  0
M  END
$$$$
default_name
  -OEChem-02102213163D

 33 32  0     1  0  0  0  0  0999 V2000
   -3.8420   -3.6918    1.5562 H   0  0  0  0  0  0  0  0  0  0  0  0
   -3.8430   -2.7008    1.1032 C   0  0  0  0  0  0  0  0  0  0  0  0
   -4.5510   -2.0608    1.6242 H   0  0  0  0  0  0  0  0  0  0  0  0
   -4.1140   -2.7798    0.0522 H   0  0  0  0  0  0  0  0  0  0  0  0
   -2.4570   -2.1098    1.2172 C   0  0  0  0  0  0  0  0  0  0  0  0
   -1.5600   -2.7438    1.7572 O   0  0  0  0  0  0  0  0  0  0  0  0
   -2.2870   -0.8898    0.7102 N   0  0  0  0  0  0  0  0  0  0  0  0
   -3.0820   -0.4218    0.2992 H   0  0  0  0  0  0  0  0  0  0  0  0
   -1.0240   -0.1468    0.7262 C   0  0  1  0  0  0  0  0  0  0  0  0
   -0.2680   -0.7367    0.2062 H   0  0  0  0  0  0  0  0  0  0  0  0
   -1.2212    1.1806   -0.0314 C   0  0  0  0  0  0  0  0  0  0  0  0
   -1.5451    1.9421    0.6810 H   0  0  0  0  0  0  0  0  0  0  0  0
   -0.2680    1.4966   -0.4575 H   0  0  0  0  0  0  0  0  0  0  0  0
   -2.2715    1.0924   -1.1496 C   0  0  0  0  0  0  0  0  0  0  0  0
   -2.4877    0.0460   -1.3670 H   0  0  0  0  0  0  0  0  0  0  0  0
   -3.1879    1.5860   -0.8211 H   0  0  0  0  0  0  0  0  0  0  0  0
   -1.7663    1.7678   -2.4296 C   0  0  0  0  0  0  0  0  0  0  0  0
   -1.5381    2.8145   -2.2261 H   0  0  0  0  0  0  0  0  0  0  0  0
   -0.8638    1.2629   -2.7752 H   0  0  0  0  0  0  0  0  0  0  0  0
   -2.8375    1.6877   -3.5155 C   0  0  0  0  0  0  0  0  0  0  0  0
   -3.0538    0.6431   -3.7336 H   0  0  0  0  0  0  0  0  0  0  0  0
   -3.7455    2.1759   -3.1651 H   0  0  0  0  0  0  0  0  0  0  0  0
   -2.3949    2.3469   -4.7495 N   0  0  0  0  0  0  0  0  0  0  0  0
   -3.1193    2.2629   -5.4475 H   0  0  0  0  0  0  0  0  0  0  0  0
   -2.2234    3.3242   -4.5600 H   0  0  0  0  0  0  0  0  0  0  0  0
   -0.5564    0.0727    2.1744 C   0  0  0  0  0  0  0  0  0  0  0  0
    0.6169   -0.1288    2.4805 O   0  0  0  0  0  0  0  0  0  0  0  0
   -1.4759    0.4743    3.0595 N   0  0  0  0  0  0  0  0  0  0  0  0
   -2.4132    0.6318    2.7275 H   0  0  0  0  0  0  0  0  0  0  0  0
   -1.1971    0.7118    4.4750 C   0  0  0  0  0  0  0  0  0  0  0  0
   -0.3779    1.4272    4.5748 H   0  0  0  0  0  0  0  0  0  0  0  0
   -2.0826    1.1064    4.9754 H   0  0  0  0  0  0  0  0  0  0  0  0
   -0.8992   -0.2240    4.9525 H   0  0  0  0  0  0  0  0  0  0  0  0
  5  6  2  0  0  0  0
  5  7  1  0  0  0  0
  2  3  1  0  0  0  0
  2  4  1  0  0  0  0
  2  5  1  0  0  0  0
  1  2  1  0  0  0  0
 26 27  2  0  0  0  0
 26 28  1  0  0  0  0
 23 24  1  0  0  0  0
 23 25  1  0  0  0  0
 20 21  1  0  0  0  0
 20 22  1  0  0  0  0
 20 23  1  0  0  0  0
 17 18  1  0  0  0  0
 17 19  1  0  0  0  0
 17 20  1  0  0  0  0
 14 15  1  0  0  0  0
 14 16  1  0  0  0  0
 14 17  1  0  0  0  0
 11 12  1  0  0  0  0
 11 13  1  0  0  0  0
 11 14  1  0  0  0  0
  9 10  1  0  0  0  0
  9 11  1  0  0  0  0
  9 26  1  0  0  0  0
  7  8  1  0  0  0  0
  7  9  1  0  0  0  0
 30 31  1  0  0  0  0
 30 32  1  0  0  0  0
 30 33  1  0  0  0  0
 28 29  1  0  0  0  0
 28 30  1  0  0  0  0
M  END
$$$$
default_name
  -OEChem-02102213163D

 33 32  0     1  0  0  0  0  0999 V2000
   -3.8420   -3.6918    1.5562 H   0  0  0  0  0  0  0  0  0  0  0  0
   -3.8430   -2.7008    1.1032 C   0  0  0  0  0  0  0  0  0  0  0  0
   -4.5510   -2.0608    1.6242 H   0  0  0  0  0  0  0  0  0  0  0  0
   -4.1140   -2.7798    0.0522 H   0  0  0  0  0  0  0  0  0  0  0  0
   -2.4570   -2.1098    1.2172 C   0  0  0  0  0  0  0  0  0  0  0  0
   -1.5600   -2.7438    1.7572 O   0  0  0  0  0  0  0  0  0  0  0  0
   -2.2870   -0.8898    0.7102 N   0  0  0  0  0  0  0  0  0  0  0  0
   -3.0820   -0.4218    0.2992 H   0  0  0  0  0  0  0  0  0  0  0  0
   -1.0240   -0.1468    0.7262 C   0  0  1  0  0  0  0  0  0  0  0  0
   -0.2680   -0.7367    0.2062 H   0  0  0  0  0  0  0  0  0  0  0  0
   -1.2212    1.1806   -0.0314 C   0  0  0  0  0  0  0  0  0  0  0  0
   -1.5451    1.9421    0.6810 H   0  0  0  0  0  0  0  0  0  0  0  0
   -0.2680    1.4966   -0.4575 H   0  0  0  0  0  0  0  0  0  0  0  0
   -2.2715    1.0924   -1.1496 C   0  0  0  0  0  0  0  0  0  0  0  0
   -2.6827    0.0832   -1.1868 H   0  0  0  0  0  0  0  0  0  0  0  0
   -3.0770    1.7992   -0.9421 H   0  0  0  0  0  0  0  0  0  0  0  0
   -1.6500    1.4222   -2.5115 C   0  0  0  0  0  0  0  0  0  0  0  0
   -1.2270    2.4269   -2.4877 H   0  0  0  0  0  0  0  0  0  0  0  0
   -0.8604    0.7040   -2.7343 H   0  0  0  0  0  0  0  0  0  0  0  0
   -2.7193    1.3514   -3.6000 C   0  0  0  0  0  0  0  0  0  0  0  0
   -3.1302    0.3439   -3.6382 H   0  0  0  0  0  0  0  0  0  0  0  0
   -3.5174    2.0554   -3.3699 H   0  0  0  0  0  0  0  0  0  0  0  0
   -2.1622    1.6854   -4.9159 N   0  0  0  0  0  0  0  0  0  0  0  0
   -2.8909    1.6152   -5.6109 H   0  0  0  0  0  0  0  0  0  0  0  0
   -1.8081    2.6312   -4.8954 H   0  0  0  0  0  0  0  0  0  0  0  0
   -0.5564    0.0727    2.1744 C   0  0  0  0  0  0  0  0  0  0  0  0
    0.6169   -0.1288    2.4805 O   0  0  0  0  0  0  0  0  0  0  0  0
   -1.4759    0.4743    3.0595 N   0  0  0  0  0  0  0  0  0  0  0  0
   -2.4132    0.6318    2.7275 H   0  0  0  0  0  0  0  0  0  0  0  0
   -1.1971    0.7118    4.4750 C   0  0  0  0  0  0  0  0  0  0  0  0
   -0.3779    1.4272    4.5748 H   0  0  0  0  0  0  0  0  0  0  0  0
   -2.0826    1.1064    4.9754 H   0  0  0  0  0  0  0  0  0  0  0  0
   -0.8992   -0.2240    4.9525 H   0  0  0  0  0  0  0  0  0  0  0  0
  5  6  2  0  0  0  0
  5  7  1  0  0  0  0
  2  3  1  0  0  0  0
  2  4  1  0  0  0  0
  2  5  1  0  0  0  0
  1  2  1  0  0  0  0
 26 27  2  0  0  0  0
 26 28  1  0  0  0  0
 23 24  1  0  0  0  0
 23 25  1  0  0  0  0
 20 21  1  0  0  0  0
 20 22  1  0  0  0  0
 20 23  1  0  0  0  0
 17 18  1  0  0  0  0
 17 19  1  0  0  0  0
 17 20  1  0  0  0  0
 14 15  1  0  0  0  0
 14 16  1  0  0  0  0
 14 17  1  0  0  0  0
 11 12  1  0  0  0  0
 11 13  1  0  0  0  0
 11 14  1  0  0  0  0
  9 10  1  0  0  0  0
  9 11  1  0  0  0  0
  9 26  1  0  0  0  0
  7  8  1  0  0  0  0
  7  9  1  0  0  0  0
 30 31  1  0  0  0  0
 30 32  1  0  0  0  0
 30 33  1  0  0  0  0
 28 29  1  0  0  0  0
 28 30  1  0  0  0  0
M  END
$$$$
default_name
  -OEChem-02102213163D

 33 32  0     1  0  0  0  0  0999 V2000
   -3.8420   -3.6918    1.5562 H   0  0  0  0  0  0  0  0  0  0  0  0
   -3.8430   -2.7008    1.1032 C   0  0  0  0  0  0  0  0  0  0  0  0
   -4.5510   -2.0608    1.6242 H   0  0  0  0  0  0  0  0  0  0  0  0
   -4.1140   -2.7798    0.0522 H   0  0  0  0  0  0  0  0  0  0  0  0
   -2.4570   -2.1098    1.2172 C   0  0  0  0  0  0  0  0  0  0  0  0
   -1.5600   -2.7438    1.7572 O   0  0  0  0  0  0  0  0  0  0  0  0
   -2.2870   -0.8898    0.7102 N   0  0  0  0  0  0  0  0  0  0  0  0
   -3.0820   -0.4218    0.2992 H   0  0  0  0  0  0  0  0  0  0  0  0
   -1.0240   -0.1468    0.7262 C   0  0  1  0  0  0  0  0  0  0  0  0
   -0.2680   -0.7367    0.2062 H   0  0  0  0  0  0  0  0  0  0  0  0
   -1.2212    1.1806   -0.0314 C   0  0  0  0  0  0  0  0  0  0  0  0
   -1.5451    1.9421    0.6810 H   0  0  0  0  0  0  0  0  0  0  0  0
   -0.2680    1.4966   -0.4575 H   0  0  0  0  0  0  0  0  0  0  0  0
   -2.2715    1.0924   -1.1496 C   0  0  0  0  0  0  0  0  0  0  0  0
   -2.8667    0.1878   -1.0222 H   0  0  0  0  0  0  0  0  0  0  0  0
   -2.9279    1.9628   -1.0951 H   0  0  0  0  0  0  0  0  0  0  0  0
   -1.6016    1.0519   -2.5278 C   0  0  0  0  0  0  0  0  0  0  0  0
   -0.9956    1.9476   -2.6672 H   0  0  0  0  0  0  0  0  0  0  0  0
   -0.9630    0.1707   -2.5959 H   0  0  0  0  0  0  0  0  0  0  0  0
   -2.6671    0.9894   -3.6205 C   0  0  0  0  0  0  0  0  0  0  0  0
   -3.2618    0.0861   -3.4943 H   0  0  0  0  0  0  0  0  0  0  0  0
   -3.3167    1.8597   -3.5429 H   0  0  0  0  0  0  0  0  0  0  0  0
   -2.0596    0.9732   -4.9561 N   0  0  0  0  0  0  0  0  0  0  0  0
   -2.7898    0.9178   -5.6509 H   0  0  0  0  0  0  0  0  0  0  0  0
   -1.5325    1.8243   -5.0907 H   0  0  0  0  0  0  0  0  0  0  0  0
   -0.5564    0.0727    2.1744 C   0  0  0  0  0  0  0  0  0  0  0  0
    0.6169   -0.1288    2.4805 O   0  0  0  0  0  0  0  0  0  0  0  0
   -1.4759    0.4743    3.0595 N   0  0  0  0  0  0  0  0  0  0  0  0
   -2.4132    0.6318    2.7275 H   0  0  0  0  0  0  0  0  0  0  0  0
   -1.1971    0.7118    4.4750 C   0  0  0  0  0  0  0  0  0  0  0  0
   -0.3779    1.4272    4.5748 H   0  0  0  0  0  0  0  0  0  0  0  0
   -2.0826    1.1064    4.9754 H   0  0  0  0  0  0  0  0  0  0  0  0
   -0.8992   -0.2240    4.9525 H   0  0  0  0  0  0  0  0  0  0  0  0
  5  6  2  0  0  0  0
  5  7  1  0  0  0  0
  2  3  1  0  0  0  0
  2  4  1  0  0  0  0
  2  5  1  0  0  0  0
  1  2  1  0  0  0  0
 26 27  2  0  0  0  0
 26 28  1  0  0  0  0
 23 24  1  0  0  0  0
 23 25  1  0  0  0  0
 20 21  1  0  0  0  0
 20 22  1  0  0  0  0
 20 23  1  0  0  0  0
 17 18  1  0  0  0  0
 17 19  1  0  0  0  0
 17 20  1  0  0  0  0
 14 15  1  0  0  0  0
 14 16  1  0  0  0  0
 14 17  1  0  0  0  0
 11 12  1  0  0  0  0
 11 13  1  0  0  0  0
 11 14  1  0  0  0  0
  9 10  1  0  0  0  0
  9 11  1  0  0  0  0
  9 26  1  0  0  0  0
  7  8  1  0  0  0  0
  7  9  1  0  0  0  0
 30 31  1  0  0  0  0
 30 32  1  0  0  0  0
 30 33  1  0  0  0  0
 28 29  1  0  0  0  0
 28 30  1  0  0  0  0
M  END
$$$$
default_name
  -OEChem-02102213163D

 33 32  0     1  0  0  0  0  0999 V2000
   -3.8420   -3.6918    1.5562 H   0  0  0  0  0  0  0  0  0  0  0  0
   -3.8430   -2.7008    1.1032 C   0  0  0  0  0  0  0  0  0  0  0  0
   -4.5510   -2.0608    1.6242 H   0  0  0  0  0  0  0  0  0  0  0  0
   -4.1140   -2.7798    0.0522 H   0  0  0  0  0  0  0  0  0  0  0  0
   -2.4570   -2.1098    1.2172 C   0  0  0  0  0  0  0  0  0  0  0  0
   -1.5600   -2.7438    1.7572 O   0  0  0  0  0  0  0  0  0  0  0  0
   -2.2870   -0.8898    0.7102 N   0  0  0  0  0  0  0  0  0  0  0  0
   -3.0820   -0.4218    0.2992 H   0  0  0  0  0  0  0  0  0  0  0  0
   -1.0240   -0.1468    0.7262 C   0  0  1  0  0  0  0  0  0  0  0  0
   -0.2680   -0.7367    0.2062 H   0  0  0  0  0  0  0  0  0  0  0  0
   -1.2212    1.1806   -0.0314 C   0  0  0  0  0  0  0  0  0  0  0  0
   -1.5451    1.9421    0.6810 H   0  0  0  0  0  0  0  0  0  0  0  0
   -0.2680    1.4966   -0.4575 H   0  0  0  0  0  0  0  0  0  0  0  0
   -2.2715    1.0924   -1.1496 C   0  0  0  0  0  0  0  0  0  0  0  0
   -3.0272    0.3526   -0.8844 H   0  0  0  0  0  0  0  0  0  0  0  0
   -2.7508    2.0657   -1.2696 H   0  0  0  0  0  0  0  0  0  0  0  0
   -1.6243    0.6822   -2.4773 C   0  0  0  0  0  0  0  0  0  0  0  0
   -0.8597    1.4093   -2.7524 H   0  0  0  0  0  0  0  0  0  0  0  0
   -1.1646   -0.3006   -2.3693 H   0  0  0  0  0  0  0  0  0  0  0  0
   -2.6846    0.6263   -3.5754 C   0  0  0  0  0  0  0  0  0  0  0  0
   -3.4396   -0.1126   -3.3116 H   0  0  0  0  0  0  0  0  0  0  0  0
   -3.1572    1.6023   -3.6724 H   0  0  0  0  0  0  0  0  0  0  0  0
   -2.0940    0.2589   -4.8674 N   0  0  0  0  0  0  0  0  0  0  0  0
   -2.8229    0.2179   -5.5645 H   0  0  0  0  0  0  0  0  0  0  0  0
   -1.4153    0.9585   -5.1324 H   0  0  0  0  0  0  0  0  0  0  0  0
   -0.5564    0.0727    2.1744 C   0  0  0  0  0  0  0  0  0  0  0  0
    0.6169   -0.1288    2.4805 O   0  0  0  0  0  0  0  0  0  0  0  0
   -1.4759    0.4743    3.0595 N   0  0  0  0  0  0  0  0  0  0  0  0
   -2.4132    0.6318    2.7275 H   0  0  0  0  0  0  0  0  0  0  0  0
   -1.1971    0.7118    4.4750 C   0  0  0  0  0  0  0  0  0  0  0  0
   -0.3779    1.4272    4.5748 H   0  0  0  0  0  0  0  0  0  0  0  0
   -2.0826    1.1064    4.9754 H   0  0  0  0  0  0  0  0  0  0  0  0
   -0.8992   -0.2240    4.9525 H   0  0  0  0  0  0  0  0  0  0  0  0
  5  6  2  0  0  0  0
  5  7  1  0  0  0  0
  2  3  1  0  0  0  0
  2  4  1  0  0  0  0
  2  5  1  0  0  0  0
  1  2  1  0  0  0  0
 26 27  2  0  0  0  0
 26 28  1  0  0  0  0
 23 24  1  0  0  0  0
 23 25  1  0  0  0  0
 20 21  1  0  0  0  0
 20 22  1  0  0  0  0
 20 23  1  0  0  0  0
 17 18  1  0  0  0  0
 17 19  1  0  0  0  0
 17 20  1  0  0  0  0
 14 15  1  0  0  0  0
 14 16  1  0  0  0  0
 14 17  1  0  0  0  0
 11 12  1  0  0  0  0
 11 13  1  0  0  0  0
 11 14  1  0  0  0  0
  9 10  1  0  0  0  0
  9 11  1  0  0  0  0
  9 26  1  0  0  0  0
  7  8  1  0  0  0  0
  7  9  1  0  0  0  0
 30 31  1  0  0  0  0
 30 32  1  0  0  0  0
 30 33  1  0  0  0  0
 28 29  1  0  0  0  0
 28 30  1  0  0  0  0
M  END
$$$$
default_name
  -OEChem-02102213163D

 33 32  0     1  0  0  0  0  0999 V2000
   -3.8420   -3.6918    1.5562 H   0  0  0  0  0  0  0  0  0  0  0  0
   -3.8430   -2.7008    1.1032 C   0  0  0  0  0  0  0  0  0  0  0  0
   -4.5510   -2.0608    1.6242 H   0  0  0  0  0  0  0  0  0  0  0  0
   -4.1140   -2.7798    0.0522 H   0  0  0  0  0  0  0  0  0  0  0  0
   -2.4570   -2.1098    1.2172 C   0  0  0  0  0  0  0  0  0  0  0  0
   -1.5600   -2.7438    1.7572 O   0  0  0  0  0  0  0  0  0  0  0  0
   -2.2870   -0.8898    0.7102 N   0  0  0  0  0  0  0  0  0  0  0  0
   -3.0820   -0.4218    0.2992 H   0  0  0  0  0  0  0  0  0  0  0  0
   -1.0240   -0.1468    0.7262 C   0  0  1  0  0  0  0  0  0  0  0  0
   -0.2680   -0.7367    0.2062 H   0  0  0  0  0  0  0  0  0  0  0  0
   -1.2212    1.1806   -0.0314 C   0  0  0  0  0  0  0  0  0  0  0  0
   -1.5451    1.9421    0.6810 H   0  0  0  0  0  0  0  0  0  0  0  0
   -0.2680    1.4966   -0.4575 H   0  0  0  0  0  0  0  0  0  0  0  0
   -2.2715    1.0924   -1.1496 C   0  0  0  0  0  0  0  0  0  0  0  0
   -3.1533    0.5663   -0.7829 H   0  0  0  0  0  0  0  0  0  0  0  0
   -2.5577    2.1009   -1.4537 H   0  0  0  0  0  0  0  0  0  0  0  0
   -1.7167    0.3384   -2.3634 C   0  0  0  0  0  0  0  0  0  0  0  0
   -0.8286    0.8488   -2.7374 H   0  0  0  0  0  0  0  0  0  0  0  0
   -1.4514   -0.6778   -2.0701 H   0  0  0  0  0  0  0  0  0  0  0  0
   -2.7706    0.2868   -3.4678 C   0  0  0  0  0  0  0  0  0  0  0  0
   -3.6514   -0.2388   -3.1026 H   0  0  0  0  0  0  0  0  0  0  0  0
   -3.0497    1.3008   -3.7496 H   0  0  0  0  0  0  0  0  0  0  0  0
   -2.2631   -0.4090   -4.6559 N   0  0  0  0  0  0  0  0  0  0  0  0
   -2.9880   -0.4366   -5.3579 H   0  0  0  0  0  0  0  0  0  0  0  0
   -1.4645    0.0927   -5.0178 H   0  0  0  0  0  0  0  0  0  0  0  0
   -0.5564    0.0727    2.1744 C   0  0  0  0  0  0  0  0  0  0  0  0
    0.6169   -0.1288    2.4805 O   0  0  0  0  0  0  0  0  0  0  0  0
   -1.4759    0.4743    3.0595 N   0  0  0  0  0  0  0  0  0  0  0  0
   -2.4132    0.6318    2.7275 H   0  0  0  0  0  0  0  0  0  0  0  0
   -1.1971    0.7118    4.4750 C   0  0  0  0  0  0  0  0  0  0  0  0
   -0.3779    1.4272    4.5748 H   0  0  0  0  0  0  0  0  0  0  0  0
   -2.0826    1.1064    4.9754 H   0  0  0  0  0  0  0  0  0  0  0  0
   -0.8992   -0.2240    4.9525 H   0  0  0  0  0  0  0  0  0  0  0  0
  5  6  2  0  0  0  0
  5  7  1  0  0  0  0
  2  3  1  0  0  0  0
  2  4  1  0  0  0  0
  2  5  1  0  0  0  0
  1  2  1  0  0  0  0
 26 27  2  0  0  0  0
 26 28  1  0  0  0  0
 23 24  1  0  0  0  0
 23 25  1  0  0  0  0
 20 21  1  0  0  0  0
 20 22  1  0  0  0  0
 20 23  1  0  0  0  0
 17 18  1  0  0  0  0
 17 19  1  0  0  0  0
 17 20  1  0  0  0  0
 14 15  1  0  0  0  0
 14 16  1  0  0  0  0
 14 17  1  0  0  0  0
 11 12  1  0  0  0  0
 11 13  1  0  0  0  0
 11 14  1  0  0  0  0
  9 10  1  0  0  0  0
  9 11  1  0  0  0  0
  9 26  1  0  0  0  0
  7  8  1  0  0  0  0
  7  9  1  0  0  0  0
 30 31  1  0  0  0  0
 30 32  1  0  0  0  0
 30 33  1  0  0  0  0
 28 29  1  0  0  0  0
 28 30  1  0  0  0  0
M  END
$$$$
default_name
  -OEChem-02102213163D

 33 32  0     1  0  0  0  0  0999 V2000
   -3.8420   -3.6918    1.5562 H   0  0  0  0  0  0  0  0  0  0  0  0
   -3.8430   -2.7008    1.1032 C   0  0  0  0  0  0  0  0  0  0  0  0
   -4.5510   -2.0608    1.6242 H   0  0  0  0  0  0  0  0  0  0  0  0
   -4.1140   -2.7798    0.0522 H   0  0  0  0  0  0  0  0  0  0  0  0
   -2.4570   -2.1098    1.2172 C   0  0  0  0  0  0  0  0  0  0  0  0
   -1.5600   -2.7438    1.7572 O   0  0  0  0  0  0  0  0  0  0  0  0
   -2.2870   -0.8898    0.7102 N   0  0  0  0  0  0  0  0  0  0  0  0
   -3.0820   -0.4218    0.2992 H   0  0  0  0  0  0  0  0  0  0  0  0
   -1.0240   -0.1468    0.7262 C   0  0  1  0  0  0  0  0  0  0  0  0
   -0.2680   -0.7367    0.2062 H   0  0  0  0  0  0  0  0  0  0  0  0
   -1.2212    1.1806   -0.0314 C   0  0  0  0  0  0  0  0  0  0  0  0
   -1.5451    1.9421    0.6810 H   0  0  0  0  0  0  0  0  0  0  0  0
   -0.2680    1.4966   -0.4575 H   0  0  0  0  0  0  0  0  0  0  0  0
   -2.2715    1.0924   -1.1496 C   0  0  0  0  0  0  0  0  0  0  0  0
   -3.2363    0.8145   -0.7245 H   0  0  0  0  0  0  0  0  0  0  0  0
   -2.3618    2.0660   -1.6349 H   0  0  0  0  0  0  0  0  0  0  0  0
   -1.8723    0.0438   -2.1940 C   0  0  0  0  0  0  0  0  0  0  0  0
   -0.9043    0.3041   -2.6233 H   0  0  0  0  0  0  0  0  0  0  0  0
   -1.8040   -0.9352   -1.7186 H   0  0  0  0  0  0  0  0  0  0  0  0
   -2.9192   -0.0059   -3.3052 C   0  0  0  0  0  0  0  0  0  0  0  0
   -3.8830   -0.2838   -2.8816 H   0  0  0  0  0  0  0  0  0  0  0  0
   -3.0014    0.9756   -3.7693 H   0  0  0  0  0  0  0  0  0  0  0  0
   -2.5553   -0.9849   -4.3360 N   0  0  0  0  0  0  0  0  0  0  0  0
   -3.2738   -1.0011   -5.0449 H   0  0  0  0  0  0  0  0  0  0  0  0
   -1.6769   -0.7141   -4.7547 H   0  0  0  0  0  0  0  0  0  0  0  0
   -0.5564    0.0727    2.1744 C   0  0  0  0  0  0  0  0  0  0  0  0
    0.6169   -0.1288    2.4805 O   0  0  0  0  0  0  0  0  0  0  0  0
   -1.4759    0.4743    3.0595 N   0  0  0  0  0  0  0  0  0  0  0  0
   -2.4132    0.6318    2.7275 H   0  0  0  0  0  0  0  0  0  0  0  0
   -1.1971    0.7118    4.4750 C   0  0  0  0  0  0  0  0  0  0  0  0
   -0.3779    1.4272    4.5748 H   0  0  0  0  0  0  0  0  0  0  0  0
   -2.0826    1.1064    4.9754 H   0  0  0  0  0  0  0  0  0  0  0  0
   -0.8992   -0.2240    4.9525 H   0  0  0  0  0  0  0  0  0  0  0  0
  5  6  2  0  0  0  0
  5  7  1  0  0  0  0
  2  3  1  0  0  0  0
  2  4  1  0  0  0  0
  2  5  1  0  0  0  0
  1  2  1  0  0  0  0
 26 27  2  0  0  0  0
 26 28  1  0  0  0  0
 23 24  1  0  0  0  0
 23 25  1  0  0  0  0
 20 21  1  0  0  0  0
 20 22  1  0  0  0  0
 20 23  1  0  0  0  0
 17 18  1  0  0  0  0
 17 19  1  0  0  0  0
 17 20  1  0  0  0  0
 14 15  1  0  0  0  0
 14 16  1  0  0  0  0
 14 17  1  0  0  0  0
 11 12  1  0  0  0  0
 11 13  1  0  0  0  0
 11 14  1  0  0  0  0
  9 10  1  0  0  0  0
  9 11  1  0  0  0  0
  9 26  1  0  0  0  0
  7  8  1  0  0  0  0
  7  9  1  0  0  0  0
 30 31  1  0  0  0  0
 30 32  1  0  0  0  0
 30 33  1  0  0  0  0
 28 29  1  0  0  0  0
 28 30  1  0  0  0  0
M  END
$$$$
default_name
  -OEChem-02102213163D

 33 32  0     1  0  0  0  0  0999 V2000
   -3.8420   -3.6918    1.5562 H   0  0  0  0  0  0  0  0  0  0  0  0
   -3.8430   -2.7008    1.1032 C   0  0  0  0  0  0  0  0  0  0  0  0
   -4.5510   -2.0608    1.6242 H   0  0  0  0  0  0  0  0  0  0  0  0
   -4.1140   -2.7798    0.0522 H   0  0  0  0  0  0  0  0  0  0  0  0
   -2.4570   -2.1098    1.2172 C   0  0  0  0  0  0  0  0  0  0  0  0
   -1.5600   -2.7438    1.7572 O   0  0  0  0  0  0  0  0  0  0  0  0
   -2.2870   -0.8898    0.7102 N   0  0  0  0  0  0  0  0  0  0  0  0
   -3.0820   -0.4218    0.2992 H   0  0  0  0  0  0  0  0  0  0  0  0
   -1.0240   -0.1468    0.7262 C   0  0  1  0  0  0  0  0  0  0  0  0
   -0.2680   -0.7367    0.2062 H   0  0  0  0  0  0  0  0  0  0  0  0
   -1.2212    1.1806   -0.0314 C   0  0  0  0  0  0  0  0  0  0  0  0
   -1.5451    1.9421    0.6810 H   0  0  0  0  0  0  0  0  0  0  0  0
   -0.2680    1.4966   -0.4575 H   0  0  0  0  0  0  0  0  0  0  0  0
   -2.2715    1.0924   -1.1496 C   0  0  0  0  0  0  0  0  0  0  0  0
   -3.2706    1.0801   -0.7132 H   0  0  0  0  0  0  0  0  0  0  0  0
   -2.1765    1.9633   -1.8008 H   0  0  0  0  0  0  0  0  0  0  0  0
   -2.0806   -0.1815   -1.9806 C   0  0  0  0  0  0  0  0  0  0  0  0
   -1.0817   -0.1876   -2.4178 H   0  0  0  0  0  0  0  0  0  0  0  0
   -2.1983   -1.0552   -1.3389 H   0  0  0  0  0  0  0  0  0  0  0  0
   -3.1203   -0.2319   -3.0985 C   0  0  0  0  0  0  0  0  0  0  0  0
   -4.1184   -0.2446   -2.6636 H   0  0  0  0  0  0  0  0  0  0  0  0
   -3.0158    0.6489   -3.7300 H   0  0  0  0  0  0  0  0  0  0  0  0
   -2.9508   -1.4295   -3.9294 N   0  0  0  0  0  0  0  0  0  0  0  0
   -3.6608   -1.4372   -4.6470 H   0  0  0  0  0  0  0  0  0  0  0  0
   -2.0378   -1.4068   -4.3610 H   0  0  0  0  0  0  0  0  0  0  0  0
   -0.5564    0.0727    2.1744 C   0  0  0  0  0  0  0  0  0  0  0  0
    0.6169   -0.1288    2.4805 O   0  0  0  0  0  0  0  0  0  0  0  0
   -1.4759    0.4743    3.0595 N   0  0  0  0  0  0  0  0  0  0  0  0
   -2.4132    0.6318    2.7275 H   0  0  0  0  0  0  0  0  0  0  0  0
   -1.1971    0.7118    4.4750 C   0  0  0  0  0  0  0  0  0  0  0  0
   -0.3779    1.4272    4.5748 H   0  0  0  0  0  0  0  0  0  0  0  0
   -2.0826    1.1064    4.9754 H   0  0  0  0  0  0  0  0  0  0  0  0
   -0.8992   -0.2240    4.9525 H   0  0  0  0  0  0  0  0  0  0  0  0
  5  6  2  0  0  0  0
  5  7  1  0  0  0  0
  2  3  1  0  0  0  0
  2  4  1  0  0  0  0
  2  5  1  0  0  0  0
  1  2  1  0  0  0  0
 26 27  2  0  0  0  0
 26 28  1  0  0  0  0
 23 24  1  0  0  0  0
 23 25  1  0  0  0  0
 20 21  1  0  0  0  0
 20 22  1  0  0  0  0
 20 23  1  0  0  0  0
 17 18  1  0  0  0  0
 17 19  1  0  0  0  0
 17 20  1  0  0  0  0
 14 15  1  0  0  0  0
 14 16  1  0  0  0  0
 14 17  1  0  0  0  0
 11 12  1  0  0  0  0
 11 13  1  0  0  0  0
 11 14  1  0  0  0  0
  9 10  1  0  0  0  0
  9 11  1  0  0  0  0
  9 26  1  0  0  0  0
  7  8  1  0  0  0  0
  7  9  1  0  0  0  0
 30 31  1  0  0  0  0
 30 32  1  0  0  0  0
 30 33  1  0  0  0  0
 28 29  1  0  0  0  0
 28 30  1  0  0  0  0
M  END
$$$$
default_name
  -OEChem-02102213163D

 33 32  0     1  0  0  0  0  0999 V2000
   -3.8420   -3.6918    1.5562 H   0  0  0  0  0  0  0  0  0  0  0  0
   -3.8430   -2.7008    1.1032 C   0  0  0  0  0  0  0  0  0  0  0  0
   -4.5510   -2.0608    1.6242 H   0  0  0  0  0  0  0  0  0  0  0  0
   -4.1140   -2.7798    0.0522 H   0  0  0  0  0  0  0  0  0  0  0  0
   -2.4570   -2.1098    1.2172 C   0  0  0  0  0  0  0  0  0  0  0  0
   -1.5600   -2.7438    1.7572 O   0  0  0  0  0  0  0  0  0  0  0  0
   -2.2870   -0.8898    0.7102 N   0  0  0  0  0  0  0  0  0  0  0  0
   -3.0820   -0.4218    0.2992 H   0  0  0  0  0  0  0  0  0  0  0  0
   -1.0240   -0.1468    0.7262 C   0  0  1  0  0  0  0  0  0  0  0  0
   -0.2680   -0.7367    0.2062 H   0  0  0  0  0  0  0  0  0  0  0  0
   -1.2212    1.1806   -0.0314 C   0  0  0  0  0  0  0  0  0  0  0  0
   -1.5451    1.9421    0.6810 H   0  0  0  0  0  0  0  0  0  0  0  0
   -0.2680    1.4966   -0.4575 H   0  0  0  0  0  0  0  0  0  0  0  0
   -2.2715    1.0924   -1.1496 C   0  0  0  0  0  0  0  0  0  0  0  0
   -3.2539    1.3452   -0.7498 H   0  0  0  0  0  0  0  0  0  0  0  0
   -2.0144    1.7998   -1.9402 H   0  0  0  0  0  0  0  0  0  0  0  0
   -2.3274   -0.3221   -1.7376 C   0  0  0  0  0  0  0  0  0  0  0  0
   -1.3488   -0.5928   -2.1351 H   0  0  0  0  0  0  0  0  0  0  0  0
   -2.6073   -1.0297   -0.9566 H   0  0  0  0  0  0  0  0  0  0  0  0
   -3.3601   -0.3757   -2.8619 C   0  0  0  0  0  0  0  0  0  0  0  0
   -4.3416   -0.1238   -2.4635 H   0  0  0  0  0  0  0  0  0  0  0  0
   -3.0918    0.3430   -3.6345 H   0  0  0  0  0  0  0  0  0  0  0  0
   -3.4226   -1.7125   -3.4639 N   0  0  0  0  0  0  0  0  0  0  0  0
   -4.1227   -1.7152   -4.1912 H   0  0  0  0  0  0  0  0  0  0  0  0
   -2.5228   -1.9383   -3.8635 H   0  0  0  0  0  0  0  0  0  0  0  0
   -0.5564    0.0727    2.1744 C   0  0  0  0  0  0  0  0  0  0  0  0
    0.6169   -0.1288    2.4805 O   0  0  0  0  0  0  0  0  0  0  0  0
   -1.4759    0.4743    3.0595 N   0  0  0  0  0  0  0  0  0  0  0  0
   -2.4132    0.6318    2.7275 H   0  0  0  0  0  0  0  0  0  0  0  0
   -1.1971    0.7118    4.4750 C   0  0  0  0  0  0  0  0  0  0  0  0
   -0.3779    1.4272    4.5748 H   0  0  0  0  0  0  0  0  0  0  0  0
   -2.0826    1.1064    4.9754 H   0  0  0  0  0  0  0  0  0  0  0  0
   -0.8992   -0.2240    4.9525 H   0  0  0  0  0  0  0  0  0  0  0  0
  5  6  2  0  0  0  0
  5  7  1  0  0  0  0
  2  3  1  0  0  0  0
  2  4  1  0  0  0  0
  2  5  1  0  0  0  0
  1  2  1  0  0  0  0
 26 27  2  0  0  0  0
 26 28  1  0  0  0  0
 23 24  1  0  0  0  0
 23 25  1  0  0  0  0
 20 21  1  0  0  0  0
 20 22  1  0  0  0  0
 20 23  1  0  0  0  0
 17 18  1  0  0  0  0
 17 19  1  0  0  0  0
 17 20  1  0  0  0  0
 14 15  1  0  0  0  0
 14 16  1  0  0  0  0
 14 17  1  0  0  0  0
 11 12  1  0  0  0  0
 11 13  1  0  0  0  0
 11 14  1  0  0  0  0
  9 10  1  0  0  0  0
  9 11  1  0  0  0  0
  9 26  1  0  0  0  0
  7  8  1  0  0  0  0
  7  9  1  0  0  0  0
 30 31  1  0  0  0  0
 30 32  1  0  0  0  0
 30 33  1  0  0  0  0
 28 29  1  0  0  0  0
 28 30  1  0  0  0  0
M  END
$$$$
default_name
  -OEChem-02102213163D

 33 32  0     1  0  0  0  0  0999 V2000
   -3.8420   -3.6918    1.5562 H   0  0  0  0  0  0  0  0  0  0  0  0
   -3.8430   -2.7008    1.1032 C   0  0  0  0  0  0  0  0  0  0  0  0
   -4.5510   -2.0608    1.6242 H   0  0  0  0  0  0  0  0  0  0  0  0
   -4.1140   -2.7798    0.0522 H   0  0  0  0  0  0  0  0  0  0  0  0
   -2.4570   -2.1098    1.2172 C   0  0  0  0  0  0  0  0  0  0  0  0
   -1.5600   -2.7438    1.7572 O   0  0  0  0  0  0  0  0  0  0  0  0
   -2.2870   -0.8898    0.7102 N   0  0  0  0  0  0  0  0  0  0  0  0
   -3.0820   -0.4218    0.2992 H   0  0  0  0  0  0  0  0  0  0  0  0
   -1.0240   -0.1468    0.7262 C   0  0  1  0  0  0  0  0  0  0  0  0
   -0.2680   -0.7367    0.2062 H   0  0  0  0  0  0  0  0  0  0  0  0
   -1.2212    1.1806   -0.0314 C   0  0  0  0  0  0  0  0  0  0  0  0
   -1.5451    1.9421    0.6810 H   0  0  0  0  0  0  0  0  0  0  0  0
   -0.2680    1.4966   -0.4575 H   0  0  0  0  0  0  0  0  0  0  0  0
   -2.2715    1.0924   -1.1496 C   0  0  0  0  0  0  0  0  0  0  0  0
   -3.1873    1.5916   -0.8319 H   0  0  0  0  0  0  0  0  0  0  0  0
   -1.8866    1.5867   -2.0435 H   0  0  0  0  0  0  0  0  0  0  0  0
   -2.5960   -0.3685   -1.4818 C   0  0  0  0  0  0  0  0  0  0  0  0
   -1.6872   -0.8838   -1.7942 H   0  0  0  0  0  0  0  0  0  0  0  0
   -3.0033   -0.8604   -0.5980 H   0  0  0  0  0  0  0  0  0  0  0  0
   -3.6224   -0.4276   -2.6114 C   0  0  0  0  0  0  0  0  0  0  0  0
   -4.5374    0.0703   -2.2948 H   0  0  0  0  0  0  0  0  0  0  0  0
   -3.2242    0.0787   -3.4892 H   0  0  0  0  0  0  0  0  0  0  0  0
   -3.9386   -1.8147   -2.9712 N   0  0  0  0  0  0  0  0  0  0  0  0
   -4.6279   -1.8160   -3.7086 H   0  0  0  0  0  0  0  0  0  0  0  0
   -3.0988   -2.2723   -3.2962 H   0  0  0  0  0  0  0  0  0  0  0  0
   -0.5564    0.0727    2.1744 C   0  0  0  0  0  0  0  0  0  0  0  0
    0.6169   -0.1288    2.4805 O   0  0  0  0  0  0  0  0  0  0  0  0
   -1.4759    0.4743    3.0595 N   0  0  0  0  0  0  0  0  0  0  0  0
   -2.4132    0.6318    2.7275 H   0  0  0  0  0  0  0  0  0  0  0  0
   -1.1971    0.7118    4.4750 C   0  0  0  0  0  0  0  0  0  0  0  0
   -0.3779    1.4272    4.5748 H   0  0  0  0  0  0  0  0  0  0  0  0
   -2.0826    1.1064    4.9754 H   0  0  0  0  0  0  0  0  0  0  0  0
   -0.8992   -0.2240    4.9525 H   0  0  0  0  0  0  0  0  0  0  0  0
  5  6  2  0  0  0  0
  5  7  1  0  0  0  0
  2  3  1  0  0  0  0
  2  4  1  0  0  0  0
  2  5  1  0  0  0  0
  1  2  1  0  0  0  0
 26 27  2  0  0  0  0
 26 28  1  0  0  0  0
 23 24  1  0  0  0  0
 23 25  1  0  0  0  0
 20 21  1  0  0  0  0
 20 22  1  0  0  0  0
 20 23  1  0  0  0  0
 17 18  1  0  0  0  0
 17 19  1  0  0  0  0
 17 20  1  0  0  0  0
 14 15  1  0  0  0  0
 14 16  1  0  0  0  0
 14 17  1  0  0  0  0
 11 12  1  0  0  0  0
 11 13  1  0  0  0  0
 11 14  1  0  0  0  0
  9 10  1  0  0  0  0
  9 11  1  0  0  0  0
  9 26  1  0  0  0  0
  7  8  1  0  0  0  0
  7  9  1  0  0  0  0
 30 31  1  0  0  0  0
 30 32  1  0  0  0  0
 30 33  1  0  0  0  0
 28 29  1  0  0  0  0
 28 30  1  0  0  0  0
M  END
$$$$
default_name
  -OEChem-02102213163D

 33 32  0     1  0  0  0  0  0999 V2000
   -3.8420   -3.6918    1.5562 H   0  0  0  0  0  0  0  0  0  0  0  0
   -3.8430   -2.7008    1.1032 C   0  0  0  0  0  0  0  0  0  0  0  0
   -4.5510   -2.0608    1.6242 H   0  0  0  0  0  0  0  0  0  0  0  0
   -4.1140   -2.7798    0.0522 H   0  0  0  0  0  0  0  0  0  0  0  0
   -2.4570   -2.1098    1.2172 C   0  0  0  0  0  0  0  0  0  0  0  0
   -1.5600   -2.7438    1.7572 O   0  0  0  0  0  0  0  0  0  0  0  0
   -2.2870   -0.8898    0.7102 N   0  0  0  0  0  0  0  0  0  0  0  0
   -3.0820   -0.4218    0.2992 H   0  0  0  0  0  0  0  0  0  0  0  0
   -1.0240   -0.1468    0.7262 C   0  0  1  0  0  0  0  0  0  0  0  0
   -0.2680   -0.7367    0.2062 H   0  0  0  0  0  0  0  0  0  0  0  0
   -1.2212    1.1806   -0.0314 C   0  0  0  0  0  0  0  0  0  0  0  0
   -1.5451    1.9421    0.6810 H   0  0  0  0  0  0  0  0  0  0  0  0
   -0.2680    1.4966   -0.4575 H   0  0  0  0  0  0  0  0  0  0  0  0
   -2.2715    1.0924   -1.1496 C   0  0  0  0  0  0  0  0  0  0  0  0
   -3.0753    1.8026   -0.9537 H   0  0  0  0  0  0  0  0  0  0  0  0
   -1.8017    1.3386   -2.1036 H   0  0  0  0  0  0  0  0  0  0  0  0
   -2.8679   -0.3174   -1.2304 C   0  0  0  0  0  0  0  0  0  0  0  0
   -2.0740   -1.0409   -1.4185 H   0  0  0  0  0  0  0  0  0  0  0  0
   -3.3593   -0.5589   -0.2875 H   0  0  0  0  0  0  0  0  0  0  0  0
   -3.8892   -0.3841   -2.3642 C   0  0  0  0  0  0  0  0  0  0  0  0
   -4.6925    0.3245   -2.1692 H   0  0  0  0  0  0  0  0  0  0  0  0
   -3.4041   -0.1259   -3.3041 H   0  0  0  0  0  0  0  0  0  0  0  0
   -4.4635   -1.7290   -2.4849 N   0  0  0  0  0  0  0  0  0  0  0  0
   -5.1421   -1.7329   -3.2322 H   0  0  0  0  0  0  0  0  0  0  0  0
   -3.7264   -2.3862   -2.6977 H   0  0  0  0  0  0  0  0  0  0  0  0
   -0.5564    0.0727    2.1744 C   0  0  0  0  0  0  0  0  0  0  0  0
    0.6169   -0.1288    2.4805 O   0  0  0  0  0  0  0  0  0  0  0  0
   -1.4759    0.4743    3.0595 N   0  0  0  0  0  0  0  0  0  0  0  0
   -2.4132    0.6318    2.7275 H   0  0  0  0  0  0  0  0  0  0  0  0
   -1.1971    0.7118    4.4750 C   0  0  0  0  0  0  0  0  0  0  0  0
   -0.3779    1.4272    4.5748 H   0  0  0  0  0  0  0  0  0  0  0  0
   -2.0826    1.1064    4.9754 H   0  0  0  0  0  0  0  0  0  0  0  0
   -0.8992   -0.2240    4.9525 H   0  0  0  0  0  0  0  0  0  0  0  0
  5  6  2  0  0  0  0
  5  7  1  0  0  0  0
  2  3  1  0  0  0  0
  2  4  1  0  0  0  0
  2  5  1  0  0  0  0
  1  2  1  0  0  0  0
 26 27  2  0  0  0  0
 26 28  1  0  0  0  0
 23 24  1  0  0  0  0
 23 25  1  0  0  0  0
 20 21  1  0  0  0  0
 20 22  1  0  0  0  0
 20 23  1  0  0  0  0
 17 18  1  0  0  0  0
 17 19  1  0  0  0  0
 17 20  1  0  0  0  0
 14 15  1  0  0  0  0
 14 16  1  0  0  0  0
 14 17  1  0  0  0  0
 11 12  1  0  0  0  0
 11 13  1  0  0  0  0
 11 14  1  0  0  0  0
  9 10  1  0  0  0  0
  9 11  1  0  0  0  0
  9 26  1  0  0  0  0
  7  8  1  0  0  0  0
  7  9  1  0  0  0  0
 30 31  1  0  0  0  0
 30 32  1  0  0  0  0
 30 33  1  0  0  0  0
 28 29  1  0  0  0  0
 28 30  1  0  0  0  0
M  END
$$$$
default_name
  -OEChem-02102213163D

 33 32  0     1  0  0  0  0  0999 V2000
   -3.8420   -3.6918    1.5562 H   0  0  0  0  0  0  0  0  0  0  0  0
   -3.8430   -2.7008    1.1032 C   0  0  0  0  0  0  0  0  0  0  0  0
   -4.5510   -2.0608    1.6242 H   0  0  0  0  0  0  0  0  0  0  0  0
   -4.1140   -2.7798    0.0522 H   0  0  0  0  0  0  0  0  0  0  0  0
   -2.4570   -2.1098    1.2172 C   0  0  0  0  0  0  0  0  0  0  0  0
   -1.5600   -2.7438    1.7572 O   0  0  0  0  0  0  0  0  0  0  0  0
   -2.2870   -0.8898    0.7102 N   0  0  0  0  0  0  0  0  0  0  0  0
   -3.0820   -0.4218    0.2992 H   0  0  0  0  0  0  0  0  0  0  0  0
   -1.0240   -0.1468    0.7262 C   0  0  1  0  0  0  0  0  0  0  0  0
   -0.2680   -0.7367    0.2062 H   0  0  0  0  0  0  0  0  0  0  0  0
   -1.2212    1.1806   -0.0314 C   0  0  0  0  0  0  0  0  0  0  0  0
   -1.5451    1.9421    0.6810 H   0  0  0  0  0  0  0  0  0  0  0  0
   -0.2680    1.4966   -0.4575 H   0  0  0  0  0  0  0  0  0  0  0  0
   -2.2715    1.0924   -1.1496 C   0  0  0  0  0  0  0  0  0  0  0  0
   -2.9256    1.9637   -1.1070 H   0  0  0  0  0  0  0  0  0  0  0  0
   -1.7655    1.0722   -2.1166 H   0  0  0  0  0  0  0  0  0  0  0  0
   -3.1246   -0.1724   -1.0007 C   0  0  0  0  0  0  0  0  0  0  0  0
   -2.4828   -1.0533   -1.0335 H   0  0  0  0  0  0  0  0  0  0  0  0
   -3.6510   -0.1456   -0.0461 H   0  0  0  0  0  0  0  0  0  0  0  0
   -4.1424   -0.2480   -2.1371 C   0  0  0  0  0  0  0  0  0  0  0  0
   -4.7964    0.6215   -2.0951 H   0  0  0  0  0  0  0  0  0  0  0  0
   -3.6191   -0.2569   -3.0918 H   0  0  0  0  0  0  0  0  0  0  0  0
   -4.9616   -1.4614   -2.0381 N   0  0  0  0  0  0  0  0  0  0  0  0
   -5.6303   -1.4716   -2.7943 H   0  0  0  0  0  0  0  0  0  0  0  0
   -4.3631   -2.2720   -2.1087 H   0  0  0  0  0  0  0  0  0  0  0  0
   -0.5564    0.0727    2.1744 C   0  0  0  0  0  0  0  0  0  0  0  0
    0.6169   -0.1288    2.4805 O   0  0  0  0  0  0  0  0  0  0  0  0
   -1.4759    0.4743    3.0595 N   0  0  0  0  0  0  0  0  0  0  0  0
   -2.4132    0.6318    2.7275 H   0  0  0  0  0  0  0  0  0  0  0  0
   -1.1971    0.7118    4.4750 C   0  0  0  0  0  0  0  0  0  0  0  0
   -0.3779    1.4272    4.5748 H   0  0  0  0  0  0  0  0  0  0  0  0
   -2.0826    1.1064    4.9754 H   0  0  0  0  0  0  0  0  0  0  0  0
   -0.8992   -0.2240    4.9525 H   0  0  0  0  0  0  0  0  0  0  0  0
  5  6  2  0  0  0  0
  5  7  1  0  0  0  0
  2  3  1  0  0  0  0
  2  4  1  0  0  0  0
  2  5  1  0  0  0  0
  1  2  1  0  0  0  0
 26 27  2  0  0  0  0
 26 28  1  0  0  0  0
 23 24  1  0  0  0  0
 23 25  1  0  0  0  0
 20 21  1  0  0  0  0
 20 22  1  0  0  0  0
 20 23  1  0  0  0  0
 17 18  1  0  0  0  0
 17 19  1  0  0  0  0
 17 20  1  0  0  0  0
 14 15  1  0  0  0  0
 14 16  1  0  0  0  0
 14 17  1  0  0  0  0
 11 12  1  0  0  0  0
 11 13  1  0  0  0  0
 11 14  1  0  0  0  0
  9 10  1  0  0  0  0
  9 11  1  0  0  0  0
  9 26  1  0  0  0  0
  7  8  1  0  0  0  0
  7  9  1  0  0  0  0
 30 31  1  0  0  0  0
 30 32  1  0  0  0  0
 30 33  1  0  0  0  0
 28 29  1  0  0  0  0
 28 30  1  0  0  0  0
M  END
$$$$
default_name
  -OEChem-02102213163D

 33 32  0     1  0  0  0  0  0999 V2000
   -3.8420   -3.6918    1.5562 H   0  0  0  0  0  0  0  0  0  0  0  0
   -3.8430   -2.7008    1.1032 C   0  0  0  0  0  0  0  0  0  0  0  0
   -4.5510   -2.0608    1.6242 H   0  0  0  0  0  0  0  0  0  0  0  0
   -4.1140   -2.7798    0.0522 H   0  0  0  0  0  0  0  0  0  0  0  0
   -2.4570   -2.1098    1.2172 C   0  0  0  0  0  0  0  0  0  0  0  0
   -1.5600   -2.7438    1.7572 O   0  0  0  0  0  0  0  0  0  0  0  0
   -2.2870   -0.8898    0.7102 N   0  0  0  0  0  0  0  0  0  0  0  0
   -3.0820   -0.4218    0.2992 H   0  0  0  0  0  0  0  0  0  0  0  0
   -1.0240   -0.1468    0.7262 C   0  0  1  0  0  0  0  0  0  0  0  0
   -0.2680   -0.7367    0.2062 H   0  0  0  0  0  0  0  0  0  0  0  0
   -1.2212    1.1806   -0.0314 C   0  0  0  0  0  0  0  0  0  0  0  0
   -1.5451    1.9421    0.6810 H   0  0  0  0  0  0  0  0  0  0  0  0
   -0.2680    1.4966   -0.4575 H   0  0  0  0  0  0  0  0  0  0  0  0
   -2.2715    1.0924   -1.1496 C   0  0  0  0  0  0  0  0  0  0  0  0
   -2.7483    2.0640   -1.2814 H   0  0  0  0  0  0  0  0  0  0  0  0
   -1.7805    0.8058   -2.0815 H   0  0  0  0  0  0  0  0  0  0  0  0
   -3.3487    0.0566   -0.8083 C   0  0  0  0  0  0  0  0  0  0  0  0
   -2.8857   -0.9203   -0.6656 H   0  0  0  0  0  0  0  0  0  0  0  0
   -3.8584    0.3512    0.1095 H   0  0  0  0  0  0  0  0  0  0  0  0
   -4.3647   -0.0287   -1.9456 C   0  0  0  0  0  0  0  0  0  0  0  0
   -4.8418    0.9411   -2.0777 H   0  0  0  0  0  0  0  0  0  0  0  0
   -3.8546   -0.3054   -2.8668 H   0  0  0  0  0  0  0  0  0  0  0  0
   -5.3990   -1.0301   -1.6613 N   0  0  0  0  0  0  0  0  0  0  0  0
   -6.0590   -1.0497   -2.4249 H   0  0  0  0  0  0  0  0  0  0  0  0
   -4.9652   -1.9376   -1.5695 H   0  0  0  0  0  0  0  0  0  0  0  0
   -0.5564    0.0727    2.1744 C   0  0  0  0  0  0  0  0  0  0  0  0
    0.6169   -0.1288    2.4805 O   0  0  0  0  0  0  0  0  0  0  0  0
   -1.4759    0.4743    3.0595 N   0  0  0  0  0  0  0  0  0  0  0  0
   -2.4132    0.6318    2.7275 H   0  0  0  0  0  0  0  0  0  0  0  0
   -1.1971    0.7118    4.4750 C   0  0  0  0  0  0  0  0  0  0  0  0
   -0.3779    1.4272    4.5748 H   0  0  0  0  0  0  0  0  0  0  0  0
   -2.0826    1.1064    4.9754 H   0  0  0  0  0  0  0  0  0  0  0  0
   -0.8992   -0.2240    4.9525 H   0  0  0  0  0  0  0  0  0  0  0  0
  5  6  2  0  0  0  0
  5  7  1  0  0  0  0
  2  3  1  0  0  0  0
  2  4  1  0  0  0  0
  2  5  1  0  0  0  0
  1  2  1  0  0  0  0
 26 27  2  0  0  0  0
 26 28  1  0  0  0  0
 23 24  1  0  0  0  0
 23 25  1  0  0  0  0
 20 21  1  0  0  0  0
 20 22  1  0  0  0  0
 20 23  1  0  0  0  0
 17 18  1  0  0  0  0
 17 19  1  0  0  0  0
 17 20  1  0  0  0  0
 14 15  1  0  0  0  0
 14 16  1  0  0  0  0
 14 17  1  0  0  0  0
 11 12  1  0  0  0  0
 11 13  1  0  0  0  0
 11 14  1  0  0  0  0
  9 10  1  0  0  0  0
  9 11  1  0  0  0  0
  9 26  1  0  0  0  0
  7  8  1  0  0  0  0
  7  9  1  0  0  0  0
 30 31  1  0  0  0  0
 30 32  1  0  0  0  0
 30 33  1  0  0  0  0
 28 29  1  0  0  0  0
 28 30  1  0  0  0  0
M  END
$$$$
default_name
  -OEChem-02102213163D

 33 32  0     1  0  0  0  0  0999 V2000
   -3.8420   -3.6918    1.5562 H   0  0  0  0  0  0  0  0  0  0  0  0
   -3.8430   -2.7008    1.1032 C   0  0  0  0  0  0  0  0  0  0  0  0
   -4.5510   -2.0608    1.6242 H   0  0  0  0  0  0  0  0  0  0  0  0
   -4.1140   -2.7798    0.0522 H   0  0  0  0  0  0  0  0  0  0  0  0
   -2.4570   -2.1098    1.2172 C   0  0  0  0  0  0  0  0  0  0  0  0
   -1.5600   -2.7438    1.7572 O   0  0  0  0  0  0  0  0  0  0  0  0
   -2.2870   -0.8898    0.7102 N   0  0  0  0  0  0  0  0  0  0  0  0
   -3.0820   -0.4218    0.2992 H   0  0  0  0  0  0  0  0  0  0  0  0
   -1.0240   -0.1468    0.7262 C   0  0  1  0  0  0  0  0  0  0  0  0
   -0.2680   -0.7367    0.2062 H   0  0  0  0  0  0  0  0  0  0  0  0
   -1.2212    1.1806   -0.0314 C   0  0  0  0  0  0  0  0  0  0  0  0
   -1.5451    1.9421    0.6810 H   0  0  0  0  0  0  0  0  0  0  0  0
   -0.2680    1.4966   -0.4575 H   0  0  0  0  0  0  0  0  0  0  0  0
   -2.2715    1.0924   -1.1496 C   0  0  0  0  0  0  0  0  0  0  0  0
   -2.5557    2.0967   -1.4650 H   0  0  0  0  0  0  0  0  0  0  0  0
   -1.8457    0.5576   -2.0006 H   0  0  0  0  0  0  0  0  0  0  0  0
   -3.5249    0.3541   -0.6662 C   0  0  0  0  0  0  0  0  0  0  0  0
   -3.2553   -0.6507   -0.3397 H   0  0  0  0  0  0  0  0  0  0  0  0
   -3.9676    0.8977    0.1689 H   0  0  0  0  0  0  0  0  0  0  0  0
   -4.5410    0.2589   -1.8027 C   0  0  0  0  0  0  0  0  0  0  0  0
   -4.8258    1.2614   -2.1180 H   0  0  0  0  0  0  0  0  0  0  0  0
   -4.0946   -0.2681   -2.6443 H   0  0  0  0  0  0  0  0  0  0  0  0
   -5.7459   -0.4644   -1.3802 N   0  0  0  0  0  0  0  0  0  0  0  0
   -6.3992   -0.4961   -2.1490 H   0  0  0  0  0  0  0  0  0  0  0  0
   -5.4919   -1.4059   -1.1167 H   0  0  0  0  0  0  0  0  0  0  0  0
   -0.5564    0.0727    2.1744 C   0  0  0  0  0  0  0  0  0  0  0  0
    0.6169   -0.1288    2.4805 O   0  0  0  0  0  0  0  0  0  0  0  0
   -1.4759    0.4743    3.0595 N   0  0  0  0  0  0  0  0  0  0  0  0
   -2.4132    0.6318    2.7275 H   0  0  0  0  0  0  0  0  0  0  0  0
   -1.1971    0.7118    4.4750 C   0  0  0  0  0  0  0  0  0  0  0  0
   -0.3779    1.4272    4.5748 H   0  0  0  0  0  0  0  0  0  0  0  0
   -2.0826    1.1064    4.9754 H   0  0  0  0  0  0  0  0  0  0  0  0
   -0.8992   -0.2240    4.9525 H   0  0  0  0  0  0  0  0  0  0  0  0
  5  6  2  0  0  0  0
  5  7  1  0  0  0  0
  2  3  1  0  0  0  0
  2  4  1  0  0  0  0
  2  5  1  0  0  0  0
  1  2  1  0  0  0  0
 26 27  2  0  0  0  0
 26 28  1  0  0  0  0
 23 24  1  0  0  0  0
 23 25  1  0  0  0  0
 20 21  1  0  0  0  0
 20 22  1  0  0  0  0
 20 23  1  0  0  0  0
 17 18  1  0  0  0  0
 17 19  1  0  0  0  0
 17 20  1  0  0  0  0
 14 15  1  0  0  0  0
 14 16  1  0  0  0  0
 14 17  1  0  0  0  0
 11 12  1  0  0  0  0
 11 13  1  0  0  0  0
 11 14  1  0  0  0  0
  9 10  1  0  0  0  0
  9 11  1  0  0  0  0
  9 26  1  0  0  0  0
  7  8  1  0  0  0  0
  7  9  1  0  0  0  0
 30 31  1  0  0  0  0
 30 32  1  0  0  0  0
 30 33  1  0  0  0  0
 28 29  1  0  0  0  0
 28 30  1  0  0  0  0
M  END
$$$$
default_name
  -OEChem-02102213163D

 33 32  0     1  0  0  0  0  0999 V2000
   -3.8420   -3.6918    1.5562 H   0  0  0  0  0  0  0  0  0  0  0  0
   -3.8430   -2.7008    1.1032 C   0  0  0  0  0  0  0  0  0  0  0  0
   -4.5510   -2.0608    1.6242 H   0  0  0  0  0  0  0  0  0  0  0  0
   -4.1140   -2.7798    0.0522 H   0  0  0  0  0  0  0  0  0  0  0  0
   -2.4570   -2.1098    1.2172 C   0  0  0  0  0  0  0  0  0  0  0  0
   -1.5600   -2.7438    1.7572 O   0  0  0  0  0  0  0  0  0  0  0  0
   -2.2870   -0.8898    0.7102 N   0  0  0  0  0  0  0  0  0  0  0  0
   -3.0820   -0.4218    0.2992 H   0  0  0  0  0  0  0  0  0  0  0  0
   -1.0240   -0.1468    0.7262 C   0  0  1  0  0  0  0  0  0  0  0  0
   -0.2680   -0.7367    0.2062 H   0  0  0  0  0  0  0  0  0  0  0  0
   -1.2212    1.1806   -0.0314 C   0  0  0  0  0  0  0  0  0  0  0  0
   -1.5451    1.9421    0.6810 H   0  0  0  0  0  0  0  0  0  0  0  0
   -0.2680    1.4966   -0.4575 H   0  0  0  0  0  0  0  0  0  0  0  0
   -2.2715    1.0924   -1.1496 C   0  0  0  0  0  0  0  0  0  0  0  0
   -2.3607    2.0595   -1.6452 H   0  0  0  0  0  0  0  0  0  0  0  0
   -1.9567    0.3444   -1.8796 H   0  0  0  0  0  0  0  0  0  0  0  0
   -3.6412    0.6998   -0.5843 C   0  0  0  0  0  0  0  0  0  0  0  0
   -3.5664   -0.2631   -0.0781 H   0  0  0  0  0  0  0  0  0  0  0  0
   -3.9710    1.4566    0.1280 H   0  0  0  0  0  0  0  0  0  0  0  0
   -4.6593    0.5951   -1.7181 C   0  0  0  0  0  0  0  0  0  0  0  0
   -4.7494    1.5606   -2.2134 H   0  0  0  0  0  0  0  0  0  0  0  0
   -4.3227   -0.1475   -2.4396 H   0  0  0  0  0  0  0  0  0  0  0  0
   -5.9786    0.1971   -1.2138 N   0  0  0  0  0  0  0  0  0  0  0  0
   -6.6277    0.1516   -1.9856 H   0  0  0  0  0  0  0  0  0  0  0  0
   -5.9072   -0.7129   -0.7813 H   0  0  0  0  0  0  0  0  0  0  0  0
   -0.5564    0.0727    2.1744 C   0  0  0  0  0  0  0  0  0  0  0  0
    0.6169   -0.1288    2.4805 O   0  0  0  0  0  0  0  0  0  0  0  0
   -1.4759    0.4743    3.0595 N   0  0  0  0  0  0  0  0  0  0  0  0
   -2.4132    0.6318    2.7275 H   0  0  0  0  0  0  0  0  0  0  0  0
   -1.1971    0.7118    4.4750 C   0  0  0  0  0  0  0  0  0  0  0  0
   -0.3779    1.4272    4.5748 H   0  0  0  0  0  0  0  0  0  0  0  0
   -2.0826    1.1064    4.9754 H   0  0  0  0  0  0  0  0  0  0  0  0
   -0.8992   -0.2240    4.9525 H   0  0  0  0  0  0  0  0  0  0  0  0
  5  6  2  0  0  0  0
  5  7  1  0  0  0  0
  2  3  1  0  0  0  0
  2  4  1  0  0  0  0
  2  5  1  0  0  0  0
  1  2  1  0  0  0  0
 26 27  2  0  0  0  0
 26 28  1  0  0  0  0
 23 24  1  0  0  0  0
 23 25  1  0  0  0  0
 20 21  1  0  0  0  0
 20 22  1  0  0  0  0
 20 23  1  0  0  0  0
 17 18  1  0  0  0  0
 17 19  1  0  0  0  0
 17 20  1  0  0  0  0
 14 15  1  0  0  0  0
 14 16  1  0  0  0  0
 14 17  1  0  0  0  0
 11 12  1  0  0  0  0
 11 13  1  0  0  0  0
 11 14  1  0  0  0  0
  9 10  1  0  0  0  0
  9 11  1  0  0  0  0
  9 26  1  0  0  0  0
  7  8  1  0  0  0  0
  7  9  1  0  0  0  0
 30 31  1  0  0  0  0
 30 32  1  0  0  0  0
 30 33  1  0  0  0  0
 28 29  1  0  0  0  0
 28 30  1  0  0  0  0
M  END
$$$$
default_name
  -OEChem-02102213163D

 33 32  0     1  0  0  0  0  0999 V2000
   -3.8420   -3.6918    1.5562 H   0  0  0  0  0  0  0  0  0  0  0  0
   -3.8430   -2.7008    1.1032 C   0  0  0  0  0  0  0  0  0  0  0  0
   -4.5510   -2.0608    1.6242 H   0  0  0  0  0  0  0  0  0  0  0  0
   -4.1140   -2.7798    0.0522 H   0  0  0  0  0  0  0  0  0  0  0  0
   -2.4570   -2.1098    1.2172 C   0  0  0  0  0  0  0  0  0  0  0  0
   -1.5600   -2.7438    1.7572 O   0  0  0  0  0  0  0  0  0  0  0  0
   -2.2870   -0.8898    0.7102 N   0  0  0  0  0  0  0  0  0  0  0  0
   -3.0820   -0.4218    0.2992 H   0  0  0  0  0  0  0  0  0  0  0  0
   -1.0240   -0.1468    0.7262 C   0  0  1  0  0  0  0  0  0  0  0  0
   -0.2680   -0.7367    0.2062 H   0  0  0  0  0  0  0  0  0  0  0  0
   -1.2212    1.1806   -0.0314 C   0  0  0  0  0  0  0  0  0  0  0  0
   -1.5451    1.9421    0.6810 H   0  0  0  0  0  0  0  0  0  0  0  0
   -0.2680    1.4966   -0.4575 H   0  0  0  0  0  0  0  0  0  0  0  0
   -2.2715    1.0924   -1.1496 C   0  0  0  0  0  0  0  0  0  0  0  0
   -2.1766    1.9550   -1.8098 H   0  0  0  0  0  0  0  0  0  0  0  0
   -2.1058    0.1807   -1.7266 H   0  0  0  0  0  0  0  0  0  0  0  0
   -3.6896    1.0701   -0.5680 C   0  0  0  0  0  0  0  0  0  0  0  0
   -3.7977    0.2161    0.1014 H   0  0  0  0  0  0  0  0  0  0  0  0
   -3.8684    1.9899   -0.0104 H   0  0  0  0  0  0  0  0  0  0  0  0
   -4.7115    0.9572   -1.6977 C   0  0  0  0  0  0  0  0  0  0  0  0
   -4.6178    1.8184   -2.3573 H   0  0  0  0  0  0  0  0  0  0  0  0
   -4.5233    0.0481   -2.2666 H   0  0  0  0  0  0  0  0  0  0  0  0
   -6.0812    0.9093   -1.1736 N   0  0  0  0  0  0  0  0  0  0  0  0
   -6.7288    0.8490   -1.9456 H   0  0  0  0  0  0  0  0  0  0  0  0
   -6.1829    0.0940   -0.5861 H   0  0  0  0  0  0  0  0  0  0  0  0
   -0.5564    0.0727    2.1744 C   0  0  0  0  0  0  0  0  0  0  0  0
    0.6169   -0.1288    2.4805 O   0  0  0  0  0  0  0  0  0  0  0  0
   -1.4759    0.4743    3.0595 N   0  0  0  0  0  0  0  0  0  0  0  0
   -2.4132    0.6318    2.7275 H   0  0  0  0  0  0  0  0  0  0  0  0
   -1.1971    0.7118    4.4750 C   0  0  0  0  0  0  0  0  0  0  0  0
   -0.3779    1.4272    4.5748 H   0  0  0  0  0  0  0  0  0  0  0  0
   -2.0826    1.1064    4.9754 H   0  0  0  0  0  0  0  0  0  0  0  0
   -0.8992   -0.2240    4.9525 H   0  0  0  0  0  0  0  0  0  0  0  0
  5  6  2  0  0  0  0
  5  7  1  0  0  0  0
  2  3  1  0  0  0  0
  2  4  1  0  0  0  0
  2  5  1  0  0  0  0
  1  2  1  0  0  0  0
 26 27  2  0  0  0  0
 26 28  1  0  0  0  0
 23 24  1  0  0  0  0
 23 25  1  0  0  0  0
 20 21  1  0  0  0  0
 20 22  1  0  0  0  0
 20 23  1  0  0  0  0
 17 18  1  0  0  0  0
 17 19  1  0  0  0  0
 17 20  1  0  0  0  0
 14 15  1  0  0  0  0
 14 16  1  0  0  0  0
 14 17  1  0  0  0  0
 11 12  1  0  0  0  0
 11 13  1  0  0  0  0
 11 14  1  0  0  0  0
  9 10  1  0  0  0  0
  9 11  1  0  0  0  0
  9 26  1  0  0  0  0
  7  8  1  0  0  0  0
  7  9  1  0  0  0  0
 30 31  1  0  0  0  0
 30 32  1  0  0  0  0
 30 33  1  0  0  0  0
 28 29  1  0  0  0  0
 28 30  1  0  0  0  0
M  END
$$$$
default_name
  -OEChem-02102213163D

 33 32  0     1  0  0  0  0  0999 V2000
   -3.8420   -3.6918    1.5562 H   0  0  0  0  0  0  0  0  0  0  0  0
   -3.8430   -2.7008    1.1032 C   0  0  0  0  0  0  0  0  0  0  0  0
   -4.5510   -2.0608    1.6242 H   0  0  0  0  0  0  0  0  0  0  0  0
   -4.1140   -2.7798    0.0522 H   0  0  0  0  0  0  0  0  0  0  0  0
   -2.4570   -2.1098    1.2172 C   0  0  0  0  0  0  0  0  0  0  0  0
   -1.5600   -2.7438    1.7572 O   0  0  0  0  0  0  0  0  0  0  0  0
   -2.2870   -0.8898    0.7102 N   0  0  0  0  0  0  0  0  0  0  0  0
   -3.0820   -0.4218    0.2992 H   0  0  0  0  0  0  0  0  0  0  0  0
   -1.0240   -0.1468    0.7262 C   0  0  1  0  0  0  0  0  0  0  0  0
   -0.2680   -0.7367    0.2062 H   0  0  0  0  0  0  0  0  0  0  0  0
   -1.2212    1.1806   -0.0314 C   0  0  0  0  0  0  0  0  0  0  0  0
   -1.5451    1.9421    0.6810 H   0  0  0  0  0  0  0  0  0  0  0  0
   -0.2680    1.4966   -0.4575 H   0  0  0  0  0  0  0  0  0  0  0  0
   -2.2715    1.0924   -1.1496 C   0  0  0  0  0  0  0  0  0  0  0  0
   -2.0161    1.7902   -1.9476 H   0  0  0  0  0  0  0  0  0  0  0  0
   -2.2829    0.0778   -1.5521 H   0  0  0  0  0  0  0  0  0  0  0  0
   -3.6669    1.4397   -0.6186 C   0  0  0  0  0  0  0  0  0  0  0  0
   -3.9336    0.7544    0.1866 H   0  0  0  0  0  0  0  0  0  0  0  0
   -3.6668    2.4612   -0.2370 H   0  0  0  0  0  0  0  0  0  0  0  0
   -4.6940    1.3203   -1.7428 C   0  0  0  0  0  0  0  0  0  0  0  0
   -4.4400    2.0171   -2.5400 H   0  0  0  0  0  0  0  0  0  0  0  0
   -4.6829    0.3055   -2.1371 H   0  0  0  0  0  0  0  0  0  0  0  0
   -6.0469    1.6237   -1.2623 N   0  0  0  0  0  0  0  0  0  0  0  0
   -6.6957    1.5489   -2.0320 H   0  0  0  0  0  0  0  0  0  0  0  0
   -6.3001    0.9598   -0.5443 H   0  0  0  0  0  0  0  0  0  0  0  0
   -0.5564    0.0727    2.1744 C   0  0  0  0  0  0  0  0  0  0  0  0
    0.6169   -0.1288    2.4805 O   0  0  0  0  0  0  0  0  0  0  0  0
   -1.4759    0.4743    3.0595 N   0  0  0  0  0  0  0  0  0  0  0  0
   -2.4132    0.6318    2.7275 H   0  0  0  0  0  0  0  0  0  0  0  0
   -1.1971    0.7118    4.4750 C   0  0  0  0  0  0  0  0  0  0  0  0
   -0.3779    1.4272    4.5748 H   0  0  0  0  0  0  0  0  0  0  0  0
   -2.0826    1.1064    4.9754 H   0  0  0  0  0  0  0  0  0  0  0  0
   -0.8992   -0.2240    4.9525 H   0  0  0  0  0  0  0  0  0  0  0  0
  5  6  2  0  0  0  0
  5  7  1  0  0  0  0
  2  3  1  0  0  0  0
  2  4  1  0  0  0  0
  2  5  1  0  0  0  0
  1  2  1  0  0  0  0
 26 27  2  0  0  0  0
 26 28  1  0  0  0  0
 23 24  1  0  0  0  0
 23 25  1  0  0  0  0
 20 21  1  0  0  0  0
 20 22  1  0  0  0  0
 20 23  1  0  0  0  0
 17 18  1  0  0  0  0
 17 19  1  0  0  0  0
 17 20  1  0  0  0  0
 14 15  1  0  0  0  0
 14 16  1  0  0  0  0
 14 17  1  0  0  0  0
 11 12  1  0  0  0  0
 11 13  1  0  0  0  0
 11 14  1  0  0  0  0
  9 10  1  0  0  0  0
  9 11  1  0  0  0  0
  9 26  1  0  0  0  0
  7  8  1  0  0  0  0
  7  9  1  0  0  0  0
 30 31  1  0  0  0  0
 30 32  1  0  0  0  0
 30 33  1  0  0  0  0
 28 29  1  0  0  0  0
 28 30  1  0  0  0  0
M  END
$$$$
default_name
  -OEChem-02102213163D

 33 32  0     1  0  0  0  0  0999 V2000
   -3.8420   -3.6918    1.5562 H   0  0  0  0  0  0  0  0  0  0  0  0
   -3.8430   -2.7008    1.1032 C   0  0  0  0  0  0  0  0  0  0  0  0
   -4.5510   -2.0608    1.6242 H   0  0  0  0  0  0  0  0  0  0  0  0
   -4.1140   -2.7798    0.0522 H   0  0  0  0  0  0  0  0  0  0  0  0
   -2.4570   -2.1098    1.2172 C   0  0  0  0  0  0  0  0  0  0  0  0
   -1.5600   -2.7438    1.7572 O   0  0  0  0  0  0  0  0  0  0  0  0
   -2.2870   -0.8898    0.7102 N   0  0  0  0  0  0  0  0  0  0  0  0
   -3.0820   -0.4218    0.2992 H   0  0  0  0  0  0  0  0  0  0  0  0
   -1.0240   -0.1468    0.7262 C   0  0  1  0  0  0  0  0  0  0  0  0
   -0.2680   -0.7367    0.2062 H   0  0  0  0  0  0  0  0  0  0  0  0
   -1.2212    1.1806   -0.0314 C   0  0  0  0  0  0  0  0  0  0  0  0
   -1.5451    1.9421    0.6810 H   0  0  0  0  0  0  0  0  0  0  0  0
   -0.2680    1.4966   -0.4575 H   0  0  0  0  0  0  0  0  0  0  0  0
   -2.2715    1.0924   -1.1496 C   0  0  0  0  0  0  0  0  0  0  0  0
   -1.8901    1.5765   -2.0491 H   0  0  0  0  0  0  0  0  0  0  0  0
   -2.4760    0.0427   -1.3680 H   0  0  0  0  0  0  0  0  0  0  0  0
   -3.5745    1.7836   -0.7324 C   0  0  0  0  0  0  0  0  0  0  0  0
   -3.9648    1.3150    0.1716 H   0  0  0  0  0  0  0  0  0  0  0  0
   -3.3799    2.8383   -0.5362 H   0  0  0  0  0  0  0  0  0  0  0  0
   -4.6080    1.6598   -1.8504 C   0  0  0  0  0  0  0  0  0  0  0  0
   -4.2281    2.1433   -2.7489 H   0  0  0  0  0  0  0  0  0  0  0  0
   -4.7904    0.6070   -2.0599 H   0  0  0  0  0  0  0  0  0  0  0  0
   -5.8778    2.2916   -1.4738 N   0  0  0  0  0  0  0  0  0  0  0  0
   -6.5306    2.2034   -2.2386 H   0  0  0  0  0  0  0  0  0  0  0  0
   -6.2508    1.8256   -0.6589 H   0  0  0  0  0  0  0  0  0  0  0  0
   -0.5564    0.0727    2.1744 C   0  0  0  0  0  0  0  0  0  0  0  0
    0.6169   -0.1288    2.4805 O   0  0  0  0  0  0  0  0  0  0  0  0
   -1.4759    0.4743    3.0595 N   0  0  0  0  0  0  0  0  0  0  0  0
   -2.4132    0.6318    2.7275 H   0  0  0  0  0  0  0  0  0  0  0  0
   -1.1971    0.7118    4.4750 C   0  0  0  0  0  0  0  0  0  0  0  0
   -0.3779    1.4272    4.5748 H   0  0  0  0  0  0  0  0  0  0  0  0
   -2.0826    1.1064    4.9754 H   0  0  0  0  0  0  0  0  0  0  0  0
   -0.8992   -0.2240    4.9525 H   0  0  0  0  0  0  0  0  0  0  0  0
  5  6  2  0  0  0  0
  5  7  1  0  0  0  0
  2  3  1  0  0  0  0
  2  4  1  0  0  0  0
  2  5  1  0  0  0  0
  1  2  1  0  0  0  0
 26 27  2  0  0  0  0
 26 28  1  0  0  0  0
 23 24  1  0  0  0  0
 23 25  1  0  0  0  0
 20 21  1  0  0  0  0
 20 22  1  0  0  0  0
 20 23  1  0  0  0  0
 17 18  1  0  0  0  0
 17 19  1  0  0  0  0
 17 20  1  0  0  0  0
 14 15  1  0  0  0  0
 14 16  1  0  0  0  0
 14 17  1  0  0  0  0
 11 12  1  0  0  0  0
 11 13  1  0  0  0  0
 11 14  1  0  0  0  0
  9 10  1  0  0  0  0
  9 11  1  0  0  0  0
  9 26  1  0  0  0  0
  7  8  1  0  0  0  0
  7  9  1  0  0  0  0
 30 31  1  0  0  0  0
 30 32  1  0  0  0  0
 30 33  1  0  0  0  0
 28 29  1  0  0  0  0
 28 30  1  0  0  0  0
M  END
$$$$
default_name
  -OEChem-02102213163D

 33 32  0     1  0  0  0  0  0999 V2000
   -3.8420   -3.6918    1.5562 H   0  0  0  0  0  0  0  0  0  0  0  0
   -3.8430   -2.7008    1.1032 C   0  0  0  0  0  0  0  0  0  0  0  0
   -4.5510   -2.0608    1.6242 H   0  0  0  0  0  0  0  0  0  0  0  0
   -4.1140   -2.7798    0.0522 H   0  0  0  0  0  0  0  0  0  0  0  0
   -2.4570   -2.1098    1.2172 C   0  0  0  0  0  0  0  0  0  0  0  0
   -1.5600   -2.7438    1.7572 O   0  0  0  0  0  0  0  0  0  0  0  0
   -2.2870   -0.8898    0.7102 N   0  0  0  0  0  0  0  0  0  0  0  0
   -3.0820   -0.4218    0.2992 H   0  0  0  0  0  0  0  0  0  0  0  0
   -1.0240   -0.1468    0.7262 C   0  0  1  0  0  0  0  0  0  0  0  0
   -0.2680   -0.7367    0.2062 H   0  0  0  0  0  0  0  0  0  0  0  0
   -1.2212    1.1806   -0.0314 C   0  0  0  0  0  0  0  0  0  0  0  0
   -1.5451    1.9421    0.6810 H   0  0  0  0  0  0  0  0  0  0  0  0
   -0.2680    1.4966   -0.4575 H   0  0  0  0  0  0  0  0  0  0  0  0
   -2.2715    1.0924   -1.1496 C   0  0  0  0  0  0  0  0  0  0  0  0
   -1.8071    1.3283   -2.1075 H   0  0  0  0  0  0  0  0  0  0  0  0
   -2.6719    0.0776   -1.1868 H   0  0  0  0  0  0  0  0  0  0  0  0
   -3.4189    2.0782   -0.9018 C   0  0  0  0  0  0  0  0  0  0  0  0
   -3.8891    1.8597    0.0575 H   0  0  0  0  0  0  0  0  0  0  0  0
   -3.0274    3.0957   -0.8876 H   0  0  0  0  0  0  0  0  0  0  0  0
   -4.4594    1.9525   -2.0130 C   0  0  0  0  0  0  0  0  0  0  0  0
   -3.9966    2.1883   -2.9699 H   0  0  0  0  0  0  0  0  0  0  0  0
   -4.8386    0.9323   -2.0402 H   0  0  0  0  0  0  0  0  0  0  0  0
   -5.5855    2.8674   -1.7937 N   0  0  0  0  0  0  0  0  0  0  0  0
   -6.2448    2.7679   -2.5516 H   0  0  0  0  0  0  0  0  0  0  0  0
   -6.0385    2.6324   -0.9220 H   0  0  0  0  0  0  0  0  0  0  0  0
   -0.5564    0.0727    2.1744 C   0  0  0  0  0  0  0  0  0  0  0  0
    0.6169   -0.1288    2.4805 O   0  0  0  0  0  0  0  0  0  0  0  0
   -1.4759    0.4743    3.0595 N   0  0  0  0  0  0  0  0  0  0  0  0
   -2.4132    0.6318    2.7275 H   0  0  0  0  0  0  0  0  0  0  0  0
   -1.1971    0.7118    4.4750 C   0  0  0  0  0  0  0  0  0  0  0  0
   -0.3779    1.4272    4.5748 H   0  0  0  0  0  0  0  0  0  0  0  0
   -2.0826    1.1064    4.9754 H   0  0  0  0  0  0  0  0  0  0  0  0
   -0.8992   -0.2240    4.9525 H   0  0  0  0  0  0  0  0  0  0  0  0
  5  6  2  0  0  0  0
  5  7  1  0  0  0  0
  2  3  1  0  0  0  0
  2  4  1  0  0  0  0
  2  5  1  0  0  0  0
  1  2  1  0  0  0  0
 26 27  2  0  0  0  0
 26 28  1  0  0  0  0
 23 24  1  0  0  0  0
 23 25  1  0  0  0  0
 20 21  1  0  0  0  0
 20 22  1  0  0  0  0
 20 23  1  0  0  0  0
 17 18  1  0  0  0  0
 17 19  1  0  0  0  0
 17 20  1  0  0  0  0
 14 15  1  0  0  0  0
 14 16  1  0  0  0  0
 14 17  1  0  0  0  0
 11 12  1  0  0  0  0
 11 13  1  0  0  0  0
 11 14  1  0  0  0  0
  9 10  1  0  0  0  0
  9 11  1  0  0  0  0
  9 26  1  0  0  0  0
  7  8  1  0  0  0  0
  7  9  1  0  0  0  0
 30 31  1  0  0  0  0
 30 32  1  0  0  0  0
 30 33  1  0  0  0  0
 28 29  1  0  0  0  0
 28 30  1  0  0  0  0
M  END
$$$$
default_name
  -OEChem-02102213163D

 33 32  0     1  0  0  0  0  0999 V2000
   -3.8420   -3.6918    1.5562 H   0  0  0  0  0  0  0  0  0  0  0  0
   -3.8430   -2.7008    1.1032 C   0  0  0  0  0  0  0  0  0  0  0  0
   -4.5510   -2.0608    1.6242 H   0  0  0  0  0  0  0  0  0  0  0  0
   -4.1140   -2.7798    0.0522 H   0  0  0  0  0  0  0  0  0  0  0  0
   -2.4570   -2.1098    1.2172 C   0  0  0  0  0  0  0  0  0  0  0  0
   -1.5600   -2.7438    1.7572 O   0  0  0  0  0  0  0  0  0  0  0  0
   -2.2870   -0.8898    0.7102 N   0  0  0  0  0  0  0  0  0  0  0  0
   -3.0820   -0.4218    0.2992 H   0  0  0  0  0  0  0  0  0  0  0  0
   -1.0240   -0.1468    0.7262 C   0  0  1  0  0  0  0  0  0  0  0  0
   -0.2680   -0.7367    0.2062 H   0  0  0  0  0  0  0  0  0  0  0  0
   -1.2212    1.1806   -0.0314 C   0  0  0  0  0  0  0  0  0  0  0  0
   -1.5451    1.9421    0.6810 H   0  0  0  0  0  0  0  0  0  0  0  0
   -0.2680    1.4966   -0.4575 H   0  0  0  0  0  0  0  0  0  0  0  0
   -2.2715    1.0924   -1.1496 C   0  0  0  0  0  0  0  0  0  0  0  0
   -1.7727    1.0626   -2.1188 H   0  0  0  0  0  0  0  0  0  0  0  0
   -2.8571    0.1803   -1.0209 H   0  0  0  0  0  0  0  0  0  0  0  0
   -3.2106    2.3034   -1.1153 C   0  0  0  0  0  0  0  0  0  0  0  0
   -3.7116    2.3514   -0.1480 H   0  0  0  0  0  0  0  0  0  0  0  0
   -2.6331    3.2157   -1.2674 H   0  0  0  0  0  0  0  0  0  0  0  0
   -4.2583    2.1784   -2.2197 C   0  0  0  0  0  0  0  0  0  0  0  0
   -3.7612    2.1491   -3.1879 H   0  0  0  0  0  0  0  0  0  0  0  0
   -4.8242    1.2589   -2.0795 H   0  0  0  0  0  0  0  0  0  0  0  0
   -5.1900    3.3120   -2.2003 N   0  0  0  0  0  0  0  0  0  0  0  0
   -5.8578    3.2040   -2.9495 H   0  0  0  0  0  0  0  0  0  0  0  0
   -5.6775    3.3251   -1.3157 H   0  0  0  0  0  0  0  0  0  0  0  0
   -0.5564    0.0727    2.1744 C   0  0  0  0  0  0  0  0  0  0  0  0
    0.6169   -0.1288    2.4805 O   0  0  0  0  0  0  0  0  0  0  0  0
   -1.4759    0.4743    3.0595 N   0  0  0  0  0  0  0  0  0  0  0  0
   -2.4132    0.6318    2.7275 H   0  0  0  0  0  0  0  0  0  0  0  0
   -1.1971    0.7118    4.4750 C   0  0  0  0  0  0  0  0  0  0  0  0
   -0.3779    1.4272    4.5748 H   0  0  0  0  0  0  0  0  0  0  0  0
   -2.0826    1.1064    4.9754 H   0  0  0  0  0  0  0  0  0  0  0  0
   -0.8992   -0.2240    4.9525 H   0  0  0  0  0  0  0  0  0  0  0  0
  5  6  2  0  0  0  0
  5  7  1  0  0  0  0
  2  3  1  0  0  0  0
  2  4  1  0  0  0  0
  2  5  1  0  0  0  0
  1  2  1  0  0  0  0
 26 27  2  0  0  0  0
 26 28  1  0  0  0  0
 23 24  1  0  0  0  0
 23 25  1  0  0  0  0
 20 21  1  0  0  0  0
 20 22  1  0  0  0  0
 20 23  1  0  0  0  0
 17 18  1  0  0  0  0
 17 19  1  0  0  0  0
 17 20  1  0  0  0  0
 14 15  1  0  0  0  0
 14 16  1  0  0  0  0
 14 17  1  0  0  0  0
 11 12  1  0  0  0  0
 11 13  1  0  0  0  0
 11 14  1  0  0  0  0
  9 10  1  0  0  0  0
  9 11  1  0  0  0  0
  9 26  1  0  0  0  0
  7  8  1  0  0  0  0
  7  9  1  0  0  0  0
 30 31  1  0  0  0  0
 30 32  1  0  0  0  0
 30 33  1  0  0  0  0
 28 29  1  0  0  0  0
 28 30  1  0  0  0  0
M  END
$$$$
default_name
  -OEChem-02102213163D

 33 32  0     1  0  0  0  0  0999 V2000
   -3.8420   -3.6918    1.5562 H   0  0  0  0  0  0  0  0  0  0  0  0
   -3.8430   -2.7008    1.1032 C   0  0  0  0  0  0  0  0  0  0  0  0
   -4.5510   -2.0608    1.6242 H   0  0  0  0  0  0  0  0  0  0  0  0
   -4.1140   -2.7798    0.0522 H   0  0  0  0  0  0  0  0  0  0  0  0
   -2.4570   -2.1098    1.2172 C   0  0  0  0  0  0  0  0  0  0  0  0
   -1.5600   -2.7438    1.7572 O   0  0  0  0  0  0  0  0  0  0  0  0
   -2.2870   -0.8898    0.7102 N   0  0  0  0  0  0  0  0  0  0  0  0
   -3.0820   -0.4218    0.2992 H   0  0  0  0  0  0  0  0  0  0  0  0
   -1.0240   -0.1468    0.7262 C   0  0  1  0  0  0  0  0  0  0  0  0
   -0.2680   -0.7367    0.2062 H   0  0  0  0  0  0  0  0  0  0  0  0
   -1.2212    1.1806   -0.0314 C   0  0  0  0  0  0  0  0  0  0  0  0
   -1.5451    1.9421    0.6810 H   0  0  0  0  0  0  0  0  0  0  0  0
   -0.2680    1.4966   -0.4575 H   0  0  0  0  0  0  0  0  0  0  0  0
   -2.2715    1.0924   -1.1496 C   0  0  0  0  0  0  0  0  0  0  0  0
   -1.7895    0.7975   -2.0821 H   0  0  0  0  0  0  0  0  0  0  0  0
   -3.0192    0.3438   -0.8815 H   0  0  0  0  0  0  0  0  0  0  0  0
   -2.9638    2.4441   -1.3582 C   0  0  0  0  0  0  0  0  0  0  0  0
   -3.4446    2.7565   -0.4308 H   0  0  0  0  0  0  0  0  0  0  0  0
   -2.2240    3.1902   -1.6496 H   0  0  0  0  0  0  0  0  0  0  0  0
   -4.0185    2.3223   -2.4563 C   0  0  0  0  0  0  0  0  0  0  0  0
   -3.5380    2.0283   -3.3881 H   0  0  0  0  0  0  0  0  0  0  0  0
   -4.7483    1.5648   -2.1750 H   0  0  0  0  0  0  0  0  0  0  0  0
   -4.7182    3.5950   -2.6658 N   0  0  0  0  0  0  0  0  0  0  0  0
   -5.3959    3.4820   -3.4053 H   0  0  0  0  0  0  0  0  0  0  0  0
   -5.1925    3.8566   -1.8132 H   0  0  0  0  0  0  0  0  0  0  0  0
   -0.5564    0.0727    2.1744 C   0  0  0  0  0  0  0  0  0  0  0  0
    0.6169   -0.1288    2.4805 O   0  0  0  0  0  0  0  0  0  0  0  0
   -1.4759    0.4743    3.0595 N   0  0  0  0  0  0  0  0  0  0  0  0
   -2.4132    0.6318    2.7275 H   0  0  0  0  0  0  0  0  0  0  0  0
   -1.1971    0.7118    4.4750 C   0  0  0  0  0  0  0  0  0  0  0  0
   -0.3779    1.4272    4.5748 H   0  0  0  0  0  0  0  0  0  0  0  0
   -2.0826    1.1064    4.9754 H   0  0  0  0  0  0  0  0  0  0  0  0
   -0.8992   -0.2240    4.9525 H   0  0  0  0  0  0  0  0  0  0  0  0
  5  6  2  0  0  0  0
  5  7  1  0  0  0  0
  2  3  1  0  0  0  0
  2  4  1  0  0  0  0
  2  5  1  0  0  0  0
  1  2  1  0  0  0  0
 26 27  2  0  0  0  0
 26 28  1  0  0  0  0
 23 24  1  0  0  0  0
 23 25  1  0  0  0  0
 20 21  1  0  0  0  0
 20 22  1  0  0  0  0
 20 23  1  0  0  0  0
 17 18  1  0  0  0  0
 17 19  1  0  0  0  0
 17 20  1  0  0  0  0
 14 15  1  0  0  0  0
 14 16  1  0  0  0  0
 14 17  1  0  0  0  0
 11 12  1  0  0  0  0
 11 13  1  0  0  0  0
 11 14  1  0  0  0  0
  9 10  1  0  0  0  0
  9 11  1  0  0  0  0
  9 26  1  0  0  0  0
  7  8  1  0  0  0  0
  7  9  1  0  0  0  0
 30 31  1  0  0  0  0
 30 32  1  0  0  0  0
 30 33  1  0  0  0  0
 28 29  1  0  0  0  0
 28 30  1  0  0  0  0
M  END
$$$$
default_name
  -OEChem-02102213163D

 33 32  0     1  0  0  0  0  0999 V2000
   -3.8420   -3.6918    1.5562 H   0  0  0  0  0  0  0  0  0  0  0  0
   -3.8430   -2.7008    1.1032 C   0  0  0  0  0  0  0  0  0  0  0  0
   -4.5510   -2.0608    1.6242 H   0  0  0  0  0  0  0  0  0  0  0  0
   -4.1140   -2.7798    0.0522 H   0  0  0  0  0  0  0  0  0  0  0  0
   -2.4570   -2.1098    1.2172 C   0  0  0  0  0  0  0  0  0  0  0  0
   -1.5600   -2.7438    1.7572 O   0  0  0  0  0  0  0  0  0  0  0  0
   -2.2870   -0.8898    0.7102 N   0  0  0  0  0  0  0  0  0  0  0  0
   -3.0820   -0.4218    0.2992 H   0  0  0  0  0  0  0  0  0  0  0  0
   -1.0240   -0.1468    0.7262 C   0  0  1  0  0  0  0  0  0  0  0  0
   -0.2680   -0.7367    0.2062 H   0  0  0  0  0  0  0  0  0  0  0  0
   -1.2212    1.1806   -0.0314 C   0  0  0  0  0  0  0  0  0  0  0  0
   -1.5451    1.9421    0.6810 H   0  0  0  0  0  0  0  0  0  0  0  0
   -0.2680    1.4966   -0.4575 H   0  0  0  0  0  0  0  0  0  0  0  0
   -2.2715    1.0924   -1.1496 C   0  0  0  0  0  0  0  0  0  0  0  0
   -1.8561    0.5511   -2.0001 H   0  0  0  0  0  0  0  0  0  0  0  0
   -3.1471    0.5568   -0.7782 H   0  0  0  0  0  0  0  0  0  0  0  0
   -2.6953    2.4904   -1.6141 C   0  0  0  0  0  0  0  0  0  0  0  0
   -3.1061    3.0476   -0.7716 H   0  0  0  0  0  0  0  0  0  0  0  0
   -1.8280    3.0210   -2.0083 H   0  0  0  0  0  0  0  0  0  0  0  0
   -3.7562    2.3742   -2.7068 C   0  0  0  0  0  0  0  0  0  0  0  0
   -3.3422    1.8342   -3.5567 H   0  0  0  0  0  0  0  0  0  0  0  0
   -4.6158    1.8291   -2.3203 H   0  0  0  0  0  0  0  0  0  0  0  0
   -4.2023    3.6972   -3.1585 N   0  0  0  0  0  0  0  0  0  0  0  0
   -4.8907    3.5828   -3.8879 H   0  0  0  0  0  0  0  0  0  0  0  0
   -4.6166    4.1906   -2.3805 H   0  0  0  0  0  0  0  0  0  0  0  0
   -0.5564    0.0727    2.1744 C   0  0  0  0  0  0  0  0  0  0  0  0
    0.6169   -0.1288    2.4805 O   0  0  0  0  0  0  0  0  0  0  0  0
   -1.4759    0.4743    3.0595 N   0  0  0  0  0  0  0  0  0  0  0  0
   -2.4132    0.6318    2.7275 H   0  0  0  0  0  0  0  0  0  0  0  0
   -1.1971    0.7118    4.4750 C   0  0  0  0  0  0  0  0  0  0  0  0
   -0.3779    1.4272    4.5748 H   0  0  0  0  0  0  0  0  0  0  0  0
   -2.0826    1.1064    4.9754 H   0  0  0  0  0  0  0  0  0  0  0  0
   -0.8992   -0.2240    4.9525 H   0  0  0  0  0  0  0  0  0  0  0  0
  5  6  2  0  0  0  0
  5  7  1  0  0  0  0
  2  3  1  0  0  0  0
  2  4  1  0  0  0  0
  2  5  1  0  0  0  0
  1  2  1  0  0  0  0
 26 27  2  0  0  0  0
 26 28  1  0  0  0  0
 23 24  1  0  0  0  0
 23 25  1  0  0  0  0
 20 21  1  0  0  0  0
 20 22  1  0  0  0  0
 20 23  1  0  0  0  0
 17 18  1  0  0  0  0
 17 19  1  0  0  0  0
 17 20  1  0  0  0  0
 14 15  1  0  0  0  0
 14 16  1  0  0  0  0
 14 17  1  0  0  0  0
 11 12  1  0  0  0  0
 11 13  1  0  0  0  0
 11 14  1  0  0  0  0
  9 10  1  0  0  0  0
  9 11  1  0  0  0  0
  9 26  1  0  0  0  0
  7  8  1  0  0  0  0
  7  9  1  0  0  0  0
 30 31  1  0  0  0  0
 30 32  1  0  0  0  0
 30 33  1  0  0  0  0
 28 29  1  0  0  0  0
 28 30  1  0  0  0  0
M  END
$$$$
default_name
  -OEChem-02102213163D

 33 32  0     1  0  0  0  0  0999 V2000
   -3.8420   -3.6918    1.5562 H   0  0  0  0  0  0  0  0  0  0  0  0
   -3.8430   -2.7008    1.1032 C   0  0  0  0  0  0  0  0  0  0  0  0
   -4.5510   -2.0608    1.6242 H   0  0  0  0  0  0  0  0  0  0  0  0
   -4.1140   -2.7798    0.0522 H   0  0  0  0  0  0  0  0  0  0  0  0
   -2.4570   -2.1098    1.2172 C   0  0  0  0  0  0  0  0  0  0  0  0
   -1.5600   -2.7438    1.7572 O   0  0  0  0  0  0  0  0  0  0  0  0
   -2.2870   -0.8898    0.7102 N   0  0  0  0  0  0  0  0  0  0  0  0
   -3.0820   -0.4218    0.2992 H   0  0  0  0  0  0  0  0  0  0  0  0
   -1.0240   -0.1468    0.7262 C   0  0  1  0  0  0  0  0  0  0  0  0
   -0.2680   -0.7367    0.2062 H   0  0  0  0  0  0  0  0  0  0  0  0
   -1.2212    1.1806   -0.0314 C   0  0  0  0  0  0  0  0  0  0  0  0
   -1.2799    1.9911    0.6979 H   0  0  0  0  0  0  0  0  0  0  0  0
   -0.3568    1.3610   -0.6720 H   0  0  0  0  0  0  0  0  0  0  0  0
   -2.4989    1.2099   -0.8846 C   0  0  0  0  0  0  0  0  0  0  0  0
   -2.4625    0.4109   -1.6257 H   0  0  0  0  0  0  0  0  0  0  0  0
   -3.3656    1.0589   -0.2385 H   0  0  0  0  0  0  0  0  0  0  0  0
   -2.6404    2.5515   -1.6125 C   0  0  0  0  0  0  0  0  0  0  0  0
   -2.6704    3.3623   -0.8839 H   0  0  0  0  0  0  0  0  0  0  0  0
   -1.7885    2.6960   -2.2775 H   0  0  0  0  0  0  0  0  0  0  0  0
   -3.9292    2.5630   -2.4323 C   0  0  0  0  0  0  0  0  0  0  0  0
   -3.8936    1.7657   -3.1730 H   0  0  0  0  0  0  0  0  0  0  0  0
   -4.7797    2.4011   -1.7722 H   0  0  0  0  0  0  0  0  0  0  0  0
   -4.1081    3.8444   -3.1247 N   0  0  0  0  0  0  0  0  0  0  0  0
   -4.9595    3.8117   -3.6660 H   0  0  0  0  0  0  0  0  0  0  0  0
   -4.1739    4.5845   -2.4403 H   0  0  0  0  0  0  0  0  0  0  0  0
   -0.5564    0.0727    2.1744 C   0  0  0  0  0  0  0  0  0  0  0  0
    0.6169   -0.1288    2.4805 O   0  0  0  0  0  0  0  0  0  0  0  0
   -1.4759    0.4743    3.0595 N   0  0  0  0  0  0  0  0  0  0  0  0
   -2.4132    0.6318    2.7275 H   0  0  0  0  0  0  0  0  0  0  0  0
   -1.1971    0.7118    4.4750 C   0  0  0  0  0  0  0  0  0  0  0  0
   -0.3779    1.4272    4.5748 H   0  0  0  0  0  0  0  0  0  0  0  0
   -2.0826    1.1064    4.9754 H   0  0  0  0  0  0  0  0  0  0  0  0
   -0.8992   -0.2240    4.9525 H   0  0  0  0  0  0  0  0  0  0  0  0
  5  6  2  0  0  0  0
  5  7  1  0  0  0  0
  2  3  1  0  0  0  0
  2  4  1  0  0  0  0
  2  5  1  0  0  0  0
  1  2  1  0  0  0  0
 26 27  2  0  0  0  0
 26 28  1  0  0  0  0
 23 24  1  0  0  0  0
 23 25  1  0  0  0  0
 20 21  1  0  0  0  0
 20 22  1  0  0  0  0
 20 23  1  0  0  0  0
 17 18  1  0  0  0  0
 17 19  1  0  0  0  0
 17 20  1  0  0  0  0
 14 15  1  0  0  0  0
 14 16  1  0  0  0  0
 14 17  1  0  0  0  0
 11 12  1  0  0  0  0
 11 13  1  0  0  0  0
 11 14  1  0  0  0  0
  9 10  1  0  0  0  0
  9 11  1  0  0  0  0
  9 26  1  0  0  0  0
  7  8  1  0  0  0  0
  7  9  1  0  0  0  0
 30 31  1  0  0  0  0
 30 32  1  0  0  0  0
 30 33  1  0  0  0  0
 28 29  1  0  0  0  0
 28 30  1  0  0  0  0
M  END
$$$$
default_name
  -OEChem-02102213163D

 33 32  0     1  0  0  0  0  0999 V2000
   -3.8420   -3.6918    1.5562 H   0  0  0  0  0  0  0  0  0  0  0  0
   -3.8430   -2.7008    1.1032 C   0  0  0  0  0  0  0  0  0  0  0  0
   -4.5510   -2.0608    1.6242 H   0  0  0  0  0  0  0  0  0  0  0  0
   -4.1140   -2.7798    0.0522 H   0  0  0  0  0  0  0  0  0  0  0  0
   -2.4570   -2.1098    1.2172 C   0  0  0  0  0  0  0  0  0  0  0  0
   -1.5600   -2.7438    1.7572 O   0  0  0  0  0  0  0  0  0  0  0  0
   -2.2870   -0.8898    0.7102 N   0  0  0  0  0  0  0  0  0  0  0  0
   -3.0820   -0.4218    0.2992 H   0  0  0  0  0  0  0  0  0  0  0  0
   -1.0240   -0.1468    0.7262 C   0  0  1  0  0  0  0  0  0  0  0  0
   -0.2680   -0.7367    0.2062 H   0  0  0  0  0  0  0  0  0  0  0  0
   -1.2212    1.1806   -0.0314 C   0  0  0  0  0  0  0  0  0  0  0  0
   -1.2799    1.9911    0.6979 H   0  0  0  0  0  0  0  0  0  0  0  0
   -0.3568    1.3610   -0.6720 H   0  0  0  0  0  0  0  0  0  0  0  0
   -2.4989    1.2099   -0.8846 C   0  0  0  0  0  0  0  0  0  0  0  0
   -2.5926    0.2736   -1.4356 H   0  0  0  0  0  0  0  0  0  0  0  0
   -3.3647    1.3279   -0.2305 H   0  0  0  0  0  0  0  0  0  0  0  0
   -2.4619    2.3698   -1.8860 C   0  0  0  0  0  0  0  0  0  0  0  0
   -2.3604    3.3139   -1.3498 H   0  0  0  0  0  0  0  0  0  0  0  0
   -1.6119    2.2437   -2.5573 H   0  0  0  0  0  0  0  0  0  0  0  0
   -3.7524    2.3908   -2.7030 C   0  0  0  0  0  0  0  0  0  0  0  0
   -3.8466    1.4564   -3.2539 H   0  0  0  0  0  0  0  0  0  0  0  0
   -4.6035    2.4989   -2.0327 H   0  0  0  0  0  0  0  0  0  0  0  0
   -3.7603    3.5056   -3.6572 N   0  0  0  0  0  0  0  0  0  0  0  0
   -4.6186    3.4805   -4.1878 H   0  0  0  0  0  0  0  0  0  0  0  0
   -3.7052    4.3769   -3.1492 H   0  0  0  0  0  0  0  0  0  0  0  0
   -0.5564    0.0727    2.1744 C   0  0  0  0  0  0  0  0  0  0  0  0
    0.6169   -0.1288    2.4805 O   0  0  0  0  0  0  0  0  0  0  0  0
   -1.4759    0.4743    3.0595 N   0  0  0  0  0  0  0  0  0  0  0  0
   -2.4132    0.6318    2.7275 H   0  0  0  0  0  0  0  0  0  0  0  0
   -1.1971    0.7118    4.4750 C   0  0  0  0  0  0  0  0  0  0  0  0
   -0.3779    1.4272    4.5748 H   0  0  0  0  0  0  0  0  0  0  0  0
   -2.0826    1.1064    4.9754 H   0  0  0  0  0  0  0  0  0  0  0  0
   -0.8992   -0.2240    4.9525 H   0  0  0  0  0  0  0  0  0  0  0  0
  5  6  2  0  0  0  0
  5  7  1  0  0  0  0
  2  3  1  0  0  0  0
  2  4  1  0  0  0  0
  2  5  1  0  0  0  0
  1  2  1  0  0  0  0
 26 27  2  0  0  0  0
 26 28  1  0  0  0  0
 23 24  1  0  0  0  0
 23 25  1  0  0  0  0
 20 21  1  0  0  0  0
 20 22  1  0  0  0  0
 20 23  1  0  0  0  0
 17 18  1  0  0  0  0
 17 19  1  0  0  0  0
 17 20  1  0  0  0  0
 14 15  1  0  0  0  0
 14 16  1  0  0  0  0
 14 17  1  0  0  0  0
 11 12  1  0  0  0  0
 11 13  1  0  0  0  0
 11 14  1  0  0  0  0
  9 10  1  0  0  0  0
  9 11  1  0  0  0  0
  9 26  1  0  0  0  0
  7  8  1  0  0  0  0
  7  9  1  0  0  0  0
 30 31  1  0  0  0  0
 30 32  1  0  0  0  0
 30 33  1  0  0  0  0
 28 29  1  0  0  0  0
 28 30  1  0  0  0  0
M  END
$$$$
default_name
  -OEChem-02102213163D

 33 32  0     1  0  0  0  0  0999 V2000
   -3.8420   -3.6918    1.5562 H   0  0  0  0  0  0  0  0  0  0  0  0
   -3.8430   -2.7008    1.1032 C   0  0  0  0  0  0  0  0  0  0  0  0
   -4.5510   -2.0608    1.6242 H   0  0  0  0  0  0  0  0  0  0  0  0
   -4.1140   -2.7798    0.0522 H   0  0  0  0  0  0  0  0  0  0  0  0
   -2.4570   -2.1098    1.2172 C   0  0  0  0  0  0  0  0  0  0  0  0
   -1.5600   -2.7438    1.7572 O   0  0  0  0  0  0  0  0  0  0  0  0
   -2.2870   -0.8898    0.7102 N   0  0  0  0  0  0  0  0  0  0  0  0
   -3.0820   -0.4218    0.2992 H   0  0  0  0  0  0  0  0  0  0  0  0
   -1.0240   -0.1468    0.7262 C   0  0  1  0  0  0  0  0  0  0  0  0
   -0.2680   -0.7367    0.2062 H   0  0  0  0  0  0  0  0  0  0  0  0
   -1.2212    1.1806   -0.0314 C   0  0  0  0  0  0  0  0  0  0  0  0
   -1.2799    1.9911    0.6979 H   0  0  0  0  0  0  0  0  0  0  0  0
   -0.3568    1.3610   -0.6720 H   0  0  0  0  0  0  0  0  0  0  0  0
   -2.4989    1.2099   -0.8846 C   0  0  0  0  0  0  0  0  0  0  0  0
   -2.7370    0.2007   -1.2218 H   0  0  0  0  0  0  0  0  0  0  0  0
   -3.3252    1.5893   -0.2807 H   0  0  0  0  0  0  0  0  0  0  0  0
   -2.3169    2.1099   -2.1121 C   0  0  0  0  0  0  0  0  0  0  0  0
   -2.0702    3.1223   -1.7909 H   0  0  0  0  0  0  0  0  0  0  0  0
   -1.5078    1.7212   -2.7312 H   0  0  0  0  0  0  0  0  0  0  0  0
   -3.6077    2.1407   -2.9282 C   0  0  0  0  0  0  0  0  0  0  0  0
   -3.8461    1.1334   -3.2658 H   0  0  0  0  0  0  0  0  0  0  0  0
   -4.4205    2.5119   -2.3062 H   0  0  0  0  0  0  0  0  0  0  0  0
   -3.4756    3.0137   -4.1003 N   0  0  0  0  0  0  0  0  0  0  0  0
   -4.3395    2.9993   -4.6224 H   0  0  0  0  0  0  0  0  0  0  0  0
   -3.2859    3.9565   -3.7915 H   0  0  0  0  0  0  0  0  0  0  0  0
   -0.5564    0.0727    2.1744 C   0  0  0  0  0  0  0  0  0  0  0  0
    0.6169   -0.1288    2.4805 O   0  0  0  0  0  0  0  0  0  0  0  0
   -1.4759    0.4743    3.0595 N   0  0  0  0  0  0  0  0  0  0  0  0
   -2.4132    0.6318    2.7275 H   0  0  0  0  0  0  0  0  0  0  0  0
   -1.1971    0.7118    4.4750 C   0  0  0  0  0  0  0  0  0  0  0  0
   -0.3779    1.4272    4.5748 H   0  0  0  0  0  0  0  0  0  0  0  0
   -2.0826    1.1064    4.9754 H   0  0  0  0  0  0  0  0  0  0  0  0
   -0.8992   -0.2240    4.9525 H   0  0  0  0  0  0  0  0  0  0  0  0
  5  6  2  0  0  0  0
  5  7  1  0  0  0  0
  2  3  1  0  0  0  0
  2  4  1  0  0  0  0
  2  5  1  0  0  0  0
  1  2  1  0  0  0  0
 26 27  2  0  0  0  0
 26 28  1  0  0  0  0
 23 24  1  0  0  0  0
 23 25  1  0  0  0  0
 20 21  1  0  0  0  0
 20 22  1  0  0  0  0
 20 23  1  0  0  0  0
 17 18  1  0  0  0  0
 17 19  1  0  0  0  0
 17 20  1  0  0  0  0
 14 15  1  0  0  0  0
 14 16  1  0  0  0  0
 14 17  1  0  0  0  0
 11 12  1  0  0  0  0
 11 13  1  0  0  0  0
 11 14  1  0  0  0  0
  9 10  1  0  0  0  0
  9 11  1  0  0  0  0
  9 26  1  0  0  0  0
  7  8  1  0  0  0  0
  7  9  1  0  0  0  0
 30 31  1  0  0  0  0
 30 32  1  0  0  0  0
 30 33  1  0  0  0  0
 28 29  1  0  0  0  0
 28 30  1  0  0  0  0
M  END
$$$$
default_name
  -OEChem-02102213163D

 33 32  0     1  0  0  0  0  0999 V2000
   -3.8420   -3.6918    1.5562 H   0  0  0  0  0  0  0  0  0  0  0  0
   -3.8430   -2.7008    1.1032 C   0  0  0  0  0  0  0  0  0  0  0  0
   -4.5510   -2.0608    1.6242 H   0  0  0  0  0  0  0  0  0  0  0  0
   -4.1140   -2.7798    0.0522 H   0  0  0  0  0  0  0  0  0  0  0  0
   -2.4570   -2.1098    1.2172 C   0  0  0  0  0  0  0  0  0  0  0  0
   -1.5600   -2.7438    1.7572 O   0  0  0  0  0  0  0  0  0  0  0  0
   -2.2870   -0.8898    0.7102 N   0  0  0  0  0  0  0  0  0  0  0  0
   -3.0820   -0.4218    0.2992 H   0  0  0  0  0  0  0  0  0  0  0  0
   -1.0240   -0.1468    0.7262 C   0  0  1  0  0  0  0  0  0  0  0  0
   -0.2680   -0.7367    0.2062 H   0  0  0  0  0  0  0  0  0  0  0  0
   -1.2212    1.1806   -0.0314 C   0  0  0  0  0  0  0  0  0  0  0  0
   -1.2799    1.9911    0.6979 H   0  0  0  0  0  0  0  0  0  0  0  0
   -0.3568    1.3610   -0.6720 H   0  0  0  0  0  0  0  0  0  0  0  0
   -2.4989    1.2099   -0.8846 C   0  0  0  0  0  0  0  0  0  0  0  0
   -2.8860    0.1970   -0.9989 H   0  0  0  0  0  0  0  0  0  0  0  0
   -3.2497    1.8253   -0.3857 H   0  0  0  0  0  0  0  0  0  0  0  0
   -2.2153    1.7892   -2.2752 C   0  0  0  0  0  0  0  0  0  0  0  0
   -1.8196    2.8006   -2.1771 H   0  0  0  0  0  0  0  0  0  0  0  0
   -1.4832    1.1641   -2.7871 H   0  0  0  0  0  0  0  0  0  0  0  0
   -3.5049    1.8299   -3.0927 C   0  0  0  0  0  0  0  0  0  0  0  0
   -3.8920    0.8187   -3.2077 H   0  0  0  0  0  0  0  0  0  0  0  0
   -4.2433    2.4393   -2.5742 H   0  0  0  0  0  0  0  0  0  0  0  0
   -3.2735    2.4023   -4.4239 N   0  0  0  0  0  0  0  0  0  0  0  0
   -4.1411    2.4008   -4.9399 H   0  0  0  0  0  0  0  0  0  0  0  0
   -2.9444    3.3520   -4.3236 H   0  0  0  0  0  0  0  0  0  0  0  0
   -0.5564    0.0727    2.1744 C   0  0  0  0  0  0  0  0  0  0  0  0
    0.6169   -0.1288    2.4805 O   0  0  0  0  0  0  0  0  0  0  0  0
   -1.4759    0.4743    3.0595 N   0  0  0  0  0  0  0  0  0  0  0  0
   -2.4132    0.6318    2.7275 H   0  0  0  0  0  0  0  0  0  0  0  0
   -1.1971    0.7118    4.4750 C   0  0  0  0  0  0  0  0  0  0  0  0
   -0.3779    1.4272    4.5748 H   0  0  0  0  0  0  0  0  0  0  0  0
   -2.0826    1.1064    4.9754 H   0  0  0  0  0  0  0  0  0  0  0  0
   -0.8992   -0.2240    4.9525 H   0  0  0  0  0  0  0  0  0  0  0  0
  5  6  2  0  0  0  0
  5  7  1  0  0  0  0
  2  3  1  0  0  0  0
  2  4  1  0  0  0  0
  2  5  1  0  0  0  0
  1  2  1  0  0  0  0
 26 27  2  0  0  0  0
 26 28  1  0  0  0  0
 23 24  1  0  0  0  0
 23 25  1  0  0  0  0
 20 21  1  0  0  0  0
 20 22  1  0  0  0  0
 20 23  1  0  0  0  0
 17 18  1  0  0  0  0
 17 19  1  0  0  0  0
 17 20  1  0  0  0  0
 14 15  1  0  0  0  0
 14 16  1  0  0  0  0
 14 17  1  0  0  0  0
 11 12  1  0  0  0  0
 11 13  1  0  0  0  0
 11 14  1  0  0  0  0
  9 10  1  0  0  0  0
  9 11  1  0  0  0  0
  9 26  1  0  0  0  0
  7  8  1  0  0  0  0
  7  9  1  0  0  0  0
 30 31  1  0  0  0  0
 30 32  1  0  0  0  0
 30 33  1  0  0  0  0
 28 29  1  0  0  0  0
 28 30  1  0  0  0  0
M  END
$$$$
default_name
  -OEChem-02102213163D

 33 32  0     1  0  0  0  0  0999 V2000
   -3.8420   -3.6918    1.5562 H   0  0  0  0  0  0  0  0  0  0  0  0
   -3.8430   -2.7008    1.1032 C   0  0  0  0  0  0  0  0  0  0  0  0
   -4.5510   -2.0608    1.6242 H   0  0  0  0  0  0  0  0  0  0  0  0
   -4.1140   -2.7798    0.0522 H   0  0  0  0  0  0  0  0  0  0  0  0
   -2.4570   -2.1098    1.2172 C   0  0  0  0  0  0  0  0  0  0  0  0
   -1.5600   -2.7438    1.7572 O   0  0  0  0  0  0  0  0  0  0  0  0
   -2.2870   -0.8898    0.7102 N   0  0  0  0  0  0  0  0  0  0  0  0
   -3.0820   -0.4218    0.2992 H   0  0  0  0  0  0  0  0  0  0  0  0
   -1.0240   -0.1468    0.7262 C   0  0  1  0  0  0  0  0  0  0  0  0
   -0.2680   -0.7367    0.2062 H   0  0  0  0  0  0  0  0  0  0  0  0
   -1.2212    1.1806   -0.0314 C   0  0  0  0  0  0  0  0  0  0  0  0
   -1.2799    1.9911    0.6979 H   0  0  0  0  0  0  0  0  0  0  0  0
   -0.3568    1.3610   -0.6720 H   0  0  0  0  0  0  0  0  0  0  0  0
   -2.4989    1.2099   -0.8846 C   0  0  0  0  0  0  0  0  0  0  0  0
   -3.0293    0.2628   -0.7821 H   0  0  0  0  0  0  0  0  0  0  0  0
   -3.1434    2.0198   -0.5382 H   0  0  0  0  0  0  0  0  0  0  0  0
   -2.1641    1.4299   -2.3643 C   0  0  0  0  0  0  0  0  0  0  0  0
   -1.6257    2.3708   -2.4822 H   0  0  0  0  0  0  0  0  0  0  0  0
   -1.5397    0.6104   -2.7215 H   0  0  0  0  0  0  0  0  0  0  0  0
   -3.4512    1.4795   -3.1852 C   0  0  0  0  0  0  0  0  0  0  0  0
   -3.9814    0.5339   -3.0837 H   0  0  0  0  0  0  0  0  0  0  0  0
   -4.0838    2.2861   -2.8182 H   0  0  0  0  0  0  0  0  0  0  0  0
   -3.1677    1.7130   -4.6059 N   0  0  0  0  0  0  0  0  0  0  0  0
   -4.0371    1.7259   -5.1188 H   0  0  0  0  0  0  0  0  0  0  0  0
   -2.7041    2.6045   -4.7091 H   0  0  0  0  0  0  0  0  0  0  0  0
   -0.5564    0.0727    2.1744 C   0  0  0  0  0  0  0  0  0  0  0  0
    0.6169   -0.1288    2.4805 O   0  0  0  0  0  0  0  0  0  0  0  0
   -1.4759    0.4743    3.0595 N   0  0  0  0  0  0  0  0  0  0  0  0
   -2.4132    0.6318    2.7275 H   0  0  0  0  0  0  0  0  0  0  0  0
   -1.1971    0.7118    4.4750 C   0  0  0  0  0  0  0  0  0  0  0  0
   -0.3779    1.4272    4.5748 H   0  0  0  0  0  0  0  0  0  0  0  0
   -2.0826    1.1064    4.9754 H   0  0  0  0  0  0  0  0  0  0  0  0
   -0.8992   -0.2240    4.9525 H   0  0  0  0  0  0  0  0  0  0  0  0
  5  6  2  0  0  0  0
  5  7  1  0  0  0  0
  2  3  1  0  0  0  0
  2  4  1  0  0  0  0
  2  5  1  0  0  0  0
  1  2  1  0  0  0  0
 26 27  2  0  0  0  0
 26 28  1  0  0  0  0
 23 24  1  0  0  0  0
 23 25  1  0  0  0  0
 20 21  1  0  0  0  0
 20 22  1  0  0  0  0
 20 23  1  0  0  0  0
 17 18  1  0  0  0  0
 17 19  1  0  0  0  0
 17 20  1  0  0  0  0
 14 15  1  0  0  0  0
 14 16  1  0  0  0  0
 14 17  1  0  0  0  0
 11 12  1  0  0  0  0
 11 13  1  0  0  0  0
 11 14  1  0  0  0  0
  9 10  1  0  0  0  0
  9 11  1  0  0  0  0
  9 26  1  0  0  0  0
  7  8  1  0  0  0  0
  7  9  1  0  0  0  0
 30 31  1  0  0  0  0
 30 32  1  0  0  0  0
 30 33  1  0  0  0  0
 28 29  1  0  0  0  0
 28 30  1  0  0  0  0
M  END
$$$$
default_name
  -OEChem-02102213163D

 33 32  0     1  0  0  0  0  0999 V2000
   -3.8420   -3.6918    1.5562 H   0  0  0  0  0  0  0  0  0  0  0  0
   -3.8430   -2.7008    1.1032 C   0  0  0  0  0  0  0  0  0  0  0  0
   -4.5510   -2.0608    1.6242 H   0  0  0  0  0  0  0  0  0  0  0  0
   -4.1140   -2.7798    0.0522 H   0  0  0  0  0  0  0  0  0  0  0  0
   -2.4570   -2.1098    1.2172 C   0  0  0  0  0  0  0  0  0  0  0  0
   -1.5600   -2.7438    1.7572 O   0  0  0  0  0  0  0  0  0  0  0  0
   -2.2870   -0.8898    0.7102 N   0  0  0  0  0  0  0  0  0  0  0  0
   -3.0820   -0.4218    0.2992 H   0  0  0  0  0  0  0  0  0  0  0  0
   -1.0240   -0.1468    0.7262 C   0  0  1  0  0  0  0  0  0  0  0  0
   -0.2680   -0.7367    0.2062 H   0  0  0  0  0  0  0  0  0  0  0  0
   -1.2212    1.1806   -0.0314 C   0  0  0  0  0  0  0  0  0  0  0  0
   -1.2799    1.9911    0.6979 H   0  0  0  0  0  0  0  0  0  0  0  0
   -0.3568    1.3610   -0.6720 H   0  0  0  0  0  0  0  0  0  0  0  0
   -2.4989    1.2099   -0.8846 C   0  0  0  0  0  0  0  0  0  0  0  0
   -3.1572    0.3936   -0.5860 H   0  0  0  0  0  0  0  0  0  0  0  0
   -3.0135    2.1596   -0.7279 H   0  0  0  0  0  0  0  0  0  0  0  0
   -2.1666    1.0562   -2.3732 C   0  0  0  0  0  0  0  0  0  0  0  0
   -1.5017    1.8621   -2.6854 H   0  0  0  0  0  0  0  0  0  0  0  0
   -1.6736    0.0978   -2.5386 H   0  0  0  0  0  0  0  0  0  0  0  0
   -3.4501    1.1134   -3.1994 C   0  0  0  0  0  0  0  0  0  0  0  0
   -4.1080    0.2983   -2.9022 H   0  0  0  0  0  0  0  0  0  0  0  0
   -3.9530    2.0626   -3.0218 H   0  0  0  0  0  0  0  0  0  0  0  0
   -3.1655    0.9929   -4.6339 N   0  0  0  0  0  0  0  0  0  0  0  0
   -4.0345    1.0205   -5.1468 H   0  0  0  0  0  0  0  0  0  0  0  0
   -2.5813    1.7649   -4.9218 H   0  0  0  0  0  0  0  0  0  0  0  0
   -0.5564    0.0727    2.1744 C   0  0  0  0  0  0  0  0  0  0  0  0
    0.6169   -0.1288    2.4805 O   0  0  0  0  0  0  0  0  0  0  0  0
   -1.4759    0.4743    3.0595 N   0  0  0  0  0  0  0  0  0  0  0  0
   -2.4132    0.6318    2.7275 H   0  0  0  0  0  0  0  0  0  0  0  0
   -1.1971    0.7118    4.4750 C   0  0  0  0  0  0  0  0  0  0  0  0
   -0.3779    1.4272    4.5748 H   0  0  0  0  0  0  0  0  0  0  0  0
   -2.0826    1.1064    4.9754 H   0  0  0  0  0  0  0  0  0  0  0  0
   -0.8992   -0.2240    4.9525 H   0  0  0  0  0  0  0  0  0  0  0  0
  5  6  2  0  0  0  0
  5  7  1  0  0  0  0
  2  3  1  0  0  0  0
  2  4  1  0  0  0  0
  2  5  1  0  0  0  0
  1  2  1  0  0  0  0
 26 27  2  0  0  0  0
 26 28  1  0  0  0  0
 23 24  1  0  0  0  0
 23 25  1  0  0  0  0
 20 21  1  0  0  0  0
 20 22  1  0  0  0  0
 20 23  1  0  0  0  0
 17 18  1  0  0  0  0
 17 19  1  0  0  0  0
 17 20  1  0  0  0  0
 14 15  1  0  0  0  0
 14 16  1  0  0  0  0
 14 17  1  0  0  0  0
 11 12  1  0  0  0  0
 11 13  1  0  0  0  0
 11 14  1  0  0  0  0
  9 10  1  0  0  0  0
  9 11  1  0  0  0  0
  9 26  1  0  0  0  0
  7  8  1  0  0  0  0
  7  9  1  0  0  0  0
 30 31  1  0  0  0  0
 30 32  1  0  0  0  0
 30 33  1  0  0  0  0
 28 29  1  0  0  0  0
 28 30  1  0  0  0  0
M  END
$$$$
default_name
  -OEChem-02102213163D

 33 32  0     1  0  0  0  0  0999 V2000
   -3.8420   -3.6918    1.5562 H   0  0  0  0  0  0  0  0  0  0  0  0
   -3.8430   -2.7008    1.1032 C   0  0  0  0  0  0  0  0  0  0  0  0
   -4.5510   -2.0608    1.6242 H   0  0  0  0  0  0  0  0  0  0  0  0
   -4.1140   -2.7798    0.0522 H   0  0  0  0  0  0  0  0  0  0  0  0
   -2.4570   -2.1098    1.2172 C   0  0  0  0  0  0  0  0  0  0  0  0
   -1.5600   -2.7438    1.7572 O   0  0  0  0  0  0  0  0  0  0  0  0
   -2.2870   -0.8898    0.7102 N   0  0  0  0  0  0  0  0  0  0  0  0
   -3.0820   -0.4218    0.2992 H   0  0  0  0  0  0  0  0  0  0  0  0
   -1.0240   -0.1468    0.7262 C   0  0  1  0  0  0  0  0  0  0  0  0
   -0.2680   -0.7367    0.2062 H   0  0  0  0  0  0  0  0  0  0  0  0
   -1.2212    1.1806   -0.0314 C   0  0  0  0  0  0  0  0  0  0  0  0
   -1.2799    1.9911    0.6979 H   0  0  0  0  0  0  0  0  0  0  0  0
   -0.3568    1.3610   -0.6720 H   0  0  0  0  0  0  0  0  0  0  0  0
   -2.4989    1.2099   -0.8846 C   0  0  0  0  0  0  0  0  0  0  0  0
   -3.2610    0.5805   -0.4242 H   0  0  0  0  0  0  0  0  0  0  0  0
   -2.8689    2.2352   -0.9419 H   0  0  0  0  0  0  0  0  0  0  0  0
   -2.2229    0.6937   -2.3014 C   0  0  0  0  0  0  0  0  0  0  0  0
   -1.4560    1.3091   -2.7727 H   0  0  0  0  0  0  0  0  0  0  0  0
   -1.8756   -0.3387   -2.2510 H   0  0  0  0  0  0  0  0  0  0  0  0
   -3.5017    0.7566   -3.1343 C   0  0  0  0  0  0  0  0  0  0  0  0
   -4.2632    0.1280   -2.6756 H   0  0  0  0  0  0  0  0  0  0  0  0
   -3.8597    1.7842   -3.1709 H   0  0  0  0  0  0  0  0  0  0  0  0
   -3.2670    0.2909   -4.5059 N   0  0  0  0  0  0  0  0  0  0  0  0
   -4.1335    0.3328   -5.0222 H   0  0  0  0  0  0  0  0  0  0  0  0
   -2.5843    0.8905   -4.9472 H   0  0  0  0  0  0  0  0  0  0  0  0
   -0.5564    0.0727    2.1744 C   0  0  0  0  0  0  0  0  0  0  0  0
    0.6169   -0.1288    2.4805 O   0  0  0  0  0  0  0  0  0  0  0  0
   -1.4759    0.4743    3.0595 N   0  0  0  0  0  0  0  0  0  0  0  0
   -2.4132    0.6318    2.7275 H   0  0  0  0  0  0  0  0  0  0  0  0
   -1.1971    0.7118    4.4750 C   0  0  0  0  0  0  0  0  0  0  0  0
   -0.3779    1.4272    4.5748 H   0  0  0  0  0  0  0  0  0  0  0  0
   -2.0826    1.1064    4.9754 H   0  0  0  0  0  0  0  0  0  0  0  0
   -0.8992   -0.2240    4.9525 H   0  0  0  0  0  0  0  0  0  0  0  0
  5  6  2  0  0  0  0
  5  7  1  0  0  0  0
  2  3  1  0  0  0  0
  2  4  1  0  0  0  0
  2  5  1  0  0  0  0
  1  2  1  0  0  0  0
 26 27  2  0  0  0  0
 26 28  1  0  0  0  0
 23 24  1  0  0  0  0
 23 25  1  0  0  0  0
 20 21  1  0  0  0  0
 20 22  1  0  0  0  0
 20 23  1  0  0  0  0
 17 18  1  0  0  0  0
 17 19  1  0  0  0  0
 17 20  1  0  0  0  0
 14 15  1  0  0  0  0
 14 16  1  0  0  0  0
 14 17  1  0  0  0  0
 11 12  1  0  0  0  0
 11 13  1  0  0  0  0
 11 14  1  0  0  0  0
  9 10  1  0  0  0  0
  9 11  1  0  0  0  0
  9 26  1  0  0  0  0
  7  8  1  0  0  0  0
  7  9  1  0  0  0  0
 30 31  1  0  0  0  0
 30 32  1  0  0  0  0
 30 33  1  0  0  0  0
 28 29  1  0  0  0  0
 28 30  1  0  0  0  0
M  END
$$$$
default_name
  -OEChem-02102213163D

 33 32  0     1  0  0  0  0  0999 V2000
   -3.8420   -3.6918    1.5562 H   0  0  0  0  0  0  0  0  0  0  0  0
   -3.8430   -2.7008    1.1032 C   0  0  0  0  0  0  0  0  0  0  0  0
   -4.5510   -2.0608    1.6242 H   0  0  0  0  0  0  0  0  0  0  0  0
   -4.1140   -2.7798    0.0522 H   0  0  0  0  0  0  0  0  0  0  0  0
   -2.4570   -2.1098    1.2172 C   0  0  0  0  0  0  0  0  0  0  0  0
   -1.5600   -2.7438    1.7572 O   0  0  0  0  0  0  0  0  0  0  0  0
   -2.2870   -0.8898    0.7102 N   0  0  0  0  0  0  0  0  0  0  0  0
   -3.0820   -0.4218    0.2992 H   0  0  0  0  0  0  0  0  0  0  0  0
   -1.0240   -0.1468    0.7262 C   0  0  1  0  0  0  0  0  0  0  0  0
   -0.2680   -0.7367    0.2062 H   0  0  0  0  0  0  0  0  0  0  0  0
   -1.2212    1.1806   -0.0314 C   0  0  0  0  0  0  0  0  0  0  0  0
   -1.2799    1.9911    0.6979 H   0  0  0  0  0  0  0  0  0  0  0  0
   -0.3568    1.3610   -0.6720 H   0  0  0  0  0  0  0  0  0  0  0  0
   -2.4989    1.2099   -0.8846 C   0  0  0  0  0  0  0  0  0  0  0  0
   -3.3335    0.8108   -0.3077 H   0  0  0  0  0  0  0  0  0  0  0  0
   -2.7194    2.2413   -1.1656 H   0  0  0  0  0  0  0  0  0  0  0  0
   -2.3290    0.3671   -2.1537 C   0  0  0  0  0  0  0  0  0  0  0  0
   -1.4918    0.7497   -2.7384 H   0  0  0  0  0  0  0  0  0  0  0  0
   -2.1321   -0.6694   -1.8782 H   0  0  0  0  0  0  0  0  0  0  0  0
   -3.6025    0.4334   -2.9944 C   0  0  0  0  0  0  0  0  0  0  0  0
   -4.4365    0.0346   -2.4192 H   0  0  0  0  0  0  0  0  0  0  0  0
   -3.8104    1.4698   -3.2555 H   0  0  0  0  0  0  0  0  0  0  0  0
   -3.4653   -0.3450   -4.2308 N   0  0  0  0  0  0  0  0  0  0  0  0
   -4.3273   -0.2904   -4.7532 H   0  0  0  0  0  0  0  0  0  0  0  0
   -2.7131    0.0409   -4.7835 H   0  0  0  0  0  0  0  0  0  0  0  0
   -0.5564    0.0727    2.1744 C   0  0  0  0  0  0  0  0  0  0  0  0
    0.6169   -0.1288    2.4805 O   0  0  0  0  0  0  0  0  0  0  0  0
   -1.4759    0.4743    3.0595 N   0  0  0  0  0  0  0  0  0  0  0  0
   -2.4132    0.6318    2.7275 H   0  0  0  0  0  0  0  0  0  0  0  0
   -1.1971    0.7118    4.4750 C   0  0  0  0  0  0  0  0  0  0  0  0
   -0.3779    1.4272    4.5748 H   0  0  0  0  0  0  0  0  0  0  0  0
   -2.0826    1.1064    4.9754 H   0  0  0  0  0  0  0  0  0  0  0  0
   -0.8992   -0.2240    4.9525 H   0  0  0  0  0  0  0  0  0  0  0  0
  5  6  2  0  0  0  0
  5  7  1  0  0  0  0
  2  3  1  0  0  0  0
  2  4  1  0  0  0  0
  2  5  1  0  0  0  0
  1  2  1  0  0  0  0
 26 27  2  0  0  0  0
 26 28  1  0  0  0  0
 23 24  1  0  0  0  0
 23 25  1  0  0  0  0
 20 21  1  0  0  0  0
 20 22  1  0  0  0  0
 20 23  1  0  0  0  0
 17 18  1  0  0  0  0
 17 19  1  0  0  0  0
 17 20  1  0  0  0  0
 14 15  1  0  0  0  0
 14 16  1  0  0  0  0
 14 17  1  0  0  0  0
 11 12  1  0  0  0  0
 11 13  1  0  0  0  0
 11 14  1  0  0  0  0
  9 10  1  0  0  0  0
  9 11  1  0  0  0  0
  9 26  1  0  0  0  0
  7  8  1  0  0  0  0
  7  9  1  0  0  0  0
 30 31  1  0  0  0  0
 30 32  1  0  0  0  0
 30 33  1  0  0  0  0
 28 29  1  0  0  0  0
 28 30  1  0  0  0  0
M  END
$$$$
default_name
  -OEChem-02102213163D

 33 32  0     1  0  0  0  0  0999 V2000
   -3.8420   -3.6918    1.5562 H   0  0  0  0  0  0  0  0  0  0  0  0
   -3.8430   -2.7008    1.1032 C   0  0  0  0  0  0  0  0  0  0  0  0
   -4.5510   -2.0608    1.6242 H   0  0  0  0  0  0  0  0  0  0  0  0
   -4.1140   -2.7798    0.0522 H   0  0  0  0  0  0  0  0  0  0  0  0
   -2.4570   -2.1098    1.2172 C   0  0  0  0  0  0  0  0  0  0  0  0
   -1.5600   -2.7438    1.7572 O   0  0  0  0  0  0  0  0  0  0  0  0
   -2.2870   -0.8898    0.7102 N   0  0  0  0  0  0  0  0  0  0  0  0
   -3.0820   -0.4218    0.2992 H   0  0  0  0  0  0  0  0  0  0  0  0
   -1.0240   -0.1468    0.7262 C   0  0  1  0  0  0  0  0  0  0  0  0
   -0.2680   -0.7367    0.2062 H   0  0  0  0  0  0  0  0  0  0  0  0
   -1.2212    1.1806   -0.0314 C   0  0  0  0  0  0  0  0  0  0  0  0
   -1.2799    1.9911    0.6979 H   0  0  0  0  0  0  0  0  0  0  0  0
   -0.3568    1.3610   -0.6720 H   0  0  0  0  0  0  0  0  0  0  0  0
   -2.4989    1.2099   -0.8846 C   0  0  0  0  0  0  0  0  0  0  0  0
   -3.3700    1.0687   -0.2442 H   0  0  0  0  0  0  0  0  0  0  0  0
   -2.5752    2.1776   -1.3837 H   0  0  0  0  0  0  0  0  0  0  0  0
   -2.4776    0.0986   -1.9403 C   0  0  0  0  0  0  0  0  0  0  0  0
   -1.6065    0.2218   -2.5846 H   0  0  0  0  0  0  0  0  0  0  0  0
   -2.4255   -0.8717   -1.4458 H   0  0  0  0  0  0  0  0  0  0  0  0
   -3.7457    0.1658   -2.7893 C   0  0  0  0  0  0  0  0  0  0  0  0
   -4.6161    0.0245   -2.1507 H   0  0  0  0  0  0  0  0  0  0  0  0
   -3.8084    1.1407   -3.2699 H   0  0  0  0  0  0  0  0  0  0  0  0
   -3.7469   -0.8715   -3.8272 N   0  0  0  0  0  0  0  0  0  0  0  0
   -4.6028   -0.8067   -4.3584 H   0  0  0  0  0  0  0  0  0  0  0  0
   -2.9587   -0.7260   -4.4420 H   0  0  0  0  0  0  0  0  0  0  0  0
   -0.5564    0.0727    2.1744 C   0  0  0  0  0  0  0  0  0  0  0  0
    0.6169   -0.1288    2.4805 O   0  0  0  0  0  0  0  0  0  0  0  0
   -1.4759    0.4743    3.0595 N   0  0  0  0  0  0  0  0  0  0  0  0
   -2.4132    0.6318    2.7275 H   0  0  0  0  0  0  0  0  0  0  0  0
   -1.1971    0.7118    4.4750 C   0  0  0  0  0  0  0  0  0  0  0  0
   -0.3779    1.4272    4.5748 H   0  0  0  0  0  0  0  0  0  0  0  0
   -2.0826    1.1064    4.9754 H   0  0  0  0  0  0  0  0  0  0  0  0
   -0.8992   -0.2240    4.9525 H   0  0  0  0  0  0  0  0  0  0  0  0
  5  6  2  0  0  0  0
  5  7  1  0  0  0  0
  2  3  1  0  0  0  0
  2  4  1  0  0  0  0
  2  5  1  0  0  0  0
  1  2  1  0  0  0  0
 26 27  2  0  0  0  0
 26 28  1  0  0  0  0
 23 24  1  0  0  0  0
 23 25  1  0  0  0  0
 20 21  1  0  0  0  0
 20 22  1  0  0  0  0
 20 23  1  0  0  0  0
 17 18  1  0  0  0  0
 17 19  1  0  0  0  0
 17 20  1  0  0  0  0
 14 15  1  0  0  0  0
 14 16  1  0  0  0  0
 14 17  1  0  0  0  0
 11 12  1  0  0  0  0
 11 13  1  0  0  0  0
 11 14  1  0  0  0  0
  9 10  1  0  0  0  0
  9 11  1  0  0  0  0
  9 26  1  0  0  0  0
  7  8  1  0  0  0  0
  7  9  1  0  0  0  0
 30 31  1  0  0  0  0
 30 32  1  0  0  0  0
 30 33  1  0  0  0  0
 28 29  1  0  0  0  0
 28 30  1  0  0  0  0
M  END
$$$$
default_name
  -OEChem-02102213163D

 33 32  0     1  0  0  0  0  0999 V2000
   -3.8420   -3.6918    1.5562 H   0  0  0  0  0  0  0  0  0  0  0  0
   -3.8430   -2.7008    1.1032 C   0  0  0  0  0  0  0  0  0  0  0  0
   -4.5510   -2.0608    1.6242 H   0  0  0  0  0  0  0  0  0  0  0  0
   -4.1140   -2.7798    0.0522 H   0  0  0  0  0  0  0  0  0  0  0  0
   -2.4570   -2.1098    1.2172 C   0  0  0  0  0  0  0  0  0  0  0  0
   -1.5600   -2.7438    1.7572 O   0  0  0  0  0  0  0  0  0  0  0  0
   -2.2870   -0.8898    0.7102 N   0  0  0  0  0  0  0  0  0  0  0  0
   -3.0820   -0.4218    0.2992 H   0  0  0  0  0  0  0  0  0  0  0  0
   -1.0240   -0.1468    0.7262 C   0  0  1  0  0  0  0  0  0  0  0  0
   -0.2680   -0.7367    0.2062 H   0  0  0  0  0  0  0  0  0  0  0  0
   -1.2212    1.1806   -0.0314 C   0  0  0  0  0  0  0  0  0  0  0  0
   -1.2799    1.9911    0.6979 H   0  0  0  0  0  0  0  0  0  0  0  0
   -0.3568    1.3610   -0.6720 H   0  0  0  0  0  0  0  0  0  0  0  0
   -2.4989    1.2099   -0.8846 C   0  0  0  0  0  0  0  0  0  0  0  0
   -3.3678    1.3368   -0.2383 H   0  0  0  0  0  0  0  0  0  0  0  0
   -2.4461    2.0485   -1.5814 H   0  0  0  0  0  0  0  0  0  0  0  0
   -2.6587   -0.0934   -1.6757 C   0  0  0  0  0  0  0  0  0  0  0  0
   -1.7925   -0.2384   -2.3219 H   0  0  0  0  0  0  0  0  0  0  0  0
   -2.7359   -0.9320   -0.9830 H   0  0  0  0  0  0  0  0  0  0  0  0
   -3.9214   -0.0280   -2.5328 C   0  0  0  0  0  0  0  0  0  0  0  0
   -4.7897    0.0983   -1.8882 H   0  0  0  0  0  0  0  0  0  0  0  0
   -3.8538    0.8195   -3.2129 H   0  0  0  0  0  0  0  0  0  0  0  0
   -4.0925   -1.2528   -3.3227 N   0  0  0  0  0  0  0  0  0  0  0  0
   -4.9411   -1.1808   -3.8646 H   0  0  0  0  0  0  0  0  0  0  0  0
   -3.3045   -1.3580   -3.9458 H   0  0  0  0  0  0  0  0  0  0  0  0
   -0.5564    0.0727    2.1744 C   0  0  0  0  0  0  0  0  0  0  0  0
    0.6169   -0.1288    2.4805 O   0  0  0  0  0  0  0  0  0  0  0  0
   -1.4759    0.4743    3.0595 N   0  0  0  0  0  0  0  0  0  0  0  0
   -2.4132    0.6318    2.7275 H   0  0  0  0  0  0  0  0  0  0  0  0
   -1.1971    0.7118    4.4750 C   0  0  0  0  0  0  0  0  0  0  0  0
   -0.3779    1.4272    4.5748 H   0  0  0  0  0  0  0  0  0  0  0  0
   -2.0826    1.1064    4.9754 H   0  0  0  0  0  0  0  0  0  0  0  0
   -0.8992   -0.2240    4.9525 H   0  0  0  0  0  0  0  0  0  0  0  0
  5  6  2  0  0  0  0
  5  7  1  0  0  0  0
  2  3  1  0  0  0  0
  2  4  1  0  0  0  0
  2  5  1  0  0  0  0
  1  2  1  0  0  0  0
 26 27  2  0  0  0  0
 26 28  1  0  0  0  0
 23 24  1  0  0  0  0
 23 25  1  0  0  0  0
 20 21  1  0  0  0  0
 20 22  1  0  0  0  0
 20 23  1  0  0  0  0
 17 18  1  0  0  0  0
 17 19  1  0  0  0  0
 17 20  1  0  0  0  0
 14 15  1  0  0  0  0
 14 16  1  0  0  0  0
 14 17  1  0  0  0  0
 11 12  1  0  0  0  0
 11 13  1  0  0  0  0
 11 14  1  0  0  0  0
  9 10  1  0  0  0  0
  9 11  1  0  0  0  0
  9 26  1  0  0  0  0
  7  8  1  0  0  0  0
  7  9  1  0  0  0  0
 30 31  1  0  0  0  0
 30 32  1  0  0  0  0
 30 33  1  0  0  0  0
 28 29  1  0  0  0  0
 28 30  1  0  0  0  0
M  END
$$$$
default_name
  -OEChem-02102213163D

 33 32  0     1  0  0  0  0  0999 V2000
   -3.8420   -3.6918    1.5562 H   0  0  0  0  0  0  0  0  0  0  0  0
   -3.8430   -2.7008    1.1032 C   0  0  0  0  0  0  0  0  0  0  0  0
   -4.5510   -2.0608    1.6242 H   0  0  0  0  0  0  0  0  0  0  0  0
   -4.1140   -2.7798    0.0522 H   0  0  0  0  0  0  0  0  0  0  0  0
   -2.4570   -2.1098    1.2172 C   0  0  0  0  0  0  0  0  0  0  0  0
   -1.5600   -2.7438    1.7572 O   0  0  0  0  0  0  0  0  0  0  0  0
   -2.2870   -0.8898    0.7102 N   0  0  0  0  0  0  0  0  0  0  0  0
   -3.0820   -0.4218    0.2992 H   0  0  0  0  0  0  0  0  0  0  0  0
   -1.0240   -0.1468    0.7262 C   0  0  1  0  0  0  0  0  0  0  0  0
   -0.2680   -0.7367    0.2062 H   0  0  0  0  0  0  0  0  0  0  0  0
   -1.2212    1.1806   -0.0314 C   0  0  0  0  0  0  0  0  0  0  0  0
   -1.2799    1.9911    0.6979 H   0  0  0  0  0  0  0  0  0  0  0  0
   -0.3568    1.3610   -0.6720 H   0  0  0  0  0  0  0  0  0  0  0  0
   -2.4989    1.2099   -0.8846 C   0  0  0  0  0  0  0  0  0  0  0  0
   -3.3271    1.5966   -0.2903 H   0  0  0  0  0  0  0  0  0  0  0  0
   -2.3410    1.8626   -1.7452 H   0  0  0  0  0  0  0  0  0  0  0  0
   -2.8600   -0.1959   -1.3778 C   0  0  0  0  0  0  0  0  0  0  0  0
   -2.0370   -0.5998   -1.9682 H   0  0  0  0  0  0  0  0  0  0  0  0
   -3.0421   -0.8460   -0.5216 H   0  0  0  0  0  0  0  0  0  0  0  0
   -4.1177   -0.1347   -2.2425 C   0  0  0  0  0  0  0  0  0  0  0  0
   -4.9455    0.2510   -1.6497 H   0  0  0  0  0  0  0  0  0  0  0  0
   -3.9435    0.5281   -3.0885 H   0  0  0  0  0  0  0  0  0  0  0  0
   -4.4787   -1.4628   -2.7516 N   0  0  0  0  0  0  0  0  0  0  0  0
   -5.3193   -1.3873   -3.3054 H   0  0  0  0  0  0  0  0  0  0  0  0
   -3.7269   -1.8120   -3.3288 H   0  0  0  0  0  0  0  0  0  0  0  0
   -0.5564    0.0727    2.1744 C   0  0  0  0  0  0  0  0  0  0  0  0
    0.6169   -0.1288    2.4805 O   0  0  0  0  0  0  0  0  0  0  0  0
   -1.4759    0.4743    3.0595 N   0  0  0  0  0  0  0  0  0  0  0  0
   -2.4132    0.6318    2.7275 H   0  0  0  0  0  0  0  0  0  0  0  0
   -1.1971    0.7118    4.4750 C   0  0  0  0  0  0  0  0  0  0  0  0
   -0.3779    1.4272    4.5748 H   0  0  0  0  0  0  0  0  0  0  0  0
   -2.0826    1.1064    4.9754 H   0  0  0  0  0  0  0  0  0  0  0  0
   -0.8992   -0.2240    4.9525 H   0  0  0  0  0  0  0  0  0  0  0  0
  5  6  2  0  0  0  0
  5  7  1  0  0  0  0
  2  3  1  0  0  0  0
  2  4  1  0  0  0  0
  2  5  1  0  0  0  0
  1  2  1  0  0  0  0
 26 27  2  0  0  0  0
 26 28  1  0  0  0  0
 23 24  1  0  0  0  0
 23 25  1  0  0  0  0
 20 21  1  0  0  0  0
 20 22  1  0  0  0  0
 20 23  1  0  0  0  0
 17 18  1  0  0  0  0
 17 19  1  0  0  0  0
 17 20  1  0  0  0  0
 14 15  1  0  0  0  0
 14 16  1  0  0  0  0
 14 17  1  0  0  0  0
 11 12  1  0  0  0  0
 11 13  1  0  0  0  0
 11 14  1  0  0  0  0
  9 10  1  0  0  0  0
  9 11  1  0  0  0  0
  9 26  1  0  0  0  0
  7  8  1  0  0  0  0
  7  9  1  0  0  0  0
 30 31  1  0  0  0  0
 30 32  1  0  0  0  0
 30 33  1  0  0  0  0
 28 29  1  0  0  0  0
 28 30  1  0  0  0  0
M  END
$$$$
default_name
  -OEChem-02102213163D

 33 32  0     1  0  0  0  0  0999 V2000
   -3.8420   -3.6918    1.5562 H   0  0  0  0  0  0  0  0  0  0  0  0
   -3.8430   -2.7008    1.1032 C   0  0  0  0  0  0  0  0  0  0  0  0
   -4.5510   -2.0608    1.6242 H   0  0  0  0  0  0  0  0  0  0  0  0
   -4.1140   -2.7798    0.0522 H   0  0  0  0  0  0  0  0  0  0  0  0
   -2.4570   -2.1098    1.2172 C   0  0  0  0  0  0  0  0  0  0  0  0
   -1.5600   -2.7438    1.7572 O   0  0  0  0  0  0  0  0  0  0  0  0
   -2.2870   -0.8898    0.7102 N   0  0  0  0  0  0  0  0  0  0  0  0
   -3.0820   -0.4218    0.2992 H   0  0  0  0  0  0  0  0  0  0  0  0
   -1.0240   -0.1468    0.7262 C   0  0  1  0  0  0  0  0  0  0  0  0
   -0.2680   -0.7367    0.2062 H   0  0  0  0  0  0  0  0  0  0  0  0
   -1.2212    1.1806   -0.0314 C   0  0  0  0  0  0  0  0  0  0  0  0
   -1.2799    1.9911    0.6979 H   0  0  0  0  0  0  0  0  0  0  0  0
   -0.3568    1.3610   -0.6720 H   0  0  0  0  0  0  0  0  0  0  0  0
   -2.4989    1.2099   -0.8846 C   0  0  0  0  0  0  0  0  0  0  0  0
   -3.2508    1.8306   -0.3966 H   0  0  0  0  0  0  0  0  0  0  0  0
   -2.2670    1.6327   -1.8639 H   0  0  0  0  0  0  0  0  0  0  0  0
   -3.0676   -0.2019   -1.0671 C   0  0  0  0  0  0  0  0  0  0  0  0
   -2.3233   -0.8376   -1.5476 H   0  0  0  0  0  0  0  0  0  0  0  0
   -3.3232   -0.6196   -0.0929 H   0  0  0  0  0  0  0  0  0  0  0  0
   -4.3212   -0.1471   -1.9381 C   0  0  0  0  0  0  0  0  0  0  0  0
   -5.0728    0.4722   -1.4514 H   0  0  0  0  0  0  0  0  0  0  0  0
   -4.0715    0.2862   -2.9052 H   0  0  0  0  0  0  0  0  0  0  0  0
   -4.8790   -1.4873   -2.1529 N   0  0  0  0  0  0  0  0  0  0  0  0
   -5.7114   -1.4121   -2.7190 H   0  0  0  0  0  0  0  0  0  0  0  0
   -4.1971   -2.0570   -2.6331 H   0  0  0  0  0  0  0  0  0  0  0  0
   -0.5564    0.0727    2.1744 C   0  0  0  0  0  0  0  0  0  0  0  0
    0.6169   -0.1288    2.4805 O   0  0  0  0  0  0  0  0  0  0  0  0
   -1.4759    0.4743    3.0595 N   0  0  0  0  0  0  0  0  0  0  0  0
   -2.4132    0.6318    2.7275 H   0  0  0  0  0  0  0  0  0  0  0  0
   -1.1971    0.7118    4.4750 C   0  0  0  0  0  0  0  0  0  0  0  0
   -0.3779    1.4272    4.5748 H   0  0  0  0  0  0  0  0  0  0  0  0
   -2.0826    1.1064    4.9754 H   0  0  0  0  0  0  0  0  0  0  0  0
   -0.8992   -0.2240    4.9525 H   0  0  0  0  0  0  0  0  0  0  0  0
  5  6  2  0  0  0  0
  5  7  1  0  0  0  0
  2  3  1  0  0  0  0
  2  4  1  0  0  0  0
  2  5  1  0  0  0  0
  1  2  1  0  0  0  0
 26 27  2  0  0  0  0
 26 28  1  0  0  0  0
 23 24  1  0  0  0  0
 23 25  1  0  0  0  0
 20 21  1  0  0  0  0
 20 22  1  0  0  0  0
 20 23  1  0  0  0  0
 17 18  1  0  0  0  0
 17 19  1  0  0  0  0
 17 20  1  0  0  0  0
 14 15  1  0  0  0  0
 14 16  1  0  0  0  0
 14 17  1  0  0  0  0
 11 12  1  0  0  0  0
 11 13  1  0  0  0  0
 11 14  1  0  0  0  0
  9 10  1  0  0  0  0
  9 11  1  0  0  0  0
  9 26  1  0  0  0  0
  7  8  1  0  0  0  0
  7  9  1  0  0  0  0
 30 31  1  0  0  0  0
 30 32  1  0  0  0  0
 30 33  1  0  0  0  0
 28 29  1  0  0  0  0
 28 30  1  0  0  0  0
M  END
$$$$
default_name
  -OEChem-02102213163D

 33 32  0     1  0  0  0  0  0999 V2000
   -3.8420   -3.6918    1.5562 H   0  0  0  0  0  0  0  0  0  0  0  0
   -3.8430   -2.7008    1.1032 C   0  0  0  0  0  0  0  0  0  0  0  0
   -4.5510   -2.0608    1.6242 H   0  0  0  0  0  0  0  0  0  0  0  0
   -4.1140   -2.7798    0.0522 H   0  0  0  0  0  0  0  0  0  0  0  0
   -2.4570   -2.1098    1.2172 C   0  0  0  0  0  0  0  0  0  0  0  0
   -1.5600   -2.7438    1.7572 O   0  0  0  0  0  0  0  0  0  0  0  0
   -2.2870   -0.8898    0.7102 N   0  0  0  0  0  0  0  0  0  0  0  0
   -3.0820   -0.4218    0.2992 H   0  0  0  0  0  0  0  0  0  0  0  0
   -1.0240   -0.1468    0.7262 C   0  0  1  0  0  0  0  0  0  0  0  0
   -0.2680   -0.7367    0.2062 H   0  0  0  0  0  0  0  0  0  0  0  0
   -1.2212    1.1806   -0.0314 C   0  0  0  0  0  0  0  0  0  0  0  0
   -1.2799    1.9911    0.6979 H   0  0  0  0  0  0  0  0  0  0  0  0
   -0.3568    1.3610   -0.6720 H   0  0  0  0  0  0  0  0  0  0  0  0
   -2.4989    1.2099   -0.8846 C   0  0  0  0  0  0  0  0  0  0  0  0
   -3.1439    2.0228   -0.5501 H   0  0  0  0  0  0  0  0  0  0  0  0
   -2.2291    1.3745   -1.9294 H   0  0  0  0  0  0  0  0  0  0  0  0
   -3.2675   -0.1109   -0.7646 C   0  0  0  0  0  0  0  0  0  0  0  0
   -2.6320   -0.9356   -1.0887 H   0  0  0  0  0  0  0  0  0  0  0  0
   -3.5601   -0.2682    0.2739 H   0  0  0  0  0  0  0  0  0  0  0  0
   -4.5181   -0.0644   -1.6405 C   0  0  0  0  0  0  0  0  0  0  0  0
   -5.1631    0.7469   -1.3068 H   0  0  0  0  0  0  0  0  0  0  0  0
   -4.2289    0.1104   -2.6755 H   0  0  0  0  0  0  0  0  0  0  0  0
   -5.2664   -1.3245   -1.5673 N   0  0  0  0  0  0  0  0  0  0  0  0
   -6.0909   -1.2535   -2.1453 H   0  0  0  0  0  0  0  0  0  0  0  0
   -4.6830   -2.0764   -1.9061 H   0  0  0  0  0  0  0  0  0  0  0  0
   -0.5564    0.0727    2.1744 C   0  0  0  0  0  0  0  0  0  0  0  0
    0.6169   -0.1288    2.4805 O   0  0  0  0  0  0  0  0  0  0  0  0
   -1.4759    0.4743    3.0595 N   0  0  0  0  0  0  0  0  0  0  0  0
   -2.4132    0.6318    2.7275 H   0  0  0  0  0  0  0  0  0  0  0  0
   -1.1971    0.7118    4.4750 C   0  0  0  0  0  0  0  0  0  0  0  0
   -0.3779    1.4272    4.5748 H   0  0  0  0  0  0  0  0  0  0  0  0
   -2.0826    1.1064    4.9754 H   0  0  0  0  0  0  0  0  0  0  0  0
   -0.8992   -0.2240    4.9525 H   0  0  0  0  0  0  0  0  0  0  0  0
  5  6  2  0  0  0  0
  5  7  1  0  0  0  0
  2  3  1  0  0  0  0
  2  4  1  0  0  0  0
  2  5  1  0  0  0  0
  1  2  1  0  0  0  0
 26 27  2  0  0  0  0
 26 28  1  0  0  0  0
 23 24  1  0  0  0  0
 23 25  1  0  0  0  0
 20 21  1  0  0  0  0
 20 22  1  0  0  0  0
 20 23  1  0  0  0  0
 17 18  1  0  0  0  0
 17 19  1  0  0  0  0
 17 20  1  0  0  0  0
 14 15  1  0  0  0  0
 14 16  1  0  0  0  0
 14 17  1  0  0  0  0
 11 12  1  0  0  0  0
 11 13  1  0  0  0  0
 11 14  1  0  0  0  0
  9 10  1  0  0  0  0
  9 11  1  0  0  0  0
  9 26  1  0  0  0  0
  7  8  1  0  0  0  0
  7  9  1  0  0  0  0
 30 31  1  0  0  0  0
 30 32  1  0  0  0  0
 30 33  1  0  0  0  0
 28 29  1  0  0  0  0
 28 30  1  0  0  0  0
M  END
$$$$
default_name
  -OEChem-02102213163D

 33 32  0     1  0  0  0  0  0999 V2000
   -3.8420   -3.6918    1.5562 H   0  0  0  0  0  0  0  0  0  0  0  0
   -3.8430   -2.7008    1.1032 C   0  0  0  0  0  0  0  0  0  0  0  0
   -4.5510   -2.0608    1.6242 H   0  0  0  0  0  0  0  0  0  0  0  0
   -4.1140   -2.7798    0.0522 H   0  0  0  0  0  0  0  0  0  0  0  0
   -2.4570   -2.1098    1.2172 C   0  0  0  0  0  0  0  0  0  0  0  0
   -1.5600   -2.7438    1.7572 O   0  0  0  0  0  0  0  0  0  0  0  0
   -2.2870   -0.8898    0.7102 N   0  0  0  0  0  0  0  0  0  0  0  0
   -3.0820   -0.4218    0.2992 H   0  0  0  0  0  0  0  0  0  0  0  0
   -1.0240   -0.1468    0.7262 C   0  0  1  0  0  0  0  0  0  0  0  0
   -0.2680   -0.7367    0.2062 H   0  0  0  0  0  0  0  0  0  0  0  0
   -1.2212    1.1806   -0.0314 C   0  0  0  0  0  0  0  0  0  0  0  0
   -1.2799    1.9911    0.6979 H   0  0  0  0  0  0  0  0  0  0  0  0
   -0.3568    1.3610   -0.6720 H   0  0  0  0  0  0  0  0  0  0  0  0
   -2.4989    1.2099   -0.8846 C   0  0  0  0  0  0  0  0  0  0  0  0
   -3.0138    2.1600   -0.7402 H   0  0  0  0  0  0  0  0  0  0  0  0
   -2.2300    1.1055   -1.9374 H   0  0  0  0  0  0  0  0  0  0  0  0
   -3.4461    0.0707   -0.4911 C   0  0  0  0  0  0  0  0  0  0  0  0
   -2.9419   -0.8872   -0.6229 H   0  0  0  0  0  0  0  0  0  0  0  0
   -3.7366    0.1841    0.5538 H   0  0  0  0  0  0  0  0  0  0  0  0
   -4.6949    0.1079   -1.3698 C   0  0  0  0  0  0  0  0  0  0  0  0
   -5.2101    1.0562   -1.2259 H   0  0  0  0  0  0  0  0  0  0  0  0
   -4.4051    0.0127   -2.4150 H   0  0  0  0  0  0  0  0  0  0  0  0
   -5.6142   -0.9857   -1.0348 N   0  0  0  0  0  0  0  0  0  0  0  0
   -6.4319   -0.9223   -1.6234 H   0  0  0  0  0  0  0  0  0  0  0  0
   -5.1517   -1.8689   -1.1972 H   0  0  0  0  0  0  0  0  0  0  0  0
   -0.5564    0.0727    2.1744 C   0  0  0  0  0  0  0  0  0  0  0  0
    0.6169   -0.1288    2.4805 O   0  0  0  0  0  0  0  0  0  0  0  0
   -1.4759    0.4743    3.0595 N   0  0  0  0  0  0  0  0  0  0  0  0
   -2.4132    0.6318    2.7275 H   0  0  0  0  0  0  0  0  0  0  0  0
   -1.1971    0.7118    4.4750 C   0  0  0  0  0  0  0  0  0  0  0  0
   -0.3779    1.4272    4.5748 H   0  0  0  0  0  0  0  0  0  0  0  0
   -2.0826    1.1064    4.9754 H   0  0  0  0  0  0  0  0  0  0  0  0
   -0.8992   -0.2240    4.9525 H   0  0  0  0  0  0  0  0  0  0  0  0
  5  6  2  0  0  0  0
  5  7  1  0  0  0  0
  2  3  1  0  0  0  0
  2  4  1  0  0  0  0
  2  5  1  0  0  0  0
  1  2  1  0  0  0  0
 26 27  2  0  0  0  0
 26 28  1  0  0  0  0
 23 24  1  0  0  0  0
 23 25  1  0  0  0  0
 20 21  1  0  0  0  0
 20 22  1  0  0  0  0
 20 23  1  0  0  0  0
 17 18  1  0  0  0  0
 17 19  1  0  0  0  0
 17 20  1  0  0  0  0
 14 15  1  0  0  0  0
 14 16  1  0  0  0  0
 14 17  1  0  0  0  0
 11 12  1  0  0  0  0
 11 13  1  0  0  0  0
 11 14  1  0  0  0  0
  9 10  1  0  0  0  0
  9 11  1  0  0  0  0
  9 26  1  0  0  0  0
  7  8  1  0  0  0  0
  7  9  1  0  0  0  0
 30 31  1  0  0  0  0
 30 32  1  0  0  0  0
 30 33  1  0  0  0  0
 28 29  1  0  0  0  0
 28 30  1  0  0  0  0
M  END
$$$$
default_name
  -OEChem-02102213163D

 33 32  0     1  0  0  0  0  0999 V2000
   -3.8420   -3.6918    1.5562 H   0  0  0  0  0  0  0  0  0  0  0  0
   -3.8430   -2.7008    1.1032 C   0  0  0  0  0  0  0  0  0  0  0  0
   -4.5510   -2.0608    1.6242 H   0  0  0  0  0  0  0  0  0  0  0  0
   -4.1140   -2.7798    0.0522 H   0  0  0  0  0  0  0  0  0  0  0  0
   -2.4570   -2.1098    1.2172 C   0  0  0  0  0  0  0  0  0  0  0  0
   -1.5600   -2.7438    1.7572 O   0  0  0  0  0  0  0  0  0  0  0  0
   -2.2870   -0.8898    0.7102 N   0  0  0  0  0  0  0  0  0  0  0  0
   -3.0820   -0.4218    0.2992 H   0  0  0  0  0  0  0  0  0  0  0  0
   -1.0240   -0.1468    0.7262 C   0  0  1  0  0  0  0  0  0  0  0  0
   -0.2680   -0.7367    0.2062 H   0  0  0  0  0  0  0  0  0  0  0  0
   -1.2212    1.1806   -0.0314 C   0  0  0  0  0  0  0  0  0  0  0  0
   -1.2799    1.9911    0.6979 H   0  0  0  0  0  0  0  0  0  0  0  0
   -0.3568    1.3610   -0.6720 H   0  0  0  0  0  0  0  0  0  0  0  0
   -2.4989    1.2099   -0.8846 C   0  0  0  0  0  0  0  0  0  0  0  0
   -2.8694    2.2330   -0.9539 H   0  0  0  0  0  0  0  0  0  0  0  0
   -2.2695    0.8441   -1.8872 H   0  0  0  0  0  0  0  0  0  0  0  0
   -3.5911    0.3307   -0.2650 C   0  0  0  0  0  0  0  0  0  0  0  0
   -3.2321   -0.6956   -0.1818 H   0  0  0  0  0  0  0  0  0  0  0  0
   -3.8407    0.7066    0.7276 H   0  0  0  0  0  0  0  0  0  0  0  0
   -4.8396    0.3580   -1.1446 C   0  0  0  0  0  0  0  0  0  0  0  0
   -5.2106    1.3792   -1.2140 H   0  0  0  0  0  0  0  0  0  0  0  0
   -4.5881   -0.0004   -2.1414 H   0  0  0  0  0  0  0  0  0  0  0  0
   -5.8989   -0.4938   -0.5917 N   0  0  0  0  0  0  0  0  0  0  0  0
   -6.7110   -0.4410   -1.1889 H   0  0  0  0  0  0  0  0  0  0  0  0
   -5.5710   -1.4485   -0.5548 H   0  0  0  0  0  0  0  0  0  0  0  0
   -0.5564    0.0727    2.1744 C   0  0  0  0  0  0  0  0  0  0  0  0
    0.6169   -0.1288    2.4805 O   0  0  0  0  0  0  0  0  0  0  0  0
   -1.4759    0.4743    3.0595 N   0  0  0  0  0  0  0  0  0  0  0  0
   -2.4132    0.6318    2.7275 H   0  0  0  0  0  0  0  0  0  0  0  0
   -1.1971    0.7118    4.4750 C   0  0  0  0  0  0  0  0  0  0  0  0
   -0.3779    1.4272    4.5748 H   0  0  0  0  0  0  0  0  0  0  0  0
   -2.0826    1.1064    4.9754 H   0  0  0  0  0  0  0  0  0  0  0  0
   -0.8992   -0.2240    4.9525 H   0  0  0  0  0  0  0  0  0  0  0  0
  5  6  2  0  0  0  0
  5  7  1  0  0  0  0
  2  3  1  0  0  0  0
  2  4  1  0  0  0  0
  2  5  1  0  0  0  0
  1  2  1  0  0  0  0
 26 27  2  0  0  0  0
 26 28  1  0  0  0  0
 23 24  1  0  0  0  0
 23 25  1  0  0  0  0
 20 21  1  0  0  0  0
 20 22  1  0  0  0  0
 20 23  1  0  0  0  0
 17 18  1  0  0  0  0
 17 19  1  0  0  0  0
 17 20  1  0  0  0  0
 14 15  1  0  0  0  0
 14 16  1  0  0  0  0
 14 17  1  0  0  0  0
 11 12  1  0  0  0  0
 11 13  1  0  0  0  0
 11 14  1  0  0  0  0
  9 10  1  0  0  0  0
  9 11  1  0  0  0  0
  9 26  1  0  0  0  0
  7  8  1  0  0  0  0
  7  9  1  0  0  0  0
 30 31  1  0  0  0  0
 30 32  1  0  0  0  0
 30 33  1  0  0  0  0
 28 29  1  0  0  0  0
 28 30  1  0  0  0  0
M  END
$$$$
default_name
  -OEChem-02102213163D

 33 32  0     1  0  0  0  0  0999 V2000
   -3.8420   -3.6918    1.5562 H   0  0  0  0  0  0  0  0  0  0  0  0
   -3.8430   -2.7008    1.1032 C   0  0  0  0  0  0  0  0  0  0  0  0
   -4.5510   -2.0608    1.6242 H   0  0  0  0  0  0  0  0  0  0  0  0
   -4.1140   -2.7798    0.0522 H   0  0  0  0  0  0  0  0  0  0  0  0
   -2.4570   -2.1098    1.2172 C   0  0  0  0  0  0  0  0  0  0  0  0
   -1.5600   -2.7438    1.7572 O   0  0  0  0  0  0  0  0  0  0  0  0
   -2.2870   -0.8898    0.7102 N   0  0  0  0  0  0  0  0  0  0  0  0
   -3.0820   -0.4218    0.2992 H   0  0  0  0  0  0  0  0  0  0  0  0
   -1.0240   -0.1468    0.7262 C   0  0  1  0  0  0  0  0  0  0  0  0
   -0.2680   -0.7367    0.2062 H   0  0  0  0  0  0  0  0  0  0  0  0
   -1.2212    1.1806   -0.0314 C   0  0  0  0  0  0  0  0  0  0  0  0
   -1.2799    1.9911    0.6979 H   0  0  0  0  0  0  0  0  0  0  0  0
   -0.3568    1.3610   -0.6720 H   0  0  0  0  0  0  0  0  0  0  0  0
   -2.4989    1.2099   -0.8846 C   0  0  0  0  0  0  0  0  0  0  0  0
   -2.7205    2.2367   -1.1769 H   0  0  0  0  0  0  0  0  0  0  0  0
   -2.3450    0.6081   -1.7822 H   0  0  0  0  0  0  0  0  0  0  0  0
   -3.6926    0.6513   -0.1019 C   0  0  0  0  0  0  0  0  0  0  0  0
   -3.4827   -0.3739    0.2044 H   0  0  0  0  0  0  0  0  0  0  0  0
   -3.8654    1.2637    0.7836 H   0  0  0  0  0  0  0  0  0  0  0  0
   -4.9423    0.6688   -0.9801 C   0  0  0  0  0  0  0  0  0  0  0  0
   -5.1646    1.6939   -1.2720 H   0  0  0  0  0  0  0  0  0  0  0  0
   -4.7653    0.0722   -1.8735 H   0  0  0  0  0  0  0  0  0  0  0  0
   -6.1010    0.1176   -0.2681 N   0  0  0  0  0  0  0  0  0  0  0  0
   -6.9094    0.1574   -0.8713 H   0  0  0  0  0  0  0  0  0  0  0  0
   -5.9125   -0.8439   -0.0228 H   0  0  0  0  0  0  0  0  0  0  0  0
   -0.5564    0.0727    2.1744 C   0  0  0  0  0  0  0  0  0  0  0  0
    0.6169   -0.1288    2.4805 O   0  0  0  0  0  0  0  0  0  0  0  0
   -1.4759    0.4743    3.0595 N   0  0  0  0  0  0  0  0  0  0  0  0
   -2.4132    0.6318    2.7275 H   0  0  0  0  0  0  0  0  0  0  0  0
   -1.1971    0.7118    4.4750 C   0  0  0  0  0  0  0  0  0  0  0  0
   -0.3779    1.4272    4.5748 H   0  0  0  0  0  0  0  0  0  0  0  0
   -2.0826    1.1064    4.9754 H   0  0  0  0  0  0  0  0  0  0  0  0
   -0.8992   -0.2240    4.9525 H   0  0  0  0  0  0  0  0  0  0  0  0
  5  6  2  0  0  0  0
  5  7  1  0  0  0  0
  2  3  1  0  0  0  0
  2  4  1  0  0  0  0
  2  5  1  0  0  0  0
  1  2  1  0  0  0  0
 26 27  2  0  0  0  0
 26 28  1  0  0  0  0
 23 24  1  0  0  0  0
 23 25  1  0  0  0  0
 20 21  1  0  0  0  0
 20 22  1  0  0  0  0
 20 23  1  0  0  0  0
 17 18  1  0  0  0  0
 17 19  1  0  0  0  0
 17 20  1  0  0  0  0
 14 15  1  0  0  0  0
 14 16  1  0  0  0  0
 14 17  1  0  0  0  0
 11 12  1  0  0  0  0
 11 13  1  0  0  0  0
 11 14  1  0  0  0  0
  9 10  1  0  0  0  0
  9 11  1  0  0  0  0
  9 26  1  0  0  0  0
  7  8  1  0  0  0  0
  7  9  1  0  0  0  0
 30 31  1  0  0  0  0
 30 32  1  0  0  0  0
 30 33  1  0  0  0  0
 28 29  1  0  0  0  0
 28 30  1  0  0  0  0
M  END
$$$$
default_name
  -OEChem-02102213163D

 33 32  0     1  0  0  0  0  0999 V2000
   -3.8420   -3.6918    1.5562 H   0  0  0  0  0  0  0  0  0  0  0  0
   -3.8430   -2.7008    1.1032 C   0  0  0  0  0  0  0  0  0  0  0  0
   -4.5510   -2.0608    1.6242 H   0  0  0  0  0  0  0  0  0  0  0  0
   -4.1140   -2.7798    0.0522 H   0  0  0  0  0  0  0  0  0  0  0  0
   -2.4570   -2.1098    1.2172 C   0  0  0  0  0  0  0  0  0  0  0  0
   -1.5600   -2.7438    1.7572 O   0  0  0  0  0  0  0  0  0  0  0  0
   -2.2870   -0.8898    0.7102 N   0  0  0  0  0  0  0  0  0  0  0  0
   -3.0820   -0.4218    0.2992 H   0  0  0  0  0  0  0  0  0  0  0  0
   -1.0240   -0.1468    0.7262 C   0  0  1  0  0  0  0  0  0  0  0  0
   -0.2680   -0.7367    0.2062 H   0  0  0  0  0  0  0  0  0  0  0  0
   -1.2212    1.1806   -0.0314 C   0  0  0  0  0  0  0  0  0  0  0  0
   -1.2799    1.9911    0.6979 H   0  0  0  0  0  0  0  0  0  0  0  0
   -0.3568    1.3610   -0.6720 H   0  0  0  0  0  0  0  0  0  0  0  0
   -2.4989    1.2099   -0.8846 C   0  0  0  0  0  0  0  0  0  0  0  0
   -2.5772    2.1709   -1.3937 H   0  0  0  0  0  0  0  0  0  0  0  0
   -2.4513    0.4136   -1.6297 H   0  0  0  0  0  0  0  0  0  0  0  0
   -3.7439    1.0107   -0.0129 C   0  0  0  0  0  0  0  0  0  0  0  0
   -3.6766    0.0559    0.5095 H   0  0  0  0  0  0  0  0  0  0  0  0
   -3.8088    1.8174    0.7179 H   0  0  0  0  0  0  0  0  0  0  0  0
   -4.9960    1.0192   -0.8876 C   0  0  0  0  0  0  0  0  0  0  0  0
   -5.0753    1.9787   -1.3961 H   0  0  0  0  0  0  0  0  0  0  0  0
   -4.9248    0.2254   -1.6295 H   0  0  0  0  0  0  0  0  0  0  0  0
   -6.2067    0.8069   -0.0861 N   0  0  0  0  0  0  0  0  0  0  0  0
   -7.0134    0.8323   -0.6925 H   0  0  0  0  0  0  0  0  0  0  0  0
   -6.1528   -0.0964    0.3627 H   0  0  0  0  0  0  0  0  0  0  0  0
   -0.5564    0.0727    2.1744 C   0  0  0  0  0  0  0  0  0  0  0  0
    0.6169   -0.1288    2.4805 O   0  0  0  0  0  0  0  0  0  0  0  0
   -1.4759    0.4743    3.0595 N   0  0  0  0  0  0  0  0  0  0  0  0
   -2.4132    0.6318    2.7275 H   0  0  0  0  0  0  0  0  0  0  0  0
   -1.1971    0.7118    4.4750 C   0  0  0  0  0  0  0  0  0  0  0  0
   -0.3779    1.4272    4.5748 H   0  0  0  0  0  0  0  0  0  0  0  0
   -2.0826    1.1064    4.9754 H   0  0  0  0  0  0  0  0  0  0  0  0
   -0.8992   -0.2240    4.9525 H   0  0  0  0  0  0  0  0  0  0  0  0
  5  6  2  0  0  0  0
  5  7  1  0  0  0  0
  2  3  1  0  0  0  0
  2  4  1  0  0  0  0
  2  5  1  0  0  0  0
  1  2  1  0  0  0  0
 26 27  2  0  0  0  0
 26 28  1  0  0  0  0
 23 24  1  0  0  0  0
 23 25  1  0  0  0  0
 20 21  1  0  0  0  0
 20 22  1  0  0  0  0
 20 23  1  0  0  0  0
 17 18  1  0  0  0  0
 17 19  1  0  0  0  0
 17 20  1  0  0  0  0
 14 15  1  0  0  0  0
 14 16  1  0  0  0  0
 14 17  1  0  0  0  0
 11 12  1  0  0  0  0
 11 13  1  0  0  0  0
 11 14  1  0  0  0  0
  9 10  1  0  0  0  0
  9 11  1  0  0  0  0
  9 26  1  0  0  0  0
  7  8  1  0  0  0  0
  7  9  1  0  0  0  0
 30 31  1  0  0  0  0
 30 32  1  0  0  0  0
 30 33  1  0  0  0  0
 28 29  1  0  0  0  0
 28 30  1  0  0  0  0
M  END
$$$$
default_name
  -OEChem-02102213163D

 33 32  0     1  0  0  0  0  0999 V2000
   -3.8420   -3.6918    1.5562 H   0  0  0  0  0  0  0  0  0  0  0  0
   -3.8430   -2.7008    1.1032 C   0  0  0  0  0  0  0  0  0  0  0  0
   -4.5510   -2.0608    1.6242 H   0  0  0  0  0  0  0  0  0  0  0  0
   -4.1140   -2.7798    0.0522 H   0  0  0  0  0  0  0  0  0  0  0  0
   -2.4570   -2.1098    1.2172 C   0  0  0  0  0  0  0  0  0  0  0  0
   -1.5600   -2.7438    1.7572 O   0  0  0  0  0  0  0  0  0  0  0  0
   -2.2870   -0.8898    0.7102 N   0  0  0  0  0  0  0  0  0  0  0  0
   -3.0820   -0.4218    0.2992 H   0  0  0  0  0  0  0  0  0  0  0  0
   -1.0240   -0.1468    0.7262 C   0  0  1  0  0  0  0  0  0  0  0  0
   -0.2680   -0.7367    0.2062 H   0  0  0  0  0  0  0  0  0  0  0  0
   -1.2212    1.1806   -0.0314 C   0  0  0  0  0  0  0  0  0  0  0  0
   -1.2799    1.9911    0.6979 H   0  0  0  0  0  0  0  0  0  0  0  0
   -0.3568    1.3610   -0.6720 H   0  0  0  0  0  0  0  0  0  0  0  0
   -2.4989    1.2099   -0.8846 C   0  0  0  0  0  0  0  0  0  0  0  0
   -2.4493    2.0401   -1.5897 H   0  0  0  0  0  0  0  0  0  0  0  0
   -2.5812    0.2737   -1.4400 H   0  0  0  0  0  0  0  0  0  0  0  0
   -3.7413    1.3844   -0.0039 C   0  0  0  0  0  0  0  0  0  0  0  0
   -3.8006    0.5646    0.7127 H   0  0  0  0  0  0  0  0  0  0  0  0
   -3.6750    2.3299    0.5350 H   0  0  0  0  0  0  0  0  0  0  0  0
   -4.9971    1.3852   -0.8734 C   0  0  0  0  0  0  0  0  0  0  0  0
   -4.9487    2.2143   -1.5776 H   0  0  0  0  0  0  0  0  0  0  0  0
   -5.0556    0.4489   -1.4259 H   0  0  0  0  0  0  0  0  0  0  0  0
   -6.2089    1.5270   -0.0581 N   0  0  0  0  0  0  0  0  0  0  0  0
   -7.0160    1.5377   -0.6644 H   0  0  0  0  0  0  0  0  0  0  0  0
   -6.2756    0.7431    0.5754 H   0  0  0  0  0  0  0  0  0  0  0  0
   -0.5564    0.0727    2.1744 C   0  0  0  0  0  0  0  0  0  0  0  0
    0.6169   -0.1288    2.4805 O   0  0  0  0  0  0  0  0  0  0  0  0
   -1.4759    0.4743    3.0595 N   0  0  0  0  0  0  0  0  0  0  0  0
   -2.4132    0.6318    2.7275 H   0  0  0  0  0  0  0  0  0  0  0  0
   -1.1971    0.7118    4.4750 C   0  0  0  0  0  0  0  0  0  0  0  0
   -0.3779    1.4272    4.5748 H   0  0  0  0  0  0  0  0  0  0  0  0
   -2.0826    1.1064    4.9754 H   0  0  0  0  0  0  0  0  0  0  0  0
   -0.8992   -0.2240    4.9525 H   0  0  0  0  0  0  0  0  0  0  0  0
  5  6  2  0  0  0  0
  5  7  1  0  0  0  0
  2  3  1  0  0  0  0
  2  4  1  0  0  0  0
  2  5  1  0  0  0  0
  1  2  1  0  0  0  0
 26 27  2  0  0  0  0
 26 28  1  0  0  0  0
 23 24  1  0  0  0  0
 23 25  1  0  0  0  0
 20 21  1  0  0  0  0
 20 22  1  0  0  0  0
 20 23  1  0  0  0  0
 17 18  1  0  0  0  0
 17 19  1  0  0  0  0
 17 20  1  0  0  0  0
 14 15  1  0  0  0  0
 14 16  1  0  0  0  0
 14 17  1  0  0  0  0
 11 12  1  0  0  0  0
 11 13  1  0  0  0  0
 11 14  1  0  0  0  0
  9 10  1  0  0  0  0
  9 11  1  0  0  0  0
  9 26  1  0  0  0  0
  7  8  1  0  0  0  0
  7  9  1  0  0  0  0
 30 31  1  0  0  0  0
 30 32  1  0  0  0  0
 30 33  1  0  0  0  0
 28 29  1  0  0  0  0
 28 30  1  0  0  0  0
M  END
$$$$
default_name
  -OEChem-02102213163D

 33 32  0     1  0  0  0  0  0999 V2000
   -3.8420   -3.6918    1.5562 H   0  0  0  0  0  0  0  0  0  0  0  0
   -3.8430   -2.7008    1.1032 C   0  0  0  0  0  0  0  0  0  0  0  0
   -4.5510   -2.0608    1.6242 H   0  0  0  0  0  0  0  0  0  0  0  0
   -4.1140   -2.7798    0.0522 H   0  0  0  0  0  0  0  0  0  0  0  0
   -2.4570   -2.1098    1.2172 C   0  0  0  0  0  0  0  0  0  0  0  0
   -1.5600   -2.7438    1.7572 O   0  0  0  0  0  0  0  0  0  0  0  0
   -2.2870   -0.8898    0.7102 N   0  0  0  0  0  0  0  0  0  0  0  0
   -3.0820   -0.4218    0.2992 H   0  0  0  0  0  0  0  0  0  0  0  0
   -1.0240   -0.1468    0.7262 C   0  0  1  0  0  0  0  0  0  0  0  0
   -0.2680   -0.7367    0.2062 H   0  0  0  0  0  0  0  0  0  0  0  0
   -1.2212    1.1806   -0.0314 C   0  0  0  0  0  0  0  0  0  0  0  0
   -1.2799    1.9911    0.6979 H   0  0  0  0  0  0  0  0  0  0  0  0
   -0.3568    1.3610   -0.6720 H   0  0  0  0  0  0  0  0  0  0  0  0
   -2.4989    1.2099   -0.8846 C   0  0  0  0  0  0  0  0  0  0  0  0
   -2.3455    1.8532   -1.7515 H   0  0  0  0  0  0  0  0  0  0  0  0
   -2.7258    0.1982   -1.2260 H   0  0  0  0  0  0  0  0  0  0  0  0
   -3.6851    1.7468   -0.0757 C   0  0  0  0  0  0  0  0  0  0  0  0
   -3.8463    1.1176    0.8001 H   0  0  0  0  0  0  0  0  0  0  0  0
   -3.4729    2.7664    0.2474 H   0  0  0  0  0  0  0  0  0  0  0  0
   -4.9455    1.7420   -0.9385 C   0  0  0  0  0  0  0  0  0  0  0  0
   -4.7934    2.3846   -1.8042 H   0  0  0  0  0  0  0  0  0  0  0  0
   -5.1488    0.7273   -1.2767 H   0  0  0  0  0  0  0  0  0  0  0  0
   -6.1074    2.2289   -0.1861 N   0  0  0  0  0  0  0  0  0  0  0  0
   -6.9170    2.2254   -0.7891 H   0  0  0  0  0  0  0  0  0  0  0  0
   -6.2726    1.6175    0.6008 H   0  0  0  0  0  0  0  0  0  0  0  0
   -0.5564    0.0727    2.1744 C   0  0  0  0  0  0  0  0  0  0  0  0
    0.6169   -0.1288    2.4805 O   0  0  0  0  0  0  0  0  0  0  0  0
   -1.4759    0.4743    3.0595 N   0  0  0  0  0  0  0  0  0  0  0  0
   -2.4132    0.6318    2.7275 H   0  0  0  0  0  0  0  0  0  0  0  0
   -1.1971    0.7118    4.4750 C   0  0  0  0  0  0  0  0  0  0  0  0
   -0.3779    1.4272    4.5748 H   0  0  0  0  0  0  0  0  0  0  0  0
   -2.0826    1.1064    4.9754 H   0  0  0  0  0  0  0  0  0  0  0  0
   -0.8992   -0.2240    4.9525 H   0  0  0  0  0  0  0  0  0  0  0  0
  5  6  2  0  0  0  0
  5  7  1  0  0  0  0
  2  3  1  0  0  0  0
  2  4  1  0  0  0  0
  2  5  1  0  0  0  0
  1  2  1  0  0  0  0
 26 27  2  0  0  0  0
 26 28  1  0  0  0  0
 23 24  1  0  0  0  0
 23 25  1  0  0  0  0
 20 21  1  0  0  0  0
 20 22  1  0  0  0  0
 20 23  1  0  0  0  0
 17 18  1  0  0  0  0
 17 19  1  0  0  0  0
 17 20  1  0  0  0  0
 14 15  1  0  0  0  0
 14 16  1  0  0  0  0
 14 17  1  0  0  0  0
 11 12  1  0  0  0  0
 11 13  1  0  0  0  0
 11 14  1  0  0  0  0
  9 10  1  0  0  0  0
  9 11  1  0  0  0  0
  9 26  1  0  0  0  0
  7  8  1  0  0  0  0
  7  9  1  0  0  0  0
 30 31  1  0  0  0  0
 30 32  1  0  0  0  0
 30 33  1  0  0  0  0
 28 29  1  0  0  0  0
 28 30  1  0  0  0  0
M  END
$$$$
default_name
  -OEChem-02102213163D

 33 32  0     1  0  0  0  0  0999 V2000
   -3.8420   -3.6918    1.5562 H   0  0  0  0  0  0  0  0  0  0  0  0
   -3.8430   -2.7008    1.1032 C   0  0  0  0  0  0  0  0  0  0  0  0
   -4.5510   -2.0608    1.6242 H   0  0  0  0  0  0  0  0  0  0  0  0
   -4.1140   -2.7798    0.0522 H   0  0  0  0  0  0  0  0  0  0  0  0
   -2.4570   -2.1098    1.2172 C   0  0  0  0  0  0  0  0  0  0  0  0
   -1.5600   -2.7438    1.7572 O   0  0  0  0  0  0  0  0  0  0  0  0
   -2.2870   -0.8898    0.7102 N   0  0  0  0  0  0  0  0  0  0  0  0
   -3.0820   -0.4218    0.2992 H   0  0  0  0  0  0  0  0  0  0  0  0
   -1.0240   -0.1468    0.7262 C   0  0  1  0  0  0  0  0  0  0  0  0
   -0.2680   -0.7367    0.2062 H   0  0  0  0  0  0  0  0  0  0  0  0
   -1.2212    1.1806   -0.0314 C   0  0  0  0  0  0  0  0  0  0  0  0
   -1.2799    1.9911    0.6979 H   0  0  0  0  0  0  0  0  0  0  0  0
   -0.3568    1.3610   -0.6720 H   0  0  0  0  0  0  0  0  0  0  0  0
   -2.4989    1.2099   -0.8846 C   0  0  0  0  0  0  0  0  0  0  0  0
   -2.2729    1.6229   -1.8681 H   0  0  0  0  0  0  0  0  0  0  0  0
   -2.8753    0.1921   -1.0023 H   0  0  0  0  0  0  0  0  0  0  0  0
   -3.5790    2.0734   -0.2234 C   0  0  0  0  0  0  0  0  0  0  0  0
   -3.8105    1.6770    0.7657 H   0  0  0  0  0  0  0  0  0  0  0  0
   -3.2165    3.0971   -0.1253 H   0  0  0  0  0  0  0  0  0  0  0  0
   -4.8447    2.0652   -1.0784 C   0  0  0  0  0  0  0  0  0  0  0  0
   -4.6201    2.4780   -2.0606 H   0  0  0  0  0  0  0  0  0  0  0  0
   -5.1982    1.0418   -1.1921 H   0  0  0  0  0  0  0  0  0  0  0  0
   -5.9092    2.8648   -0.4612 N   0  0  0  0  0  0  0  0  0  0  0  0
   -6.7232    2.8487   -1.0580 H   0  0  0  0  0  0  0  0  0  0  0  0
   -6.1438    2.4671    0.4372 H   0  0  0  0  0  0  0  0  0  0  0  0
   -0.5564    0.0727    2.1744 C   0  0  0  0  0  0  0  0  0  0  0  0
    0.6169   -0.1288    2.4805 O   0  0  0  0  0  0  0  0  0  0  0  0
   -1.4759    0.4743    3.0595 N   0  0  0  0  0  0  0  0  0  0  0  0
   -2.4132    0.6318    2.7275 H   0  0  0  0  0  0  0  0  0  0  0  0
   -1.1971    0.7118    4.4750 C   0  0  0  0  0  0  0  0  0  0  0  0
   -0.3779    1.4272    4.5748 H   0  0  0  0  0  0  0  0  0  0  0  0
   -2.0826    1.1064    4.9754 H   0  0  0  0  0  0  0  0  0  0  0  0
   -0.8992   -0.2240    4.9525 H   0  0  0  0  0  0  0  0  0  0  0  0
  5  6  2  0  0  0  0
  5  7  1  0  0  0  0
  2  3  1  0  0  0  0
  2  4  1  0  0  0  0
  2  5  1  0  0  0  0
  1  2  1  0  0  0  0
 26 27  2  0  0  0  0
 26 28  1  0  0  0  0
 23 24  1  0  0  0  0
 23 25  1  0  0  0  0
 20 21  1  0  0  0  0
 20 22  1  0  0  0  0
 20 23  1  0  0  0  0
 17 18  1  0  0  0  0
 17 19  1  0  0  0  0
 17 20  1  0  0  0  0
 14 15  1  0  0  0  0
 14 16  1  0  0  0  0
 14 17  1  0  0  0  0
 11 12  1  0  0  0  0
 11 13  1  0  0  0  0
 11 14  1  0  0  0  0
  9 10  1  0  0  0  0
  9 11  1  0  0  0  0
  9 26  1  0  0  0  0
  7  8  1  0  0  0  0
  7  9  1  0  0  0  0
 30 31  1  0  0  0  0
 30 32  1  0  0  0  0
 30 33  1  0  0  0  0
 28 29  1  0  0  0  0
 28 30  1  0  0  0  0
M  END
$$$$
default_name
  -OEChem-02102213163D

 33 32  0     1  0  0  0  0  0999 V2000
   -3.8420   -3.6918    1.5562 H   0  0  0  0  0  0  0  0  0  0  0  0
   -3.8430   -2.7008    1.1032 C   0  0  0  0  0  0  0  0  0  0  0  0
   -4.5510   -2.0608    1.6242 H   0  0  0  0  0  0  0  0  0  0  0  0
   -4.1140   -2.7798    0.0522 H   0  0  0  0  0  0  0  0  0  0  0  0
   -2.4570   -2.1098    1.2172 C   0  0  0  0  0  0  0  0  0  0  0  0
   -1.5600   -2.7438    1.7572 O   0  0  0  0  0  0  0  0  0  0  0  0
   -2.2870   -0.8898    0.7102 N   0  0  0  0  0  0  0  0  0  0  0  0
   -3.0820   -0.4218    0.2992 H   0  0  0  0  0  0  0  0  0  0  0  0
   -1.0240   -0.1468    0.7262 C   0  0  1  0  0  0  0  0  0  0  0  0
   -0.2680   -0.7367    0.2062 H   0  0  0  0  0  0  0  0  0  0  0  0
   -1.2212    1.1806   -0.0314 C   0  0  0  0  0  0  0  0  0  0  0  0
   -1.2799    1.9911    0.6979 H   0  0  0  0  0  0  0  0  0  0  0  0
   -0.3568    1.3610   -0.6720 H   0  0  0  0  0  0  0  0  0  0  0  0
   -2.4989    1.2099   -0.8846 C   0  0  0  0  0  0  0  0  0  0  0  0
   -2.2365    1.3649   -1.9315 H   0  0  0  0  0  0  0  0  0  0  0  0
   -3.0195    0.2558   -0.7842 H   0  0  0  0  0  0  0  0  0  0  0  0
   -3.4303    2.3419   -0.4368 C   0  0  0  0  0  0  0  0  0  0  0  0
   -3.6958    2.2049    0.6119 H   0  0  0  0  0  0  0  0  0  0  0  0
   -2.9230    3.2995   -0.5578 H   0  0  0  0  0  0  0  0  0  0  0  0
   -4.7016    2.3329   -1.2835 C   0  0  0  0  0  0  0  0  0  0  0  0
   -4.4406    2.4881   -2.3291 H   0  0  0  0  0  0  0  0  0  0  0  0
   -5.2002    1.3708   -1.1778 H   0  0  0  0  0  0  0  0  0  0  0  0
   -5.6276    3.3914   -0.8648 N   0  0  0  0  0  0  0  0  0  0  0  0
   -6.4477    3.3649   -1.4528 H   0  0  0  0  0  0  0  0  0  0  0  0
   -5.8982    3.2340    0.0956 H   0  0  0  0  0  0  0  0  0  0  0  0
   -0.5564    0.0727    2.1744 C   0  0  0  0  0  0  0  0  0  0  0  0
    0.6169   -0.1288    2.4805 O   0  0  0  0  0  0  0  0  0  0  0  0
   -1.4759    0.4743    3.0595 N   0  0  0  0  0  0  0  0  0  0  0  0
   -2.4132    0.6318    2.7275 H   0  0  0  0  0  0  0  0  0  0  0  0
   -1.1971    0.7118    4.4750 C   0  0  0  0  0  0  0  0  0  0  0  0
   -0.3779    1.4272    4.5748 H   0  0  0  0  0  0  0  0  0  0  0  0
   -2.0826    1.1064    4.9754 H   0  0  0  0  0  0  0  0  0  0  0  0
   -0.8992   -0.2240    4.9525 H   0  0  0  0  0  0  0  0  0  0  0  0
  5  6  2  0  0  0  0
  5  7  1  0  0  0  0
  2  3  1  0  0  0  0
  2  4  1  0  0  0  0
  2  5  1  0  0  0  0
  1  2  1  0  0  0  0
 26 27  2  0  0  0  0
 26 28  1  0  0  0  0
 23 24  1  0  0  0  0
 23 25  1  0  0  0  0
 20 21  1  0  0  0  0
 20 22  1  0  0  0  0
 20 23  1  0  0  0  0
 17 18  1  0  0  0  0
 17 19  1  0  0  0  0
 17 20  1  0  0  0  0
 14 15  1  0  0  0  0
 14 16  1  0  0  0  0
 14 17  1  0  0  0  0
 11 12  1  0  0  0  0
 11 13  1  0  0  0  0
 11 14  1  0  0  0  0
  9 10  1  0  0  0  0
  9 11  1  0  0  0  0
  9 26  1  0  0  0  0
  7  8  1  0  0  0  0
  7  9  1  0  0  0  0
 30 31  1  0  0  0  0
 30 32  1  0  0  0  0
 30 33  1  0  0  0  0
 28 29  1  0  0  0  0
 28 30  1  0  0  0  0
M  END
$$$$
default_name
  -OEChem-02102213163D

 33 32  0     1  0  0  0  0  0999 V2000
   -3.8420   -3.6918    1.5562 H   0  0  0  0  0  0  0  0  0  0  0  0
   -3.8430   -2.7008    1.1032 C   0  0  0  0  0  0  0  0  0  0  0  0
   -4.5510   -2.0608    1.6242 H   0  0  0  0  0  0  0  0  0  0  0  0
   -4.1140   -2.7798    0.0522 H   0  0  0  0  0  0  0  0  0  0  0  0
   -2.4570   -2.1098    1.2172 C   0  0  0  0  0  0  0  0  0  0  0  0
   -1.5600   -2.7438    1.7572 O   0  0  0  0  0  0  0  0  0  0  0  0
   -2.2870   -0.8898    0.7102 N   0  0  0  0  0  0  0  0  0  0  0  0
   -3.0820   -0.4218    0.2992 H   0  0  0  0  0  0  0  0  0  0  0  0
   -1.0240   -0.1468    0.7262 C   0  0  1  0  0  0  0  0  0  0  0  0
   -0.2680   -0.7367    0.2062 H   0  0  0  0  0  0  0  0  0  0  0  0
   -1.2212    1.1806   -0.0314 C   0  0  0  0  0  0  0  0  0  0  0  0
   -1.2799    1.9911    0.6979 H   0  0  0  0  0  0  0  0  0  0  0  0
   -0.3568    1.3610   -0.6720 H   0  0  0  0  0  0  0  0  0  0  0  0
   -2.4989    1.2099   -0.8846 C   0  0  0  0  0  0  0  0  0  0  0  0
   -2.2386    1.0969   -1.9374 H   0  0  0  0  0  0  0  0  0  0  0  0
   -3.1485    0.3849   -0.5865 H   0  0  0  0  0  0  0  0  0  0  0  0
   -3.2492    2.5339   -0.7014 C   0  0  0  0  0  0  0  0  0  0  0  0
   -3.5098    2.6651    0.3492 H   0  0  0  0  0  0  0  0  0  0  0  0
   -2.6127    3.3597   -1.0205 H   0  0  0  0  0  0  0  0  0  0  0  0
   -4.5259    2.5266   -1.5400 C   0  0  0  0  0  0  0  0  0  0  0  0
   -4.2670    2.4143   -2.5916 H   0  0  0  0  0  0  0  0  0  0  0  0
   -5.1548    1.6920   -1.2348 H   0  0  0  0  0  0  0  0  0  0  0  0
   -5.2820    3.7726   -1.3693 N   0  0  0  0  0  0  0  0  0  0  0  0
   -6.1093    3.7391   -1.9466 H   0  0  0  0  0  0  0  0  0  0  0  0
   -5.5524    3.8660   -0.4006 H   0  0  0  0  0  0  0  0  0  0  0  0
   -0.5564    0.0727    2.1744 C   0  0  0  0  0  0  0  0  0  0  0  0
    0.6169   -0.1288    2.4805 O   0  0  0  0  0  0  0  0  0  0  0  0
   -1.4759    0.4743    3.0595 N   0  0  0  0  0  0  0  0  0  0  0  0
   -2.4132    0.6318    2.7275 H   0  0  0  0  0  0  0  0  0  0  0  0
   -1.1971    0.7118    4.4750 C   0  0  0  0  0  0  0  0  0  0  0  0
   -0.3779    1.4272    4.5748 H   0  0  0  0  0  0  0  0  0  0  0  0
   -2.0826    1.1064    4.9754 H   0  0  0  0  0  0  0  0  0  0  0  0
   -0.8992   -0.2240    4.9525 H   0  0  0  0  0  0  0  0  0  0  0  0
  5  6  2  0  0  0  0
  5  7  1  0  0  0  0
  2  3  1  0  0  0  0
  2  4  1  0  0  0  0
  2  5  1  0  0  0  0
  1  2  1  0  0  0  0
 26 27  2  0  0  0  0
 26 28  1  0  0  0  0
 23 24  1  0  0  0  0
 23 25  1  0  0  0  0
 20 21  1  0  0  0  0
 20 22  1  0  0  0  0
 20 23  1  0  0  0  0
 17 18  1  0  0  0  0
 17 19  1  0  0  0  0
 17 20  1  0  0  0  0
 14 15  1  0  0  0  0
 14 16  1  0  0  0  0
 14 17  1  0  0  0  0
 11 12  1  0  0  0  0
 11 13  1  0  0  0  0
 11 14  1  0  0  0  0
  9 10  1  0  0  0  0
  9 11  1  0  0  0  0
  9 26  1  0  0  0  0
  7  8  1  0  0  0  0
  7  9  1  0  0  0  0
 30 31  1  0  0  0  0
 30 32  1  0  0  0  0
 30 33  1  0  0  0  0
 28 29  1  0  0  0  0
 28 30  1  0  0  0  0
M  END
$$$$
default_name
  -OEChem-02102213163D

 33 32  0     1  0  0  0  0  0999 V2000
   -3.8420   -3.6918    1.5562 H   0  0  0  0  0  0  0  0  0  0  0  0
   -3.8430   -2.7008    1.1032 C   0  0  0  0  0  0  0  0  0  0  0  0
   -4.5510   -2.0608    1.6242 H   0  0  0  0  0  0  0  0  0  0  0  0
   -4.1140   -2.7798    0.0522 H   0  0  0  0  0  0  0  0  0  0  0  0
   -2.4570   -2.1098    1.2172 C   0  0  0  0  0  0  0  0  0  0  0  0
   -1.5600   -2.7438    1.7572 O   0  0  0  0  0  0  0  0  0  0  0  0
   -2.2870   -0.8898    0.7102 N   0  0  0  0  0  0  0  0  0  0  0  0
   -3.0820   -0.4218    0.2992 H   0  0  0  0  0  0  0  0  0  0  0  0
   -1.0240   -0.1468    0.7262 C   0  0  1  0  0  0  0  0  0  0  0  0
   -0.2680   -0.7367    0.2062 H   0  0  0  0  0  0  0  0  0  0  0  0
   -1.2212    1.1806   -0.0314 C   0  0  0  0  0  0  0  0  0  0  0  0
   -1.2799    1.9911    0.6979 H   0  0  0  0  0  0  0  0  0  0  0  0
   -0.3568    1.3610   -0.6720 H   0  0  0  0  0  0  0  0  0  0  0  0
   -2.4989    1.2099   -0.8846 C   0  0  0  0  0  0  0  0  0  0  0  0
   -2.2793    0.8370   -1.8855 H   0  0  0  0  0  0  0  0  0  0  0  0
   -3.2537    0.5708   -0.4228 H   0  0  0  0  0  0  0  0  0  0  0  0
   -3.0480    2.6364   -0.9993 C   0  0  0  0  0  0  0  0  0  0  0  0
   -3.2654    3.0265   -0.0045 H   0  0  0  0  0  0  0  0  0  0  0  0
   -2.3065    3.2737   -1.4820 H   0  0  0  0  0  0  0  0  0  0  0  0
   -4.3296    2.6334   -1.8303 C   0  0  0  0  0  0  0  0  0  0  0  0
   -4.1112    2.2616   -2.8301 H   0  0  0  0  0  0  0  0  0  0  0  0
   -5.0651    1.9834   -1.3592 H   0  0  0  0  0  0  0  0  0  0  0  0
   -4.8958    3.9827   -1.9404 N   0  0  0  0  0  0  0  0  0  0  0  0
   -5.7312    3.9456   -2.5058 H   0  0  0  0  0  0  0  0  0  0  0  0
   -5.1300    4.3200   -1.0175 H   0  0  0  0  0  0  0  0  0  0  0  0
   -0.5564    0.0727    2.1744 C   0  0  0  0  0  0  0  0  0  0  0  0
    0.6169   -0.1288    2.4805 O   0  0  0  0  0  0  0  0  0  0  0  0
   -1.4759    0.4743    3.0595 N   0  0  0  0  0  0  0  0  0  0  0  0
   -2.4132    0.6318    2.7275 H   0  0  0  0  0  0  0  0  0  0  0  0
   -1.1971    0.7118    4.4750 C   0  0  0  0  0  0  0  0  0  0  0  0
   -0.3779    1.4272    4.5748 H   0  0  0  0  0  0  0  0  0  0  0  0
   -2.0826    1.1064    4.9754 H   0  0  0  0  0  0  0  0  0  0  0  0
   -0.8992   -0.2240    4.9525 H   0  0  0  0  0  0  0  0  0  0  0  0
  5  6  2  0  0  0  0
  5  7  1  0  0  0  0
  2  3  1  0  0  0  0
  2  4  1  0  0  0  0
  2  5  1  0  0  0  0
  1  2  1  0  0  0  0
 26 27  2  0  0  0  0
 26 28  1  0  0  0  0
 23 24  1  0  0  0  0
 23 25  1  0  0  0  0
 20 21  1  0  0  0  0
 20 22  1  0  0  0  0
 20 23  1  0  0  0  0
 17 18  1  0  0  0  0
 17 19  1  0  0  0  0
 17 20  1  0  0  0  0
 14 15  1  0  0  0  0
 14 16  1  0  0  0  0
 14 17  1  0  0  0  0
 11 12  1  0  0  0  0
 11 13  1  0  0  0  0
 11 14  1  0  0  0  0
  9 10  1  0  0  0  0
  9 11  1  0  0  0  0
  9 26  1  0  0  0  0
  7  8  1  0  0  0  0
  7  9  1  0  0  0  0
 30 31  1  0  0  0  0
 30 32  1  0  0  0  0
 30 33  1  0  0  0  0
 28 29  1  0  0  0  0
 28 30  1  0  0  0  0
M  END
$$$$
default_name
  -OEChem-02102213163D

 33 32  0     1  0  0  0  0  0999 V2000
   -3.8420   -3.6918    1.5562 H   0  0  0  0  0  0  0  0  0  0  0  0
   -3.8430   -2.7008    1.1032 C   0  0  0  0  0  0  0  0  0  0  0  0
   -4.5510   -2.0608    1.6242 H   0  0  0  0  0  0  0  0  0  0  0  0
   -4.1140   -2.7798    0.0522 H   0  0  0  0  0  0  0  0  0  0  0  0
   -2.4570   -2.1098    1.2172 C   0  0  0  0  0  0  0  0  0  0  0  0
   -1.5600   -2.7438    1.7572 O   0  0  0  0  0  0  0  0  0  0  0  0
   -2.2870   -0.8898    0.7102 N   0  0  0  0  0  0  0  0  0  0  0  0
   -3.0820   -0.4218    0.2992 H   0  0  0  0  0  0  0  0  0  0  0  0
   -1.0240   -0.1468    0.7262 C   0  0  1  0  0  0  0  0  0  0  0  0
   -0.2680   -0.7367    0.2062 H   0  0  0  0  0  0  0  0  0  0  0  0
   -1.2212    1.1806   -0.0314 C   0  0  0  0  0  0  0  0  0  0  0  0
   -1.2799    1.9911    0.6979 H   0  0  0  0  0  0  0  0  0  0  0  0
   -0.3568    1.3610   -0.6720 H   0  0  0  0  0  0  0  0  0  0  0  0
   -2.4989    1.2099   -0.8846 C   0  0  0  0  0  0  0  0  0  0  0  0
   -2.3557    0.6030   -1.7791 H   0  0  0  0  0  0  0  0  0  0  0  0
   -3.3277    0.8007   -0.3040 H   0  0  0  0  0  0  0  0  0  0  0  0
   -2.8403    2.6424   -1.3100 C   0  0  0  0  0  0  0  0  0  0  0  0
   -2.9790    3.2643   -0.4251 H   0  0  0  0  0  0  0  0  0  0  0  0
   -2.0254    3.0473   -1.9107 H   0  0  0  0  0  0  0  0  0  0  0  0
   -4.1260    2.6458   -2.1347 C   0  0  0  0  0  0  0  0  0  0  0  0
   -3.9838    2.0404   -3.0284 H   0  0  0  0  0  0  0  0  0  0  0  0
   -4.9371    2.2253   -1.5424 H   0  0  0  0  0  0  0  0  0  0  0  0
   -4.4954    4.0072   -2.5391 N   0  0  0  0  0  0  0  0  0  0  0  0
   -5.3390    3.9703   -3.0922 H   0  0  0  0  0  0  0  0  0  0  0  0
   -4.6598    4.5651   -1.7133 H   0  0  0  0  0  0  0  0  0  0  0  0
   -0.5564    0.0727    2.1744 C   0  0  0  0  0  0  0  0  0  0  0  0
    0.6169   -0.1288    2.4805 O   0  0  0  0  0  0  0  0  0  0  0  0
   -1.4759    0.4743    3.0595 N   0  0  0  0  0  0  0  0  0  0  0  0
   -2.4132    0.6318    2.7275 H   0  0  0  0  0  0  0  0  0  0  0  0
   -1.1971    0.7118    4.4750 C   0  0  0  0  0  0  0  0  0  0  0  0
   -0.3779    1.4272    4.5748 H   0  0  0  0  0  0  0  0  0  0  0  0
   -2.0826    1.1064    4.9754 H   0  0  0  0  0  0  0  0  0  0  0  0
   -0.8992   -0.2240    4.9525 H   0  0  0  0  0  0  0  0  0  0  0  0
  5  6  2  0  0  0  0
  5  7  1  0  0  0  0
  2  3  1  0  0  0  0
  2  4  1  0  0  0  0
  2  5  1  0  0  0  0
  1  2  1  0  0  0  0
 26 27  2  0  0  0  0
 26 28  1  0  0  0  0
 23 24  1  0  0  0  0
 23 25  1  0  0  0  0
 20 21  1  0  0  0  0
 20 22  1  0  0  0  0
 20 23  1  0  0  0  0
 17 18  1  0  0  0  0
 17 19  1  0  0  0  0
 17 20  1  0  0  0  0
 14 15  1  0  0  0  0
 14 16  1  0  0  0  0
 14 17  1  0  0  0  0
 11 12  1  0  0  0  0
 11 13  1  0  0  0  0
 11 14  1  0  0  0  0
  9 10  1  0  0  0  0
  9 11  1  0  0  0  0
  9 26  1  0  0  0  0
  7  8  1  0  0  0  0
  7  9  1  0  0  0  0
 30 31  1  0  0  0  0
 30 32  1  0  0  0  0
 30 33  1  0  0  0  0
 28 29  1  0  0  0  0
 28 30  1  0  0  0  0
M  END
$$$$
default_name
  -OEChem-02102213163D

 33 32  0     1  0  0  0  0  0999 V2000
   -3.8420   -3.6918    1.5562 H   0  0  0  0  0  0  0  0  0  0  0  0
   -3.8430   -2.7008    1.1032 C   0  0  0  0  0  0  0  0  0  0  0  0
   -4.5510   -2.0608    1.6242 H   0  0  0  0  0  0  0  0  0  0  0  0
   -4.1140   -2.7798    0.0522 H   0  0  0  0  0  0  0  0  0  0  0  0
   -2.4570   -2.1098    1.2172 C   0  0  0  0  0  0  0  0  0  0  0  0
   -1.5600   -2.7438    1.7572 O   0  0  0  0  0  0  0  0  0  0  0  0
   -2.2870   -0.8898    0.7102 N   0  0  0  0  0  0  0  0  0  0  0  0
   -3.0820   -0.4218    0.2992 H   0  0  0  0  0  0  0  0  0  0  0  0
   -1.0240   -0.1468    0.7262 C   0  0  1  0  0  0  0  0  0  0  0  0
   -0.2680   -0.7367    0.2062 H   0  0  0  0  0  0  0  0  0  0  0  0
   -1.2212    1.1806   -0.0314 C   0  0  0  0  0  0  0  0  0  0  0  0
   -1.0137    2.0053    0.6535 H   0  0  0  0  0  0  0  0  0  0  0  0
   -0.5077    1.2342   -0.8549 H   0  0  0  0  0  0  0  0  0  0  0  0
   -2.6445    1.3610   -0.5819 C   0  0  0  0  0  0  0  0  0  0  0  0
   -2.8748    0.5505   -1.2738 H   0  0  0  0  0  0  0  0  0  0  0  0
   -3.3553    1.3370    0.2461 H   0  0  0  0  0  0  0  0  0  0  0  0
   -2.7794    2.6958   -1.3234 C   0  0  0  0  0  0  0  0  0  0  0  0
   -2.5443    3.5170   -0.6457 H   0  0  0  0  0  0  0  0  0  0  0  0
   -2.0879    2.7150   -2.1662 H   0  0  0  0  0  0  0  0  0  0  0  0
   -4.2081    2.8608   -1.8381 C   0  0  0  0  0  0  0  0  0  0  0  0
   -4.4389    2.0520   -2.5296 H   0  0  0  0  0  0  0  0  0  0  0  0
   -4.9015    2.8240   -0.9995 H   0  0  0  0  0  0  0  0  0  0  0  0
   -4.3786    4.1414   -2.5340 N   0  0  0  0  0  0  0  0  0  0  0  0
   -5.3274    4.2104   -2.8717 H   0  0  0  0  0  0  0  0  0  0  0  0
   -4.1967    4.8963   -1.8880 H   0  0  0  0  0  0  0  0  0  0  0  0
   -0.5564    0.0727    2.1744 C   0  0  0  0  0  0  0  0  0  0  0  0
    0.6169   -0.1288    2.4805 O   0  0  0  0  0  0  0  0  0  0  0  0
   -1.4759    0.4743    3.0595 N   0  0  0  0  0  0  0  0  0  0  0  0
   -2.4132    0.6318    2.7275 H   0  0  0  0  0  0  0  0  0  0  0  0
   -1.1971    0.7118    4.4750 C   0  0  0  0  0  0  0  0  0  0  0  0
   -0.3779    1.4272    4.5748 H   0  0  0  0  0  0  0  0  0  0  0  0
   -2.0826    1.1064    4.9754 H   0  0  0  0  0  0  0  0  0  0  0  0
   -0.8992   -0.2240    4.9525 H   0  0  0  0  0  0  0  0  0  0  0  0
  5  6  2  0  0  0  0
  5  7  1  0  0  0  0
  2  3  1  0  0  0  0
  2  4  1  0  0  0  0
  2  5  1  0  0  0  0
  1  2  1  0  0  0  0
 26 27  2  0  0  0  0
 26 28  1  0  0  0  0
 23 24  1  0  0  0  0
 23 25  1  0  0  0  0
 20 21  1  0  0  0  0
 20 22  1  0  0  0  0
 20 23  1  0  0  0  0
 17 18  1  0  0  0  0
 17 19  1  0  0  0  0
 17 20  1  0  0  0  0
 14 15  1  0  0  0  0
 14 16  1  0  0  0  0
 14 17  1  0  0  0  0
 11 12  1  0  0  0  0
 11 13  1  0  0  0  0
 11 14  1  0  0  0  0
  9 10  1  0  0  0  0
  9 11  1  0  0  0  0
  9 26  1  0  0  0  0
  7  8  1  0  0  0  0
  7  9  1  0  0  0  0
 30 31  1  0  0  0  0
 30 32  1  0  0  0  0
 30 33  1  0  0  0  0
 28 29  1  0  0  0  0
 28 30  1  0  0  0  0
M  END
$$$$
default_name
  -OEChem-02102213163D

 33 32  0     1  0  0  0  0  0999 V2000
   -3.8420   -3.6918    1.5562 H   0  0  0  0  0  0  0  0  0  0  0  0
   -3.8430   -2.7008    1.1032 C   0  0  0  0  0  0  0  0  0  0  0  0
   -4.5510   -2.0608    1.6242 H   0  0  0  0  0  0  0  0  0  0  0  0
   -4.1140   -2.7798    0.0522 H   0  0  0  0  0  0  0  0  0  0  0  0
   -2.4570   -2.1098    1.2172 C   0  0  0  0  0  0  0  0  0  0  0  0
   -1.5600   -2.7438    1.7572 O   0  0  0  0  0  0  0  0  0  0  0  0
   -2.2870   -0.8898    0.7102 N   0  0  0  0  0  0  0  0  0  0  0  0
   -3.0820   -0.4218    0.2992 H   0  0  0  0  0  0  0  0  0  0  0  0
   -1.0240   -0.1468    0.7262 C   0  0  1  0  0  0  0  0  0  0  0  0
   -0.2680   -0.7367    0.2062 H   0  0  0  0  0  0  0  0  0  0  0  0
   -1.2212    1.1806   -0.0314 C   0  0  0  0  0  0  0  0  0  0  0  0
   -1.0137    2.0053    0.6535 H   0  0  0  0  0  0  0  0  0  0  0  0
   -0.5077    1.2342   -0.8549 H   0  0  0  0  0  0  0  0  0  0  0  0
   -2.6445    1.3610   -0.5819 C   0  0  0  0  0  0  0  0  0  0  0  0
   -2.9747    0.4350   -1.0534 H   0  0  0  0  0  0  0  0  0  0  0  0
   -3.3195    1.6037    0.2409 H   0  0  0  0  0  0  0  0  0  0  0  0
   -2.6909    2.4873   -1.6207 C   0  0  0  0  0  0  0  0  0  0  0  0
   -2.3555    3.4197   -1.1656 H   0  0  0  0  0  0  0  0  0  0  0  0
   -2.0361    2.2383   -2.4563 H   0  0  0  0  0  0  0  0  0  0  0  0
   -4.1194    2.6618   -2.1326 C   0  0  0  0  0  0  0  0  0  0  0  0
   -4.4499    1.7377   -2.6041 H   0  0  0  0  0  0  0  0  0  0  0  0
   -4.7778    2.8929   -1.2969 H   0  0  0  0  0  0  0  0  0  0  0  0
   -4.2041    3.7500   -3.1134 N   0  0  0  0  0  0  0  0  0  0  0  0
   -5.1562    3.8277   -3.4397 H   0  0  0  0  0  0  0  0  0  0  0  0
   -3.9290    4.6159   -2.6721 H   0  0  0  0  0  0  0  0  0  0  0  0
   -0.5564    0.0727    2.1744 C   0  0  0  0  0  0  0  0  0  0  0  0
    0.6169   -0.1288    2.4805 O   0  0  0  0  0  0  0  0  0  0  0  0
   -1.4759    0.4743    3.0595 N   0  0  0  0  0  0  0  0  0  0  0  0
   -2.4132    0.6318    2.7275 H   0  0  0  0  0  0  0  0  0  0  0  0
   -1.1971    0.7118    4.4750 C   0  0  0  0  0  0  0  0  0  0  0  0
   -0.3779    1.4272    4.5748 H   0  0  0  0  0  0  0  0  0  0  0  0
   -2.0826    1.1064    4.9754 H   0  0  0  0  0  0  0  0  0  0  0  0
   -0.8992   -0.2240    4.9525 H   0  0  0  0  0  0  0  0  0  0  0  0
  5  6  2  0  0  0  0
  5  7  1  0  0  0  0
  2  3  1  0  0  0  0
  2  4  1  0  0  0  0
  2  5  1  0  0  0  0
  1  2  1  0  0  0  0
 26 27  2  0  0  0  0
 26 28  1  0  0  0  0
 23 24  1  0  0  0  0
 23 25  1  0  0  0  0
 20 21  1  0  0  0  0
 20 22  1  0  0  0  0
 20 23  1  0  0  0  0
 17 18  1  0  0  0  0
 17 19  1  0  0  0  0
 17 20  1  0  0  0  0
 14 15  1  0  0  0  0
 14 16  1  0  0  0  0
 14 17  1  0  0  0  0
 11 12  1  0  0  0  0
 11 13  1  0  0  0  0
 11 14  1  0  0  0  0
  9 10  1  0  0  0  0
  9 11  1  0  0  0  0
  9 26  1  0  0  0  0
  7  8  1  0  0  0  0
  7  9  1  0  0  0  0
 30 31  1  0  0  0  0
 30 32  1  0  0  0  0
 30 33  1  0  0  0  0
 28 29  1  0  0  0  0
 28 30  1  0  0  0  0
M  END
$$$$
default_name
  -OEChem-02102213163D

 33 32  0     1  0  0  0  0  0999 V2000
   -3.8420   -3.6918    1.5562 H   0  0  0  0  0  0  0  0  0  0  0  0
   -3.8430   -2.7008    1.1032 C   0  0  0  0  0  0  0  0  0  0  0  0
   -4.5510   -2.0608    1.6242 H   0  0  0  0  0  0  0  0  0  0  0  0
   -4.1140   -2.7798    0.0522 H   0  0  0  0  0  0  0  0  0  0  0  0
   -2.4570   -2.1098    1.2172 C   0  0  0  0  0  0  0  0  0  0  0  0
   -1.5600   -2.7438    1.7572 O   0  0  0  0  0  0  0  0  0  0  0  0
   -2.2870   -0.8898    0.7102 N   0  0  0  0  0  0  0  0  0  0  0  0
   -3.0820   -0.4218    0.2992 H   0  0  0  0  0  0  0  0  0  0  0  0
   -1.0240   -0.1468    0.7262 C   0  0  1  0  0  0  0  0  0  0  0  0
   -0.2680   -0.7367    0.2062 H   0  0  0  0  0  0  0  0  0  0  0  0
   -1.2212    1.1806   -0.0314 C   0  0  0  0  0  0  0  0  0  0  0  0
   -1.0137    2.0053    0.6535 H   0  0  0  0  0  0  0  0  0  0  0  0
   -0.5077    1.2342   -0.8549 H   0  0  0  0  0  0  0  0  0  0  0  0
   -2.6445    1.3610   -0.5819 C   0  0  0  0  0  0  0  0  0  0  0  0
   -3.0752    0.3856   -0.8098 H   0  0  0  0  0  0  0  0  0  0  0  0
   -3.2603    1.8567    0.1708 H   0  0  0  0  0  0  0  0  0  0  0  0
   -2.6337    2.2063   -1.8606 C   0  0  0  0  0  0  0  0  0  0  0  0
   -2.1980    3.1836   -1.6503 H   0  0  0  0  0  0  0  0  0  0  0  0
   -2.0391    1.7035   -2.6238 H   0  0  0  0  0  0  0  0  0  0  0  0
   -4.0611    2.3908   -2.3721 C   0  0  0  0  0  0  0  0  0  0  0  0
   -4.4919    1.4172   -2.6004 H   0  0  0  0  0  0  0  0  0  0  0  0
   -4.6609    2.8768   -1.6044 H   0  0  0  0  0  0  0  0  0  0  0  0
   -4.0895    3.2168   -3.5846 N   0  0  0  0  0  0  0  0  0  0  0  0
   -5.0437    3.3060   -3.9017 H   0  0  0  0  0  0  0  0  0  0  0  0
   -3.7202    4.1323   -3.3705 H   0  0  0  0  0  0  0  0  0  0  0  0
   -0.5564    0.0727    2.1744 C   0  0  0  0  0  0  0  0  0  0  0  0
    0.6169   -0.1288    2.4805 O   0  0  0  0  0  0  0  0  0  0  0  0
   -1.4759    0.4743    3.0595 N   0  0  0  0  0  0  0  0  0  0  0  0
   -2.4132    0.6318    2.7275 H   0  0  0  0  0  0  0  0  0  0  0  0
   -1.1971    0.7118    4.4750 C   0  0  0  0  0  0  0  0  0  0  0  0
   -0.3779    1.4272    4.5748 H   0  0  0  0  0  0  0  0  0  0  0  0
   -2.0826    1.1064    4.9754 H   0  0  0  0  0  0  0  0  0  0  0  0
   -0.8992   -0.2240    4.9525 H   0  0  0  0  0  0  0  0  0  0  0  0
  5  6  2  0  0  0  0
  5  7  1  0  0  0  0
  2  3  1  0  0  0  0
  2  4  1  0  0  0  0
  2  5  1  0  0  0  0
  1  2  1  0  0  0  0
 26 27  2  0  0  0  0
 26 28  1  0  0  0  0
 23 24  1  0  0  0  0
 23 25  1  0  0  0  0
 20 21  1  0  0  0  0
 20 22  1  0  0  0  0
 20 23  1  0  0  0  0
 17 18  1  0  0  0  0
 17 19  1  0  0  0  0
 17 20  1  0  0  0  0
 14 15  1  0  0  0  0
 14 16  1  0  0  0  0
 14 17  1  0  0  0  0
 11 12  1  0  0  0  0
 11 13  1  0  0  0  0
 11 14  1  0  0  0  0
  9 10  1  0  0  0  0
  9 11  1  0  0  0  0
  9 26  1  0  0  0  0
  7  8  1  0  0  0  0
  7  9  1  0  0  0  0
 30 31  1  0  0  0  0
 30 32  1  0  0  0  0
 30 33  1  0  0  0  0
 28 29  1  0  0  0  0
 28 30  1  0  0  0  0
M  END
$$$$
default_name
  -OEChem-02102213163D

 33 32  0     1  0  0  0  0  0999 V2000
   -3.8420   -3.6918    1.5562 H   0  0  0  0  0  0  0  0  0  0  0  0
   -3.8430   -2.7008    1.1032 C   0  0  0  0  0  0  0  0  0  0  0  0
   -4.5510   -2.0608    1.6242 H   0  0  0  0  0  0  0  0  0  0  0  0
   -4.1140   -2.7798    0.0522 H   0  0  0  0  0  0  0  0  0  0  0  0
   -2.4570   -2.1098    1.2172 C   0  0  0  0  0  0  0  0  0  0  0  0
   -1.5600   -2.7438    1.7572 O   0  0  0  0  0  0  0  0  0  0  0  0
   -2.2870   -0.8898    0.7102 N   0  0  0  0  0  0  0  0  0  0  0  0
   -3.0820   -0.4218    0.2992 H   0  0  0  0  0  0  0  0  0  0  0  0
   -1.0240   -0.1468    0.7262 C   0  0  1  0  0  0  0  0  0  0  0  0
   -0.2680   -0.7367    0.2062 H   0  0  0  0  0  0  0  0  0  0  0  0
   -1.2212    1.1806   -0.0314 C   0  0  0  0  0  0  0  0  0  0  0  0
   -1.0137    2.0053    0.6535 H   0  0  0  0  0  0  0  0  0  0  0  0
   -0.5077    1.2342   -0.8549 H   0  0  0  0  0  0  0  0  0  0  0  0
   -2.6445    1.3610   -0.5819 C   0  0  0  0  0  0  0  0  0  0  0  0
   -3.1694    0.4056   -0.5596 H   0  0  0  0  0  0  0  0  0  0  0  0
   -3.1818    2.0787    0.0407 H   0  0  0  0  0  0  0  0  0  0  0  0
   -2.6119    1.8722   -2.0267 C   0  0  0  0  0  0  0  0  0  0  0  0
   -2.0825    2.8247   -2.0666 H   0  0  0  0  0  0  0  0  0  0  0  0
   -2.0967    1.1471   -2.6573 H   0  0  0  0  0  0  0  0  0  0  0  0
   -4.0373    2.0661   -2.5402 C   0  0  0  0  0  0  0  0  0  0  0  0
   -4.5621    1.1124   -2.5188 H   0  0  0  0  0  0  0  0  0  0  0  0
   -4.5589    2.7766   -1.9011 H   0  0  0  0  0  0  0  0  0  0  0  0
   -4.0425    2.5783   -3.9154 N   0  0  0  0  0  0  0  0  0  0  0  0
   -4.9974    2.6809   -4.2264 H   0  0  0  0  0  0  0  0  0  0  0  0
   -3.5846    3.4784   -3.9355 H   0  0  0  0  0  0  0  0  0  0  0  0
   -0.5564    0.0727    2.1744 C   0  0  0  0  0  0  0  0  0  0  0  0
    0.6169   -0.1288    2.4805 O   0  0  0  0  0  0  0  0  0  0  0  0
   -1.4759    0.4743    3.0595 N   0  0  0  0  0  0  0  0  0  0  0  0
   -2.4132    0.6318    2.7275 H   0  0  0  0  0  0  0  0  0  0  0  0
   -1.1971    0.7118    4.4750 C   0  0  0  0  0  0  0  0  0  0  0  0
   -0.3779    1.4272    4.5748 H   0  0  0  0  0  0  0  0  0  0  0  0
   -2.0826    1.1064    4.9754 H   0  0  0  0  0  0  0  0  0  0  0  0
   -0.8992   -0.2240    4.9525 H   0  0  0  0  0  0  0  0  0  0  0  0
  5  6  2  0  0  0  0
  5  7  1  0  0  0  0
  2  3  1  0  0  0  0
  2  4  1  0  0  0  0
  2  5  1  0  0  0  0
  1  2  1  0  0  0  0
 26 27  2  0  0  0  0
 26 28  1  0  0  0  0
 23 24  1  0  0  0  0
 23 25  1  0  0  0  0
 20 21  1  0  0  0  0
 20 22  1  0  0  0  0
 20 23  1  0  0  0  0
 17 18  1  0  0  0  0
 17 19  1  0  0  0  0
 17 20  1  0  0  0  0
 14 15  1  0  0  0  0
 14 16  1  0  0  0  0
 14 17  1  0  0  0  0
 11 12  1  0  0  0  0
 11 13  1  0  0  0  0
 11 14  1  0  0  0  0
  9 10  1  0  0  0  0
  9 11  1  0  0  0  0
  9 26  1  0  0  0  0
  7  8  1  0  0  0  0
  7  9  1  0  0  0  0
 30 31  1  0  0  0  0
 30 32  1  0  0  0  0
 30 33  1  0  0  0  0
 28 29  1  0  0  0  0
 28 30  1  0  0  0  0
M  END
$$$$
default_name
  -OEChem-02102213163D

 33 32  0     1  0  0  0  0  0999 V2000
   -3.8420   -3.6918    1.5562 H   0  0  0  0  0  0  0  0  0  0  0  0
   -3.8430   -2.7008    1.1032 C   0  0  0  0  0  0  0  0  0  0  0  0
   -4.5510   -2.0608    1.6242 H   0  0  0  0  0  0  0  0  0  0  0  0
   -4.1140   -2.7798    0.0522 H   0  0  0  0  0  0  0  0  0  0  0  0
   -2.4570   -2.1098    1.2172 C   0  0  0  0  0  0  0  0  0  0  0  0
   -1.5600   -2.7438    1.7572 O   0  0  0  0  0  0  0  0  0  0  0  0
   -2.2870   -0.8898    0.7102 N   0  0  0  0  0  0  0  0  0  0  0  0
   -3.0820   -0.4218    0.2992 H   0  0  0  0  0  0  0  0  0  0  0  0
   -1.0240   -0.1468    0.7262 C   0  0  1  0  0  0  0  0  0  0  0  0
   -0.2680   -0.7367    0.2062 H   0  0  0  0  0  0  0  0  0  0  0  0
   -1.2212    1.1806   -0.0314 C   0  0  0  0  0  0  0  0  0  0  0  0
   -1.0137    2.0053    0.6535 H   0  0  0  0  0  0  0  0  0  0  0  0
   -0.5077    1.2342   -0.8549 H   0  0  0  0  0  0  0  0  0  0  0  0
   -2.6445    1.3610   -0.5819 C   0  0  0  0  0  0  0  0  0  0  0  0
   -3.2510    0.4937   -0.3198 H   0  0  0  0  0  0  0  0  0  0  0  0
   -3.0894    2.2548   -0.1406 H   0  0  0  0  0  0  0  0  0  0  0  0
   -2.6268    1.5076   -2.1076 C   0  0  0  0  0  0  0  0  0  0  0  0
   -2.0168    2.3675   -2.3862 H   0  0  0  0  0  0  0  0  0  0  0  0
   -2.2049    0.6069   -2.5545 H   0  0  0  0  0  0  0  0  0  0  0  0
   -4.0494    1.7101   -2.6255 C   0  0  0  0  0  0  0  0  0  0  0  0
   -4.6557    0.8442   -2.3647 H   0  0  0  0  0  0  0  0  0  0  0  0
   -4.4786    2.5993   -2.1667 H   0  0  0  0  0  0  0  0  0  0  0  0
   -4.0664    1.8778   -4.0832 N   0  0  0  0  0  0  0  0  0  0  0  0
   -5.0204    1.9949   -4.3915 H   0  0  0  0  0  0  0  0  0  0  0  0
   -3.5314    2.6988   -4.3285 H   0  0  0  0  0  0  0  0  0  0  0  0
   -0.5564    0.0727    2.1744 C   0  0  0  0  0  0  0  0  0  0  0  0
    0.6169   -0.1288    2.4805 O   0  0  0  0  0  0  0  0  0  0  0  0
   -1.4759    0.4743    3.0595 N   0  0  0  0  0  0  0  0  0  0  0  0
   -2.4132    0.6318    2.7275 H   0  0  0  0  0  0  0  0  0  0  0  0
   -1.1971    0.7118    4.4750 C   0  0  0  0  0  0  0  0  0  0  0  0
   -0.3779    1.4272    4.5748 H   0  0  0  0  0  0  0  0  0  0  0  0
   -2.0826    1.1064    4.9754 H   0  0  0  0  0  0  0  0  0  0  0  0
   -0.8992   -0.2240    4.9525 H   0  0  0  0  0  0  0  0  0  0  0  0
  5  6  2  0  0  0  0
  5  7  1  0  0  0  0
  2  3  1  0  0  0  0
  2  4  1  0  0  0  0
  2  5  1  0  0  0  0
  1  2  1  0  0  0  0
 26 27  2  0  0  0  0
 26 28  1  0  0  0  0
 23 24  1  0  0  0  0
 23 25  1  0  0  0  0
 20 21  1  0  0  0  0
 20 22  1  0  0  0  0
 20 23  1  0  0  0  0
 17 18  1  0  0  0  0
 17 19  1  0  0  0  0
 17 20  1  0  0  0  0
 14 15  1  0  0  0  0
 14 16  1  0  0  0  0
 14 17  1  0  0  0  0
 11 12  1  0  0  0  0
 11 13  1  0  0  0  0
 11 14  1  0  0  0  0
  9 10  1  0  0  0  0
  9 11  1  0  0  0  0
  9 26  1  0  0  0  0
  7  8  1  0  0  0  0
  7  9  1  0  0  0  0
 30 31  1  0  0  0  0
 30 32  1  0  0  0  0
 30 33  1  0  0  0  0
 28 29  1  0  0  0  0
 28 30  1  0  0  0  0
M  END
$$$$
default_name
  -OEChem-02102213163D

 33 32  0     1  0  0  0  0  0999 V2000
   -3.8420   -3.6918    1.5562 H   0  0  0  0  0  0  0  0  0  0  0  0
   -3.8430   -2.7008    1.1032 C   0  0  0  0  0  0  0  0  0  0  0  0
   -4.5510   -2.0608    1.6242 H   0  0  0  0  0  0  0  0  0  0  0  0
   -4.1140   -2.7798    0.0522 H   0  0  0  0  0  0  0  0  0  0  0  0
   -2.4570   -2.1098    1.2172 C   0  0  0  0  0  0  0  0  0  0  0  0
   -1.5600   -2.7438    1.7572 O   0  0  0  0  0  0  0  0  0  0  0  0
   -2.2870   -0.8898    0.7102 N   0  0  0  0  0  0  0  0  0  0  0  0
   -3.0820   -0.4218    0.2992 H   0  0  0  0  0  0  0  0  0  0  0  0
   -1.0240   -0.1468    0.7262 C   0  0  1  0  0  0  0  0  0  0  0  0
   -0.2680   -0.7367    0.2062 H   0  0  0  0  0  0  0  0  0  0  0  0
   -1.2212    1.1806   -0.0314 C   0  0  0  0  0  0  0  0  0  0  0  0
   -1.0137    2.0053    0.6535 H   0  0  0  0  0  0  0  0  0  0  0  0
   -0.5077    1.2342   -0.8549 H   0  0  0  0  0  0  0  0  0  0  0  0
   -2.6445    1.3610   -0.5819 C   0  0  0  0  0  0  0  0  0  0  0  0
   -3.3143    0.6437   -0.1068 H   0  0  0  0  0  0  0  0  0  0  0  0
   -2.9893    2.3728   -0.3608 H   0  0  0  0  0  0  0  0  0  0  0  0
   -2.6774    1.1374   -2.0980 C   0  0  0  0  0  0  0  0  0  0  0  0
   -2.0055    1.8432   -2.5873 H   0  0  0  0  0  0  0  0  0  0  0  0
   -2.3564    0.1198   -2.3224 H   0  0  0  0  0  0  0  0  0  0  0  0
   -4.0967    1.3468   -2.6222 C   0  0  0  0  0  0  0  0  0  0  0  0
   -4.7663    0.6306   -2.1487 H   0  0  0  0  0  0  0  0  0  0  0  0
   -4.4256    2.3569   -2.3833 H   0  0  0  0  0  0  0  0  0  0  0  0
   -4.1595    1.1632   -4.0767 N   0  0  0  0  0  0  0  0  0  0  0  0
   -5.1113    1.2949   -4.3859 H   0  0  0  0  0  0  0  0  0  0  0  0
   -3.5642    1.8466   -4.5229 H   0  0  0  0  0  0  0  0  0  0  0  0
   -0.5564    0.0727    2.1744 C   0  0  0  0  0  0  0  0  0  0  0  0
    0.6169   -0.1288    2.4805 O   0  0  0  0  0  0  0  0  0  0  0  0
   -1.4759    0.4743    3.0595 N   0  0  0  0  0  0  0  0  0  0  0  0
   -2.4132    0.6318    2.7275 H   0  0  0  0  0  0  0  0  0  0  0  0
   -1.1971    0.7118    4.4750 C   0  0  0  0  0  0  0  0  0  0  0  0
   -0.3779    1.4272    4.5748 H   0  0  0  0  0  0  0  0  0  0  0  0
   -2.0826    1.1064    4.9754 H   0  0  0  0  0  0  0  0  0  0  0  0
   -0.8992   -0.2240    4.9525 H   0  0  0  0  0  0  0  0  0  0  0  0
  5  6  2  0  0  0  0
  5  7  1  0  0  0  0
  2  3  1  0  0  0  0
  2  4  1  0  0  0  0
  2  5  1  0  0  0  0
  1  2  1  0  0  0  0
 26 27  2  0  0  0  0
 26 28  1  0  0  0  0
 23 24  1  0  0  0  0
 23 25  1  0  0  0  0
 20 21  1  0  0  0  0
 20 22  1  0  0  0  0
 20 23  1  0  0  0  0
 17 18  1  0  0  0  0
 17 19  1  0  0  0  0
 17 20  1  0  0  0  0
 14 15  1  0  0  0  0
 14 16  1  0  0  0  0
 14 17  1  0  0  0  0
 11 12  1  0  0  0  0
 11 13  1  0  0  0  0
 11 14  1  0  0  0  0
  9 10  1  0  0  0  0
  9 11  1  0  0  0  0
  9 26  1  0  0  0  0
  7  8  1  0  0  0  0
  7  9  1  0  0  0  0
 30 31  1  0  0  0  0
 30 32  1  0  0  0  0
 30 33  1  0  0  0  0
 28 29  1  0  0  0  0
 28 30  1  0  0  0  0
M  END
$$$$
default_name
  -OEChem-02102213163D

 33 32  0     1  0  0  0  0  0999 V2000
   -3.8420   -3.6918    1.5562 H   0  0  0  0  0  0  0  0  0  0  0  0
   -3.8430   -2.7008    1.1032 C   0  0  0  0  0  0  0  0  0  0  0  0
   -4.5510   -2.0608    1.6242 H   0  0  0  0  0  0  0  0  0  0  0  0
   -4.1140   -2.7798    0.0522 H   0  0  0  0  0  0  0  0  0  0  0  0
   -2.4570   -2.1098    1.2172 C   0  0  0  0  0  0  0  0  0  0  0  0
   -1.5600   -2.7438    1.7572 O   0  0  0  0  0  0  0  0  0  0  0  0
   -2.2870   -0.8898    0.7102 N   0  0  0  0  0  0  0  0  0  0  0  0
   -3.0820   -0.4218    0.2992 H   0  0  0  0  0  0  0  0  0  0  0  0
   -1.0240   -0.1468    0.7262 C   0  0  1  0  0  0  0  0  0  0  0  0
   -0.2680   -0.7367    0.2062 H   0  0  0  0  0  0  0  0  0  0  0  0
   -1.2212    1.1806   -0.0314 C   0  0  0  0  0  0  0  0  0  0  0  0
   -1.0137    2.0053    0.6535 H   0  0  0  0  0  0  0  0  0  0  0  0
   -0.5077    1.2342   -0.8549 H   0  0  0  0  0  0  0  0  0  0  0  0
   -2.6445    1.3610   -0.5819 C   0  0  0  0  0  0  0  0  0  0  0  0
   -3.3551    0.8456    0.0648 H   0  0  0  0  0  0  0  0  0  0  0  0
   -2.8884    2.4247   -0.6048 H   0  0  0  0  0  0  0  0  0  0  0  0
   -2.7604    0.7868   -1.9984 C   0  0  0  0  0  0  0  0  0  0  0  0
   -2.0493    1.2876   -2.6562 H   0  0  0  0  0  0  0  0  0  0  0  0
   -2.5409   -0.2811   -1.9769 H   0  0  0  0  0  0  0  0  0  0  0  0
   -4.1760    1.0011   -2.5305 C   0  0  0  0  0  0  0  0  0  0  0  0
   -4.8864    0.4864   -1.8855 H   0  0  0  0  0  0  0  0  0  0  0  0
   -4.4034    2.0659   -2.5359 H   0  0  0  0  0  0  0  0  0  0  0  0
   -4.3154    0.4832   -3.8963 N   0  0  0  0  0  0  0  0  0  0  0  0
   -5.2639    0.6285   -4.2099 H   0  0  0  0  0  0  0  0  0  0  0  0
   -3.6809    0.9798   -4.5054 H   0  0  0  0  0  0  0  0  0  0  0  0
   -0.5564    0.0727    2.1744 C   0  0  0  0  0  0  0  0  0  0  0  0
    0.6169   -0.1288    2.4805 O   0  0  0  0  0  0  0  0  0  0  0  0
   -1.4759    0.4743    3.0595 N   0  0  0  0  0  0  0  0  0  0  0  0
   -2.4132    0.6318    2.7275 H   0  0  0  0  0  0  0  0  0  0  0  0
   -1.1971    0.7118    4.4750 C   0  0  0  0  0  0  0  0  0  0  0  0
   -0.3779    1.4272    4.5748 H   0  0  0  0  0  0  0  0  0  0  0  0
   -2.0826    1.1064    4.9754 H   0  0  0  0  0  0  0  0  0  0  0  0
   -0.8992   -0.2240    4.9525 H   0  0  0  0  0  0  0  0  0  0  0  0
  5  6  2  0  0  0  0
  5  7  1  0  0  0  0
  2  3  1  0  0  0  0
  2  4  1  0  0  0  0
  2  5  1  0  0  0  0
  1  2  1  0  0  0  0
 26 27  2  0  0  0  0
 26 28  1  0  0  0  0
 23 24  1  0  0  0  0
 23 25  1  0  0  0  0
 20 21  1  0  0  0  0
 20 22  1  0  0  0  0
 20 23  1  0  0  0  0
 17 18  1  0  0  0  0
 17 19  1  0  0  0  0
 17 20  1  0  0  0  0
 14 15  1  0  0  0  0
 14 16  1  0  0  0  0
 14 17  1  0  0  0  0
 11 12  1  0  0  0  0
 11 13  1  0  0  0  0
 11 14  1  0  0  0  0
  9 10  1  0  0  0  0
  9 11  1  0  0  0  0
  9 26  1  0  0  0  0
  7  8  1  0  0  0  0
  7  9  1  0  0  0  0
 30 31  1  0  0  0  0
 30 32  1  0  0  0  0
 30 33  1  0  0  0  0
 28 29  1  0  0  0  0
 28 30  1  0  0  0  0
M  END
$$$$
default_name
  -OEChem-02102213163D

 33 32  0     1  0  0  0  0  0999 V2000
   -3.8420   -3.6918    1.5562 H   0  0  0  0  0  0  0  0  0  0  0  0
   -3.8430   -2.7008    1.1032 C   0  0  0  0  0  0  0  0  0  0  0  0
   -4.5510   -2.0608    1.6242 H   0  0  0  0  0  0  0  0  0  0  0  0
   -4.1140   -2.7798    0.0522 H   0  0  0  0  0  0  0  0  0  0  0  0
   -2.4570   -2.1098    1.2172 C   0  0  0  0  0  0  0  0  0  0  0  0
   -1.5600   -2.7438    1.7572 O   0  0  0  0  0  0  0  0  0  0  0  0
   -2.2870   -0.8898    0.7102 N   0  0  0  0  0  0  0  0  0  0  0  0
   -3.0820   -0.4218    0.2992 H   0  0  0  0  0  0  0  0  0  0  0  0
   -1.0240   -0.1468    0.7262 C   0  0  1  0  0  0  0  0  0  0  0  0
   -0.2680   -0.7367    0.2062 H   0  0  0  0  0  0  0  0  0  0  0  0
   -1.2212    1.1806   -0.0314 C   0  0  0  0  0  0  0  0  0  0  0  0
   -1.0137    2.0053    0.6535 H   0  0  0  0  0  0  0  0  0  0  0  0
   -0.5077    1.2342   -0.8549 H   0  0  0  0  0  0  0  0  0  0  0  0
   -2.6445    1.3610   -0.5819 C   0  0  0  0  0  0  0  0  0  0  0  0
   -3.3706    1.0856    0.1835 H   0  0  0  0  0  0  0  0  0  0  0  0
   -2.7935    2.4071   -0.8559 H   0  0  0  0  0  0  0  0  0  0  0  0
   -2.8700    0.4797   -1.8156 C   0  0  0  0  0  0  0  0  0  0  0  0
   -2.1452    0.7383   -2.5882 H   0  0  0  0  0  0  0  0  0  0  0  0
   -2.7457   -0.5683   -1.5414 H   0  0  0  0  0  0  0  0  0  0  0  0
   -4.2819    0.6966   -2.3566 C   0  0  0  0  0  0  0  0  0  0  0  0
   -5.0077    0.4213   -1.5931 H   0  0  0  0  0  0  0  0  0  0  0  0
   -4.4136    1.7462   -2.6143 H   0  0  0  0  0  0  0  0  0  0  0  0
   -4.5237   -0.1160   -3.5543 N   0  0  0  0  0  0  0  0  0  0  0  0
   -5.4677    0.0412   -3.8755 H   0  0  0  0  0  0  0  0  0  0  0  0
   -3.8734    0.1576   -4.2772 H   0  0  0  0  0  0  0  0  0  0  0  0
   -0.5564    0.0727    2.1744 C   0  0  0  0  0  0  0  0  0  0  0  0
    0.6169   -0.1288    2.4805 O   0  0  0  0  0  0  0  0  0  0  0  0
   -1.4759    0.4743    3.0595 N   0  0  0  0  0  0  0  0  0  0  0  0
   -2.4132    0.6318    2.7275 H   0  0  0  0  0  0  0  0  0  0  0  0
   -1.1971    0.7118    4.4750 C   0  0  0  0  0  0  0  0  0  0  0  0
   -0.3779    1.4272    4.5748 H   0  0  0  0  0  0  0  0  0  0  0  0
   -2.0826    1.1064    4.9754 H   0  0  0  0  0  0  0  0  0  0  0  0
   -0.8992   -0.2240    4.9525 H   0  0  0  0  0  0  0  0  0  0  0  0
  5  6  2  0  0  0  0
  5  7  1  0  0  0  0
  2  3  1  0  0  0  0
  2  4  1  0  0  0  0
  2  5  1  0  0  0  0
  1  2  1  0  0  0  0
 26 27  2  0  0  0  0
 26 28  1  0  0  0  0
 23 24  1  0  0  0  0
 23 25  1  0  0  0  0
 20 21  1  0  0  0  0
 20 22  1  0  0  0  0
 20 23  1  0  0  0  0
 17 18  1  0  0  0  0
 17 19  1  0  0  0  0
 17 20  1  0  0  0  0
 14 15  1  0  0  0  0
 14 16  1  0  0  0  0
 14 17  1  0  0  0  0
 11 12  1  0  0  0  0
 11 13  1  0  0  0  0
 11 14  1  0  0  0  0
  9 10  1  0  0  0  0
  9 11  1  0  0  0  0
  9 26  1  0  0  0  0
  7  8  1  0  0  0  0
  7  9  1  0  0  0  0
 30 31  1  0  0  0  0
 30 32  1  0  0  0  0
 30 33  1  0  0  0  0
 28 29  1  0  0  0  0
 28 30  1  0  0  0  0
M  END
$$$$
default_name
  -OEChem-02102213163D

 33 32  0     1  0  0  0  0  0999 V2000
   -3.8420   -3.6918    1.5562 H   0  0  0  0  0  0  0  0  0  0  0  0
   -3.8430   -2.7008    1.1032 C   0  0  0  0  0  0  0  0  0  0  0  0
   -4.5510   -2.0608    1.6242 H   0  0  0  0  0  0  0  0  0  0  0  0
   -4.1140   -2.7798    0.0522 H   0  0  0  0  0  0  0  0  0  0  0  0
   -2.4570   -2.1098    1.2172 C   0  0  0  0  0  0  0  0  0  0  0  0
   -1.5600   -2.7438    1.7572 O   0  0  0  0  0  0  0  0  0  0  0  0
   -2.2870   -0.8898    0.7102 N   0  0  0  0  0  0  0  0  0  0  0  0
   -3.0820   -0.4218    0.2992 H   0  0  0  0  0  0  0  0  0  0  0  0
   -1.0240   -0.1468    0.7262 C   0  0  1  0  0  0  0  0  0  0  0  0
   -0.2680   -0.7367    0.2062 H   0  0  0  0  0  0  0  0  0  0  0  0
   -1.2212    1.1806   -0.0314 C   0  0  0  0  0  0  0  0  0  0  0  0
   -1.0137    2.0053    0.6535 H   0  0  0  0  0  0  0  0  0  0  0  0
   -0.5077    1.2342   -0.8549 H   0  0  0  0  0  0  0  0  0  0  0  0
   -2.6445    1.3610   -0.5819 C   0  0  0  0  0  0  0  0  0  0  0  0
   -3.3597    1.3472    0.2410 H   0  0  0  0  0  0  0  0  0  0  0  0
   -2.7111    2.3210   -1.0972 H   0  0  0  0  0  0  0  0  0  0  0  0
   -2.9988    0.2371   -1.5622 C   0  0  0  0  0  0  0  0  0  0  0  0
   -2.2867    0.2330   -2.3880 H   0  0  0  0  0  0  0  0  0  0  0  0
   -2.9569   -0.7223   -1.0457 H   0  0  0  0  0  0  0  0  0  0  0  0
   -4.4071    0.4539   -2.1124 C   0  0  0  0  0  0  0  0  0  0  0  0
   -5.1221    0.4398   -1.2914 H   0  0  0  0  0  0  0  0  0  0  0  0
   -4.4555    1.4195   -2.6131 H   0  0  0  0  0  0  0  0  0  0  0  0
   -4.7700   -0.5935   -3.0739 N   0  0  0  0  0  0  0  0  0  0  0  0
   -5.7088   -0.4271   -3.4055 H   0  0  0  0  0  0  0  0  0  0  0  0
   -4.1286   -0.5640   -3.8537 H   0  0  0  0  0  0  0  0  0  0  0  0
   -0.5564    0.0727    2.1744 C   0  0  0  0  0  0  0  0  0  0  0  0
    0.6169   -0.1288    2.4805 O   0  0  0  0  0  0  0  0  0  0  0  0
   -1.4759    0.4743    3.0595 N   0  0  0  0  0  0  0  0  0  0  0  0
   -2.4132    0.6318    2.7275 H   0  0  0  0  0  0  0  0  0  0  0  0
   -1.1971    0.7118    4.4750 C   0  0  0  0  0  0  0  0  0  0  0  0
   -0.3779    1.4272    4.5748 H   0  0  0  0  0  0  0  0  0  0  0  0
   -2.0826    1.1064    4.9754 H   0  0  0  0  0  0  0  0  0  0  0  0
   -0.8992   -0.2240    4.9525 H   0  0  0  0  0  0  0  0  0  0  0  0
  5  6  2  0  0  0  0
  5  7  1  0  0  0  0
  2  3  1  0  0  0  0
  2  4  1  0  0  0  0
  2  5  1  0  0  0  0
  1  2  1  0  0  0  0
 26 27  2  0  0  0  0
 26 28  1  0  0  0  0
 23 24  1  0  0  0  0
 23 25  1  0  0  0  0
 20 21  1  0  0  0  0
 20 22  1  0  0  0  0
 20 23  1  0  0  0  0
 17 18  1  0  0  0  0
 17 19  1  0  0  0  0
 17 20  1  0  0  0  0
 14 15  1  0  0  0  0
 14 16  1  0  0  0  0
 14 17  1  0  0  0  0
 11 12  1  0  0  0  0
 11 13  1  0  0  0  0
 11 14  1  0  0  0  0
  9 10  1  0  0  0  0
  9 11  1  0  0  0  0
  9 26  1  0  0  0  0
  7  8  1  0  0  0  0
  7  9  1  0  0  0  0
 30 31  1  0  0  0  0
 30 32  1  0  0  0  0
 30 33  1  0  0  0  0
 28 29  1  0  0  0  0
 28 30  1  0  0  0  0
M  END
$$$$
default_name
  -OEChem-02102213163D

 33 32  0     1  0  0  0  0  0999 V2000
   -3.8420   -3.6918    1.5562 H   0  0  0  0  0  0  0  0  0  0  0  0
   -3.8430   -2.7008    1.1032 C   0  0  0  0  0  0  0  0  0  0  0  0
   -4.5510   -2.0608    1.6242 H   0  0  0  0  0  0  0  0  0  0  0  0
   -4.1140   -2.7798    0.0522 H   0  0  0  0  0  0  0  0  0  0  0  0
   -2.4570   -2.1098    1.2172 C   0  0  0  0  0  0  0  0  0  0  0  0
   -1.5600   -2.7438    1.7572 O   0  0  0  0  0  0  0  0  0  0  0  0
   -2.2870   -0.8898    0.7102 N   0  0  0  0  0  0  0  0  0  0  0  0
   -3.0820   -0.4218    0.2992 H   0  0  0  0  0  0  0  0  0  0  0  0
   -1.0240   -0.1468    0.7262 C   0  0  1  0  0  0  0  0  0  0  0  0
   -0.2680   -0.7367    0.2062 H   0  0  0  0  0  0  0  0  0  0  0  0
   -1.2212    1.1806   -0.0314 C   0  0  0  0  0  0  0  0  0  0  0  0
   -1.0137    2.0053    0.6535 H   0  0  0  0  0  0  0  0  0  0  0  0
   -0.5077    1.2342   -0.8549 H   0  0  0  0  0  0  0  0  0  0  0  0
   -2.6445    1.3610   -0.5819 C   0  0  0  0  0  0  0  0  0  0  0  0
   -3.3231    1.6127    0.2336 H   0  0  0  0  0  0  0  0  0  0  0  0
   -2.6468    2.1723   -1.3121 H   0  0  0  0  0  0  0  0  0  0  0  0
   -3.1380    0.0754   -1.2552 C   0  0  0  0  0  0  0  0  0  0  0  0
   -2.4641   -0.1939   -2.0691 H   0  0  0  0  0  0  0  0  0  0  0  0
   -3.1602   -0.7327   -0.5236 H   0  0  0  0  0  0  0  0  0  0  0  0
   -4.5431    0.2896   -1.8145 C   0  0  0  0  0  0  0  0  0  0  0  0
   -5.2217    0.5406   -1.0008 H   0  0  0  0  0  0  0  0  0  0  0  0
   -4.5262    1.1081   -2.5323 H   0  0  0  0  0  0  0  0  0  0  0  0
   -5.0376   -0.9167   -2.4880 N   0  0  0  0  0  0  0  0  0  0  0  0
   -5.9708   -0.7444   -2.8319 H   0  0  0  0  0  0  0  0  0  0  0  0
   -4.4292   -1.1359   -3.2640 H   0  0  0  0  0  0  0  0  0  0  0  0
   -0.5564    0.0727    2.1744 C   0  0  0  0  0  0  0  0  0  0  0  0
    0.6169   -0.1288    2.4805 O   0  0  0  0  0  0  0  0  0  0  0  0
   -1.4759    0.4743    3.0595 N   0  0  0  0  0  0  0  0  0  0  0  0
   -2.4132    0.6318    2.7275 H   0  0  0  0  0  0  0  0  0  0  0  0
   -1.1971    0.7118    4.4750 C   0  0  0  0  0  0  0  0  0  0  0  0
   -0.3779    1.4272    4.5748 H   0  0  0  0  0  0  0  0  0  0  0  0
   -2.0826    1.1064    4.9754 H   0  0  0  0  0  0  0  0  0  0  0  0
   -0.8992   -0.2240    4.9525 H   0  0  0  0  0  0  0  0  0  0  0  0
  5  6  2  0  0  0  0
  5  7  1  0  0  0  0
  2  3  1  0  0  0  0
  2  4  1  0  0  0  0
  2  5  1  0  0  0  0
  1  2  1  0  0  0  0
 26 27  2  0  0  0  0
 26 28  1  0  0  0  0
 23 24  1  0  0  0  0
 23 25  1  0  0  0  0
 20 21  1  0  0  0  0
 20 22  1  0  0  0  0
 20 23  1  0  0  0  0
 17 18  1  0  0  0  0
 17 19  1  0  0  0  0
 17 20  1  0  0  0  0
 14 15  1  0  0  0  0
 14 16  1  0  0  0  0
 14 17  1  0  0  0  0
 11 12  1  0  0  0  0
 11 13  1  0  0  0  0
 11 14  1  0  0  0  0
  9 10  1  0  0  0  0
  9 11  1  0  0  0  0
  9 26  1  0  0  0  0
  7  8  1  0  0  0  0
  7  9  1  0  0  0  0
 30 31  1  0  0  0  0
 30 32  1  0  0  0  0
 30 33  1  0  0  0  0
 28 29  1  0  0  0  0
 28 30  1  0  0  0  0
M  END
$$$$
default_name
  -OEChem-02102213163D

 33 32  0     1  0  0  0  0  0999 V2000
   -3.8420   -3.6918    1.5562 H   0  0  0  0  0  0  0  0  0  0  0  0
   -3.8430   -2.7008    1.1032 C   0  0  0  0  0  0  0  0  0  0  0  0
   -4.5510   -2.0608    1.6242 H   0  0  0  0  0  0  0  0  0  0  0  0
   -4.1140   -2.7798    0.0522 H   0  0  0  0  0  0  0  0  0  0  0  0
   -2.4570   -2.1098    1.2172 C   0  0  0  0  0  0  0  0  0  0  0  0
   -1.5600   -2.7438    1.7572 O   0  0  0  0  0  0  0  0  0  0  0  0
   -2.2870   -0.8898    0.7102 N   0  0  0  0  0  0  0  0  0  0  0  0
   -3.0820   -0.4218    0.2992 H   0  0  0  0  0  0  0  0  0  0  0  0
   -1.0240   -0.1468    0.7262 C   0  0  1  0  0  0  0  0  0  0  0  0
   -0.2680   -0.7367    0.2062 H   0  0  0  0  0  0  0  0  0  0  0  0
   -1.2212    1.1806   -0.0314 C   0  0  0  0  0  0  0  0  0  0  0  0
   -1.0137    2.0053    0.6535 H   0  0  0  0  0  0  0  0  0  0  0  0
   -0.5077    1.2342   -0.8549 H   0  0  0  0  0  0  0  0  0  0  0  0
   -2.6445    1.3610   -0.5819 C   0  0  0  0  0  0  0  0  0  0  0  0
   -3.2635    1.8640    0.1616 H   0  0  0  0  0  0  0  0  0  0  0  0
   -2.6050    1.9713   -1.4861 H   0  0  0  0  0  0  0  0  0  0  0  0
   -3.2781    0.0058   -0.9158 C   0  0  0  0  0  0  0  0  0  0  0  0
   -2.6654   -0.5135   -1.6534 H   0  0  0  0  0  0  0  0  0  0  0  0
   -3.3416   -0.5988   -0.0105 H   0  0  0  0  0  0  0  0  0  0  0  0
   -4.6807    0.2150   -1.4833 C   0  0  0  0  0  0  0  0  0  0  0  0
   -5.2997    0.7168   -0.7414 H   0  0  0  0  0  0  0  0  0  0  0  0
   -4.6209    0.8333   -2.3774 H   0  0  0  0  0  0  0  0  0  0  0  0
   -5.3082   -1.0637   -1.8364 N   0  0  0  0  0  0  0  0  0  0  0  0
   -6.2359   -0.8891   -2.1939 H   0  0  0  0  0  0  0  0  0  0  0  0
   -4.7546   -1.5190   -2.5481 H   0  0  0  0  0  0  0  0  0  0  0  0
   -0.5564    0.0727    2.1744 C   0  0  0  0  0  0  0  0  0  0  0  0
    0.6169   -0.1288    2.4805 O   0  0  0  0  0  0  0  0  0  0  0  0
   -1.4759    0.4743    3.0595 N   0  0  0  0  0  0  0  0  0  0  0  0
   -2.4132    0.6318    2.7275 H   0  0  0  0  0  0  0  0  0  0  0  0
   -1.1971    0.7118    4.4750 C   0  0  0  0  0  0  0  0  0  0  0  0
   -0.3779    1.4272    4.5748 H   0  0  0  0  0  0  0  0  0  0  0  0
   -2.0826    1.1064    4.9754 H   0  0  0  0  0  0  0  0  0  0  0  0
   -0.8992   -0.2240    4.9525 H   0  0  0  0  0  0  0  0  0  0  0  0
  5  6  2  0  0  0  0
  5  7  1  0  0  0  0
  2  3  1  0  0  0  0
  2  4  1  0  0  0  0
  2  5  1  0  0  0  0
  1  2  1  0  0  0  0
 26 27  2  0  0  0  0
 26 28  1  0  0  0  0
 23 24  1  0  0  0  0
 23 25  1  0  0  0  0
 20 21  1  0  0  0  0
 20 22  1  0  0  0  0
 20 23  1  0  0  0  0
 17 18  1  0  0  0  0
 17 19  1  0  0  0  0
 17 20  1  0  0  0  0
 14 15  1  0  0  0  0
 14 16  1  0  0  0  0
 14 17  1  0  0  0  0
 11 12  1  0  0  0  0
 11 13  1  0  0  0  0
 11 14  1  0  0  0  0
  9 10  1  0  0  0  0
  9 11  1  0  0  0  0
  9 26  1  0  0  0  0
  7  8  1  0  0  0  0
  7  9  1  0  0  0  0
 30 31  1  0  0  0  0
 30 32  1  0  0  0  0
 30 33  1  0  0  0  0
 28 29  1  0  0  0  0
 28 30  1  0  0  0  0
M  END
$$$$
default_name
  -OEChem-02102213163D

 33 32  0     1  0  0  0  0  0999 V2000
   -3.8420   -3.6918    1.5562 H   0  0  0  0  0  0  0  0  0  0  0  0
   -3.8430   -2.7008    1.1032 C   0  0  0  0  0  0  0  0  0  0  0  0
   -4.5510   -2.0608    1.6242 H   0  0  0  0  0  0  0  0  0  0  0  0
   -4.1140   -2.7798    0.0522 H   0  0  0  0  0  0  0  0  0  0  0  0
   -2.4570   -2.1098    1.2172 C   0  0  0  0  0  0  0  0  0  0  0  0
   -1.5600   -2.7438    1.7572 O   0  0  0  0  0  0  0  0  0  0  0  0
   -2.2870   -0.8898    0.7102 N   0  0  0  0  0  0  0  0  0  0  0  0
   -3.0820   -0.4218    0.2992 H   0  0  0  0  0  0  0  0  0  0  0  0
   -1.0240   -0.1468    0.7262 C   0  0  1  0  0  0  0  0  0  0  0  0
   -0.2680   -0.7367    0.2062 H   0  0  0  0  0  0  0  0  0  0  0  0
   -1.2212    1.1806   -0.0314 C   0  0  0  0  0  0  0  0  0  0  0  0
   -1.0137    2.0053    0.6535 H   0  0  0  0  0  0  0  0  0  0  0  0
   -0.5077    1.2342   -0.8549 H   0  0  0  0  0  0  0  0  0  0  0  0
   -2.6445    1.3610   -0.5819 C   0  0  0  0  0  0  0  0  0  0  0  0
   -3.1847    2.0840    0.0300 H   0  0  0  0  0  0  0  0  0  0  0  0
   -2.5886    1.7315   -1.6071 H   0  0  0  0  0  0  0  0  0  0  0  0
   -3.4096    0.0328   -0.5669 C   0  0  0  0  0  0  0  0  0  0  0  0
   -2.8768   -0.7038   -1.1691 H   0  0  0  0  0  0  0  0  0  0  0  0
   -3.4889   -0.3295    0.4584 H   0  0  0  0  0  0  0  0  0  0  0  0
   -4.8104    0.2350   -1.1413 C   0  0  0  0  0  0  0  0  0  0  0  0
   -5.3508    0.9565   -0.5306 H   0  0  0  0  0  0  0  0  0  0  0  0
   -4.7332    0.6137   -2.1591 H   0  0  0  0  0  0  0  0  0  0  0  0
   -5.5634   -1.0243   -1.1636 N   0  0  0  0  0  0  0  0  0  0  0  0
   -6.4860   -0.8513   -1.5349 H   0  0  0  0  0  0  0  0  0  0  0  0
   -5.0827   -1.6873   -1.7549 H   0  0  0  0  0  0  0  0  0  0  0  0
   -0.5564    0.0727    2.1744 C   0  0  0  0  0  0  0  0  0  0  0  0
    0.6169   -0.1288    2.4805 O   0  0  0  0  0  0  0  0  0  0  0  0
   -1.4759    0.4743    3.0595 N   0  0  0  0  0  0  0  0  0  0  0  0
   -2.4132    0.6318    2.7275 H   0  0  0  0  0  0  0  0  0  0  0  0
   -1.1971    0.7118    4.4750 C   0  0  0  0  0  0  0  0  0  0  0  0
   -0.3779    1.4272    4.5748 H   0  0  0  0  0  0  0  0  0  0  0  0
   -2.0826    1.1064    4.9754 H   0  0  0  0  0  0  0  0  0  0  0  0
   -0.8992   -0.2240    4.9525 H   0  0  0  0  0  0  0  0  0  0  0  0
  5  6  2  0  0  0  0
  5  7  1  0  0  0  0
  2  3  1  0  0  0  0
  2  4  1  0  0  0  0
  2  5  1  0  0  0  0
  1  2  1  0  0  0  0
 26 27  2  0  0  0  0
 26 28  1  0  0  0  0
 23 24  1  0  0  0  0
 23 25  1  0  0  0  0
 20 21  1  0  0  0  0
 20 22  1  0  0  0  0
 20 23  1  0  0  0  0
 17 18  1  0  0  0  0
 17 19  1  0  0  0  0
 17 20  1  0  0  0  0
 14 15  1  0  0  0  0
 14 16  1  0  0  0  0
 14 17  1  0  0  0  0
 11 12  1  0  0  0  0
 11 13  1  0  0  0  0
 11 14  1  0  0  0  0
  9 10  1  0  0  0  0
  9 11  1  0  0  0  0
  9 26  1  0  0  0  0
  7  8  1  0  0  0  0
  7  9  1  0  0  0  0
 30 31  1  0  0  0  0
 30 32  1  0  0  0  0
 30 33  1  0  0  0  0
 28 29  1  0  0  0  0
 28 30  1  0  0  0  0
M  END
$$$$
default_name
  -OEChem-02102213163D

 33 32  0     1  0  0  0  0  0999 V2000
   -3.8420   -3.6918    1.5562 H   0  0  0  0  0  0  0  0  0  0  0  0
   -3.8430   -2.7008    1.1032 C   0  0  0  0  0  0  0  0  0  0  0  0
   -4.5510   -2.0608    1.6242 H   0  0  0  0  0  0  0  0  0  0  0  0
   -4.1140   -2.7798    0.0522 H   0  0  0  0  0  0  0  0  0  0  0  0
   -2.4570   -2.1098    1.2172 C   0  0  0  0  0  0  0  0  0  0  0  0
   -1.5600   -2.7438    1.7572 O   0  0  0  0  0  0  0  0  0  0  0  0
   -2.2870   -0.8898    0.7102 N   0  0  0  0  0  0  0  0  0  0  0  0
   -3.0820   -0.4218    0.2992 H   0  0  0  0  0  0  0  0  0  0  0  0
   -1.0240   -0.1468    0.7262 C   0  0  1  0  0  0  0  0  0  0  0  0
   -0.2680   -0.7367    0.2062 H   0  0  0  0  0  0  0  0  0  0  0  0
   -1.2212    1.1806   -0.0314 C   0  0  0  0  0  0  0  0  0  0  0  0
   -1.0137    2.0053    0.6535 H   0  0  0  0  0  0  0  0  0  0  0  0
   -0.5077    1.2342   -0.8549 H   0  0  0  0  0  0  0  0  0  0  0  0
   -2.6445    1.3610   -0.5819 C   0  0  0  0  0  0  0  0  0  0  0  0
   -3.0922    2.2576   -0.1522 H   0  0  0  0  0  0  0  0  0  0  0  0
   -2.5986    1.4694   -1.6671 H   0  0  0  0  0  0  0  0  0  0  0  0
   -3.5235    0.1548   -0.2325 C   0  0  0  0  0  0  0  0  0  0  0  0
   -3.0840   -0.7519   -0.6493 H   0  0  0  0  0  0  0  0  0  0  0  0
   -3.5919    0.0566    0.8513 H   0  0  0  0  0  0  0  0  0  0  0  0
   -4.9235    0.3484   -0.8118 C   0  0  0  0  0  0  0  0  0  0  0  0
   -5.3716    1.2432   -0.3829 H   0  0  0  0  0  0  0  0  0  0  0  0
   -4.8554    0.4644   -1.8922 H   0  0  0  0  0  0  0  0  0  0  0  0
   -5.7858   -0.8013   -0.5154 N   0  0  0  0  0  0  0  0  0  0  0  0
   -6.7041   -0.6337   -0.8997 H   0  0  0  0  0  0  0  0  0  0  0  0
   -5.3912   -1.6293   -0.9384 H   0  0  0  0  0  0  0  0  0  0  0  0
   -0.5564    0.0727    2.1744 C   0  0  0  0  0  0  0  0  0  0  0  0
    0.6169   -0.1288    2.4805 O   0  0  0  0  0  0  0  0  0  0  0  0
   -1.4759    0.4743    3.0595 N   0  0  0  0  0  0  0  0  0  0  0  0
   -2.4132    0.6318    2.7275 H   0  0  0  0  0  0  0  0  0  0  0  0
   -1.1971    0.7118    4.4750 C   0  0  0  0  0  0  0  0  0  0  0  0
   -0.3779    1.4272    4.5748 H   0  0  0  0  0  0  0  0  0  0  0  0
   -2.0826    1.1064    4.9754 H   0  0  0  0  0  0  0  0  0  0  0  0
   -0.8992   -0.2240    4.9525 H   0  0  0  0  0  0  0  0  0  0  0  0
  5  6  2  0  0  0  0
  5  7  1  0  0  0  0
  2  3  1  0  0  0  0
  2  4  1  0  0  0  0
  2  5  1  0  0  0  0
  1  2  1  0  0  0  0
 26 27  2  0  0  0  0
 26 28  1  0  0  0  0
 23 24  1  0  0  0  0
 23 25  1  0  0  0  0
 20 21  1  0  0  0  0
 20 22  1  0  0  0  0
 20 23  1  0  0  0  0
 17 18  1  0  0  0  0
 17 19  1  0  0  0  0
 17 20  1  0  0  0  0
 14 15  1  0  0  0  0
 14 16  1  0  0  0  0
 14 17  1  0  0  0  0
 11 12  1  0  0  0  0
 11 13  1  0  0  0  0
 11 14  1  0  0  0  0
  9 10  1  0  0  0  0
  9 11  1  0  0  0  0
  9 26  1  0  0  0  0
  7  8  1  0  0  0  0
  7  9  1  0  0  0  0
 30 31  1  0  0  0  0
 30 32  1  0  0  0  0
 30 33  1  0  0  0  0
 28 29  1  0  0  0  0
 28 30  1  0  0  0  0
M  END
$$$$
default_name
  -OEChem-02102213163D

 33 32  0     1  0  0  0  0  0999 V2000
   -3.8420   -3.6918    1.5562 H   0  0  0  0  0  0  0  0  0  0  0  0
   -3.8430   -2.7008    1.1032 C   0  0  0  0  0  0  0  0  0  0  0  0
   -4.5510   -2.0608    1.6242 H   0  0  0  0  0  0  0  0  0  0  0  0
   -4.1140   -2.7798    0.0522 H   0  0  0  0  0  0  0  0  0  0  0  0
   -2.4570   -2.1098    1.2172 C   0  0  0  0  0  0  0  0  0  0  0  0
   -1.5600   -2.7438    1.7572 O   0  0  0  0  0  0  0  0  0  0  0  0
   -2.2870   -0.8898    0.7102 N   0  0  0  0  0  0  0  0  0  0  0  0
   -3.0820   -0.4218    0.2992 H   0  0  0  0  0  0  0  0  0  0  0  0
   -1.0240   -0.1468    0.7262 C   0  0  1  0  0  0  0  0  0  0  0  0
   -0.2680   -0.7367    0.2062 H   0  0  0  0  0  0  0  0  0  0  0  0
   -1.2212    1.1806   -0.0314 C   0  0  0  0  0  0  0  0  0  0  0  0
   -1.0137    2.0053    0.6535 H   0  0  0  0  0  0  0  0  0  0  0  0
   -0.5077    1.2342   -0.8549 H   0  0  0  0  0  0  0  0  0  0  0  0
   -2.6445    1.3610   -0.5819 C   0  0  0  0  0  0  0  0  0  0  0  0
   -2.9923    2.3730   -0.3726 H   0  0  0  0  0  0  0  0  0  0  0  0
   -2.6344    1.2027   -1.6618 H   0  0  0  0  0  0  0  0  0  0  0  0
   -3.6120    0.3633    0.0648 C   0  0  0  0  0  0  0  0  0  0  0  0
   -3.2727   -0.6546   -0.1294 H   0  0  0  0  0  0  0  0  0  0  0  0
   -3.6437    0.5333    1.1414 H   0  0  0  0  0  0  0  0  0  0  0  0
   -5.0122    0.5474   -0.5173 C   0  0  0  0  0  0  0  0  0  0  0  0
   -5.3606    1.5576   -0.3084 H   0  0  0  0  0  0  0  0  0  0  0  0
   -4.9791    0.3955   -1.5949 H   0  0  0  0  0  0  0  0  0  0  0  0
   -5.9603   -0.4099    0.0640 N   0  0  0  0  0  0  0  0  0  0  0  0
   -6.8752   -0.2509   -0.3318 H   0  0  0  0  0  0  0  0  0  0  0  0
   -5.6589   -1.3489   -0.1543 H   0  0  0  0  0  0  0  0  0  0  0  0
   -0.5564    0.0727    2.1744 C   0  0  0  0  0  0  0  0  0  0  0  0
    0.6169   -0.1288    2.4805 O   0  0  0  0  0  0  0  0  0  0  0  0
   -1.4759    0.4743    3.0595 N   0  0  0  0  0  0  0  0  0  0  0  0
   -2.4132    0.6318    2.7275 H   0  0  0  0  0  0  0  0  0  0  0  0
   -1.1971    0.7118    4.4750 C   0  0  0  0  0  0  0  0  0  0  0  0
   -0.3779    1.4272    4.5748 H   0  0  0  0  0  0  0  0  0  0  0  0
   -2.0826    1.1064    4.9754 H   0  0  0  0  0  0  0  0  0  0  0  0
   -0.8992   -0.2240    4.9525 H   0  0  0  0  0  0  0  0  0  0  0  0
  5  6  2  0  0  0  0
  5  7  1  0  0  0  0
  2  3  1  0  0  0  0
  2  4  1  0  0  0  0
  2  5  1  0  0  0  0
  1  2  1  0  0  0  0
 26 27  2  0  0  0  0
 26 28  1  0  0  0  0
 23 24  1  0  0  0  0
 23 25  1  0  0  0  0
 20 21  1  0  0  0  0
 20 22  1  0  0  0  0
 20 23  1  0  0  0  0
 17 18  1  0  0  0  0
 17 19  1  0  0  0  0
 17 20  1  0  0  0  0
 14 15  1  0  0  0  0
 14 16  1  0  0  0  0
 14 17  1  0  0  0  0
 11 12  1  0  0  0  0
 11 13  1  0  0  0  0
 11 14  1  0  0  0  0
  9 10  1  0  0  0  0
  9 11  1  0  0  0  0
  9 26  1  0  0  0  0
  7  8  1  0  0  0  0
  7  9  1  0  0  0  0
 30 31  1  0  0  0  0
 30 32  1  0  0  0  0
 30 33  1  0  0  0  0
 28 29  1  0  0  0  0
 28 30  1  0  0  0  0
M  END
$$$$
default_name
  -OEChem-02102213163D

 33 32  0     1  0  0  0  0  0999 V2000
   -3.8420   -3.6918    1.5562 H   0  0  0  0  0  0  0  0  0  0  0  0
   -3.8430   -2.7008    1.1032 C   0  0  0  0  0  0  0  0  0  0  0  0
   -4.5510   -2.0608    1.6242 H   0  0  0  0  0  0  0  0  0  0  0  0
   -4.1140   -2.7798    0.0522 H   0  0  0  0  0  0  0  0  0  0  0  0
   -2.4570   -2.1098    1.2172 C   0  0  0  0  0  0  0  0  0  0  0  0
   -1.5600   -2.7438    1.7572 O   0  0  0  0  0  0  0  0  0  0  0  0
   -2.2870   -0.8898    0.7102 N   0  0  0  0  0  0  0  0  0  0  0  0
   -3.0820   -0.4218    0.2992 H   0  0  0  0  0  0  0  0  0  0  0  0
   -1.0240   -0.1468    0.7262 C   0  0  1  0  0  0  0  0  0  0  0  0
   -0.2680   -0.7367    0.2062 H   0  0  0  0  0  0  0  0  0  0  0  0
   -1.2212    1.1806   -0.0314 C   0  0  0  0  0  0  0  0  0  0  0  0
   -1.0137    2.0053    0.6535 H   0  0  0  0  0  0  0  0  0  0  0  0
   -0.5077    1.2342   -0.8549 H   0  0  0  0  0  0  0  0  0  0  0  0
   -2.6445    1.3610   -0.5819 C   0  0  0  0  0  0  0  0  0  0  0  0
   -2.8919    2.4224   -0.6162 H   0  0  0  0  0  0  0  0  0  0  0  0
   -2.6936    0.9497   -1.5918 H   0  0  0  0  0  0  0  0  0  0  0  0
   -3.6692    0.6443    0.3047 C   0  0  0  0  0  0  0  0  0  0  0  0
   -3.4302   -0.4185    0.3553 H   0  0  0  0  0  0  0  0  0  0  0  0
   -3.6406    1.0681    1.3089 H   0  0  0  0  0  0  0  0  0  0  0  0
   -5.0704    0.8184   -0.2778 C   0  0  0  0  0  0  0  0  0  0  0  0
   -5.3185    1.8780   -0.3121 H   0  0  0  0  0  0  0  0  0  0  0  0
   -5.0960    0.4116   -1.2874 H   0  0  0  0  0  0  0  0  0  0  0  0
   -6.0750    0.1232    0.5352 N   0  0  0  0  0  0  0  0  0  0  0  0
   -6.9878    0.2708    0.1303 H   0  0  0  0  0  0  0  0  0  0  0  0
   -5.8677   -0.8653    0.5441 H   0  0  0  0  0  0  0  0  0  0  0  0
   -0.5564    0.0727    2.1744 C   0  0  0  0  0  0  0  0  0  0  0  0
    0.6169   -0.1288    2.4805 O   0  0  0  0  0  0  0  0  0  0  0  0
   -1.4759    0.4743    3.0595 N   0  0  0  0  0  0  0  0  0  0  0  0
   -2.4132    0.6318    2.7275 H   0  0  0  0  0  0  0  0  0  0  0  0
   -1.1971    0.7118    4.4750 C   0  0  0  0  0  0  0  0  0  0  0  0
   -0.3779    1.4272    4.5748 H   0  0  0  0  0  0  0  0  0  0  0  0
   -2.0826    1.1064    4.9754 H   0  0  0  0  0  0  0  0  0  0  0  0
   -0.8992   -0.2240    4.9525 H   0  0  0  0  0  0  0  0  0  0  0  0
  5  6  2  0  0  0  0
  5  7  1  0  0  0  0
  2  3  1  0  0  0  0
  2  4  1  0  0  0  0
  2  5  1  0  0  0  0
  1  2  1  0  0  0  0
 26 27  2  0  0  0  0
 26 28  1  0  0  0  0
 23 24  1  0  0  0  0
 23 25  1  0  0  0  0
 20 21  1  0  0  0  0
 20 22  1  0  0  0  0
 20 23  1  0  0  0  0
 17 18  1  0  0  0  0
 17 19  1  0  0  0  0
 17 20  1  0  0  0  0
 14 15  1  0  0  0  0
 14 16  1  0  0  0  0
 14 17  1  0  0  0  0
 11 12  1  0  0  0  0
 11 13  1  0  0  0  0
 11 14  1  0  0  0  0
  9 10  1  0  0  0  0
  9 11  1  0  0  0  0
  9 26  1  0  0  0  0
  7  8  1  0  0  0  0
  7  9  1  0  0  0  0
 30 31  1  0  0  0  0
 30 32  1  0  0  0  0
 30 33  1  0  0  0  0
 28 29  1  0  0  0  0
 28 30  1  0  0  0  0
M  END
$$$$
default_name
  -OEChem-02102213163D

 33 32  0     1  0  0  0  0  0999 V2000
   -3.8420   -3.6918    1.5562 H   0  0  0  0  0  0  0  0  0  0  0  0
   -3.8430   -2.7008    1.1032 C   0  0  0  0  0  0  0  0  0  0  0  0
   -4.5510   -2.0608    1.6242 H   0  0  0  0  0  0  0  0  0  0  0  0
   -4.1140   -2.7798    0.0522 H   0  0  0  0  0  0  0  0  0  0  0  0
   -2.4570   -2.1098    1.2172 C   0  0  0  0  0  0  0  0  0  0  0  0
   -1.5600   -2.7438    1.7572 O   0  0  0  0  0  0  0  0  0  0  0  0
   -2.2870   -0.8898    0.7102 N   0  0  0  0  0  0  0  0  0  0  0  0
   -3.0820   -0.4218    0.2992 H   0  0  0  0  0  0  0  0  0  0  0  0
   -1.0240   -0.1468    0.7262 C   0  0  1  0  0  0  0  0  0  0  0  0
   -0.2680   -0.7367    0.2062 H   0  0  0  0  0  0  0  0  0  0  0  0
   -1.2212    1.1806   -0.0314 C   0  0  0  0  0  0  0  0  0  0  0  0
   -1.0137    2.0053    0.6535 H   0  0  0  0  0  0  0  0  0  0  0  0
   -0.5077    1.2342   -0.8549 H   0  0  0  0  0  0  0  0  0  0  0  0
   -2.6445    1.3610   -0.5819 C   0  0  0  0  0  0  0  0  0  0  0  0
   -2.7976    2.4024   -0.8664 H   0  0  0  0  0  0  0  0  0  0  0  0
   -2.7721    0.7276   -1.4616 H   0  0  0  0  0  0  0  0  0  0  0  0
   -3.6910    0.9784    0.4708 C   0  0  0  0  0  0  0  0  0  0  0  0
   -3.5457   -0.0596    0.7716 H   0  0  0  0  0  0  0  0  0  0  0  0
   -3.5831    1.6246    1.3424 H   0  0  0  0  0  0  0  0  0  0  0  0
   -5.0943    1.1430   -0.1097 C   0  0  0  0  0  0  0  0  0  0  0  0
   -5.2483    2.1828   -0.3937 H   0  0  0  0  0  0  0  0  0  0  0  0
   -5.1980    0.5118   -0.9907 H   0  0  0  0  0  0  0  0  0  0  0  0
   -6.1220    0.7618    0.8660 N   0  0  0  0  0  0  0  0  0  0  0  0
   -7.0341    0.8959    0.4549 H   0  0  0  0  0  0  0  0  0  0  0  0
   -6.0033   -0.2114    1.1091 H   0  0  0  0  0  0  0  0  0  0  0  0
   -0.5564    0.0727    2.1744 C   0  0  0  0  0  0  0  0  0  0  0  0
    0.6169   -0.1288    2.4805 O   0  0  0  0  0  0  0  0  0  0  0  0
   -1.4759    0.4743    3.0595 N   0  0  0  0  0  0  0  0  0  0  0  0
   -2.4132    0.6318    2.7275 H   0  0  0  0  0  0  0  0  0  0  0  0
   -1.1971    0.7118    4.4750 C   0  0  0  0  0  0  0  0  0  0  0  0
   -0.3779    1.4272    4.5748 H   0  0  0  0  0  0  0  0  0  0  0  0
   -2.0826    1.1064    4.9754 H   0  0  0  0  0  0  0  0  0  0  0  0
   -0.8992   -0.2240    4.9525 H   0  0  0  0  0  0  0  0  0  0  0  0
  5  6  2  0  0  0  0
  5  7  1  0  0  0  0
  2  3  1  0  0  0  0
  2  4  1  0  0  0  0
  2  5  1  0  0  0  0
  1  2  1  0  0  0  0
 26 27  2  0  0  0  0
 26 28  1  0  0  0  0
 23 24  1  0  0  0  0
 23 25  1  0  0  0  0
 20 21  1  0  0  0  0
 20 22  1  0  0  0  0
 20 23  1  0  0  0  0
 17 18  1  0  0  0  0
 17 19  1  0  0  0  0
 17 20  1  0  0  0  0
 14 15  1  0  0  0  0
 14 16  1  0  0  0  0
 14 17  1  0  0  0  0
 11 12  1  0  0  0  0
 11 13  1  0  0  0  0
 11 14  1  0  0  0  0
  9 10  1  0  0  0  0
  9 11  1  0  0  0  0
  9 26  1  0  0  0  0
  7  8  1  0  0  0  0
  7  9  1  0  0  0  0
 30 31  1  0  0  0  0
 30 32  1  0  0  0  0
 30 33  1  0  0  0  0
 28 29  1  0  0  0  0
 28 30  1  0  0  0  0
M  END
$$$$
default_name
  -OEChem-02102213163D

 33 32  0     1  0  0  0  0  0999 V2000
   -3.8420   -3.6918    1.5562 H   0  0  0  0  0  0  0  0  0  0  0  0
   -3.8430   -2.7008    1.1032 C   0  0  0  0  0  0  0  0  0  0  0  0
   -4.5510   -2.0608    1.6242 H   0  0  0  0  0  0  0  0  0  0  0  0
   -4.1140   -2.7798    0.0522 H   0  0  0  0  0  0  0  0  0  0  0  0
   -2.4570   -2.1098    1.2172 C   0  0  0  0  0  0  0  0  0  0  0  0
   -1.5600   -2.7438    1.7572 O   0  0  0  0  0  0  0  0  0  0  0  0
   -2.2870   -0.8898    0.7102 N   0  0  0  0  0  0  0  0  0  0  0  0
   -3.0820   -0.4218    0.2992 H   0  0  0  0  0  0  0  0  0  0  0  0
   -1.0240   -0.1468    0.7262 C   0  0  1  0  0  0  0  0  0  0  0  0
   -0.2680   -0.7367    0.2062 H   0  0  0  0  0  0  0  0  0  0  0  0
   -1.2212    1.1806   -0.0314 C   0  0  0  0  0  0  0  0  0  0  0  0
   -1.0137    2.0053    0.6535 H   0  0  0  0  0  0  0  0  0  0  0  0
   -0.5077    1.2342   -0.8549 H   0  0  0  0  0  0  0  0  0  0  0  0
   -2.6445    1.3610   -0.5819 C   0  0  0  0  0  0  0  0  0  0  0  0
   -2.7160    2.3144   -1.1062 H   0  0  0  0  0  0  0  0  0  0  0  0
   -2.8645    0.5516   -1.2803 H   0  0  0  0  0  0  0  0  0  0  0  0
   -3.6761    1.3430    0.5517 C   0  0  0  0  0  0  0  0  0  0  0  0
   -3.6114    0.3976    1.0912 H   0  0  0  0  0  0  0  0  0  0  0  0
   -3.4748    2.1647    1.2396 H   0  0  0  0  0  0  0  0  0  0  0  0
   -5.0822    1.4991   -0.0244 C   0  0  0  0  0  0  0  0  0  0  0  0
   -5.1547    2.4511   -0.5478 H   0  0  0  0  0  0  0  0  0  0  0  0
   -5.2783    0.6891   -0.7250 H   0  0  0  0  0  0  0  0  0  0  0  0
   -6.0981    1.4622    1.0339 N   0  0  0  0  0  0  0  0  0  0  0  0
   -7.0110    1.5818    0.6201 H   0  0  0  0  0  0  0  0  0  0  0  0
   -6.0565    0.5682    1.5021 H   0  0  0  0  0  0  0  0  0  0  0  0
   -0.5564    0.0727    2.1744 C   0  0  0  0  0  0  0  0  0  0  0  0
    0.6169   -0.1288    2.4805 O   0  0  0  0  0  0  0  0  0  0  0  0
   -1.4759    0.4743    3.0595 N   0  0  0  0  0  0  0  0  0  0  0  0
   -2.4132    0.6318    2.7275 H   0  0  0  0  0  0  0  0  0  0  0  0
   -1.1971    0.7118    4.4750 C   0  0  0  0  0  0  0  0  0  0  0  0
   -0.3779    1.4272    4.5748 H   0  0  0  0  0  0  0  0  0  0  0  0
   -2.0826    1.1064    4.9754 H   0  0  0  0  0  0  0  0  0  0  0  0
   -0.8992   -0.2240    4.9525 H   0  0  0  0  0  0  0  0  0  0  0  0
  5  6  2  0  0  0  0
  5  7  1  0  0  0  0
  2  3  1  0  0  0  0
  2  4  1  0  0  0  0
  2  5  1  0  0  0  0
  1  2  1  0  0  0  0
 26 27  2  0  0  0  0
 26 28  1  0  0  0  0
 23 24  1  0  0  0  0
 23 25  1  0  0  0  0
 20 21  1  0  0  0  0
 20 22  1  0  0  0  0
 20 23  1  0  0  0  0
 17 18  1  0  0  0  0
 17 19  1  0  0  0  0
 17 20  1  0  0  0  0
 14 15  1  0  0  0  0
 14 16  1  0  0  0  0
 14 17  1  0  0  0  0
 11 12  1  0  0  0  0
 11 13  1  0  0  0  0
 11 14  1  0  0  0  0
  9 10  1  0  0  0  0
  9 11  1  0  0  0  0
  9 26  1  0  0  0  0
  7  8  1  0  0  0  0
  7  9  1  0  0  0  0
 30 31  1  0  0  0  0
 30 32  1  0  0  0  0
 30 33  1  0  0  0  0
 28 29  1  0  0  0  0
 28 30  1  0  0  0  0
M  END
$$$$
default_name
  -OEChem-02102213163D

 33 32  0     1  0  0  0  0  0999 V2000
   -3.8420   -3.6918    1.5562 H   0  0  0  0  0  0  0  0  0  0  0  0
   -3.8430   -2.7008    1.1032 C   0  0  0  0  0  0  0  0  0  0  0  0
   -4.5510   -2.0608    1.6242 H   0  0  0  0  0  0  0  0  0  0  0  0
   -4.1140   -2.7798    0.0522 H   0  0  0  0  0  0  0  0  0  0  0  0
   -2.4570   -2.1098    1.2172 C   0  0  0  0  0  0  0  0  0  0  0  0
   -1.5600   -2.7438    1.7572 O   0  0  0  0  0  0  0  0  0  0  0  0
   -2.2870   -0.8898    0.7102 N   0  0  0  0  0  0  0  0  0  0  0  0
   -3.0820   -0.4218    0.2992 H   0  0  0  0  0  0  0  0  0  0  0  0
   -1.0240   -0.1468    0.7262 C   0  0  1  0  0  0  0  0  0  0  0  0
   -0.2680   -0.7367    0.2062 H   0  0  0  0  0  0  0  0  0  0  0  0
   -1.2212    1.1806   -0.0314 C   0  0  0  0  0  0  0  0  0  0  0  0
   -1.0137    2.0053    0.6535 H   0  0  0  0  0  0  0  0  0  0  0  0
   -0.5077    1.2342   -0.8549 H   0  0  0  0  0  0  0  0  0  0  0  0
   -2.6445    1.3610   -0.5819 C   0  0  0  0  0  0  0  0  0  0  0  0
   -2.6527    2.1643   -1.3192 H   0  0  0  0  0  0  0  0  0  0  0  0
   -2.9646    0.4336   -1.0602 H   0  0  0  0  0  0  0  0  0  0  0  0
   -3.6255    1.7132    0.5421 C   0  0  0  0  0  0  0  0  0  0  0  0
   -3.6227    0.9219    1.2923 H   0  0  0  0  0  0  0  0  0  0  0  0
   -3.3233    2.6518    1.0075 H   0  0  0  0  0  0  0  0  0  0  0  0
   -5.0348    1.8623   -0.0277 C   0  0  0  0  0  0  0  0  0  0  0  0
   -5.0441    2.6646   -0.7638 H   0  0  0  0  0  0  0  0  0  0  0  0
   -5.3313    0.9316   -0.5085 H   0  0  0  0  0  0  0  0  0  0  0  0
   -6.0050    2.1769    1.0274 N   0  0  0  0  0  0  0  0  0  0  0  0
   -6.9201    2.2818    0.6144 H   0  0  0  0  0  0  0  0  0  0  0  0
   -6.0237    1.4204    1.6965 H   0  0  0  0  0  0  0  0  0  0  0  0
   -0.5564    0.0727    2.1744 C   0  0  0  0  0  0  0  0  0  0  0  0
    0.6169   -0.1288    2.4805 O   0  0  0  0  0  0  0  0  0  0  0  0
   -1.4759    0.4743    3.0595 N   0  0  0  0  0  0  0  0  0  0  0  0
   -2.4132    0.6318    2.7275 H   0  0  0  0  0  0  0  0  0  0  0  0
   -1.1971    0.7118    4.4750 C   0  0  0  0  0  0  0  0  0  0  0  0
   -0.3779    1.4272    4.5748 H   0  0  0  0  0  0  0  0  0  0  0  0
   -2.0826    1.1064    4.9754 H   0  0  0  0  0  0  0  0  0  0  0  0
   -0.8992   -0.2240    4.9525 H   0  0  0  0  0  0  0  0  0  0  0  0
  5  6  2  0  0  0  0
  5  7  1  0  0  0  0
  2  3  1  0  0  0  0
  2  4  1  0  0  0  0
  2  5  1  0  0  0  0
  1  2  1  0  0  0  0
 26 27  2  0  0  0  0
 26 28  1  0  0  0  0
 23 24  1  0  0  0  0
 23 25  1  0  0  0  0
 20 21  1  0  0  0  0
 20 22  1  0  0  0  0
 20 23  1  0  0  0  0
 17 18  1  0  0  0  0
 17 19  1  0  0  0  0
 17 20  1  0  0  0  0
 14 15  1  0  0  0  0
 14 16  1  0  0  0  0
 14 17  1  0  0  0  0
 11 12  1  0  0  0  0
 11 13  1  0  0  0  0
 11 14  1  0  0  0  0
  9 10  1  0  0  0  0
  9 11  1  0  0  0  0
  9 26  1  0  0  0  0
  7  8  1  0  0  0  0
  7  9  1  0  0  0  0
 30 31  1  0  0  0  0
 30 32  1  0  0  0  0
 30 33  1  0  0  0  0
 28 29  1  0  0  0  0
 28 30  1  0  0  0  0
M  END
$$$$
default_name
  -OEChem-02102213163D

 33 32  0     1  0  0  0  0  0999 V2000
   -3.8420   -3.6918    1.5562 H   0  0  0  0  0  0  0  0  0  0  0  0
   -3.8430   -2.7008    1.1032 C   0  0  0  0  0  0  0  0  0  0  0  0
   -4.5510   -2.0608    1.6242 H   0  0  0  0  0  0  0  0  0  0  0  0
   -4.1140   -2.7798    0.0522 H   0  0  0  0  0  0  0  0  0  0  0  0
   -2.4570   -2.1098    1.2172 C   0  0  0  0  0  0  0  0  0  0  0  0
   -1.5600   -2.7438    1.7572 O   0  0  0  0  0  0  0  0  0  0  0  0
   -2.2870   -0.8898    0.7102 N   0  0  0  0  0  0  0  0  0  0  0  0
   -3.0820   -0.4218    0.2992 H   0  0  0  0  0  0  0  0  0  0  0  0
   -1.0240   -0.1468    0.7262 C   0  0  1  0  0  0  0  0  0  0  0  0
   -0.2680   -0.7367    0.2062 H   0  0  0  0  0  0  0  0  0  0  0  0
   -1.2212    1.1806   -0.0314 C   0  0  0  0  0  0  0  0  0  0  0  0
   -1.0137    2.0053    0.6535 H   0  0  0  0  0  0  0  0  0  0  0  0
   -0.5077    1.2342   -0.8549 H   0  0  0  0  0  0  0  0  0  0  0  0
   -2.6445    1.3610   -0.5819 C   0  0  0  0  0  0  0  0  0  0  0  0
   -2.6119    1.9624   -1.4908 H   0  0  0  0  0  0  0  0  0  0  0  0
   -3.0656    0.3816   -0.8162 H   0  0  0  0  0  0  0  0  0  0  0  0
   -3.5425    2.0638    0.4425 C   0  0  0  0  0  0  0  0  0  0  0  0
   -3.5789    1.4775    1.3612 H   0  0  0  0  0  0  0  0  0  0  0  0
   -3.1389    3.0527    0.6620 H   0  0  0  0  0  0  0  0  0  0  0  0
   -4.9555    2.2080   -0.1194 C   0  0  0  0  0  0  0  0  0  0  0  0
   -4.9241    2.8088   -1.0269 H   0  0  0  0  0  0  0  0  0  0  0  0
   -5.3535    1.2225   -0.3558 H   0  0  0  0  0  0  0  0  0  0  0  0
   -5.8490    2.8569    0.8469 N   0  0  0  0  0  0  0  0  0  0  0  0
   -6.7676    2.9482    0.4384 H   0  0  0  0  0  0  0  0  0  0  0  0
   -5.9070    2.2872    1.6790 H   0  0  0  0  0  0  0  0  0  0  0  0
   -0.5564    0.0727    2.1744 C   0  0  0  0  0  0  0  0  0  0  0  0
    0.6169   -0.1288    2.4805 O   0  0  0  0  0  0  0  0  0  0  0  0
   -1.4759    0.4743    3.0595 N   0  0  0  0  0  0  0  0  0  0  0  0
   -2.4132    0.6318    2.7275 H   0  0  0  0  0  0  0  0  0  0  0  0
   -1.1971    0.7118    4.4750 C   0  0  0  0  0  0  0  0  0  0  0  0
   -0.3779    1.4272    4.5748 H   0  0  0  0  0  0  0  0  0  0  0  0
   -2.0826    1.1064    4.9754 H   0  0  0  0  0  0  0  0  0  0  0  0
   -0.8992   -0.2240    4.9525 H   0  0  0  0  0  0  0  0  0  0  0  0
  5  6  2  0  0  0  0
  5  7  1  0  0  0  0
  2  3  1  0  0  0  0
  2  4  1  0  0  0  0
  2  5  1  0  0  0  0
  1  2  1  0  0  0  0
 26 27  2  0  0  0  0
 26 28  1  0  0  0  0
 23 24  1  0  0  0  0
 23 25  1  0  0  0  0
 20 21  1  0  0  0  0
 20 22  1  0  0  0  0
 20 23  1  0  0  0  0
 17 18  1  0  0  0  0
 17 19  1  0  0  0  0
 17 20  1  0  0  0  0
 14 15  1  0  0  0  0
 14 16  1  0  0  0  0
 14 17  1  0  0  0  0
 11 12  1  0  0  0  0
 11 13  1  0  0  0  0
 11 14  1  0  0  0  0
  9 10  1  0  0  0  0
  9 11  1  0  0  0  0
  9 26  1  0  0  0  0
  7  8  1  0  0  0  0
  7  9  1  0  0  0  0
 30 31  1  0  0  0  0
 30 32  1  0  0  0  0
 30 33  1  0  0  0  0
 28 29  1  0  0  0  0
 28 30  1  0  0  0  0
M  END
$$$$
default_name
  -OEChem-02102213163D

 33 32  0     1  0  0  0  0  0999 V2000
   -3.8420   -3.6918    1.5562 H   0  0  0  0  0  0  0  0  0  0  0  0
   -3.8430   -2.7008    1.1032 C   0  0  0  0  0  0  0  0  0  0  0  0
   -4.5510   -2.0608    1.6242 H   0  0  0  0  0  0  0  0  0  0  0  0
   -4.1140   -2.7798    0.0522 H   0  0  0  0  0  0  0  0  0  0  0  0
   -2.4570   -2.1098    1.2172 C   0  0  0  0  0  0  0  0  0  0  0  0
   -1.5600   -2.7438    1.7572 O   0  0  0  0  0  0  0  0  0  0  0  0
   -2.2870   -0.8898    0.7102 N   0  0  0  0  0  0  0  0  0  0  0  0
   -3.0820   -0.4218    0.2992 H   0  0  0  0  0  0  0  0  0  0  0  0
   -1.0240   -0.1468    0.7262 C   0  0  1  0  0  0  0  0  0  0  0  0
   -0.2680   -0.7367    0.2062 H   0  0  0  0  0  0  0  0  0  0  0  0
   -1.2212    1.1806   -0.0314 C   0  0  0  0  0  0  0  0  0  0  0  0
   -1.0137    2.0053    0.6535 H   0  0  0  0  0  0  0  0  0  0  0  0
   -0.5077    1.2342   -0.8549 H   0  0  0  0  0  0  0  0  0  0  0  0
   -2.6445    1.3610   -0.5819 C   0  0  0  0  0  0  0  0  0  0  0  0
   -2.5964    1.7225   -1.6095 H   0  0  0  0  0  0  0  0  0  0  0  0
   -3.1605    0.3993   -0.5650 H   0  0  0  0  0  0  0  0  0  0  0  0
   -3.4329    2.3709    0.2597 C   0  0  0  0  0  0  0  0  0  0  0  0
   -3.4830    2.0267    1.2932 H   0  0  0  0  0  0  0  0  0  0  0  0
   -2.9341    3.3399    0.2265 H   0  0  0  0  0  0  0  0  0  0  0  0
   -4.8497    2.5126   -0.2933 C   0  0  0  0  0  0  0  0  0  0  0  0
   -4.8027    2.8739   -1.3194 H   0  0  0  0  0  0  0  0  0  0  0  0
   -5.3433    1.5423   -0.2774 H   0  0  0  0  0  0  0  0  0  0  0  0
   -5.6408    3.4561    0.5049 N   0  0  0  0  0  0  0  0  0  0  0  0
   -6.5638    3.5356    0.1040 H   0  0  0  0  0  0  0  0  0  0  0  0
   -5.7145    3.1094    1.4508 H   0  0  0  0  0  0  0  0  0  0  0  0
   -0.5564    0.0727    2.1744 C   0  0  0  0  0  0  0  0  0  0  0  0
    0.6169   -0.1288    2.4805 O   0  0  0  0  0  0  0  0  0  0  0  0
   -1.4759    0.4743    3.0595 N   0  0  0  0  0  0  0  0  0  0  0  0
   -2.4132    0.6318    2.7275 H   0  0  0  0  0  0  0  0  0  0  0  0
   -1.1971    0.7118    4.4750 C   0  0  0  0  0  0  0  0  0  0  0  0
   -0.3779    1.4272    4.5748 H   0  0  0  0  0  0  0  0  0  0  0  0
   -2.0826    1.1064    4.9754 H   0  0  0  0  0  0  0  0  0  0  0  0
   -0.8992   -0.2240    4.9525 H   0  0  0  0  0  0  0  0  0  0  0  0
  5  6  2  0  0  0  0
  5  7  1  0  0  0  0
  2  3  1  0  0  0  0
  2  4  1  0  0  0  0
  2  5  1  0  0  0  0
  1  2  1  0  0  0  0
 26 27  2  0  0  0  0
 26 28  1  0  0  0  0
 23 24  1  0  0  0  0
 23 25  1  0  0  0  0
 20 21  1  0  0  0  0
 20 22  1  0  0  0  0
 20 23  1  0  0  0  0
 17 18  1  0  0  0  0
 17 19  1  0  0  0  0
 17 20  1  0  0  0  0
 14 15  1  0  0  0  0
 14 16  1  0  0  0  0
 14 17  1  0  0  0  0
 11 12  1  0  0  0  0
 11 13  1  0  0  0  0
 11 14  1  0  0  0  0
  9 10  1  0  0  0  0
  9 11  1  0  0  0  0
  9 26  1  0  0  0  0
  7  8  1  0  0  0  0
  7  9  1  0  0  0  0
 30 31  1  0  0  0  0
 30 32  1  0  0  0  0
 30 33  1  0  0  0  0
 28 29  1  0  0  0  0
 28 30  1  0  0  0  0
M  END
$$$$
default_name
  -OEChem-02102213163D

 33 32  0     1  0  0  0  0  0999 V2000
   -3.8420   -3.6918    1.5562 H   0  0  0  0  0  0  0  0  0  0  0  0
   -3.8430   -2.7008    1.1032 C   0  0  0  0  0  0  0  0  0  0  0  0
   -4.5510   -2.0608    1.6242 H   0  0  0  0  0  0  0  0  0  0  0  0
   -4.1140   -2.7798    0.0522 H   0  0  0  0  0  0  0  0  0  0  0  0
   -2.4570   -2.1098    1.2172 C   0  0  0  0  0  0  0  0  0  0  0  0
   -1.5600   -2.7438    1.7572 O   0  0  0  0  0  0  0  0  0  0  0  0
   -2.2870   -0.8898    0.7102 N   0  0  0  0  0  0  0  0  0  0  0  0
   -3.0820   -0.4218    0.2992 H   0  0  0  0  0  0  0  0  0  0  0  0
   -1.0240   -0.1468    0.7262 C   0  0  1  0  0  0  0  0  0  0  0  0
   -0.2680   -0.7367    0.2062 H   0  0  0  0  0  0  0  0  0  0  0  0
   -1.2212    1.1806   -0.0314 C   0  0  0  0  0  0  0  0  0  0  0  0
   -1.0137    2.0053    0.6535 H   0  0  0  0  0  0  0  0  0  0  0  0
   -0.5077    1.2342   -0.8549 H   0  0  0  0  0  0  0  0  0  0  0  0
   -2.6445    1.3610   -0.5819 C   0  0  0  0  0  0  0  0  0  0  0  0
   -2.6073    1.4608   -1.6670 H   0  0  0  0  0  0  0  0  0  0  0  0
   -3.2429    0.4854   -0.3237 H   0  0  0  0  0  0  0  0  0  0  0  0
   -3.3041    2.6135    0.0063 C   0  0  0  0  0  0  0  0  0  0  0  0
   -3.3415    2.5320    1.0930 H   0  0  0  0  0  0  0  0  0  0  0  0
   -2.7228    3.4940   -0.2692 H   0  0  0  0  0  0  0  0  0  0  0  0
   -4.7245    2.7553   -0.5375 C   0  0  0  0  0  0  0  0  0  0  0  0
   -4.6884    2.8554   -1.6211 H   0  0  0  0  0  0  0  0  0  0  0  0
   -5.3014    1.8689   -0.2787 H   0  0  0  0  0  0  0  0  0  0  0  0
   -5.3945    3.9336    0.0245 N   0  0  0  0  0  0  0  0  0  0  0  0
   -6.3227    4.0038   -0.3660 H   0  0  0  0  0  0  0  0  0  0  0  0
   -5.4593    3.8310    1.0273 H   0  0  0  0  0  0  0  0  0  0  0  0
   -0.5564    0.0727    2.1744 C   0  0  0  0  0  0  0  0  0  0  0  0
    0.6169   -0.1288    2.4805 O   0  0  0  0  0  0  0  0  0  0  0  0
   -1.4759    0.4743    3.0595 N   0  0  0  0  0  0  0  0  0  0  0  0
   -2.4132    0.6318    2.7275 H   0  0  0  0  0  0  0  0  0  0  0  0
   -1.1971    0.7118    4.4750 C   0  0  0  0  0  0  0  0  0  0  0  0
   -0.3779    1.4272    4.5748 H   0  0  0  0  0  0  0  0  0  0  0  0
   -2.0826    1.1064    4.9754 H   0  0  0  0  0  0  0  0  0  0  0  0
   -0.8992   -0.2240    4.9525 H   0  0  0  0  0  0  0  0  0  0  0  0
  5  6  2  0  0  0  0
  5  7  1  0  0  0  0
  2  3  1  0  0  0  0
  2  4  1  0  0  0  0
  2  5  1  0  0  0  0
  1  2  1  0  0  0  0
 26 27  2  0  0  0  0
 26 28  1  0  0  0  0
 23 24  1  0  0  0  0
 23 25  1  0  0  0  0
 20 21  1  0  0  0  0
 20 22  1  0  0  0  0
 20 23  1  0  0  0  0
 17 18  1  0  0  0  0
 17 19  1  0  0  0  0
 17 20  1  0  0  0  0
 14 15  1  0  0  0  0
 14 16  1  0  0  0  0
 14 17  1  0  0  0  0
 11 12  1  0  0  0  0
 11 13  1  0  0  0  0
 11 14  1  0  0  0  0
  9 10  1  0  0  0  0
  9 11  1  0  0  0  0
  9 26  1  0  0  0  0
  7  8  1  0  0  0  0
  7  9  1  0  0  0  0
 30 31  1  0  0  0  0
 30 32  1  0  0  0  0
 30 33  1  0  0  0  0
 28 29  1  0  0  0  0
 28 30  1  0  0  0  0
M  END
$$$$
default_name
  -OEChem-02102213163D

 33 32  0     1  0  0  0  0  0999 V2000
   -3.8420   -3.6918    1.5562 H   0  0  0  0  0  0  0  0  0  0  0  0
   -3.8430   -2.7008    1.1032 C   0  0  0  0  0  0  0  0  0  0  0  0
   -4.5510   -2.0608    1.6242 H   0  0  0  0  0  0  0  0  0  0  0  0
   -4.1140   -2.7798    0.0522 H   0  0  0  0  0  0  0  0  0  0  0  0
   -2.4570   -2.1098    1.2172 C   0  0  0  0  0  0  0  0  0  0  0  0
   -1.5600   -2.7438    1.7572 O   0  0  0  0  0  0  0  0  0  0  0  0
   -2.2870   -0.8898    0.7102 N   0  0  0  0  0  0  0  0  0  0  0  0
   -3.0820   -0.4218    0.2992 H   0  0  0  0  0  0  0  0  0  0  0  0
   -1.0240   -0.1468    0.7262 C   0  0  1  0  0  0  0  0  0  0  0  0
   -0.2680   -0.7367    0.2062 H   0  0  0  0  0  0  0  0  0  0  0  0
   -1.2212    1.1806   -0.0314 C   0  0  0  0  0  0  0  0  0  0  0  0
   -1.0137    2.0053    0.6535 H   0  0  0  0  0  0  0  0  0  0  0  0
   -0.5077    1.2342   -0.8549 H   0  0  0  0  0  0  0  0  0  0  0  0
   -2.6445    1.3610   -0.5819 C   0  0  0  0  0  0  0  0  0  0  0  0
   -2.6439    1.1953   -1.6596 H   0  0  0  0  0  0  0  0  0  0  0  0
   -3.3071    0.6340   -0.1088 H   0  0  0  0  0  0  0  0  0  0  0  0
   -3.1649    2.7752   -0.3007 C   0  0  0  0  0  0  0  0  0  0  0  0
   -3.1641    2.9590    0.7741 H   0  0  0  0  0  0  0  0  0  0  0  0
   -2.5196    3.5044   -0.7913 H   0  0  0  0  0  0  0  0  0  0  0  0
   -4.5884    2.9195   -0.8354 C   0  0  0  0  0  0  0  0  0  0  0  0
   -4.5888    2.7546   -1.9116 H   0  0  0  0  0  0  0  0  0  0  0  0
   -5.2307    2.1803   -0.3595 H   0  0  0  0  0  0  0  0  0  0  0  0
   -5.1269    4.2568   -0.5614 N   0  0  0  0  0  0  0  0  0  0  0  0
   -6.0606    4.3211   -0.9395 H   0  0  0  0  0  0  0  0  0  0  0  0
   -5.1587    4.4029    0.4376 H   0  0  0  0  0  0  0  0  0  0  0  0
   -0.5564    0.0727    2.1744 C   0  0  0  0  0  0  0  0  0  0  0  0
    0.6169   -0.1288    2.4805 O   0  0  0  0  0  0  0  0  0  0  0  0
   -1.4759    0.4743    3.0595 N   0  0  0  0  0  0  0  0  0  0  0  0
   -2.4132    0.6318    2.7275 H   0  0  0  0  0  0  0  0  0  0  0  0
   -1.1971    0.7118    4.4750 C   0  0  0  0  0  0  0  0  0  0  0  0
   -0.3779    1.4272    4.5748 H   0  0  0  0  0  0  0  0  0  0  0  0
   -2.0826    1.1064    4.9754 H   0  0  0  0  0  0  0  0  0  0  0  0
   -0.8992   -0.2240    4.9525 H   0  0  0  0  0  0  0  0  0  0  0  0
  5  6  2  0  0  0  0
  5  7  1  0  0  0  0
  2  3  1  0  0  0  0
  2  4  1  0  0  0  0
  2  5  1  0  0  0  0
  1  2  1  0  0  0  0
 26 27  2  0  0  0  0
 26 28  1  0  0  0  0
 23 24  1  0  0  0  0
 23 25  1  0  0  0  0
 20 21  1  0  0  0  0
 20 22  1  0  0  0  0
 20 23  1  0  0  0  0
 17 18  1  0  0  0  0
 17 19  1  0  0  0  0
 17 20  1  0  0  0  0
 14 15  1  0  0  0  0
 14 16  1  0  0  0  0
 14 17  1  0  0  0  0
 11 12  1  0  0  0  0
 11 13  1  0  0  0  0
 11 14  1  0  0  0  0
  9 10  1  0  0  0  0
  9 11  1  0  0  0  0
  9 26  1  0  0  0  0
  7  8  1  0  0  0  0
  7  9  1  0  0  0  0
 30 31  1  0  0  0  0
 30 32  1  0  0  0  0
 30 33  1  0  0  0  0
 28 29  1  0  0  0  0
 28 30  1  0  0  0  0
M  END
$$$$
default_name
  -OEChem-02102213163D

 33 32  0     1  0  0  0  0  0999 V2000
   -3.8420   -3.6918    1.5562 H   0  0  0  0  0  0  0  0  0  0  0  0
   -3.8430   -2.7008    1.1032 C   0  0  0  0  0  0  0  0  0  0  0  0
   -4.5510   -2.0608    1.6242 H   0  0  0  0  0  0  0  0  0  0  0  0
   -4.1140   -2.7798    0.0522 H   0  0  0  0  0  0  0  0  0  0  0  0
   -2.4570   -2.1098    1.2172 C   0  0  0  0  0  0  0  0  0  0  0  0
   -1.5600   -2.7438    1.7572 O   0  0  0  0  0  0  0  0  0  0  0  0
   -2.2870   -0.8898    0.7102 N   0  0  0  0  0  0  0  0  0  0  0  0
   -3.0820   -0.4218    0.2992 H   0  0  0  0  0  0  0  0  0  0  0  0
   -1.0240   -0.1468    0.7262 C   0  0  1  0  0  0  0  0  0  0  0  0
   -0.2680   -0.7367    0.2062 H   0  0  0  0  0  0  0  0  0  0  0  0
   -1.2212    1.1806   -0.0314 C   0  0  0  0  0  0  0  0  0  0  0  0
   -1.0137    2.0053    0.6535 H   0  0  0  0  0  0  0  0  0  0  0  0
   -0.5077    1.2342   -0.8549 H   0  0  0  0  0  0  0  0  0  0  0  0
   -2.6445    1.3610   -0.5819 C   0  0  0  0  0  0  0  0  0  0  0  0
   -2.7036    0.9440   -1.5876 H   0  0  0  0  0  0  0  0  0  0  0  0
   -3.3489    0.8351    0.0651 H   0  0  0  0  0  0  0  0  0  0  0  0
   -3.0248    2.8449   -0.6401 C   0  0  0  0  0  0  0  0  0  0  0  0
   -2.9628    3.2785    0.3584 H   0  0  0  0  0  0  0  0  0  0  0  0
   -2.3381    3.3704   -1.3044 H   0  0  0  0  0  0  0  0  0  0  0  0
   -4.4509    2.9942   -1.1666 C   0  0  0  0  0  0  0  0  0  0  0  0
   -4.5108    2.5784   -2.1711 H   0  0  0  0  0  0  0  0  0  0  0  0
   -5.1359    2.4551   -0.5143 H   0  0  0  0  0  0  0  0  0  0  0  0
   -4.8563    4.4037   -1.2130 N   0  0  0  0  0  0  0  0  0  0  0  0
   -5.7955    4.4658   -1.5776 H   0  0  0  0  0  0  0  0  0  0  0  0
   -4.8333    4.7860   -0.2783 H   0  0  0  0  0  0  0  0  0  0  0  0
   -0.5564    0.0727    2.1744 C   0  0  0  0  0  0  0  0  0  0  0  0
    0.6169   -0.1288    2.4805 O   0  0  0  0  0  0  0  0  0  0  0  0
   -1.4759    0.4743    3.0595 N   0  0  0  0  0  0  0  0  0  0  0  0
   -2.4132    0.6318    2.7275 H   0  0  0  0  0  0  0  0  0  0  0  0
   -1.1971    0.7118    4.4750 C   0  0  0  0  0  0  0  0  0  0  0  0
   -0.3779    1.4272    4.5748 H   0  0  0  0  0  0  0  0  0  0  0  0
   -2.0826    1.1064    4.9754 H   0  0  0  0  0  0  0  0  0  0  0  0
   -0.8992   -0.2240    4.9525 H   0  0  0  0  0  0  0  0  0  0  0  0
  5  6  2  0  0  0  0
  5  7  1  0  0  0  0
  2  3  1  0  0  0  0
  2  4  1  0  0  0  0
  2  5  1  0  0  0  0
  1  2  1  0  0  0  0
 26 27  2  0  0  0  0
 26 28  1  0  0  0  0
 23 24  1  0  0  0  0
 23 25  1  0  0  0  0
 20 21  1  0  0  0  0
 20 22  1  0  0  0  0
 20 23  1  0  0  0  0
 17 18  1  0  0  0  0
 17 19  1  0  0  0  0
 17 20  1  0  0  0  0
 14 15  1  0  0  0  0
 14 16  1  0  0  0  0
 14 17  1  0  0  0  0
 11 12  1  0  0  0  0
 11 13  1  0  0  0  0
 11 14  1  0  0  0  0
  9 10  1  0  0  0  0
  9 11  1  0  0  0  0
  9 26  1  0  0  0  0
  7  8  1  0  0  0  0
  7  9  1  0  0  0  0
 30 31  1  0  0  0  0
 30 32  1  0  0  0  0
 30 33  1  0  0  0  0
 28 29  1  0  0  0  0
 28 30  1  0  0  0  0
M  END
$$$$
default_name
  -OEChem-02102213163D

 33 32  0     1  0  0  0  0  0999 V2000
   -3.8420   -3.6918    1.5562 H   0  0  0  0  0  0  0  0  0  0  0  0
   -3.8430   -2.7008    1.1032 C   0  0  0  0  0  0  0  0  0  0  0  0
   -4.5510   -2.0608    1.6242 H   0  0  0  0  0  0  0  0  0  0  0  0
   -4.1140   -2.7798    0.0522 H   0  0  0  0  0  0  0  0  0  0  0  0
   -2.4570   -2.1098    1.2172 C   0  0  0  0  0  0  0  0  0  0  0  0
   -1.5600   -2.7438    1.7572 O   0  0  0  0  0  0  0  0  0  0  0  0
   -2.2870   -0.8898    0.7102 N   0  0  0  0  0  0  0  0  0  0  0  0
   -3.0820   -0.4218    0.2992 H   0  0  0  0  0  0  0  0  0  0  0  0
   -1.0240   -0.1468    0.7262 C   0  0  1  0  0  0  0  0  0  0  0  0
   -0.2680   -0.7367    0.2062 H   0  0  0  0  0  0  0  0  0  0  0  0
   -1.2212    1.1806   -0.0314 C   0  0  0  0  0  0  0  0  0  0  0  0
   -1.0137    2.0053    0.6535 H   0  0  0  0  0  0  0  0  0  0  0  0
   -0.5077    1.2342   -0.8549 H   0  0  0  0  0  0  0  0  0  0  0  0
   -2.6445    1.3610   -0.5819 C   0  0  0  0  0  0  0  0  0  0  0  0
   -2.7823    0.7241   -1.4560 H   0  0  0  0  0  0  0  0  0  0  0  0
   -3.3654    1.0749    0.1862 H   0  0  0  0  0  0  0  0  0  0  0  0
   -2.8933    2.8178   -0.9890 C   0  0  0  0  0  0  0  0  0  0  0  0
   -2.7514    3.4689   -0.1259 H   0  0  0  0  0  0  0  0  0  0  0  0
   -2.1909    3.1011   -1.7733 H   0  0  0  0  0  0  0  0  0  0  0  0
   -4.3211    2.9741   -1.5086 C   0  0  0  0  0  0  0  0  0  0  0  0
   -4.4596    2.3387   -2.3819 H   0  0  0  0  0  0  0  0  0  0  0  0
   -5.0237    2.6747   -0.7326 H   0  0  0  0  0  0  0  0  0  0  0  0
   -4.6011    4.3644   -1.8858 N   0  0  0  0  0  0  0  0  0  0  0  0
   -5.5454    4.4281   -2.2366 H   0  0  0  0  0  0  0  0  0  0  0  0
   -4.5052    4.9543   -1.0715 H   0  0  0  0  0  0  0  0  0  0  0  0
   -0.5564    0.0727    2.1744 C   0  0  0  0  0  0  0  0  0  0  0  0
    0.6169   -0.1288    2.4805 O   0  0  0  0  0  0  0  0  0  0  0  0
   -1.4759    0.4743    3.0595 N   0  0  0  0  0  0  0  0  0  0  0  0
   -2.4132    0.6318    2.7275 H   0  0  0  0  0  0  0  0  0  0  0  0
   -1.1971    0.7118    4.4750 C   0  0  0  0  0  0  0  0  0  0  0  0
   -0.3779    1.4272    4.5748 H   0  0  0  0  0  0  0  0  0  0  0  0
   -2.0826    1.1064    4.9754 H   0  0  0  0  0  0  0  0  0  0  0  0
   -0.8992   -0.2240    4.9525 H   0  0  0  0  0  0  0  0  0  0  0  0
  5  6  2  0  0  0  0
  5  7  1  0  0  0  0
  2  3  1  0  0  0  0
  2  4  1  0  0  0  0
  2  5  1  0  0  0  0
  1  2  1  0  0  0  0
 26 27  2  0  0  0  0
 26 28  1  0  0  0  0
 23 24  1  0  0  0  0
 23 25  1  0  0  0  0
 20 21  1  0  0  0  0
 20 22  1  0  0  0  0
 20 23  1  0  0  0  0
 17 18  1  0  0  0  0
 17 19  1  0  0  0  0
 17 20  1  0  0  0  0
 14 15  1  0  0  0  0
 14 16  1  0  0  0  0
 14 17  1  0  0  0  0
 11 12  1  0  0  0  0
 11 13  1  0  0  0  0
 11 14  1  0  0  0  0
  9 10  1  0  0  0  0
  9 11  1  0  0  0  0
  9 26  1  0  0  0  0
  7  8  1  0  0  0  0
  7  9  1  0  0  0  0
 30 31  1  0  0  0  0
 30 32  1  0  0  0  0
 30 33  1  0  0  0  0
 28 29  1  0  0  0  0
 28 30  1  0  0  0  0
M  END
$$$$
default_name
  -OEChem-02102213163D

 33 32  0     1  0  0  0  0  0999 V2000
   -3.8420   -3.6918    1.5562 H   0  0  0  0  0  0  0  0  0  0  0  0
   -3.8430   -2.7008    1.1032 C   0  0  0  0  0  0  0  0  0  0  0  0
   -4.5510   -2.0608    1.6242 H   0  0  0  0  0  0  0  0  0  0  0  0
   -4.1140   -2.7798    0.0522 H   0  0  0  0  0  0  0  0  0  0  0  0
   -2.4570   -2.1098    1.2172 C   0  0  0  0  0  0  0  0  0  0  0  0
   -1.5600   -2.7438    1.7572 O   0  0  0  0  0  0  0  0  0  0  0  0
   -2.2870   -0.8898    0.7102 N   0  0  0  0  0  0  0  0  0  0  0  0
   -3.0820   -0.4218    0.2992 H   0  0  0  0  0  0  0  0  0  0  0  0
   -1.0240   -0.1468    0.7262 C   0  0  1  0  0  0  0  0  0  0  0  0
   -0.2680   -0.7367    0.2062 H   0  0  0  0  0  0  0  0  0  0  0  0
   -1.2212    1.1806   -0.0314 C   0  0  0  0  0  0  0  0  0  0  0  0
   -0.7646    1.9837    0.5508 H   0  0  0  0  0  0  0  0  0  0  0  0
   -0.7103    1.1248   -0.9937 H   0  0  0  0  0  0  0  0  0  0  0  0
   -2.6984    1.5356   -0.2620 C   0  0  0  0  0  0  0  0  0  0  0  0
   -3.1768    0.7494   -0.8467 H   0  0  0  0  0  0  0  0  0  0  0  0
   -3.2020    1.6204    0.7027 H   0  0  0  0  0  0  0  0  0  0  0  0
   -2.8309    2.8625   -1.0180 C   0  0  0  0  0  0  0  0  0  0  0  0
   -2.3497    3.6583   -0.4488 H   0  0  0  0  0  0  0  0  0  0  0  0
   -2.3498    2.7752   -1.9927 H   0  0  0  0  0  0  0  0  0  0  0  0
   -4.3071    3.2035   -1.2118 C   0  0  0  0  0  0  0  0  0  0  0  0
   -4.7857    2.4191   -1.7960 H   0  0  0  0  0  0  0  0  0  0  0  0
   -4.7931    3.2736   -0.2401 H   0  0  0  0  0  0  0  0  0  0  0  0
   -4.4704    4.4822   -1.9130 N   0  0  0  0  0  0  0  0  0  0  0  0
   -5.4549    4.6686   -2.0358 H   0  0  0  0  0  0  0  0  0  0  0  0
   -4.0560    5.2187   -1.3597 H   0  0  0  0  0  0  0  0  0  0  0  0
   -0.5564    0.0727    2.1744 C   0  0  0  0  0  0  0  0  0  0  0  0
    0.6169   -0.1288    2.4805 O   0  0  0  0  0  0  0  0  0  0  0  0
   -1.4759    0.4743    3.0595 N   0  0  0  0  0  0  0  0  0  0  0  0
   -2.4132    0.6318    2.7275 H   0  0  0  0  0  0  0  0  0  0  0  0
   -1.1971    0.7118    4.4750 C   0  0  0  0  0  0  0  0  0  0  0  0
   -0.3779    1.4272    4.5748 H   0  0  0  0  0  0  0  0  0  0  0  0
   -2.0826    1.1064    4.9754 H   0  0  0  0  0  0  0  0  0  0  0  0
   -0.8992   -0.2240    4.9525 H   0  0  0  0  0  0  0  0  0  0  0  0
  5  6  2  0  0  0  0
  5  7  1  0  0  0  0
  2  3  1  0  0  0  0
  2  4  1  0  0  0  0
  2  5  1  0  0  0  0
  1  2  1  0  0  0  0
 26 27  2  0  0  0  0
 26 28  1  0  0  0  0
 23 24  1  0  0  0  0
 23 25  1  0  0  0  0
 20 21  1  0  0  0  0
 20 22  1  0  0  0  0
 20 23  1  0  0  0  0
 17 18  1  0  0  0  0
 17 19  1  0  0  0  0
 17 20  1  0  0  0  0
 14 15  1  0  0  0  0
 14 16  1  0  0  0  0
 14 17  1  0  0  0  0
 11 12  1  0  0  0  0
 11 13  1  0  0  0  0
 11 14  1  0  0  0  0
  9 10  1  0  0  0  0
  9 11  1  0  0  0  0
  9 26  1  0  0  0  0
  7  8  1  0  0  0  0
  7  9  1  0  0  0  0
 30 31  1  0  0  0  0
 30 32  1  0  0  0  0
 30 33  1  0  0  0  0
 28 29  1  0  0  0  0
 28 30  1  0  0  0  0
M  END
$$$$
default_name
  -OEChem-02102213163D

 33 32  0     1  0  0  0  0  0999 V2000
   -3.8420   -3.6918    1.5562 H   0  0  0  0  0  0  0  0  0  0  0  0
   -3.8430   -2.7008    1.1032 C   0  0  0  0  0  0  0  0  0  0  0  0
   -4.5510   -2.0608    1.6242 H   0  0  0  0  0  0  0  0  0  0  0  0
   -4.1140   -2.7798    0.0522 H   0  0  0  0  0  0  0  0  0  0  0  0
   -2.4570   -2.1098    1.2172 C   0  0  0  0  0  0  0  0  0  0  0  0
   -1.5600   -2.7438    1.7572 O   0  0  0  0  0  0  0  0  0  0  0  0
   -2.2870   -0.8898    0.7102 N   0  0  0  0  0  0  0  0  0  0  0  0
   -3.0820   -0.4218    0.2992 H   0  0  0  0  0  0  0  0  0  0  0  0
   -1.0240   -0.1468    0.7262 C   0  0  1  0  0  0  0  0  0  0  0  0
   -0.2680   -0.7367    0.2062 H   0  0  0  0  0  0  0  0  0  0  0  0
   -1.2212    1.1806   -0.0314 C   0  0  0  0  0  0  0  0  0  0  0  0
   -0.7646    1.9837    0.5508 H   0  0  0  0  0  0  0  0  0  0  0  0
   -0.7103    1.1248   -0.9937 H   0  0  0  0  0  0  0  0  0  0  0  0
   -2.6984    1.5356   -0.2620 C   0  0  0  0  0  0  0  0  0  0  0  0
   -3.2380    0.6522   -0.6044 H   0  0  0  0  0  0  0  0  0  0  0  0
   -3.1356    1.8799    0.6770 H   0  0  0  0  0  0  0  0  0  0  0  0
   -2.8380    2.6386   -1.3173 C   0  0  0  0  0  0  0  0  0  0  0  0
   -2.2963    3.5274   -0.9923 H   0  0  0  0  0  0  0  0  0  0  0  0
   -2.4240    2.2905   -2.2640 H   0  0  0  0  0  0  0  0  0  0  0  0
   -4.3123    2.9892   -1.5089 C   0  0  0  0  0  0  0  0  0  0  0  0
   -4.8519    2.1076   -1.8512 H   0  0  0  0  0  0  0  0  0  0  0  0
   -4.7320    3.3202   -0.5603 H   0  0  0  0  0  0  0  0  0  0  0  0
   -4.4806    4.0606   -2.4973 N   0  0  0  0  0  0  0  0  0  0  0  0
   -5.4646    4.2562   -2.6086 H   0  0  0  0  0  0  0  0  0  0  0  0
   -4.0084    4.8911   -2.1694 H   0  0  0  0  0  0  0  0  0  0  0  0
   -0.5564    0.0727    2.1744 C   0  0  0  0  0  0  0  0  0  0  0  0
    0.6169   -0.1288    2.4805 O   0  0  0  0  0  0  0  0  0  0  0  0
   -1.4759    0.4743    3.0595 N   0  0  0  0  0  0  0  0  0  0  0  0
   -2.4132    0.6318    2.7275 H   0  0  0  0  0  0  0  0  0  0  0  0
   -1.1971    0.7118    4.4750 C   0  0  0  0  0  0  0  0  0  0  0  0
   -0.3779    1.4272    4.5748 H   0  0  0  0  0  0  0  0  0  0  0  0
   -2.0826    1.1064    4.9754 H   0  0  0  0  0  0  0  0  0  0  0  0
   -0.8992   -0.2240    4.9525 H   0  0  0  0  0  0  0  0  0  0  0  0
  5  6  2  0  0  0  0
  5  7  1  0  0  0  0
  2  3  1  0  0  0  0
  2  4  1  0  0  0  0
  2  5  1  0  0  0  0
  1  2  1  0  0  0  0
 26 27  2  0  0  0  0
 26 28  1  0  0  0  0
 23 24  1  0  0  0  0
 23 25  1  0  0  0  0
 20 21  1  0  0  0  0
 20 22  1  0  0  0  0
 20 23  1  0  0  0  0
 17 18  1  0  0  0  0
 17 19  1  0  0  0  0
 17 20  1  0  0  0  0
 14 15  1  0  0  0  0
 14 16  1  0  0  0  0
 14 17  1  0  0  0  0
 11 12  1  0  0  0  0
 11 13  1  0  0  0  0
 11 14  1  0  0  0  0
  9 10  1  0  0  0  0
  9 11  1  0  0  0  0
  9 26  1  0  0  0  0
  7  8  1  0  0  0  0
  7  9  1  0  0  0  0
 30 31  1  0  0  0  0
 30 32  1  0  0  0  0
 30 33  1  0  0  0  0
 28 29  1  0  0  0  0
 28 30  1  0  0  0  0
M  END
$$$$
default_name
  -OEChem-02102213163D

 33 32  0     1  0  0  0  0  0999 V2000
   -3.8420   -3.6918    1.5562 H   0  0  0  0  0  0  0  0  0  0  0  0
   -3.8430   -2.7008    1.1032 C   0  0  0  0  0  0  0  0  0  0  0  0
   -4.5510   -2.0608    1.6242 H   0  0  0  0  0  0  0  0  0  0  0  0
   -4.1140   -2.7798    0.0522 H   0  0  0  0  0  0  0  0  0  0  0  0
   -2.4570   -2.1098    1.2172 C   0  0  0  0  0  0  0  0  0  0  0  0
   -1.5600   -2.7438    1.7572 O   0  0  0  0  0  0  0  0  0  0  0  0
   -2.2870   -0.8898    0.7102 N   0  0  0  0  0  0  0  0  0  0  0  0
   -3.0820   -0.4218    0.2992 H   0  0  0  0  0  0  0  0  0  0  0  0
   -1.0240   -0.1468    0.7262 C   0  0  1  0  0  0  0  0  0  0  0  0
   -0.2680   -0.7367    0.2062 H   0  0  0  0  0  0  0  0  0  0  0  0
   -1.2212    1.1806   -0.0314 C   0  0  0  0  0  0  0  0  0  0  0  0
   -0.7646    1.9837    0.5508 H   0  0  0  0  0  0  0  0  0  0  0  0
   -0.7103    1.1248   -0.9937 H   0  0  0  0  0  0  0  0  0  0  0  0
   -2.6984    1.5356   -0.2620 C   0  0  0  0  0  0  0  0  0  0  0  0
   -3.2864    0.6209   -0.3425 H   0  0  0  0  0  0  0  0  0  0  0  0
   -3.0630    2.1216    0.5837 H   0  0  0  0  0  0  0  0  0  0  0  0
   -2.8714    2.3482   -1.5502 C   0  0  0  0  0  0  0  0  0  0  0  0
   -2.2823    3.2637   -1.4880 H   0  0  0  0  0  0  0  0  0  0  0  0
   -2.5306    1.7576   -2.4011 H   0  0  0  0  0  0  0  0  0  0  0  0
   -4.3433    2.7084   -1.7421 C   0  0  0  0  0  0  0  0  0  0  0  0
   -4.9313    1.7956   -1.8231 H   0  0  0  0  0  0  0  0  0  0  0  0
   -4.6902    3.2831   -0.8849 H   0  0  0  0  0  0  0  0  0  0  0  0
   -4.5416    3.5083   -2.9563 N   0  0  0  0  0  0  0  0  0  0  0  0
   -5.5242    3.7157   -3.0588 H   0  0  0  0  0  0  0  0  0  0  0  0
   -4.0235    4.3714   -2.8728 H   0  0  0  0  0  0  0  0  0  0  0  0
   -0.5564    0.0727    2.1744 C   0  0  0  0  0  0  0  0  0  0  0  0
    0.6169   -0.1288    2.4805 O   0  0  0  0  0  0  0  0  0  0  0  0
   -1.4759    0.4743    3.0595 N   0  0  0  0  0  0  0  0  0  0  0  0
   -2.4132    0.6318    2.7275 H   0  0  0  0  0  0  0  0  0  0  0  0
   -1.1971    0.7118    4.4750 C   0  0  0  0  0  0  0  0  0  0  0  0
   -0.3779    1.4272    4.5748 H   0  0  0  0  0  0  0  0  0  0  0  0
   -2.0826    1.1064    4.9754 H   0  0  0  0  0  0  0  0  0  0  0  0
   -0.8992   -0.2240    4.9525 H   0  0  0  0  0  0  0  0  0  0  0  0
  5  6  2  0  0  0  0
  5  7  1  0  0  0  0
  2  3  1  0  0  0  0
  2  4  1  0  0  0  0
  2  5  1  0  0  0  0
  1  2  1  0  0  0  0
 26 27  2  0  0  0  0
 26 28  1  0  0  0  0
 23 24  1  0  0  0  0
 23 25  1  0  0  0  0
 20 21  1  0  0  0  0
 20 22  1  0  0  0  0
 20 23  1  0  0  0  0
 17 18  1  0  0  0  0
 17 19  1  0  0  0  0
 17 20  1  0  0  0  0
 14 15  1  0  0  0  0
 14 16  1  0  0  0  0
 14 17  1  0  0  0  0
 11 12  1  0  0  0  0
 11 13  1  0  0  0  0
 11 14  1  0  0  0  0
  9 10  1  0  0  0  0
  9 11  1  0  0  0  0
  9 26  1  0  0  0  0
  7  8  1  0  0  0  0
  7  9  1  0  0  0  0
 30 31  1  0  0  0  0
 30 32  1  0  0  0  0
 30 33  1  0  0  0  0
 28 29  1  0  0  0  0
 28 30  1  0  0  0  0
M  END
$$$$
default_name
  -OEChem-02102213163D

 33 32  0     1  0  0  0  0  0999 V2000
   -3.8420   -3.6918    1.5562 H   0  0  0  0  0  0  0  0  0  0  0  0
   -3.8430   -2.7008    1.1032 C   0  0  0  0  0  0  0  0  0  0  0  0
   -4.5510   -2.0608    1.6242 H   0  0  0  0  0  0  0  0  0  0  0  0
   -4.1140   -2.7798    0.0522 H   0  0  0  0  0  0  0  0  0  0  0  0
   -2.4570   -2.1098    1.2172 C   0  0  0  0  0  0  0  0  0  0  0  0
   -1.5600   -2.7438    1.7572 O   0  0  0  0  0  0  0  0  0  0  0  0
   -2.2870   -0.8898    0.7102 N   0  0  0  0  0  0  0  0  0  0  0  0
   -3.0820   -0.4218    0.2992 H   0  0  0  0  0  0  0  0  0  0  0  0
   -1.0240   -0.1468    0.7262 C   0  0  1  0  0  0  0  0  0  0  0  0
   -0.2680   -0.7367    0.2062 H   0  0  0  0  0  0  0  0  0  0  0  0
   -1.2212    1.1806   -0.0314 C   0  0  0  0  0  0  0  0  0  0  0  0
   -0.7646    1.9837    0.5508 H   0  0  0  0  0  0  0  0  0  0  0  0
   -0.7103    1.1248   -0.9937 H   0  0  0  0  0  0  0  0  0  0  0  0
   -2.6984    1.5356   -0.2620 C   0  0  0  0  0  0  0  0  0  0  0  0
   -3.3187    0.6578   -0.0789 H   0  0  0  0  0  0  0  0  0  0  0  0
   -2.9890    2.3290    0.4290 H   0  0  0  0  0  0  0  0  0  0  0  0
   -2.9289    2.0110   -1.7009 C   0  0  0  0  0  0  0  0  0  0  0  0
   -2.3087    2.8850   -1.9020 H   0  0  0  0  0  0  0  0  0  0  0  0
   -2.6625    1.2130   -2.3946 H   0  0  0  0  0  0  0  0  0  0  0  0
   -4.3982    2.3804   -1.8958 C   0  0  0  0  0  0  0  0  0  0  0  0
   -5.0184    1.5042   -1.7136 H   0  0  0  0  0  0  0  0  0  0  0  0
   -4.6707    3.1649   -1.1917 H   0  0  0  0  0  0  0  0  0  0  0  0
   -4.6495    2.8630   -3.2585 N   0  0  0  0  0  0  0  0  0  0  0  0
   -5.6297    3.0840   -3.3556 H   0  0  0  0  0  0  0  0  0  0  0  0
   -4.1004    3.6949   -3.4220 H   0  0  0  0  0  0  0  0  0  0  0  0
   -0.5564    0.0727    2.1744 C   0  0  0  0  0  0  0  0  0  0  0  0
    0.6169   -0.1288    2.4805 O   0  0  0  0  0  0  0  0  0  0  0  0
   -1.4759    0.4743    3.0595 N   0  0  0  0  0  0  0  0  0  0  0  0
   -2.4132    0.6318    2.7275 H   0  0  0  0  0  0  0  0  0  0  0  0
   -1.1971    0.7118    4.4750 C   0  0  0  0  0  0  0  0  0  0  0  0
   -0.3779    1.4272    4.5748 H   0  0  0  0  0  0  0  0  0  0  0  0
   -2.0826    1.1064    4.9754 H   0  0  0  0  0  0  0  0  0  0  0  0
   -0.8992   -0.2240    4.9525 H   0  0  0  0  0  0  0  0  0  0  0  0
  5  6  2  0  0  0  0
  5  7  1  0  0  0  0
  2  3  1  0  0  0  0
  2  4  1  0  0  0  0
  2  5  1  0  0  0  0
  1  2  1  0  0  0  0
 26 27  2  0  0  0  0
 26 28  1  0  0  0  0
 23 24  1  0  0  0  0
 23 25  1  0  0  0  0
 20 21  1  0  0  0  0
 20 22  1  0  0  0  0
 20 23  1  0  0  0  0
 17 18  1  0  0  0  0
 17 19  1  0  0  0  0
 17 20  1  0  0  0  0
 14 15  1  0  0  0  0
 14 16  1  0  0  0  0
 14 17  1  0  0  0  0
 11 12  1  0  0  0  0
 11 13  1  0  0  0  0
 11 14  1  0  0  0  0
  9 10  1  0  0  0  0
  9 11  1  0  0  0  0
  9 26  1  0  0  0  0
  7  8  1  0  0  0  0
  7  9  1  0  0  0  0
 30 31  1  0  0  0  0
 30 32  1  0  0  0  0
 30 33  1  0  0  0  0
 28 29  1  0  0  0  0
 28 30  1  0  0  0  0
M  END
$$$$
default_name
  -OEChem-02102213163D

 33 32  0     1  0  0  0  0  0999 V2000
   -3.8420   -3.6918    1.5562 H   0  0  0  0  0  0  0  0  0  0  0  0
   -3.8430   -2.7008    1.1032 C   0  0  0  0  0  0  0  0  0  0  0  0
   -4.5510   -2.0608    1.6242 H   0  0  0  0  0  0  0  0  0  0  0  0
   -4.1140   -2.7798    0.0522 H   0  0  0  0  0  0  0  0  0  0  0  0
   -2.4570   -2.1098    1.2172 C   0  0  0  0  0  0  0  0  0  0  0  0
   -1.5600   -2.7438    1.7572 O   0  0  0  0  0  0  0  0  0  0  0  0
   -2.2870   -0.8898    0.7102 N   0  0  0  0  0  0  0  0  0  0  0  0
   -3.0820   -0.4218    0.2992 H   0  0  0  0  0  0  0  0  0  0  0  0
   -1.0240   -0.1468    0.7262 C   0  0  1  0  0  0  0  0  0  0  0  0
   -0.2680   -0.7367    0.2062 H   0  0  0  0  0  0  0  0  0  0  0  0
   -1.2212    1.1806   -0.0314 C   0  0  0  0  0  0  0  0  0  0  0  0
   -0.7646    1.9837    0.5508 H   0  0  0  0  0  0  0  0  0  0  0  0
   -0.7103    1.1248   -0.9937 H   0  0  0  0  0  0  0  0  0  0  0  0
   -2.6984    1.5356   -0.2620 C   0  0  0  0  0  0  0  0  0  0  0  0
   -3.3327    0.7602    0.1685 H   0  0  0  0  0  0  0  0  0  0  0  0
   -2.9187    2.4880    0.2236 H   0  0  0  0  0  0  0  0  0  0  0  0
   -3.0066    1.6501   -1.7592 C   0  0  0  0  0  0  0  0  0  0  0  0
   -2.3736    2.4173   -2.2061 H   0  0  0  0  0  0  0  0  0  0  0  0
   -2.8107    0.6936   -2.2448 H   0  0  0  0  0  0  0  0  0  0  0  0
   -4.4731    2.0274   -1.9592 C   0  0  0  0  0  0  0  0  0  0  0  0
   -5.1073    1.2534   -1.5301 H   0  0  0  0  0  0  0  0  0  0  0  0
   -4.6748    2.9736   -1.4598 H   0  0  0  0  0  0  0  0  0  0  0  0
   -4.7969    2.1687   -3.3835 N   0  0  0  0  0  0  0  0  0  0  0  0
   -5.7739    2.4040   -3.4787 H   0  0  0  0  0  0  0  0  0  0  0  0
   -4.2337    2.9078   -3.7796 H   0  0  0  0  0  0  0  0  0  0  0  0
   -0.5564    0.0727    2.1744 C   0  0  0  0  0  0  0  0  0  0  0  0
    0.6169   -0.1288    2.4805 O   0  0  0  0  0  0  0  0  0  0  0  0
   -1.4759    0.4743    3.0595 N   0  0  0  0  0  0  0  0  0  0  0  0
   -2.4132    0.6318    2.7275 H   0  0  0  0  0  0  0  0  0  0  0  0
   -1.1971    0.7118    4.4750 C   0  0  0  0  0  0  0  0  0  0  0  0
   -0.3779    1.4272    4.5748 H   0  0  0  0  0  0  0  0  0  0  0  0
   -2.0826    1.1064    4.9754 H   0  0  0  0  0  0  0  0  0  0  0  0
   -0.8992   -0.2240    4.9525 H   0  0  0  0  0  0  0  0  0  0  0  0
  5  6  2  0  0  0  0
  5  7  1  0  0  0  0
  2  3  1  0  0  0  0
  2  4  1  0  0  0  0
  2  5  1  0  0  0  0
  1  2  1  0  0  0  0
 26 27  2  0  0  0  0
 26 28  1  0  0  0  0
 23 24  1  0  0  0  0
 23 25  1  0  0  0  0
 20 21  1  0  0  0  0
 20 22  1  0  0  0  0
 20 23  1  0  0  0  0
 17 18  1  0  0  0  0
 17 19  1  0  0  0  0
 17 20  1  0  0  0  0
 14 15  1  0  0  0  0
 14 16  1  0  0  0  0
 14 17  1  0  0  0  0
 11 12  1  0  0  0  0
 11 13  1  0  0  0  0
 11 14  1  0  0  0  0
  9 10  1  0  0  0  0
  9 11  1  0  0  0  0
  9 26  1  0  0  0  0
  7  8  1  0  0  0  0
  7  9  1  0  0  0  0
 30 31  1  0  0  0  0
 30 32  1  0  0  0  0
 30 33  1  0  0  0  0
 28 29  1  0  0  0  0
 28 30  1  0  0  0  0
M  END
$$$$
default_name
  -OEChem-02102213163D

 33 32  0     1  0  0  0  0  0999 V2000
   -3.8420   -3.6918    1.5562 H   0  0  0  0  0  0  0  0  0  0  0  0
   -3.8430   -2.7008    1.1032 C   0  0  0  0  0  0  0  0  0  0  0  0
   -4.5510   -2.0608    1.6242 H   0  0  0  0  0  0  0  0  0  0  0  0
   -4.1140   -2.7798    0.0522 H   0  0  0  0  0  0  0  0  0  0  0  0
   -2.4570   -2.1098    1.2172 C   0  0  0  0  0  0  0  0  0  0  0  0
   -1.5600   -2.7438    1.7572 O   0  0  0  0  0  0  0  0  0  0  0  0
   -2.2870   -0.8898    0.7102 N   0  0  0  0  0  0  0  0  0  0  0  0
   -3.0820   -0.4218    0.2992 H   0  0  0  0  0  0  0  0  0  0  0  0
   -1.0240   -0.1468    0.7262 C   0  0  1  0  0  0  0  0  0  0  0  0
   -0.2680   -0.7367    0.2062 H   0  0  0  0  0  0  0  0  0  0  0  0
   -1.2212    1.1806   -0.0314 C   0  0  0  0  0  0  0  0  0  0  0  0
   -0.7646    1.9837    0.5508 H   0  0  0  0  0  0  0  0  0  0  0  0
   -0.7103    1.1248   -0.9937 H   0  0  0  0  0  0  0  0  0  0  0  0
   -2.6984    1.5356   -0.2620 C   0  0  0  0  0  0  0  0  0  0  0  0
   -3.3274    0.9213    0.3828 H   0  0  0  0  0  0  0  0  0  0  0  0
   -2.8570    2.5878   -0.0186 H   0  0  0  0  0  0  0  0  0  0  0  0
   -3.0991    1.2899   -1.7210 C   0  0  0  0  0  0  0  0  0  0  0  0
   -2.4727    1.8924   -2.3796 H   0  0  0  0  0  0  0  0  0  0  0  0
   -2.9650    0.2350   -1.9622 H   0  0  0  0  0  0  0  0  0  0  0  0
   -4.5630    1.6736   -1.9283 C   0  0  0  0  0  0  0  0  0  0  0  0
   -5.1920    1.0603   -1.2851 H   0  0  0  0  0  0  0  0  0  0  0  0
   -4.7023    2.7223   -1.6709 H   0  0  0  0  0  0  0  0  0  0  0  0
   -4.9736    1.4727   -3.3226 N   0  0  0  0  0  0  0  0  0  0  0  0
   -5.9469    1.7221   -3.4199 H   0  0  0  0  0  0  0  0  0  0  0  0
   -4.4144    2.0637   -3.9212 H   0  0  0  0  0  0  0  0  0  0  0  0
   -0.5564    0.0727    2.1744 C   0  0  0  0  0  0  0  0  0  0  0  0
    0.6169   -0.1288    2.4805 O   0  0  0  0  0  0  0  0  0  0  0  0
   -1.4759    0.4743    3.0595 N   0  0  0  0  0  0  0  0  0  0  0  0
   -2.4132    0.6318    2.7275 H   0  0  0  0  0  0  0  0  0  0  0  0
   -1.1971    0.7118    4.4750 C   0  0  0  0  0  0  0  0  0  0  0  0
   -0.3779    1.4272    4.5748 H   0  0  0  0  0  0  0  0  0  0  0  0
   -2.0826    1.1064    4.9754 H   0  0  0  0  0  0  0  0  0  0  0  0
   -0.8992   -0.2240    4.9525 H   0  0  0  0  0  0  0  0  0  0  0  0
  5  6  2  0  0  0  0
  5  7  1  0  0  0  0
  2  3  1  0  0  0  0
  2  4  1  0  0  0  0
  2  5  1  0  0  0  0
  1  2  1  0  0  0  0
 26 27  2  0  0  0  0
 26 28  1  0  0  0  0
 23 24  1  0  0  0  0
 23 25  1  0  0  0  0
 20 21  1  0  0  0  0
 20 22  1  0  0  0  0
 20 23  1  0  0  0  0
 17 18  1  0  0  0  0
 17 19  1  0  0  0  0
 17 20  1  0  0  0  0
 14 15  1  0  0  0  0
 14 16  1  0  0  0  0
 14 17  1  0  0  0  0
 11 12  1  0  0  0  0
 11 13  1  0  0  0  0
 11 14  1  0  0  0  0
  9 10  1  0  0  0  0
  9 11  1  0  0  0  0
  9 26  1  0  0  0  0
  7  8  1  0  0  0  0
  7  9  1  0  0  0  0
 30 31  1  0  0  0  0
 30 32  1  0  0  0  0
 30 33  1  0  0  0  0
 28 29  1  0  0  0  0
 28 30  1  0  0  0  0
M  END
$$$$
default_name
  -OEChem-02102213163D

 33 32  0     1  0  0  0  0  0999 V2000
   -3.8420   -3.6918    1.5562 H   0  0  0  0  0  0  0  0  0  0  0  0
   -3.8430   -2.7008    1.1032 C   0  0  0  0  0  0  0  0  0  0  0  0
   -4.5510   -2.0608    1.6242 H   0  0  0  0  0  0  0  0  0  0  0  0
   -4.1140   -2.7798    0.0522 H   0  0  0  0  0  0  0  0  0  0  0  0
   -2.4570   -2.1098    1.2172 C   0  0  0  0  0  0  0  0  0  0  0  0
   -1.5600   -2.7438    1.7572 O   0  0  0  0  0  0  0  0  0  0  0  0
   -2.2870   -0.8898    0.7102 N   0  0  0  0  0  0  0  0  0  0  0  0
   -3.0820   -0.4218    0.2992 H   0  0  0  0  0  0  0  0  0  0  0  0
   -1.0240   -0.1468    0.7262 C   0  0  1  0  0  0  0  0  0  0  0  0
   -0.2680   -0.7367    0.2062 H   0  0  0  0  0  0  0  0  0  0  0  0
   -1.2212    1.1806   -0.0314 C   0  0  0  0  0  0  0  0  0  0  0  0
   -0.7646    1.9837    0.5508 H   0  0  0  0  0  0  0  0  0  0  0  0
   -0.7103    1.1248   -0.9937 H   0  0  0  0  0  0  0  0  0  0  0  0
   -2.6984    1.5356   -0.2620 C   0  0  0  0  0  0  0  0  0  0  0  0
   -3.3033    1.1299    0.5494 H   0  0  0  0  0  0  0  0  0  0  0  0
   -2.8079    2.6215   -0.2810 H   0  0  0  0  0  0  0  0  0  0  0  0
   -3.2001    0.9551   -1.5890 C   0  0  0  0  0  0  0  0  0  0  0  0
   -2.5991    1.3460   -2.4106 H   0  0  0  0  0  0  0  0  0  0  0  0
   -3.1150   -0.1317   -1.5658 H   0  0  0  0  0  0  0  0  0  0  0  0
   -4.6616    1.3431   -1.8050 C   0  0  0  0  0  0  0  0  0  0  0  0
   -5.2666    0.9380   -0.9954 H   0  0  0  0  0  0  0  0  0  0  0  0
   -4.7511    2.4282   -1.8107 H   0  0  0  0  0  0  0  0  0  0  0  0
   -5.1678    0.8224   -3.0801 N   0  0  0  0  0  0  0  0  0  0  0  0
   -6.1370    1.0849   -3.1831 H   0  0  0  0  0  0  0  0  0  0  0  0
   -4.6302    1.2202   -3.8372 H   0  0  0  0  0  0  0  0  0  0  0  0
   -0.5564    0.0727    2.1744 C   0  0  0  0  0  0  0  0  0  0  0  0
    0.6169   -0.1288    2.4805 O   0  0  0  0  0  0  0  0  0  0  0  0
   -1.4759    0.4743    3.0595 N   0  0  0  0  0  0  0  0  0  0  0  0
   -2.4132    0.6318    2.7275 H   0  0  0  0  0  0  0  0  0  0  0  0
   -1.1971    0.7118    4.4750 C   0  0  0  0  0  0  0  0  0  0  0  0
   -0.3779    1.4272    4.5748 H   0  0  0  0  0  0  0  0  0  0  0  0
   -2.0826    1.1064    4.9754 H   0  0  0  0  0  0  0  0  0  0  0  0
   -0.8992   -0.2240    4.9525 H   0  0  0  0  0  0  0  0  0  0  0  0
  5  6  2  0  0  0  0
  5  7  1  0  0  0  0
  2  3  1  0  0  0  0
  2  4  1  0  0  0  0
  2  5  1  0  0  0  0
  1  2  1  0  0  0  0
 26 27  2  0  0  0  0
 26 28  1  0  0  0  0
 23 24  1  0  0  0  0
 23 25  1  0  0  0  0
 20 21  1  0  0  0  0
 20 22  1  0  0  0  0
 20 23  1  0  0  0  0
 17 18  1  0  0  0  0
 17 19  1  0  0  0  0
 17 20  1  0  0  0  0
 14 15  1  0  0  0  0
 14 16  1  0  0  0  0
 14 17  1  0  0  0  0
 11 12  1  0  0  0  0
 11 13  1  0  0  0  0
 11 14  1  0  0  0  0
  9 10  1  0  0  0  0
  9 11  1  0  0  0  0
  9 26  1  0  0  0  0
  7  8  1  0  0  0  0
  7  9  1  0  0  0  0
 30 31  1  0  0  0  0
 30 32  1  0  0  0  0
 30 33  1  0  0  0  0
 28 29  1  0  0  0  0
 28 30  1  0  0  0  0
M  END
$$$$
default_name
  -OEChem-02102213163D

 33 32  0     1  0  0  0  0  0999 V2000
   -3.8420   -3.6918    1.5562 H   0  0  0  0  0  0  0  0  0  0  0  0
   -3.8430   -2.7008    1.1032 C   0  0  0  0  0  0  0  0  0  0  0  0
   -4.5510   -2.0608    1.6242 H   0  0  0  0  0  0  0  0  0  0  0  0
   -4.1140   -2.7798    0.0522 H   0  0  0  0  0  0  0  0  0  0  0  0
   -2.4570   -2.1098    1.2172 C   0  0  0  0  0  0  0  0  0  0  0  0
   -1.5600   -2.7438    1.7572 O   0  0  0  0  0  0  0  0  0  0  0  0
   -2.2870   -0.8898    0.7102 N   0  0  0  0  0  0  0  0  0  0  0  0
   -3.0820   -0.4218    0.2992 H   0  0  0  0  0  0  0  0  0  0  0  0
   -1.0240   -0.1468    0.7262 C   0  0  1  0  0  0  0  0  0  0  0  0
   -0.2680   -0.7367    0.2062 H   0  0  0  0  0  0  0  0  0  0  0  0
   -1.2212    1.1806   -0.0314 C   0  0  0  0  0  0  0  0  0  0  0  0
   -0.7646    1.9837    0.5508 H   0  0  0  0  0  0  0  0  0  0  0  0
   -0.7103    1.1248   -0.9937 H   0  0  0  0  0  0  0  0  0  0  0  0
   -2.6984    1.5356   -0.2620 C   0  0  0  0  0  0  0  0  0  0  0  0
   -3.2619    1.3720    0.6570 H   0  0  0  0  0  0  0  0  0  0  0  0
   -2.7749    2.5868   -0.5458 H   0  0  0  0  0  0  0  0  0  0  0  0
   -3.3029    0.6685   -1.3722 C   0  0  0  0  0  0  0  0  0  0  0  0
   -2.7443    0.8155   -2.2971 H   0  0  0  0  0  0  0  0  0  0  0  0
   -3.2504   -0.3814   -1.0827 H   0  0  0  0  0  0  0  0  0  0  0  0
   -4.7624    1.0583   -1.5977 C   0  0  0  0  0  0  0  0  0  0  0  0
   -5.3261    0.8948   -0.6806 H   0  0  0  0  0  0  0  0  0  0  0  0
   -4.8181    2.1111   -1.8696 H   0  0  0  0  0  0  0  0  0  0  0  0
   -5.3660    0.2622   -2.6724 N   0  0  0  0  0  0  0  0  0  0  0  0
   -6.3313    0.5356   -2.7844 H   0  0  0  0  0  0  0  0  0  0  0  0
   -4.8664    0.4347   -3.5332 H   0  0  0  0  0  0  0  0  0  0  0  0
   -0.5564    0.0727    2.1744 C   0  0  0  0  0  0  0  0  0  0  0  0
    0.6169   -0.1288    2.4805 O   0  0  0  0  0  0  0  0  0  0  0  0
   -1.4759    0.4743    3.0595 N   0  0  0  0  0  0  0  0  0  0  0  0
   -2.4132    0.6318    2.7275 H   0  0  0  0  0  0  0  0  0  0  0  0
   -1.1971    0.7118    4.4750 C   0  0  0  0  0  0  0  0  0  0  0  0
   -0.3779    1.4272    4.5748 H   0  0  0  0  0  0  0  0  0  0  0  0
   -2.0826    1.1064    4.9754 H   0  0  0  0  0  0  0  0  0  0  0  0
   -0.8992   -0.2240    4.9525 H   0  0  0  0  0  0  0  0  0  0  0  0
  5  6  2  0  0  0  0
  5  7  1  0  0  0  0
  2  3  1  0  0  0  0
  2  4  1  0  0  0  0
  2  5  1  0  0  0  0
  1  2  1  0  0  0  0
 26 27  2  0  0  0  0
 26 28  1  0  0  0  0
 23 24  1  0  0  0  0
 23 25  1  0  0  0  0
 20 21  1  0  0  0  0
 20 22  1  0  0  0  0
 20 23  1  0  0  0  0
 17 18  1  0  0  0  0
 17 19  1  0  0  0  0
 17 20  1  0  0  0  0
 14 15  1  0  0  0  0
 14 16  1  0  0  0  0
 14 17  1  0  0  0  0
 11 12  1  0  0  0  0
 11 13  1  0  0  0  0
 11 14  1  0  0  0  0
  9 10  1  0  0  0  0
  9 11  1  0  0  0  0
  9 26  1  0  0  0  0
  7  8  1  0  0  0  0
  7  9  1  0  0  0  0
 30 31  1  0  0  0  0
 30 32  1  0  0  0  0
 30 33  1  0  0  0  0
 28 29  1  0  0  0  0
 28 30  1  0  0  0  0
M  END
$$$$
default_name
  -OEChem-02102213163D

 33 32  0     1  0  0  0  0  0999 V2000
   -3.8420   -3.6918    1.5562 H   0  0  0  0  0  0  0  0  0  0  0  0
   -3.8430   -2.7008    1.1032 C   0  0  0  0  0  0  0  0  0  0  0  0
   -4.5510   -2.0608    1.6242 H   0  0  0  0  0  0  0  0  0  0  0  0
   -4.1140   -2.7798    0.0522 H   0  0  0  0  0  0  0  0  0  0  0  0
   -2.4570   -2.1098    1.2172 C   0  0  0  0  0  0  0  0  0  0  0  0
   -1.5600   -2.7438    1.7572 O   0  0  0  0  0  0  0  0  0  0  0  0
   -2.2870   -0.8898    0.7102 N   0  0  0  0  0  0  0  0  0  0  0  0
   -3.0820   -0.4218    0.2992 H   0  0  0  0  0  0  0  0  0  0  0  0
   -1.0240   -0.1468    0.7262 C   0  0  1  0  0  0  0  0  0  0  0  0
   -0.2680   -0.7367    0.2062 H   0  0  0  0  0  0  0  0  0  0  0  0
   -1.2212    1.1806   -0.0314 C   0  0  0  0  0  0  0  0  0  0  0  0
   -0.7646    1.9837    0.5508 H   0  0  0  0  0  0  0  0  0  0  0  0
   -0.7103    1.1248   -0.9937 H   0  0  0  0  0  0  0  0  0  0  0  0
   -2.6984    1.5356   -0.2620 C   0  0  0  0  0  0  0  0  0  0  0  0
   -3.2061    1.6310    0.6982 H   0  0  0  0  0  0  0  0  0  0  0  0
   -2.7602    2.4862   -0.7949 H   0  0  0  0  0  0  0  0  0  0  0  0
   -3.4002    0.4496   -1.0853 C   0  0  0  0  0  0  0  0  0  0  0  0
   -2.8984    0.3369   -2.0468 H   0  0  0  0  0  0  0  0  0  0  0  0
   -3.3620   -0.4972   -0.5458 H   0  0  0  0  0  0  0  0  0  0  0  0
   -4.8584    0.8387   -1.3206 C   0  0  0  0  0  0  0  0  0  0  0  0
   -5.3664    0.9338   -0.3623 H   0  0  0  0  0  0  0  0  0  0  0  0
   -4.8987    1.7928   -1.8436 H   0  0  0  0  0  0  0  0  0  0  0  0
   -5.5549   -0.1699   -2.1274 N   0  0  0  0  0  0  0  0  0  0  0  0
   -6.5163    0.1119   -2.2511 H   0  0  0  0  0  0  0  0  0  0  0  0
   -5.1069   -0.2392   -3.0301 H   0  0  0  0  0  0  0  0  0  0  0  0
   -0.5564    0.0727    2.1744 C   0  0  0  0  0  0  0  0  0  0  0  0
    0.6169   -0.1288    2.4805 O   0  0  0  0  0  0  0  0  0  0  0  0
   -1.4759    0.4743    3.0595 N   0  0  0  0  0  0  0  0  0  0  0  0
   -2.4132    0.6318    2.7275 H   0  0  0  0  0  0  0  0  0  0  0  0
   -1.1971    0.7118    4.4750 C   0  0  0  0  0  0  0  0  0  0  0  0
   -0.3779    1.4272    4.5748 H   0  0  0  0  0  0  0  0  0  0  0  0
   -2.0826    1.1064    4.9754 H   0  0  0  0  0  0  0  0  0  0  0  0
   -0.8992   -0.2240    4.9525 H   0  0  0  0  0  0  0  0  0  0  0  0
  5  6  2  0  0  0  0
  5  7  1  0  0  0  0
  2  3  1  0  0  0  0
  2  4  1  0  0  0  0
  2  5  1  0  0  0  0
  1  2  1  0  0  0  0
 26 27  2  0  0  0  0
 26 28  1  0  0  0  0
 23 24  1  0  0  0  0
 23 25  1  0  0  0  0
 20 21  1  0  0  0  0
 20 22  1  0  0  0  0
 20 23  1  0  0  0  0
 17 18  1  0  0  0  0
 17 19  1  0  0  0  0
 17 20  1  0  0  0  0
 14 15  1  0  0  0  0
 14 16  1  0  0  0  0
 14 17  1  0  0  0  0
 11 12  1  0  0  0  0
 11 13  1  0  0  0  0
 11 14  1  0  0  0  0
  9 10  1  0  0  0  0
  9 11  1  0  0  0  0
  9 26  1  0  0  0  0
  7  8  1  0  0  0  0
  7  9  1  0  0  0  0
 30 31  1  0  0  0  0
 30 32  1  0  0  0  0
 30 33  1  0  0  0  0
 28 29  1  0  0  0  0
 28 30  1  0  0  0  0
M  END
$$$$
default_name
  -OEChem-02102213163D

 33 32  0     1  0  0  0  0  0999 V2000
   -3.8420   -3.6918    1.5562 H   0  0  0  0  0  0  0  0  0  0  0  0
   -3.8430   -2.7008    1.1032 C   0  0  0  0  0  0  0  0  0  0  0  0
   -4.5510   -2.0608    1.6242 H   0  0  0  0  0  0  0  0  0  0  0  0
   -4.1140   -2.7798    0.0522 H   0  0  0  0  0  0  0  0  0  0  0  0
   -2.4570   -2.1098    1.2172 C   0  0  0  0  0  0  0  0  0  0  0  0
   -1.5600   -2.7438    1.7572 O   0  0  0  0  0  0  0  0  0  0  0  0
   -2.2870   -0.8898    0.7102 N   0  0  0  0  0  0  0  0  0  0  0  0
   -3.0820   -0.4218    0.2992 H   0  0  0  0  0  0  0  0  0  0  0  0
   -1.0240   -0.1468    0.7262 C   0  0  1  0  0  0  0  0  0  0  0  0
   -0.2680   -0.7367    0.2062 H   0  0  0  0  0  0  0  0  0  0  0  0
   -1.2212    1.1806   -0.0314 C   0  0  0  0  0  0  0  0  0  0  0  0
   -0.7646    1.9837    0.5508 H   0  0  0  0  0  0  0  0  0  0  0  0
   -0.7103    1.1248   -0.9937 H   0  0  0  0  0  0  0  0  0  0  0  0
   -2.6984    1.5356   -0.2620 C   0  0  0  0  0  0  0  0  0  0  0  0
   -3.1397    1.8892    0.6703 H   0  0  0  0  0  0  0  0  0  0  0  0
   -2.7648    2.3264   -1.0114 H   0  0  0  0  0  0  0  0  0  0  0  0
   -3.4857    0.3134   -0.7479 C   0  0  0  0  0  0  0  0  0  0  0  0
   -3.0508   -0.0571   -1.6767 H   0  0  0  0  0  0  0  0  0  0  0  0
   -3.4423   -0.4711    0.0082 H   0  0  0  0  0  0  0  0  0  0  0  0
   -4.9431    0.6993   -0.9926 C   0  0  0  0  0  0  0  0  0  0  0  0
   -5.3848    1.0521   -0.0621 H   0  0  0  0  0  0  0  0  0  0  0  0
   -4.9873    1.4950   -1.7345 H   0  0  0  0  0  0  0  0  0  0  0  0
   -5.7216   -0.4442   -1.4822 N   0  0  0  0  0  0  0  0  0  0  0  0
   -6.6797   -0.1576   -1.6194 H   0  0  0  0  0  0  0  0  0  0  0  0
   -5.3353   -0.7557   -2.3620 H   0  0  0  0  0  0  0  0  0  0  0  0
   -0.5564    0.0727    2.1744 C   0  0  0  0  0  0  0  0  0  0  0  0
    0.6169   -0.1288    2.4805 O   0  0  0  0  0  0  0  0  0  0  0  0
   -1.4759    0.4743    3.0595 N   0  0  0  0  0  0  0  0  0  0  0  0
   -2.4132    0.6318    2.7275 H   0  0  0  0  0  0  0  0  0  0  0  0
   -1.1971    0.7118    4.4750 C   0  0  0  0  0  0  0  0  0  0  0  0
   -0.3779    1.4272    4.5748 H   0  0  0  0  0  0  0  0  0  0  0  0
   -2.0826    1.1064    4.9754 H   0  0  0  0  0  0  0  0  0  0  0  0
   -0.8992   -0.2240    4.9525 H   0  0  0  0  0  0  0  0  0  0  0  0
  5  6  2  0  0  0  0
  5  7  1  0  0  0  0
  2  3  1  0  0  0  0
  2  4  1  0  0  0  0
  2  5  1  0  0  0  0
  1  2  1  0  0  0  0
 26 27  2  0  0  0  0
 26 28  1  0  0  0  0
 23 24  1  0  0  0  0
 23 25  1  0  0  0  0
 20 21  1  0  0  0  0
 20 22  1  0  0  0  0
 20 23  1  0  0  0  0
 17 18  1  0  0  0  0
 17 19  1  0  0  0  0
 17 20  1  0  0  0  0
 14 15  1  0  0  0  0
 14 16  1  0  0  0  0
 14 17  1  0  0  0  0
 11 12  1  0  0  0  0
 11 13  1  0  0  0  0
 11 14  1  0  0  0  0
  9 10  1  0  0  0  0
  9 11  1  0  0  0  0
  9 26  1  0  0  0  0
  7  8  1  0  0  0  0
  7  9  1  0  0  0  0
 30 31  1  0  0  0  0
 30 32  1  0  0  0  0
 30 33  1  0  0  0  0
 28 29  1  0  0  0  0
 28 30  1  0  0  0  0
M  END
$$$$
default_name
  -OEChem-02102213163D

 33 32  0     1  0  0  0  0  0999 V2000
   -3.8420   -3.6918    1.5562 H   0  0  0  0  0  0  0  0  0  0  0  0
   -3.8430   -2.7008    1.1032 C   0  0  0  0  0  0  0  0  0  0  0  0
   -4.5510   -2.0608    1.6242 H   0  0  0  0  0  0  0  0  0  0  0  0
   -4.1140   -2.7798    0.0522 H   0  0  0  0  0  0  0  0  0  0  0  0
   -2.4570   -2.1098    1.2172 C   0  0  0  0  0  0  0  0  0  0  0  0
   -1.5600   -2.7438    1.7572 O   0  0  0  0  0  0  0  0  0  0  0  0
   -2.2870   -0.8898    0.7102 N   0  0  0  0  0  0  0  0  0  0  0  0
   -3.0820   -0.4218    0.2992 H   0  0  0  0  0  0  0  0  0  0  0  0
   -1.0240   -0.1468    0.7262 C   0  0  1  0  0  0  0  0  0  0  0  0
   -0.2680   -0.7367    0.2062 H   0  0  0  0  0  0  0  0  0  0  0  0
   -1.2212    1.1806   -0.0314 C   0  0  0  0  0  0  0  0  0  0  0  0
   -0.7646    1.9837    0.5508 H   0  0  0  0  0  0  0  0  0  0  0  0
   -0.7103    1.1248   -0.9937 H   0  0  0  0  0  0  0  0  0  0  0  0
   -2.6984    1.5356   -0.2620 C   0  0  0  0  0  0  0  0  0  0  0  0
   -3.0672    2.1291    0.5750 H   0  0  0  0  0  0  0  0  0  0  0  0
   -2.7884    2.1184   -1.1805 H   0  0  0  0  0  0  0  0  0  0  0  0
   -3.5533    0.2690   -0.3829 C   0  0  0  0  0  0  0  0  0  0  0  0
   -3.1913   -0.3397   -1.2121 H   0  0  0  0  0  0  0  0  0  0  0  0
   -3.4856   -0.3049    0.5417 H   0  0  0  0  0  0  0  0  0  0  0  0
   -5.0108    0.6495   -0.6360 C   0  0  0  0  0  0  0  0  0  0  0  0
   -5.3801    1.2419    0.1995 H   0  0  0  0  0  0  0  0  0  0  0  0
   -5.0779    1.2379   -1.5497 H   0  0  0  0  0  0  0  0  0  0  0  0
   -5.8546   -0.5423   -0.7807 N   0  0  0  0  0  0  0  0  0  0  0  0
   -6.8102   -0.2544   -0.9324 H   0  0  0  0  0  0  0  0  0  0  0  0
   -5.5360   -1.0794   -1.5746 H   0  0  0  0  0  0  0  0  0  0  0  0
   -0.5564    0.0727    2.1744 C   0  0  0  0  0  0  0  0  0  0  0  0
    0.6169   -0.1288    2.4805 O   0  0  0  0  0  0  0  0  0  0  0  0
   -1.4759    0.4743    3.0595 N   0  0  0  0  0  0  0  0  0  0  0  0
   -2.4132    0.6318    2.7275 H   0  0  0  0  0  0  0  0  0  0  0  0
   -1.1971    0.7118    4.4750 C   0  0  0  0  0  0  0  0  0  0  0  0
   -0.3779    1.4272    4.5748 H   0  0  0  0  0  0  0  0  0  0  0  0
   -2.0826    1.1064    4.9754 H   0  0  0  0  0  0  0  0  0  0  0  0
   -0.8992   -0.2240    4.9525 H   0  0  0  0  0  0  0  0  0  0  0  0
  5  6  2  0  0  0  0
  5  7  1  0  0  0  0
  2  3  1  0  0  0  0
  2  4  1  0  0  0  0
  2  5  1  0  0  0  0
  1  2  1  0  0  0  0
 26 27  2  0  0  0  0
 26 28  1  0  0  0  0
 23 24  1  0  0  0  0
 23 25  1  0  0  0  0
 20 21  1  0  0  0  0
 20 22  1  0  0  0  0
 20 23  1  0  0  0  0
 17 18  1  0  0  0  0
 17 19  1  0  0  0  0
 17 20  1  0  0  0  0
 14 15  1  0  0  0  0
 14 16  1  0  0  0  0
 14 17  1  0  0  0  0
 11 12  1  0  0  0  0
 11 13  1  0  0  0  0
 11 14  1  0  0  0  0
  9 10  1  0  0  0  0
  9 11  1  0  0  0  0
  9 26  1  0  0  0  0
  7  8  1  0  0  0  0
  7  9  1  0  0  0  0
 30 31  1  0  0  0  0
 30 32  1  0  0  0  0
 30 33  1  0  0  0  0
 28 29  1  0  0  0  0
 28 30  1  0  0  0  0
M  END
$$$$
default_name
  -OEChem-02102213163D

 33 32  0     1  0  0  0  0  0999 V2000
   -3.8420   -3.6918    1.5562 H   0  0  0  0  0  0  0  0  0  0  0  0
   -3.8430   -2.7008    1.1032 C   0  0  0  0  0  0  0  0  0  0  0  0
   -4.5510   -2.0608    1.6242 H   0  0  0  0  0  0  0  0  0  0  0  0
   -4.1140   -2.7798    0.0522 H   0  0  0  0  0  0  0  0  0  0  0  0
   -2.4570   -2.1098    1.2172 C   0  0  0  0  0  0  0  0  0  0  0  0
   -1.5600   -2.7438    1.7572 O   0  0  0  0  0  0  0  0  0  0  0  0
   -2.2870   -0.8898    0.7102 N   0  0  0  0  0  0  0  0  0  0  0  0
   -3.0820   -0.4218    0.2992 H   0  0  0  0  0  0  0  0  0  0  0  0
   -1.0240   -0.1468    0.7262 C   0  0  1  0  0  0  0  0  0  0  0  0
   -0.2680   -0.7367    0.2062 H   0  0  0  0  0  0  0  0  0  0  0  0
   -1.2212    1.1806   -0.0314 C   0  0  0  0  0  0  0  0  0  0  0  0
   -0.7646    1.9837    0.5508 H   0  0  0  0  0  0  0  0  0  0  0  0
   -0.7103    1.1248   -0.9937 H   0  0  0  0  0  0  0  0  0  0  0  0
   -2.6984    1.5356   -0.2620 C   0  0  0  0  0  0  0  0  0  0  0  0
   -2.9935    2.3344    0.4190 H   0  0  0  0  0  0  0  0  0  0  0  0
   -2.8294    1.8763   -1.2907 H   0  0  0  0  0  0  0  0  0  0  0  0
   -3.5985    0.3196   -0.0153 C   0  0  0  0  0  0  0  0  0  0  0  0
   -3.3101   -0.4916   -0.6846 H   0  0  0  0  0  0  0  0  0  0  0  0
   -3.4891   -0.0100    1.0183 H   0  0  0  0  0  0  0  0  0  0  0  0
   -5.0567    0.6928   -0.2752 C   0  0  0  0  0  0  0  0  0  0  0  0
   -5.3525    1.4901    0.4048 H   0  0  0  0  0  0  0  0  0  0  0  0
   -5.1644    1.0390   -1.3018 H   0  0  0  0  0  0  0  0  0  0  0  0
   -5.9450   -0.4572   -0.0708 N   0  0  0  0  0  0  0  0  0  0  0  0
   -6.8989   -0.1719   -0.2370 H   0  0  0  0  0  0  0  0  0  0  0  0
   -5.6954   -1.1885   -0.7214 H   0  0  0  0  0  0  0  0  0  0  0  0
   -0.5564    0.0727    2.1744 C   0  0  0  0  0  0  0  0  0  0  0  0
    0.6169   -0.1288    2.4805 O   0  0  0  0  0  0  0  0  0  0  0  0
   -1.4759    0.4743    3.0595 N   0  0  0  0  0  0  0  0  0  0  0  0
   -2.4132    0.6318    2.7275 H   0  0  0  0  0  0  0  0  0  0  0  0
   -1.1971    0.7118    4.4750 C   0  0  0  0  0  0  0  0  0  0  0  0
   -0.3779    1.4272    4.5748 H   0  0  0  0  0  0  0  0  0  0  0  0
   -2.0826    1.1064    4.9754 H   0  0  0  0  0  0  0  0  0  0  0  0
   -0.8992   -0.2240    4.9525 H   0  0  0  0  0  0  0  0  0  0  0  0
  5  6  2  0  0  0  0
  5  7  1  0  0  0  0
  2  3  1  0  0  0  0
  2  4  1  0  0  0  0
  2  5  1  0  0  0  0
  1  2  1  0  0  0  0
 26 27  2  0  0  0  0
 26 28  1  0  0  0  0
 23 24  1  0  0  0  0
 23 25  1  0  0  0  0
 20 21  1  0  0  0  0
 20 22  1  0  0  0  0
 20 23  1  0  0  0  0
 17 18  1  0  0  0  0
 17 19  1  0  0  0  0
 17 20  1  0  0  0  0
 14 15  1  0  0  0  0
 14 16  1  0  0  0  0
 14 17  1  0  0  0  0
 11 12  1  0  0  0  0
 11 13  1  0  0  0  0
 11 14  1  0  0  0  0
  9 10  1  0  0  0  0
  9 11  1  0  0  0  0
  9 26  1  0  0  0  0
  7  8  1  0  0  0  0
  7  9  1  0  0  0  0
 30 31  1  0  0  0  0
 30 32  1  0  0  0  0
 30 33  1  0  0  0  0
 28 29  1  0  0  0  0
 28 30  1  0  0  0  0
M  END
$$$$
default_name
  -OEChem-02102213163D

 33 32  0     1  0  0  0  0  0999 V2000
   -3.8420   -3.6918    1.5562 H   0  0  0  0  0  0  0  0  0  0  0  0
   -3.8430   -2.7008    1.1032 C   0  0  0  0  0  0  0  0  0  0  0  0
   -4.5510   -2.0608    1.6242 H   0  0  0  0  0  0  0  0  0  0  0  0
   -4.1140   -2.7798    0.0522 H   0  0  0  0  0  0  0  0  0  0  0  0
   -2.4570   -2.1098    1.2172 C   0  0  0  0  0  0  0  0  0  0  0  0
   -1.5600   -2.7438    1.7572 O   0  0  0  0  0  0  0  0  0  0  0  0
   -2.2870   -0.8898    0.7102 N   0  0  0  0  0  0  0  0  0  0  0  0
   -3.0820   -0.4218    0.2992 H   0  0  0  0  0  0  0  0  0  0  0  0
   -1.0240   -0.1468    0.7262 C   0  0  1  0  0  0  0  0  0  0  0  0
   -0.2680   -0.7367    0.2062 H   0  0  0  0  0  0  0  0  0  0  0  0
   -1.2212    1.1806   -0.0314 C   0  0  0  0  0  0  0  0  0  0  0  0
   -0.7646    1.9837    0.5508 H   0  0  0  0  0  0  0  0  0  0  0  0
   -0.7103    1.1248   -0.9937 H   0  0  0  0  0  0  0  0  0  0  0  0
   -2.6984    1.5356   -0.2620 C   0  0  0  0  0  0  0  0  0  0  0  0
   -2.9237    2.4909    0.2128 H   0  0  0  0  0  0  0  0  0  0  0  0
   -2.8849    1.6167   -1.3344 H   0  0  0  0  0  0  0  0  0  0  0  0
   -3.6182    0.4616    0.3298 C   0  0  0  0  0  0  0  0  0  0  0  0
   -3.3993   -0.5025   -0.1302 H   0  0  0  0  0  0  0  0  0  0  0  0
   -3.4525    0.3935    1.4054 H   0  0  0  0  0  0  0  0  0  0  0  0
   -5.0778    0.8261    0.0654 C   0  0  0  0  0  0  0  0  0  0  0  0
   -5.3039    1.7798    0.5396 H   0  0  0  0  0  0  0  0  0  0  0  0
   -5.2408    0.9120   -1.0077 H   0  0  0  0  0  0  0  0  0  0  0  0
   -5.9865   -0.1950    0.5992 N   0  0  0  0  0  0  0  0  0  0  0  0
   -6.9398    0.0843    0.4196 H   0  0  0  0  0  0  0  0  0  0  0  0
   -5.8025   -1.0753    0.1393 H   0  0  0  0  0  0  0  0  0  0  0  0
   -0.5564    0.0727    2.1744 C   0  0  0  0  0  0  0  0  0  0  0  0
    0.6169   -0.1288    2.4805 O   0  0  0  0  0  0  0  0  0  0  0  0
   -1.4759    0.4743    3.0595 N   0  0  0  0  0  0  0  0  0  0  0  0
   -2.4132    0.6318    2.7275 H   0  0  0  0  0  0  0  0  0  0  0  0
   -1.1971    0.7118    4.4750 C   0  0  0  0  0  0  0  0  0  0  0  0
   -0.3779    1.4272    4.5748 H   0  0  0  0  0  0  0  0  0  0  0  0
   -2.0826    1.1064    4.9754 H   0  0  0  0  0  0  0  0  0  0  0  0
   -0.8992   -0.2240    4.9525 H   0  0  0  0  0  0  0  0  0  0  0  0
  5  6  2  0  0  0  0
  5  7  1  0  0  0  0
  2  3  1  0  0  0  0
  2  4  1  0  0  0  0
  2  5  1  0  0  0  0
  1  2  1  0  0  0  0
 26 27  2  0  0  0  0
 26 28  1  0  0  0  0
 23 24  1  0  0  0  0
 23 25  1  0  0  0  0
 20 21  1  0  0  0  0
 20 22  1  0  0  0  0
 20 23  1  0  0  0  0
 17 18  1  0  0  0  0
 17 19  1  0  0  0  0
 17 20  1  0  0  0  0
 14 15  1  0  0  0  0
 14 16  1  0  0  0  0
 14 17  1  0  0  0  0
 11 12  1  0  0  0  0
 11 13  1  0  0  0  0
 11 14  1  0  0  0  0
  9 10  1  0  0  0  0
  9 11  1  0  0  0  0
  9 26  1  0  0  0  0
  7  8  1  0  0  0  0
  7  9  1  0  0  0  0
 30 31  1  0  0  0  0
 30 32  1  0  0  0  0
 30 33  1  0  0  0  0
 28 29  1  0  0  0  0
 28 30  1  0  0  0  0
M  END
$$$$
default_name
  -OEChem-02102213163D

 33 32  0     1  0  0  0  0  0999 V2000
   -3.8420   -3.6918    1.5562 H   0  0  0  0  0  0  0  0  0  0  0  0
   -3.8430   -2.7008    1.1032 C   0  0  0  0  0  0  0  0  0  0  0  0
   -4.5510   -2.0608    1.6242 H   0  0  0  0  0  0  0  0  0  0  0  0
   -4.1140   -2.7798    0.0522 H   0  0  0  0  0  0  0  0  0  0  0  0
   -2.4570   -2.1098    1.2172 C   0  0  0  0  0  0  0  0  0  0  0  0
   -1.5600   -2.7438    1.7572 O   0  0  0  0  0  0  0  0  0  0  0  0
   -2.2870   -0.8898    0.7102 N   0  0  0  0  0  0  0  0  0  0  0  0
   -3.0820   -0.4218    0.2992 H   0  0  0  0  0  0  0  0  0  0  0  0
   -1.0240   -0.1468    0.7262 C   0  0  1  0  0  0  0  0  0  0  0  0
   -0.2680   -0.7367    0.2062 H   0  0  0  0  0  0  0  0  0  0  0  0
   -1.2212    1.1806   -0.0314 C   0  0  0  0  0  0  0  0  0  0  0  0
   -0.7646    1.9837    0.5508 H   0  0  0  0  0  0  0  0  0  0  0  0
   -0.7103    1.1248   -0.9937 H   0  0  0  0  0  0  0  0  0  0  0  0
   -2.6984    1.5356   -0.2620 C   0  0  0  0  0  0  0  0  0  0  0  0
   -2.8625    2.5882   -0.0294 H   0  0  0  0  0  0  0  0  0  0  0  0
   -2.9513    1.3572   -1.3087 H   0  0  0  0  0  0  0  0  0  0  0  0
   -3.6111    0.6855    0.6291 C   0  0  0  0  0  0  0  0  0  0  0  0
   -3.4526   -0.3715    0.4134 H   0  0  0  0  0  0  0  0  0  0  0  0
   -3.3784    0.8782    1.6767 H   0  0  0  0  0  0  0  0  0  0  0  0
   -5.0727    1.0405    0.3624 C   0  0  0  0  0  0  0  0  0  0  0  0
   -5.2376    2.0913    0.5948 H   0  0  0  0  0  0  0  0  0  0  0  0
   -5.3020    0.8654   -0.6874 H   0  0  0  0  0  0  0  0  0  0  0  0
   -5.9764    0.2267    1.1836 N   0  0  0  0  0  0  0  0  0  0  0  0
   -6.9301    0.4967    0.9924 H   0  0  0  0  0  0  0  0  0  0  0  0
   -5.8502   -0.7477    0.9490 H   0  0  0  0  0  0  0  0  0  0  0  0
   -0.5564    0.0727    2.1744 C   0  0  0  0  0  0  0  0  0  0  0  0
    0.6169   -0.1288    2.4805 O   0  0  0  0  0  0  0  0  0  0  0  0
   -1.4759    0.4743    3.0595 N   0  0  0  0  0  0  0  0  0  0  0  0
   -2.4132    0.6318    2.7275 H   0  0  0  0  0  0  0  0  0  0  0  0
   -1.1971    0.7118    4.4750 C   0  0  0  0  0  0  0  0  0  0  0  0
   -0.3779    1.4272    4.5748 H   0  0  0  0  0  0  0  0  0  0  0  0
   -2.0826    1.1064    4.9754 H   0  0  0  0  0  0  0  0  0  0  0  0
   -0.8992   -0.2240    4.9525 H   0  0  0  0  0  0  0  0  0  0  0  0
  5  6  2  0  0  0  0
  5  7  1  0  0  0  0
  2  3  1  0  0  0  0
  2  4  1  0  0  0  0
  2  5  1  0  0  0  0
  1  2  1  0  0  0  0
 26 27  2  0  0  0  0
 26 28  1  0  0  0  0
 23 24  1  0  0  0  0
 23 25  1  0  0  0  0
 20 21  1  0  0  0  0
 20 22  1  0  0  0  0
 20 23  1  0  0  0  0
 17 18  1  0  0  0  0
 17 19  1  0  0  0  0
 17 20  1  0  0  0  0
 14 15  1  0  0  0  0
 14 16  1  0  0  0  0
 14 17  1  0  0  0  0
 11 12  1  0  0  0  0
 11 13  1  0  0  0  0
 11 14  1  0  0  0  0
  9 10  1  0  0  0  0
  9 11  1  0  0  0  0
  9 26  1  0  0  0  0
  7  8  1  0  0  0  0
  7  9  1  0  0  0  0
 30 31  1  0  0  0  0
 30 32  1  0  0  0  0
 30 33  1  0  0  0  0
 28 29  1  0  0  0  0
 28 30  1  0  0  0  0
M  END
$$$$
default_name
  -OEChem-02102213163D

 33 32  0     1  0  0  0  0  0999 V2000
   -3.8420   -3.6918    1.5562 H   0  0  0  0  0  0  0  0  0  0  0  0
   -3.8430   -2.7008    1.1032 C   0  0  0  0  0  0  0  0  0  0  0  0
   -4.5510   -2.0608    1.6242 H   0  0  0  0  0  0  0  0  0  0  0  0
   -4.1140   -2.7798    0.0522 H   0  0  0  0  0  0  0  0  0  0  0  0
   -2.4570   -2.1098    1.2172 C   0  0  0  0  0  0  0  0  0  0  0  0
   -1.5600   -2.7438    1.7572 O   0  0  0  0  0  0  0  0  0  0  0  0
   -2.2870   -0.8898    0.7102 N   0  0  0  0  0  0  0  0  0  0  0  0
   -3.0820   -0.4218    0.2992 H   0  0  0  0  0  0  0  0  0  0  0  0
   -1.0240   -0.1468    0.7262 C   0  0  1  0  0  0  0  0  0  0  0  0
   -0.2680   -0.7367    0.2062 H   0  0  0  0  0  0  0  0  0  0  0  0
   -1.2212    1.1806   -0.0314 C   0  0  0  0  0  0  0  0  0  0  0  0
   -0.7646    1.9837    0.5508 H   0  0  0  0  0  0  0  0  0  0  0  0
   -0.7103    1.1248   -0.9937 H   0  0  0  0  0  0  0  0  0  0  0  0
   -2.6984    1.5356   -0.2620 C   0  0  0  0  0  0  0  0  0  0  0  0
   -2.8141    2.6194   -0.2913 H   0  0  0  0  0  0  0  0  0  0  0  0
   -3.0240    1.1155   -1.2154 H   0  0  0  0  0  0  0  0  0  0  0  0
   -3.5777    0.9759    0.8620 C   0  0  0  0  0  0  0  0  0  0  0  0
   -3.4666   -0.1078    0.9091 H   0  0  0  0  0  0  0  0  0  0  0  0
   -3.2718    1.4111    1.8138 H   0  0  0  0  0  0  0  0  0  0  0  0
   -5.0416    1.3212    0.5957 C   0  0  0  0  0  0  0  0  0  0  0  0
   -5.1583    2.4034    0.5667 H   0  0  0  0  0  0  0  0  0  0  0  0
   -5.3438    0.9025   -0.3629 H   0  0  0  0  0  0  0  0  0  0  0  0
   -5.9153    0.7790    1.6425 N   0  0  0  0  0  0  0  0  0  0  0  0
   -6.8705    1.0372    1.4426 H   0  0  0  0  0  0  0  0  0  0  0  0
   -5.8351   -0.2279    1.6524 H   0  0  0  0  0  0  0  0  0  0  0  0
   -0.5564    0.0727    2.1744 C   0  0  0  0  0  0  0  0  0  0  0  0
    0.6169   -0.1288    2.4805 O   0  0  0  0  0  0  0  0  0  0  0  0
   -1.4759    0.4743    3.0595 N   0  0  0  0  0  0  0  0  0  0  0  0
   -2.4132    0.6318    2.7275 H   0  0  0  0  0  0  0  0  0  0  0  0
   -1.1971    0.7118    4.4750 C   0  0  0  0  0  0  0  0  0  0  0  0
   -0.3779    1.4272    4.5748 H   0  0  0  0  0  0  0  0  0  0  0  0
   -2.0826    1.1064    4.9754 H   0  0  0  0  0  0  0  0  0  0  0  0
   -0.8992   -0.2240    4.9525 H   0  0  0  0  0  0  0  0  0  0  0  0
  5  6  2  0  0  0  0
  5  7  1  0  0  0  0
  2  3  1  0  0  0  0
  2  4  1  0  0  0  0
  2  5  1  0  0  0  0
  1  2  1  0  0  0  0
 26 27  2  0  0  0  0
 26 28  1  0  0  0  0
 23 24  1  0  0  0  0
 23 25  1  0  0  0  0
 20 21  1  0  0  0  0
 20 22  1  0  0  0  0
 20 23  1  0  0  0  0
 17 18  1  0  0  0  0
 17 19  1  0  0  0  0
 17 20  1  0  0  0  0
 14 15  1  0  0  0  0
 14 16  1  0  0  0  0
 14 17  1  0  0  0  0
 11 12  1  0  0  0  0
 11 13  1  0  0  0  0
 11 14  1  0  0  0  0
  9 10  1  0  0  0  0
  9 11  1  0  0  0  0
  9 26  1  0  0  0  0
  7  8  1  0  0  0  0
  7  9  1  0  0  0  0
 30 31  1  0  0  0  0
 30 32  1  0  0  0  0
 30 33  1  0  0  0  0
 28 29  1  0  0  0  0
 28 30  1  0  0  0  0
M  END
$$$$
default_name
  -OEChem-02102213163D

 33 32  0     1  0  0  0  0  0999 V2000
   -3.8420   -3.6918    1.5562 H   0  0  0  0  0  0  0  0  0  0  0  0
   -3.8430   -2.7008    1.1032 C   0  0  0  0  0  0  0  0  0  0  0  0
   -4.5510   -2.0608    1.6242 H   0  0  0  0  0  0  0  0  0  0  0  0
   -4.1140   -2.7798    0.0522 H   0  0  0  0  0  0  0  0  0  0  0  0
   -2.4570   -2.1098    1.2172 C   0  0  0  0  0  0  0  0  0  0  0  0
   -1.5600   -2.7438    1.7572 O   0  0  0  0  0  0  0  0  0  0  0  0
   -2.2870   -0.8898    0.7102 N   0  0  0  0  0  0  0  0  0  0  0  0
   -3.0820   -0.4218    0.2992 H   0  0  0  0  0  0  0  0  0  0  0  0
   -1.0240   -0.1468    0.7262 C   0  0  1  0  0  0  0  0  0  0  0  0
   -0.2680   -0.7367    0.2062 H   0  0  0  0  0  0  0  0  0  0  0  0
   -1.2212    1.1806   -0.0314 C   0  0  0  0  0  0  0  0  0  0  0  0
   -0.7646    1.9837    0.5508 H   0  0  0  0  0  0  0  0  0  0  0  0
   -0.7103    1.1248   -0.9937 H   0  0  0  0  0  0  0  0  0  0  0  0
   -2.6984    1.5356   -0.2620 C   0  0  0  0  0  0  0  0  0  0  0  0
   -2.7819    2.5826   -0.5549 H   0  0  0  0  0  0  0  0  0  0  0  0
   -3.0979    0.9081   -1.0607 H   0  0  0  0  0  0  0  0  0  0  0  0
   -3.5202    1.3131    1.0127 C   0  0  0  0  0  0  0  0  0  0  0  0
   -3.4403    0.2708    1.3230 H   0  0  0  0  0  0  0  0  0  0  0  0
   -3.1399    1.9557    1.8073 H   0  0  0  0  0  0  0  0  0  0  0  0
   -4.9867    1.6493    0.7493 C   0  0  0  0  0  0  0  0  0  0  0  0
   -5.0711    2.6947    0.4572 H   0  0  0  0  0  0  0  0  0  0  0  0
   -5.3632    1.0207   -0.0561 H   0  0  0  0  0  0  0  0  0  0  0  0
   -5.8074    1.4242    1.9448 N   0  0  0  0  0  0  0  0  0  0  0  0
   -6.7650    1.6690    1.7393 H   0  0  0  0  0  0  0  0  0  0  0  0
   -5.7582    0.4486    2.2016 H   0  0  0  0  0  0  0  0  0  0  0  0
   -0.5564    0.0727    2.1744 C   0  0  0  0  0  0  0  0  0  0  0  0
    0.6169   -0.1288    2.4805 O   0  0  0  0  0  0  0  0  0  0  0  0
   -1.4759    0.4743    3.0595 N   0  0  0  0  0  0  0  0  0  0  0  0
   -2.4132    0.6318    2.7275 H   0  0  0  0  0  0  0  0  0  0  0  0
   -1.1971    0.7118    4.4750 C   0  0  0  0  0  0  0  0  0  0  0  0
   -0.3779    1.4272    4.5748 H   0  0  0  0  0  0  0  0  0  0  0  0
   -2.0826    1.1064    4.9754 H   0  0  0  0  0  0  0  0  0  0  0  0
   -0.8992   -0.2240    4.9525 H   0  0  0  0  0  0  0  0  0  0  0  0
  5  6  2  0  0  0  0
  5  7  1  0  0  0  0
  2  3  1  0  0  0  0
  2  4  1  0  0  0  0
  2  5  1  0  0  0  0
  1  2  1  0  0  0  0
 26 27  2  0  0  0  0
 26 28  1  0  0  0  0
 23 24  1  0  0  0  0
 23 25  1  0  0  0  0
 20 21  1  0  0  0  0
 20 22  1  0  0  0  0
 20 23  1  0  0  0  0
 17 18  1  0  0  0  0
 17 19  1  0  0  0  0
 17 20  1  0  0  0  0
 14 15  1  0  0  0  0
 14 16  1  0  0  0  0
 14 17  1  0  0  0  0
 11 12  1  0  0  0  0
 11 13  1  0  0  0  0
 11 14  1  0  0  0  0
  9 10  1  0  0  0  0
  9 11  1  0  0  0  0
  9 26  1  0  0  0  0
  7  8  1  0  0  0  0
  7  9  1  0  0  0  0
 30 31  1  0  0  0  0
 30 32  1  0  0  0  0
 30 33  1  0  0  0  0
 28 29  1  0  0  0  0
 28 30  1  0  0  0  0
M  END
$$$$
default_name
  -OEChem-02102213163D

 33 32  0     1  0  0  0  0  0999 V2000
   -3.8420   -3.6918    1.5562 H   0  0  0  0  0  0  0  0  0  0  0  0
   -3.8430   -2.7008    1.1032 C   0  0  0  0  0  0  0  0  0  0  0  0
   -4.5510   -2.0608    1.6242 H   0  0  0  0  0  0  0  0  0  0  0  0
   -4.1140   -2.7798    0.0522 H   0  0  0  0  0  0  0  0  0  0  0  0
   -2.4570   -2.1098    1.2172 C   0  0  0  0  0  0  0  0  0  0  0  0
   -1.5600   -2.7438    1.7572 O   0  0  0  0  0  0  0  0  0  0  0  0
   -2.2870   -0.8898    0.7102 N   0  0  0  0  0  0  0  0  0  0  0  0
   -3.0820   -0.4218    0.2992 H   0  0  0  0  0  0  0  0  0  0  0  0
   -1.0240   -0.1468    0.7262 C   0  0  1  0  0  0  0  0  0  0  0  0
   -0.2680   -0.7367    0.2062 H   0  0  0  0  0  0  0  0  0  0  0  0
   -1.2212    1.1806   -0.0314 C   0  0  0  0  0  0  0  0  0  0  0  0
   -0.7646    1.9837    0.5508 H   0  0  0  0  0  0  0  0  0  0  0  0
   -0.7103    1.1248   -0.9937 H   0  0  0  0  0  0  0  0  0  0  0  0
   -2.6984    1.5356   -0.2620 C   0  0  0  0  0  0  0  0  0  0  0  0
   -2.7679    2.4801   -0.8023 H   0  0  0  0  0  0  0  0  0  0  0  0
   -3.1682    0.7490   -0.8553 H   0  0  0  0  0  0  0  0  0  0  0  0
   -3.4426    1.6741    1.0710 C   0  0  0  0  0  0  0  0  0  0  0  0
   -3.3753    0.7386    1.6271 H   0  0  0  0  0  0  0  0  0  0  0  0
   -2.9917    2.4751    1.6576 H   0  0  0  0  0  0  0  0  0  0  0  0
   -4.9118    2.0022    0.8128 C   0  0  0  0  0  0  0  0  0  0  0  0
   -4.9822    2.9455    0.2736 H   0  0  0  0  0  0  0  0  0  0  0  0
   -5.3591    1.2120    0.2120 H   0  0  0  0  0  0  0  0  0  0  0  0
   -5.6601    2.1185    2.0697 N   0  0  0  0  0  0  0  0  0  0  0  0
   -6.6208    2.3489    1.8625 H   0  0  0  0  0  0  0  0  0  0  0  0
   -5.6249    1.2357    2.5592 H   0  0  0  0  0  0  0  0  0  0  0  0
   -0.5564    0.0727    2.1744 C   0  0  0  0  0  0  0  0  0  0  0  0
    0.6169   -0.1288    2.4805 O   0  0  0  0  0  0  0  0  0  0  0  0
   -1.4759    0.4743    3.0595 N   0  0  0  0  0  0  0  0  0  0  0  0
   -2.4132    0.6318    2.7275 H   0  0  0  0  0  0  0  0  0  0  0  0
   -1.1971    0.7118    4.4750 C   0  0  0  0  0  0  0  0  0  0  0  0
   -0.3779    1.4272    4.5748 H   0  0  0  0  0  0  0  0  0  0  0  0
   -2.0826    1.1064    4.9754 H   0  0  0  0  0  0  0  0  0  0  0  0
   -0.8992   -0.2240    4.9525 H   0  0  0  0  0  0  0  0  0  0  0  0
  5  6  2  0  0  0  0
  5  7  1  0  0  0  0
  2  3  1  0  0  0  0
  2  4  1  0  0  0  0
  2  5  1  0  0  0  0
  1  2  1  0  0  0  0
 26 27  2  0  0  0  0
 26 28  1  0  0  0  0
 23 24  1  0  0  0  0
 23 25  1  0  0  0  0
 20 21  1  0  0  0  0
 20 22  1  0  0  0  0
 20 23  1  0  0  0  0
 17 18  1  0  0  0  0
 17 19  1  0  0  0  0
 17 20  1  0  0  0  0
 14 15  1  0  0  0  0
 14 16  1  0  0  0  0
 14 17  1  0  0  0  0
 11 12  1  0  0  0  0
 11 13  1  0  0  0  0
 11 14  1  0  0  0  0
  9 10  1  0  0  0  0
  9 11  1  0  0  0  0
  9 26  1  0  0  0  0
  7  8  1  0  0  0  0
  7  9  1  0  0  0  0
 30 31  1  0  0  0  0
 30 32  1  0  0  0  0
 30 33  1  0  0  0  0
 28 29  1  0  0  0  0
 28 30  1  0  0  0  0
M  END
$$$$
default_name
  -OEChem-02102213163D

 33 32  0     1  0  0  0  0  0999 V2000
   -3.8420   -3.6918    1.5562 H   0  0  0  0  0  0  0  0  0  0  0  0
   -3.8430   -2.7008    1.1032 C   0  0  0  0  0  0  0  0  0  0  0  0
   -4.5510   -2.0608    1.6242 H   0  0  0  0  0  0  0  0  0  0  0  0
   -4.1140   -2.7798    0.0522 H   0  0  0  0  0  0  0  0  0  0  0  0
   -2.4570   -2.1098    1.2172 C   0  0  0  0  0  0  0  0  0  0  0  0
   -1.5600   -2.7438    1.7572 O   0  0  0  0  0  0  0  0  0  0  0  0
   -2.2870   -0.8898    0.7102 N   0  0  0  0  0  0  0  0  0  0  0  0
   -3.0820   -0.4218    0.2992 H   0  0  0  0  0  0  0  0  0  0  0  0
   -1.0240   -0.1468    0.7262 C   0  0  1  0  0  0  0  0  0  0  0  0
   -0.2680   -0.7367    0.2062 H   0  0  0  0  0  0  0  0  0  0  0  0
   -1.2212    1.1806   -0.0314 C   0  0  0  0  0  0  0  0  0  0  0  0
   -0.7646    1.9837    0.5508 H   0  0  0  0  0  0  0  0  0  0  0  0
   -0.7103    1.1248   -0.9937 H   0  0  0  0  0  0  0  0  0  0  0  0
   -2.6984    1.5356   -0.2620 C   0  0  0  0  0  0  0  0  0  0  0  0
   -2.7731    2.3191   -1.0166 H   0  0  0  0  0  0  0  0  0  0  0  0
   -3.2300    0.6493   -0.6131 H   0  0  0  0  0  0  0  0  0  0  0  0
   -3.3500    2.0342    1.0328 C   0  0  0  0  0  0  0  0  0  0  0  0
   -3.2763    1.2635    1.8006 H   0  0  0  0  0  0  0  0  0  0  0  0
   -2.8374    2.9337    1.3749 H   0  0  0  0  0  0  0  0  0  0  0  0
   -4.8220    2.3560    0.7818 C   0  0  0  0  0  0  0  0  0  0  0  0
   -4.8976    3.1387    0.0287 H   0  0  0  0  0  0  0  0  0  0  0  0
   -5.3317    1.4633    0.4232 H   0  0  0  0  0  0  0  0  0  0  0  0
   -5.4833    2.8146    2.0089 N   0  0  0  0  0  0  0  0  0  0  0  0
   -6.4478    3.0308    1.8037 H   0  0  0  0  0  0  0  0  0  0  0  0
   -5.4442    2.0797    2.7008 H   0  0  0  0  0  0  0  0  0  0  0  0
   -0.5564    0.0727    2.1744 C   0  0  0  0  0  0  0  0  0  0  0  0
    0.6169   -0.1288    2.4805 O   0  0  0  0  0  0  0  0  0  0  0  0
   -1.4759    0.4743    3.0595 N   0  0  0  0  0  0  0  0  0  0  0  0
   -2.4132    0.6318    2.7275 H   0  0  0  0  0  0  0  0  0  0  0  0
   -1.1971    0.7118    4.4750 C   0  0  0  0  0  0  0  0  0  0  0  0
   -0.3779    1.4272    4.5748 H   0  0  0  0  0  0  0  0  0  0  0  0
   -2.0826    1.1064    4.9754 H   0  0  0  0  0  0  0  0  0  0  0  0
   -0.8992   -0.2240    4.9525 H   0  0  0  0  0  0  0  0  0  0  0  0
  5  6  2  0  0  0  0
  5  7  1  0  0  0  0
  2  3  1  0  0  0  0
  2  4  1  0  0  0  0
  2  5  1  0  0  0  0
  1  2  1  0  0  0  0
 26 27  2  0  0  0  0
 26 28  1  0  0  0  0
 23 24  1  0  0  0  0
 23 25  1  0  0  0  0
 20 21  1  0  0  0  0
 20 22  1  0  0  0  0
 20 23  1  0  0  0  0
 17 18  1  0  0  0  0
 17 19  1  0  0  0  0
 17 20  1  0  0  0  0
 14 15  1  0  0  0  0
 14 16  1  0  0  0  0
 14 17  1  0  0  0  0
 11 12  1  0  0  0  0
 11 13  1  0  0  0  0
 11 14  1  0  0  0  0
  9 10  1  0  0  0  0
  9 11  1  0  0  0  0
  9 26  1  0  0  0  0
  7  8  1  0  0  0  0
  7  9  1  0  0  0  0
 30 31  1  0  0  0  0
 30 32  1  0  0  0  0
 30 33  1  0  0  0  0
 28 29  1  0  0  0  0
 28 30  1  0  0  0  0
M  END
$$$$
default_name
  -OEChem-02102213163D

 33 32  0     1  0  0  0  0  0999 V2000
   -3.8420   -3.6918    1.5562 H   0  0  0  0  0  0  0  0  0  0  0  0
   -3.8430   -2.7008    1.1032 C   0  0  0  0  0  0  0  0  0  0  0  0
   -4.5510   -2.0608    1.6242 H   0  0  0  0  0  0  0  0  0  0  0  0
   -4.1140   -2.7798    0.0522 H   0  0  0  0  0  0  0  0  0  0  0  0
   -2.4570   -2.1098    1.2172 C   0  0  0  0  0  0  0  0  0  0  0  0
   -1.5600   -2.7438    1.7572 O   0  0  0  0  0  0  0  0  0  0  0  0
   -2.2870   -0.8898    0.7102 N   0  0  0  0  0  0  0  0  0  0  0  0
   -3.0820   -0.4218    0.2992 H   0  0  0  0  0  0  0  0  0  0  0  0
   -1.0240   -0.1468    0.7262 C   0  0  1  0  0  0  0  0  0  0  0  0
   -0.2680   -0.7367    0.2062 H   0  0  0  0  0  0  0  0  0  0  0  0
   -1.2212    1.1806   -0.0314 C   0  0  0  0  0  0  0  0  0  0  0  0
   -0.7646    1.9837    0.5508 H   0  0  0  0  0  0  0  0  0  0  0  0
   -0.7103    1.1248   -0.9937 H   0  0  0  0  0  0  0  0  0  0  0  0
   -2.6984    1.5356   -0.2620 C   0  0  0  0  0  0  0  0  0  0  0  0
   -2.7972    2.1104   -1.1832 H   0  0  0  0  0  0  0  0  0  0  0  0
   -3.2790    0.6156   -0.3507 H   0  0  0  0  0  0  0  0  0  0  0  0
   -3.2490    2.3690    0.9008 C   0  0  0  0  0  0  0  0  0  0  0  0
   -3.1498    1.8098    1.8317 H   0  0  0  0  0  0  0  0  0  0  0  0
   -2.6874    3.3004    0.9785 H   0  0  0  0  0  0  0  0  0  0  0  0
   -4.7233    2.6865    0.6585 C   0  0  0  0  0  0  0  0  0  0  0  0
   -4.8230    3.2610   -0.2611 H   0  0  0  0  0  0  0  0  0  0  0  0
   -5.2828    1.7574    0.5629 H   0  0  0  0  0  0  0  0  0  0  0  0
   -5.2892    3.4648    1.7663 N   0  0  0  0  0  0  0  0  0  0  0  0
   -6.2577    3.6680    1.5668 H   0  0  0  0  0  0  0  0  0  0  0  0
   -5.2283    2.9233    2.6168 H   0  0  0  0  0  0  0  0  0  0  0  0
   -0.5564    0.0727    2.1744 C   0  0  0  0  0  0  0  0  0  0  0  0
    0.6169   -0.1288    2.4805 O   0  0  0  0  0  0  0  0  0  0  0  0
   -1.4759    0.4743    3.0595 N   0  0  0  0  0  0  0  0  0  0  0  0
   -2.4132    0.6318    2.7275 H   0  0  0  0  0  0  0  0  0  0  0  0
   -1.1971    0.7118    4.4750 C   0  0  0  0  0  0  0  0  0  0  0  0
   -0.3779    1.4272    4.5748 H   0  0  0  0  0  0  0  0  0  0  0  0
   -2.0826    1.1064    4.9754 H   0  0  0  0  0  0  0  0  0  0  0  0
   -0.8992   -0.2240    4.9525 H   0  0  0  0  0  0  0  0  0  0  0  0
  5  6  2  0  0  0  0
  5  7  1  0  0  0  0
  2  3  1  0  0  0  0
  2  4  1  0  0  0  0
  2  5  1  0  0  0  0
  1  2  1  0  0  0  0
 26 27  2  0  0  0  0
 26 28  1  0  0  0  0
 23 24  1  0  0  0  0
 23 25  1  0  0  0  0
 20 21  1  0  0  0  0
 20 22  1  0  0  0  0
 20 23  1  0  0  0  0
 17 18  1  0  0  0  0
 17 19  1  0  0  0  0
 17 20  1  0  0  0  0
 14 15  1  0  0  0  0
 14 16  1  0  0  0  0
 14 17  1  0  0  0  0
 11 12  1  0  0  0  0
 11 13  1  0  0  0  0
 11 14  1  0  0  0  0
  9 10  1  0  0  0  0
  9 11  1  0  0  0  0
  9 26  1  0  0  0  0
  7  8  1  0  0  0  0
  7  9  1  0  0  0  0
 30 31  1  0  0  0  0
 30 32  1  0  0  0  0
 30 33  1  0  0  0  0
 28 29  1  0  0  0  0
 28 30  1  0  0  0  0
M  END
$$$$
default_name
  -OEChem-02102213163D

 33 32  0     1  0  0  0  0  0999 V2000
   -3.8420   -3.6918    1.5562 H   0  0  0  0  0  0  0  0  0  0  0  0
   -3.8430   -2.7008    1.1032 C   0  0  0  0  0  0  0  0  0  0  0  0
   -4.5510   -2.0608    1.6242 H   0  0  0  0  0  0  0  0  0  0  0  0
   -4.1140   -2.7798    0.0522 H   0  0  0  0  0  0  0  0  0  0  0  0
   -2.4570   -2.1098    1.2172 C   0  0  0  0  0  0  0  0  0  0  0  0
   -1.5600   -2.7438    1.7572 O   0  0  0  0  0  0  0  0  0  0  0  0
   -2.2870   -0.8898    0.7102 N   0  0  0  0  0  0  0  0  0  0  0  0
   -3.0820   -0.4218    0.2992 H   0  0  0  0  0  0  0  0  0  0  0  0
   -1.0240   -0.1468    0.7262 C   0  0  1  0  0  0  0  0  0  0  0  0
   -0.2680   -0.7367    0.2062 H   0  0  0  0  0  0  0  0  0  0  0  0
   -1.2212    1.1806   -0.0314 C   0  0  0  0  0  0  0  0  0  0  0  0
   -0.7646    1.9837    0.5508 H   0  0  0  0  0  0  0  0  0  0  0  0
   -0.7103    1.1248   -0.9937 H   0  0  0  0  0  0  0  0  0  0  0  0
   -2.6984    1.5356   -0.2620 C   0  0  0  0  0  0  0  0  0  0  0  0
   -2.8386    1.8684   -1.2908 H   0  0  0  0  0  0  0  0  0  0  0  0
   -3.3121    0.6503   -0.0859 H   0  0  0  0  0  0  0  0  0  0  0  0
   -3.1463    2.6556    0.6840 C   0  0  0  0  0  0  0  0  0  0  0  0
   -3.0046    2.3404    1.7182 H   0  0  0  0  0  0  0  0  0  0  0  0
   -2.5520    3.5501    0.4954 H   0  0  0  0  0  0  0  0  0  0  0  0
   -4.6225    2.9713    0.4512 C   0  0  0  0  0  0  0  0  0  0  0  0
   -4.7635    3.3041   -0.5758 H   0  0  0  0  0  0  0  0  0  0  0  0
   -5.2158    2.0745    0.6218 H   0  0  0  0  0  0  0  0  0  0  0  0
   -5.0909    4.0251    1.3587 N   0  0  0  0  0  0  0  0  0  0  0  0
   -6.0635    4.2173    1.1682 H   0  0  0  0  0  0  0  0  0  0  0  0
   -4.9921    3.7088    2.3129 H   0  0  0  0  0  0  0  0  0  0  0  0
   -0.5564    0.0727    2.1744 C   0  0  0  0  0  0  0  0  0  0  0  0
    0.6169   -0.1288    2.4805 O   0  0  0  0  0  0  0  0  0  0  0  0
   -1.4759    0.4743    3.0595 N   0  0  0  0  0  0  0  0  0  0  0  0
   -2.4132    0.6318    2.7275 H   0  0  0  0  0  0  0  0  0  0  0  0
   -1.1971    0.7118    4.4750 C   0  0  0  0  0  0  0  0  0  0  0  0
   -0.3779    1.4272    4.5748 H   0  0  0  0  0  0  0  0  0  0  0  0
   -2.0826    1.1064    4.9754 H   0  0  0  0  0  0  0  0  0  0  0  0
   -0.8992   -0.2240    4.9525 H   0  0  0  0  0  0  0  0  0  0  0  0
  5  6  2  0  0  0  0
  5  7  1  0  0  0  0
  2  3  1  0  0  0  0
  2  4  1  0  0  0  0
  2  5  1  0  0  0  0
  1  2  1  0  0  0  0
 26 27  2  0  0  0  0
 26 28  1  0  0  0  0
 23 24  1  0  0  0  0
 23 25  1  0  0  0  0
 20 21  1  0  0  0  0
 20 22  1  0  0  0  0
 20 23  1  0  0  0  0
 17 18  1  0  0  0  0
 17 19  1  0  0  0  0
 17 20  1  0  0  0  0
 14 15  1  0  0  0  0
 14 16  1  0  0  0  0
 14 17  1  0  0  0  0
 11 12  1  0  0  0  0
 11 13  1  0  0  0  0
 11 14  1  0  0  0  0
  9 10  1  0  0  0  0
  9 11  1  0  0  0  0
  9 26  1  0  0  0  0
  7  8  1  0  0  0  0
  7  9  1  0  0  0  0
 30 31  1  0  0  0  0
 30 32  1  0  0  0  0
 30 33  1  0  0  0  0
 28 29  1  0  0  0  0
 28 30  1  0  0  0  0
M  END
$$$$
default_name
  -OEChem-02102213163D

 33 32  0     1  0  0  0  0  0999 V2000
   -3.8420   -3.6918    1.5562 H   0  0  0  0  0  0  0  0  0  0  0  0
   -3.8430   -2.7008    1.1032 C   0  0  0  0  0  0  0  0  0  0  0  0
   -4.5510   -2.0608    1.6242 H   0  0  0  0  0  0  0  0  0  0  0  0
   -4.1140   -2.7798    0.0522 H   0  0  0  0  0  0  0  0  0  0  0  0
   -2.4570   -2.1098    1.2172 C   0  0  0  0  0  0  0  0  0  0  0  0
   -1.5600   -2.7438    1.7572 O   0  0  0  0  0  0  0  0  0  0  0  0
   -2.2870   -0.8898    0.7102 N   0  0  0  0  0  0  0  0  0  0  0  0
   -3.0820   -0.4218    0.2992 H   0  0  0  0  0  0  0  0  0  0  0  0
   -1.0240   -0.1468    0.7262 C   0  0  1  0  0  0  0  0  0  0  0  0
   -0.2680   -0.7367    0.2062 H   0  0  0  0  0  0  0  0  0  0  0  0
   -1.2212    1.1806   -0.0314 C   0  0  0  0  0  0  0  0  0  0  0  0
   -0.7646    1.9837    0.5508 H   0  0  0  0  0  0  0  0  0  0  0  0
   -0.7103    1.1248   -0.9937 H   0  0  0  0  0  0  0  0  0  0  0  0
   -2.6984    1.5356   -0.2620 C   0  0  0  0  0  0  0  0  0  0  0  0
   -2.8944    1.6094   -1.3320 H   0  0  0  0  0  0  0  0  0  0  0  0
   -3.3268    0.7509    0.1633 H   0  0  0  0  0  0  0  0  0  0  0  0
   -3.0489    2.8745    0.3970 C   0  0  0  0  0  0  0  0  0  0  0  0
   -2.8505    2.8189    1.4678 H   0  0  0  0  0  0  0  0  0  0  0  0
   -2.4403    3.6659   -0.0415 H   0  0  0  0  0  0  0  0  0  0  0  0
   -4.5265    3.1909    0.1742 C   0  0  0  0  0  0  0  0  0  0  0  0
   -4.7231    3.2652   -0.8942 H   0  0  0  0  0  0  0  0  0  0  0  0
   -5.1353    2.3928    0.5958 H   0  0  0  0  0  0  0  0  0  0  0  0
   -4.9021    4.4571    0.8136 N   0  0  0  0  0  0  0  0  0  0  0  0
   -5.8784    4.6411    0.6348 H   0  0  0  0  0  0  0  0  0  0  0  0
   -4.7516    4.3827    1.8097 H   0  0  0  0  0  0  0  0  0  0  0  0
   -0.5564    0.0727    2.1744 C   0  0  0  0  0  0  0  0  0  0  0  0
    0.6169   -0.1288    2.4805 O   0  0  0  0  0  0  0  0  0  0  0  0
   -1.4759    0.4743    3.0595 N   0  0  0  0  0  0  0  0  0  0  0  0
   -2.4132    0.6318    2.7275 H   0  0  0  0  0  0  0  0  0  0  0  0
   -1.1971    0.7118    4.4750 C   0  0  0  0  0  0  0  0  0  0  0  0
   -0.3779    1.4272    4.5748 H   0  0  0  0  0  0  0  0  0  0  0  0
   -2.0826    1.1064    4.9754 H   0  0  0  0  0  0  0  0  0  0  0  0
   -0.8992   -0.2240    4.9525 H   0  0  0  0  0  0  0  0  0  0  0  0
  5  6  2  0  0  0  0
  5  7  1  0  0  0  0
  2  3  1  0  0  0  0
  2  4  1  0  0  0  0
  2  5  1  0  0  0  0
  1  2  1  0  0  0  0
 26 27  2  0  0  0  0
 26 28  1  0  0  0  0
 23 24  1  0  0  0  0
 23 25  1  0  0  0  0
 20 21  1  0  0  0  0
 20 22  1  0  0  0  0
 20 23  1  0  0  0  0
 17 18  1  0  0  0  0
 17 19  1  0  0  0  0
 17 20  1  0  0  0  0
 14 15  1  0  0  0  0
 14 16  1  0  0  0  0
 14 17  1  0  0  0  0
 11 12  1  0  0  0  0
 11 13  1  0  0  0  0
 11 14  1  0  0  0  0
  9 10  1  0  0  0  0
  9 11  1  0  0  0  0
  9 26  1  0  0  0  0
  7  8  1  0  0  0  0
  7  9  1  0  0  0  0
 30 31  1  0  0  0  0
 30 32  1  0  0  0  0
 30 33  1  0  0  0  0
 28 29  1  0  0  0  0
 28 30  1  0  0  0  0
M  END
$$$$
default_name
  -OEChem-02102213163D

 33 32  0     1  0  0  0  0  0999 V2000
   -3.8420   -3.6918    1.5562 H   0  0  0  0  0  0  0  0  0  0  0  0
   -3.8430   -2.7008    1.1032 C   0  0  0  0  0  0  0  0  0  0  0  0
   -4.5510   -2.0608    1.6242 H   0  0  0  0  0  0  0  0  0  0  0  0
   -4.1140   -2.7798    0.0522 H   0  0  0  0  0  0  0  0  0  0  0  0
   -2.4570   -2.1098    1.2172 C   0  0  0  0  0  0  0  0  0  0  0  0
   -1.5600   -2.7438    1.7572 O   0  0  0  0  0  0  0  0  0  0  0  0
   -2.2870   -0.8898    0.7102 N   0  0  0  0  0  0  0  0  0  0  0  0
   -3.0820   -0.4218    0.2992 H   0  0  0  0  0  0  0  0  0  0  0  0
   -1.0240   -0.1468    0.7262 C   0  0  1  0  0  0  0  0  0  0  0  0
   -0.2680   -0.7367    0.2062 H   0  0  0  0  0  0  0  0  0  0  0  0
   -1.2212    1.1806   -0.0314 C   0  0  0  0  0  0  0  0  0  0  0  0
   -0.7646    1.9837    0.5508 H   0  0  0  0  0  0  0  0  0  0  0  0
   -0.7103    1.1248   -0.9937 H   0  0  0  0  0  0  0  0  0  0  0  0
   -2.6984    1.5356   -0.2620 C   0  0  0  0  0  0  0  0  0  0  0  0
   -2.9608    1.3511   -1.3041 H   0  0  0  0  0  0  0  0  0  0  0  0
   -3.3222    0.9107    0.3797 H   0  0  0  0  0  0  0  0  0  0  0  0
   -2.9635    3.0108    0.0596 C   0  0  0  0  0  0  0  0  0  0  0  0
   -2.6981    3.2129    1.0978 H   0  0  0  0  0  0  0  0  0  0  0  0
   -2.3601    3.6398   -0.5955 H   0  0  0  0  0  0  0  0  0  0  0  0
   -4.4418    3.3303   -0.1538 C   0  0  0  0  0  0  0  0  0  0  0  0
   -4.7047    3.1468   -1.1944 H   0  0  0  0  0  0  0  0  0  0  0  0
   -5.0467    2.6906    0.4867 H   0  0  0  0  0  0  0  0  0  0  0  0
   -4.7354    4.7315    0.1684 N   0  0  0  0  0  0  0  0  0  0  0  0
   -5.7150    4.9105    0.0031 H   0  0  0  0  0  0  0  0  0  0  0  0
   -4.5233    4.8991    1.1417 H   0  0  0  0  0  0  0  0  0  0  0  0
   -0.5564    0.0727    2.1744 C   0  0  0  0  0  0  0  0  0  0  0  0
    0.6169   -0.1288    2.4805 O   0  0  0  0  0  0  0  0  0  0  0  0
   -1.4759    0.4743    3.0595 N   0  0  0  0  0  0  0  0  0  0  0  0
   -2.4132    0.6318    2.7275 H   0  0  0  0  0  0  0  0  0  0  0  0
   -1.1971    0.7118    4.4750 C   0  0  0  0  0  0  0  0  0  0  0  0
   -0.3779    1.4272    4.5748 H   0  0  0  0  0  0  0  0  0  0  0  0
   -2.0826    1.1064    4.9754 H   0  0  0  0  0  0  0  0  0  0  0  0
   -0.8992   -0.2240    4.9525 H   0  0  0  0  0  0  0  0  0  0  0  0
  5  6  2  0  0  0  0
  5  7  1  0  0  0  0
  2  3  1  0  0  0  0
  2  4  1  0  0  0  0
  2  5  1  0  0  0  0
  1  2  1  0  0  0  0
 26 27  2  0  0  0  0
 26 28  1  0  0  0  0
 23 24  1  0  0  0  0
 23 25  1  0  0  0  0
 20 21  1  0  0  0  0
 20 22  1  0  0  0  0
 20 23  1  0  0  0  0
 17 18  1  0  0  0  0
 17 19  1  0  0  0  0
 17 20  1  0  0  0  0
 14 15  1  0  0  0  0
 14 16  1  0  0  0  0
 14 17  1  0  0  0  0
 11 12  1  0  0  0  0
 11 13  1  0  0  0  0
 11 14  1  0  0  0  0
  9 10  1  0  0  0  0
  9 11  1  0  0  0  0
  9 26  1  0  0  0  0
  7  8  1  0  0  0  0
  7  9  1  0  0  0  0
 30 31  1  0  0  0  0
 30 32  1  0  0  0  0
 30 33  1  0  0  0  0
 28 29  1  0  0  0  0
 28 30  1  0  0  0  0
M  END
$$$$
default_name
  -OEChem-02102213163D

 33 32  0     1  0  0  0  0  0999 V2000
   -3.8420   -3.6918    1.5562 H   0  0  0  0  0  0  0  0  0  0  0  0
   -3.8430   -2.7008    1.1032 C   0  0  0  0  0  0  0  0  0  0  0  0
   -4.5510   -2.0608    1.6242 H   0  0  0  0  0  0  0  0  0  0  0  0
   -4.1140   -2.7798    0.0522 H   0  0  0  0  0  0  0  0  0  0  0  0
   -2.4570   -2.1098    1.2172 C   0  0  0  0  0  0  0  0  0  0  0  0
   -1.5600   -2.7438    1.7572 O   0  0  0  0  0  0  0  0  0  0  0  0
   -2.2870   -0.8898    0.7102 N   0  0  0  0  0  0  0  0  0  0  0  0
   -3.0820   -0.4218    0.2992 H   0  0  0  0  0  0  0  0  0  0  0  0
   -1.0240   -0.1468    0.7262 C   0  0  1  0  0  0  0  0  0  0  0  0
   -0.2680   -0.7367    0.2062 H   0  0  0  0  0  0  0  0  0  0  0  0
   -1.2212    1.1806   -0.0314 C   0  0  0  0  0  0  0  0  0  0  0  0
   -0.7646    1.9837    0.5508 H   0  0  0  0  0  0  0  0  0  0  0  0
   -0.7103    1.1248   -0.9937 H   0  0  0  0  0  0  0  0  0  0  0  0
   -2.6984    1.5356   -0.2620 C   0  0  0  0  0  0  0  0  0  0  0  0
   -3.0334    1.1112   -1.2088 H   0  0  0  0  0  0  0  0  0  0  0  0
   -3.2986    1.1187    0.5488 H   0  0  0  0  0  0  0  0  0  0  0  0
   -2.8959    3.0551   -0.3053 C   0  0  0  0  0  0  0  0  0  0  0  0
   -2.5576    3.4955    0.6331 H   0  0  0  0  0  0  0  0  0  0  0  0
   -2.3168    3.4736   -1.1290 H   0  0  0  0  0  0  0  0  0  0  0  0
   -4.3742    3.3801   -0.5104 C   0  0  0  0  0  0  0  0  0  0  0  0
   -4.7095    2.9571   -1.4560 H   0  0  0  0  0  0  0  0  0  0  0  0
   -4.9560    2.9477    0.3019 H   0  0  0  0  0  0  0  0  0  0  0  0
   -4.6024    4.8295   -0.5331 N   0  0  0  0  0  0  0  0  0  0  0  0
   -5.5845    5.0073   -0.6838 H   0  0  0  0  0  0  0  0  0  0  0  0
   -4.3226    5.2229    0.3542 H   0  0  0  0  0  0  0  0  0  0  0  0
   -0.5564    0.0727    2.1744 C   0  0  0  0  0  0  0  0  0  0  0  0
    0.6169   -0.1288    2.4805 O   0  0  0  0  0  0  0  0  0  0  0  0
   -1.4759    0.4743    3.0595 N   0  0  0  0  0  0  0  0  0  0  0  0
   -2.4132    0.6318    2.7275 H   0  0  0  0  0  0  0  0  0  0  0  0
   -1.1971    0.7118    4.4750 C   0  0  0  0  0  0  0  0  0  0  0  0
   -0.3779    1.4272    4.5748 H   0  0  0  0  0  0  0  0  0  0  0  0
   -2.0826    1.1064    4.9754 H   0  0  0  0  0  0  0  0  0  0  0  0
   -0.8992   -0.2240    4.9525 H   0  0  0  0  0  0  0  0  0  0  0  0
  5  6  2  0  0  0  0
  5  7  1  0  0  0  0
  2  3  1  0  0  0  0
  2  4  1  0  0  0  0
  2  5  1  0  0  0  0
  1  2  1  0  0  0  0
 26 27  2  0  0  0  0
 26 28  1  0  0  0  0
 23 24  1  0  0  0  0
 23 25  1  0  0  0  0
 20 21  1  0  0  0  0
 20 22  1  0  0  0  0
 20 23  1  0  0  0  0
 17 18  1  0  0  0  0
 17 19  1  0  0  0  0
 17 20  1  0  0  0  0
 14 15  1  0  0  0  0
 14 16  1  0  0  0  0
 14 17  1  0  0  0  0
 11 12  1  0  0  0  0
 11 13  1  0  0  0  0
 11 14  1  0  0  0  0
  9 10  1  0  0  0  0
  9 11  1  0  0  0  0
  9 26  1  0  0  0  0
  7  8  1  0  0  0  0
  7  9  1  0  0  0  0
 30 31  1  0  0  0  0
 30 32  1  0  0  0  0
 30 33  1  0  0  0  0
 28 29  1  0  0  0  0
 28 30  1  0  0  0  0
M  END
$$$$
default_name
  -OEChem-02102213163D

 33 32  0     1  0  0  0  0  0999 V2000
   -3.8420   -3.6918    1.5562 H   0  0  0  0  0  0  0  0  0  0  0  0
   -3.8430   -2.7008    1.1032 C   0  0  0  0  0  0  0  0  0  0  0  0
   -4.5510   -2.0608    1.6242 H   0  0  0  0  0  0  0  0  0  0  0  0
   -4.1140   -2.7798    0.0522 H   0  0  0  0  0  0  0  0  0  0  0  0
   -2.4570   -2.1098    1.2172 C   0  0  0  0  0  0  0  0  0  0  0  0
   -1.5600   -2.7438    1.7572 O   0  0  0  0  0  0  0  0  0  0  0  0
   -2.2870   -0.8898    0.7102 N   0  0  0  0  0  0  0  0  0  0  0  0
   -3.0820   -0.4218    0.2992 H   0  0  0  0  0  0  0  0  0  0  0  0
   -1.0240   -0.1468    0.7262 C   0  0  1  0  0  0  0  0  0  0  0  0
   -0.2680   -0.7367    0.2062 H   0  0  0  0  0  0  0  0  0  0  0  0
   -1.2212    1.1806   -0.0314 C   0  0  0  0  0  0  0  0  0  0  0  0
   -0.7646    1.9837    0.5508 H   0  0  0  0  0  0  0  0  0  0  0  0
   -0.7103    1.1248   -0.9937 H   0  0  0  0  0  0  0  0  0  0  0  0
   -2.6984    1.5356   -0.2620 C   0  0  0  0  0  0  0  0  0  0  0  0
   -3.1070    0.9060   -1.0528 H   0  0  0  0  0  0  0  0  0  0  0  0
   -3.2576    1.3607    0.6590 H   0  0  0  0  0  0  0  0  0  0  0  0
   -2.8506    3.0045   -0.6729 C   0  0  0  0  0  0  0  0  0  0  0  0
   -2.4388    3.6474    0.1056 H   0  0  0  0  0  0  0  0  0  0  0  0
   -2.3133    3.1787   -1.6055 H   0  0  0  0  0  0  0  0  0  0  0  0
   -4.3282    3.3369   -0.8713 C   0  0  0  0  0  0  0  0  0  0  0  0
   -4.7371    2.7089   -1.6612 H   0  0  0  0  0  0  0  0  0  0  0  0
   -4.8696    3.1466    0.0540 H   0  0  0  0  0  0  0  0  0  0  0  0
   -4.5120    4.7445   -1.2430 N   0  0  0  0  0  0  0  0  0  0  0  0
   -5.4958    4.9248   -1.3793 H   0  0  0  0  0  0  0  0  0  0  0  0
   -4.1632    5.3319   -0.4990 H   0  0  0  0  0  0  0  0  0  0  0  0
   -0.5564    0.0727    2.1744 C   0  0  0  0  0  0  0  0  0  0  0  0
    0.6169   -0.1288    2.4805 O   0  0  0  0  0  0  0  0  0  0  0  0
   -1.4759    0.4743    3.0595 N   0  0  0  0  0  0  0  0  0  0  0  0
   -2.4132    0.6318    2.7275 H   0  0  0  0  0  0  0  0  0  0  0  0
   -1.1971    0.7118    4.4750 C   0  0  0  0  0  0  0  0  0  0  0  0
   -0.3779    1.4272    4.5748 H   0  0  0  0  0  0  0  0  0  0  0  0
   -2.0826    1.1064    4.9754 H   0  0  0  0  0  0  0  0  0  0  0  0
   -0.8992   -0.2240    4.9525 H   0  0  0  0  0  0  0  0  0  0  0  0
  5  6  2  0  0  0  0
  5  7  1  0  0  0  0
  2  3  1  0  0  0  0
  2  4  1  0  0  0  0
  2  5  1  0  0  0  0
  1  2  1  0  0  0  0
 26 27  2  0  0  0  0
 26 28  1  0  0  0  0
 23 24  1  0  0  0  0
 23 25  1  0  0  0  0
 20 21  1  0  0  0  0
 20 22  1  0  0  0  0
 20 23  1  0  0  0  0
 17 18  1  0  0  0  0
 17 19  1  0  0  0  0
 17 20  1  0  0  0  0
 14 15  1  0  0  0  0
 14 16  1  0  0  0  0
 14 17  1  0  0  0  0
 11 12  1  0  0  0  0
 11 13  1  0  0  0  0
 11 14  1  0  0  0  0
  9 10  1  0  0  0  0
  9 11  1  0  0  0  0
  9 26  1  0  0  0  0
  7  8  1  0  0  0  0
  7  9  1  0  0  0  0
 30 31  1  0  0  0  0
 30 32  1  0  0  0  0
 30 33  1  0  0  0  0
 28 29  1  0  0  0  0
 28 30  1  0  0  0  0
M  END
$$$$
default_name
  -OEChem-02102213163D

 33 32  0     1  0  0  0  0  0999 V2000
   -3.8420   -3.6918    1.5562 H   0  0  0  0  0  0  0  0  0  0  0  0
   -3.8430   -2.7008    1.1032 C   0  0  0  0  0  0  0  0  0  0  0  0
   -4.5510   -2.0608    1.6242 H   0  0  0  0  0  0  0  0  0  0  0  0
   -4.1140   -2.7798    0.0522 H   0  0  0  0  0  0  0  0  0  0  0  0
   -2.4570   -2.1098    1.2172 C   0  0  0  0  0  0  0  0  0  0  0  0
   -1.5600   -2.7438    1.7572 O   0  0  0  0  0  0  0  0  0  0  0  0
   -2.2870   -0.8898    0.7102 N   0  0  0  0  0  0  0  0  0  0  0  0
   -3.0820   -0.4218    0.2992 H   0  0  0  0  0  0  0  0  0  0  0  0
   -1.0240   -0.1468    0.7262 C   0  0  1  0  0  0  0  0  0  0  0  0
   -0.2680   -0.7367    0.2062 H   0  0  0  0  0  0  0  0  0  0  0  0
   -1.2212    1.1806   -0.0314 C   0  0  0  0  0  0  0  0  0  0  0  0
   -0.5497    1.9277    0.3968 H   0  0  0  0  0  0  0  0  0  0  0  0
   -0.9509    1.0404   -1.0789 H   0  0  0  0  0  0  0  0  0  0  0  0
   -2.6569    1.7217    0.0532 C   0  0  0  0  0  0  0  0  0  0  0  0
   -3.3480    0.9942   -0.3733 H   0  0  0  0  0  0  0  0  0  0  0  0
   -2.9161    1.8897    1.1002 H   0  0  0  0  0  0  0  0  0  0  0  0
   -2.7913    3.0401   -0.7171 C   0  0  0  0  0  0  0  0  0  0  0  0
   -2.0998    3.7766   -0.3066 H   0  0  0  0  0  0  0  0  0  0  0  0
   -2.5565    2.8724   -1.7686 H   0  0  0  0  0  0  0  0  0  0  0  0
   -4.2196    3.5679   -0.5962 C   0  0  0  0  0  0  0  0  0  0  0  0
   -4.9104    2.8422   -1.0223 H   0  0  0  0  0  0  0  0  0  0  0  0
   -4.4619    3.7192    0.4545 H   0  0  0  0  0  0  0  0  0  0  0  0
   -4.3773    4.8437   -1.3039 N   0  0  0  0  0  0  0  0  0  0  0  0
   -5.3334    5.1551   -1.2151 H   0  0  0  0  0  0  0  0  0  0  0  0
   -3.7613    5.5298   -0.8915 H   0  0  0  0  0  0  0  0  0  0  0  0
   -0.5564    0.0727    2.1744 C   0  0  0  0  0  0  0  0  0  0  0  0
    0.6169   -0.1288    2.4805 O   0  0  0  0  0  0  0  0  0  0  0  0
   -1.4759    0.4743    3.0595 N   0  0  0  0  0  0  0  0  0  0  0  0
   -2.4132    0.6318    2.7275 H   0  0  0  0  0  0  0  0  0  0  0  0
   -1.1971    0.7118    4.4750 C   0  0  0  0  0  0  0  0  0  0  0  0
   -0.3779    1.4272    4.5748 H   0  0  0  0  0  0  0  0  0  0  0  0
   -2.0826    1.1064    4.9754 H   0  0  0  0  0  0  0  0  0  0  0  0
   -0.8992   -0.2240    4.9525 H   0  0  0  0  0  0  0  0  0  0  0  0
  5  6  2  0  0  0  0
  5  7  1  0  0  0  0
  2  3  1  0  0  0  0
  2  4  1  0  0  0  0
  2  5  1  0  0  0  0
  1  2  1  0  0  0  0
 26 27  2  0  0  0  0
 26 28  1  0  0  0  0
 23 24  1  0  0  0  0
 23 25  1  0  0  0  0
 20 21  1  0  0  0  0
 20 22  1  0  0  0  0
 20 23  1  0  0  0  0
 17 18  1  0  0  0  0
 17 19  1  0  0  0  0
 17 20  1  0  0  0  0
 14 15  1  0  0  0  0
 14 16  1  0  0  0  0
 14 17  1  0  0  0  0
 11 12  1  0  0  0  0
 11 13  1  0  0  0  0
 11 14  1  0  0  0  0
  9 10  1  0  0  0  0
  9 11  1  0  0  0  0
  9 26  1  0  0  0  0
  7  8  1  0  0  0  0
  7  9  1  0  0  0  0
 30 31  1  0  0  0  0
 30 32  1  0  0  0  0
 30 33  1  0  0  0  0
 28 29  1  0  0  0  0
 28 30  1  0  0  0  0
M  END
$$$$
default_name
  -OEChem-02102213163D

 33 32  0     1  0  0  0  0  0999 V2000
   -3.8420   -3.6918    1.5562 H   0  0  0  0  0  0  0  0  0  0  0  0
   -3.8430   -2.7008    1.1032 C   0  0  0  0  0  0  0  0  0  0  0  0
   -4.5510   -2.0608    1.6242 H   0  0  0  0  0  0  0  0  0  0  0  0
   -4.1140   -2.7798    0.0522 H   0  0  0  0  0  0  0  0  0  0  0  0
   -2.4570   -2.1098    1.2172 C   0  0  0  0  0  0  0  0  0  0  0  0
   -1.5600   -2.7438    1.7572 O   0  0  0  0  0  0  0  0  0  0  0  0
   -2.2870   -0.8898    0.7102 N   0  0  0  0  0  0  0  0  0  0  0  0
   -3.0820   -0.4218    0.2992 H   0  0  0  0  0  0  0  0  0  0  0  0
   -1.0240   -0.1468    0.7262 C   0  0  1  0  0  0  0  0  0  0  0  0
   -0.2680   -0.7367    0.2062 H   0  0  0  0  0  0  0  0  0  0  0  0
   -1.2212    1.1806   -0.0314 C   0  0  0  0  0  0  0  0  0  0  0  0
   -0.5497    1.9277    0.3968 H   0  0  0  0  0  0  0  0  0  0  0  0
   -0.9509    1.0404   -1.0789 H   0  0  0  0  0  0  0  0  0  0  0  0
   -2.6569    1.7217    0.0532 C   0  0  0  0  0  0  0  0  0  0  0  0
   -3.3646    0.9103   -0.1192 H   0  0  0  0  0  0  0  0  0  0  0  0
   -2.8257    2.1378    1.0482 H   0  0  0  0  0  0  0  0  0  0  0  0
   -2.8932    2.8136   -0.9964 C   0  0  0  0  0  0  0  0  0  0  0  0
   -2.1867    3.6297   -0.8417 H   0  0  0  0  0  0  0  0  0  0  0  0
   -2.7491    2.3965   -1.9935 H   0  0  0  0  0  0  0  0  0  0  0  0
   -4.3179    3.3506   -0.8742 C   0  0  0  0  0  0  0  0  0  0  0  0
   -5.0254    2.5411   -1.0467 H   0  0  0  0  0  0  0  0  0  0  0  0
   -4.4691    3.7514    0.1268 H   0  0  0  0  0  0  0  0  0  0  0  0
   -4.5707    4.4161   -1.8509 N   0  0  0  0  0  0  0  0  0  0  0  0
   -5.5227    4.7369   -1.7514 H   0  0  0  0  0  0  0  0  0  0  0  0
   -3.9380    5.1837   -1.6752 H   0  0  0  0  0  0  0  0  0  0  0  0
   -0.5564    0.0727    2.1744 C   0  0  0  0  0  0  0  0  0  0  0  0
    0.6169   -0.1288    2.4805 O   0  0  0  0  0  0  0  0  0  0  0  0
   -1.4759    0.4743    3.0595 N   0  0  0  0  0  0  0  0  0  0  0  0
   -2.4132    0.6318    2.7275 H   0  0  0  0  0  0  0  0  0  0  0  0
   -1.1971    0.7118    4.4750 C   0  0  0  0  0  0  0  0  0  0  0  0
   -0.3779    1.4272    4.5748 H   0  0  0  0  0  0  0  0  0  0  0  0
   -2.0826    1.1064    4.9754 H   0  0  0  0  0  0  0  0  0  0  0  0
   -0.8992   -0.2240    4.9525 H   0  0  0  0  0  0  0  0  0  0  0  0
  5  6  2  0  0  0  0
  5  7  1  0  0  0  0
  2  3  1  0  0  0  0
  2  4  1  0  0  0  0
  2  5  1  0  0  0  0
  1  2  1  0  0  0  0
 26 27  2  0  0  0  0
 26 28  1  0  0  0  0
 23 24  1  0  0  0  0
 23 25  1  0  0  0  0
 20 21  1  0  0  0  0
 20 22  1  0  0  0  0
 20 23  1  0  0  0  0
 17 18  1  0  0  0  0
 17 19  1  0  0  0  0
 17 20  1  0  0  0  0
 14 15  1  0  0  0  0
 14 16  1  0  0  0  0
 14 17  1  0  0  0  0
 11 12  1  0  0  0  0
 11 13  1  0  0  0  0
 11 14  1  0  0  0  0
  9 10  1  0  0  0  0
  9 11  1  0  0  0  0
  9 26  1  0  0  0  0
  7  8  1  0  0  0  0
  7  9  1  0  0  0  0
 30 31  1  0  0  0  0
 30 32  1  0  0  0  0
 30 33  1  0  0  0  0
 28 29  1  0  0  0  0
 28 30  1  0  0  0  0
M  END
$$$$
default_name
  -OEChem-02102213163D

 33 32  0     1  0  0  0  0  0999 V2000
   -3.8420   -3.6918    1.5562 H   0  0  0  0  0  0  0  0  0  0  0  0
   -3.8430   -2.7008    1.1032 C   0  0  0  0  0  0  0  0  0  0  0  0
   -4.5510   -2.0608    1.6242 H   0  0  0  0  0  0  0  0  0  0  0  0
   -4.1140   -2.7798    0.0522 H   0  0  0  0  0  0  0  0  0  0  0  0
   -2.4570   -2.1098    1.2172 C   0  0  0  0  0  0  0  0  0  0  0  0
   -1.5600   -2.7438    1.7572 O   0  0  0  0  0  0  0  0  0  0  0  0
   -2.2870   -0.8898    0.7102 N   0  0  0  0  0  0  0  0  0  0  0  0
   -3.0820   -0.4218    0.2992 H   0  0  0  0  0  0  0  0  0  0  0  0
   -1.0240   -0.1468    0.7262 C   0  0  1  0  0  0  0  0  0  0  0  0
   -0.2680   -0.7367    0.2062 H   0  0  0  0  0  0  0  0  0  0  0  0
   -1.2212    1.1806   -0.0314 C   0  0  0  0  0  0  0  0  0  0  0  0
   -0.5497    1.9277    0.3968 H   0  0  0  0  0  0  0  0  0  0  0  0
   -0.9509    1.0404   -1.0789 H   0  0  0  0  0  0  0  0  0  0  0  0
   -2.6569    1.7217    0.0532 C   0  0  0  0  0  0  0  0  0  0  0  0
   -3.3563    0.8906    0.1481 H   0  0  0  0  0  0  0  0  0  0  0  0
   -2.7466    2.3661    0.9297 H   0  0  0  0  0  0  0  0  0  0  0  0
   -3.0138    2.5257   -1.2021 C   0  0  0  0  0  0  0  0  0  0  0  0
   -2.3173    3.3571   -1.3151 H   0  0  0  0  0  0  0  0  0  0  0  0
   -2.9488    1.8798   -2.0782 H   0  0  0  0  0  0  0  0  0  0  0  0
   -4.4351    3.0720   -1.0812 C   0  0  0  0  0  0  0  0  0  0  0  0
   -5.1343    2.2427   -0.9869 H   0  0  0  0  0  0  0  0  0  0  0  0
   -4.5064    3.7031   -0.1969 H   0  0  0  0  0  0  0  0  0  0  0  0
   -4.8012    3.8681   -2.2583 N   0  0  0  0  0  0  0  0  0  0  0  0
   -5.7483    4.2005   -2.1510 H   0  0  0  0  0  0  0  0  0  0  0  0
   -4.1751    4.6573   -2.3323 H   0  0  0  0  0  0  0  0  0  0  0  0
   -0.5564    0.0727    2.1744 C   0  0  0  0  0  0  0  0  0  0  0  0
    0.6169   -0.1288    2.4805 O   0  0  0  0  0  0  0  0  0  0  0  0
   -1.4759    0.4743    3.0595 N   0  0  0  0  0  0  0  0  0  0  0  0
   -2.4132    0.6318    2.7275 H   0  0  0  0  0  0  0  0  0  0  0  0
   -1.1971    0.7118    4.4750 C   0  0  0  0  0  0  0  0  0  0  0  0
   -0.3779    1.4272    4.5748 H   0  0  0  0  0  0  0  0  0  0  0  0
   -2.0826    1.1064    4.9754 H   0  0  0  0  0  0  0  0  0  0  0  0
   -0.8992   -0.2240    4.9525 H   0  0  0  0  0  0  0  0  0  0  0  0
  5  6  2  0  0  0  0
  5  7  1  0  0  0  0
  2  3  1  0  0  0  0
  2  4  1  0  0  0  0
  2  5  1  0  0  0  0
  1  2  1  0  0  0  0
 26 27  2  0  0  0  0
 26 28  1  0  0  0  0
 23 24  1  0  0  0  0
 23 25  1  0  0  0  0
 20 21  1  0  0  0  0
 20 22  1  0  0  0  0
 20 23  1  0  0  0  0
 17 18  1  0  0  0  0
 17 19  1  0  0  0  0
 17 20  1  0  0  0  0
 14 15  1  0  0  0  0
 14 16  1  0  0  0  0
 14 17  1  0  0  0  0
 11 12  1  0  0  0  0
 11 13  1  0  0  0  0
 11 14  1  0  0  0  0
  9 10  1  0  0  0  0
  9 11  1  0  0  0  0
  9 26  1  0  0  0  0
  7  8  1  0  0  0  0
  7  9  1  0  0  0  0
 30 31  1  0  0  0  0
 30 32  1  0  0  0  0
 30 33  1  0  0  0  0
 28 29  1  0  0  0  0
 28 30  1  0  0  0  0
M  END
$$$$
default_name
  -OEChem-02102213163D

 33 32  0     1  0  0  0  0  0999 V2000
   -3.8420   -3.6918    1.5562 H   0  0  0  0  0  0  0  0  0  0  0  0
   -3.8430   -2.7008    1.1032 C   0  0  0  0  0  0  0  0  0  0  0  0
   -4.5510   -2.0608    1.6242 H   0  0  0  0  0  0  0  0  0  0  0  0
   -4.1140   -2.7798    0.0522 H   0  0  0  0  0  0  0  0  0  0  0  0
   -2.4570   -2.1098    1.2172 C   0  0  0  0  0  0  0  0  0  0  0  0
   -1.5600   -2.7438    1.7572 O   0  0  0  0  0  0  0  0  0  0  0  0
   -2.2870   -0.8898    0.7102 N   0  0  0  0  0  0  0  0  0  0  0  0
   -3.0820   -0.4218    0.2992 H   0  0  0  0  0  0  0  0  0  0  0  0
   -1.0240   -0.1468    0.7262 C   0  0  1  0  0  0  0  0  0  0  0  0
   -0.2680   -0.7367    0.2062 H   0  0  0  0  0  0  0  0  0  0  0  0
   -1.2212    1.1806   -0.0314 C   0  0  0  0  0  0  0  0  0  0  0  0
   -0.5497    1.9277    0.3968 H   0  0  0  0  0  0  0  0  0  0  0  0
   -0.9509    1.0404   -1.0789 H   0  0  0  0  0  0  0  0  0  0  0  0
   -2.6569    1.7217    0.0532 C   0  0  0  0  0  0  0  0  0  0  0  0
   -3.3236    0.9363    0.4103 H   0  0  0  0  0  0  0  0  0  0  0  0
   -2.6843    2.5591    0.7528 H   0  0  0  0  0  0  0  0  0  0  0  0
   -3.1449    2.1962   -1.3202 C   0  0  0  0  0  0  0  0  0  0  0  0
   -2.4828    2.9775   -1.6946 H   0  0  0  0  0  0  0  0  0  0  0  0
   -3.1421    1.3573   -2.0168 H   0  0  0  0  0  0  0  0  0  0  0  0
   -4.5632    2.7512   -1.2032 C   0  0  0  0  0  0  0  0  0  0  0  0
   -5.2298    1.9674   -0.8471 H   0  0  0  0  0  0  0  0  0  0  0  0
   -4.5712    3.5776   -0.4944 H   0  0  0  0  0  0  0  0  0  0  0  0
   -5.0532    3.2370   -2.4982 N   0  0  0  0  0  0  0  0  0  0  0  0
   -5.9951    3.5826   -2.3868 H   0  0  0  0  0  0  0  0  0  0  0  0
   -4.4565    3.9866   -2.8182 H   0  0  0  0  0  0  0  0  0  0  0  0
   -0.5564    0.0727    2.1744 C   0  0  0  0  0  0  0  0  0  0  0  0
    0.6169   -0.1288    2.4805 O   0  0  0  0  0  0  0  0  0  0  0  0
   -1.4759    0.4743    3.0595 N   0  0  0  0  0  0  0  0  0  0  0  0
   -2.4132    0.6318    2.7275 H   0  0  0  0  0  0  0  0  0  0  0  0
   -1.1971    0.7118    4.4750 C   0  0  0  0  0  0  0  0  0  0  0  0
   -0.3779    1.4272    4.5748 H   0  0  0  0  0  0  0  0  0  0  0  0
   -2.0826    1.1064    4.9754 H   0  0  0  0  0  0  0  0  0  0  0  0
   -0.8992   -0.2240    4.9525 H   0  0  0  0  0  0  0  0  0  0  0  0
  5  6  2  0  0  0  0
  5  7  1  0  0  0  0
  2  3  1  0  0  0  0
  2  4  1  0  0  0  0
  2  5  1  0  0  0  0
  1  2  1  0  0  0  0
 26 27  2  0  0  0  0
 26 28  1  0  0  0  0
 23 24  1  0  0  0  0
 23 25  1  0  0  0  0
 20 21  1  0  0  0  0
 20 22  1  0  0  0  0
 20 23  1  0  0  0  0
 17 18  1  0  0  0  0
 17 19  1  0  0  0  0
 17 20  1  0  0  0  0
 14 15  1  0  0  0  0
 14 16  1  0  0  0  0
 14 17  1  0  0  0  0
 11 12  1  0  0  0  0
 11 13  1  0  0  0  0
 11 14  1  0  0  0  0
  9 10  1  0  0  0  0
  9 11  1  0  0  0  0
  9 26  1  0  0  0  0
  7  8  1  0  0  0  0
  7  9  1  0  0  0  0
 30 31  1  0  0  0  0
 30 32  1  0  0  0  0
 30 33  1  0  0  0  0
 28 29  1  0  0  0  0
 28 30  1  0  0  0  0
M  END
$$$$
default_name
  -OEChem-02102213163D

 33 32  0     1  0  0  0  0  0999 V2000
   -3.8420   -3.6918    1.5562 H   0  0  0  0  0  0  0  0  0  0  0  0
   -3.8430   -2.7008    1.1032 C   0  0  0  0  0  0  0  0  0  0  0  0
   -4.5510   -2.0608    1.6242 H   0  0  0  0  0  0  0  0  0  0  0  0
   -4.1140   -2.7798    0.0522 H   0  0  0  0  0  0  0  0  0  0  0  0
   -2.4570   -2.1098    1.2172 C   0  0  0  0  0  0  0  0  0  0  0  0
   -1.5600   -2.7438    1.7572 O   0  0  0  0  0  0  0  0  0  0  0  0
   -2.2870   -0.8898    0.7102 N   0  0  0  0  0  0  0  0  0  0  0  0
   -3.0820   -0.4218    0.2992 H   0  0  0  0  0  0  0  0  0  0  0  0
   -1.0240   -0.1468    0.7262 C   0  0  1  0  0  0  0  0  0  0  0  0
   -0.2680   -0.7367    0.2062 H   0  0  0  0  0  0  0  0  0  0  0  0
   -1.2212    1.1806   -0.0314 C   0  0  0  0  0  0  0  0  0  0  0  0
   -0.5497    1.9277    0.3968 H   0  0  0  0  0  0  0  0  0  0  0  0
   -0.9509    1.0404   -1.0789 H   0  0  0  0  0  0  0  0  0  0  0  0
   -2.6569    1.7217    0.0532 C   0  0  0  0  0  0  0  0  0  0  0  0
   -3.2688    1.0443    0.6495 H   0  0  0  0  0  0  0  0  0  0  0  0
   -2.6430    2.7037    0.5297 H   0  0  0  0  0  0  0  0  0  0  0  0
   -3.2777    1.8475   -1.3427 C   0  0  0  0  0  0  0  0  0  0  0  0
   -2.6717    2.5168   -1.9542 H   0  0  0  0  0  0  0  0  0  0  0  0
   -3.3157    0.8648   -1.8135 H   0  0  0  0  0  0  0  0  0  0  0  0
   -4.6934    2.4100   -1.2317 C   0  0  0  0  0  0  0  0  0  0  0  0
   -5.3054    1.7339   -0.6368 H   0  0  0  0  0  0  0  0  0  0  0  0
   -4.6592    3.3836   -0.7456 H   0  0  0  0  0  0  0  0  0  0  0  0
   -5.3095    2.5658   -2.5544 N   0  0  0  0  0  0  0  0  0  0  0  0
   -6.2462    2.9252   -2.4426 H   0  0  0  0  0  0  0  0  0  0  0  0
   -4.7631    3.2172   -3.0997 H   0  0  0  0  0  0  0  0  0  0  0  0
   -0.5564    0.0727    2.1744 C   0  0  0  0  0  0  0  0  0  0  0  0
    0.6169   -0.1288    2.4805 O   0  0  0  0  0  0  0  0  0  0  0  0
   -1.4759    0.4743    3.0595 N   0  0  0  0  0  0  0  0  0  0  0  0
   -2.4132    0.6318    2.7275 H   0  0  0  0  0  0  0  0  0  0  0  0
   -1.1971    0.7118    4.4750 C   0  0  0  0  0  0  0  0  0  0  0  0
   -0.3779    1.4272    4.5748 H   0  0  0  0  0  0  0  0  0  0  0  0
   -2.0826    1.1064    4.9754 H   0  0  0  0  0  0  0  0  0  0  0  0
   -0.8992   -0.2240    4.9525 H   0  0  0  0  0  0  0  0  0  0  0  0
  5  6  2  0  0  0  0
  5  7  1  0  0  0  0
  2  3  1  0  0  0  0
  2  4  1  0  0  0  0
  2  5  1  0  0  0  0
  1  2  1  0  0  0  0
 26 27  2  0  0  0  0
 26 28  1  0  0  0  0
 23 24  1  0  0  0  0
 23 25  1  0  0  0  0
 20 21  1  0  0  0  0
 20 22  1  0  0  0  0
 20 23  1  0  0  0  0
 17 18  1  0  0  0  0
 17 19  1  0  0  0  0
 17 20  1  0  0  0  0
 14 15  1  0  0  0  0
 14 16  1  0  0  0  0
 14 17  1  0  0  0  0
 11 12  1  0  0  0  0
 11 13  1  0  0  0  0
 11 14  1  0  0  0  0
  9 10  1  0  0  0  0
  9 11  1  0  0  0  0
  9 26  1  0  0  0  0
  7  8  1  0  0  0  0
  7  9  1  0  0  0  0
 30 31  1  0  0  0  0
 30 32  1  0  0  0  0
 30 33  1  0  0  0  0
 28 29  1  0  0  0  0
 28 30  1  0  0  0  0
M  END
$$$$
default_name
  -OEChem-02102213163D

 33 32  0     1  0  0  0  0  0999 V2000
   -3.8420   -3.6918    1.5562 H   0  0  0  0  0  0  0  0  0  0  0  0
   -3.8430   -2.7008    1.1032 C   0  0  0  0  0  0  0  0  0  0  0  0
   -4.5510   -2.0608    1.6242 H   0  0  0  0  0  0  0  0  0  0  0  0
   -4.1140   -2.7798    0.0522 H   0  0  0  0  0  0  0  0  0  0  0  0
   -2.4570   -2.1098    1.2172 C   0  0  0  0  0  0  0  0  0  0  0  0
   -1.5600   -2.7438    1.7572 O   0  0  0  0  0  0  0  0  0  0  0  0
   -2.2870   -0.8898    0.7102 N   0  0  0  0  0  0  0  0  0  0  0  0
   -3.0820   -0.4218    0.2992 H   0  0  0  0  0  0  0  0  0  0  0  0
   -1.0240   -0.1468    0.7262 C   0  0  1  0  0  0  0  0  0  0  0  0
   -0.2680   -0.7367    0.2062 H   0  0  0  0  0  0  0  0  0  0  0  0
   -1.2212    1.1806   -0.0314 C   0  0  0  0  0  0  0  0  0  0  0  0
   -0.5497    1.9277    0.3968 H   0  0  0  0  0  0  0  0  0  0  0  0
   -0.9509    1.0404   -1.0789 H   0  0  0  0  0  0  0  0  0  0  0  0
   -2.6569    1.7217    0.0532 C   0  0  0  0  0  0  0  0  0  0  0  0
   -3.1956    1.2072    0.8494 H   0  0  0  0  0  0  0  0  0  0  0  0
   -2.6255    2.7899    0.2754 H   0  0  0  0  0  0  0  0  0  0  0  0
   -3.4029    1.5034   -1.2679 C   0  0  0  0  0  0  0  0  0  0  0  0
   -2.8713    2.0062   -2.0764 H   0  0  0  0  0  0  0  0  0  0  0  0
   -3.4579    0.4357   -1.4823 H   0  0  0  0  0  0  0  0  0  0  0  0
   -4.8170    2.0716   -1.1649 C   0  0  0  0  0  0  0  0  0  0  0  0
   -5.3559    1.5581   -0.3703 H   0  0  0  0  0  0  0  0  0  0  0  0
   -4.7642    3.1342   -0.9333 H   0  0  0  0  0  0  0  0  0  0  0  0
   -5.5526    1.9002   -2.4230 N   0  0  0  0  0  0  0  0  0  0  0  0
   -6.4844    2.2731   -2.3147 H   0  0  0  0  0  0  0  0  0  0  0  0
   -5.0739    2.4016   -3.1577 H   0  0  0  0  0  0  0  0  0  0  0  0
   -0.5564    0.0727    2.1744 C   0  0  0  0  0  0  0  0  0  0  0  0
    0.6169   -0.1288    2.4805 O   0  0  0  0  0  0  0  0  0  0  0  0
   -1.4759    0.4743    3.0595 N   0  0  0  0  0  0  0  0  0  0  0  0
   -2.4132    0.6318    2.7275 H   0  0  0  0  0  0  0  0  0  0  0  0
   -1.1971    0.7118    4.4750 C   0  0  0  0  0  0  0  0  0  0  0  0
   -0.3779    1.4272    4.5748 H   0  0  0  0  0  0  0  0  0  0  0  0
   -2.0826    1.1064    4.9754 H   0  0  0  0  0  0  0  0  0  0  0  0
   -0.8992   -0.2240    4.9525 H   0  0  0  0  0  0  0  0  0  0  0  0
  5  6  2  0  0  0  0
  5  7  1  0  0  0  0
  2  3  1  0  0  0  0
  2  4  1  0  0  0  0
  2  5  1  0  0  0  0
  1  2  1  0  0  0  0
 26 27  2  0  0  0  0
 26 28  1  0  0  0  0
 23 24  1  0  0  0  0
 23 25  1  0  0  0  0
 20 21  1  0  0  0  0
 20 22  1  0  0  0  0
 20 23  1  0  0  0  0
 17 18  1  0  0  0  0
 17 19  1  0  0  0  0
 17 20  1  0  0  0  0
 14 15  1  0  0  0  0
 14 16  1  0  0  0  0
 14 17  1  0  0  0  0
 11 12  1  0  0  0  0
 11 13  1  0  0  0  0
 11 14  1  0  0  0  0
  9 10  1  0  0  0  0
  9 11  1  0  0  0  0
  9 26  1  0  0  0  0
  7  8  1  0  0  0  0
  7  9  1  0  0  0  0
 30 31  1  0  0  0  0
 30 32  1  0  0  0  0
 30 33  1  0  0  0  0
 28 29  1  0  0  0  0
 28 30  1  0  0  0  0
M  END
$$$$
default_name
  -OEChem-02102213163D

 33 32  0     1  0  0  0  0  0999 V2000
   -3.8420   -3.6918    1.5562 H   0  0  0  0  0  0  0  0  0  0  0  0
   -3.8430   -2.7008    1.1032 C   0  0  0  0  0  0  0  0  0  0  0  0
   -4.5510   -2.0608    1.6242 H   0  0  0  0  0  0  0  0  0  0  0  0
   -4.1140   -2.7798    0.0522 H   0  0  0  0  0  0  0  0  0  0  0  0
   -2.4570   -2.1098    1.2172 C   0  0  0  0  0  0  0  0  0  0  0  0
   -1.5600   -2.7438    1.7572 O   0  0  0  0  0  0  0  0  0  0  0  0
   -2.2870   -0.8898    0.7102 N   0  0  0  0  0  0  0  0  0  0  0  0
   -3.0820   -0.4218    0.2992 H   0  0  0  0  0  0  0  0  0  0  0  0
   -1.0240   -0.1468    0.7262 C   0  0  1  0  0  0  0  0  0  0  0  0
   -0.2680   -0.7367    0.2062 H   0  0  0  0  0  0  0  0  0  0  0  0
   -1.2212    1.1806   -0.0314 C   0  0  0  0  0  0  0  0  0  0  0  0
   -0.5497    1.9277    0.3968 H   0  0  0  0  0  0  0  0  0  0  0  0
   -0.9509    1.0404   -1.0789 H   0  0  0  0  0  0  0  0  0  0  0  0
   -2.6569    1.7217    0.0532 C   0  0  0  0  0  0  0  0  0  0  0  0
   -3.1090    1.4140    0.9965 H   0  0  0  0  0  0  0  0  0  0  0  0
   -2.6330    2.8120    0.0073 H   0  0  0  0  0  0  0  0  0  0  0  0
   -3.5122    1.1873   -1.1011 C   0  0  0  0  0  0  0  0  0  0  0  0
   -3.0680    1.4806   -2.0528 H   0  0  0  0  0  0  0  0  0  0  0  0
   -3.5589    0.0993   -1.0456 H   0  0  0  0  0  0  0  0  0  0  0  0
   -4.9254    1.7592   -1.0072 C   0  0  0  0  0  0  0  0  0  0  0  0
   -5.3779    1.4521   -0.0657 H   0  0  0  0  0  0  0  0  0  0  0  0
   -4.8793    2.8464   -1.0447 H   0  0  0  0  0  0  0  0  0  0  0  0
   -5.7659    1.2856   -2.1129 N   0  0  0  0  0  0  0  0  0  0  0  0
   -6.6935    1.6708   -2.0117 H   0  0  0  0  0  0  0  0  0  0  0  0
   -5.3677    1.5953   -2.9880 H   0  0  0  0  0  0  0  0  0  0  0  0
   -0.5564    0.0727    2.1744 C   0  0  0  0  0  0  0  0  0  0  0  0
    0.6169   -0.1288    2.4805 O   0  0  0  0  0  0  0  0  0  0  0  0
   -1.4759    0.4743    3.0595 N   0  0  0  0  0  0  0  0  0  0  0  0
   -2.4132    0.6318    2.7275 H   0  0  0  0  0  0  0  0  0  0  0  0
   -1.1971    0.7118    4.4750 C   0  0  0  0  0  0  0  0  0  0  0  0
   -0.3779    1.4272    4.5748 H   0  0  0  0  0  0  0  0  0  0  0  0
   -2.0826    1.1064    4.9754 H   0  0  0  0  0  0  0  0  0  0  0  0
   -0.8992   -0.2240    4.9525 H   0  0  0  0  0  0  0  0  0  0  0  0
  5  6  2  0  0  0  0
  5  7  1  0  0  0  0
  2  3  1  0  0  0  0
  2  4  1  0  0  0  0
  2  5  1  0  0  0  0
  1  2  1  0  0  0  0
 26 27  2  0  0  0  0
 26 28  1  0  0  0  0
 23 24  1  0  0  0  0
 23 25  1  0  0  0  0
 20 21  1  0  0  0  0
 20 22  1  0  0  0  0
 20 23  1  0  0  0  0
 17 18  1  0  0  0  0
 17 19  1  0  0  0  0
 17 20  1  0  0  0  0
 14 15  1  0  0  0  0
 14 16  1  0  0  0  0
 14 17  1  0  0  0  0
 11 12  1  0  0  0  0
 11 13  1  0  0  0  0
 11 14  1  0  0  0  0
  9 10  1  0  0  0  0
  9 11  1  0  0  0  0
  9 26  1  0  0  0  0
  7  8  1  0  0  0  0
  7  9  1  0  0  0  0
 30 31  1  0  0  0  0
 30 32  1  0  0  0  0
 30 33  1  0  0  0  0
 28 29  1  0  0  0  0
 28 30  1  0  0  0  0
M  END
$$$$
default_name
  -OEChem-02102213163D

 33 32  0     1  0  0  0  0  0999 V2000
   -3.8420   -3.6918    1.5562 H   0  0  0  0  0  0  0  0  0  0  0  0
   -3.8430   -2.7008    1.1032 C   0  0  0  0  0  0  0  0  0  0  0  0
   -4.5510   -2.0608    1.6242 H   0  0  0  0  0  0  0  0  0  0  0  0
   -4.1140   -2.7798    0.0522 H   0  0  0  0  0  0  0  0  0  0  0  0
   -2.4570   -2.1098    1.2172 C   0  0  0  0  0  0  0  0  0  0  0  0
   -1.5600   -2.7438    1.7572 O   0  0  0  0  0  0  0  0  0  0  0  0
   -2.2870   -0.8898    0.7102 N   0  0  0  0  0  0  0  0  0  0  0  0
   -3.0820   -0.4218    0.2992 H   0  0  0  0  0  0  0  0  0  0  0  0
   -1.0240   -0.1468    0.7262 C   0  0  1  0  0  0  0  0  0  0  0  0
   -0.2680   -0.7367    0.2062 H   0  0  0  0  0  0  0  0  0  0  0  0
   -1.2212    1.1806   -0.0314 C   0  0  0  0  0  0  0  0  0  0  0  0
   -0.5497    1.9277    0.3968 H   0  0  0  0  0  0  0  0  0  0  0  0
   -0.9509    1.0404   -1.0789 H   0  0  0  0  0  0  0  0  0  0  0  0
   -2.6569    1.7217    0.0532 C   0  0  0  0  0  0  0  0  0  0  0  0
   -3.0149    1.6505    1.0807 H   0  0  0  0  0  0  0  0  0  0  0  0
   -2.6649    2.7684   -0.2563 H   0  0  0  0  0  0  0  0  0  0  0  0
   -3.5981    0.9207   -0.8536 C   0  0  0  0  0  0  0  0  0  0  0  0
   -3.2483    0.9759   -1.8849 H   0  0  0  0  0  0  0  0  0  0  0  0
   -3.6119   -0.1215   -0.5332 H   0  0  0  0  0  0  0  0  0  0  0  0
   -5.0114    1.4940   -0.7695 C   0  0  0  0  0  0  0  0  0  0  0  0
   -5.3699    1.4229    0.2561 H   0  0  0  0  0  0  0  0  0  0  0  0
   -4.9964    2.5398   -1.0722 H   0  0  0  0  0  0  0  0  0  0  0  0
   -5.9350    0.7639   -1.6454 N   0  0  0  0  0  0  0  0  0  0  0  0
   -6.8593    1.1593   -1.5544 H   0  0  0  0  0  0  0  0  0  0  0  0
   -5.6246    0.8533   -2.6025 H   0  0  0  0  0  0  0  0  0  0  0  0
   -0.5564    0.0727    2.1744 C   0  0  0  0  0  0  0  0  0  0  0  0
    0.6169   -0.1288    2.4805 O   0  0  0  0  0  0  0  0  0  0  0  0
   -1.4759    0.4743    3.0595 N   0  0  0  0  0  0  0  0  0  0  0  0
   -2.4132    0.6318    2.7275 H   0  0  0  0  0  0  0  0  0  0  0  0
   -1.1971    0.7118    4.4750 C   0  0  0  0  0  0  0  0  0  0  0  0
   -0.3779    1.4272    4.5748 H   0  0  0  0  0  0  0  0  0  0  0  0
   -2.0826    1.1064    4.9754 H   0  0  0  0  0  0  0  0  0  0  0  0
   -0.8992   -0.2240    4.9525 H   0  0  0  0  0  0  0  0  0  0  0  0
  5  6  2  0  0  0  0
  5  7  1  0  0  0  0
  2  3  1  0  0  0  0
  2  4  1  0  0  0  0
  2  5  1  0  0  0  0
  1  2  1  0  0  0  0
 26 27  2  0  0  0  0
 26 28  1  0  0  0  0
 23 24  1  0  0  0  0
 23 25  1  0  0  0  0
 20 21  1  0  0  0  0
 20 22  1  0  0  0  0
 20 23  1  0  0  0  0
 17 18  1  0  0  0  0
 17 19  1  0  0  0  0
 17 20  1  0  0  0  0
 14 15  1  0  0  0  0
 14 16  1  0  0  0  0
 14 17  1  0  0  0  0
 11 12  1  0  0  0  0
 11 13  1  0  0  0  0
 11 14  1  0  0  0  0
  9 10  1  0  0  0  0
  9 11  1  0  0  0  0
  9 26  1  0  0  0  0
  7  8  1  0  0  0  0
  7  9  1  0  0  0  0
 30 31  1  0  0  0  0
 30 32  1  0  0  0  0
 30 33  1  0  0  0  0
 28 29  1  0  0  0  0
 28 30  1  0  0  0  0
M  END
$$$$
default_name
  -OEChem-02102213163D

 33 32  0     1  0  0  0  0  0999 V2000
   -3.8420   -3.6918    1.5562 H   0  0  0  0  0  0  0  0  0  0  0  0
   -3.8430   -2.7008    1.1032 C   0  0  0  0  0  0  0  0  0  0  0  0
   -4.5510   -2.0608    1.6242 H   0  0  0  0  0  0  0  0  0  0  0  0
   -4.1140   -2.7798    0.0522 H   0  0  0  0  0  0  0  0  0  0  0  0
   -2.4570   -2.1098    1.2172 C   0  0  0  0  0  0  0  0  0  0  0  0
   -1.5600   -2.7438    1.7572 O   0  0  0  0  0  0  0  0  0  0  0  0
   -2.2870   -0.8898    0.7102 N   0  0  0  0  0  0  0  0  0  0  0  0
   -3.0820   -0.4218    0.2992 H   0  0  0  0  0  0  0  0  0  0  0  0
   -1.0240   -0.1468    0.7262 C   0  0  1  0  0  0  0  0  0  0  0  0
   -0.2680   -0.7367    0.2062 H   0  0  0  0  0  0  0  0  0  0  0  0
   -1.2212    1.1806   -0.0314 C   0  0  0  0  0  0  0  0  0  0  0  0
   -0.5497    1.9277    0.3968 H   0  0  0  0  0  0  0  0  0  0  0  0
   -0.9509    1.0404   -1.0789 H   0  0  0  0  0  0  0  0  0  0  0  0
   -2.6569    1.7217    0.0532 C   0  0  0  0  0  0  0  0  0  0  0  0
   -2.9198    1.9007    1.0962 H   0  0  0  0  0  0  0  0  0  0  0  0
   -2.7192    2.6621   -0.4975 H   0  0  0  0  0  0  0  0  0  0  0  0
   -3.6547    0.7218   -0.5422 C   0  0  0  0  0  0  0  0  0  0  0  0
   -3.4000    0.5264   -1.5843 H   0  0  0  0  0  0  0  0  0  0  0  0
   -3.6133   -0.2116    0.0199 H   0  0  0  0  0  0  0  0  0  0  0  0
   -5.0689    1.2941   -0.4680 C   0  0  0  0  0  0  0  0  0  0  0  0
   -5.3324    1.4728    0.5732 H   0  0  0  0  0  0  0  0  0  0  0  0
   -5.1077    2.2353   -1.0139 H   0  0  0  0  0  0  0  0  0  0  0  0
   -6.0482    0.3706   -1.0522 N   0  0  0  0  0  0  0  0  0  0  0  0
   -6.9704    0.7734   -0.9738 H   0  0  0  0  0  0  0  0  0  0  0  0
   -5.8270    0.2262   -2.0272 H   0  0  0  0  0  0  0  0  0  0  0  0
   -0.5564    0.0727    2.1744 C   0  0  0  0  0  0  0  0  0  0  0  0
    0.6169   -0.1288    2.4805 O   0  0  0  0  0  0  0  0  0  0  0  0
   -1.4759    0.4743    3.0595 N   0  0  0  0  0  0  0  0  0  0  0  0
   -2.4132    0.6318    2.7275 H   0  0  0  0  0  0  0  0  0  0  0  0
   -1.1971    0.7118    4.4750 C   0  0  0  0  0  0  0  0  0  0  0  0
   -0.3779    1.4272    4.5748 H   0  0  0  0  0  0  0  0  0  0  0  0
   -2.0826    1.1064    4.9754 H   0  0  0  0  0  0  0  0  0  0  0  0
   -0.8992   -0.2240    4.9525 H   0  0  0  0  0  0  0  0  0  0  0  0
  5  6  2  0  0  0  0
  5  7  1  0  0  0  0
  2  3  1  0  0  0  0
  2  4  1  0  0  0  0
  2  5  1  0  0  0  0
  1  2  1  0  0  0  0
 26 27  2  0  0  0  0
 26 28  1  0  0  0  0
 23 24  1  0  0  0  0
 23 25  1  0  0  0  0
 20 21  1  0  0  0  0
 20 22  1  0  0  0  0
 20 23  1  0  0  0  0
 17 18  1  0  0  0  0
 17 19  1  0  0  0  0
 17 20  1  0  0  0  0
 14 15  1  0  0  0  0
 14 16  1  0  0  0  0
 14 17  1  0  0  0  0
 11 12  1  0  0  0  0
 11 13  1  0  0  0  0
 11 14  1  0  0  0  0
  9 10  1  0  0  0  0
  9 11  1  0  0  0  0
  9 26  1  0  0  0  0
  7  8  1  0  0  0  0
  7  9  1  0  0  0  0
 30 31  1  0  0  0  0
 30 32  1  0  0  0  0
 30 33  1  0  0  0  0
 28 29  1  0  0  0  0
 28 30  1  0  0  0  0
M  END
$$$$
default_name
  -OEChem-02102213163D

 33 32  0     1  0  0  0  0  0999 V2000
   -3.8420   -3.6918    1.5562 H   0  0  0  0  0  0  0  0  0  0  0  0
   -3.8430   -2.7008    1.1032 C   0  0  0  0  0  0  0  0  0  0  0  0
   -4.5510   -2.0608    1.6242 H   0  0  0  0  0  0  0  0  0  0  0  0
   -4.1140   -2.7798    0.0522 H   0  0  0  0  0  0  0  0  0  0  0  0
   -2.4570   -2.1098    1.2172 C   0  0  0  0  0  0  0  0  0  0  0  0
   -1.5600   -2.7438    1.7572 O   0  0  0  0  0  0  0  0  0  0  0  0
   -2.2870   -0.8898    0.7102 N   0  0  0  0  0  0  0  0  0  0  0  0
   -3.0820   -0.4218    0.2992 H   0  0  0  0  0  0  0  0  0  0  0  0
   -1.0240   -0.1468    0.7262 C   0  0  1  0  0  0  0  0  0  0  0  0
   -0.2680   -0.7367    0.2062 H   0  0  0  0  0  0  0  0  0  0  0  0
   -1.2212    1.1806   -0.0314 C   0  0  0  0  0  0  0  0  0  0  0  0
   -0.5497    1.9277    0.3968 H   0  0  0  0  0  0  0  0  0  0  0  0
   -0.9509    1.0404   -1.0789 H   0  0  0  0  0  0  0  0  0  0  0  0
   -2.6569    1.7217    0.0532 C   0  0  0  0  0  0  0  0  0  0  0  0
   -2.8300    2.1474    1.0420 H   0  0  0  0  0  0  0  0  0  0  0  0
   -2.7921    2.5003   -0.6998 H   0  0  0  0  0  0  0  0  0  0  0  0
   -3.6781    0.6043   -0.1881 C   0  0  0  0  0  0  0  0  0  0  0  0
   -3.5127    0.1627   -1.1714 H   0  0  0  0  0  0  0  0  0  0  0  0
   -3.5629   -0.1649    0.5761 H   0  0  0  0  0  0  0  0  0  0  0  0
   -5.0942    1.1731   -0.1231 C   0  0  0  0  0  0  0  0  0  0  0  0
   -5.2680    1.5981    0.8641 H   0  0  0  0  0  0  0  0  0  0  0  0
   -5.2056    1.9538   -0.8739 H   0  0  0  0  0  0  0  0  0  0  0  0
   -6.0979    0.1325   -0.3738 N   0  0  0  0  0  0  0  0  0  0  0  0
   -7.0194    0.5395   -0.3095 H   0  0  0  0  0  0  0  0  0  0  0  0
   -5.9611   -0.2433   -1.3014 H   0  0  0  0  0  0  0  0  0  0  0  0
   -0.5564    0.0727    2.1744 C   0  0  0  0  0  0  0  0  0  0  0  0
    0.6169   -0.1288    2.4805 O   0  0  0  0  0  0  0  0  0  0  0  0
   -1.4759    0.4743    3.0595 N   0  0  0  0  0  0  0  0  0  0  0  0
   -2.4132    0.6318    2.7275 H   0  0  0  0  0  0  0  0  0  0  0  0
   -1.1971    0.7118    4.4750 C   0  0  0  0  0  0  0  0  0  0  0  0
   -0.3779    1.4272    4.5748 H   0  0  0  0  0  0  0  0  0  0  0  0
   -2.0826    1.1064    4.9754 H   0  0  0  0  0  0  0  0  0  0  0  0
   -0.8992   -0.2240    4.9525 H   0  0  0  0  0  0  0  0  0  0  0  0
  5  6  2  0  0  0  0
  5  7  1  0  0  0  0
  2  3  1  0  0  0  0
  2  4  1  0  0  0  0
  2  5  1  0  0  0  0
  1  2  1  0  0  0  0
 26 27  2  0  0  0  0
 26 28  1  0  0  0  0
 23 24  1  0  0  0  0
 23 25  1  0  0  0  0
 20 21  1  0  0  0  0
 20 22  1  0  0  0  0
 20 23  1  0  0  0  0
 17 18  1  0  0  0  0
 17 19  1  0  0  0  0
 17 20  1  0  0  0  0
 14 15  1  0  0  0  0
 14 16  1  0  0  0  0
 14 17  1  0  0  0  0
 11 12  1  0  0  0  0
 11 13  1  0  0  0  0
 11 14  1  0  0  0  0
  9 10  1  0  0  0  0
  9 11  1  0  0  0  0
  9 26  1  0  0  0  0
  7  8  1  0  0  0  0
  7  9  1  0  0  0  0
 30 31  1  0  0  0  0
 30 32  1  0  0  0  0
 30 33  1  0  0  0  0
 28 29  1  0  0  0  0
 28 30  1  0  0  0  0
M  END
$$$$
default_name
  -OEChem-02102213163D

 33 32  0     1  0  0  0  0  0999 V2000
   -3.8420   -3.6918    1.5562 H   0  0  0  0  0  0  0  0  0  0  0  0
   -3.8430   -2.7008    1.1032 C   0  0  0  0  0  0  0  0  0  0  0  0
   -4.5510   -2.0608    1.6242 H   0  0  0  0  0  0  0  0  0  0  0  0
   -4.1140   -2.7798    0.0522 H   0  0  0  0  0  0  0  0  0  0  0  0
   -2.4570   -2.1098    1.2172 C   0  0  0  0  0  0  0  0  0  0  0  0
   -1.5600   -2.7438    1.7572 O   0  0  0  0  0  0  0  0  0  0  0  0
   -2.2870   -0.8898    0.7102 N   0  0  0  0  0  0  0  0  0  0  0  0
   -3.0820   -0.4218    0.2992 H   0  0  0  0  0  0  0  0  0  0  0  0
   -1.0240   -0.1468    0.7262 C   0  0  1  0  0  0  0  0  0  0  0  0
   -0.2680   -0.7367    0.2062 H   0  0  0  0  0  0  0  0  0  0  0  0
   -1.2212    1.1806   -0.0314 C   0  0  0  0  0  0  0  0  0  0  0  0
   -0.5497    1.9277    0.3968 H   0  0  0  0  0  0  0  0  0  0  0  0
   -0.9509    1.0404   -1.0789 H   0  0  0  0  0  0  0  0  0  0  0  0
   -2.6569    1.7217    0.0532 C   0  0  0  0  0  0  0  0  0  0  0  0
   -2.7517    2.3740    0.9218 H   0  0  0  0  0  0  0  0  0  0  0  0
   -2.8787    2.2940   -0.8494 H   0  0  0  0  0  0  0  0  0  0  0  0
   -3.6668    0.5760    0.1844 C   0  0  0  0  0  0  0  0  0  0  0  0
   -3.5787   -0.0903   -0.6743 H   0  0  0  0  0  0  0  0  0  0  0  0
   -3.4641    0.0155    1.0975 H   0  0  0  0  0  0  0  0  0  0  0  0
   -5.0854    1.1393    0.2415 C   0  0  0  0  0  0  0  0  0  0  0  0
   -5.1811    1.7905    1.1089 H   0  0  0  0  0  0  0  0  0  0  0  0
   -5.2833    1.7142   -0.6616 H   0  0  0  0  0  0  0  0  0  0  0  0
   -6.0807    0.0659    0.3436 N   0  0  0  0  0  0  0  0  0  0  0  0
   -7.0028    0.4736    0.3931 H   0  0  0  0  0  0  0  0  0  0  0  0
   -6.0178   -0.5232   -0.4746 H   0  0  0  0  0  0  0  0  0  0  0  0
   -0.5564    0.0727    2.1744 C   0  0  0  0  0  0  0  0  0  0  0  0
    0.6169   -0.1288    2.4805 O   0  0  0  0  0  0  0  0  0  0  0  0
   -1.4759    0.4743    3.0595 N   0  0  0  0  0  0  0  0  0  0  0  0
   -2.4132    0.6318    2.7275 H   0  0  0  0  0  0  0  0  0  0  0  0
   -1.1971    0.7118    4.4750 C   0  0  0  0  0  0  0  0  0  0  0  0
   -0.3779    1.4272    4.5748 H   0  0  0  0  0  0  0  0  0  0  0  0
   -2.0826    1.1064    4.9754 H   0  0  0  0  0  0  0  0  0  0  0  0
   -0.8992   -0.2240    4.9525 H   0  0  0  0  0  0  0  0  0  0  0  0
  5  6  2  0  0  0  0
  5  7  1  0  0  0  0
  2  3  1  0  0  0  0
  2  4  1  0  0  0  0
  2  5  1  0  0  0  0
  1  2  1  0  0  0  0
 26 27  2  0  0  0  0
 26 28  1  0  0  0  0
 23 24  1  0  0  0  0
 23 25  1  0  0  0  0
 20 21  1  0  0  0  0
 20 22  1  0  0  0  0
 20 23  1  0  0  0  0
 17 18  1  0  0  0  0
 17 19  1  0  0  0  0
 17 20  1  0  0  0  0
 14 15  1  0  0  0  0
 14 16  1  0  0  0  0
 14 17  1  0  0  0  0
 11 12  1  0  0  0  0
 11 13  1  0  0  0  0
 11 14  1  0  0  0  0
  9 10  1  0  0  0  0
  9 11  1  0  0  0  0
  9 26  1  0  0  0  0
  7  8  1  0  0  0  0
  7  9  1  0  0  0  0
 30 31  1  0  0  0  0
 30 32  1  0  0  0  0
 30 33  1  0  0  0  0
 28 29  1  0  0  0  0
 28 30  1  0  0  0  0
M  END
$$$$
default_name
  -OEChem-02102213163D

 33 32  0     1  0  0  0  0  0999 V2000
   -3.8420   -3.6918    1.5562 H   0  0  0  0  0  0  0  0  0  0  0  0
   -3.8430   -2.7008    1.1032 C   0  0  0  0  0  0  0  0  0  0  0  0
   -4.5510   -2.0608    1.6242 H   0  0  0  0  0  0  0  0  0  0  0  0
   -4.1140   -2.7798    0.0522 H   0  0  0  0  0  0  0  0  0  0  0  0
   -2.4570   -2.1098    1.2172 C   0  0  0  0  0  0  0  0  0  0  0  0
   -1.5600   -2.7438    1.7572 O   0  0  0  0  0  0  0  0  0  0  0  0
   -2.2870   -0.8898    0.7102 N   0  0  0  0  0  0  0  0  0  0  0  0
   -3.0820   -0.4218    0.2992 H   0  0  0  0  0  0  0  0  0  0  0  0
   -1.0240   -0.1468    0.7262 C   0  0  1  0  0  0  0  0  0  0  0  0
   -0.2680   -0.7367    0.2062 H   0  0  0  0  0  0  0  0  0  0  0  0
   -1.2212    1.1806   -0.0314 C   0  0  0  0  0  0  0  0  0  0  0  0
   -0.5497    1.9277    0.3968 H   0  0  0  0  0  0  0  0  0  0  0  0
   -0.9509    1.0404   -1.0789 H   0  0  0  0  0  0  0  0  0  0  0  0
   -2.6569    1.7217    0.0532 C   0  0  0  0  0  0  0  0  0  0  0  0
   -2.6902    2.5648    0.7438 H   0  0  0  0  0  0  0  0  0  0  0  0
   -2.9730    2.0574   -0.9362 H   0  0  0  0  0  0  0  0  0  0  0  0
   -3.6215    0.6389    0.5501 C   0  0  0  0  0  0  0  0  0  0  0  0
   -3.5936   -0.2154   -0.1270 H   0  0  0  0  0  0  0  0  0  0  0  0
   -3.3239    0.3171    1.5485 H   0  0  0  0  0  0  0  0  0  0  0  0
   -5.0433    1.1950    0.6012 C   0  0  0  0  0  0  0  0  0  0  0  0
   -5.0776    2.0367    1.2909 H   0  0  0  0  0  0  0  0  0  0  0  0
   -5.3357    1.5331   -0.3916 H   0  0  0  0  0  0  0  0  0  0  0  0
   -5.9978    0.1753    1.0511 N   0  0  0  0  0  0  0  0  0  0  0  0
   -6.9219    0.5800    1.0862 H   0  0  0  0  0  0  0  0  0  0  0  0
   -5.9933   -0.5944    0.3969 H   0  0  0  0  0  0  0  0  0  0  0  0
   -0.5564    0.0727    2.1744 C   0  0  0  0  0  0  0  0  0  0  0  0
    0.6169   -0.1288    2.4805 O   0  0  0  0  0  0  0  0  0  0  0  0
   -1.4759    0.4743    3.0595 N   0  0  0  0  0  0  0  0  0  0  0  0
   -2.4132    0.6318    2.7275 H   0  0  0  0  0  0  0  0  0  0  0  0
   -1.1971    0.7118    4.4750 C   0  0  0  0  0  0  0  0  0  0  0  0
   -0.3779    1.4272    4.5748 H   0  0  0  0  0  0  0  0  0  0  0  0
   -2.0826    1.1064    4.9754 H   0  0  0  0  0  0  0  0  0  0  0  0
   -0.8992   -0.2240    4.9525 H   0  0  0  0  0  0  0  0  0  0  0  0
  5  6  2  0  0  0  0
  5  7  1  0  0  0  0
  2  3  1  0  0  0  0
  2  4  1  0  0  0  0
  2  5  1  0  0  0  0
  1  2  1  0  0  0  0
 26 27  2  0  0  0  0
 26 28  1  0  0  0  0
 23 24  1  0  0  0  0
 23 25  1  0  0  0  0
 20 21  1  0  0  0  0
 20 22  1  0  0  0  0
 20 23  1  0  0  0  0
 17 18  1  0  0  0  0
 17 19  1  0  0  0  0
 17 20  1  0  0  0  0
 14 15  1  0  0  0  0
 14 16  1  0  0  0  0
 14 17  1  0  0  0  0
 11 12  1  0  0  0  0
 11 13  1  0  0  0  0
 11 14  1  0  0  0  0
  9 10  1  0  0  0  0
  9 11  1  0  0  0  0
  9 26  1  0  0  0  0
  7  8  1  0  0  0  0
  7  9  1  0  0  0  0
 30 31  1  0  0  0  0
 30 32  1  0  0  0  0
 30 33  1  0  0  0  0
 28 29  1  0  0  0  0
 28 30  1  0  0  0  0
M  END
$$$$
default_name
  -OEChem-02102213163D

 33 32  0     1  0  0  0  0  0999 V2000
   -3.8420   -3.6918    1.5562 H   0  0  0  0  0  0  0  0  0  0  0  0
   -3.8430   -2.7008    1.1032 C   0  0  0  0  0  0  0  0  0  0  0  0
   -4.5510   -2.0608    1.6242 H   0  0  0  0  0  0  0  0  0  0  0  0
   -4.1140   -2.7798    0.0522 H   0  0  0  0  0  0  0  0  0  0  0  0
   -2.4570   -2.1098    1.2172 C   0  0  0  0  0  0  0  0  0  0  0  0
   -1.5600   -2.7438    1.7572 O   0  0  0  0  0  0  0  0  0  0  0  0
   -2.2870   -0.8898    0.7102 N   0  0  0  0  0  0  0  0  0  0  0  0
   -3.0820   -0.4218    0.2992 H   0  0  0  0  0  0  0  0  0  0  0  0
   -1.0240   -0.1468    0.7262 C   0  0  1  0  0  0  0  0  0  0  0  0
   -0.2680   -0.7367    0.2062 H   0  0  0  0  0  0  0  0  0  0  0  0
   -1.2212    1.1806   -0.0314 C   0  0  0  0  0  0  0  0  0  0  0  0
   -0.5497    1.9277    0.3968 H   0  0  0  0  0  0  0  0  0  0  0  0
   -0.9509    1.0404   -1.0789 H   0  0  0  0  0  0  0  0  0  0  0  0
   -2.6569    1.7217    0.0532 C   0  0  0  0  0  0  0  0  0  0  0  0
   -2.6499    2.7070    0.5201 H   0  0  0  0  0  0  0  0  0  0  0  0
   -3.0686    1.8065   -0.9541 H   0  0  0  0  0  0  0  0  0  0  0  0
   -3.5454    0.7887    0.8839 C   0  0  0  0  0  0  0  0  0  0  0  0
   -3.5563   -0.2042    0.4333 H   0  0  0  0  0  0  0  0  0  0  0  0
   -3.1516    0.7196    1.8984 H   0  0  0  0  0  0  0  0  0  0  0  0
   -4.9705    1.3363    0.9312 C   0  0  0  0  0  0  0  0  0  0  0  0
   -4.9645    2.3200    1.3978 H   0  0  0  0  0  0  0  0  0  0  0  0
   -5.3590    1.4227   -0.0822 H   0  0  0  0  0  0  0  0  0  0  0  0
   -5.8547    0.4532    1.7004 N   0  0  0  0  0  0  0  0  0  0  0  0
   -6.7820    0.8515    1.7226 H   0  0  0  0  0  0  0  0  0  0  0  0
   -5.8891   -0.4521    1.2537 H   0  0  0  0  0  0  0  0  0  0  0  0
   -0.5564    0.0727    2.1744 C   0  0  0  0  0  0  0  0  0  0  0  0
    0.6169   -0.1288    2.4805 O   0  0  0  0  0  0  0  0  0  0  0  0
   -1.4759    0.4743    3.0595 N   0  0  0  0  0  0  0  0  0  0  0  0
   -2.4132    0.6318    2.7275 H   0  0  0  0  0  0  0  0  0  0  0  0
   -1.1971    0.7118    4.4750 C   0  0  0  0  0  0  0  0  0  0  0  0
   -0.3779    1.4272    4.5748 H   0  0  0  0  0  0  0  0  0  0  0  0
   -2.0826    1.1064    4.9754 H   0  0  0  0  0  0  0  0  0  0  0  0
   -0.8992   -0.2240    4.9525 H   0  0  0  0  0  0  0  0  0  0  0  0
  5  6  2  0  0  0  0
  5  7  1  0  0  0  0
  2  3  1  0  0  0  0
  2  4  1  0  0  0  0
  2  5  1  0  0  0  0
  1  2  1  0  0  0  0
 26 27  2  0  0  0  0
 26 28  1  0  0  0  0
 23 24  1  0  0  0  0
 23 25  1  0  0  0  0
 20 21  1  0  0  0  0
 20 22  1  0  0  0  0
 20 23  1  0  0  0  0
 17 18  1  0  0  0  0
 17 19  1  0  0  0  0
 17 20  1  0  0  0  0
 14 15  1  0  0  0  0
 14 16  1  0  0  0  0
 14 17  1  0  0  0  0
 11 12  1  0  0  0  0
 11 13  1  0  0  0  0
 11 14  1  0  0  0  0
  9 10  1  0  0  0  0
  9 11  1  0  0  0  0
  9 26  1  0  0  0  0
  7  8  1  0  0  0  0
  7  9  1  0  0  0  0
 30 31  1  0  0  0  0
 30 32  1  0  0  0  0
 30 33  1  0  0  0  0
 28 29  1  0  0  0  0
 28 30  1  0  0  0  0
M  END
$$$$
default_name
  -OEChem-02102213163D

 33 32  0     1  0  0  0  0  0999 V2000
   -3.8420   -3.6918    1.5562 H   0  0  0  0  0  0  0  0  0  0  0  0
   -3.8430   -2.7008    1.1032 C   0  0  0  0  0  0  0  0  0  0  0  0
   -4.5510   -2.0608    1.6242 H   0  0  0  0  0  0  0  0  0  0  0  0
   -4.1140   -2.7798    0.0522 H   0  0  0  0  0  0  0  0  0  0  0  0
   -2.4570   -2.1098    1.2172 C   0  0  0  0  0  0  0  0  0  0  0  0
   -1.5600   -2.7438    1.7572 O   0  0  0  0  0  0  0  0  0  0  0  0
   -2.2870   -0.8898    0.7102 N   0  0  0  0  0  0  0  0  0  0  0  0
   -3.0820   -0.4218    0.2992 H   0  0  0  0  0  0  0  0  0  0  0  0
   -1.0240   -0.1468    0.7262 C   0  0  1  0  0  0  0  0  0  0  0  0
   -0.2680   -0.7367    0.2062 H   0  0  0  0  0  0  0  0  0  0  0  0
   -1.2212    1.1806   -0.0314 C   0  0  0  0  0  0  0  0  0  0  0  0
   -0.5497    1.9277    0.3968 H   0  0  0  0  0  0  0  0  0  0  0  0
   -0.9509    1.0404   -1.0789 H   0  0  0  0  0  0  0  0  0  0  0  0
   -2.6569    1.7217    0.0532 C   0  0  0  0  0  0  0  0  0  0  0  0
   -2.6333    2.7908    0.2660 H   0  0  0  0  0  0  0  0  0  0  0  0
   -3.1590    1.5584   -0.9021 H   0  0  0  0  0  0  0  0  0  0  0  0
   -3.4435    1.0153    1.1632 C   0  0  0  0  0  0  0  0  0  0  0  0
   -3.4694   -0.0573    0.9684 H   0  0  0  0  0  0  0  0  0  0  0  0
   -2.9590    1.1954    2.1233 H   0  0  0  0  0  0  0  0  0  0  0  0
   -4.8722    1.5536    1.2093 C   0  0  0  0  0  0  0  0  0  0  0  0
   -4.8496    2.6212    1.4221 H   0  0  0  0  0  0  0  0  0  0  0  0
   -5.3518    1.3905    0.2455 H   0  0  0  0  0  0  0  0  0  0  0  0
   -5.6614    0.8807    2.2474 N   0  0  0  0  0  0  0  0  0  0  0  0
   -6.5928    1.2697    2.2590 H   0  0  0  0  0  0  0  0  0  0  0  0
   -5.7125   -0.1060    2.0374 H   0  0  0  0  0  0  0  0  0  0  0  0
   -0.5564    0.0727    2.1744 C   0  0  0  0  0  0  0  0  0  0  0  0
    0.6169   -0.1288    2.4805 O   0  0  0  0  0  0  0  0  0  0  0  0
   -1.4759    0.4743    3.0595 N   0  0  0  0  0  0  0  0  0  0  0  0
   -2.4132    0.6318    2.7275 H   0  0  0  0  0  0  0  0  0  0  0  0
   -1.1971    0.7118    4.4750 C   0  0  0  0  0  0  0  0  0  0  0  0
   -0.3779    1.4272    4.5748 H   0  0  0  0  0  0  0  0  0  0  0  0
   -2.0826    1.1064    4.9754 H   0  0  0  0  0  0  0  0  0  0  0  0
   -0.8992   -0.2240    4.9525 H   0  0  0  0  0  0  0  0  0  0  0  0
  5  6  2  0  0  0  0
  5  7  1  0  0  0  0
  2  3  1  0  0  0  0
  2  4  1  0  0  0  0
  2  5  1  0  0  0  0
  1  2  1  0  0  0  0
 26 27  2  0  0  0  0
 26 28  1  0  0  0  0
 23 24  1  0  0  0  0
 23 25  1  0  0  0  0
 20 21  1  0  0  0  0
 20 22  1  0  0  0  0
 20 23  1  0  0  0  0
 17 18  1  0  0  0  0
 17 19  1  0  0  0  0
 17 20  1  0  0  0  0
 14 15  1  0  0  0  0
 14 16  1  0  0  0  0
 14 17  1  0  0  0  0
 11 12  1  0  0  0  0
 11 13  1  0  0  0  0
 11 14  1  0  0  0  0
  9 10  1  0  0  0  0
  9 11  1  0  0  0  0
  9 26  1  0  0  0  0
  7  8  1  0  0  0  0
  7  9  1  0  0  0  0
 30 31  1  0  0  0  0
 30 32  1  0  0  0  0
 30 33  1  0  0  0  0
 28 29  1  0  0  0  0
 28 30  1  0  0  0  0
M  END
$$$$
default_name
  -OEChem-02102213163D

 33 32  0     1  0  0  0  0  0999 V2000
   -3.8420   -3.6918    1.5562 H   0  0  0  0  0  0  0  0  0  0  0  0
   -3.8430   -2.7008    1.1032 C   0  0  0  0  0  0  0  0  0  0  0  0
   -4.5510   -2.0608    1.6242 H   0  0  0  0  0  0  0  0  0  0  0  0
   -4.1140   -2.7798    0.0522 H   0  0  0  0  0  0  0  0  0  0  0  0
   -2.4570   -2.1098    1.2172 C   0  0  0  0  0  0  0  0  0  0  0  0
   -1.5600   -2.7438    1.7572 O   0  0  0  0  0  0  0  0  0  0  0  0
   -2.2870   -0.8898    0.7102 N   0  0  0  0  0  0  0  0  0  0  0  0
   -3.0820   -0.4218    0.2992 H   0  0  0  0  0  0  0  0  0  0  0  0
   -1.0240   -0.1468    0.7262 C   0  0  1  0  0  0  0  0  0  0  0  0
   -0.2680   -0.7367    0.2062 H   0  0  0  0  0  0  0  0  0  0  0  0
   -1.2212    1.1806   -0.0314 C   0  0  0  0  0  0  0  0  0  0  0  0
   -0.5497    1.9277    0.3968 H   0  0  0  0  0  0  0  0  0  0  0  0
   -0.9509    1.0404   -1.0789 H   0  0  0  0  0  0  0  0  0  0  0  0
   -2.6569    1.7217    0.0532 C   0  0  0  0  0  0  0  0  0  0  0  0
   -2.6416    2.8106   -0.0013 H   0  0  0  0  0  0  0  0  0  0  0  0
   -3.2381    1.3301   -0.7836 H   0  0  0  0  0  0  0  0  0  0  0  0
   -3.3229    1.3031    1.3689 C   0  0  0  0  0  0  0  0  0  0  0  0
   -3.3388    0.2153    1.4418 H   0  0  0  0  0  0  0  0  0  0  0  0
   -2.7593    1.7122    2.2079 H   0  0  0  0  0  0  0  0  0  0  0  0
   -4.7550    1.8322    1.4163 C   0  0  0  0  0  0  0  0  0  0  0  0
   -4.7407    2.9196    1.3624 H   0  0  0  0  0  0  0  0  0  0  0  0
   -5.3145    1.4388    0.5692 H   0  0  0  0  0  0  0  0  0  0  0  0
   -5.4308    1.4287    2.6548 N   0  0  0  0  0  0  0  0  0  0  0  0
   -6.3671    1.8061    2.6586 H   0  0  0  0  0  0  0  0  0  0  0  0
   -5.4754    0.4204    2.6946 H   0  0  0  0  0  0  0  0  0  0  0  0
   -0.5564    0.0727    2.1744 C   0  0  0  0  0  0  0  0  0  0  0  0
    0.6169   -0.1288    2.4805 O   0  0  0  0  0  0  0  0  0  0  0  0
   -1.4759    0.4743    3.0595 N   0  0  0  0  0  0  0  0  0  0  0  0
   -2.4132    0.6318    2.7275 H   0  0  0  0  0  0  0  0  0  0  0  0
   -1.1971    0.7118    4.4750 C   0  0  0  0  0  0  0  0  0  0  0  0
   -0.3779    1.4272    4.5748 H   0  0  0  0  0  0  0  0  0  0  0  0
   -2.0826    1.1064    4.9754 H   0  0  0  0  0  0  0  0  0  0  0  0
   -0.8992   -0.2240    4.9525 H   0  0  0  0  0  0  0  0  0  0  0  0
  5  6  2  0  0  0  0
  5  7  1  0  0  0  0
  2  3  1  0  0  0  0
  2  4  1  0  0  0  0
  2  5  1  0  0  0  0
  1  2  1  0  0  0  0
 26 27  2  0  0  0  0
 26 28  1  0  0  0  0
 23 24  1  0  0  0  0
 23 25  1  0  0  0  0
 20 21  1  0  0  0  0
 20 22  1  0  0  0  0
 20 23  1  0  0  0  0
 17 18  1  0  0  0  0
 17 19  1  0  0  0  0
 17 20  1  0  0  0  0
 14 15  1  0  0  0  0
 14 16  1  0  0  0  0
 14 17  1  0  0  0  0
 11 12  1  0  0  0  0
 11 13  1  0  0  0  0
 11 14  1  0  0  0  0
  9 10  1  0  0  0  0
  9 11  1  0  0  0  0
  9 26  1  0  0  0  0
  7  8  1  0  0  0  0
  7  9  1  0  0  0  0
 30 31  1  0  0  0  0
 30 32  1  0  0  0  0
 30 33  1  0  0  0  0
 28 29  1  0  0  0  0
 28 30  1  0  0  0  0
M  END
$$$$
default_name
  -OEChem-02102213163D

 33 32  0     1  0  0  0  0  0999 V2000
   -3.8420   -3.6918    1.5562 H   0  0  0  0  0  0  0  0  0  0  0  0
   -3.8430   -2.7008    1.1032 C   0  0  0  0  0  0  0  0  0  0  0  0
   -4.5510   -2.0608    1.6242 H   0  0  0  0  0  0  0  0  0  0  0  0
   -4.1140   -2.7798    0.0522 H   0  0  0  0  0  0  0  0  0  0  0  0
   -2.4570   -2.1098    1.2172 C   0  0  0  0  0  0  0  0  0  0  0  0
   -1.5600   -2.7438    1.7572 O   0  0  0  0  0  0  0  0  0  0  0  0
   -2.2870   -0.8898    0.7102 N   0  0  0  0  0  0  0  0  0  0  0  0
   -3.0820   -0.4218    0.2992 H   0  0  0  0  0  0  0  0  0  0  0  0
   -1.0240   -0.1468    0.7262 C   0  0  1  0  0  0  0  0  0  0  0  0
   -0.2680   -0.7367    0.2062 H   0  0  0  0  0  0  0  0  0  0  0  0
   -1.2212    1.1806   -0.0314 C   0  0  0  0  0  0  0  0  0  0  0  0
   -0.5497    1.9277    0.3968 H   0  0  0  0  0  0  0  0  0  0  0  0
   -0.9509    1.0404   -1.0789 H   0  0  0  0  0  0  0  0  0  0  0  0
   -2.6569    1.7217    0.0532 C   0  0  0  0  0  0  0  0  0  0  0  0
   -2.6742    2.7649   -0.2634 H   0  0  0  0  0  0  0  0  0  0  0  0
   -3.3004    1.1371   -0.6068 H   0  0  0  0  0  0  0  0  0  0  0  0
   -3.1918    1.6326    1.4870 C   0  0  0  0  0  0  0  0  0  0  0  0
   -3.1734    0.5948    1.8213 H   0  0  0  0  0  0  0  0  0  0  0  0
   -2.5660    2.2346    2.1465 H   0  0  0  0  0  0  0  0  0  0  0  0
   -4.6269    2.1530    1.5382 C   0  0  0  0  0  0  0  0  0  0  0  0
   -4.6452    3.1949    1.2226 H   0  0  0  0  0  0  0  0  0  0  0  0
   -5.2497    1.5643    0.8667 H   0  0  0  0  0  0  0  0  0  0  0  0
   -5.1788    2.0598    2.8947 N   0  0  0  0  0  0  0  0  0  0  0  0
   -6.1203    2.4240    2.8944 H   0  0  0  0  0  0  0  0  0  0  0  0
   -5.1940    1.0911    3.1805 H   0  0  0  0  0  0  0  0  0  0  0  0
   -0.5564    0.0727    2.1744 C   0  0  0  0  0  0  0  0  0  0  0  0
    0.6169   -0.1288    2.4805 O   0  0  0  0  0  0  0  0  0  0  0  0
   -1.4759    0.4743    3.0595 N   0  0  0  0  0  0  0  0  0  0  0  0
   -2.4132    0.6318    2.7275 H   0  0  0  0  0  0  0  0  0  0  0  0
   -1.1971    0.7118    4.4750 C   0  0  0  0  0  0  0  0  0  0  0  0
   -0.3779    1.4272    4.5748 H   0  0  0  0  0  0  0  0  0  0  0  0
   -2.0826    1.1064    4.9754 H   0  0  0  0  0  0  0  0  0  0  0  0
   -0.8992   -0.2240    4.9525 H   0  0  0  0  0  0  0  0  0  0  0  0
  5  6  2  0  0  0  0
  5  7  1  0  0  0  0
  2  3  1  0  0  0  0
  2  4  1  0  0  0  0
  2  5  1  0  0  0  0
  1  2  1  0  0  0  0
 26 27  2  0  0  0  0
 26 28  1  0  0  0  0
 23 24  1  0  0  0  0
 23 25  1  0  0  0  0
 20 21  1  0  0  0  0
 20 22  1  0  0  0  0
 20 23  1  0  0  0  0
 17 18  1  0  0  0  0
 17 19  1  0  0  0  0
 17 20  1  0  0  0  0
 14 15  1  0  0  0  0
 14 16  1  0  0  0  0
 14 17  1  0  0  0  0
 11 12  1  0  0  0  0
 11 13  1  0  0  0  0
 11 14  1  0  0  0  0
  9 10  1  0  0  0  0
  9 11  1  0  0  0  0
  9 26  1  0  0  0  0
  7  8  1  0  0  0  0
  7  9  1  0  0  0  0
 30 31  1  0  0  0  0
 30 32  1  0  0  0  0
 30 33  1  0  0  0  0
 28 29  1  0  0  0  0
 28 30  1  0  0  0  0
M  END
$$$$
default_name
  -OEChem-02102213163D

 33 32  0     1  0  0  0  0  0999 V2000
   -3.8420   -3.6918    1.5562 H   0  0  0  0  0  0  0  0  0  0  0  0
   -3.8430   -2.7008    1.1032 C   0  0  0  0  0  0  0  0  0  0  0  0
   -4.5510   -2.0608    1.6242 H   0  0  0  0  0  0  0  0  0  0  0  0
   -4.1140   -2.7798    0.0522 H   0  0  0  0  0  0  0  0  0  0  0  0
   -2.4570   -2.1098    1.2172 C   0  0  0  0  0  0  0  0  0  0  0  0
   -1.5600   -2.7438    1.7572 O   0  0  0  0  0  0  0  0  0  0  0  0
   -2.2870   -0.8898    0.7102 N   0  0  0  0  0  0  0  0  0  0  0  0
   -3.0820   -0.4218    0.2992 H   0  0  0  0  0  0  0  0  0  0  0  0
   -1.0240   -0.1468    0.7262 C   0  0  1  0  0  0  0  0  0  0  0  0
   -0.2680   -0.7367    0.2062 H   0  0  0  0  0  0  0  0  0  0  0  0
   -1.2212    1.1806   -0.0314 C   0  0  0  0  0  0  0  0  0  0  0  0
   -0.5497    1.9277    0.3968 H   0  0  0  0  0  0  0  0  0  0  0  0
   -0.9509    1.0404   -1.0789 H   0  0  0  0  0  0  0  0  0  0  0  0
   -2.6569    1.7217    0.0532 C   0  0  0  0  0  0  0  0  0  0  0  0
   -2.7290    2.6569   -0.5027 H   0  0  0  0  0  0  0  0  0  0  0  0
   -3.3417    0.9925   -0.3836 H   0  0  0  0  0  0  0  0  0  0  0  0
   -3.0590    1.9813    1.5095 C   0  0  0  0  0  0  0  0  0  0  0  0
   -2.9844    1.0556    2.0809 H   0  0  0  0  0  0  0  0  0  0  0  0
   -2.3923    2.7272    1.9433 H   0  0  0  0  0  0  0  0  0  0  0  0
   -4.4967    2.4942    1.5668 C   0  0  0  0  0  0  0  0  0  0  0  0
   -4.5696    3.4284    1.0123 H   0  0  0  0  0  0  0  0  0  0  0  0
   -5.1618    1.7583    1.1179 H   0  0  0  0  0  0  0  0  0  0  0  0
   -4.9226    2.7311    2.9509 N   0  0  0  0  0  0  0  0  0  0  0  0
   -5.8693    3.0814    2.9502 H   0  0  0  0  0  0  0  0  0  0  0  0
   -4.8874    1.8605    3.4620 H   0  0  0  0  0  0  0  0  0  0  0  0
   -0.5564    0.0727    2.1744 C   0  0  0  0  0  0  0  0  0  0  0  0
    0.6169   -0.1288    2.4805 O   0  0  0  0  0  0  0  0  0  0  0  0
   -1.4759    0.4743    3.0595 N   0  0  0  0  0  0  0  0  0  0  0  0
   -2.4132    0.6318    2.7275 H   0  0  0  0  0  0  0  0  0  0  0  0
   -1.1971    0.7118    4.4750 C   0  0  0  0  0  0  0  0  0  0  0  0
   -0.3779    1.4272    4.5748 H   0  0  0  0  0  0  0  0  0  0  0  0
   -2.0826    1.1064    4.9754 H   0  0  0  0  0  0  0  0  0  0  0  0
   -0.8992   -0.2240    4.9525 H   0  0  0  0  0  0  0  0  0  0  0  0
  5  6  2  0  0  0  0
  5  7  1  0  0  0  0
  2  3  1  0  0  0  0
  2  4  1  0  0  0  0
  2  5  1  0  0  0  0
  1  2  1  0  0  0  0
 26 27  2  0  0  0  0
 26 28  1  0  0  0  0
 23 24  1  0  0  0  0
 23 25  1  0  0  0  0
 20 21  1  0  0  0  0
 20 22  1  0  0  0  0
 20 23  1  0  0  0  0
 17 18  1  0  0  0  0
 17 19  1  0  0  0  0
 17 20  1  0  0  0  0
 14 15  1  0  0  0  0
 14 16  1  0  0  0  0
 14 17  1  0  0  0  0
 11 12  1  0  0  0  0
 11 13  1  0  0  0  0
 11 14  1  0  0  0  0
  9 10  1  0  0  0  0
  9 11  1  0  0  0  0
  9 26  1  0  0  0  0
  7  8  1  0  0  0  0
  7  9  1  0  0  0  0
 30 31  1  0  0  0  0
 30 32  1  0  0  0  0
 30 33  1  0  0  0  0
 28 29  1  0  0  0  0
 28 30  1  0  0  0  0
M  END
$$$$
default_name
  -OEChem-02102213163D

 33 32  0     1  0  0  0  0  0999 V2000
   -3.8420   -3.6918    1.5562 H   0  0  0  0  0  0  0  0  0  0  0  0
   -3.8430   -2.7008    1.1032 C   0  0  0  0  0  0  0  0  0  0  0  0
   -4.5510   -2.0608    1.6242 H   0  0  0  0  0  0  0  0  0  0  0  0
   -4.1140   -2.7798    0.0522 H   0  0  0  0  0  0  0  0  0  0  0  0
   -2.4570   -2.1098    1.2172 C   0  0  0  0  0  0  0  0  0  0  0  0
   -1.5600   -2.7438    1.7572 O   0  0  0  0  0  0  0  0  0  0  0  0
   -2.2870   -0.8898    0.7102 N   0  0  0  0  0  0  0  0  0  0  0  0
   -3.0820   -0.4218    0.2992 H   0  0  0  0  0  0  0  0  0  0  0  0
   -1.0240   -0.1468    0.7262 C   0  0  1  0  0  0  0  0  0  0  0  0
   -0.2680   -0.7367    0.2062 H   0  0  0  0  0  0  0  0  0  0  0  0
   -1.2212    1.1806   -0.0314 C   0  0  0  0  0  0  0  0  0  0  0  0
   -0.5497    1.9277    0.3968 H   0  0  0  0  0  0  0  0  0  0  0  0
   -0.9509    1.0404   -1.0789 H   0  0  0  0  0  0  0  0  0  0  0  0
   -2.6569    1.7217    0.0532 C   0  0  0  0  0  0  0  0  0  0  0  0
   -2.8022    2.4940   -0.7026 H   0  0  0  0  0  0  0  0  0  0  0  0
   -3.3592    0.9063   -0.1293 H   0  0  0  0  0  0  0  0  0  0  0  0
   -2.9338    2.3255    1.4348 C   0  0  0  0  0  0  0  0  0  0  0  0
   -2.7848    1.5662    2.2031 H   0  0  0  0  0  0  0  0  0  0  0  0
   -2.2502    3.1563    1.6120 H   0  0  0  0  0  0  0  0  0  0  0  0
   -4.3731    2.8325    1.4999 C   0  0  0  0  0  0  0  0  0  0  0  0
   -4.5190    3.6042    0.7457 H   0  0  0  0  0  0  0  0  0  0  0  0
   -5.0567    2.0077    1.3055 H   0  0  0  0  0  0  0  0  0  0  0  0
   -4.6795    3.3967    2.8195 N   0  0  0  0  0  0  0  0  0  0  0  0
   -5.6311    3.7335    2.8223 H   0  0  0  0  0  0  0  0  0  0  0  0
   -4.5766    2.6761    3.5199 H   0  0  0  0  0  0  0  0  0  0  0  0
   -0.5564    0.0727    2.1744 C   0  0  0  0  0  0  0  0  0  0  0  0
    0.6169   -0.1288    2.4805 O   0  0  0  0  0  0  0  0  0  0  0  0
   -1.4759    0.4743    3.0595 N   0  0  0  0  0  0  0  0  0  0  0  0
   -2.4132    0.6318    2.7275 H   0  0  0  0  0  0  0  0  0  0  0  0
   -1.1971    0.7118    4.4750 C   0  0  0  0  0  0  0  0  0  0  0  0
   -0.3779    1.4272    4.5748 H   0  0  0  0  0  0  0  0  0  0  0  0
   -2.0826    1.1064    4.9754 H   0  0  0  0  0  0  0  0  0  0  0  0
   -0.8992   -0.2240    4.9525 H   0  0  0  0  0  0  0  0  0  0  0  0
  5  6  2  0  0  0  0
  5  7  1  0  0  0  0
  2  3  1  0  0  0  0
  2  4  1  0  0  0  0
  2  5  1  0  0  0  0
  1  2  1  0  0  0  0
 26 27  2  0  0  0  0
 26 28  1  0  0  0  0
 23 24  1  0  0  0  0
 23 25  1  0  0  0  0
 20 21  1  0  0  0  0
 20 22  1  0  0  0  0
 20 23  1  0  0  0  0
 17 18  1  0  0  0  0
 17 19  1  0  0  0  0
 17 20  1  0  0  0  0
 14 15  1  0  0  0  0
 14 16  1  0  0  0  0
 14 17  1  0  0  0  0
 11 12  1  0  0  0  0
 11 13  1  0  0  0  0
 11 14  1  0  0  0  0
  9 10  1  0  0  0  0
  9 11  1  0  0  0  0
  9 26  1  0  0  0  0
  7  8  1  0  0  0  0
  7  9  1  0  0  0  0
 30 31  1  0  0  0  0
 30 32  1  0  0  0  0
 30 33  1  0  0  0  0
 28 29  1  0  0  0  0
 28 30  1  0  0  0  0
M  END
$$$$
default_name
  -OEChem-02102213163D

 33 32  0     1  0  0  0  0  0999 V2000
   -3.8420   -3.6918    1.5562 H   0  0  0  0  0  0  0  0  0  0  0  0
   -3.8430   -2.7008    1.1032 C   0  0  0  0  0  0  0  0  0  0  0  0
   -4.5510   -2.0608    1.6242 H   0  0  0  0  0  0  0  0  0  0  0  0
   -4.1140   -2.7798    0.0522 H   0  0  0  0  0  0  0  0  0  0  0  0
   -2.4570   -2.1098    1.2172 C   0  0  0  0  0  0  0  0  0  0  0  0
   -1.5600   -2.7438    1.7572 O   0  0  0  0  0  0  0  0  0  0  0  0
   -2.2870   -0.8898    0.7102 N   0  0  0  0  0  0  0  0  0  0  0  0
   -3.0820   -0.4218    0.2992 H   0  0  0  0  0  0  0  0  0  0  0  0
   -1.0240   -0.1468    0.7262 C   0  0  1  0  0  0  0  0  0  0  0  0
   -0.2680   -0.7367    0.2062 H   0  0  0  0  0  0  0  0  0  0  0  0
   -1.2212    1.1806   -0.0314 C   0  0  0  0  0  0  0  0  0  0  0  0
   -0.5497    1.9277    0.3968 H   0  0  0  0  0  0  0  0  0  0  0  0
   -0.9509    1.0404   -1.0789 H   0  0  0  0  0  0  0  0  0  0  0  0
   -2.6569    1.7217    0.0532 C   0  0  0  0  0  0  0  0  0  0  0  0
   -2.8888    2.2872   -0.8497 H   0  0  0  0  0  0  0  0  0  0  0  0
   -3.3517    0.8842    0.1388 H   0  0  0  0  0  0  0  0  0  0  0  0
   -2.8245    2.6416    1.2679 C   0  0  0  0  0  0  0  0  0  0  0  0
   -2.5881    2.0917    2.1794 H   0  0  0  0  0  0  0  0  0  0  0  0
   -2.1492    3.4927    1.1753 H   0  0  0  0  0  0  0  0  0  0  0  0
   -4.2647    3.1450    1.3423 C   0  0  0  0  0  0  0  0  0  0  0  0
   -4.4970    3.7102    0.4412 H   0  0  0  0  0  0  0  0  0  0  0  0
   -4.9417    2.2955    1.4169 H   0  0  0  0  0  0  0  0  0  0  0  0
   -4.4662    4.0113    2.5095 N   0  0  0  0  0  0  0  0  0  0  0  0
   -5.4220    4.3358    2.5193 H   0  0  0  0  0  0  0  0  0  0  0  0
   -4.2828    3.4824    3.3503 H   0  0  0  0  0  0  0  0  0  0  0  0
   -0.5564    0.0727    2.1744 C   0  0  0  0  0  0  0  0  0  0  0  0
    0.6169   -0.1288    2.4805 O   0  0  0  0  0  0  0  0  0  0  0  0
   -1.4759    0.4743    3.0595 N   0  0  0  0  0  0  0  0  0  0  0  0
   -2.4132    0.6318    2.7275 H   0  0  0  0  0  0  0  0  0  0  0  0
   -1.1971    0.7118    4.4750 C   0  0  0  0  0  0  0  0  0  0  0  0
   -0.3779    1.4272    4.5748 H   0  0  0  0  0  0  0  0  0  0  0  0
   -2.0826    1.1064    4.9754 H   0  0  0  0  0  0  0  0  0  0  0  0
   -0.8992   -0.2240    4.9525 H   0  0  0  0  0  0  0  0  0  0  0  0
  5  6  2  0  0  0  0
  5  7  1  0  0  0  0
  2  3  1  0  0  0  0
  2  4  1  0  0  0  0
  2  5  1  0  0  0  0
  1  2  1  0  0  0  0
 26 27  2  0  0  0  0
 26 28  1  0  0  0  0
 23 24  1  0  0  0  0
 23 25  1  0  0  0  0
 20 21  1  0  0  0  0
 20 22  1  0  0  0  0
 20 23  1  0  0  0  0
 17 18  1  0  0  0  0
 17 19  1  0  0  0  0
 17 20  1  0  0  0  0
 14 15  1  0  0  0  0
 14 16  1  0  0  0  0
 14 17  1  0  0  0  0
 11 12  1  0  0  0  0
 11 13  1  0  0  0  0
 11 14  1  0  0  0  0
  9 10  1  0  0  0  0
  9 11  1  0  0  0  0
  9 26  1  0  0  0  0
  7  8  1  0  0  0  0
  7  9  1  0  0  0  0
 30 31  1  0  0  0  0
 30 32  1  0  0  0  0
 30 33  1  0  0  0  0
 28 29  1  0  0  0  0
 28 30  1  0  0  0  0
M  END
$$$$
default_name
  -OEChem-02102213163D

 33 32  0     1  0  0  0  0  0999 V2000
   -3.8420   -3.6918    1.5562 H   0  0  0  0  0  0  0  0  0  0  0  0
   -3.8430   -2.7008    1.1032 C   0  0  0  0  0  0  0  0  0  0  0  0
   -4.5510   -2.0608    1.6242 H   0  0  0  0  0  0  0  0  0  0  0  0
   -4.1140   -2.7798    0.0522 H   0  0  0  0  0  0  0  0  0  0  0  0
   -2.4570   -2.1098    1.2172 C   0  0  0  0  0  0  0  0  0  0  0  0
   -1.5600   -2.7438    1.7572 O   0  0  0  0  0  0  0  0  0  0  0  0
   -2.2870   -0.8898    0.7102 N   0  0  0  0  0  0  0  0  0  0  0  0
   -3.0820   -0.4218    0.2992 H   0  0  0  0  0  0  0  0  0  0  0  0
   -1.0240   -0.1468    0.7262 C   0  0  1  0  0  0  0  0  0  0  0  0
   -0.2680   -0.7367    0.2062 H   0  0  0  0  0  0  0  0  0  0  0  0
   -1.2212    1.1806   -0.0314 C   0  0  0  0  0  0  0  0  0  0  0  0
   -0.5497    1.9277    0.3968 H   0  0  0  0  0  0  0  0  0  0  0  0
   -0.9509    1.0404   -1.0789 H   0  0  0  0  0  0  0  0  0  0  0  0
   -2.6569    1.7217    0.0532 C   0  0  0  0  0  0  0  0  0  0  0  0
   -2.9829    2.0507   -0.9339 H   0  0  0  0  0  0  0  0  0  0  0  0
   -3.3197    0.9278    0.4024 H   0  0  0  0  0  0  0  0  0  0  0  0
   -2.7386    2.9082    1.0204 C   0  0  0  0  0  0  0  0  0  0  0  0
   -2.4078    2.5965    2.0116 H   0  0  0  0  0  0  0  0  0  0  0  0
   -2.0962    3.7135    0.6629 H   0  0  0  0  0  0  0  0  0  0  0  0
   -4.1788    3.4101    1.1046 C   0  0  0  0  0  0  0  0  0  0  0  0
   -4.5051    3.7393    0.1194 H   0  0  0  0  0  0  0  0  0  0  0  0
   -4.8245    2.6021    1.4444 H   0  0  0  0  0  0  0  0  0  0  0  0
   -4.2971    4.5330    2.0419 N   0  0  0  0  0  0  0  0  0  0  0  0
   -5.2562    4.8473    2.0619 H   0  0  0  0  0  0  0  0  0  0  0  0
   -4.0259    4.2243    2.9647 H   0  0  0  0  0  0  0  0  0  0  0  0
   -0.5564    0.0727    2.1744 C   0  0  0  0  0  0  0  0  0  0  0  0
    0.6169   -0.1288    2.4805 O   0  0  0  0  0  0  0  0  0  0  0  0
   -1.4759    0.4743    3.0595 N   0  0  0  0  0  0  0  0  0  0  0  0
   -2.4132    0.6318    2.7275 H   0  0  0  0  0  0  0  0  0  0  0  0
   -1.1971    0.7118    4.4750 C   0  0  0  0  0  0  0  0  0  0  0  0
   -0.3779    1.4272    4.5748 H   0  0  0  0  0  0  0  0  0  0  0  0
   -2.0826    1.1064    4.9754 H   0  0  0  0  0  0  0  0  0  0  0  0
   -0.8992   -0.2240    4.9525 H   0  0  0  0  0  0  0  0  0  0  0  0
  5  6  2  0  0  0  0
  5  7  1  0  0  0  0
  2  3  1  0  0  0  0
  2  4  1  0  0  0  0
  2  5  1  0  0  0  0
  1  2  1  0  0  0  0
 26 27  2  0  0  0  0
 26 28  1  0  0  0  0
 23 24  1  0  0  0  0
 23 25  1  0  0  0  0
 20 21  1  0  0  0  0
 20 22  1  0  0  0  0
 20 23  1  0  0  0  0
 17 18  1  0  0  0  0
 17 19  1  0  0  0  0
 17 20  1  0  0  0  0
 14 15  1  0  0  0  0
 14 16  1  0  0  0  0
 14 17  1  0  0  0  0
 11 12  1  0  0  0  0
 11 13  1  0  0  0  0
 11 14  1  0  0  0  0
  9 10  1  0  0  0  0
  9 11  1  0  0  0  0
  9 26  1  0  0  0  0
  7  8  1  0  0  0  0
  7  9  1  0  0  0  0
 30 31  1  0  0  0  0
 30 32  1  0  0  0  0
 30 33  1  0  0  0  0
 28 29  1  0  0  0  0
 28 30  1  0  0  0  0
M  END
$$$$
default_name
  -OEChem-02102213163D

 33 32  0     1  0  0  0  0  0999 V2000
   -3.8420   -3.6918    1.5562 H   0  0  0  0  0  0  0  0  0  0  0  0
   -3.8430   -2.7008    1.1032 C   0  0  0  0  0  0  0  0  0  0  0  0
   -4.5510   -2.0608    1.6242 H   0  0  0  0  0  0  0  0  0  0  0  0
   -4.1140   -2.7798    0.0522 H   0  0  0  0  0  0  0  0  0  0  0  0
   -2.4570   -2.1098    1.2172 C   0  0  0  0  0  0  0  0  0  0  0  0
   -1.5600   -2.7438    1.7572 O   0  0  0  0  0  0  0  0  0  0  0  0
   -2.2870   -0.8898    0.7102 N   0  0  0  0  0  0  0  0  0  0  0  0
   -3.0820   -0.4218    0.2992 H   0  0  0  0  0  0  0  0  0  0  0  0
   -1.0240   -0.1468    0.7262 C   0  0  1  0  0  0  0  0  0  0  0  0
   -0.2680   -0.7367    0.2062 H   0  0  0  0  0  0  0  0  0  0  0  0
   -1.2212    1.1806   -0.0314 C   0  0  0  0  0  0  0  0  0  0  0  0
   -0.5497    1.9277    0.3968 H   0  0  0  0  0  0  0  0  0  0  0  0
   -0.9509    1.0404   -1.0789 H   0  0  0  0  0  0  0  0  0  0  0  0
   -2.6569    1.7217    0.0532 C   0  0  0  0  0  0  0  0  0  0  0  0
   -3.0781    1.8005   -0.9494 H   0  0  0  0  0  0  0  0  0  0  0  0
   -3.2654    1.0341    0.6435 H   0  0  0  0  0  0  0  0  0  0  0  0
   -2.6820    3.1070    0.7090 C   0  0  0  0  0  0  0  0  0  0  0  0
   -2.2562    3.0460    1.7109 H   0  0  0  0  0  0  0  0  0  0  0  0
   -2.0948    3.8036    0.1098 H   0  0  0  0  0  0  0  0  0  0  0  0
   -4.1212    3.6100    0.8031 C   0  0  0  0  0  0  0  0  0  0  0  0
   -4.5425    3.6895   -0.1978 H   0  0  0  0  0  0  0  0  0  0  0  0
   -4.7132    2.9066    1.3862 H   0  0  0  0  0  0  0  0  0  0  0  0
   -4.1839    4.9263    1.4487 N   0  0  0  0  0  0  0  0  0  0  0  0
   -5.1450    5.2332    1.4813 H   0  0  0  0  0  0  0  0  0  0  0  0
   -3.8235    4.8514    2.3894 H   0  0  0  0  0  0  0  0  0  0  0  0
   -0.5564    0.0727    2.1744 C   0  0  0  0  0  0  0  0  0  0  0  0
    0.6169   -0.1288    2.4805 O   0  0  0  0  0  0  0  0  0  0  0  0
   -1.4759    0.4743    3.0595 N   0  0  0  0  0  0  0  0  0  0  0  0
   -2.4132    0.6318    2.7275 H   0  0  0  0  0  0  0  0  0  0  0  0
   -1.1971    0.7118    4.4750 C   0  0  0  0  0  0  0  0  0  0  0  0
   -0.3779    1.4272    4.5748 H   0  0  0  0  0  0  0  0  0  0  0  0
   -2.0826    1.1064    4.9754 H   0  0  0  0  0  0  0  0  0  0  0  0
   -0.8992   -0.2240    4.9525 H   0  0  0  0  0  0  0  0  0  0  0  0
  5  6  2  0  0  0  0
  5  7  1  0  0  0  0
  2  3  1  0  0  0  0
  2  4  1  0  0  0  0
  2  5  1  0  0  0  0
  1  2  1  0  0  0  0
 26 27  2  0  0  0  0
 26 28  1  0  0  0  0
 23 24  1  0  0  0  0
 23 25  1  0  0  0  0
 20 21  1  0  0  0  0
 20 22  1  0  0  0  0
 20 23  1  0  0  0  0
 17 18  1  0  0  0  0
 17 19  1  0  0  0  0
 17 20  1  0  0  0  0
 14 15  1  0  0  0  0
 14 16  1  0  0  0  0
 14 17  1  0  0  0  0
 11 12  1  0  0  0  0
 11 13  1  0  0  0  0
 11 14  1  0  0  0  0
  9 10  1  0  0  0  0
  9 11  1  0  0  0  0
  9 26  1  0  0  0  0
  7  8  1  0  0  0  0
  7  9  1  0  0  0  0
 30 31  1  0  0  0  0
 30 32  1  0  0  0  0
 30 33  1  0  0  0  0
 28 29  1  0  0  0  0
 28 30  1  0  0  0  0
M  END
$$$$
default_name
  -OEChem-02102213163D

 33 32  0     1  0  0  0  0  0999 V2000
   -3.8420   -3.6918    1.5562 H   0  0  0  0  0  0  0  0  0  0  0  0
   -3.8430   -2.7008    1.1032 C   0  0  0  0  0  0  0  0  0  0  0  0
   -4.5510   -2.0608    1.6242 H   0  0  0  0  0  0  0  0  0  0  0  0
   -4.1140   -2.7798    0.0522 H   0  0  0  0  0  0  0  0  0  0  0  0
   -2.4570   -2.1098    1.2172 C   0  0  0  0  0  0  0  0  0  0  0  0
   -1.5600   -2.7438    1.7572 O   0  0  0  0  0  0  0  0  0  0  0  0
   -2.2870   -0.8898    0.7102 N   0  0  0  0  0  0  0  0  0  0  0  0
   -3.0820   -0.4218    0.2992 H   0  0  0  0  0  0  0  0  0  0  0  0
   -1.0240   -0.1468    0.7262 C   0  0  1  0  0  0  0  0  0  0  0  0
   -0.2680   -0.7367    0.2062 H   0  0  0  0  0  0  0  0  0  0  0  0
   -1.2212    1.1806   -0.0314 C   0  0  0  0  0  0  0  0  0  0  0  0
   -0.5497    1.9277    0.3968 H   0  0  0  0  0  0  0  0  0  0  0  0
   -0.9509    1.0404   -1.0789 H   0  0  0  0  0  0  0  0  0  0  0  0
   -2.6569    1.7217    0.0532 C   0  0  0  0  0  0  0  0  0  0  0  0
   -3.1679    1.5537   -0.8952 H   0  0  0  0  0  0  0  0  0  0  0  0
   -3.1925    1.1959    0.8458 H   0  0  0  0  0  0  0  0  0  0  0  0
   -2.6586    3.2246    0.3549 C   0  0  0  0  0  0  0  0  0  0  0  0
   -2.1435    3.4096    1.2980 H   0  0  0  0  0  0  0  0  0  0  0  0
   -2.1452    3.7568   -0.4464 H   0  0  0  0  0  0  0  0  0  0  0  0
   -4.0959    3.7310    0.4582 C   0  0  0  0  0  0  0  0  0  0  0  0
   -4.6069    3.5641   -0.4887 H   0  0  0  0  0  0  0  0  0  0  0  0
   -4.6154    3.1881    1.2462 H   0  0  0  0  0  0  0  0  0  0  0  0
   -4.1342    5.1644    0.7703 N   0  0  0  0  0  0  0  0  0  0  0  0
   -5.0960    5.4670    0.8171 H   0  0  0  0  0  0  0  0  0  0  0  0
   -3.6894    5.3209    1.6636 H   0  0  0  0  0  0  0  0  0  0  0  0
   -0.5564    0.0727    2.1744 C   0  0  0  0  0  0  0  0  0  0  0  0
    0.6169   -0.1288    2.4805 O   0  0  0  0  0  0  0  0  0  0  0  0
   -1.4759    0.4743    3.0595 N   0  0  0  0  0  0  0  0  0  0  0  0
   -2.4132    0.6318    2.7275 H   0  0  0  0  0  0  0  0  0  0  0  0
   -1.1971    0.7118    4.4750 C   0  0  0  0  0  0  0  0  0  0  0  0
   -0.3779    1.4272    4.5748 H   0  0  0  0  0  0  0  0  0  0  0  0
   -2.0826    1.1064    4.9754 H   0  0  0  0  0  0  0  0  0  0  0  0
   -0.8992   -0.2240    4.9525 H   0  0  0  0  0  0  0  0  0  0  0  0
  5  6  2  0  0  0  0
  5  7  1  0  0  0  0
  2  3  1  0  0  0  0
  2  4  1  0  0  0  0
  2  5  1  0  0  0  0
  1  2  1  0  0  0  0
 26 27  2  0  0  0  0
 26 28  1  0  0  0  0
 23 24  1  0  0  0  0
 23 25  1  0  0  0  0
 20 21  1  0  0  0  0
 20 22  1  0  0  0  0
 20 23  1  0  0  0  0
 17 18  1  0  0  0  0
 17 19  1  0  0  0  0
 17 20  1  0  0  0  0
 14 15  1  0  0  0  0
 14 16  1  0  0  0  0
 14 17  1  0  0  0  0
 11 12  1  0  0  0  0
 11 13  1  0  0  0  0
 11 14  1  0  0  0  0
  9 10  1  0  0  0  0
  9 11  1  0  0  0  0
  9 26  1  0  0  0  0
  7  8  1  0  0  0  0
  7  9  1  0  0  0  0
 30 31  1  0  0  0  0
 30 32  1  0  0  0  0
 30 33  1  0  0  0  0
 28 29  1  0  0  0  0
 28 30  1  0  0  0  0
M  END
$$$$
default_name
  -OEChem-02102213163D

 33 32  0     1  0  0  0  0  0999 V2000
   -3.8420   -3.6918    1.5562 H   0  0  0  0  0  0  0  0  0  0  0  0
   -3.8430   -2.7008    1.1032 C   0  0  0  0  0  0  0  0  0  0  0  0
   -4.5510   -2.0608    1.6242 H   0  0  0  0  0  0  0  0  0  0  0  0
   -4.1140   -2.7798    0.0522 H   0  0  0  0  0  0  0  0  0  0  0  0
   -2.4570   -2.1098    1.2172 C   0  0  0  0  0  0  0  0  0  0  0  0
   -1.5600   -2.7438    1.7572 O   0  0  0  0  0  0  0  0  0  0  0  0
   -2.2870   -0.8898    0.7102 N   0  0  0  0  0  0  0  0  0  0  0  0
   -3.0820   -0.4218    0.2992 H   0  0  0  0  0  0  0  0  0  0  0  0
   -1.0240   -0.1468    0.7262 C   0  0  1  0  0  0  0  0  0  0  0  0
   -0.2680   -0.7367    0.2062 H   0  0  0  0  0  0  0  0  0  0  0  0
   -1.2212    1.1806   -0.0314 C   0  0  0  0  0  0  0  0  0  0  0  0
   -0.5497    1.9277    0.3968 H   0  0  0  0  0  0  0  0  0  0  0  0
   -0.9509    1.0404   -1.0789 H   0  0  0  0  0  0  0  0  0  0  0  0
   -2.6569    1.7217    0.0532 C   0  0  0  0  0  0  0  0  0  0  0  0
   -3.2462    1.3272   -0.7750 H   0  0  0  0  0  0  0  0  0  0  0  0
   -3.1060    1.4022    0.9954 H   0  0  0  0  0  0  0  0  0  0  0  0
   -2.6699    3.2529   -0.0176 C   0  0  0  0  0  0  0  0  0  0  0  0
   -2.0774    3.6627    0.8010 H   0  0  0  0  0  0  0  0  0  0  0  0
   -2.2439    3.5765   -0.9677 H   0  0  0  0  0  0  0  0  0  0  0  0
   -4.1047    3.7649    0.0935 C   0  0  0  0  0  0  0  0  0  0  0  0
   -4.6938    3.3718   -0.7334 H   0  0  0  0  0  0  0  0  0  0  0  0
   -4.5376    3.4277    1.0339 H   0  0  0  0  0  0  0  0  0  0  0  0
   -4.1514    5.2310    0.0529 N   0  0  0  0  0  0  0  0  0  0  0  0
   -5.1126    5.5330    0.1145 H   0  0  0  0  0  0  0  0  0  0  0  0
   -3.6326    5.6008    0.8368 H   0  0  0  0  0  0  0  0  0  0  0  0
   -0.5564    0.0727    2.1744 C   0  0  0  0  0  0  0  0  0  0  0  0
    0.6169   -0.1288    2.4805 O   0  0  0  0  0  0  0  0  0  0  0  0
   -1.4759    0.4743    3.0595 N   0  0  0  0  0  0  0  0  0  0  0  0
   -2.4132    0.6318    2.7275 H   0  0  0  0  0  0  0  0  0  0  0  0
   -1.1971    0.7118    4.4750 C   0  0  0  0  0  0  0  0  0  0  0  0
   -0.3779    1.4272    4.5748 H   0  0  0  0  0  0  0  0  0  0  0  0
   -2.0826    1.1064    4.9754 H   0  0  0  0  0  0  0  0  0  0  0  0
   -0.8992   -0.2240    4.9525 H   0  0  0  0  0  0  0  0  0  0  0  0
  5  6  2  0  0  0  0
  5  7  1  0  0  0  0
  2  3  1  0  0  0  0
  2  4  1  0  0  0  0
  2  5  1  0  0  0  0
  1  2  1  0  0  0  0
 26 27  2  0  0  0  0
 26 28  1  0  0  0  0
 23 24  1  0  0  0  0
 23 25  1  0  0  0  0
 20 21  1  0  0  0  0
 20 22  1  0  0  0  0
 20 23  1  0  0  0  0
 17 18  1  0  0  0  0
 17 19  1  0  0  0  0
 17 20  1  0  0  0  0
 14 15  1  0  0  0  0
 14 16  1  0  0  0  0
 14 17  1  0  0  0  0
 11 12  1  0  0  0  0
 11 13  1  0  0  0  0
 11 14  1  0  0  0  0
  9 10  1  0  0  0  0
  9 11  1  0  0  0  0
  9 26  1  0  0  0  0
  7  8  1  0  0  0  0
  7  9  1  0  0  0  0
 30 31  1  0  0  0  0
 30 32  1  0  0  0  0
 30 33  1  0  0  0  0
 28 29  1  0  0  0  0
 28 30  1  0  0  0  0
M  END
$$$$
default_name
  -OEChem-02102213163D

 33 32  0     1  0  0  0  0  0999 V2000
   -3.8420   -3.6918    1.5562 H   0  0  0  0  0  0  0  0  0  0  0  0
   -3.8430   -2.7008    1.1032 C   0  0  0  0  0  0  0  0  0  0  0  0
   -4.5510   -2.0608    1.6242 H   0  0  0  0  0  0  0  0  0  0  0  0
   -4.1140   -2.7798    0.0522 H   0  0  0  0  0  0  0  0  0  0  0  0
   -2.4570   -2.1098    1.2172 C   0  0  0  0  0  0  0  0  0  0  0  0
   -1.5600   -2.7438    1.7572 O   0  0  0  0  0  0  0  0  0  0  0  0
   -2.2870   -0.8898    0.7102 N   0  0  0  0  0  0  0  0  0  0  0  0
   -3.0820   -0.4218    0.2992 H   0  0  0  0  0  0  0  0  0  0  0  0
   -1.0240   -0.1468    0.7262 C   0  0  1  0  0  0  0  0  0  0  0  0
   -0.2680   -0.7367    0.2062 H   0  0  0  0  0  0  0  0  0  0  0  0
   -1.2212    1.1806   -0.0314 C   0  0  0  0  0  0  0  0  0  0  0  0
   -0.5497    1.9277    0.3968 H   0  0  0  0  0  0  0  0  0  0  0  0
   -0.9509    1.0404   -1.0789 H   0  0  0  0  0  0  0  0  0  0  0  0
   -2.6569    1.7217    0.0532 C   0  0  0  0  0  0  0  0  0  0  0  0
   -3.3076    1.1363   -0.5970 H   0  0  0  0  0  0  0  0  0  0  0  0
   -3.0117    1.6388    1.0822 H   0  0  0  0  0  0  0  0  0  0  0  0
   -2.7152    3.1900   -0.3832 C   0  0  0  0  0  0  0  0  0  0  0  0
   -2.0625    3.7878    0.2537 H   0  0  0  0  0  0  0  0  0  0  0  0
   -2.3842    3.2748   -1.4187 H   0  0  0  0  0  0  0  0  0  0  0  0
   -4.1469    3.7092   -0.2661 C   0  0  0  0  0  0  0  0  0  0  0  0
   -4.7974    3.1256   -0.9155 H   0  0  0  0  0  0  0  0  0  0  0  0
   -4.4853    3.6088    0.7639 H   0  0  0  0  0  0  0  0  0  0  0  0
   -4.2343    5.1216   -0.6545 N   0  0  0  0  0  0  0  0  0  0  0  0
   -5.1936    5.4266   -0.5787 H   0  0  0  0  0  0  0  0  0  0  0  0
   -3.6572    5.6721   -0.0347 H   0  0  0  0  0  0  0  0  0  0  0  0
   -0.5564    0.0727    2.1744 C   0  0  0  0  0  0  0  0  0  0  0  0
    0.6169   -0.1288    2.4805 O   0  0  0  0  0  0  0  0  0  0  0  0
   -1.4759    0.4743    3.0595 N   0  0  0  0  0  0  0  0  0  0  0  0
   -2.4132    0.6318    2.7275 H   0  0  0  0  0  0  0  0  0  0  0  0
   -1.1971    0.7118    4.4750 C   0  0  0  0  0  0  0  0  0  0  0  0
   -0.3779    1.4272    4.5748 H   0  0  0  0  0  0  0  0  0  0  0  0
   -2.0826    1.1064    4.9754 H   0  0  0  0  0  0  0  0  0  0  0  0
   -0.8992   -0.2240    4.9525 H   0  0  0  0  0  0  0  0  0  0  0  0
  5  6  2  0  0  0  0
  5  7  1  0  0  0  0
  2  3  1  0  0  0  0
  2  4  1  0  0  0  0
  2  5  1  0  0  0  0
  1  2  1  0  0  0  0
 26 27  2  0  0  0  0
 26 28  1  0  0  0  0
 23 24  1  0  0  0  0
 23 25  1  0  0  0  0
 20 21  1  0  0  0  0
 20 22  1  0  0  0  0
 20 23  1  0  0  0  0
 17 18  1  0  0  0  0
 17 19  1  0  0  0  0
 17 20  1  0  0  0  0
 14 15  1  0  0  0  0
 14 16  1  0  0  0  0
 14 17  1  0  0  0  0
 11 12  1  0  0  0  0
 11 13  1  0  0  0  0
 11 14  1  0  0  0  0
  9 10  1  0  0  0  0
  9 11  1  0  0  0  0
  9 26  1  0  0  0  0
  7  8  1  0  0  0  0
  7  9  1  0  0  0  0
 30 31  1  0  0  0  0
 30 32  1  0  0  0  0
 30 33  1  0  0  0  0
 28 29  1  0  0  0  0
 28 30  1  0  0  0  0
M  END
$$$$
default_name
  -OEChem-02102213163D

 33 32  0     1  0  0  0  0  0999 V2000
   -3.8420   -3.6918    1.5562 H   0  0  0  0  0  0  0  0  0  0  0  0
   -3.8430   -2.7008    1.1032 C   0  0  0  0  0  0  0  0  0  0  0  0
   -4.5510   -2.0608    1.6242 H   0  0  0  0  0  0  0  0  0  0  0  0
   -4.1140   -2.7798    0.0522 H   0  0  0  0  0  0  0  0  0  0  0  0
   -2.4570   -2.1098    1.2172 C   0  0  0  0  0  0  0  0  0  0  0  0
   -1.5600   -2.7438    1.7572 O   0  0  0  0  0  0  0  0  0  0  0  0
   -2.2870   -0.8898    0.7102 N   0  0  0  0  0  0  0  0  0  0  0  0
   -3.0820   -0.4218    0.2992 H   0  0  0  0  0  0  0  0  0  0  0  0
   -1.0240   -0.1468    0.7262 C   0  0  1  0  0  0  0  0  0  0  0  0
   -0.2680   -0.7367    0.2062 H   0  0  0  0  0  0  0  0  0  0  0  0
   -1.2212    1.1806   -0.0314 C   0  0  0  0  0  0  0  0  0  0  0  0
   -0.3836    1.8412    0.2019 H   0  0  0  0  0  0  0  0  0  0  0  0
   -1.2131    0.9867   -1.1049 H   0  0  0  0  0  0  0  0  0  0  0  0
   -2.5229    1.9066    0.3423 C   0  0  0  0  0  0  0  0  0  0  0  0
   -3.3767    1.2680    0.1140 H   0  0  0  0  0  0  0  0  0  0  0  0
   -2.5170    2.1267    1.4115 H   0  0  0  0  0  0  0  0  0  0  0  0
   -2.6634    3.2166   -0.4411 C   0  0  0  0  0  0  0  0  0  0  0  0
   -1.8117    3.8637   -0.2289 H   0  0  0  0  0  0  0  0  0  0  0  0
   -2.6939    2.9999   -1.5093 H   0  0  0  0  0  0  0  0  0  0  0  0
   -3.9514    3.9292   -0.0330 C   0  0  0  0  0  0  0  0  0  0  0  0
   -4.8046    3.2924   -0.2611 H   0  0  0  0  0  0  0  0  0  0  0  0
   -3.9305    4.1305    1.0367 H   0  0  0  0  0  0  0  0  0  0  0  0
   -4.1056    5.2011   -0.7483 N   0  0  0  0  0  0  0  0  0  0  0  0
   -4.9712    5.6367   -0.4655 H   0  0  0  0  0  0  0  0  0  0  0  0
   -3.3327    5.8082   -0.5152 H   0  0  0  0  0  0  0  0  0  0  0  0
   -0.5564    0.0727    2.1744 C   0  0  0  0  0  0  0  0  0  0  0  0
    0.6169   -0.1288    2.4805 O   0  0  0  0  0  0  0  0  0  0  0  0
   -1.4759    0.4743    3.0595 N   0  0  0  0  0  0  0  0  0  0  0  0
   -2.4132    0.6318    2.7275 H   0  0  0  0  0  0  0  0  0  0  0  0
   -1.1971    0.7118    4.4750 C   0  0  0  0  0  0  0  0  0  0  0  0
   -0.3779    1.4272    4.5748 H   0  0  0  0  0  0  0  0  0  0  0  0
   -2.0826    1.1064    4.9754 H   0  0  0  0  0  0  0  0  0  0  0  0
   -0.8992   -0.2240    4.9525 H   0  0  0  0  0  0  0  0  0  0  0  0
  5  6  2  0  0  0  0
  5  7  1  0  0  0  0
  2  3  1  0  0  0  0
  2  4  1  0  0  0  0
  2  5  1  0  0  0  0
  1  2  1  0  0  0  0
 26 27  2  0  0  0  0
 26 28  1  0  0  0  0
 23 24  1  0  0  0  0
 23 25  1  0  0  0  0
 20 21  1  0  0  0  0
 20 22  1  0  0  0  0
 20 23  1  0  0  0  0
 17 18  1  0  0  0  0
 17 19  1  0  0  0  0
 17 20  1  0  0  0  0
 14 15  1  0  0  0  0
 14 16  1  0  0  0  0
 14 17  1  0  0  0  0
 11 12  1  0  0  0  0
 11 13  1  0  0  0  0
 11 14  1  0  0  0  0
  9 10  1  0  0  0  0
  9 11  1  0  0  0  0
  9 26  1  0  0  0  0
  7  8  1  0  0  0  0
  7  9  1  0  0  0  0
 30 31  1  0  0  0  0
 30 32  1  0  0  0  0
 30 33  1  0  0  0  0
 28 29  1  0  0  0  0
 28 30  1  0  0  0  0
M  END
$$$$
default_name
  -OEChem-02102213163D

 33 32  0     1  0  0  0  0  0999 V2000
   -3.8420   -3.6918    1.5562 H   0  0  0  0  0  0  0  0  0  0  0  0
   -3.8430   -2.7008    1.1032 C   0  0  0  0  0  0  0  0  0  0  0  0
   -4.5510   -2.0608    1.6242 H   0  0  0  0  0  0  0  0  0  0  0  0
   -4.1140   -2.7798    0.0522 H   0  0  0  0  0  0  0  0  0  0  0  0
   -2.4570   -2.1098    1.2172 C   0  0  0  0  0  0  0  0  0  0  0  0
   -1.5600   -2.7438    1.7572 O   0  0  0  0  0  0  0  0  0  0  0  0
   -2.2870   -0.8898    0.7102 N   0  0  0  0  0  0  0  0  0  0  0  0
   -3.0820   -0.4218    0.2992 H   0  0  0  0  0  0  0  0  0  0  0  0
   -1.0240   -0.1468    0.7262 C   0  0  1  0  0  0  0  0  0  0  0  0
   -0.2680   -0.7367    0.2062 H   0  0  0  0  0  0  0  0  0  0  0  0
   -1.2212    1.1806   -0.0314 C   0  0  0  0  0  0  0  0  0  0  0  0
   -0.3836    1.8412    0.2019 H   0  0  0  0  0  0  0  0  0  0  0  0
   -1.2131    0.9867   -1.1049 H   0  0  0  0  0  0  0  0  0  0  0  0
   -2.5229    1.9066    0.3423 C   0  0  0  0  0  0  0  0  0  0  0  0
   -3.3459    1.1919    0.3692 H   0  0  0  0  0  0  0  0  0  0  0  0
   -2.4107    2.3597    1.3290 H   0  0  0  0  0  0  0  0  0  0  0  0
   -2.8527    3.0002   -0.6799 C   0  0  0  0  0  0  0  0  0  0  0  0
   -2.0343    3.7195   -0.7240 H   0  0  0  0  0  0  0  0  0  0  0  0
   -2.9894    2.5493   -1.6633 H   0  0  0  0  0  0  0  0  0  0  0  0
   -4.1358    3.7214   -0.2719 C   0  0  0  0  0  0  0  0  0  0  0  0
   -4.9584    3.0085   -0.2452 H   0  0  0  0  0  0  0  0  0  0  0  0
   -4.0072    4.1572    0.7176 H   0  0  0  0  0  0  0  0  0  0  0  0
   -4.4684    4.7925   -1.2182 N   0  0  0  0  0  0  0  0  0  0  0  0
   -5.3265    5.2370   -0.9263 H   0  0  0  0  0  0  0  0  0  0  0  0
   -3.7226    5.4736   -1.2232 H   0  0  0  0  0  0  0  0  0  0  0  0
   -0.5564    0.0727    2.1744 C   0  0  0  0  0  0  0  0  0  0  0  0
    0.6169   -0.1288    2.4805 O   0  0  0  0  0  0  0  0  0  0  0  0
   -1.4759    0.4743    3.0595 N   0  0  0  0  0  0  0  0  0  0  0  0
   -2.4132    0.6318    2.7275 H   0  0  0  0  0  0  0  0  0  0  0  0
   -1.1971    0.7118    4.4750 C   0  0  0  0  0  0  0  0  0  0  0  0
   -0.3779    1.4272    4.5748 H   0  0  0  0  0  0  0  0  0  0  0  0
   -2.0826    1.1064    4.9754 H   0  0  0  0  0  0  0  0  0  0  0  0
   -0.8992   -0.2240    4.9525 H   0  0  0  0  0  0  0  0  0  0  0  0
  5  6  2  0  0  0  0
  5  7  1  0  0  0  0
  2  3  1  0  0  0  0
  2  4  1  0  0  0  0
  2  5  1  0  0  0  0
  1  2  1  0  0  0  0
 26 27  2  0  0  0  0
 26 28  1  0  0  0  0
 23 24  1  0  0  0  0
 23 25  1  0  0  0  0
 20 21  1  0  0  0  0
 20 22  1  0  0  0  0
 20 23  1  0  0  0  0
 17 18  1  0  0  0  0
 17 19  1  0  0  0  0
 17 20  1  0  0  0  0
 14 15  1  0  0  0  0
 14 16  1  0  0  0  0
 14 17  1  0  0  0  0
 11 12  1  0  0  0  0
 11 13  1  0  0  0  0
 11 14  1  0  0  0  0
  9 10  1  0  0  0  0
  9 11  1  0  0  0  0
  9 26  1  0  0  0  0
  7  8  1  0  0  0  0
  7  9  1  0  0  0  0
 30 31  1  0  0  0  0
 30 32  1  0  0  0  0
 30 33  1  0  0  0  0
 28 29  1  0  0  0  0
 28 30  1  0  0  0  0
M  END
$$$$
default_name
  -OEChem-02102213163D

 33 32  0     1  0  0  0  0  0999 V2000
   -3.8420   -3.6918    1.5562 H   0  0  0  0  0  0  0  0  0  0  0  0
   -3.8430   -2.7008    1.1032 C   0  0  0  0  0  0  0  0  0  0  0  0
   -4.5510   -2.0608    1.6242 H   0  0  0  0  0  0  0  0  0  0  0  0
   -4.1140   -2.7798    0.0522 H   0  0  0  0  0  0  0  0  0  0  0  0
   -2.4570   -2.1098    1.2172 C   0  0  0  0  0  0  0  0  0  0  0  0
   -1.5600   -2.7438    1.7572 O   0  0  0  0  0  0  0  0  0  0  0  0
   -2.2870   -0.8898    0.7102 N   0  0  0  0  0  0  0  0  0  0  0  0
   -3.0820   -0.4218    0.2992 H   0  0  0  0  0  0  0  0  0  0  0  0
   -1.0240   -0.1468    0.7262 C   0  0  1  0  0  0  0  0  0  0  0  0
   -0.2680   -0.7367    0.2062 H   0  0  0  0  0  0  0  0  0  0  0  0
   -1.2212    1.1806   -0.0314 C   0  0  0  0  0  0  0  0  0  0  0  0
   -0.3836    1.8412    0.2019 H   0  0  0  0  0  0  0  0  0  0  0  0
   -1.2131    0.9867   -1.1049 H   0  0  0  0  0  0  0  0  0  0  0  0
   -2.5229    1.9066    0.3423 C   0  0  0  0  0  0  0  0  0  0  0  0
   -3.2802    1.1762    0.6287 H   0  0  0  0  0  0  0  0  0  0  0  0
   -2.3328    2.5735    1.1853 H   0  0  0  0  0  0  0  0  0  0  0  0
   -3.0511    2.7268   -0.8400 C   0  0  0  0  0  0  0  0  0  0  0  0
   -2.3008    3.4576   -1.1434 H   0  0  0  0  0  0  0  0  0  0  0  0
   -3.2653    2.0617   -1.6771 H   0  0  0  0  0  0  0  0  0  0  0  0
   -4.3301    3.4568   -0.4344 C   0  0  0  0  0  0  0  0  0  0  0  0
   -5.0870    2.7281   -0.1487 H   0  0  0  0  0  0  0  0  0  0  0  0
   -4.1221    4.1082    0.4128 H   0  0  0  0  0  0  0  0  0  0  0  0
   -4.8506    4.2719   -1.5381 N   0  0  0  0  0  0  0  0  0  0  0  0
   -5.7008    4.7274   -1.2403 H   0  0  0  0  0  0  0  0  0  0  0  0
   -4.1647    4.9707   -1.7860 H   0  0  0  0  0  0  0  0  0  0  0  0
   -0.5564    0.0727    2.1744 C   0  0  0  0  0  0  0  0  0  0  0  0
    0.6169   -0.1288    2.4805 O   0  0  0  0  0  0  0  0  0  0  0  0
   -1.4759    0.4743    3.0595 N   0  0  0  0  0  0  0  0  0  0  0  0
   -2.4132    0.6318    2.7275 H   0  0  0  0  0  0  0  0  0  0  0  0
   -1.1971    0.7118    4.4750 C   0  0  0  0  0  0  0  0  0  0  0  0
   -0.3779    1.4272    4.5748 H   0  0  0  0  0  0  0  0  0  0  0  0
   -2.0826    1.1064    4.9754 H   0  0  0  0  0  0  0  0  0  0  0  0
   -0.8992   -0.2240    4.9525 H   0  0  0  0  0  0  0  0  0  0  0  0
  5  6  2  0  0  0  0
  5  7  1  0  0  0  0
  2  3  1  0  0  0  0
  2  4  1  0  0  0  0
  2  5  1  0  0  0  0
  1  2  1  0  0  0  0
 26 27  2  0  0  0  0
 26 28  1  0  0  0  0
 23 24  1  0  0  0  0
 23 25  1  0  0  0  0
 20 21  1  0  0  0  0
 20 22  1  0  0  0  0
 20 23  1  0  0  0  0
 17 18  1  0  0  0  0
 17 19  1  0  0  0  0
 17 20  1  0  0  0  0
 14 15  1  0  0  0  0
 14 16  1  0  0  0  0
 14 17  1  0  0  0  0
 11 12  1  0  0  0  0
 11 13  1  0  0  0  0
 11 14  1  0  0  0  0
  9 10  1  0  0  0  0
  9 11  1  0  0  0  0
  9 26  1  0  0  0  0
  7  8  1  0  0  0  0
  7  9  1  0  0  0  0
 30 31  1  0  0  0  0
 30 32  1  0  0  0  0
 30 33  1  0  0  0  0
 28 29  1  0  0  0  0
 28 30  1  0  0  0  0
M  END
$$$$
default_name
  -OEChem-02102213163D

 33 32  0     1  0  0  0  0  0999 V2000
   -3.8420   -3.6918    1.5562 H   0  0  0  0  0  0  0  0  0  0  0  0
   -3.8430   -2.7008    1.1032 C   0  0  0  0  0  0  0  0  0  0  0  0
   -4.5510   -2.0608    1.6242 H   0  0  0  0  0  0  0  0  0  0  0  0
   -4.1140   -2.7798    0.0522 H   0  0  0  0  0  0  0  0  0  0  0  0
   -2.4570   -2.1098    1.2172 C   0  0  0  0  0  0  0  0  0  0  0  0
   -1.5600   -2.7438    1.7572 O   0  0  0  0  0  0  0  0  0  0  0  0
   -2.2870   -0.8898    0.7102 N   0  0  0  0  0  0  0  0  0  0  0  0
   -3.0820   -0.4218    0.2992 H   0  0  0  0  0  0  0  0  0  0  0  0
   -1.0240   -0.1468    0.7262 C   0  0  1  0  0  0  0  0  0  0  0  0
   -0.2680   -0.7367    0.2062 H   0  0  0  0  0  0  0  0  0  0  0  0
   -1.2212    1.1806   -0.0314 C   0  0  0  0  0  0  0  0  0  0  0  0
   -0.3836    1.8412    0.2019 H   0  0  0  0  0  0  0  0  0  0  0  0
   -1.2131    0.9867   -1.1049 H   0  0  0  0  0  0  0  0  0  0  0  0
   -2.5229    1.9066    0.3423 C   0  0  0  0  0  0  0  0  0  0  0  0
   -3.1839    1.2221    0.8747 H   0  0  0  0  0  0  0  0  0  0  0  0
   -2.2885    2.7533    0.9901 H   0  0  0  0  0  0  0  0  0  0  0  0
   -3.2451    2.4152   -0.9105 C   0  0  0  0  0  0  0  0  0  0  0  0
   -2.5929    3.0959   -1.4585 H   0  0  0  0  0  0  0  0  0  0  0  0
   -3.5028    1.5703   -1.5498 H   0  0  0  0  0  0  0  0  0  0  0  0
   -4.5210    3.1533   -0.5097 C   0  0  0  0  0  0  0  0  0  0  0  0
   -5.1819    2.4703    0.0216 H   0  0  0  0  0  0  0  0  0  0  0  0
   -4.2672    3.9868    0.1432 H   0  0  0  0  0  0  0  0  0  0  0  0
   -5.2261    3.6748   -1.6862 N   0  0  0  0  0  0  0  0  0  0  0  0
   -6.0686    4.1429   -1.3861 H   0  0  0  0  0  0  0  0  0  0  0  0
   -4.6288    4.3336   -2.1653 H   0  0  0  0  0  0  0  0  0  0  0  0
   -0.5564    0.0727    2.1744 C   0  0  0  0  0  0  0  0  0  0  0  0
    0.6169   -0.1288    2.4805 O   0  0  0  0  0  0  0  0  0  0  0  0
   -1.4759    0.4743    3.0595 N   0  0  0  0  0  0  0  0  0  0  0  0
   -2.4132    0.6318    2.7275 H   0  0  0  0  0  0  0  0  0  0  0  0
   -1.1971    0.7118    4.4750 C   0  0  0  0  0  0  0  0  0  0  0  0
   -0.3779    1.4272    4.5748 H   0  0  0  0  0  0  0  0  0  0  0  0
   -2.0826    1.1064    4.9754 H   0  0  0  0  0  0  0  0  0  0  0  0
   -0.8992   -0.2240    4.9525 H   0  0  0  0  0  0  0  0  0  0  0  0
  5  6  2  0  0  0  0
  5  7  1  0  0  0  0
  2  3  1  0  0  0  0
  2  4  1  0  0  0  0
  2  5  1  0  0  0  0
  1  2  1  0  0  0  0
 26 27  2  0  0  0  0
 26 28  1  0  0  0  0
 23 24  1  0  0  0  0
 23 25  1  0  0  0  0
 20 21  1  0  0  0  0
 20 22  1  0  0  0  0
 20 23  1  0  0  0  0
 17 18  1  0  0  0  0
 17 19  1  0  0  0  0
 17 20  1  0  0  0  0
 14 15  1  0  0  0  0
 14 16  1  0  0  0  0
 14 17  1  0  0  0  0
 11 12  1  0  0  0  0
 11 13  1  0  0  0  0
 11 14  1  0  0  0  0
  9 10  1  0  0  0  0
  9 11  1  0  0  0  0
  9 26  1  0  0  0  0
  7  8  1  0  0  0  0
  7  9  1  0  0  0  0
 30 31  1  0  0  0  0
 30 32  1  0  0  0  0
 30 33  1  0  0  0  0
 28 29  1  0  0  0  0
 28 30  1  0  0  0  0
M  END
$$$$
default_name
  -OEChem-02102213163D

 33 32  0     1  0  0  0  0  0999 V2000
   -3.8420   -3.6918    1.5562 H   0  0  0  0  0  0  0  0  0  0  0  0
   -3.8430   -2.7008    1.1032 C   0  0  0  0  0  0  0  0  0  0  0  0
   -4.5510   -2.0608    1.6242 H   0  0  0  0  0  0  0  0  0  0  0  0
   -4.1140   -2.7798    0.0522 H   0  0  0  0  0  0  0  0  0  0  0  0
   -2.4570   -2.1098    1.2172 C   0  0  0  0  0  0  0  0  0  0  0  0
   -1.5600   -2.7438    1.7572 O   0  0  0  0  0  0  0  0  0  0  0  0
   -2.2870   -0.8898    0.7102 N   0  0  0  0  0  0  0  0  0  0  0  0
   -3.0820   -0.4218    0.2992 H   0  0  0  0  0  0  0  0  0  0  0  0
   -1.0240   -0.1468    0.7262 C   0  0  1  0  0  0  0  0  0  0  0  0
   -0.2680   -0.7367    0.2062 H   0  0  0  0  0  0  0  0  0  0  0  0
   -1.2212    1.1806   -0.0314 C   0  0  0  0  0  0  0  0  0  0  0  0
   -0.3836    1.8412    0.2019 H   0  0  0  0  0  0  0  0  0  0  0  0
   -1.2131    0.9867   -1.1049 H   0  0  0  0  0  0  0  0  0  0  0  0
   -2.5229    1.9066    0.3423 C   0  0  0  0  0  0  0  0  0  0  0  0
   -3.0638    1.3264    1.0905 H   0  0  0  0  0  0  0  0  0  0  0  0
   -2.2810    2.8870    0.7567 H   0  0  0  0  0  0  0  0  0  0  0  0
   -3.4215    2.0866   -0.8865 C   0  0  0  0  0  0  0  0  0  0  0  0
   -2.8909    2.6591   -1.6478 H   0  0  0  0  0  0  0  0  0  0  0  0
   -3.6857    1.1086   -1.2900 H   0  0  0  0  0  0  0  0  0  0  0  0
   -4.6954    2.8316   -0.4925 C   0  0  0  0  0  0  0  0  0  0  0  0
   -5.2365    2.2527    0.2543 H   0  0  0  0  0  0  0  0  0  0  0  0
   -4.4326    3.8012   -0.0728 H   0  0  0  0  0  0  0  0  0  0  0  0
   -5.5693    3.0420   -1.6524 N   0  0  0  0  0  0  0  0  0  0  0  0
   -6.4050    3.5231   -1.3538 H   0  0  0  0  0  0  0  0  0  0  0  0
   -5.0835    3.6059   -2.3353 H   0  0  0  0  0  0  0  0  0  0  0  0
   -0.5564    0.0727    2.1744 C   0  0  0  0  0  0  0  0  0  0  0  0
    0.6169   -0.1288    2.4805 O   0  0  0  0  0  0  0  0  0  0  0  0
   -1.4759    0.4743    3.0595 N   0  0  0  0  0  0  0  0  0  0  0  0
   -2.4132    0.6318    2.7275 H   0  0  0  0  0  0  0  0  0  0  0  0
   -1.1971    0.7118    4.4750 C   0  0  0  0  0  0  0  0  0  0  0  0
   -0.3779    1.4272    4.5748 H   0  0  0  0  0  0  0  0  0  0  0  0
   -2.0826    1.1064    4.9754 H   0  0  0  0  0  0  0  0  0  0  0  0
   -0.8992   -0.2240    4.9525 H   0  0  0  0  0  0  0  0  0  0  0  0
  5  6  2  0  0  0  0
  5  7  1  0  0  0  0
  2  3  1  0  0  0  0
  2  4  1  0  0  0  0
  2  5  1  0  0  0  0
  1  2  1  0  0  0  0
 26 27  2  0  0  0  0
 26 28  1  0  0  0  0
 23 24  1  0  0  0  0
 23 25  1  0  0  0  0
 20 21  1  0  0  0  0
 20 22  1  0  0  0  0
 20 23  1  0  0  0  0
 17 18  1  0  0  0  0
 17 19  1  0  0  0  0
 17 20  1  0  0  0  0
 14 15  1  0  0  0  0
 14 16  1  0  0  0  0
 14 17  1  0  0  0  0
 11 12  1  0  0  0  0
 11 13  1  0  0  0  0
 11 14  1  0  0  0  0
  9 10  1  0  0  0  0
  9 11  1  0  0  0  0
  9 26  1  0  0  0  0
  7  8  1  0  0  0  0
  7  9  1  0  0  0  0
 30 31  1  0  0  0  0
 30 32  1  0  0  0  0
 30 33  1  0  0  0  0
 28 29  1  0  0  0  0
 28 30  1  0  0  0  0
M  END
$$$$
default_name
  -OEChem-02102213163D

 33 32  0     1  0  0  0  0  0999 V2000
   -3.8420   -3.6918    1.5562 H   0  0  0  0  0  0  0  0  0  0  0  0
   -3.8430   -2.7008    1.1032 C   0  0  0  0  0  0  0  0  0  0  0  0
   -4.5510   -2.0608    1.6242 H   0  0  0  0  0  0  0  0  0  0  0  0
   -4.1140   -2.7798    0.0522 H   0  0  0  0  0  0  0  0  0  0  0  0
   -2.4570   -2.1098    1.2172 C   0  0  0  0  0  0  0  0  0  0  0  0
   -1.5600   -2.7438    1.7572 O   0  0  0  0  0  0  0  0  0  0  0  0
   -2.2870   -0.8898    0.7102 N   0  0  0  0  0  0  0  0  0  0  0  0
   -3.0820   -0.4218    0.2992 H   0  0  0  0  0  0  0  0  0  0  0  0
   -1.0240   -0.1468    0.7262 C   0  0  1  0  0  0  0  0  0  0  0  0
   -0.2680   -0.7367    0.2062 H   0  0  0  0  0  0  0  0  0  0  0  0
   -1.2212    1.1806   -0.0314 C   0  0  0  0  0  0  0  0  0  0  0  0
   -0.3836    1.8412    0.2019 H   0  0  0  0  0  0  0  0  0  0  0  0
   -1.2131    0.9867   -1.1049 H   0  0  0  0  0  0  0  0  0  0  0  0
   -2.5229    1.9066    0.3423 C   0  0  0  0  0  0  0  0  0  0  0  0
   -2.9279    1.4821    1.2614 H   0  0  0  0  0  0  0  0  0  0  0  0
   -2.3106    2.9655    0.5010 H   0  0  0  0  0  0  0  0  0  0  0  0
   -3.5683    1.7632   -0.7696 C   0  0  0  0  0  0  0  0  0  0  0  0
   -3.1744    2.1769   -1.6985 H   0  0  0  0  0  0  0  0  0  0  0  0
   -3.8015    0.7081   -0.9155 H   0  0  0  0  0  0  0  0  0  0  0  0
   -4.8416    2.5137   -0.3840 C   0  0  0  0  0  0  0  0  0  0  0  0
   -5.2470    2.0901    0.5334 H   0  0  0  0  0  0  0  0  0  0  0  0
   -4.6072    3.5643   -0.2206 H   0  0  0  0  0  0  0  0  0  0  0  0
   -5.8568    2.4166   -1.4391 N   0  0  0  0  0  0  0  0  0  0  0  0
   -6.6869    2.9103   -1.1456 H   0  0  0  0  0  0  0  0  0  0  0  0
   -5.4976    2.8371   -2.2843 H   0  0  0  0  0  0  0  0  0  0  0  0
   -0.5564    0.0727    2.1744 C   0  0  0  0  0  0  0  0  0  0  0  0
    0.6169   -0.1288    2.4805 O   0  0  0  0  0  0  0  0  0  0  0  0
   -1.4759    0.4743    3.0595 N   0  0  0  0  0  0  0  0  0  0  0  0
   -2.4132    0.6318    2.7275 H   0  0  0  0  0  0  0  0  0  0  0  0
   -1.1971    0.7118    4.4750 C   0  0  0  0  0  0  0  0  0  0  0  0
   -0.3779    1.4272    4.5748 H   0  0  0  0  0  0  0  0  0  0  0  0
   -2.0826    1.1064    4.9754 H   0  0  0  0  0  0  0  0  0  0  0  0
   -0.8992   -0.2240    4.9525 H   0  0  0  0  0  0  0  0  0  0  0  0
  5  6  2  0  0  0  0
  5  7  1  0  0  0  0
  2  3  1  0  0  0  0
  2  4  1  0  0  0  0
  2  5  1  0  0  0  0
  1  2  1  0  0  0  0
 26 27  2  0  0  0  0
 26 28  1  0  0  0  0
 23 24  1  0  0  0  0
 23 25  1  0  0  0  0
 20 21  1  0  0  0  0
 20 22  1  0  0  0  0
 20 23  1  0  0  0  0
 17 18  1  0  0  0  0
 17 19  1  0  0  0  0
 17 20  1  0  0  0  0
 14 15  1  0  0  0  0
 14 16  1  0  0  0  0
 14 17  1  0  0  0  0
 11 12  1  0  0  0  0
 11 13  1  0  0  0  0
 11 14  1  0  0  0  0
  9 10  1  0  0  0  0
  9 11  1  0  0  0  0
  9 26  1  0  0  0  0
  7  8  1  0  0  0  0
  7  9  1  0  0  0  0
 30 31  1  0  0  0  0
 30 32  1  0  0  0  0
 30 33  1  0  0  0  0
 28 29  1  0  0  0  0
 28 30  1  0  0  0  0
M  END
$$$$
default_name
  -OEChem-02102213163D

 33 32  0     1  0  0  0  0  0999 V2000
   -3.8420   -3.6918    1.5562 H   0  0  0  0  0  0  0  0  0  0  0  0
   -3.8430   -2.7008    1.1032 C   0  0  0  0  0  0  0  0  0  0  0  0
   -4.5510   -2.0608    1.6242 H   0  0  0  0  0  0  0  0  0  0  0  0
   -4.1140   -2.7798    0.0522 H   0  0  0  0  0  0  0  0  0  0  0  0
   -2.4570   -2.1098    1.2172 C   0  0  0  0  0  0  0  0  0  0  0  0
   -1.5600   -2.7438    1.7572 O   0  0  0  0  0  0  0  0  0  0  0  0
   -2.2870   -0.8898    0.7102 N   0  0  0  0  0  0  0  0  0  0  0  0
   -3.0820   -0.4218    0.2992 H   0  0  0  0  0  0  0  0  0  0  0  0
   -1.0240   -0.1468    0.7262 C   0  0  1  0  0  0  0  0  0  0  0  0
   -0.2680   -0.7367    0.2062 H   0  0  0  0  0  0  0  0  0  0  0  0
   -1.2212    1.1806   -0.0314 C   0  0  0  0  0  0  0  0  0  0  0  0
   -0.3836    1.8412    0.2019 H   0  0  0  0  0  0  0  0  0  0  0  0
   -1.2131    0.9867   -1.1049 H   0  0  0  0  0  0  0  0  0  0  0  0
   -2.5229    1.9066    0.3423 C   0  0  0  0  0  0  0  0  0  0  0  0
   -2.7856    1.6784    1.3757 H   0  0  0  0  0  0  0  0  0  0  0  0
   -2.3755    2.9833    0.2404 H   0  0  0  0  0  0  0  0  0  0  0  0
   -3.6754    1.4673   -0.5680 C   0  0  0  0  0  0  0  0  0  0  0  0
   -3.4240    1.6822   -1.6070 H   0  0  0  0  0  0  0  0  0  0  0  0
   -3.8424    0.3961   -0.4518 H   0  0  0  0  0  0  0  0  0  0  0  0
   -4.9495    2.2212   -0.1917 C   0  0  0  0  0  0  0  0  0  0  0  0
   -5.2128    1.9936    0.8400 H   0  0  0  0  0  0  0  0  0  0  0  0
   -4.7790    3.2920   -0.2900 H   0  0  0  0  0  0  0  0  0  0  0  0
   -6.0691    1.8411   -1.0607 N   0  0  0  0  0  0  0  0  0  0  0  0
   -6.8952    2.3464   -0.7756 H   0  0  0  0  0  0  0  0  0  0  0  0
   -5.8430    2.0796   -2.0159 H   0  0  0  0  0  0  0  0  0  0  0  0
   -0.5564    0.0727    2.1744 C   0  0  0  0  0  0  0  0  0  0  0  0
    0.6169   -0.1288    2.4805 O   0  0  0  0  0  0  0  0  0  0  0  0
   -1.4759    0.4743    3.0595 N   0  0  0  0  0  0  0  0  0  0  0  0
   -2.4132    0.6318    2.7275 H   0  0  0  0  0  0  0  0  0  0  0  0
   -1.1971    0.7118    4.4750 C   0  0  0  0  0  0  0  0  0  0  0  0
   -0.3779    1.4272    4.5748 H   0  0  0  0  0  0  0  0  0  0  0  0
   -2.0826    1.1064    4.9754 H   0  0  0  0  0  0  0  0  0  0  0  0
   -0.8992   -0.2240    4.9525 H   0  0  0  0  0  0  0  0  0  0  0  0
  5  6  2  0  0  0  0
  5  7  1  0  0  0  0
  2  3  1  0  0  0  0
  2  4  1  0  0  0  0
  2  5  1  0  0  0  0
  1  2  1  0  0  0  0
 26 27  2  0  0  0  0
 26 28  1  0  0  0  0
 23 24  1  0  0  0  0
 23 25  1  0  0  0  0
 20 21  1  0  0  0  0
 20 22  1  0  0  0  0
 20 23  1  0  0  0  0
 17 18  1  0  0  0  0
 17 19  1  0  0  0  0
 17 20  1  0  0  0  0
 14 15  1  0  0  0  0
 14 16  1  0  0  0  0
 14 17  1  0  0  0  0
 11 12  1  0  0  0  0
 11 13  1  0  0  0  0
 11 14  1  0  0  0  0
  9 10  1  0  0  0  0
  9 11  1  0  0  0  0
  9 26  1  0  0  0  0
  7  8  1  0  0  0  0
  7  9  1  0  0  0  0
 30 31  1  0  0  0  0
 30 32  1  0  0  0  0
 30 33  1  0  0  0  0
 28 29  1  0  0  0  0
 28 30  1  0  0  0  0
M  END
$$$$
default_name
  -OEChem-02102213163D

 33 32  0     1  0  0  0  0  0999 V2000
   -3.8420   -3.6918    1.5562 H   0  0  0  0  0  0  0  0  0  0  0  0
   -3.8430   -2.7008    1.1032 C   0  0  0  0  0  0  0  0  0  0  0  0
   -4.5510   -2.0608    1.6242 H   0  0  0  0  0  0  0  0  0  0  0  0
   -4.1140   -2.7798    0.0522 H   0  0  0  0  0  0  0  0  0  0  0  0
   -2.4570   -2.1098    1.2172 C   0  0  0  0  0  0  0  0  0  0  0  0
   -1.5600   -2.7438    1.7572 O   0  0  0  0  0  0  0  0  0  0  0  0
   -2.2870   -0.8898    0.7102 N   0  0  0  0  0  0  0  0  0  0  0  0
   -3.0820   -0.4218    0.2992 H   0  0  0  0  0  0  0  0  0  0  0  0
   -1.0240   -0.1468    0.7262 C   0  0  1  0  0  0  0  0  0  0  0  0
   -0.2680   -0.7367    0.2062 H   0  0  0  0  0  0  0  0  0  0  0  0
   -1.2212    1.1806   -0.0314 C   0  0  0  0  0  0  0  0  0  0  0  0
   -0.3836    1.8412    0.2019 H   0  0  0  0  0  0  0  0  0  0  0  0
   -1.2131    0.9867   -1.1049 H   0  0  0  0  0  0  0  0  0  0  0  0
   -2.5229    1.9066    0.3423 C   0  0  0  0  0  0  0  0  0  0  0  0
   -2.6465    1.9021    1.4257 H   0  0  0  0  0  0  0  0  0  0  0  0
   -2.4711    2.9394   -0.0072 H   0  0  0  0  0  0  0  0  0  0  0  0
   -3.7356    1.2190   -0.2952 C   0  0  0  0  0  0  0  0  0  0  0  0
   -3.6228    1.2086   -1.3797 H   0  0  0  0  0  0  0  0  0  0  0  0
   -3.8055    0.1938    0.0695 H   0  0  0  0  0  0  0  0  0  0  0  0
   -5.0118    1.9740    0.0715 C   0  0  0  0  0  0  0  0  0  0  0  0
   -5.1362    1.9697    1.1531 H   0  0  0  0  0  0  0  0  0  0  0  0
   -4.9363    3.0029   -0.2764 H   0  0  0  0  0  0  0  0  0  0  0  0
   -6.1917    1.3549   -0.5431 N   0  0  0  0  0  0  0  0  0  0  0  0
   -7.0157    1.8696   -0.2691 H   0  0  0  0  0  0  0  0  0  0  0  0
   -6.0961    1.3850   -1.5482 H   0  0  0  0  0  0  0  0  0  0  0  0
   -0.5564    0.0727    2.1744 C   0  0  0  0  0  0  0  0  0  0  0  0
    0.6169   -0.1288    2.4805 O   0  0  0  0  0  0  0  0  0  0  0  0
   -1.4759    0.4743    3.0595 N   0  0  0  0  0  0  0  0  0  0  0  0
   -2.4132    0.6318    2.7275 H   0  0  0  0  0  0  0  0  0  0  0  0
   -1.1971    0.7118    4.4750 C   0  0  0  0  0  0  0  0  0  0  0  0
   -0.3779    1.4272    4.5748 H   0  0  0  0  0  0  0  0  0  0  0  0
   -2.0826    1.1064    4.9754 H   0  0  0  0  0  0  0  0  0  0  0  0
   -0.8992   -0.2240    4.9525 H   0  0  0  0  0  0  0  0  0  0  0  0
  5  6  2  0  0  0  0
  5  7  1  0  0  0  0
  2  3  1  0  0  0  0
  2  4  1  0  0  0  0
  2  5  1  0  0  0  0
  1  2  1  0  0  0  0
 26 27  2  0  0  0  0
 26 28  1  0  0  0  0
 23 24  1  0  0  0  0
 23 25  1  0  0  0  0
 20 21  1  0  0  0  0
 20 22  1  0  0  0  0
 20 23  1  0  0  0  0
 17 18  1  0  0  0  0
 17 19  1  0  0  0  0
 17 20  1  0  0  0  0
 14 15  1  0  0  0  0
 14 16  1  0  0  0  0
 14 17  1  0  0  0  0
 11 12  1  0  0  0  0
 11 13  1  0  0  0  0
 11 14  1  0  0  0  0
  9 10  1  0  0  0  0
  9 11  1  0  0  0  0
  9 26  1  0  0  0  0
  7  8  1  0  0  0  0
  7  9  1  0  0  0  0
 30 31  1  0  0  0  0
 30 32  1  0  0  0  0
 30 33  1  0  0  0  0
 28 29  1  0  0  0  0
 28 30  1  0  0  0  0
M  END
$$$$
default_name
  -OEChem-02102213163D

 33 32  0     1  0  0  0  0  0999 V2000
   -3.8420   -3.6918    1.5562 H   0  0  0  0  0  0  0  0  0  0  0  0
   -3.8430   -2.7008    1.1032 C   0  0  0  0  0  0  0  0  0  0  0  0
   -4.5510   -2.0608    1.6242 H   0  0  0  0  0  0  0  0  0  0  0  0
   -4.1140   -2.7798    0.0522 H   0  0  0  0  0  0  0  0  0  0  0  0
   -2.4570   -2.1098    1.2172 C   0  0  0  0  0  0  0  0  0  0  0  0
   -1.5600   -2.7438    1.7572 O   0  0  0  0  0  0  0  0  0  0  0  0
   -2.2870   -0.8898    0.7102 N   0  0  0  0  0  0  0  0  0  0  0  0
   -3.0820   -0.4218    0.2992 H   0  0  0  0  0  0  0  0  0  0  0  0
   -1.0240   -0.1468    0.7262 C   0  0  1  0  0  0  0  0  0  0  0  0
   -0.2680   -0.7367    0.2062 H   0  0  0  0  0  0  0  0  0  0  0  0
   -1.2212    1.1806   -0.0314 C   0  0  0  0  0  0  0  0  0  0  0  0
   -0.3836    1.8412    0.2019 H   0  0  0  0  0  0  0  0  0  0  0  0
   -1.2131    0.9867   -1.1049 H   0  0  0  0  0  0  0  0  0  0  0  0
   -2.5229    1.9066    0.3423 C   0  0  0  0  0  0  0  0  0  0  0  0
   -2.5201    2.1379    1.4079 H   0  0  0  0  0  0  0  0  0  0  0  0
   -2.5910    2.8366   -0.2251 H   0  0  0  0  0  0  0  0  0  0  0  0
   -3.7447    1.0351    0.0301 C   0  0  0  0  0  0  0  0  0  0  0  0
   -3.7573    0.7886   -1.0320 H   0  0  0  0  0  0  0  0  0  0  0  0
   -3.6934    0.1150    0.6130 H   0  0  0  0  0  0  0  0  0  0  0  0
   -5.0242    1.7890    0.3874 C   0  0  0  0  0  0  0  0  0  0  0  0
   -5.0225    2.0201    1.4514 H   0  0  0  0  0  0  0  0  0  0  0  0
   -5.0683    2.7168   -0.1806 H   0  0  0  0  0  0  0  0  0  0  0  0
   -6.2162    0.9909    0.0784 N   0  0  0  0  0  0  0  0  0  0  0  0
   -7.0401    1.5126    0.3393 H   0  0  0  0  0  0  0  0  0  0  0  0
   -6.2397    0.8007   -0.9133 H   0  0  0  0  0  0  0  0  0  0  0  0
   -0.5564    0.0727    2.1744 C   0  0  0  0  0  0  0  0  0  0  0  0
    0.6169   -0.1288    2.4805 O   0  0  0  0  0  0  0  0  0  0  0  0
   -1.4759    0.4743    3.0595 N   0  0  0  0  0  0  0  0  0  0  0  0
   -2.4132    0.6318    2.7275 H   0  0  0  0  0  0  0  0  0  0  0  0
   -1.1971    0.7118    4.4750 C   0  0  0  0  0  0  0  0  0  0  0  0
   -0.3779    1.4272    4.5748 H   0  0  0  0  0  0  0  0  0  0  0  0
   -2.0826    1.1064    4.9754 H   0  0  0  0  0  0  0  0  0  0  0  0
   -0.8992   -0.2240    4.9525 H   0  0  0  0  0  0  0  0  0  0  0  0
  5  6  2  0  0  0  0
  5  7  1  0  0  0  0
  2  3  1  0  0  0  0
  2  4  1  0  0  0  0
  2  5  1  0  0  0  0
  1  2  1  0  0  0  0
 26 27  2  0  0  0  0
 26 28  1  0  0  0  0
 23 24  1  0  0  0  0
 23 25  1  0  0  0  0
 20 21  1  0  0  0  0
 20 22  1  0  0  0  0
 20 23  1  0  0  0  0
 17 18  1  0  0  0  0
 17 19  1  0  0  0  0
 17 20  1  0  0  0  0
 14 15  1  0  0  0  0
 14 16  1  0  0  0  0
 14 17  1  0  0  0  0
 11 12  1  0  0  0  0
 11 13  1  0  0  0  0
 11 14  1  0  0  0  0
  9 10  1  0  0  0  0
  9 11  1  0  0  0  0
  9 26  1  0  0  0  0
  7  8  1  0  0  0  0
  7  9  1  0  0  0  0
 30 31  1  0  0  0  0
 30 32  1  0  0  0  0
 30 33  1  0  0  0  0
 28 29  1  0  0  0  0
 28 30  1  0  0  0  0
M  END
$$$$
default_name
  -OEChem-02102213163D

 33 32  0     1  0  0  0  0  0999 V2000
   -3.8420   -3.6918    1.5562 H   0  0  0  0  0  0  0  0  0  0  0  0
   -3.8430   -2.7008    1.1032 C   0  0  0  0  0  0  0  0  0  0  0  0
   -4.5510   -2.0608    1.6242 H   0  0  0  0  0  0  0  0  0  0  0  0
   -4.1140   -2.7798    0.0522 H   0  0  0  0  0  0  0  0  0  0  0  0
   -2.4570   -2.1098    1.2172 C   0  0  0  0  0  0  0  0  0  0  0  0
   -1.5600   -2.7438    1.7572 O   0  0  0  0  0  0  0  0  0  0  0  0
   -2.2870   -0.8898    0.7102 N   0  0  0  0  0  0  0  0  0  0  0  0
   -3.0820   -0.4218    0.2992 H   0  0  0  0  0  0  0  0  0  0  0  0
   -1.0240   -0.1468    0.7262 C   0  0  1  0  0  0  0  0  0  0  0  0
   -0.2680   -0.7367    0.2062 H   0  0  0  0  0  0  0  0  0  0  0  0
   -1.2212    1.1806   -0.0314 C   0  0  0  0  0  0  0  0  0  0  0  0
   -0.3836    1.8412    0.2019 H   0  0  0  0  0  0  0  0  0  0  0  0
   -1.2131    0.9867   -1.1049 H   0  0  0  0  0  0  0  0  0  0  0  0
   -2.5229    1.9066    0.3423 C   0  0  0  0  0  0  0  0  0  0  0  0
   -2.4150    2.3697    1.3235 H   0  0  0  0  0  0  0  0  0  0  0  0
   -2.7270    2.6820   -0.3984 H   0  0  0  0  0  0  0  0  0  0  0  0
   -3.7022    0.9282    0.3858 C   0  0  0  0  0  0  0  0  0  0  0  0
   -3.8182    0.4506   -0.5876 H   0  0  0  0  0  0  0  0  0  0  0  0
   -3.5138    0.1651    1.1414 H   0  0  0  0  0  0  0  0  0  0  0  0
   -4.9859    1.6789    0.7347 C   0  0  0  0  0  0  0  0  0  0  0  0
   -4.8793    2.1413    1.7146 H   0  0  0  0  0  0  0  0  0  0  0  0
   -5.1662    2.4532   -0.0092 H   0  0  0  0  0  0  0  0  0  0  0  0
   -6.1410    0.7741    0.7616 N   0  0  0  0  0  0  0  0  0  0  0  0
   -6.9668    1.2996    1.0083 H   0  0  0  0  0  0  0  0  0  0  0  0
   -6.2639    0.3665   -0.1543 H   0  0  0  0  0  0  0  0  0  0  0  0
   -0.5564    0.0727    2.1744 C   0  0  0  0  0  0  0  0  0  0  0  0
    0.6169   -0.1288    2.4805 O   0  0  0  0  0  0  0  0  0  0  0  0
   -1.4759    0.4743    3.0595 N   0  0  0  0  0  0  0  0  0  0  0  0
   -2.4132    0.6318    2.7275 H   0  0  0  0  0  0  0  0  0  0  0  0
   -1.1971    0.7118    4.4750 C   0  0  0  0  0  0  0  0  0  0  0  0
   -0.3779    1.4272    4.5748 H   0  0  0  0  0  0  0  0  0  0  0  0
   -2.0826    1.1064    4.9754 H   0  0  0  0  0  0  0  0  0  0  0  0
   -0.8992   -0.2240    4.9525 H   0  0  0  0  0  0  0  0  0  0  0  0
  5  6  2  0  0  0  0
  5  7  1  0  0  0  0
  2  3  1  0  0  0  0
  2  4  1  0  0  0  0
  2  5  1  0  0  0  0
  1  2  1  0  0  0  0
 26 27  2  0  0  0  0
 26 28  1  0  0  0  0
 23 24  1  0  0  0  0
 23 25  1  0  0  0  0
 20 21  1  0  0  0  0
 20 22  1  0  0  0  0
 20 23  1  0  0  0  0
 17 18  1  0  0  0  0
 17 19  1  0  0  0  0
 17 20  1  0  0  0  0
 14 15  1  0  0  0  0
 14 16  1  0  0  0  0
 14 17  1  0  0  0  0
 11 12  1  0  0  0  0
 11 13  1  0  0  0  0
 11 14  1  0  0  0  0
  9 10  1  0  0  0  0
  9 11  1  0  0  0  0
  9 26  1  0  0  0  0
  7  8  1  0  0  0  0
  7  9  1  0  0  0  0
 30 31  1  0  0  0  0
 30 32  1  0  0  0  0
 30 33  1  0  0  0  0
 28 29  1  0  0  0  0
 28 30  1  0  0  0  0
M  END
$$$$
default_name
  -OEChem-02102213163D

 33 32  0     1  0  0  0  0  0999 V2000
   -3.8420   -3.6918    1.5562 H   0  0  0  0  0  0  0  0  0  0  0  0
   -3.8430   -2.7008    1.1032 C   0  0  0  0  0  0  0  0  0  0  0  0
   -4.5510   -2.0608    1.6242 H   0  0  0  0  0  0  0  0  0  0  0  0
   -4.1140   -2.7798    0.0522 H   0  0  0  0  0  0  0  0  0  0  0  0
   -2.4570   -2.1098    1.2172 C   0  0  0  0  0  0  0  0  0  0  0  0
   -1.5600   -2.7438    1.7572 O   0  0  0  0  0  0  0  0  0  0  0  0
   -2.2870   -0.8898    0.7102 N   0  0  0  0  0  0  0  0  0  0  0  0
   -3.0820   -0.4218    0.2992 H   0  0  0  0  0  0  0  0  0  0  0  0
   -1.0240   -0.1468    0.7262 C   0  0  1  0  0  0  0  0  0  0  0  0
   -0.2680   -0.7367    0.2062 H   0  0  0  0  0  0  0  0  0  0  0  0
   -1.2212    1.1806   -0.0314 C   0  0  0  0  0  0  0  0  0  0  0  0
   -0.3836    1.8412    0.2019 H   0  0  0  0  0  0  0  0  0  0  0  0
   -1.2131    0.9867   -1.1049 H   0  0  0  0  0  0  0  0  0  0  0  0
   -2.5229    1.9066    0.3423 C   0  0  0  0  0  0  0  0  0  0  0  0
   -2.3385    2.5818    1.1784 H   0  0  0  0  0  0  0  0  0  0  0  0
   -2.8698    2.4861   -0.5152 H   0  0  0  0  0  0  0  0  0  0  0  0
   -3.6109    0.9057    0.7475 C   0  0  0  0  0  0  0  0  0  0  0  0
   -3.8014    0.2177   -0.0767 H   0  0  0  0  0  0  0  0  0  0  0  0
   -3.2788    0.3406    1.6189 H   0  0  0  0  0  0  0  0  0  0  0  0
   -4.8996    1.6510    1.0896 C   0  0  0  0  0  0  0  0  0  0  0  0
   -4.7164    2.3252    1.9248 H   0  0  0  0  0  0  0  0  0  0  0  0
   -5.2231    2.2299    0.2262 H   0  0  0  0  0  0  0  0  0  0  0  0
   -5.9711    0.7193    1.4598 N   0  0  0  0  0  0  0  0  0  0  0  0
   -6.8008    1.2451    1.6923 H   0  0  0  0  0  0  0  0  0  0  0  0
   -6.1672    0.1119    0.6769 H   0  0  0  0  0  0  0  0  0  0  0  0
   -0.5564    0.0727    2.1744 C   0  0  0  0  0  0  0  0  0  0  0  0
    0.6169   -0.1288    2.4805 O   0  0  0  0  0  0  0  0  0  0  0  0
   -1.4759    0.4743    3.0595 N   0  0  0  0  0  0  0  0  0  0  0  0
   -2.4132    0.6318    2.7275 H   0  0  0  0  0  0  0  0  0  0  0  0
   -1.1971    0.7118    4.4750 C   0  0  0  0  0  0  0  0  0  0  0  0
   -0.3779    1.4272    4.5748 H   0  0  0  0  0  0  0  0  0  0  0  0
   -2.0826    1.1064    4.9754 H   0  0  0  0  0  0  0  0  0  0  0  0
   -0.8992   -0.2240    4.9525 H   0  0  0  0  0  0  0  0  0  0  0  0
  5  6  2  0  0  0  0
  5  7  1  0  0  0  0
  2  3  1  0  0  0  0
  2  4  1  0  0  0  0
  2  5  1  0  0  0  0
  1  2  1  0  0  0  0
 26 27  2  0  0  0  0
 26 28  1  0  0  0  0
 23 24  1  0  0  0  0
 23 25  1  0  0  0  0
 20 21  1  0  0  0  0
 20 22  1  0  0  0  0
 20 23  1  0  0  0  0
 17 18  1  0  0  0  0
 17 19  1  0  0  0  0
 17 20  1  0  0  0  0
 14 15  1  0  0  0  0
 14 16  1  0  0  0  0
 14 17  1  0  0  0  0
 11 12  1  0  0  0  0
 11 13  1  0  0  0  0
 11 14  1  0  0  0  0
  9 10  1  0  0  0  0
  9 11  1  0  0  0  0
  9 26  1  0  0  0  0
  7  8  1  0  0  0  0
  7  9  1  0  0  0  0
 30 31  1  0  0  0  0
 30 32  1  0  0  0  0
 30 33  1  0  0  0  0
 28 29  1  0  0  0  0
 28 30  1  0  0  0  0
M  END
$$$$
default_name
  -OEChem-02102213163D

 33 32  0     1  0  0  0  0  0999 V2000
   -3.8420   -3.6918    1.5562 H   0  0  0  0  0  0  0  0  0  0  0  0
   -3.8430   -2.7008    1.1032 C   0  0  0  0  0  0  0  0  0  0  0  0
   -4.5510   -2.0608    1.6242 H   0  0  0  0  0  0  0  0  0  0  0  0
   -4.1140   -2.7798    0.0522 H   0  0  0  0  0  0  0  0  0  0  0  0
   -2.4570   -2.1098    1.2172 C   0  0  0  0  0  0  0  0  0  0  0  0
   -1.5600   -2.7438    1.7572 O   0  0  0  0  0  0  0  0  0  0  0  0
   -2.2870   -0.8898    0.7102 N   0  0  0  0  0  0  0  0  0  0  0  0
   -3.0820   -0.4218    0.2992 H   0  0  0  0  0  0  0  0  0  0  0  0
   -1.0240   -0.1468    0.7262 C   0  0  1  0  0  0  0  0  0  0  0  0
   -0.2680   -0.7367    0.2062 H   0  0  0  0  0  0  0  0  0  0  0  0
   -1.2212    1.1806   -0.0314 C   0  0  0  0  0  0  0  0  0  0  0  0
   -0.3836    1.8412    0.2019 H   0  0  0  0  0  0  0  0  0  0  0  0
   -1.2131    0.9867   -1.1049 H   0  0  0  0  0  0  0  0  0  0  0  0
   -2.5229    1.9066    0.3423 C   0  0  0  0  0  0  0  0  0  0  0  0
   -2.2956    2.7596    0.9823 H   0  0  0  0  0  0  0  0  0  0  0  0
   -3.0096    2.2622   -0.5677 H   0  0  0  0  0  0  0  0  0  0  0  0
   -3.4771    0.9690    1.0908 C   0  0  0  0  0  0  0  0  0  0  0  0
   -3.7080    0.1058    0.4657 H   0  0  0  0  0  0  0  0  0  0  0  0
   -3.0044    0.6297    2.0130 H   0  0  0  0  0  0  0  0  0  0  0  0
   -4.7710    1.7073    1.4280 C   0  0  0  0  0  0  0  0  0  0  0  0
   -4.5450    2.5591    2.0675 H   0  0  0  0  0  0  0  0  0  0  0  0
   -5.2353    2.0623    0.5094 H   0  0  0  0  0  0  0  0  0  0  0  0
   -5.7182    0.8301    2.1255 N   0  0  0  0  0  0  0  0  0  0  0  0
   -6.5534    1.3529    2.3446 H   0  0  0  0  0  0  0  0  0  0  0  0
   -5.9561    0.0544    1.5239 H   0  0  0  0  0  0  0  0  0  0  0  0
   -0.5564    0.0727    2.1744 C   0  0  0  0  0  0  0  0  0  0  0  0
    0.6169   -0.1288    2.4805 O   0  0  0  0  0  0  0  0  0  0  0  0
   -1.4759    0.4743    3.0595 N   0  0  0  0  0  0  0  0  0  0  0  0
   -2.4132    0.6318    2.7275 H   0  0  0  0  0  0  0  0  0  0  0  0
   -1.1971    0.7118    4.4750 C   0  0  0  0  0  0  0  0  0  0  0  0
   -0.3779    1.4272    4.5748 H   0  0  0  0  0  0  0  0  0  0  0  0
   -2.0826    1.1064    4.9754 H   0  0  0  0  0  0  0  0  0  0  0  0
   -0.8992   -0.2240    4.9525 H   0  0  0  0  0  0  0  0  0  0  0  0
  5  6  2  0  0  0  0
  5  7  1  0  0  0  0
  2  3  1  0  0  0  0
  2  4  1  0  0  0  0
  2  5  1  0  0  0  0
  1  2  1  0  0  0  0
 26 27  2  0  0  0  0
 26 28  1  0  0  0  0
 23 24  1  0  0  0  0
 23 25  1  0  0  0  0
 20 21  1  0  0  0  0
 20 22  1  0  0  0  0
 20 23  1  0  0  0  0
 17 18  1  0  0  0  0
 17 19  1  0  0  0  0
 17 20  1  0  0  0  0
 14 15  1  0  0  0  0
 14 16  1  0  0  0  0
 14 17  1  0  0  0  0
 11 12  1  0  0  0  0
 11 13  1  0  0  0  0
 11 14  1  0  0  0  0
  9 10  1  0  0  0  0
  9 11  1  0  0  0  0
  9 26  1  0  0  0  0
  7  8  1  0  0  0  0
  7  9  1  0  0  0  0
 30 31  1  0  0  0  0
 30 32  1  0  0  0  0
 30 33  1  0  0  0  0
 28 29  1  0  0  0  0
 28 30  1  0  0  0  0
M  END
$$$$
default_name
  -OEChem-02102213163D

 33 32  0     1  0  0  0  0  0999 V2000
   -3.8420   -3.6918    1.5562 H   0  0  0  0  0  0  0  0  0  0  0  0
   -3.8430   -2.7008    1.1032 C   0  0  0  0  0  0  0  0  0  0  0  0
   -4.5510   -2.0608    1.6242 H   0  0  0  0  0  0  0  0  0  0  0  0
   -4.1140   -2.7798    0.0522 H   0  0  0  0  0  0  0  0  0  0  0  0
   -2.4570   -2.1098    1.2172 C   0  0  0  0  0  0  0  0  0  0  0  0
   -1.5600   -2.7438    1.7572 O   0  0  0  0  0  0  0  0  0  0  0  0
   -2.2870   -0.8898    0.7102 N   0  0  0  0  0  0  0  0  0  0  0  0
   -3.0820   -0.4218    0.2992 H   0  0  0  0  0  0  0  0  0  0  0  0
   -1.0240   -0.1468    0.7262 C   0  0  1  0  0  0  0  0  0  0  0  0
   -0.2680   -0.7367    0.2062 H   0  0  0  0  0  0  0  0  0  0  0  0
   -1.2212    1.1806   -0.0314 C   0  0  0  0  0  0  0  0  0  0  0  0
   -0.3836    1.8412    0.2019 H   0  0  0  0  0  0  0  0  0  0  0  0
   -1.2131    0.9867   -1.1049 H   0  0  0  0  0  0  0  0  0  0  0  0
   -2.5229    1.9066    0.3423 C   0  0  0  0  0  0  0  0  0  0  0  0
   -2.2893    2.8910    0.7487 H   0  0  0  0  0  0  0  0  0  0  0  0
   -3.1371    2.0257   -0.5522 H   0  0  0  0  0  0  0  0  0  0  0  0
   -3.3098    1.1137    1.3921 C   0  0  0  0  0  0  0  0  0  0  0  0
   -3.5445    0.1226    1.0027 H   0  0  0  0  0  0  0  0  0  0  0  0
   -2.7094    1.0126    2.2966 H   0  0  0  0  0  0  0  0  0  0  0  0
   -4.6090    1.8440    1.7268 C   0  0  0  0  0  0  0  0  0  0  0  0
   -4.3767    2.8271    2.1332 H   0  0  0  0  0  0  0  0  0  0  0  0
   -5.2019    1.9617    0.8212 H   0  0  0  0  0  0  0  0  0  0  0  0
   -5.3995    1.0989    2.7133 N   0  0  0  0  0  0  0  0  0  0  0  0
   -6.2415    1.6157    2.9207 H   0  0  0  0  0  0  0  0  0  0  0  0
   -5.6451    0.1978    2.3288 H   0  0  0  0  0  0  0  0  0  0  0  0
   -0.5564    0.0727    2.1744 C   0  0  0  0  0  0  0  0  0  0  0  0
    0.6169   -0.1288    2.4805 O   0  0  0  0  0  0  0  0  0  0  0  0
   -1.4759    0.4743    3.0595 N   0  0  0  0  0  0  0  0  0  0  0  0
   -2.4132    0.6318    2.7275 H   0  0  0  0  0  0  0  0  0  0  0  0
   -1.1971    0.7118    4.4750 C   0  0  0  0  0  0  0  0  0  0  0  0
   -0.3779    1.4272    4.5748 H   0  0  0  0  0  0  0  0  0  0  0  0
   -2.0826    1.1064    4.9754 H   0  0  0  0  0  0  0  0  0  0  0  0
   -0.8992   -0.2240    4.9525 H   0  0  0  0  0  0  0  0  0  0  0  0
  5  6  2  0  0  0  0
  5  7  1  0  0  0  0
  2  3  1  0  0  0  0
  2  4  1  0  0  0  0
  2  5  1  0  0  0  0
  1  2  1  0  0  0  0
 26 27  2  0  0  0  0
 26 28  1  0  0  0  0
 23 24  1  0  0  0  0
 23 25  1  0  0  0  0
 20 21  1  0  0  0  0
 20 22  1  0  0  0  0
 20 23  1  0  0  0  0
 17 18  1  0  0  0  0
 17 19  1  0  0  0  0
 17 20  1  0  0  0  0
 14 15  1  0  0  0  0
 14 16  1  0  0  0  0
 14 17  1  0  0  0  0
 11 12  1  0  0  0  0
 11 13  1  0  0  0  0
 11 14  1  0  0  0  0
  9 10  1  0  0  0  0
  9 11  1  0  0  0  0
  9 26  1  0  0  0  0
  7  8  1  0  0  0  0
  7  9  1  0  0  0  0
 30 31  1  0  0  0  0
 30 32  1  0  0  0  0
 30 33  1  0  0  0  0
 28 29  1  0  0  0  0
 28 30  1  0  0  0  0
M  END
$$$$
default_name
  -OEChem-02102213163D

 33 32  0     1  0  0  0  0  0999 V2000
   -3.8420   -3.6918    1.5562 H   0  0  0  0  0  0  0  0  0  0  0  0
   -3.8430   -2.7008    1.1032 C   0  0  0  0  0  0  0  0  0  0  0  0
   -4.5510   -2.0608    1.6242 H   0  0  0  0  0  0  0  0  0  0  0  0
   -4.1140   -2.7798    0.0522 H   0  0  0  0  0  0  0  0  0  0  0  0
   -2.4570   -2.1098    1.2172 C   0  0  0  0  0  0  0  0  0  0  0  0
   -1.5600   -2.7438    1.7572 O   0  0  0  0  0  0  0  0  0  0  0  0
   -2.2870   -0.8898    0.7102 N   0  0  0  0  0  0  0  0  0  0  0  0
   -3.0820   -0.4218    0.2992 H   0  0  0  0  0  0  0  0  0  0  0  0
   -1.0240   -0.1468    0.7262 C   0  0  1  0  0  0  0  0  0  0  0  0
   -0.2680   -0.7367    0.2062 H   0  0  0  0  0  0  0  0  0  0  0  0
   -1.2212    1.1806   -0.0314 C   0  0  0  0  0  0  0  0  0  0  0  0
   -0.3836    1.8412    0.2019 H   0  0  0  0  0  0  0  0  0  0  0  0
   -1.2131    0.9867   -1.1049 H   0  0  0  0  0  0  0  0  0  0  0  0
   -2.5229    1.9066    0.3423 C   0  0  0  0  0  0  0  0  0  0  0  0
   -2.3201    2.9672    0.4935 H   0  0  0  0  0  0  0  0  0  0  0  0
   -3.2434    1.7927   -0.4697 H   0  0  0  0  0  0  0  0  0  0  0  0
   -3.1206    1.3302    1.6309 C   0  0  0  0  0  0  0  0  0  0  0  0
   -3.3219    0.2668    1.4978 H   0  0  0  0  0  0  0  0  0  0  0  0
   -2.4139    1.4632    2.4506 H   0  0  0  0  0  0  0  0  0  0  0  0
   -4.4246    2.0518    1.9656 C   0  0  0  0  0  0  0  0  0  0  0  0
   -4.2229    3.1110    2.1172 H   0  0  0  0  0  0  0  0  0  0  0  0
   -5.1251    1.9350    1.1404 H   0  0  0  0  0  0  0  0  0  0  0  0
   -5.0367    1.5076    3.1832 N   0  0  0  0  0  0  0  0  0  0  0  0
   -5.8862    2.0154    3.3815 H   0  0  0  0  0  0  0  0  0  0  0  0
   -5.2552    0.5323    3.0367 H   0  0  0  0  0  0  0  0  0  0  0  0
   -0.5564    0.0727    2.1744 C   0  0  0  0  0  0  0  0  0  0  0  0
    0.6169   -0.1288    2.4805 O   0  0  0  0  0  0  0  0  0  0  0  0
   -1.4759    0.4743    3.0595 N   0  0  0  0  0  0  0  0  0  0  0  0
   -2.4132    0.6318    2.7275 H   0  0  0  0  0  0  0  0  0  0  0  0
   -1.1971    0.7118    4.4750 C   0  0  0  0  0  0  0  0  0  0  0  0
   -0.3779    1.4272    4.5748 H   0  0  0  0  0  0  0  0  0  0  0  0
   -2.0826    1.1064    4.9754 H   0  0  0  0  0  0  0  0  0  0  0  0
   -0.8992   -0.2240    4.9525 H   0  0  0  0  0  0  0  0  0  0  0  0
  5  6  2  0  0  0  0
  5  7  1  0  0  0  0
  2  3  1  0  0  0  0
  2  4  1  0  0  0  0
  2  5  1  0  0  0  0
  1  2  1  0  0  0  0
 26 27  2  0  0  0  0
 26 28  1  0  0  0  0
 23 24  1  0  0  0  0
 23 25  1  0  0  0  0
 20 21  1  0  0  0  0
 20 22  1  0  0  0  0
 20 23  1  0  0  0  0
 17 18  1  0  0  0  0
 17 19  1  0  0  0  0
 17 20  1  0  0  0  0
 14 15  1  0  0  0  0
 14 16  1  0  0  0  0
 14 17  1  0  0  0  0
 11 12  1  0  0  0  0
 11 13  1  0  0  0  0
 11 14  1  0  0  0  0
  9 10  1  0  0  0  0
  9 11  1  0  0  0  0
  9 26  1  0  0  0  0
  7  8  1  0  0  0  0
  7  9  1  0  0  0  0
 30 31  1  0  0  0  0
 30 32  1  0  0  0  0
 30 33  1  0  0  0  0
 28 29  1  0  0  0  0
 28 30  1  0  0  0  0
M  END
$$$$
default_name
  -OEChem-02102213163D

 33 32  0     1  0  0  0  0  0999 V2000
   -3.8420   -3.6918    1.5562 H   0  0  0  0  0  0  0  0  0  0  0  0
   -3.8430   -2.7008    1.1032 C   0  0  0  0  0  0  0  0  0  0  0  0
   -4.5510   -2.0608    1.6242 H   0  0  0  0  0  0  0  0  0  0  0  0
   -4.1140   -2.7798    0.0522 H   0  0  0  0  0  0  0  0  0  0  0  0
   -2.4570   -2.1098    1.2172 C   0  0  0  0  0  0  0  0  0  0  0  0
   -1.5600   -2.7438    1.7572 O   0  0  0  0  0  0  0  0  0  0  0  0
   -2.2870   -0.8898    0.7102 N   0  0  0  0  0  0  0  0  0  0  0  0
   -3.0820   -0.4218    0.2992 H   0  0  0  0  0  0  0  0  0  0  0  0
   -1.0240   -0.1468    0.7262 C   0  0  1  0  0  0  0  0  0  0  0  0
   -0.2680   -0.7367    0.2062 H   0  0  0  0  0  0  0  0  0  0  0  0
   -1.2212    1.1806   -0.0314 C   0  0  0  0  0  0  0  0  0  0  0  0
   -0.3836    1.8412    0.2019 H   0  0  0  0  0  0  0  0  0  0  0  0
   -1.2131    0.9867   -1.1049 H   0  0  0  0  0  0  0  0  0  0  0  0
   -2.5229    1.9066    0.3423 C   0  0  0  0  0  0  0  0  0  0  0  0
   -2.3859    2.9829    0.2341 H   0  0  0  0  0  0  0  0  0  0  0  0
   -3.3213    1.5789   -0.3260 H   0  0  0  0  0  0  0  0  0  0  0  0
   -2.9222    1.6035    1.7910 C   0  0  0  0  0  0  0  0  0  0  0  0
   -3.0554    0.5287    1.9172 H   0  0  0  0  0  0  0  0  0  0  0  0
   -2.1380    1.9508    2.4644 H   0  0  0  0  0  0  0  0  0  0  0  0
   -4.2303    2.3164    2.1282 C   0  0  0  0  0  0  0  0  0  0  0  0
   -4.0943    3.3914    2.0208 H   0  0  0  0  0  0  0  0  0  0  0  0
   -5.0103    1.9840    1.4451 H   0  0  0  0  0  0  0  0  0  0  0  0
   -4.6545    2.0282    3.5030 N   0  0  0  0  0  0  0  0  0  0  0  0
   -5.5119    2.5249    3.6955 H   0  0  0  0  0  0  0  0  0  0  0  0
   -4.8131    1.0353    3.5996 H   0  0  0  0  0  0  0  0  0  0  0  0
   -0.5564    0.0727    2.1744 C   0  0  0  0  0  0  0  0  0  0  0  0
    0.6169   -0.1288    2.4805 O   0  0  0  0  0  0  0  0  0  0  0  0
   -1.4759    0.4743    3.0595 N   0  0  0  0  0  0  0  0  0  0  0  0
   -2.4132    0.6318    2.7275 H   0  0  0  0  0  0  0  0  0  0  0  0
   -1.1971    0.7118    4.4750 C   0  0  0  0  0  0  0  0  0  0  0  0
   -0.3779    1.4272    4.5748 H   0  0  0  0  0  0  0  0  0  0  0  0
   -2.0826    1.1064    4.9754 H   0  0  0  0  0  0  0  0  0  0  0  0
   -0.8992   -0.2240    4.9525 H   0  0  0  0  0  0  0  0  0  0  0  0
  5  6  2  0  0  0  0
  5  7  1  0  0  0  0
  2  3  1  0  0  0  0
  2  4  1  0  0  0  0
  2  5  1  0  0  0  0
  1  2  1  0  0  0  0
 26 27  2  0  0  0  0
 26 28  1  0  0  0  0
 23 24  1  0  0  0  0
 23 25  1  0  0  0  0
 20 21  1  0  0  0  0
 20 22  1  0  0  0  0
 20 23  1  0  0  0  0
 17 18  1  0  0  0  0
 17 19  1  0  0  0  0
 17 20  1  0  0  0  0
 14 15  1  0  0  0  0
 14 16  1  0  0  0  0
 14 17  1  0  0  0  0
 11 12  1  0  0  0  0
 11 13  1  0  0  0  0
 11 14  1  0  0  0  0
  9 10  1  0  0  0  0
  9 11  1  0  0  0  0
  9 26  1  0  0  0  0
  7  8  1  0  0  0  0
  7  9  1  0  0  0  0
 30 31  1  0  0  0  0
 30 32  1  0  0  0  0
 30 33  1  0  0  0  0
 28 29  1  0  0  0  0
 28 30  1  0  0  0  0
M  END
$$$$
default_name
  -OEChem-02102213163D

 33 32  0     1  0  0  0  0  0999 V2000
   -3.8420   -3.6918    1.5562 H   0  0  0  0  0  0  0  0  0  0  0  0
   -3.8430   -2.7008    1.1032 C   0  0  0  0  0  0  0  0  0  0  0  0
   -4.5510   -2.0608    1.6242 H   0  0  0  0  0  0  0  0  0  0  0  0
   -4.1140   -2.7798    0.0522 H   0  0  0  0  0  0  0  0  0  0  0  0
   -2.4570   -2.1098    1.2172 C   0  0  0  0  0  0  0  0  0  0  0  0
   -1.5600   -2.7438    1.7572 O   0  0  0  0  0  0  0  0  0  0  0  0
   -2.2870   -0.8898    0.7102 N   0  0  0  0  0  0  0  0  0  0  0  0
   -3.0820   -0.4218    0.2992 H   0  0  0  0  0  0  0  0  0  0  0  0
   -1.0240   -0.1468    0.7262 C   0  0  1  0  0  0  0  0  0  0  0  0
   -0.2680   -0.7367    0.2062 H   0  0  0  0  0  0  0  0  0  0  0  0
   -1.2212    1.1806   -0.0314 C   0  0  0  0  0  0  0  0  0  0  0  0
   -0.3836    1.8412    0.2019 H   0  0  0  0  0  0  0  0  0  0  0  0
   -1.2131    0.9867   -1.1049 H   0  0  0  0  0  0  0  0  0  0  0  0
   -2.5229    1.9066    0.3423 C   0  0  0  0  0  0  0  0  0  0  0  0
   -2.4821    2.9370   -0.0120 H   0  0  0  0  0  0  0  0  0  0  0  0
   -3.3656    1.3991   -0.1308 H   0  0  0  0  0  0  0  0  0  0  0  0
   -2.7281    1.9152    1.8614 C   0  0  0  0  0  0  0  0  0  0  0  0
   -2.7633    0.8904    2.2323 H   0  0  0  0  0  0  0  0  0  0  0  0
   -1.9005    2.4422    2.3371 H   0  0  0  0  0  0  0  0  0  0  0  0
   -4.0394    2.6199    2.2034 C   0  0  0  0  0  0  0  0  0  0  0  0
   -3.9994    3.6492    1.8504 H   0  0  0  0  0  0  0  0  0  0  0  0
   -4.8652    2.1054    1.7147 H   0  0  0  0  0  0  0  0  0  0  0  0
   -4.2790    2.6252    3.6511 N   0  0  0  0  0  0  0  0  0  0  0  0
   -5.1441    3.1095    3.8414 H   0  0  0  0  0  0  0  0  0  0  0  0
   -4.3489    1.6723    3.9789 H   0  0  0  0  0  0  0  0  0  0  0  0
   -0.5564    0.0727    2.1744 C   0  0  0  0  0  0  0  0  0  0  0  0
    0.6169   -0.1288    2.4805 O   0  0  0  0  0  0  0  0  0  0  0  0
   -1.4759    0.4743    3.0595 N   0  0  0  0  0  0  0  0  0  0  0  0
   -2.4132    0.6318    2.7275 H   0  0  0  0  0  0  0  0  0  0  0  0
   -1.1971    0.7118    4.4750 C   0  0  0  0  0  0  0  0  0  0  0  0
   -0.3779    1.4272    4.5748 H   0  0  0  0  0  0  0  0  0  0  0  0
   -2.0826    1.1064    4.9754 H   0  0  0  0  0  0  0  0  0  0  0  0
   -0.8992   -0.2240    4.9525 H   0  0  0  0  0  0  0  0  0  0  0  0
  5  6  2  0  0  0  0
  5  7  1  0  0  0  0
  2  3  1  0  0  0  0
  2  4  1  0  0  0  0
  2  5  1  0  0  0  0
  1  2  1  0  0  0  0
 26 27  2  0  0  0  0
 26 28  1  0  0  0  0
 23 24  1  0  0  0  0
 23 25  1  0  0  0  0
 20 21  1  0  0  0  0
 20 22  1  0  0  0  0
 20 23  1  0  0  0  0
 17 18  1  0  0  0  0
 17 19  1  0  0  0  0
 17 20  1  0  0  0  0
 14 15  1  0  0  0  0
 14 16  1  0  0  0  0
 14 17  1  0  0  0  0
 11 12  1  0  0  0  0
 11 13  1  0  0  0  0
 11 14  1  0  0  0  0
  9 10  1  0  0  0  0
  9 11  1  0  0  0  0
  9 26  1  0  0  0  0
  7  8  1  0  0  0  0
  7  9  1  0  0  0  0
 30 31  1  0  0  0  0
 30 32  1  0  0  0  0
 30 33  1  0  0  0  0
 28 29  1  0  0  0  0
 28 30  1  0  0  0  0
M  END
$$$$
default_name
  -OEChem-02102213163D

 33 32  0     1  0  0  0  0  0999 V2000
   -3.8420   -3.6918    1.5562 H   0  0  0  0  0  0  0  0  0  0  0  0
   -3.8430   -2.7008    1.1032 C   0  0  0  0  0  0  0  0  0  0  0  0
   -4.5510   -2.0608    1.6242 H   0  0  0  0  0  0  0  0  0  0  0  0
   -4.1140   -2.7798    0.0522 H   0  0  0  0  0  0  0  0  0  0  0  0
   -2.4570   -2.1098    1.2172 C   0  0  0  0  0  0  0  0  0  0  0  0
   -1.5600   -2.7438    1.7572 O   0  0  0  0  0  0  0  0  0  0  0  0
   -2.2870   -0.8898    0.7102 N   0  0  0  0  0  0  0  0  0  0  0  0
   -3.0820   -0.4218    0.2992 H   0  0  0  0  0  0  0  0  0  0  0  0
   -1.0240   -0.1468    0.7262 C   0  0  1  0  0  0  0  0  0  0  0  0
   -0.2680   -0.7367    0.2062 H   0  0  0  0  0  0  0  0  0  0  0  0
   -1.2212    1.1806   -0.0314 C   0  0  0  0  0  0  0  0  0  0  0  0
   -0.3836    1.8412    0.2019 H   0  0  0  0  0  0  0  0  0  0  0  0
   -1.2131    0.9867   -1.1049 H   0  0  0  0  0  0  0  0  0  0  0  0
   -2.5229    1.9066    0.3423 C   0  0  0  0  0  0  0  0  0  0  0  0
   -2.6023    2.8327   -0.2278 H   0  0  0  0  0  0  0  0  0  0  0  0
   -3.3731    1.2654    0.1026 H   0  0  0  0  0  0  0  0  0  0  0  0
   -2.5517    2.2438    1.8374 C   0  0  0  0  0  0  0  0  0  0  0  0
   -2.4653    1.3272    2.4216 H   0  0  0  0  0  0  0  0  0  0  0  0
   -1.7177    2.9039    2.0773 H   0  0  0  0  0  0  0  0  0  0  0  0
   -3.8650    2.9416    2.1862 C   0  0  0  0  0  0  0  0  0  0  0  0
   -3.9449    3.8668    1.6177 H   0  0  0  0  0  0  0  0  0  0  0  0
   -4.6997    2.2909    1.9308 H   0  0  0  0  0  0  0  0  0  0  0  0
   -3.9358    3.2580    3.6174 N   0  0  0  0  0  0  0  0  0  0  0  0
   -4.8077    3.7293    3.8091 H   0  0  0  0  0  0  0  0  0  0  0  0
   -3.8943    2.4001    4.1489 H   0  0  0  0  0  0  0  0  0  0  0  0
   -0.5564    0.0727    2.1744 C   0  0  0  0  0  0  0  0  0  0  0  0
    0.6169   -0.1288    2.4805 O   0  0  0  0  0  0  0  0  0  0  0  0
   -1.4759    0.4743    3.0595 N   0  0  0  0  0  0  0  0  0  0  0  0
   -2.4132    0.6318    2.7275 H   0  0  0  0  0  0  0  0  0  0  0  0
   -1.1971    0.7118    4.4750 C   0  0  0  0  0  0  0  0  0  0  0  0
   -0.3779    1.4272    4.5748 H   0  0  0  0  0  0  0  0  0  0  0  0
   -2.0826    1.1064    4.9754 H   0  0  0  0  0  0  0  0  0  0  0  0
   -0.8992   -0.2240    4.9525 H   0  0  0  0  0  0  0  0  0  0  0  0
  5  6  2  0  0  0  0
  5  7  1  0  0  0  0
  2  3  1  0  0  0  0
  2  4  1  0  0  0  0
  2  5  1  0  0  0  0
  1  2  1  0  0  0  0
 26 27  2  0  0  0  0
 26 28  1  0  0  0  0
 23 24  1  0  0  0  0
 23 25  1  0  0  0  0
 20 21  1  0  0  0  0
 20 22  1  0  0  0  0
 20 23  1  0  0  0  0
 17 18  1  0  0  0  0
 17 19  1  0  0  0  0
 17 20  1  0  0  0  0
 14 15  1  0  0  0  0
 14 16  1  0  0  0  0
 14 17  1  0  0  0  0
 11 12  1  0  0  0  0
 11 13  1  0  0  0  0
 11 14  1  0  0  0  0
  9 10  1  0  0  0  0
  9 11  1  0  0  0  0
  9 26  1  0  0  0  0
  7  8  1  0  0  0  0
  7  9  1  0  0  0  0
 30 31  1  0  0  0  0
 30 32  1  0  0  0  0
 30 33  1  0  0  0  0
 28 29  1  0  0  0  0
 28 30  1  0  0  0  0
M  END
$$$$
default_name
  -OEChem-02102213163D

 33 32  0     1  0  0  0  0  0999 V2000
   -3.8420   -3.6918    1.5562 H   0  0  0  0  0  0  0  0  0  0  0  0
   -3.8430   -2.7008    1.1032 C   0  0  0  0  0  0  0  0  0  0  0  0
   -4.5510   -2.0608    1.6242 H   0  0  0  0  0  0  0  0  0  0  0  0
   -4.1140   -2.7798    0.0522 H   0  0  0  0  0  0  0  0  0  0  0  0
   -2.4570   -2.1098    1.2172 C   0  0  0  0  0  0  0  0  0  0  0  0
   -1.5600   -2.7438    1.7572 O   0  0  0  0  0  0  0  0  0  0  0  0
   -2.2870   -0.8898    0.7102 N   0  0  0  0  0  0  0  0  0  0  0  0
   -3.0820   -0.4218    0.2992 H   0  0  0  0  0  0  0  0  0  0  0  0
   -1.0240   -0.1468    0.7262 C   0  0  1  0  0  0  0  0  0  0  0  0
   -0.2680   -0.7367    0.2062 H   0  0  0  0  0  0  0  0  0  0  0  0
   -1.2212    1.1806   -0.0314 C   0  0  0  0  0  0  0  0  0  0  0  0
   -0.3836    1.8412    0.2019 H   0  0  0  0  0  0  0  0  0  0  0  0
   -1.2131    0.9867   -1.1049 H   0  0  0  0  0  0  0  0  0  0  0  0
   -2.5229    1.9066    0.3423 C   0  0  0  0  0  0  0  0  0  0  0  0
   -2.7381    2.6770   -0.3986 H   0  0  0  0  0  0  0  0  0  0  0  0
   -3.3435    1.1869    0.3583 H   0  0  0  0  0  0  0  0  0  0  0  0
   -2.4050    2.5671    1.7206 C   0  0  0  0  0  0  0  0  0  0  0  0
   -2.1818    1.8094    2.4723 H   0  0  0  0  0  0  0  0  0  0  0  0
   -1.6018    3.3044    1.7028 H   0  0  0  0  0  0  0  0  0  0  0  0
   -3.7188    3.2595    2.0778 C   0  0  0  0  0  0  0  0  0  0  0  0
   -3.9343    4.0294    1.3386 H   0  0  0  0  0  0  0  0  0  0  0  0
   -4.5251    2.5279    2.0785 H   0  0  0  0  0  0  0  0  0  0  0  0
   -3.6483    3.8835    3.4040 N   0  0  0  0  0  0  0  0  0  0  0  0
   -4.5257    4.3420    3.6008 H   0  0  0  0  0  0  0  0  0  0  0  0
   -3.4802    3.1689    4.0979 H   0  0  0  0  0  0  0  0  0  0  0  0
   -0.5564    0.0727    2.1744 C   0  0  0  0  0  0  0  0  0  0  0  0
    0.6169   -0.1288    2.4805 O   0  0  0  0  0  0  0  0  0  0  0  0
   -1.4759    0.4743    3.0595 N   0  0  0  0  0  0  0  0  0  0  0  0
   -2.4132    0.6318    2.7275 H   0  0  0  0  0  0  0  0  0  0  0  0
   -1.1971    0.7118    4.4750 C   0  0  0  0  0  0  0  0  0  0  0  0
   -0.3779    1.4272    4.5748 H   0  0  0  0  0  0  0  0  0  0  0  0
   -2.0826    1.1064    4.9754 H   0  0  0  0  0  0  0  0  0  0  0  0
   -0.8992   -0.2240    4.9525 H   0  0  0  0  0  0  0  0  0  0  0  0
  5  6  2  0  0  0  0
  5  7  1  0  0  0  0
  2  3  1  0  0  0  0
  2  4  1  0  0  0  0
  2  5  1  0  0  0  0
  1  2  1  0  0  0  0
 26 27  2  0  0  0  0
 26 28  1  0  0  0  0
 23 24  1  0  0  0  0
 23 25  1  0  0  0  0
 20 21  1  0  0  0  0
 20 22  1  0  0  0  0
 20 23  1  0  0  0  0
 17 18  1  0  0  0  0
 17 19  1  0  0  0  0
 17 20  1  0  0  0  0
 14 15  1  0  0  0  0
 14 16  1  0  0  0  0
 14 17  1  0  0  0  0
 11 12  1  0  0  0  0
 11 13  1  0  0  0  0
 11 14  1  0  0  0  0
  9 10  1  0  0  0  0
  9 11  1  0  0  0  0
  9 26  1  0  0  0  0
  7  8  1  0  0  0  0
  7  9  1  0  0  0  0
 30 31  1  0  0  0  0
 30 32  1  0  0  0  0
 30 33  1  0  0  0  0
 28 29  1  0  0  0  0
 28 30  1  0  0  0  0
M  END
$$$$
default_name
  -OEChem-02102213163D

 33 32  0     1  0  0  0  0  0999 V2000
   -3.8420   -3.6918    1.5562 H   0  0  0  0  0  0  0  0  0  0  0  0
   -3.8430   -2.7008    1.1032 C   0  0  0  0  0  0  0  0  0  0  0  0
   -4.5510   -2.0608    1.6242 H   0  0  0  0  0  0  0  0  0  0  0  0
   -4.1140   -2.7798    0.0522 H   0  0  0  0  0  0  0  0  0  0  0  0
   -2.4570   -2.1098    1.2172 C   0  0  0  0  0  0  0  0  0  0  0  0
   -1.5600   -2.7438    1.7572 O   0  0  0  0  0  0  0  0  0  0  0  0
   -2.2870   -0.8898    0.7102 N   0  0  0  0  0  0  0  0  0  0  0  0
   -3.0820   -0.4218    0.2992 H   0  0  0  0  0  0  0  0  0  0  0  0
   -1.0240   -0.1468    0.7262 C   0  0  1  0  0  0  0  0  0  0  0  0
   -0.2680   -0.7367    0.2062 H   0  0  0  0  0  0  0  0  0  0  0  0
   -1.2212    1.1806   -0.0314 C   0  0  0  0  0  0  0  0  0  0  0  0
   -0.3836    1.8412    0.2019 H   0  0  0  0  0  0  0  0  0  0  0  0
   -1.2131    0.9867   -1.1049 H   0  0  0  0  0  0  0  0  0  0  0  0
   -2.5229    1.9066    0.3423 C   0  0  0  0  0  0  0  0  0  0  0  0
   -2.8805    2.4806   -0.5130 H   0  0  0  0  0  0  0  0  0  0  0  0
   -3.2786    1.1691    0.6189 H   0  0  0  0  0  0  0  0  0  0  0  0
   -2.2979    2.8631    1.5189 C   0  0  0  0  0  0  0  0  0  0  0  0
   -1.9322    2.3041    2.3808 H   0  0  0  0  0  0  0  0  0  0  0  0
   -1.5609    3.6165    1.2391 H   0  0  0  0  0  0  0  0  0  0  0  0
   -3.6109    3.5520    1.8854 C   0  0  0  0  0  0  0  0  0  0  0  0
   -3.9685    4.1259    1.0320 H   0  0  0  0  0  0  0  0  0  0  0  0
   -4.3533    2.8002    2.1480 H   0  0  0  0  0  0  0  0  0  0  0  0
   -3.4360    4.4589    3.0257 N   0  0  0  0  0  0  0  0  0  0  0  0
   -4.3174    4.9060    3.2309 H   0  0  0  0  0  0  0  0  0  0  0  0
   -3.1348    3.9264    3.8294 H   0  0  0  0  0  0  0  0  0  0  0  0
   -0.5564    0.0727    2.1744 C   0  0  0  0  0  0  0  0  0  0  0  0
    0.6169   -0.1288    2.4805 O   0  0  0  0  0  0  0  0  0  0  0  0
   -1.4759    0.4743    3.0595 N   0  0  0  0  0  0  0  0  0  0  0  0
   -2.4132    0.6318    2.7275 H   0  0  0  0  0  0  0  0  0  0  0  0
   -1.1971    0.7118    4.4750 C   0  0  0  0  0  0  0  0  0  0  0  0
   -0.3779    1.4272    4.5748 H   0  0  0  0  0  0  0  0  0  0  0  0
   -2.0826    1.1064    4.9754 H   0  0  0  0  0  0  0  0  0  0  0  0
   -0.8992   -0.2240    4.9525 H   0  0  0  0  0  0  0  0  0  0  0  0
  5  6  2  0  0  0  0
  5  7  1  0  0  0  0
  2  3  1  0  0  0  0
  2  4  1  0  0  0  0
  2  5  1  0  0  0  0
  1  2  1  0  0  0  0
 26 27  2  0  0  0  0
 26 28  1  0  0  0  0
 23 24  1  0  0  0  0
 23 25  1  0  0  0  0
 20 21  1  0  0  0  0
 20 22  1  0  0  0  0
 20 23  1  0  0  0  0
 17 18  1  0  0  0  0
 17 19  1  0  0  0  0
 17 20  1  0  0  0  0
 14 15  1  0  0  0  0
 14 16  1  0  0  0  0
 14 17  1  0  0  0  0
 11 12  1  0  0  0  0
 11 13  1  0  0  0  0
 11 14  1  0  0  0  0
  9 10  1  0  0  0  0
  9 11  1  0  0  0  0
  9 26  1  0  0  0  0
  7  8  1  0  0  0  0
  7  9  1  0  0  0  0
 30 31  1  0  0  0  0
 30 32  1  0  0  0  0
 30 33  1  0  0  0  0
 28 29  1  0  0  0  0
 28 30  1  0  0  0  0
M  END
$$$$
default_name
  -OEChem-02102213163D

 33 32  0     1  0  0  0  0  0999 V2000
   -3.8420   -3.6918    1.5562 H   0  0  0  0  0  0  0  0  0  0  0  0
   -3.8430   -2.7008    1.1032 C   0  0  0  0  0  0  0  0  0  0  0  0
   -4.5510   -2.0608    1.6242 H   0  0  0  0  0  0  0  0  0  0  0  0
   -4.1140   -2.7798    0.0522 H   0  0  0  0  0  0  0  0  0  0  0  0
   -2.4570   -2.1098    1.2172 C   0  0  0  0  0  0  0  0  0  0  0  0
   -1.5600   -2.7438    1.7572 O   0  0  0  0  0  0  0  0  0  0  0  0
   -2.2870   -0.8898    0.7102 N   0  0  0  0  0  0  0  0  0  0  0  0
   -3.0820   -0.4218    0.2992 H   0  0  0  0  0  0  0  0  0  0  0  0
   -1.0240   -0.1468    0.7262 C   0  0  1  0  0  0  0  0  0  0  0  0
   -0.2680   -0.7367    0.2062 H   0  0  0  0  0  0  0  0  0  0  0  0
   -1.2212    1.1806   -0.0314 C   0  0  0  0  0  0  0  0  0  0  0  0
   -0.3836    1.8412    0.2019 H   0  0  0  0  0  0  0  0  0  0  0  0
   -1.2131    0.9867   -1.1049 H   0  0  0  0  0  0  0  0  0  0  0  0
   -2.5229    1.9066    0.3423 C   0  0  0  0  0  0  0  0  0  0  0  0
   -3.0196    2.2569   -0.5629 H   0  0  0  0  0  0  0  0  0  0  0  0
   -3.1830    1.2130    0.8665 H   0  0  0  0  0  0  0  0  0  0  0  0
   -2.2377    3.1114    1.2461 C   0  0  0  0  0  0  0  0  0  0  0  0
   -1.7334    2.7776    2.1535 H   0  0  0  0  0  0  0  0  0  0  0  0
   -1.5978    3.8188    0.7178 H   0  0  0  0  0  0  0  0  0  0  0  0
   -3.5486    3.7992    1.6223 C   0  0  0  0  0  0  0  0  0  0  0  0
   -4.0451    4.1498    0.7189 H   0  0  0  0  0  0  0  0  0  0  0  0
   -4.1960    3.0892    2.1343 H   0  0  0  0  0  0  0  0  0  0  0  0
   -3.3134    4.9452    2.5081 N   0  0  0  0  0  0  0  0  0  0  0  0
   -4.1970    5.3828    2.7244 H   0  0  0  0  0  0  0  0  0  0  0  0
   -2.8817    4.6210    3.3618 H   0  0  0  0  0  0  0  0  0  0  0  0
   -0.5564    0.0727    2.1744 C   0  0  0  0  0  0  0  0  0  0  0  0
    0.6169   -0.1288    2.4805 O   0  0  0  0  0  0  0  0  0  0  0  0
   -1.4759    0.4743    3.0595 N   0  0  0  0  0  0  0  0  0  0  0  0
   -2.4132    0.6318    2.7275 H   0  0  0  0  0  0  0  0  0  0  0  0
   -1.1971    0.7118    4.4750 C   0  0  0  0  0  0  0  0  0  0  0  0
   -0.3779    1.4272    4.5748 H   0  0  0  0  0  0  0  0  0  0  0  0
   -2.0826    1.1064    4.9754 H   0  0  0  0  0  0  0  0  0  0  0  0
   -0.8992   -0.2240    4.9525 H   0  0  0  0  0  0  0  0  0  0  0  0
  5  6  2  0  0  0  0
  5  7  1  0  0  0  0
  2  3  1  0  0  0  0
  2  4  1  0  0  0  0
  2  5  1  0  0  0  0
  1  2  1  0  0  0  0
 26 27  2  0  0  0  0
 26 28  1  0  0  0  0
 23 24  1  0  0  0  0
 23 25  1  0  0  0  0
 20 21  1  0  0  0  0
 20 22  1  0  0  0  0
 20 23  1  0  0  0  0
 17 18  1  0  0  0  0
 17 19  1  0  0  0  0
 17 20  1  0  0  0  0
 14 15  1  0  0  0  0
 14 16  1  0  0  0  0
 14 17  1  0  0  0  0
 11 12  1  0  0  0  0
 11 13  1  0  0  0  0
 11 14  1  0  0  0  0
  9 10  1  0  0  0  0
  9 11  1  0  0  0  0
  9 26  1  0  0  0  0
  7  8  1  0  0  0  0
  7  9  1  0  0  0  0
 30 31  1  0  0  0  0
 30 32  1  0  0  0  0
 30 33  1  0  0  0  0
 28 29  1  0  0  0  0
 28 30  1  0  0  0  0
M  END
$$$$
default_name
  -OEChem-02102213163D

 33 32  0     1  0  0  0  0  0999 V2000
   -3.8420   -3.6918    1.5562 H   0  0  0  0  0  0  0  0  0  0  0  0
   -3.8430   -2.7008    1.1032 C   0  0  0  0  0  0  0  0  0  0  0  0
   -4.5510   -2.0608    1.6242 H   0  0  0  0  0  0  0  0  0  0  0  0
   -4.1140   -2.7798    0.0522 H   0  0  0  0  0  0  0  0  0  0  0  0
   -2.4570   -2.1098    1.2172 C   0  0  0  0  0  0  0  0  0  0  0  0
   -1.5600   -2.7438    1.7572 O   0  0  0  0  0  0  0  0  0  0  0  0
   -2.2870   -0.8898    0.7102 N   0  0  0  0  0  0  0  0  0  0  0  0
   -3.0820   -0.4218    0.2992 H   0  0  0  0  0  0  0  0  0  0  0  0
   -1.0240   -0.1468    0.7262 C   0  0  1  0  0  0  0  0  0  0  0  0
   -0.2680   -0.7367    0.2062 H   0  0  0  0  0  0  0  0  0  0  0  0
   -1.2212    1.1806   -0.0314 C   0  0  0  0  0  0  0  0  0  0  0  0
   -0.3836    1.8412    0.2019 H   0  0  0  0  0  0  0  0  0  0  0  0
   -1.2131    0.9867   -1.1049 H   0  0  0  0  0  0  0  0  0  0  0  0
   -2.5229    1.9066    0.3423 C   0  0  0  0  0  0  0  0  0  0  0  0
   -3.1460    2.0211   -0.5451 H   0  0  0  0  0  0  0  0  0  0  0  0
   -3.0631    1.3158    1.0844 H   0  0  0  0  0  0  0  0  0  0  0  0
   -2.2285    3.2953    0.9208 C   0  0  0  0  0  0  0  0  0  0  0  0
   -1.5989    3.1977    1.8058 H   0  0  0  0  0  0  0  0  0  0  0  0
   -1.7099    3.8976    0.1743 H   0  0  0  0  0  0  0  0  0  0  0  0
   -3.5362    3.9842    1.3063 C   0  0  0  0  0  0  0  0  0  0  0  0
   -4.1588    4.0994    0.4206 H   0  0  0  0  0  0  0  0  0  0  0  0
   -4.0640    3.3753    2.0385 H   0  0  0  0  0  0  0  0  0  0  0  0
   -3.2889    5.3091    1.8865 N   0  0  0  0  0  0  0  0  0  0  0  0
   -4.1726    5.7398    2.1159 H   0  0  0  0  0  0  0  0  0  0  0  0
   -2.7381    5.2053    2.7269 H   0  0  0  0  0  0  0  0  0  0  0  0
   -0.5564    0.0727    2.1744 C   0  0  0  0  0  0  0  0  0  0  0  0
    0.6169   -0.1288    2.4805 O   0  0  0  0  0  0  0  0  0  0  0  0
   -1.4759    0.4743    3.0595 N   0  0  0  0  0  0  0  0  0  0  0  0
   -2.4132    0.6318    2.7275 H   0  0  0  0  0  0  0  0  0  0  0  0
   -1.1971    0.7118    4.4750 C   0  0  0  0  0  0  0  0  0  0  0  0
   -0.3779    1.4272    4.5748 H   0  0  0  0  0  0  0  0  0  0  0  0
   -2.0826    1.1064    4.9754 H   0  0  0  0  0  0  0  0  0  0  0  0
   -0.8992   -0.2240    4.9525 H   0  0  0  0  0  0  0  0  0  0  0  0
  5  6  2  0  0  0  0
  5  7  1  0  0  0  0
  2  3  1  0  0  0  0
  2  4  1  0  0  0  0
  2  5  1  0  0  0  0
  1  2  1  0  0  0  0
 26 27  2  0  0  0  0
 26 28  1  0  0  0  0
 23 24  1  0  0  0  0
 23 25  1  0  0  0  0
 20 21  1  0  0  0  0
 20 22  1  0  0  0  0
 20 23  1  0  0  0  0
 17 18  1  0  0  0  0
 17 19  1  0  0  0  0
 17 20  1  0  0  0  0
 14 15  1  0  0  0  0
 14 16  1  0  0  0  0
 14 17  1  0  0  0  0
 11 12  1  0  0  0  0
 11 13  1  0  0  0  0
 11 14  1  0  0  0  0
  9 10  1  0  0  0  0
  9 11  1  0  0  0  0
  9 26  1  0  0  0  0
  7  8  1  0  0  0  0
  7  9  1  0  0  0  0
 30 31  1  0  0  0  0
 30 32  1  0  0  0  0
 30 33  1  0  0  0  0
 28 29  1  0  0  0  0
 28 30  1  0  0  0  0
M  END
$$$$
default_name
  -OEChem-02102213163D

 33 32  0     1  0  0  0  0  0999 V2000
   -3.8420   -3.6918    1.5562 H   0  0  0  0  0  0  0  0  0  0  0  0
   -3.8430   -2.7008    1.1032 C   0  0  0  0  0  0  0  0  0  0  0  0
   -4.5510   -2.0608    1.6242 H   0  0  0  0  0  0  0  0  0  0  0  0
   -4.1140   -2.7798    0.0522 H   0  0  0  0  0  0  0  0  0  0  0  0
   -2.4570   -2.1098    1.2172 C   0  0  0  0  0  0  0  0  0  0  0  0
   -1.5600   -2.7438    1.7572 O   0  0  0  0  0  0  0  0  0  0  0  0
   -2.2870   -0.8898    0.7102 N   0  0  0  0  0  0  0  0  0  0  0  0
   -3.0820   -0.4218    0.2992 H   0  0  0  0  0  0  0  0  0  0  0  0
   -1.0240   -0.1468    0.7262 C   0  0  1  0  0  0  0  0  0  0  0  0
   -0.2680   -0.7367    0.2062 H   0  0  0  0  0  0  0  0  0  0  0  0
   -1.2212    1.1806   -0.0314 C   0  0  0  0  0  0  0  0  0  0  0  0
   -0.3836    1.8412    0.2019 H   0  0  0  0  0  0  0  0  0  0  0  0
   -1.2131    0.9867   -1.1049 H   0  0  0  0  0  0  0  0  0  0  0  0
   -2.5229    1.9066    0.3423 C   0  0  0  0  0  0  0  0  0  0  0  0
   -3.2510    1.7893   -0.4608 H   0  0  0  0  0  0  0  0  0  0  0  0
   -2.9271    1.4704    1.2577 H   0  0  0  0  0  0  0  0  0  0  0  0
   -2.2710    3.4021    0.5652 C   0  0  0  0  0  0  0  0  0  0  0  0
   -1.5381    3.5357    1.3613 H   0  0  0  0  0  0  0  0  0  0  0  0
   -1.8895    3.8475   -0.3541 H   0  0  0  0  0  0  0  0  0  0  0  0
   -3.5744    4.0943    0.9590 C   0  0  0  0  0  0  0  0  0  0  0  0
   -4.3020    3.9782    0.1574 H   0  0  0  0  0  0  0  0  0  0  0  0
   -3.9661    3.6390    1.8671 H   0  0  0  0  0  0  0  0  0  0  0  0
   -3.3641    5.5259    1.2034 N   0  0  0  0  0  0  0  0  0  0  0  0
   -4.2458    5.9528    1.4469 H   0  0  0  0  0  0  0  0  0  0  0  0
   -2.7139    5.6395    1.9679 H   0  0  0  0  0  0  0  0  0  0  0  0
   -0.5564    0.0727    2.1744 C   0  0  0  0  0  0  0  0  0  0  0  0
    0.6169   -0.1288    2.4805 O   0  0  0  0  0  0  0  0  0  0  0  0
   -1.4759    0.4743    3.0595 N   0  0  0  0  0  0  0  0  0  0  0  0
   -2.4132    0.6318    2.7275 H   0  0  0  0  0  0  0  0  0  0  0  0
   -1.1971    0.7118    4.4750 C   0  0  0  0  0  0  0  0  0  0  0  0
   -0.3779    1.4272    4.5748 H   0  0  0  0  0  0  0  0  0  0  0  0
   -2.0826    1.1064    4.9754 H   0  0  0  0  0  0  0  0  0  0  0  0
   -0.8992   -0.2240    4.9525 H   0  0  0  0  0  0  0  0  0  0  0  0
  5  6  2  0  0  0  0
  5  7  1  0  0  0  0
  2  3  1  0  0  0  0
  2  4  1  0  0  0  0
  2  5  1  0  0  0  0
  1  2  1  0  0  0  0
 26 27  2  0  0  0  0
 26 28  1  0  0  0  0
 23 24  1  0  0  0  0
 23 25  1  0  0  0  0
 20 21  1  0  0  0  0
 20 22  1  0  0  0  0
 20 23  1  0  0  0  0
 17 18  1  0  0  0  0
 17 19  1  0  0  0  0
 17 20  1  0  0  0  0
 14 15  1  0  0  0  0
 14 16  1  0  0  0  0
 14 17  1  0  0  0  0
 11 12  1  0  0  0  0
 11 13  1  0  0  0  0
 11 14  1  0  0  0  0
  9 10  1  0  0  0  0
  9 11  1  0  0  0  0
  9 26  1  0  0  0  0
  7  8  1  0  0  0  0
  7  9  1  0  0  0  0
 30 31  1  0  0  0  0
 30 32  1  0  0  0  0
 30 33  1  0  0  0  0
 28 29  1  0  0  0  0
 28 30  1  0  0  0  0
M  END
$$$$
default_name
  -OEChem-02102213163D

 33 32  0     1  0  0  0  0  0999 V2000
   -3.8420   -3.6918    1.5562 H   0  0  0  0  0  0  0  0  0  0  0  0
   -3.8430   -2.7008    1.1032 C   0  0  0  0  0  0  0  0  0  0  0  0
   -4.5510   -2.0608    1.6242 H   0  0  0  0  0  0  0  0  0  0  0  0
   -4.1140   -2.7798    0.0522 H   0  0  0  0  0  0  0  0  0  0  0  0
   -2.4570   -2.1098    1.2172 C   0  0  0  0  0  0  0  0  0  0  0  0
   -1.5600   -2.7438    1.7572 O   0  0  0  0  0  0  0  0  0  0  0  0
   -2.2870   -0.8898    0.7102 N   0  0  0  0  0  0  0  0  0  0  0  0
   -3.0820   -0.4218    0.2992 H   0  0  0  0  0  0  0  0  0  0  0  0
   -1.0240   -0.1468    0.7262 C   0  0  1  0  0  0  0  0  0  0  0  0
   -0.2680   -0.7367    0.2062 H   0  0  0  0  0  0  0  0  0  0  0  0
   -1.2212    1.1806   -0.0314 C   0  0  0  0  0  0  0  0  0  0  0  0
   -0.3836    1.8412    0.2019 H   0  0  0  0  0  0  0  0  0  0  0  0
   -1.2131    0.9867   -1.1049 H   0  0  0  0  0  0  0  0  0  0  0  0
   -2.5229    1.9066    0.3423 C   0  0  0  0  0  0  0  0  0  0  0  0
   -3.3276    1.5773   -0.3156 H   0  0  0  0  0  0  0  0  0  0  0  0
   -2.7843    1.6663    1.3745 H   0  0  0  0  0  0  0  0  0  0  0  0
   -2.3623    3.4247    0.2034 C   0  0  0  0  0  0  0  0  0  0  0  0
   -1.5549    3.7686    0.8505 H   0  0  0  0  0  0  0  0  0  0  0  0
   -2.1245    3.6719   -0.8316 H   0  0  0  0  0  0  0  0  0  0  0  0
   -3.6608    4.1222    0.6041 C   0  0  0  0  0  0  0  0  0  0  0  0
   -4.4649    3.7943   -0.0528 H   0  0  0  0  0  0  0  0  0  0  0  0
   -3.9092    3.8623    1.6318 H   0  0  0  0  0  0  0  0  0  0  0  0
   -3.5340    5.5808    0.5051 N   0  0  0  0  0  0  0  0  0  0  0  0
   -4.4119    6.0073    0.7630 H   0  0  0  0  0  0  0  0  0  0  0  0
   -2.8106    5.8941    1.1366 H   0  0  0  0  0  0  0  0  0  0  0  0
   -0.5564    0.0727    2.1744 C   0  0  0  0  0  0  0  0  0  0  0  0
    0.6169   -0.1288    2.4805 O   0  0  0  0  0  0  0  0  0  0  0  0
   -1.4759    0.4743    3.0595 N   0  0  0  0  0  0  0  0  0  0  0  0
   -2.4132    0.6318    2.7275 H   0  0  0  0  0  0  0  0  0  0  0  0
   -1.1971    0.7118    4.4750 C   0  0  0  0  0  0  0  0  0  0  0  0
   -0.3779    1.4272    4.5748 H   0  0  0  0  0  0  0  0  0  0  0  0
   -2.0826    1.1064    4.9754 H   0  0  0  0  0  0  0  0  0  0  0  0
   -0.8992   -0.2240    4.9525 H   0  0  0  0  0  0  0  0  0  0  0  0
  5  6  2  0  0  0  0
  5  7  1  0  0  0  0
  2  3  1  0  0  0  0
  2  4  1  0  0  0  0
  2  5  1  0  0  0  0
  1  2  1  0  0  0  0
 26 27  2  0  0  0  0
 26 28  1  0  0  0  0
 23 24  1  0  0  0  0
 23 25  1  0  0  0  0
 20 21  1  0  0  0  0
 20 22  1  0  0  0  0
 20 23  1  0  0  0  0
 17 18  1  0  0  0  0
 17 19  1  0  0  0  0
 17 20  1  0  0  0  0
 14 15  1  0  0  0  0
 14 16  1  0  0  0  0
 14 17  1  0  0  0  0
 11 12  1  0  0  0  0
 11 13  1  0  0  0  0
 11 14  1  0  0  0  0
  9 10  1  0  0  0  0
  9 11  1  0  0  0  0
  9 26  1  0  0  0  0
  7  8  1  0  0  0  0
  7  9  1  0  0  0  0
 30 31  1  0  0  0  0
 30 32  1  0  0  0  0
 30 33  1  0  0  0  0
 28 29  1  0  0  0  0
 28 30  1  0  0  0  0
M  END
$$$$
default_name
  -OEChem-02102213163D

 33 32  0     1  0  0  0  0  0999 V2000
   -3.8420   -3.6918    1.5562 H   0  0  0  0  0  0  0  0  0  0  0  0
   -3.8430   -2.7008    1.1032 C   0  0  0  0  0  0  0  0  0  0  0  0
   -4.5510   -2.0608    1.6242 H   0  0  0  0  0  0  0  0  0  0  0  0
   -4.1140   -2.7798    0.0522 H   0  0  0  0  0  0  0  0  0  0  0  0
   -2.4570   -2.1098    1.2172 C   0  0  0  0  0  0  0  0  0  0  0  0
   -1.5600   -2.7438    1.7572 O   0  0  0  0  0  0  0  0  0  0  0  0
   -2.2870   -0.8898    0.7102 N   0  0  0  0  0  0  0  0  0  0  0  0
   -3.0820   -0.4218    0.2992 H   0  0  0  0  0  0  0  0  0  0  0  0
   -1.0240   -0.1468    0.7262 C   0  0  1  0  0  0  0  0  0  0  0  0
   -0.2680   -0.7367    0.2062 H   0  0  0  0  0  0  0  0  0  0  0  0
   -1.2212    1.1806   -0.0314 C   0  0  0  0  0  0  0  0  0  0  0  0
   -0.3836    1.8412    0.2019 H   0  0  0  0  0  0  0  0  0  0  0  0
   -1.2131    0.9867   -1.1049 H   0  0  0  0  0  0  0  0  0  0  0  0
   -2.5229    1.9066    0.3423 C   0  0  0  0  0  0  0  0  0  0  0  0
   -3.3705    1.3995   -0.1196 H   0  0  0  0  0  0  0  0  0  0  0  0
   -2.6444    1.8902    1.4270 H   0  0  0  0  0  0  0  0  0  0  0  0
   -2.4962    3.3614   -0.1398 C   0  0  0  0  0  0  0  0  0  0  0  0
   -1.6482    3.8804    0.3081 H   0  0  0  0  0  0  0  0  0  0  0  0
   -2.3989    3.3828   -1.2257 H   0  0  0  0  0  0  0  0  0  0  0  0
   -3.7894    4.0659    0.2657 C   0  0  0  0  0  0  0  0  0  0  0  0
   -4.6363    3.5604   -0.1955 H   0  0  0  0  0  0  0  0  0  0  0  0
   -3.8970    4.0299    1.3486 H   0  0  0  0  0  0  0  0  0  0  0  0
   -3.7869    5.4700   -0.1605 N   0  0  0  0  0  0  0  0  0  0  0  0
   -4.6593    5.8994    0.1107 H   0  0  0  0  0  0  0  0  0  0  0  0
   -3.0216    5.9516    0.2897 H   0  0  0  0  0  0  0  0  0  0  0  0
   -0.5564    0.0727    2.1744 C   0  0  0  0  0  0  0  0  0  0  0  0
    0.6169   -0.1288    2.4805 O   0  0  0  0  0  0  0  0  0  0  0  0
   -1.4759    0.4743    3.0595 N   0  0  0  0  0  0  0  0  0  0  0  0
   -2.4132    0.6318    2.7275 H   0  0  0  0  0  0  0  0  0  0  0  0
   -1.1971    0.7118    4.4750 C   0  0  0  0  0  0  0  0  0  0  0  0
   -0.3779    1.4272    4.5748 H   0  0  0  0  0  0  0  0  0  0  0  0
   -2.0826    1.1064    4.9754 H   0  0  0  0  0  0  0  0  0  0  0  0
   -0.8992   -0.2240    4.9525 H   0  0  0  0  0  0  0  0  0  0  0  0
  5  6  2  0  0  0  0
  5  7  1  0  0  0  0
  2  3  1  0  0  0  0
  2  4  1  0  0  0  0
  2  5  1  0  0  0  0
  1  2  1  0  0  0  0
 26 27  2  0  0  0  0
 26 28  1  0  0  0  0
 23 24  1  0  0  0  0
 23 25  1  0  0  0  0
 20 21  1  0  0  0  0
 20 22  1  0  0  0  0
 20 23  1  0  0  0  0
 17 18  1  0  0  0  0
 17 19  1  0  0  0  0
 17 20  1  0  0  0  0
 14 15  1  0  0  0  0
 14 16  1  0  0  0  0
 14 17  1  0  0  0  0
 11 12  1  0  0  0  0
 11 13  1  0  0  0  0
 11 14  1  0  0  0  0
  9 10  1  0  0  0  0
  9 11  1  0  0  0  0
  9 26  1  0  0  0  0
  7  8  1  0  0  0  0
  7  9  1  0  0  0  0
 30 31  1  0  0  0  0
 30 32  1  0  0  0  0
 30 33  1  0  0  0  0
 28 29  1  0  0  0  0
 28 30  1  0  0  0  0
M  END
$$$$
default_name
  -OEChem-02102213163D

 33 32  0     1  0  0  0  0  0999 V2000
   -3.8420   -3.6918    1.5562 H   0  0  0  0  0  0  0  0  0  0  0  0
   -3.8430   -2.7008    1.1032 C   0  0  0  0  0  0  0  0  0  0  0  0
   -4.5510   -2.0608    1.6242 H   0  0  0  0  0  0  0  0  0  0  0  0
   -4.1140   -2.7798    0.0522 H   0  0  0  0  0  0  0  0  0  0  0  0
   -2.4570   -2.1098    1.2172 C   0  0  0  0  0  0  0  0  0  0  0  0
   -1.5600   -2.7438    1.7572 O   0  0  0  0  0  0  0  0  0  0  0  0
   -2.2870   -0.8898    0.7102 N   0  0  0  0  0  0  0  0  0  0  0  0
   -3.0820   -0.4218    0.2992 H   0  0  0  0  0  0  0  0  0  0  0  0
   -1.0240   -0.1468    0.7262 C   0  0  1  0  0  0  0  0  0  0  0  0
   -0.2680   -0.7367    0.2062 H   0  0  0  0  0  0  0  0  0  0  0  0
   -1.2212    1.1806   -0.0314 C   0  0  0  0  0  0  0  0  0  0  0  0
   -0.2776    1.7300   -0.0204 H   0  0  0  0  0  0  0  0  0  0  0  0
   -1.4789    0.9673   -1.0697 H   0  0  0  0  0  0  0  0  0  0  0  0
   -2.3055    2.0777    0.5856 C   0  0  0  0  0  0  0  0  0  0  0  0
   -3.2610    1.5524    0.5820 H   0  0  0  0  0  0  0  0  0  0  0  0
   -2.0320    2.3151    1.6153 H   0  0  0  0  0  0  0  0  0  0  0  0
   -2.4559    3.3800   -0.2089 C   0  0  0  0  0  0  0  0  0  0  0  0
   -1.5051    3.9138   -0.2210 H   0  0  0  0  0  0  0  0  0  0  0  0
   -2.7525    3.1493   -1.2325 H   0  0  0  0  0  0  0  0  0  0  0  0
   -3.5208    4.2626    0.4391 C   0  0  0  0  0  0  0  0  0  0  0  0
   -4.4755    3.7390    0.4356 H   0  0  0  0  0  0  0  0  0  0  0  0
   -3.2350    4.4794    1.4671 H   0  0  0  0  0  0  0  0  0  0  0  0
   -3.6738    5.5302   -0.2841 N   0  0  0  0  0  0  0  0  0  0  0  0
   -4.3930    6.0807    0.1618 H   0  0  0  0  0  0  0  0  0  0  0  0
   -2.7994    6.0351   -0.2565 H   0  0  0  0  0  0  0  0  0  0  0  0
   -0.5564    0.0727    2.1744 C   0  0  0  0  0  0  0  0  0  0  0  0
    0.6169   -0.1288    2.4805 O   0  0  0  0  0  0  0  0  0  0  0  0
   -1.4759    0.4743    3.0595 N   0  0  0  0  0  0  0  0  0  0  0  0
   -2.4132    0.6318    2.7275 H   0  0  0  0  0  0  0  0  0  0  0  0
   -1.1971    0.7118    4.4750 C   0  0  0  0  0  0  0  0  0  0  0  0
   -0.3779    1.4272    4.5748 H   0  0  0  0  0  0  0  0  0  0  0  0
   -2.0826    1.1064    4.9754 H   0  0  0  0  0  0  0  0  0  0  0  0
   -0.8992   -0.2240    4.9525 H   0  0  0  0  0  0  0  0  0  0  0  0
  5  6  2  0  0  0  0
  5  7  1  0  0  0  0
  2  3  1  0  0  0  0
  2  4  1  0  0  0  0
  2  5  1  0  0  0  0
  1  2  1  0  0  0  0
 26 27  2  0  0  0  0
 26 28  1  0  0  0  0
 23 24  1  0  0  0  0
 23 25  1  0  0  0  0
 20 21  1  0  0  0  0
 20 22  1  0  0  0  0
 20 23  1  0  0  0  0
 17 18  1  0  0  0  0
 17 19  1  0  0  0  0
 17 20  1  0  0  0  0
 14 15  1  0  0  0  0
 14 16  1  0  0  0  0
 14 17  1  0  0  0  0
 11 12  1  0  0  0  0
 11 13  1  0  0  0  0
 11 14  1  0  0  0  0
  9 10  1  0  0  0  0
  9 11  1  0  0  0  0
  9 26  1  0  0  0  0
  7  8  1  0  0  0  0
  7  9  1  0  0  0  0
 30 31  1  0  0  0  0
 30 32  1  0  0  0  0
 30 33  1  0  0  0  0
 28 29  1  0  0  0  0
 28 30  1  0  0  0  0
M  END
$$$$
default_name
  -OEChem-02102213163D

 33 32  0     1  0  0  0  0  0999 V2000
   -3.8420   -3.6918    1.5562 H   0  0  0  0  0  0  0  0  0  0  0  0
   -3.8430   -2.7008    1.1032 C   0  0  0  0  0  0  0  0  0  0  0  0
   -4.5510   -2.0608    1.6242 H   0  0  0  0  0  0  0  0  0  0  0  0
   -4.1140   -2.7798    0.0522 H   0  0  0  0  0  0  0  0  0  0  0  0
   -2.4570   -2.1098    1.2172 C   0  0  0  0  0  0  0  0  0  0  0  0
   -1.5600   -2.7438    1.7572 O   0  0  0  0  0  0  0  0  0  0  0  0
   -2.2870   -0.8898    0.7102 N   0  0  0  0  0  0  0  0  0  0  0  0
   -3.0820   -0.4218    0.2992 H   0  0  0  0  0  0  0  0  0  0  0  0
   -1.0240   -0.1468    0.7262 C   0  0  1  0  0  0  0  0  0  0  0  0
   -0.2680   -0.7367    0.2062 H   0  0  0  0  0  0  0  0  0  0  0  0
   -1.2212    1.1806   -0.0314 C   0  0  0  0  0  0  0  0  0  0  0  0
   -0.2776    1.7300   -0.0204 H   0  0  0  0  0  0  0  0  0  0  0  0
   -1.4789    0.9673   -1.0697 H   0  0  0  0  0  0  0  0  0  0  0  0
   -2.3055    2.0777    0.5856 C   0  0  0  0  0  0  0  0  0  0  0  0
   -3.1831    1.4776    0.8275 H   0  0  0  0  0  0  0  0  0  0  0  0
   -1.9190    2.5306    1.5004 H   0  0  0  0  0  0  0  0  0  0  0  0
   -2.7193    3.1858   -0.3895 C   0  0  0  0  0  0  0  0  0  0  0  0
   -1.8494    3.7907   -0.6473 H   0  0  0  0  0  0  0  0  0  0  0  0
   -3.1284    2.7384   -1.2958 H   0  0  0  0  0  0  0  0  0  0  0  0
   -3.7785    4.0764    0.2571 C   0  0  0  0  0  0  0  0  0  0  0  0
   -4.6555    3.4780    0.4986 H   0  0  0  0  0  0  0  0  0  0  0  0
   -3.3777    4.5100    1.1718 H   0  0  0  0  0  0  0  0  0  0  0  0
   -4.1807    5.1639   -0.6423 N   0  0  0  0  0  0  0  0  0  0  0  0
   -4.8894    5.7223   -0.1896 H   0  0  0  0  0  0  0  0  0  0  0  0
   -3.3768    5.7413   -0.8442 H   0  0  0  0  0  0  0  0  0  0  0  0
   -0.5564    0.0727    2.1744 C   0  0  0  0  0  0  0  0  0  0  0  0
    0.6169   -0.1288    2.4805 O   0  0  0  0  0  0  0  0  0  0  0  0
   -1.4759    0.4743    3.0595 N   0  0  0  0  0  0  0  0  0  0  0  0
   -2.4132    0.6318    2.7275 H   0  0  0  0  0  0  0  0  0  0  0  0
   -1.1971    0.7118    4.4750 C   0  0  0  0  0  0  0  0  0  0  0  0
   -0.3779    1.4272    4.5748 H   0  0  0  0  0  0  0  0  0  0  0  0
   -2.0826    1.1064    4.9754 H   0  0  0  0  0  0  0  0  0  0  0  0
   -0.8992   -0.2240    4.9525 H   0  0  0  0  0  0  0  0  0  0  0  0
  5  6  2  0  0  0  0
  5  7  1  0  0  0  0
  2  3  1  0  0  0  0
  2  4  1  0  0  0  0
  2  5  1  0  0  0  0
  1  2  1  0  0  0  0
 26 27  2  0  0  0  0
 26 28  1  0  0  0  0
 23 24  1  0  0  0  0
 23 25  1  0  0  0  0
 20 21  1  0  0  0  0
 20 22  1  0  0  0  0
 20 23  1  0  0  0  0
 17 18  1  0  0  0  0
 17 19  1  0  0  0  0
 17 20  1  0  0  0  0
 14 15  1  0  0  0  0
 14 16  1  0  0  0  0
 14 17  1  0  0  0  0
 11 12  1  0  0  0  0
 11 13  1  0  0  0  0
 11 14  1  0  0  0  0
  9 10  1  0  0  0  0
  9 11  1  0  0  0  0
  9 26  1  0  0  0  0
  7  8  1  0  0  0  0
  7  9  1  0  0  0  0
 30 31  1  0  0  0  0
 30 32  1  0  0  0  0
 30 33  1  0  0  0  0
 28 29  1  0  0  0  0
 28 30  1  0  0  0  0
M  END
$$$$
default_name
  -OEChem-02102213163D

 33 32  0     1  0  0  0  0  0999 V2000
   -3.8420   -3.6918    1.5562 H   0  0  0  0  0  0  0  0  0  0  0  0
   -3.8430   -2.7008    1.1032 C   0  0  0  0  0  0  0  0  0  0  0  0
   -4.5510   -2.0608    1.6242 H   0  0  0  0  0  0  0  0  0  0  0  0
   -4.1140   -2.7798    0.0522 H   0  0  0  0  0  0  0  0  0  0  0  0
   -2.4570   -2.1098    1.2172 C   0  0  0  0  0  0  0  0  0  0  0  0
   -1.5600   -2.7438    1.7572 O   0  0  0  0  0  0  0  0  0  0  0  0
   -2.2870   -0.8898    0.7102 N   0  0  0  0  0  0  0  0  0  0  0  0
   -3.0820   -0.4218    0.2992 H   0  0  0  0  0  0  0  0  0  0  0  0
   -1.0240   -0.1468    0.7262 C   0  0  1  0  0  0  0  0  0  0  0  0
   -0.2680   -0.7367    0.2062 H   0  0  0  0  0  0  0  0  0  0  0  0
   -1.2212    1.1806   -0.0314 C   0  0  0  0  0  0  0  0  0  0  0  0
   -0.2776    1.7300   -0.0204 H   0  0  0  0  0  0  0  0  0  0  0  0
   -1.4789    0.9673   -1.0697 H   0  0  0  0  0  0  0  0  0  0  0  0
   -2.3055    2.0777    0.5856 C   0  0  0  0  0  0  0  0  0  0  0  0
   -3.0631    1.4583    1.0664 H   0  0  0  0  0  0  0  0  0  0  0  0
   -1.8496    2.7296    1.3331 H   0  0  0  0  0  0  0  0  0  0  0  0
   -2.9808    2.9379   -0.4886 C   0  0  0  0  0  0  0  0  0  0  0  0
   -2.2337    3.5582   -0.9846 H   0  0  0  0  0  0  0  0  0  0  0  0
   -3.4584    2.2910   -1.2252 H   0  0  0  0  0  0  0  0  0  0  0  0
   -4.0355    3.8365    0.1542 C   0  0  0  0  0  0  0  0  0  0  0  0
   -4.7928    3.2188    0.6343 H   0  0  0  0  0  0  0  0  0  0  0  0
   -3.5633    4.4707    0.9026 H   0  0  0  0  0  0  0  0  0  0  0  0
   -4.6863    4.6920   -0.8448 N   0  0  0  0  0  0  0  0  0  0  0  0
   -5.3847    5.2605   -0.3886 H   0  0  0  0  0  0  0  0  0  0  0  0
   -3.9929    5.2902   -1.2710 H   0  0  0  0  0  0  0  0  0  0  0  0
   -0.5564    0.0727    2.1744 C   0  0  0  0  0  0  0  0  0  0  0  0
    0.6169   -0.1288    2.4805 O   0  0  0  0  0  0  0  0  0  0  0  0
   -1.4759    0.4743    3.0595 N   0  0  0  0  0  0  0  0  0  0  0  0
   -2.4132    0.6318    2.7275 H   0  0  0  0  0  0  0  0  0  0  0  0
   -1.1971    0.7118    4.4750 C   0  0  0  0  0  0  0  0  0  0  0  0
   -0.3779    1.4272    4.5748 H   0  0  0  0  0  0  0  0  0  0  0  0
   -2.0826    1.1064    4.9754 H   0  0  0  0  0  0  0  0  0  0  0  0
   -0.8992   -0.2240    4.9525 H   0  0  0  0  0  0  0  0  0  0  0  0
  5  6  2  0  0  0  0
  5  7  1  0  0  0  0
  2  3  1  0  0  0  0
  2  4  1  0  0  0  0
  2  5  1  0  0  0  0
  1  2  1  0  0  0  0
 26 27  2  0  0  0  0
 26 28  1  0  0  0  0
 23 24  1  0  0  0  0
 23 25  1  0  0  0  0
 20 21  1  0  0  0  0
 20 22  1  0  0  0  0
 20 23  1  0  0  0  0
 17 18  1  0  0  0  0
 17 19  1  0  0  0  0
 17 20  1  0  0  0  0
 14 15  1  0  0  0  0
 14 16  1  0  0  0  0
 14 17  1  0  0  0  0
 11 12  1  0  0  0  0
 11 13  1  0  0  0  0
 11 14  1  0  0  0  0
  9 10  1  0  0  0  0
  9 11  1  0  0  0  0
  9 26  1  0  0  0  0
  7  8  1  0  0  0  0
  7  9  1  0  0  0  0
 30 31  1  0  0  0  0
 30 32  1  0  0  0  0
 30 33  1  0  0  0  0
 28 29  1  0  0  0  0
 28 30  1  0  0  0  0
M  END
$$$$
default_name
  -OEChem-02102213163D

 33 32  0     1  0  0  0  0  0999 V2000
   -3.8420   -3.6918    1.5562 H   0  0  0  0  0  0  0  0  0  0  0  0
   -3.8430   -2.7008    1.1032 C   0  0  0  0  0  0  0  0  0  0  0  0
   -4.5510   -2.0608    1.6242 H   0  0  0  0  0  0  0  0  0  0  0  0
   -4.1140   -2.7798    0.0522 H   0  0  0  0  0  0  0  0  0  0  0  0
   -2.4570   -2.1098    1.2172 C   0  0  0  0  0  0  0  0  0  0  0  0
   -1.5600   -2.7438    1.7572 O   0  0  0  0  0  0  0  0  0  0  0  0
   -2.2870   -0.8898    0.7102 N   0  0  0  0  0  0  0  0  0  0  0  0
   -3.0820   -0.4218    0.2992 H   0  0  0  0  0  0  0  0  0  0  0  0
   -1.0240   -0.1468    0.7262 C   0  0  1  0  0  0  0  0  0  0  0  0
   -0.2680   -0.7367    0.2062 H   0  0  0  0  0  0  0  0  0  0  0  0
   -1.2212    1.1806   -0.0314 C   0  0  0  0  0  0  0  0  0  0  0  0
   -0.2776    1.7300   -0.0204 H   0  0  0  0  0  0  0  0  0  0  0  0
   -1.4789    0.9673   -1.0697 H   0  0  0  0  0  0  0  0  0  0  0  0
   -2.3055    2.0777    0.5856 C   0  0  0  0  0  0  0  0  0  0  0  0
   -2.9091    1.4958    1.2827 H   0  0  0  0  0  0  0  0  0  0  0  0
   -1.8286    2.8984    1.1246 H   0  0  0  0  0  0  0  0  0  0  0  0
   -3.2227    2.6531   -0.4996 C   0  0  0  0  0  0  0  0  0  0  0  0
   -2.6316    3.2321   -1.2098 H   0  0  0  0  0  0  0  0  0  0  0  0
   -3.7199    1.8374   -1.0253 H   0  0  0  0  0  0  0  0  0  0  0  0
   -4.2744    3.5593    0.1375 C   0  0  0  0  0  0  0  0  0  0  0  0
   -4.8779    2.9788    0.8334 H   0  0  0  0  0  0  0  0  0  0  0  0
   -3.7792    4.3644    0.6778 H   0  0  0  0  0  0  0  0  0  0  0  0
   -5.1563    4.1466   -0.8777 N   0  0  0  0  0  0  0  0  0  0  0  0
   -5.8453    4.7265   -0.4217 H   0  0  0  0  0  0  0  0  0  0  0  0
   -4.6056    4.7124   -1.5077 H   0  0  0  0  0  0  0  0  0  0  0  0
   -0.5564    0.0727    2.1744 C   0  0  0  0  0  0  0  0  0  0  0  0
    0.6169   -0.1288    2.4805 O   0  0  0  0  0  0  0  0  0  0  0  0
   -1.4759    0.4743    3.0595 N   0  0  0  0  0  0  0  0  0  0  0  0
   -2.4132    0.6318    2.7275 H   0  0  0  0  0  0  0  0  0  0  0  0
   -1.1971    0.7118    4.4750 C   0  0  0  0  0  0  0  0  0  0  0  0
   -0.3779    1.4272    4.5748 H   0  0  0  0  0  0  0  0  0  0  0  0
   -2.0826    1.1064    4.9754 H   0  0  0  0  0  0  0  0  0  0  0  0
   -0.8992   -0.2240    4.9525 H   0  0  0  0  0  0  0  0  0  0  0  0
  5  6  2  0  0  0  0
  5  7  1  0  0  0  0
  2  3  1  0  0  0  0
  2  4  1  0  0  0  0
  2  5  1  0  0  0  0
  1  2  1  0  0  0  0
 26 27  2  0  0  0  0
 26 28  1  0  0  0  0
 23 24  1  0  0  0  0
 23 25  1  0  0  0  0
 20 21  1  0  0  0  0
 20 22  1  0  0  0  0
 20 23  1  0  0  0  0
 17 18  1  0  0  0  0
 17 19  1  0  0  0  0
 17 20  1  0  0  0  0
 14 15  1  0  0  0  0
 14 16  1  0  0  0  0
 14 17  1  0  0  0  0
 11 12  1  0  0  0  0
 11 13  1  0  0  0  0
 11 14  1  0  0  0  0
  9 10  1  0  0  0  0
  9 11  1  0  0  0  0
  9 26  1  0  0  0  0
  7  8  1  0  0  0  0
  7  9  1  0  0  0  0
 30 31  1  0  0  0  0
 30 32  1  0  0  0  0
 30 33  1  0  0  0  0
 28 29  1  0  0  0  0
 28 30  1  0  0  0  0
M  END
$$$$
default_name
  -OEChem-02102213163D

 33 32  0     1  0  0  0  0  0999 V2000
   -3.8420   -3.6918    1.5562 H   0  0  0  0  0  0  0  0  0  0  0  0
   -3.8430   -2.7008    1.1032 C   0  0  0  0  0  0  0  0  0  0  0  0
   -4.5510   -2.0608    1.6242 H   0  0  0  0  0  0  0  0  0  0  0  0
   -4.1140   -2.7798    0.0522 H   0  0  0  0  0  0  0  0  0  0  0  0
   -2.4570   -2.1098    1.2172 C   0  0  0  0  0  0  0  0  0  0  0  0
   -1.5600   -2.7438    1.7572 O   0  0  0  0  0  0  0  0  0  0  0  0
   -2.2870   -0.8898    0.7102 N   0  0  0  0  0  0  0  0  0  0  0  0
   -3.0820   -0.4218    0.2992 H   0  0  0  0  0  0  0  0  0  0  0  0
   -1.0240   -0.1468    0.7262 C   0  0  1  0  0  0  0  0  0  0  0  0
   -0.2680   -0.7367    0.2062 H   0  0  0  0  0  0  0  0  0  0  0  0
   -1.2212    1.1806   -0.0314 C   0  0  0  0  0  0  0  0  0  0  0  0
   -0.2776    1.7300   -0.0204 H   0  0  0  0  0  0  0  0  0  0  0  0
   -1.4789    0.9673   -1.0697 H   0  0  0  0  0  0  0  0  0  0  0  0
   -2.3055    2.0777    0.5856 C   0  0  0  0  0  0  0  0  0  0  0  0
   -2.7315    1.5875    1.4614 H   0  0  0  0  0  0  0  0  0  0  0  0
   -1.8573    3.0256    0.8892 H   0  0  0  0  0  0  0  0  0  0  0  0
   -3.4283    2.3509   -0.4216 C   0  0  0  0  0  0  0  0  0  0  0  0
   -3.0162    2.8346   -1.3077 H   0  0  0  0  0  0  0  0  0  0  0  0
   -3.8952    1.4086   -0.7099 H   0  0  0  0  0  0  0  0  0  0  0  0
   -4.4789    3.2636    0.2080 C   0  0  0  0  0  0  0  0  0  0  0  0
   -4.9052    2.7746    1.0825 H   0  0  0  0  0  0  0  0  0  0  0  0
   -4.0107    4.1981    0.5127 H   0  0  0  0  0  0  0  0  0  0  0  0
   -5.5585    3.5650   -0.7390 N   0  0  0  0  0  0  0  0  0  0  0  0
   -6.2396    4.1568   -0.2865 H   0  0  0  0  0  0  0  0  0  0  0  0
   -5.1731    4.0475   -1.5383 H   0  0  0  0  0  0  0  0  0  0  0  0
   -0.5564    0.0727    2.1744 C   0  0  0  0  0  0  0  0  0  0  0  0
    0.6169   -0.1288    2.4805 O   0  0  0  0  0  0  0  0  0  0  0  0
   -1.4759    0.4743    3.0595 N   0  0  0  0  0  0  0  0  0  0  0  0
   -2.4132    0.6318    2.7275 H   0  0  0  0  0  0  0  0  0  0  0  0
   -1.1971    0.7118    4.4750 C   0  0  0  0  0  0  0  0  0  0  0  0
   -0.3779    1.4272    4.5748 H   0  0  0  0  0  0  0  0  0  0  0  0
   -2.0826    1.1064    4.9754 H   0  0  0  0  0  0  0  0  0  0  0  0
   -0.8992   -0.2240    4.9525 H   0  0  0  0  0  0  0  0  0  0  0  0
  5  6  2  0  0  0  0
  5  7  1  0  0  0  0
  2  3  1  0  0  0  0
  2  4  1  0  0  0  0
  2  5  1  0  0  0  0
  1  2  1  0  0  0  0
 26 27  2  0  0  0  0
 26 28  1  0  0  0  0
 23 24  1  0  0  0  0
 23 25  1  0  0  0  0
 20 21  1  0  0  0  0
 20 22  1  0  0  0  0
 20 23  1  0  0  0  0
 17 18  1  0  0  0  0
 17 19  1  0  0  0  0
 17 20  1  0  0  0  0
 14 15  1  0  0  0  0
 14 16  1  0  0  0  0
 14 17  1  0  0  0  0
 11 12  1  0  0  0  0
 11 13  1  0  0  0  0
 11 14  1  0  0  0  0
  9 10  1  0  0  0  0
  9 11  1  0  0  0  0
  9 26  1  0  0  0  0
  7  8  1  0  0  0  0
  7  9  1  0  0  0  0
 30 31  1  0  0  0  0
 30 32  1  0  0  0  0
 30 33  1  0  0  0  0
 28 29  1  0  0  0  0
 28 30  1  0  0  0  0
M  END
$$$$
default_name
  -OEChem-02102213163D

 33 32  0     1  0  0  0  0  0999 V2000
   -3.8420   -3.6918    1.5562 H   0  0  0  0  0  0  0  0  0  0  0  0
   -3.8430   -2.7008    1.1032 C   0  0  0  0  0  0  0  0  0  0  0  0
   -4.5510   -2.0608    1.6242 H   0  0  0  0  0  0  0  0  0  0  0  0
   -4.1140   -2.7798    0.0522 H   0  0  0  0  0  0  0  0  0  0  0  0
   -2.4570   -2.1098    1.2172 C   0  0  0  0  0  0  0  0  0  0  0  0
   -1.5600   -2.7438    1.7572 O   0  0  0  0  0  0  0  0  0  0  0  0
   -2.2870   -0.8898    0.7102 N   0  0  0  0  0  0  0  0  0  0  0  0
   -3.0820   -0.4218    0.2992 H   0  0  0  0  0  0  0  0  0  0  0  0
   -1.0240   -0.1468    0.7262 C   0  0  1  0  0  0  0  0  0  0  0  0
   -0.2680   -0.7367    0.2062 H   0  0  0  0  0  0  0  0  0  0  0  0
   -1.2212    1.1806   -0.0314 C   0  0  0  0  0  0  0  0  0  0  0  0
   -0.2776    1.7300   -0.0204 H   0  0  0  0  0  0  0  0  0  0  0  0
   -1.4789    0.9673   -1.0697 H   0  0  0  0  0  0  0  0  0  0  0  0
   -2.3055    2.0777    0.5856 C   0  0  0  0  0  0  0  0  0  0  0  0
   -2.5425    1.7272    1.5905 H   0  0  0  0  0  0  0  0  0  0  0  0
   -1.9339    3.1025    0.6429 H   0  0  0  0  0  0  0  0  0  0  0  0
   -3.5838    2.0518   -0.2600 C   0  0  0  0  0  0  0  0  0  0  0  0
   -3.3611    2.3928   -1.2715 H   0  0  0  0  0  0  0  0  0  0  0  0
   -3.9724    1.0338   -0.3005 H   0  0  0  0  0  0  0  0  0  0  0  0
   -4.6350    2.9696    0.3611 C   0  0  0  0  0  0  0  0  0  0  0  0
   -4.8726    2.6200    1.3645 H   0  0  0  0  0  0  0  0  0  0  0  0
   -4.2420    3.9834    0.4186 H   0  0  0  0  0  0  0  0  0  0  0  0
   -5.8657    2.9867   -0.4379 N   0  0  0  0  0  0  0  0  0  0  0  0
   -6.5409    3.5903    0.0078 H   0  0  0  0  0  0  0  0  0  0  0  0
   -5.6568    3.3406   -1.3606 H   0  0  0  0  0  0  0  0  0  0  0  0
   -0.5564    0.0727    2.1744 C   0  0  0  0  0  0  0  0  0  0  0  0
    0.6169   -0.1288    2.4805 O   0  0  0  0  0  0  0  0  0  0  0  0
   -1.4759    0.4743    3.0595 N   0  0  0  0  0  0  0  0  0  0  0  0
   -2.4132    0.6318    2.7275 H   0  0  0  0  0  0  0  0  0  0  0  0
   -1.1971    0.7118    4.4750 C   0  0  0  0  0  0  0  0  0  0  0  0
   -0.3779    1.4272    4.5748 H   0  0  0  0  0  0  0  0  0  0  0  0
   -2.0826    1.1064    4.9754 H   0  0  0  0  0  0  0  0  0  0  0  0
   -0.8992   -0.2240    4.9525 H   0  0  0  0  0  0  0  0  0  0  0  0
  5  6  2  0  0  0  0
  5  7  1  0  0  0  0
  2  3  1  0  0  0  0
  2  4  1  0  0  0  0
  2  5  1  0  0  0  0
  1  2  1  0  0  0  0
 26 27  2  0  0  0  0
 26 28  1  0  0  0  0
 23 24  1  0  0  0  0
 23 25  1  0  0  0  0
 20 21  1  0  0  0  0
 20 22  1  0  0  0  0
 20 23  1  0  0  0  0
 17 18  1  0  0  0  0
 17 19  1  0  0  0  0
 17 20  1  0  0  0  0
 14 15  1  0  0  0  0
 14 16  1  0  0  0  0
 14 17  1  0  0  0  0
 11 12  1  0  0  0  0
 11 13  1  0  0  0  0
 11 14  1  0  0  0  0
  9 10  1  0  0  0  0
  9 11  1  0  0  0  0
  9 26  1  0  0  0  0
  7  8  1  0  0  0  0
  7  9  1  0  0  0  0
 30 31  1  0  0  0  0
 30 32  1  0  0  0  0
 30 33  1  0  0  0  0
 28 29  1  0  0  0  0
 28 30  1  0  0  0  0
M  END
$$$$
default_name
  -OEChem-02102213163D

 33 32  0     1  0  0  0  0  0999 V2000
   -3.8420   -3.6918    1.5562 H   0  0  0  0  0  0  0  0  0  0  0  0
   -3.8430   -2.7008    1.1032 C   0  0  0  0  0  0  0  0  0  0  0  0
   -4.5510   -2.0608    1.6242 H   0  0  0  0  0  0  0  0  0  0  0  0
   -4.1140   -2.7798    0.0522 H   0  0  0  0  0  0  0  0  0  0  0  0
   -2.4570   -2.1098    1.2172 C   0  0  0  0  0  0  0  0  0  0  0  0
   -1.5600   -2.7438    1.7572 O   0  0  0  0  0  0  0  0  0  0  0  0
   -2.2870   -0.8898    0.7102 N   0  0  0  0  0  0  0  0  0  0  0  0
   -3.0820   -0.4218    0.2992 H   0  0  0  0  0  0  0  0  0  0  0  0
   -1.0240   -0.1468    0.7262 C   0  0  1  0  0  0  0  0  0  0  0  0
   -0.2680   -0.7367    0.2062 H   0  0  0  0  0  0  0  0  0  0  0  0
   -1.2212    1.1806   -0.0314 C   0  0  0  0  0  0  0  0  0  0  0  0
   -0.2776    1.7300   -0.0204 H   0  0  0  0  0  0  0  0  0  0  0  0
   -1.4789    0.9673   -1.0697 H   0  0  0  0  0  0  0  0  0  0  0  0
   -2.3055    2.0777    0.5856 C   0  0  0  0  0  0  0  0  0  0  0  0
   -2.3550    1.9053    1.6611 H   0  0  0  0  0  0  0  0  0  0  0  0
   -2.0530    3.1238    0.4025 H   0  0  0  0  0  0  0  0  0  0  0  0
   -3.6785    1.7763   -0.0259 C   0  0  0  0  0  0  0  0  0  0  0  0
   -3.6429    1.9369   -1.1038 H   0  0  0  0  0  0  0  0  0  0  0  0
   -3.9460    0.7385    0.1751 H   0  0  0  0  0  0  0  0  0  0  0  0
   -4.7321    2.6974    0.5862 C   0  0  0  0  0  0  0  0  0  0  0  0
   -4.7825    2.5256    1.6602 H   0  0  0  0  0  0  0  0  0  0  0  0
   -4.4572    3.7347    0.4018 H   0  0  0  0  0  0  0  0  0  0  0  0
   -6.0568    2.4512    0.0049 N   0  0  0  0  0  0  0  0  0  0  0  0
   -6.7286    3.0655    0.4410 H   0  0  0  0  0  0  0  0  0  0  0  0
   -6.0237    2.6401   -0.9869 H   0  0  0  0  0  0  0  0  0  0  0  0
   -0.5564    0.0727    2.1744 C   0  0  0  0  0  0  0  0  0  0  0  0
    0.6169   -0.1288    2.4805 O   0  0  0  0  0  0  0  0  0  0  0  0
   -1.4759    0.4743    3.0595 N   0  0  0  0  0  0  0  0  0  0  0  0
   -2.4132    0.6318    2.7275 H   0  0  0  0  0  0  0  0  0  0  0  0
   -1.1971    0.7118    4.4750 C   0  0  0  0  0  0  0  0  0  0  0  0
   -0.3779    1.4272    4.5748 H   0  0  0  0  0  0  0  0  0  0  0  0
   -2.0826    1.1064    4.9754 H   0  0  0  0  0  0  0  0  0  0  0  0
   -0.8992   -0.2240    4.9525 H   0  0  0  0  0  0  0  0  0  0  0  0
  5  6  2  0  0  0  0
  5  7  1  0  0  0  0
  2  3  1  0  0  0  0
  2  4  1  0  0  0  0
  2  5  1  0  0  0  0
  1  2  1  0  0  0  0
 26 27  2  0  0  0  0
 26 28  1  0  0  0  0
 23 24  1  0  0  0  0
 23 25  1  0  0  0  0
 20 21  1  0  0  0  0
 20 22  1  0  0  0  0
 20 23  1  0  0  0  0
 17 18  1  0  0  0  0
 17 19  1  0  0  0  0
 17 20  1  0  0  0  0
 14 15  1  0  0  0  0
 14 16  1  0  0  0  0
 14 17  1  0  0  0  0
 11 12  1  0  0  0  0
 11 13  1  0  0  0  0
 11 14  1  0  0  0  0
  9 10  1  0  0  0  0
  9 11  1  0  0  0  0
  9 26  1  0  0  0  0
  7  8  1  0  0  0  0
  7  9  1  0  0  0  0
 30 31  1  0  0  0  0
 30 32  1  0  0  0  0
 30 33  1  0  0  0  0
 28 29  1  0  0  0  0
 28 30  1  0  0  0  0
M  END
$$$$
default_name
  -OEChem-02102213163D

 33 32  0     1  0  0  0  0  0999 V2000
   -3.8420   -3.6918    1.5562 H   0  0  0  0  0  0  0  0  0  0  0  0
   -3.8430   -2.7008    1.1032 C   0  0  0  0  0  0  0  0  0  0  0  0
   -4.5510   -2.0608    1.6242 H   0  0  0  0  0  0  0  0  0  0  0  0
   -4.1140   -2.7798    0.0522 H   0  0  0  0  0  0  0  0  0  0  0  0
   -2.4570   -2.1098    1.2172 C   0  0  0  0  0  0  0  0  0  0  0  0
   -1.5600   -2.7438    1.7572 O   0  0  0  0  0  0  0  0  0  0  0  0
   -2.2870   -0.8898    0.7102 N   0  0  0  0  0  0  0  0  0  0  0  0
   -3.0820   -0.4218    0.2992 H   0  0  0  0  0  0  0  0  0  0  0  0
   -1.0240   -0.1468    0.7262 C   0  0  1  0  0  0  0  0  0  0  0  0
   -0.2680   -0.7367    0.2062 H   0  0  0  0  0  0  0  0  0  0  0  0
   -1.2212    1.1806   -0.0314 C   0  0  0  0  0  0  0  0  0  0  0  0
   -0.2776    1.7300   -0.0204 H   0  0  0  0  0  0  0  0  0  0  0  0
   -1.4789    0.9673   -1.0697 H   0  0  0  0  0  0  0  0  0  0  0  0
   -2.3055    2.0777    0.5856 C   0  0  0  0  0  0  0  0  0  0  0  0
   -2.1817    2.1097    1.6684 H   0  0  0  0  0  0  0  0  0  0  0  0
   -2.2066    3.0881    0.1845 H   0  0  0  0  0  0  0  0  0  0  0  0
   -3.7059    1.5431    0.2650 C   0  0  0  0  0  0  0  0  0  0  0  0
   -3.8423    1.4978   -0.8159 H   0  0  0  0  0  0  0  0  0  0  0  0
   -3.8181    0.5429    0.6844 H   0  0  0  0  0  0  0  0  0  0  0  0
   -4.7636    2.4655    0.8680 C   0  0  0  0  0  0  0  0  0  0  0  0
   -4.6410    2.4977    1.9494 H   0  0  0  0  0  0  0  0  0  0  0  0
   -4.6419    3.4690    0.4636 H   0  0  0  0  0  0  0  0  0  0  0  0
   -6.1188    1.9949    0.5593 N   0  0  0  0  0  0  0  0  0  0  0  0
   -6.7899    2.6182    0.9836 H   0  0  0  0  0  0  0  0  0  0  0  0
   -6.2489    1.9935   -0.4424 H   0  0  0  0  0  0  0  0  0  0  0  0
   -0.5564    0.0727    2.1744 C   0  0  0  0  0  0  0  0  0  0  0  0
    0.6169   -0.1288    2.4805 O   0  0  0  0  0  0  0  0  0  0  0  0
   -1.4759    0.4743    3.0595 N   0  0  0  0  0  0  0  0  0  0  0  0
   -2.4132    0.6318    2.7275 H   0  0  0  0  0  0  0  0  0  0  0  0
   -1.1971    0.7118    4.4750 C   0  0  0  0  0  0  0  0  0  0  0  0
   -0.3779    1.4272    4.5748 H   0  0  0  0  0  0  0  0  0  0  0  0
   -2.0826    1.1064    4.9754 H   0  0  0  0  0  0  0  0  0  0  0  0
   -0.8992   -0.2240    4.9525 H   0  0  0  0  0  0  0  0  0  0  0  0
  5  6  2  0  0  0  0
  5  7  1  0  0  0  0
  2  3  1  0  0  0  0
  2  4  1  0  0  0  0
  2  5  1  0  0  0  0
  1  2  1  0  0  0  0
 26 27  2  0  0  0  0
 26 28  1  0  0  0  0
 23 24  1  0  0  0  0
 23 25  1  0  0  0  0
 20 21  1  0  0  0  0
 20 22  1  0  0  0  0
 20 23  1  0  0  0  0
 17 18  1  0  0  0  0
 17 19  1  0  0  0  0
 17 20  1  0  0  0  0
 14 15  1  0  0  0  0
 14 16  1  0  0  0  0
 14 17  1  0  0  0  0
 11 12  1  0  0  0  0
 11 13  1  0  0  0  0
 11 14  1  0  0  0  0
  9 10  1  0  0  0  0
  9 11  1  0  0  0  0
  9 26  1  0  0  0  0
  7  8  1  0  0  0  0
  7  9  1  0  0  0  0
 30 31  1  0  0  0  0
 30 32  1  0  0  0  0
 30 33  1  0  0  0  0
 28 29  1  0  0  0  0
 28 30  1  0  0  0  0
M  END
$$$$
default_name
  -OEChem-02102213163D

 33 32  0     1  0  0  0  0  0999 V2000
   -3.8420   -3.6918    1.5562 H   0  0  0  0  0  0  0  0  0  0  0  0
   -3.8430   -2.7008    1.1032 C   0  0  0  0  0  0  0  0  0  0  0  0
   -4.5510   -2.0608    1.6242 H   0  0  0  0  0  0  0  0  0  0  0  0
   -4.1140   -2.7798    0.0522 H   0  0  0  0  0  0  0  0  0  0  0  0
   -2.4570   -2.1098    1.2172 C   0  0  0  0  0  0  0  0  0  0  0  0
   -1.5600   -2.7438    1.7572 O   0  0  0  0  0  0  0  0  0  0  0  0
   -2.2870   -0.8898    0.7102 N   0  0  0  0  0  0  0  0  0  0  0  0
   -3.0820   -0.4218    0.2992 H   0  0  0  0  0  0  0  0  0  0  0  0
   -1.0240   -0.1468    0.7262 C   0  0  1  0  0  0  0  0  0  0  0  0
   -0.2680   -0.7367    0.2062 H   0  0  0  0  0  0  0  0  0  0  0  0
   -1.2212    1.1806   -0.0314 C   0  0  0  0  0  0  0  0  0  0  0  0
   -0.2776    1.7300   -0.0204 H   0  0  0  0  0  0  0  0  0  0  0  0
   -1.4789    0.9673   -1.0697 H   0  0  0  0  0  0  0  0  0  0  0  0
   -2.3055    2.0777    0.5856 C   0  0  0  0  0  0  0  0  0  0  0  0
   -2.0344    2.3266    1.6119 H   0  0  0  0  0  0  0  0  0  0  0  0
   -2.3842    2.9978    0.0036 H   0  0  0  0  0  0  0  0  0  0  0  0
   -3.6643    1.3681    0.5926 C   0  0  0  0  0  0  0  0  0  0  0  0
   -3.9459    1.1055   -0.4275 H   0  0  0  0  0  0  0  0  0  0  0  0
   -3.5971    0.4602    1.1928 H   0  0  0  0  0  0  0  0  0  0  0  0
   -4.7273    2.2897    1.1874 C   0  0  0  0  0  0  0  0  0  0  0  0
   -4.4577    2.5384    2.2125 H   0  0  0  0  0  0  0  0  0  0  0  0
   -4.7833    3.2045    0.5997 H   0  0  0  0  0  0  0  0  0  0  0  0
   -6.0475    1.6490    1.1875 N   0  0  0  0  0  0  0  0  0  0  0  0
   -6.7207    2.2788    1.5987 H   0  0  0  0  0  0  0  0  0  0  0  0
   -6.3169    1.4450    0.2356 H   0  0  0  0  0  0  0  0  0  0  0  0
   -0.5564    0.0727    2.1744 C   0  0  0  0  0  0  0  0  0  0  0  0
    0.6169   -0.1288    2.4805 O   0  0  0  0  0  0  0  0  0  0  0  0
   -1.4759    0.4743    3.0595 N   0  0  0  0  0  0  0  0  0  0  0  0
   -2.4132    0.6318    2.7275 H   0  0  0  0  0  0  0  0  0  0  0  0
   -1.1971    0.7118    4.4750 C   0  0  0  0  0  0  0  0  0  0  0  0
   -0.3779    1.4272    4.5748 H   0  0  0  0  0  0  0  0  0  0  0  0
   -2.0826    1.1064    4.9754 H   0  0  0  0  0  0  0  0  0  0  0  0
   -0.8992   -0.2240    4.9525 H   0  0  0  0  0  0  0  0  0  0  0  0
  5  6  2  0  0  0  0
  5  7  1  0  0  0  0
  2  3  1  0  0  0  0
  2  4  1  0  0  0  0
  2  5  1  0  0  0  0
  1  2  1  0  0  0  0
 26 27  2  0  0  0  0
 26 28  1  0  0  0  0
 23 24  1  0  0  0  0
 23 25  1  0  0  0  0
 20 21  1  0  0  0  0
 20 22  1  0  0  0  0
 20 23  1  0  0  0  0
 17 18  1  0  0  0  0
 17 19  1  0  0  0  0
 17 20  1  0  0  0  0
 14 15  1  0  0  0  0
 14 16  1  0  0  0  0
 14 17  1  0  0  0  0
 11 12  1  0  0  0  0
 11 13  1  0  0  0  0
 11 14  1  0  0  0  0
  9 10  1  0  0  0  0
  9 11  1  0  0  0  0
  9 26  1  0  0  0  0
  7  8  1  0  0  0  0
  7  9  1  0  0  0  0
 30 31  1  0  0  0  0
 30 32  1  0  0  0  0
 30 33  1  0  0  0  0
 28 29  1  0  0  0  0
 28 30  1  0  0  0  0
M  END
$$$$
default_name
  -OEChem-02102213163D

 33 32  0     1  0  0  0  0  0999 V2000
   -3.8420   -3.6918    1.5562 H   0  0  0  0  0  0  0  0  0  0  0  0
   -3.8430   -2.7008    1.1032 C   0  0  0  0  0  0  0  0  0  0  0  0
   -4.5510   -2.0608    1.6242 H   0  0  0  0  0  0  0  0  0  0  0  0
   -4.1140   -2.7798    0.0522 H   0  0  0  0  0  0  0  0  0  0  0  0
   -2.4570   -2.1098    1.2172 C   0  0  0  0  0  0  0  0  0  0  0  0
   -1.5600   -2.7438    1.7572 O   0  0  0  0  0  0  0  0  0  0  0  0
   -2.2870   -0.8898    0.7102 N   0  0  0  0  0  0  0  0  0  0  0  0
   -3.0820   -0.4218    0.2992 H   0  0  0  0  0  0  0  0  0  0  0  0
   -1.0240   -0.1468    0.7262 C   0  0  1  0  0  0  0  0  0  0  0  0
   -0.2680   -0.7367    0.2062 H   0  0  0  0  0  0  0  0  0  0  0  0
   -1.2212    1.1806   -0.0314 C   0  0  0  0  0  0  0  0  0  0  0  0
   -0.2776    1.7300   -0.0204 H   0  0  0  0  0  0  0  0  0  0  0  0
   -1.4789    0.9673   -1.0697 H   0  0  0  0  0  0  0  0  0  0  0  0
   -2.3055    2.0777    0.5856 C   0  0  0  0  0  0  0  0  0  0  0  0
   -1.9232    2.5410    1.4956 H   0  0  0  0  0  0  0  0  0  0  0  0
   -2.5737    2.8591   -0.1278 H   0  0  0  0  0  0  0  0  0  0  0  0
   -3.5563    1.2633    0.9348 C   0  0  0  0  0  0  0  0  0  0  0  0
   -3.9464    0.7868    0.0349 H   0  0  0  0  0  0  0  0  0  0  0  0
   -3.2984    0.4962    1.6656 H   0  0  0  0  0  0  0  0  0  0  0  0
   -4.6258    2.1820    1.5225 C   0  0  0  0  0  0  0  0  0  0  0  0
   -4.2450    2.6447    2.4315 H   0  0  0  0  0  0  0  0  0  0  0  0
   -4.8718    2.9592    0.8008 H   0  0  0  0  0  0  0  0  0  0  0  0
   -5.8478    1.4370    1.8467 N   0  0  0  0  0  0  0  0  0  0  0  0
   -6.5256    2.0706    2.2444 H   0  0  0  0  0  0  0  0  0  0  0  0
   -6.2231    1.0319    1.0009 H   0  0  0  0  0  0  0  0  0  0  0  0
   -0.5564    0.0727    2.1744 C   0  0  0  0  0  0  0  0  0  0  0  0
    0.6169   -0.1288    2.4805 O   0  0  0  0  0  0  0  0  0  0  0  0
   -1.4759    0.4743    3.0595 N   0  0  0  0  0  0  0  0  0  0  0  0
   -2.4132    0.6318    2.7275 H   0  0  0  0  0  0  0  0  0  0  0  0
   -1.1971    0.7118    4.4750 C   0  0  0  0  0  0  0  0  0  0  0  0
   -0.3779    1.4272    4.5748 H   0  0  0  0  0  0  0  0  0  0  0  0
   -2.0826    1.1064    4.9754 H   0  0  0  0  0  0  0  0  0  0  0  0
   -0.8992   -0.2240    4.9525 H   0  0  0  0  0  0  0  0  0  0  0  0
  5  6  2  0  0  0  0
  5  7  1  0  0  0  0
  2  3  1  0  0  0  0
  2  4  1  0  0  0  0
  2  5  1  0  0  0  0
  1  2  1  0  0  0  0
 26 27  2  0  0  0  0
 26 28  1  0  0  0  0
 23 24  1  0  0  0  0
 23 25  1  0  0  0  0
 20 21  1  0  0  0  0
 20 22  1  0  0  0  0
 20 23  1  0  0  0  0
 17 18  1  0  0  0  0
 17 19  1  0  0  0  0
 17 20  1  0  0  0  0
 14 15  1  0  0  0  0
 14 16  1  0  0  0  0
 14 17  1  0  0  0  0
 11 12  1  0  0  0  0
 11 13  1  0  0  0  0
 11 14  1  0  0  0  0
  9 10  1  0  0  0  0
  9 11  1  0  0  0  0
  9 26  1  0  0  0  0
  7  8  1  0  0  0  0
  7  9  1  0  0  0  0
 30 31  1  0  0  0  0
 30 32  1  0  0  0  0
 30 33  1  0  0  0  0
 28 29  1  0  0  0  0
 28 30  1  0  0  0  0
M  END
$$$$
default_name
  -OEChem-02102213163D

 33 32  0     1  0  0  0  0  0999 V2000
   -3.8420   -3.6918    1.5562 H   0  0  0  0  0  0  0  0  0  0  0  0
   -3.8430   -2.7008    1.1032 C   0  0  0  0  0  0  0  0  0  0  0  0
   -4.5510   -2.0608    1.6242 H   0  0  0  0  0  0  0  0  0  0  0  0
   -4.1140   -2.7798    0.0522 H   0  0  0  0  0  0  0  0  0  0  0  0
   -2.4570   -2.1098    1.2172 C   0  0  0  0  0  0  0  0  0  0  0  0
   -1.5600   -2.7438    1.7572 O   0  0  0  0  0  0  0  0  0  0  0  0
   -2.2870   -0.8898    0.7102 N   0  0  0  0  0  0  0  0  0  0  0  0
   -3.0820   -0.4218    0.2992 H   0  0  0  0  0  0  0  0  0  0  0  0
   -1.0240   -0.1468    0.7262 C   0  0  1  0  0  0  0  0  0  0  0  0
   -0.2680   -0.7367    0.2062 H   0  0  0  0  0  0  0  0  0  0  0  0
   -1.2212    1.1806   -0.0314 C   0  0  0  0  0  0  0  0  0  0  0  0
   -0.2776    1.7300   -0.0204 H   0  0  0  0  0  0  0  0  0  0  0  0
   -1.4789    0.9673   -1.0697 H   0  0  0  0  0  0  0  0  0  0  0  0
   -2.3055    2.0777    0.5856 C   0  0  0  0  0  0  0  0  0  0  0  0
   -1.8557    2.7384    1.3272 H   0  0  0  0  0  0  0  0  0  0  0  0
   -2.7622    2.6815   -0.2008 H   0  0  0  0  0  0  0  0  0  0  0  0
   -3.3895    1.2357    1.2681 C   0  0  0  0  0  0  0  0  0  0  0  0
   -3.8440    0.5633    0.5399 H   0  0  0  0  0  0  0  0  0  0  0  0
   -2.9421    0.6484    2.0705 H   0  0  0  0  0  0  0  0  0  0  0  0
   -4.4659    2.1497    1.8505 C   0  0  0  0  0  0  0  0  0  0  0  0
   -4.0177    2.8095    2.5915 H   0  0  0  0  0  0  0  0  0  0  0  0
   -4.9014    2.7497    1.0532 H   0  0  0  0  0  0  0  0  0  0  0  0
   -5.5332    1.3734    2.4920 N   0  0  0  0  0  0  0  0  0  0  0  0
   -6.2179    2.0077    2.8766 H   0  0  0  0  0  0  0  0  0  0  0  0
   -5.9740    0.7825    1.8015 H   0  0  0  0  0  0  0  0  0  0  0  0
   -0.5564    0.0727    2.1744 C   0  0  0  0  0  0  0  0  0  0  0  0
    0.6169   -0.1288    2.4805 O   0  0  0  0  0  0  0  0  0  0  0  0
   -1.4759    0.4743    3.0595 N   0  0  0  0  0  0  0  0  0  0  0  0
   -2.4132    0.6318    2.7275 H   0  0  0  0  0  0  0  0  0  0  0  0
   -1.1971    0.7118    4.4750 C   0  0  0  0  0  0  0  0  0  0  0  0
   -0.3779    1.4272    4.5748 H   0  0  0  0  0  0  0  0  0  0  0  0
   -2.0826    1.1064    4.9754 H   0  0  0  0  0  0  0  0  0  0  0  0
   -0.8992   -0.2240    4.9525 H   0  0  0  0  0  0  0  0  0  0  0  0
  5  6  2  0  0  0  0
  5  7  1  0  0  0  0
  2  3  1  0  0  0  0
  2  4  1  0  0  0  0
  2  5  1  0  0  0  0
  1  2  1  0  0  0  0
 26 27  2  0  0  0  0
 26 28  1  0  0  0  0
 23 24  1  0  0  0  0
 23 25  1  0  0  0  0
 20 21  1  0  0  0  0
 20 22  1  0  0  0  0
 20 23  1  0  0  0  0
 17 18  1  0  0  0  0
 17 19  1  0  0  0  0
 17 20  1  0  0  0  0
 14 15  1  0  0  0  0
 14 16  1  0  0  0  0
 14 17  1  0  0  0  0
 11 12  1  0  0  0  0
 11 13  1  0  0  0  0
 11 14  1  0  0  0  0
  9 10  1  0  0  0  0
  9 11  1  0  0  0  0
  9 26  1  0  0  0  0
  7  8  1  0  0  0  0
  7  9  1  0  0  0  0
 30 31  1  0  0  0  0
 30 32  1  0  0  0  0
 30 33  1  0  0  0  0
 28 29  1  0  0  0  0
 28 30  1  0  0  0  0
M  END
$$$$
default_name
  -OEChem-02102213163D

 33 32  0     1  0  0  0  0  0999 V2000
   -3.8420   -3.6918    1.5562 H   0  0  0  0  0  0  0  0  0  0  0  0
   -3.8430   -2.7008    1.1032 C   0  0  0  0  0  0  0  0  0  0  0  0
   -4.5510   -2.0608    1.6242 H   0  0  0  0  0  0  0  0  0  0  0  0
   -4.1140   -2.7798    0.0522 H   0  0  0  0  0  0  0  0  0  0  0  0
   -2.4570   -2.1098    1.2172 C   0  0  0  0  0  0  0  0  0  0  0  0
   -1.5600   -2.7438    1.7572 O   0  0  0  0  0  0  0  0  0  0  0  0
   -2.2870   -0.8898    0.7102 N   0  0  0  0  0  0  0  0  0  0  0  0
   -3.0820   -0.4218    0.2992 H   0  0  0  0  0  0  0  0  0  0  0  0
   -1.0240   -0.1468    0.7262 C   0  0  1  0  0  0  0  0  0  0  0  0
   -0.2680   -0.7367    0.2062 H   0  0  0  0  0  0  0  0  0  0  0  0
   -1.2212    1.1806   -0.0314 C   0  0  0  0  0  0  0  0  0  0  0  0
   -0.2776    1.7300   -0.0204 H   0  0  0  0  0  0  0  0  0  0  0  0
   -1.4789    0.9673   -1.0697 H   0  0  0  0  0  0  0  0  0  0  0  0
   -2.3055    2.0777    0.5856 C   0  0  0  0  0  0  0  0  0  0  0  0
   -1.8364    2.9054    1.1183 H   0  0  0  0  0  0  0  0  0  0  0  0
   -2.9368    2.4770   -0.2104 H   0  0  0  0  0  0  0  0  0  0  0  0
   -3.1750    1.2873    1.5699 C   0  0  0  0  0  0  0  0  0  0  0  0
   -3.6455    0.4504    1.0530 H   0  0  0  0  0  0  0  0  0  0  0  0
   -2.5525    0.9064    2.3801 H   0  0  0  0  0  0  0  0  0  0  0  0
   -4.2585    2.1950    2.1490 C   0  0  0  0  0  0  0  0  0  0  0  0
   -3.7910    3.0216    2.6816 H   0  0  0  0  0  0  0  0  0  0  0  0
   -4.8702    2.5905    1.3398 H   0  0  0  0  0  0  0  0  0  0  0  0
   -5.1253    1.4625    3.0794 N   0  0  0  0  0  0  0  0  0  0  0  0
   -5.8186    2.0943    3.4523 H   0  0  0  0  0  0  0  0  0  0  0  0
   -5.5865    0.7136    2.5827 H   0  0  0  0  0  0  0  0  0  0  0  0
   -0.5564    0.0727    2.1744 C   0  0  0  0  0  0  0  0  0  0  0  0
    0.6169   -0.1288    2.4805 O   0  0  0  0  0  0  0  0  0  0  0  0
   -1.4759    0.4743    3.0595 N   0  0  0  0  0  0  0  0  0  0  0  0
   -2.4132    0.6318    2.7275 H   0  0  0  0  0  0  0  0  0  0  0  0
   -1.1971    0.7118    4.4750 C   0  0  0  0  0  0  0  0  0  0  0  0
   -0.3779    1.4272    4.5748 H   0  0  0  0  0  0  0  0  0  0  0  0
   -2.0826    1.1064    4.9754 H   0  0  0  0  0  0  0  0  0  0  0  0
   -0.8992   -0.2240    4.9525 H   0  0  0  0  0  0  0  0  0  0  0  0
  5  6  2  0  0  0  0
  5  7  1  0  0  0  0
  2  3  1  0  0  0  0
  2  4  1  0  0  0  0
  2  5  1  0  0  0  0
  1  2  1  0  0  0  0
 26 27  2  0  0  0  0
 26 28  1  0  0  0  0
 23 24  1  0  0  0  0
 23 25  1  0  0  0  0
 20 21  1  0  0  0  0
 20 22  1  0  0  0  0
 20 23  1  0  0  0  0
 17 18  1  0  0  0  0
 17 19  1  0  0  0  0
 17 20  1  0  0  0  0
 14 15  1  0  0  0  0
 14 16  1  0  0  0  0
 14 17  1  0  0  0  0
 11 12  1  0  0  0  0
 11 13  1  0  0  0  0
 11 14  1  0  0  0  0
  9 10  1  0  0  0  0
  9 11  1  0  0  0  0
  9 26  1  0  0  0  0
  7  8  1  0  0  0  0
  7  9  1  0  0  0  0
 30 31  1  0  0  0  0
 30 32  1  0  0  0  0
 30 33  1  0  0  0  0
 28 29  1  0  0  0  0
 28 30  1  0  0  0  0
M  END
$$$$
default_name
  -OEChem-02102213163D

 33 32  0     1  0  0  0  0  0999 V2000
   -3.8420   -3.6918    1.5562 H   0  0  0  0  0  0  0  0  0  0  0  0
   -3.8430   -2.7008    1.1032 C   0  0  0  0  0  0  0  0  0  0  0  0
   -4.5510   -2.0608    1.6242 H   0  0  0  0  0  0  0  0  0  0  0  0
   -4.1140   -2.7798    0.0522 H   0  0  0  0  0  0  0  0  0  0  0  0
   -2.4570   -2.1098    1.2172 C   0  0  0  0  0  0  0  0  0  0  0  0
   -1.5600   -2.7438    1.7572 O   0  0  0  0  0  0  0  0  0  0  0  0
   -2.2870   -0.8898    0.7102 N   0  0  0  0  0  0  0  0  0  0  0  0
   -3.0820   -0.4218    0.2992 H   0  0  0  0  0  0  0  0  0  0  0  0
   -1.0240   -0.1468    0.7262 C   0  0  1  0  0  0  0  0  0  0  0  0
   -0.2680   -0.7367    0.2062 H   0  0  0  0  0  0  0  0  0  0  0  0
   -1.2212    1.1806   -0.0314 C   0  0  0  0  0  0  0  0  0  0  0  0
   -0.2776    1.7300   -0.0204 H   0  0  0  0  0  0  0  0  0  0  0  0
   -1.4789    0.9673   -1.0697 H   0  0  0  0  0  0  0  0  0  0  0  0
   -2.3055    2.0777    0.5856 C   0  0  0  0  0  0  0  0  0  0  0  0
   -1.8667    3.0305    0.8831 H   0  0  0  0  0  0  0  0  0  0  0  0
   -3.0857    2.2596   -0.1559 H   0  0  0  0  0  0  0  0  0  0  0  0
   -2.9277    1.4145    1.8196 C   0  0  0  0  0  0  0  0  0  0  0  0
   -3.3645    0.4556    1.5393 H   0  0  0  0  0  0  0  0  0  0  0  0
   -2.1563    1.2525    2.5731 H   0  0  0  0  0  0  0  0  0  0  0  0
   -4.0178    2.3149    2.3978 C   0  0  0  0  0  0  0  0  0  0  0  0
   -3.5804    3.2664    2.6957 H   0  0  0  0  0  0  0  0  0  0  0  0
   -4.7801    2.4922    1.6410 H   0  0  0  0  0  0  0  0  0  0  0  0
   -4.6517    1.6983    3.5688 N   0  0  0  0  0  0  0  0  0  0  0  0
   -5.3550    2.3247    3.9322 H   0  0  0  0  0  0  0  0  0  0  0  0
   -5.0869    0.8300    3.2913 H   0  0  0  0  0  0  0  0  0  0  0  0
   -0.5564    0.0727    2.1744 C   0  0  0  0  0  0  0  0  0  0  0  0
    0.6169   -0.1288    2.4805 O   0  0  0  0  0  0  0  0  0  0  0  0
   -1.4759    0.4743    3.0595 N   0  0  0  0  0  0  0  0  0  0  0  0
   -2.4132    0.6318    2.7275 H   0  0  0  0  0  0  0  0  0  0  0  0
   -1.1971    0.7118    4.4750 C   0  0  0  0  0  0  0  0  0  0  0  0
   -0.3779    1.4272    4.5748 H   0  0  0  0  0  0  0  0  0  0  0  0
   -2.0826    1.1064    4.9754 H   0  0  0  0  0  0  0  0  0  0  0  0
   -0.8992   -0.2240    4.9525 H   0  0  0  0  0  0  0  0  0  0  0  0
  5  6  2  0  0  0  0
  5  7  1  0  0  0  0
  2  3  1  0  0  0  0
  2  4  1  0  0  0  0
  2  5  1  0  0  0  0
  1  2  1  0  0  0  0
 26 27  2  0  0  0  0
 26 28  1  0  0  0  0
 23 24  1  0  0  0  0
 23 25  1  0  0  0  0
 20 21  1  0  0  0  0
 20 22  1  0  0  0  0
 20 23  1  0  0  0  0
 17 18  1  0  0  0  0
 17 19  1  0  0  0  0
 17 20  1  0  0  0  0
 14 15  1  0  0  0  0
 14 16  1  0  0  0  0
 14 17  1  0  0  0  0
 11 12  1  0  0  0  0
 11 13  1  0  0  0  0
 11 14  1  0  0  0  0
  9 10  1  0  0  0  0
  9 11  1  0  0  0  0
  9 26  1  0  0  0  0
  7  8  1  0  0  0  0
  7  9  1  0  0  0  0
 30 31  1  0  0  0  0
 30 32  1  0  0  0  0
 30 33  1  0  0  0  0
 28 29  1  0  0  0  0
 28 30  1  0  0  0  0
M  END
$$$$
default_name
  -OEChem-02102213163D

 33 32  0     1  0  0  0  0  0999 V2000
   -3.8420   -3.6918    1.5562 H   0  0  0  0  0  0  0  0  0  0  0  0
   -3.8430   -2.7008    1.1032 C   0  0  0  0  0  0  0  0  0  0  0  0
   -4.5510   -2.0608    1.6242 H   0  0  0  0  0  0  0  0  0  0  0  0
   -4.1140   -2.7798    0.0522 H   0  0  0  0  0  0  0  0  0  0  0  0
   -2.4570   -2.1098    1.2172 C   0  0  0  0  0  0  0  0  0  0  0  0
   -1.5600   -2.7438    1.7572 O   0  0  0  0  0  0  0  0  0  0  0  0
   -2.2870   -0.8898    0.7102 N   0  0  0  0  0  0  0  0  0  0  0  0
   -3.0820   -0.4218    0.2992 H   0  0  0  0  0  0  0  0  0  0  0  0
   -1.0240   -0.1468    0.7262 C   0  0  1  0  0  0  0  0  0  0  0  0
   -0.2680   -0.7367    0.2062 H   0  0  0  0  0  0  0  0  0  0  0  0
   -1.2212    1.1806   -0.0314 C   0  0  0  0  0  0  0  0  0  0  0  0
   -0.2776    1.7300   -0.0204 H   0  0  0  0  0  0  0  0  0  0  0  0
   -1.4789    0.9673   -1.0697 H   0  0  0  0  0  0  0  0  0  0  0  0
   -2.3055    2.0777    0.5856 C   0  0  0  0  0  0  0  0  0  0  0  0
   -1.9445    3.1053    0.6377 H   0  0  0  0  0  0  0  0  0  0  0  0
   -3.1987    2.0440   -0.0410 H   0  0  0  0  0  0  0  0  0  0  0  0
   -2.6643    1.6088    2.0002 C   0  0  0  0  0  0  0  0  0  0  0  0
   -3.0201    0.5786    1.9656 H   0  0  0  0  0  0  0  0  0  0  0  0
   -1.7804    1.6634    2.6364 H   0  0  0  0  0  0  0  0  0  0  0  0
   -3.7601    2.5011    2.5799 C   0  0  0  0  0  0  0  0  0  0  0  0
   -3.4004    3.5274    2.6327 H   0  0  0  0  0  0  0  0  0  0  0  0
   -4.6374    2.4617    1.9362 H   0  0  0  0  0  0  0  0  0  0  0  0
   -4.1449    2.0646    3.9270 N   0  0  0  0  0  0  0  0  0  0  0  0
   -4.8586    2.6830    4.2837 H   0  0  0  0  0  0  0  0  0  0  0  0
   -4.5095    1.1238    3.8790 H   0  0  0  0  0  0  0  0  0  0  0  0
   -0.5564    0.0727    2.1744 C   0  0  0  0  0  0  0  0  0  0  0  0
    0.6169   -0.1288    2.4805 O   0  0  0  0  0  0  0  0  0  0  0  0
   -1.4759    0.4743    3.0595 N   0  0  0  0  0  0  0  0  0  0  0  0
   -2.4132    0.6318    2.7275 H   0  0  0  0  0  0  0  0  0  0  0  0
   -1.1971    0.7118    4.4750 C   0  0  0  0  0  0  0  0  0  0  0  0
   -0.3779    1.4272    4.5748 H   0  0  0  0  0  0  0  0  0  0  0  0
   -2.0826    1.1064    4.9754 H   0  0  0  0  0  0  0  0  0  0  0  0
   -0.8992   -0.2240    4.9525 H   0  0  0  0  0  0  0  0  0  0  0  0
  5  6  2  0  0  0  0
  5  7  1  0  0  0  0
  2  3  1  0  0  0  0
  2  4  1  0  0  0  0
  2  5  1  0  0  0  0
  1  2  1  0  0  0  0
 26 27  2  0  0  0  0
 26 28  1  0  0  0  0
 23 24  1  0  0  0  0
 23 25  1  0  0  0  0
 20 21  1  0  0  0  0
 20 22  1  0  0  0  0
 20 23  1  0  0  0  0
 17 18  1  0  0  0  0
 17 19  1  0  0  0  0
 17 20  1  0  0  0  0
 14 15  1  0  0  0  0
 14 16  1  0  0  0  0
 14 17  1  0  0  0  0
 11 12  1  0  0  0  0
 11 13  1  0  0  0  0
 11 14  1  0  0  0  0
  9 10  1  0  0  0  0
  9 11  1  0  0  0  0
  9 26  1  0  0  0  0
  7  8  1  0  0  0  0
  7  9  1  0  0  0  0
 30 31  1  0  0  0  0
 30 32  1  0  0  0  0
 30 33  1  0  0  0  0
 28 29  1  0  0  0  0
 28 30  1  0  0  0  0
M  END
$$$$
default_name
  -OEChem-02102213163D

 33 32  0     1  0  0  0  0  0999 V2000
   -3.8420   -3.6918    1.5562 H   0  0  0  0  0  0  0  0  0  0  0  0
   -3.8430   -2.7008    1.1032 C   0  0  0  0  0  0  0  0  0  0  0  0
   -4.5510   -2.0608    1.6242 H   0  0  0  0  0  0  0  0  0  0  0  0
   -4.1140   -2.7798    0.0522 H   0  0  0  0  0  0  0  0  0  0  0  0
   -2.4570   -2.1098    1.2172 C   0  0  0  0  0  0  0  0  0  0  0  0
   -1.5600   -2.7438    1.7572 O   0  0  0  0  0  0  0  0  0  0  0  0
   -2.2870   -0.8898    0.7102 N   0  0  0  0  0  0  0  0  0  0  0  0
   -3.0820   -0.4218    0.2992 H   0  0  0  0  0  0  0  0  0  0  0  0
   -1.0240   -0.1468    0.7262 C   0  0  1  0  0  0  0  0  0  0  0  0
   -0.2680   -0.7367    0.2062 H   0  0  0  0  0  0  0  0  0  0  0  0
   -1.2212    1.1806   -0.0314 C   0  0  0  0  0  0  0  0  0  0  0  0
   -0.2776    1.7300   -0.0204 H   0  0  0  0  0  0  0  0  0  0  0  0
   -1.4789    0.9673   -1.0697 H   0  0  0  0  0  0  0  0  0  0  0  0
   -2.3055    2.0777    0.5856 C   0  0  0  0  0  0  0  0  0  0  0  0
   -2.0646    3.1246    0.3987 H   0  0  0  0  0  0  0  0  0  0  0  0
   -3.2681    1.8450    0.1264 H   0  0  0  0  0  0  0  0  0  0  0  0
   -2.4027    1.8567    2.0993 C   0  0  0  0  0  0  0  0  0  0  0  0
   -2.6359    0.8111    2.3028 H   0  0  0  0  0  0  0  0  0  0  0  0
   -1.4504    2.1108    2.5657 H   0  0  0  0  0  0  0  0  0  0  0  0
   -3.5031    2.7410    2.6827 C   0  0  0  0  0  0  0  0  0  0  0  0
   -3.2631    3.7866    2.4970 H   0  0  0  0  0  0  0  0  0  0  0  0
   -4.4517    2.5009    2.2054 H   0  0  0  0  0  0  0  0  0  0  0  0
   -3.6392    2.5365    4.1295 N   0  0  0  0  0  0  0  0  0  0  0  0
   -4.3633    3.1448    4.4827 H   0  0  0  0  0  0  0  0  0  0  0  0
   -3.8934    1.5750    4.3057 H   0  0  0  0  0  0  0  0  0  0  0  0
   -0.5564    0.0727    2.1744 C   0  0  0  0  0  0  0  0  0  0  0  0
    0.6169   -0.1288    2.4805 O   0  0  0  0  0  0  0  0  0  0  0  0
   -1.4759    0.4743    3.0595 N   0  0  0  0  0  0  0  0  0  0  0  0
   -2.4132    0.6318    2.7275 H   0  0  0  0  0  0  0  0  0  0  0  0
   -1.1971    0.7118    4.4750 C   0  0  0  0  0  0  0  0  0  0  0  0
   -0.3779    1.4272    4.5748 H   0  0  0  0  0  0  0  0  0  0  0  0
   -2.0826    1.1064    4.9754 H   0  0  0  0  0  0  0  0  0  0  0  0
   -0.8992   -0.2240    4.9525 H   0  0  0  0  0  0  0  0  0  0  0  0
  5  6  2  0  0  0  0
  5  7  1  0  0  0  0
  2  3  1  0  0  0  0
  2  4  1  0  0  0  0
  2  5  1  0  0  0  0
  1  2  1  0  0  0  0
 26 27  2  0  0  0  0
 26 28  1  0  0  0  0
 23 24  1  0  0  0  0
 23 25  1  0  0  0  0
 20 21  1  0  0  0  0
 20 22  1  0  0  0  0
 20 23  1  0  0  0  0
 17 18  1  0  0  0  0
 17 19  1  0  0  0  0
 17 20  1  0  0  0  0
 14 15  1  0  0  0  0
 14 16  1  0  0  0  0
 14 17  1  0  0  0  0
 11 12  1  0  0  0  0
 11 13  1  0  0  0  0
 11 14  1  0  0  0  0
  9 10  1  0  0  0  0
  9 11  1  0  0  0  0
  9 26  1  0  0  0  0
  7  8  1  0  0  0  0
  7  9  1  0  0  0  0
 30 31  1  0  0  0  0
 30 32  1  0  0  0  0
 30 33  1  0  0  0  0
 28 29  1  0  0  0  0
 28 30  1  0  0  0  0
M  END
$$$$
default_name
  -OEChem-02102213163D

 33 32  0     1  0  0  0  0  0999 V2000
   -3.8420   -3.6918    1.5562 H   0  0  0  0  0  0  0  0  0  0  0  0
   -3.8430   -2.7008    1.1032 C   0  0  0  0  0  0  0  0  0  0  0  0
   -4.5510   -2.0608    1.6242 H   0  0  0  0  0  0  0  0  0  0  0  0
   -4.1140   -2.7798    0.0522 H   0  0  0  0  0  0  0  0  0  0  0  0
   -2.4570   -2.1098    1.2172 C   0  0  0  0  0  0  0  0  0  0  0  0
   -1.5600   -2.7438    1.7572 O   0  0  0  0  0  0  0  0  0  0  0  0
   -2.2870   -0.8898    0.7102 N   0  0  0  0  0  0  0  0  0  0  0  0
   -3.0820   -0.4218    0.2992 H   0  0  0  0  0  0  0  0  0  0  0  0
   -1.0240   -0.1468    0.7262 C   0  0  1  0  0  0  0  0  0  0  0  0
   -0.2680   -0.7367    0.2062 H   0  0  0  0  0  0  0  0  0  0  0  0
   -1.2212    1.1806   -0.0314 C   0  0  0  0  0  0  0  0  0  0  0  0
   -0.2776    1.7300   -0.0204 H   0  0  0  0  0  0  0  0  0  0  0  0
   -1.4789    0.9673   -1.0697 H   0  0  0  0  0  0  0  0  0  0  0  0
   -2.3055    2.0777    0.5856 C   0  0  0  0  0  0  0  0  0  0  0  0
   -2.2186    3.0871    0.1824 H   0  0  0  0  0  0  0  0  0  0  0  0
   -3.2891    1.6762    0.3349 H   0  0  0  0  0  0  0  0  0  0  0  0
   -2.1609    2.1415    2.1103 C   0  0  0  0  0  0  0  0  0  0  0  0
   -2.2379    1.1372    2.5281 H   0  0  0  0  0  0  0  0  0  0  0  0
   -1.1889    2.5644    2.3659 H   0  0  0  0  0  0  0  0  0  0  0  0
   -3.2642    3.0182    2.6995 C   0  0  0  0  0  0  0  0  0  0  0  0
   -3.1779    4.0266    2.2978 H   0  0  0  0  0  0  0  0  0  0  0  0
   -4.2358    2.6073    2.4302 H   0  0  0  0  0  0  0  0  0  0  0  0
   -3.1693    3.0819    4.1624 N   0  0  0  0  0  0  0  0  0  0  0  0
   -3.9027    3.6788    4.5157 H   0  0  0  0  0  0  0  0  0  0  0  0
   -3.2808    2.1527    4.5425 H   0  0  0  0  0  0  0  0  0  0  0  0
   -0.5564    0.0727    2.1744 C   0  0  0  0  0  0  0  0  0  0  0  0
    0.6169   -0.1288    2.4805 O   0  0  0  0  0  0  0  0  0  0  0  0
   -1.4759    0.4743    3.0595 N   0  0  0  0  0  0  0  0  0  0  0  0
   -2.4132    0.6318    2.7275 H   0  0  0  0  0  0  0  0  0  0  0  0
   -1.1971    0.7118    4.4750 C   0  0  0  0  0  0  0  0  0  0  0  0
   -0.3779    1.4272    4.5748 H   0  0  0  0  0  0  0  0  0  0  0  0
   -2.0826    1.1064    4.9754 H   0  0  0  0  0  0  0  0  0  0  0  0
   -0.8992   -0.2240    4.9525 H   0  0  0  0  0  0  0  0  0  0  0  0
  5  6  2  0  0  0  0
  5  7  1  0  0  0  0
  2  3  1  0  0  0  0
  2  4  1  0  0  0  0
  2  5  1  0  0  0  0
  1  2  1  0  0  0  0
 26 27  2  0  0  0  0
 26 28  1  0  0  0  0
 23 24  1  0  0  0  0
 23 25  1  0  0  0  0
 20 21  1  0  0  0  0
 20 22  1  0  0  0  0
 20 23  1  0  0  0  0
 17 18  1  0  0  0  0
 17 19  1  0  0  0  0
 17 20  1  0  0  0  0
 14 15  1  0  0  0  0
 14 16  1  0  0  0  0
 14 17  1  0  0  0  0
 11 12  1  0  0  0  0
 11 13  1  0  0  0  0
 11 14  1  0  0  0  0
  9 10  1  0  0  0  0
  9 11  1  0  0  0  0
  9 26  1  0  0  0  0
  7  8  1  0  0  0  0
  7  9  1  0  0  0  0
 30 31  1  0  0  0  0
 30 32  1  0  0  0  0
 30 33  1  0  0  0  0
 28 29  1  0  0  0  0
 28 30  1  0  0  0  0
M  END
$$$$
default_name
  -OEChem-02102213163D

 33 32  0     1  0  0  0  0  0999 V2000
   -3.8420   -3.6918    1.5562 H   0  0  0  0  0  0  0  0  0  0  0  0
   -3.8430   -2.7008    1.1032 C   0  0  0  0  0  0  0  0  0  0  0  0
   -4.5510   -2.0608    1.6242 H   0  0  0  0  0  0  0  0  0  0  0  0
   -4.1140   -2.7798    0.0522 H   0  0  0  0  0  0  0  0  0  0  0  0
   -2.4570   -2.1098    1.2172 C   0  0  0  0  0  0  0  0  0  0  0  0
   -1.5600   -2.7438    1.7572 O   0  0  0  0  0  0  0  0  0  0  0  0
   -2.2870   -0.8898    0.7102 N   0  0  0  0  0  0  0  0  0  0  0  0
   -3.0820   -0.4218    0.2992 H   0  0  0  0  0  0  0  0  0  0  0  0
   -1.0240   -0.1468    0.7262 C   0  0  1  0  0  0  0  0  0  0  0  0
   -0.2680   -0.7367    0.2062 H   0  0  0  0  0  0  0  0  0  0  0  0
   -1.2212    1.1806   -0.0314 C   0  0  0  0  0  0  0  0  0  0  0  0
   -0.2776    1.7300   -0.0204 H   0  0  0  0  0  0  0  0  0  0  0  0
   -1.4789    0.9673   -1.0697 H   0  0  0  0  0  0  0  0  0  0  0  0
   -2.3055    2.0777    0.5856 C   0  0  0  0  0  0  0  0  0  0  0  0
   -2.3962    2.9954    0.0037 H   0  0  0  0  0  0  0  0  0  0  0  0
   -3.2604    1.5490    0.5703 H   0  0  0  0  0  0  0  0  0  0  0  0
   -1.9552    2.4437    2.0323 C   0  0  0  0  0  0  0  0  0  0  0  0
   -1.8534    1.5347    2.6259 H   0  0  0  0  0  0  0  0  0  0  0  0
   -1.0136    2.9932    2.0505 H   0  0  0  0  0  0  0  0  0  0  0  0
   -3.0598    3.3139    2.6289 C   0  0  0  0  0  0  0  0  0  0  0  0
   -3.1507    4.2308    2.0488 H   0  0  0  0  0  0  0  0  0  0  0  0
   -4.0043    2.7735    2.5953 H   0  0  0  0  0  0  0  0  0  0  0  0
   -2.7670    3.6636    4.0237 N   0  0  0  0  0  0  0  0  0  0  0  0
   -3.5083    4.2485    4.3805 H   0  0  0  0  0  0  0  0  0  0  0  0
   -2.7132    2.8176    4.5731 H   0  0  0  0  0  0  0  0  0  0  0  0
   -0.5564    0.0727    2.1744 C   0  0  0  0  0  0  0  0  0  0  0  0
    0.6169   -0.1288    2.4805 O   0  0  0  0  0  0  0  0  0  0  0  0
   -1.4759    0.4743    3.0595 N   0  0  0  0  0  0  0  0  0  0  0  0
   -2.4132    0.6318    2.7275 H   0  0  0  0  0  0  0  0  0  0  0  0
   -1.1971    0.7118    4.4750 C   0  0  0  0  0  0  0  0  0  0  0  0
   -0.3779    1.4272    4.5748 H   0  0  0  0  0  0  0  0  0  0  0  0
   -2.0826    1.1064    4.9754 H   0  0  0  0  0  0  0  0  0  0  0  0
   -0.8992   -0.2240    4.9525 H   0  0  0  0  0  0  0  0  0  0  0  0
  5  6  2  0  0  0  0
  5  7  1  0  0  0  0
  2  3  1  0  0  0  0
  2  4  1  0  0  0  0
  2  5  1  0  0  0  0
  1  2  1  0  0  0  0
 26 27  2  0  0  0  0
 26 28  1  0  0  0  0
 23 24  1  0  0  0  0
 23 25  1  0  0  0  0
 20 21  1  0  0  0  0
 20 22  1  0  0  0  0
 20 23  1  0  0  0  0
 17 18  1  0  0  0  0
 17 19  1  0  0  0  0
 17 20  1  0  0  0  0
 14 15  1  0  0  0  0
 14 16  1  0  0  0  0
 14 17  1  0  0  0  0
 11 12  1  0  0  0  0
 11 13  1  0  0  0  0
 11 14  1  0  0  0  0
  9 10  1  0  0  0  0
  9 11  1  0  0  0  0
  9 26  1  0  0  0  0
  7  8  1  0  0  0  0
  7  9  1  0  0  0  0
 30 31  1  0  0  0  0
 30 32  1  0  0  0  0
 30 33  1  0  0  0  0
 28 29  1  0  0  0  0
 28 30  1  0  0  0  0
M  END
$$$$
default_name
  -OEChem-02102213163D

 33 32  0     1  0  0  0  0  0999 V2000
   -3.8420   -3.6918    1.5562 H   0  0  0  0  0  0  0  0  0  0  0  0
   -3.8430   -2.7008    1.1032 C   0  0  0  0  0  0  0  0  0  0  0  0
   -4.5510   -2.0608    1.6242 H   0  0  0  0  0  0  0  0  0  0  0  0
   -4.1140   -2.7798    0.0522 H   0  0  0  0  0  0  0  0  0  0  0  0
   -2.4570   -2.1098    1.2172 C   0  0  0  0  0  0  0  0  0  0  0  0
   -1.5600   -2.7438    1.7572 O   0  0  0  0  0  0  0  0  0  0  0  0
   -2.2870   -0.8898    0.7102 N   0  0  0  0  0  0  0  0  0  0  0  0
   -3.0820   -0.4218    0.2992 H   0  0  0  0  0  0  0  0  0  0  0  0
   -1.0240   -0.1468    0.7262 C   0  0  1  0  0  0  0  0  0  0  0  0
   -0.2680   -0.7367    0.2062 H   0  0  0  0  0  0  0  0  0  0  0  0
   -1.2212    1.1806   -0.0314 C   0  0  0  0  0  0  0  0  0  0  0  0
   -0.2776    1.7300   -0.0204 H   0  0  0  0  0  0  0  0  0  0  0  0
   -1.4789    0.9673   -1.0697 H   0  0  0  0  0  0  0  0  0  0  0  0
   -2.3055    2.0777    0.5856 C   0  0  0  0  0  0  0  0  0  0  0  0
   -2.5852    2.8557   -0.1254 H   0  0  0  0  0  0  0  0  0  0  0  0
   -3.1838    1.4722    0.8165 H   0  0  0  0  0  0  0  0  0  0  0  0
   -1.7997    2.7428    1.8707 C   0  0  0  0  0  0  0  0  0  0  0  0
   -1.5085    1.9765    2.5898 H   0  0  0  0  0  0  0  0  0  0  0  0
   -0.9365    3.3680    1.6411 H   0  0  0  0  0  0  0  0  0  0  0  0
   -2.9036    3.6079    2.4759 C   0  0  0  0  0  0  0  0  0  0  0  0
   -3.1832    4.3854    1.7668 H   0  0  0  0  0  0  0  0  0  0  0  0
   -3.7731    2.9883    2.6894 H   0  0  0  0  0  0  0  0  0  0  0  0
   -2.4599    4.2418    3.7226 N   0  0  0  0  0  0  0  0  0  0  0  0
   -3.2070    4.8150    4.0863 H   0  0  0  0  0  0  0  0  0  0  0  0
   -2.2295    3.5245    4.3954 H   0  0  0  0  0  0  0  0  0  0  0  0
   -0.5564    0.0727    2.1744 C   0  0  0  0  0  0  0  0  0  0  0  0
    0.6169   -0.1288    2.4805 O   0  0  0  0  0  0  0  0  0  0  0  0
   -1.4759    0.4743    3.0595 N   0  0  0  0  0  0  0  0  0  0  0  0
   -2.4132    0.6318    2.7275 H   0  0  0  0  0  0  0  0  0  0  0  0
   -1.1971    0.7118    4.4750 C   0  0  0  0  0  0  0  0  0  0  0  0
   -0.3779    1.4272    4.5748 H   0  0  0  0  0  0  0  0  0  0  0  0
   -2.0826    1.1064    4.9754 H   0  0  0  0  0  0  0  0  0  0  0  0
   -0.8992   -0.2240    4.9525 H   0  0  0  0  0  0  0  0  0  0  0  0
  5  6  2  0  0  0  0
  5  7  1  0  0  0  0
  2  3  1  0  0  0  0
  2  4  1  0  0  0  0
  2  5  1  0  0  0  0
  1  2  1  0  0  0  0
 26 27  2  0  0  0  0
 26 28  1  0  0  0  0
 23 24  1  0  0  0  0
 23 25  1  0  0  0  0
 20 21  1  0  0  0  0
 20 22  1  0  0  0  0
 20 23  1  0  0  0  0
 17 18  1  0  0  0  0
 17 19  1  0  0  0  0
 17 20  1  0  0  0  0
 14 15  1  0  0  0  0
 14 16  1  0  0  0  0
 14 17  1  0  0  0  0
 11 12  1  0  0  0  0
 11 13  1  0  0  0  0
 11 14  1  0  0  0  0
  9 10  1  0  0  0  0
  9 11  1  0  0  0  0
  9 26  1  0  0  0  0
  7  8  1  0  0  0  0
  7  9  1  0  0  0  0
 30 31  1  0  0  0  0
 30 32  1  0  0  0  0
 30 33  1  0  0  0  0
 28 29  1  0  0  0  0
 28 30  1  0  0  0  0
M  END
$$$$
default_name
  -OEChem-02102213163D

 33 32  0     1  0  0  0  0  0999 V2000
   -3.8420   -3.6918    1.5562 H   0  0  0  0  0  0  0  0  0  0  0  0
   -3.8430   -2.7008    1.1032 C   0  0  0  0  0  0  0  0  0  0  0  0
   -4.5510   -2.0608    1.6242 H   0  0  0  0  0  0  0  0  0  0  0  0
   -4.1140   -2.7798    0.0522 H   0  0  0  0  0  0  0  0  0  0  0  0
   -2.4570   -2.1098    1.2172 C   0  0  0  0  0  0  0  0  0  0  0  0
   -1.5600   -2.7438    1.7572 O   0  0  0  0  0  0  0  0  0  0  0  0
   -2.2870   -0.8898    0.7102 N   0  0  0  0  0  0  0  0  0  0  0  0
   -3.0820   -0.4218    0.2992 H   0  0  0  0  0  0  0  0  0  0  0  0
   -1.0240   -0.1468    0.7262 C   0  0  1  0  0  0  0  0  0  0  0  0
   -0.2680   -0.7367    0.2062 H   0  0  0  0  0  0  0  0  0  0  0  0
   -1.2212    1.1806   -0.0314 C   0  0  0  0  0  0  0  0  0  0  0  0
   -0.2776    1.7300   -0.0204 H   0  0  0  0  0  0  0  0  0  0  0  0
   -1.4789    0.9673   -1.0697 H   0  0  0  0  0  0  0  0  0  0  0  0
   -2.3055    2.0777    0.5856 C   0  0  0  0  0  0  0  0  0  0  0  0
   -2.7727    2.6776   -0.1960 H   0  0  0  0  0  0  0  0  0  0  0  0
   -3.0647    1.4508    1.0569 H   0  0  0  0  0  0  0  0  0  0  0  0
   -1.7051    3.0183    1.6366 C   0  0  0  0  0  0  0  0  0  0  0  0
   -1.2267    2.4325    2.4220 H   0  0  0  0  0  0  0  0  0  0  0  0
   -0.9628    3.6633    1.1655 H   0  0  0  0  0  0  0  0  0  0  0  0
   -2.8065    3.8801    2.2508 C   0  0  0  0  0  0  0  0  0  0  0  0
   -3.2734    4.4798    1.4711 H   0  0  0  0  0  0  0  0  0  0  0  0
   -3.5578    3.2370    2.7062 H   0  0  0  0  0  0  0  0  0  0  0  0
   -2.2688    4.7774    3.2798 N   0  0  0  0  0  0  0  0  0  0  0  0
   -3.0194    5.3398    3.6531 H   0  0  0  0  0  0  0  0  0  0  0  0
   -1.8626    4.2251    4.0216 H   0  0  0  0  0  0  0  0  0  0  0  0
   -0.5564    0.0727    2.1744 C   0  0  0  0  0  0  0  0  0  0  0  0
    0.6169   -0.1288    2.4805 O   0  0  0  0  0  0  0  0  0  0  0  0
   -1.4759    0.4743    3.0595 N   0  0  0  0  0  0  0  0  0  0  0  0
   -2.4132    0.6318    2.7275 H   0  0  0  0  0  0  0  0  0  0  0  0
   -1.1971    0.7118    4.4750 C   0  0  0  0  0  0  0  0  0  0  0  0
   -0.3779    1.4272    4.5748 H   0  0  0  0  0  0  0  0  0  0  0  0
   -2.0826    1.1064    4.9754 H   0  0  0  0  0  0  0  0  0  0  0  0
   -0.8992   -0.2240    4.9525 H   0  0  0  0  0  0  0  0  0  0  0  0
  5  6  2  0  0  0  0
  5  7  1  0  0  0  0
  2  3  1  0  0  0  0
  2  4  1  0  0  0  0
  2  5  1  0  0  0  0
  1  2  1  0  0  0  0
 26 27  2  0  0  0  0
 26 28  1  0  0  0  0
 23 24  1  0  0  0  0
 23 25  1  0  0  0  0
 20 21  1  0  0  0  0
 20 22  1  0  0  0  0
 20 23  1  0  0  0  0
 17 18  1  0  0  0  0
 17 19  1  0  0  0  0
 17 20  1  0  0  0  0
 14 15  1  0  0  0  0
 14 16  1  0  0  0  0
 14 17  1  0  0  0  0
 11 12  1  0  0  0  0
 11 13  1  0  0  0  0
 11 14  1  0  0  0  0
  9 10  1  0  0  0  0
  9 11  1  0  0  0  0
  9 26  1  0  0  0  0
  7  8  1  0  0  0  0
  7  9  1  0  0  0  0
 30 31  1  0  0  0  0
 30 32  1  0  0  0  0
 30 33  1  0  0  0  0
 28 29  1  0  0  0  0
 28 30  1  0  0  0  0
M  END
$$$$
default_name
  -OEChem-02102213163D

 33 32  0     1  0  0  0  0  0999 V2000
   -3.8420   -3.6918    1.5562 H   0  0  0  0  0  0  0  0  0  0  0  0
   -3.8430   -2.7008    1.1032 C   0  0  0  0  0  0  0  0  0  0  0  0
   -4.5510   -2.0608    1.6242 H   0  0  0  0  0  0  0  0  0  0  0  0
   -4.1140   -2.7798    0.0522 H   0  0  0  0  0  0  0  0  0  0  0  0
   -2.4570   -2.1098    1.2172 C   0  0  0  0  0  0  0  0  0  0  0  0
   -1.5600   -2.7438    1.7572 O   0  0  0  0  0  0  0  0  0  0  0  0
   -2.2870   -0.8898    0.7102 N   0  0  0  0  0  0  0  0  0  0  0  0
   -3.0820   -0.4218    0.2992 H   0  0  0  0  0  0  0  0  0  0  0  0
   -1.0240   -0.1468    0.7262 C   0  0  1  0  0  0  0  0  0  0  0  0
   -0.2680   -0.7367    0.2062 H   0  0  0  0  0  0  0  0  0  0  0  0
   -1.2212    1.1806   -0.0314 C   0  0  0  0  0  0  0  0  0  0  0  0
   -0.2776    1.7300   -0.0204 H   0  0  0  0  0  0  0  0  0  0  0  0
   -1.4789    0.9673   -1.0697 H   0  0  0  0  0  0  0  0  0  0  0  0
   -2.3055    2.0777    0.5856 C   0  0  0  0  0  0  0  0  0  0  0  0
   -2.9460    2.4731   -0.2033 H   0  0  0  0  0  0  0  0  0  0  0  0
   -2.9111    1.4865    1.2749 H   0  0  0  0  0  0  0  0  0  0  0  0
   -1.6776    3.2515    1.3457 C   0  0  0  0  0  0  0  0  0  0  0  0
   -1.0272    2.8715    2.1342 H   0  0  0  0  0  0  0  0  0  0  0  0
   -1.0908    3.8589    0.6561 H   0  0  0  0  0  0  0  0  0  0  0  0
   -2.7750    4.1120    1.9689 C   0  0  0  0  0  0  0  0  0  0  0  0
   -3.4149    4.5077    1.1818 H   0  0  0  0  0  0  0  0  0  0  0  0
   -3.3732    3.5026    2.6444 H   0  0  0  0  0  0  0  0  0  0  0  0
   -2.2068    5.2336    2.7254 N   0  0  0  0  0  0  0  0  0  0  0  0
   -2.9580    5.7871    3.1104 H   0  0  0  0  0  0  0  0  0  0  0  0
   -1.6375    4.8716    3.4772 H   0  0  0  0  0  0  0  0  0  0  0  0
   -0.5564    0.0727    2.1744 C   0  0  0  0  0  0  0  0  0  0  0  0
    0.6169   -0.1288    2.4805 O   0  0  0  0  0  0  0  0  0  0  0  0
   -1.4759    0.4743    3.0595 N   0  0  0  0  0  0  0  0  0  0  0  0
   -2.4132    0.6318    2.7275 H   0  0  0  0  0  0  0  0  0  0  0  0
   -1.1971    0.7118    4.4750 C   0  0  0  0  0  0  0  0  0  0  0  0
   -0.3779    1.4272    4.5748 H   0  0  0  0  0  0  0  0  0  0  0  0
   -2.0826    1.1064    4.9754 H   0  0  0  0  0  0  0  0  0  0  0  0
   -0.8992   -0.2240    4.9525 H   0  0  0  0  0  0  0  0  0  0  0  0
  5  6  2  0  0  0  0
  5  7  1  0  0  0  0
  2  3  1  0  0  0  0
  2  4  1  0  0  0  0
  2  5  1  0  0  0  0
  1  2  1  0  0  0  0
 26 27  2  0  0  0  0
 26 28  1  0  0  0  0
 23 24  1  0  0  0  0
 23 25  1  0  0  0  0
 20 21  1  0  0  0  0
 20 22  1  0  0  0  0
 20 23  1  0  0  0  0
 17 18  1  0  0  0  0
 17 19  1  0  0  0  0
 17 20  1  0  0  0  0
 14 15  1  0  0  0  0
 14 16  1  0  0  0  0
 14 17  1  0  0  0  0
 11 12  1  0  0  0  0
 11 13  1  0  0  0  0
 11 14  1  0  0  0  0
  9 10  1  0  0  0  0
  9 11  1  0  0  0  0
  9 26  1  0  0  0  0
  7  8  1  0  0  0  0
  7  9  1  0  0  0  0
 30 31  1  0  0  0  0
 30 32  1  0  0  0  0
 30 33  1  0  0  0  0
 28 29  1  0  0  0  0
 28 30  1  0  0  0  0
M  END
$$$$
default_name
  -OEChem-02102213163D

 33 32  0     1  0  0  0  0  0999 V2000
   -3.8420   -3.6918    1.5562 H   0  0  0  0  0  0  0  0  0  0  0  0
   -3.8430   -2.7008    1.1032 C   0  0  0  0  0  0  0  0  0  0  0  0
   -4.5510   -2.0608    1.6242 H   0  0  0  0  0  0  0  0  0  0  0  0
   -4.1140   -2.7798    0.0522 H   0  0  0  0  0  0  0  0  0  0  0  0
   -2.4570   -2.1098    1.2172 C   0  0  0  0  0  0  0  0  0  0  0  0
   -1.5600   -2.7438    1.7572 O   0  0  0  0  0  0  0  0  0  0  0  0
   -2.2870   -0.8898    0.7102 N   0  0  0  0  0  0  0  0  0  0  0  0
   -3.0820   -0.4218    0.2992 H   0  0  0  0  0  0  0  0  0  0  0  0
   -1.0240   -0.1468    0.7262 C   0  0  1  0  0  0  0  0  0  0  0  0
   -0.2680   -0.7367    0.2062 H   0  0  0  0  0  0  0  0  0  0  0  0
   -1.2212    1.1806   -0.0314 C   0  0  0  0  0  0  0  0  0  0  0  0
   -0.2776    1.7300   -0.0204 H   0  0  0  0  0  0  0  0  0  0  0  0
   -1.4789    0.9673   -1.0697 H   0  0  0  0  0  0  0  0  0  0  0  0
   -2.3055    2.0777    0.5856 C   0  0  0  0  0  0  0  0  0  0  0  0
   -3.0933    2.2563   -0.1468 H   0  0  0  0  0  0  0  0  0  0  0  0
   -2.7335    1.5768    1.4558 H   0  0  0  0  0  0  0  0  0  0  0  0
   -1.7193    3.4265    1.0181 C   0  0  0  0  0  0  0  0  0  0  0  0
   -0.9237    3.2638    1.7458 H   0  0  0  0  0  0  0  0  0  0  0  0
   -1.3117    3.9415    0.1478 H   0  0  0  0  0  0  0  0  0  0  0  0
   -2.8113    4.2878    1.6496 C   0  0  0  0  0  0  0  0  0  0  0  0
   -3.5982    4.4670    0.9187 H   0  0  0  0  0  0  0  0  0  0  0  0
   -3.2318    3.7671    2.5084 H   0  0  0  0  0  0  0  0  0  0  0  0
   -2.2781    5.5795    2.0972 N   0  0  0  0  0  0  0  0  0  0  0  0
   -3.0273    6.1265    2.4953 H   0  0  0  0  0  0  0  0  0  0  0  0
   -1.5694    5.4202    2.7992 H   0  0  0  0  0  0  0  0  0  0  0  0
   -0.5564    0.0727    2.1744 C   0  0  0  0  0  0  0  0  0  0  0  0
    0.6169   -0.1288    2.4805 O   0  0  0  0  0  0  0  0  0  0  0  0
   -1.4759    0.4743    3.0595 N   0  0  0  0  0  0  0  0  0  0  0  0
   -2.4132    0.6318    2.7275 H   0  0  0  0  0  0  0  0  0  0  0  0
   -1.1971    0.7118    4.4750 C   0  0  0  0  0  0  0  0  0  0  0  0
   -0.3779    1.4272    4.5748 H   0  0  0  0  0  0  0  0  0  0  0  0
   -2.0826    1.1064    4.9754 H   0  0  0  0  0  0  0  0  0  0  0  0
   -0.8992   -0.2240    4.9525 H   0  0  0  0  0  0  0  0  0  0  0  0
  5  6  2  0  0  0  0
  5  7  1  0  0  0  0
  2  3  1  0  0  0  0
  2  4  1  0  0  0  0
  2  5  1  0  0  0  0
  1  2  1  0  0  0  0
 26 27  2  0  0  0  0
 26 28  1  0  0  0  0
 23 24  1  0  0  0  0
 23 25  1  0  0  0  0
 20 21  1  0  0  0  0
 20 22  1  0  0  0  0
 20 23  1  0  0  0  0
 17 18  1  0  0  0  0
 17 19  1  0  0  0  0
 17 20  1  0  0  0  0
 14 15  1  0  0  0  0
 14 16  1  0  0  0  0
 14 17  1  0  0  0  0
 11 12  1  0  0  0  0
 11 13  1  0  0  0  0
 11 14  1  0  0  0  0
  9 10  1  0  0  0  0
  9 11  1  0  0  0  0
  9 26  1  0  0  0  0
  7  8  1  0  0  0  0
  7  9  1  0  0  0  0
 30 31  1  0  0  0  0
 30 32  1  0  0  0  0
 30 33  1  0  0  0  0
 28 29  1  0  0  0  0
 28 30  1  0  0  0  0
M  END
$$$$
default_name
  -OEChem-02102213163D

 33 32  0     1  0  0  0  0  0999 V2000
   -3.8420   -3.6918    1.5562 H   0  0  0  0  0  0  0  0  0  0  0  0
   -3.8430   -2.7008    1.1032 C   0  0  0  0  0  0  0  0  0  0  0  0
   -4.5510   -2.0608    1.6242 H   0  0  0  0  0  0  0  0  0  0  0  0
   -4.1140   -2.7798    0.0522 H   0  0  0  0  0  0  0  0  0  0  0  0
   -2.4570   -2.1098    1.2172 C   0  0  0  0  0  0  0  0  0  0  0  0
   -1.5600   -2.7438    1.7572 O   0  0  0  0  0  0  0  0  0  0  0  0
   -2.2870   -0.8898    0.7102 N   0  0  0  0  0  0  0  0  0  0  0  0
   -3.0820   -0.4218    0.2992 H   0  0  0  0  0  0  0  0  0  0  0  0
   -1.0240   -0.1468    0.7262 C   0  0  1  0  0  0  0  0  0  0  0  0
   -0.2680   -0.7367    0.2062 H   0  0  0  0  0  0  0  0  0  0  0  0
   -1.2212    1.1806   -0.0314 C   0  0  0  0  0  0  0  0  0  0  0  0
   -0.2776    1.7300   -0.0204 H   0  0  0  0  0  0  0  0  0  0  0  0
   -1.4789    0.9673   -1.0697 H   0  0  0  0  0  0  0  0  0  0  0  0
   -2.3055    2.0777    0.5856 C   0  0  0  0  0  0  0  0  0  0  0  0
   -3.2045    2.0419   -0.0305 H   0  0  0  0  0  0  0  0  0  0  0  0
   -2.5440    1.7155    1.5873 H   0  0  0  0  0  0  0  0  0  0  0  0
   -1.8272    3.5313    0.6759 C   0  0  0  0  0  0  0  0  0  0  0  0
   -0.9231    3.5825    1.2833 H   0  0  0  0  0  0  0  0  0  0  0  0
   -1.6104    3.9056   -0.3250 H   0  0  0  0  0  0  0  0  0  0  0  0
   -2.9128    4.3955    1.3145 C   0  0  0  0  0  0  0  0  0  0  0  0
   -3.8108    4.3607    0.6997 H   0  0  0  0  0  0  0  0  0  0  0  0
   -3.1432    4.0124    2.3072 H   0  0  0  0  0  0  0  0  0  0  0  0
   -2.4778    5.7915    1.4380 N   0  0  0  0  0  0  0  0  0  0  0  0
   -3.2224    6.3347    1.8496 H   0  0  0  0  0  0  0  0  0  0  0  0
   -1.6632    5.8332    2.0338 H   0  0  0  0  0  0  0  0  0  0  0  0
   -0.5564    0.0727    2.1744 C   0  0  0  0  0  0  0  0  0  0  0  0
    0.6169   -0.1288    2.4805 O   0  0  0  0  0  0  0  0  0  0  0  0
   -1.4759    0.4743    3.0595 N   0  0  0  0  0  0  0  0  0  0  0  0
   -2.4132    0.6318    2.7275 H   0  0  0  0  0  0  0  0  0  0  0  0
   -1.1971    0.7118    4.4750 C   0  0  0  0  0  0  0  0  0  0  0  0
   -0.3779    1.4272    4.5748 H   0  0  0  0  0  0  0  0  0  0  0  0
   -2.0826    1.1064    4.9754 H   0  0  0  0  0  0  0  0  0  0  0  0
   -0.8992   -0.2240    4.9525 H   0  0  0  0  0  0  0  0  0  0  0  0
  5  6  2  0  0  0  0
  5  7  1  0  0  0  0
  2  3  1  0  0  0  0
  2  4  1  0  0  0  0
  2  5  1  0  0  0  0
  1  2  1  0  0  0  0
 26 27  2  0  0  0  0
 26 28  1  0  0  0  0
 23 24  1  0  0  0  0
 23 25  1  0  0  0  0
 20 21  1  0  0  0  0
 20 22  1  0  0  0  0
 20 23  1  0  0  0  0
 17 18  1  0  0  0  0
 17 19  1  0  0  0  0
 17 20  1  0  0  0  0
 14 15  1  0  0  0  0
 14 16  1  0  0  0  0
 14 17  1  0  0  0  0
 11 12  1  0  0  0  0
 11 13  1  0  0  0  0
 11 14  1  0  0  0  0
  9 10  1  0  0  0  0
  9 11  1  0  0  0  0
  9 26  1  0  0  0  0
  7  8  1  0  0  0  0
  7  9  1  0  0  0  0
 30 31  1  0  0  0  0
 30 32  1  0  0  0  0
 30 33  1  0  0  0  0
 28 29  1  0  0  0  0
 28 30  1  0  0  0  0
M  END
$$$$
default_name
  -OEChem-02102213163D

 33 32  0     1  0  0  0  0  0999 V2000
   -3.8420   -3.6918    1.5562 H   0  0  0  0  0  0  0  0  0  0  0  0
   -3.8430   -2.7008    1.1032 C   0  0  0  0  0  0  0  0  0  0  0  0
   -4.5510   -2.0608    1.6242 H   0  0  0  0  0  0  0  0  0  0  0  0
   -4.1140   -2.7798    0.0522 H   0  0  0  0  0  0  0  0  0  0  0  0
   -2.4570   -2.1098    1.2172 C   0  0  0  0  0  0  0  0  0  0  0  0
   -1.5600   -2.7438    1.7572 O   0  0  0  0  0  0  0  0  0  0  0  0
   -2.2870   -0.8898    0.7102 N   0  0  0  0  0  0  0  0  0  0  0  0
   -3.0820   -0.4218    0.2992 H   0  0  0  0  0  0  0  0  0  0  0  0
   -1.0240   -0.1468    0.7262 C   0  0  1  0  0  0  0  0  0  0  0  0
   -0.2680   -0.7367    0.2062 H   0  0  0  0  0  0  0  0  0  0  0  0
   -1.2212    1.1806   -0.0314 C   0  0  0  0  0  0  0  0  0  0  0  0
   -0.2776    1.7300   -0.0204 H   0  0  0  0  0  0  0  0  0  0  0  0
   -1.4789    0.9673   -1.0697 H   0  0  0  0  0  0  0  0  0  0  0  0
   -2.3055    2.0777    0.5856 C   0  0  0  0  0  0  0  0  0  0  0  0
   -3.2720    1.8444    0.1379 H   0  0  0  0  0  0  0  0  0  0  0  0
   -2.3555    1.8931    1.6602 H   0  0  0  0  0  0  0  0  0  0  0  0
   -1.9941    3.5589    0.3426 C   0  0  0  0  0  0  0  0  0  0  0  0
   -1.0256    3.8060    0.7784 H   0  0  0  0  0  0  0  0  0  0  0  0
   -1.9667    3.7534   -0.7300 H   0  0  0  0  0  0  0  0  0  0  0  0
   -3.0727    4.4278    0.9865 C   0  0  0  0  0  0  0  0  0  0  0  0
   -4.0382    4.1959    0.5397 H   0  0  0  0  0  0  0  0  0  0  0  0
   -3.1136    4.2219    2.0548 H   0  0  0  0  0  0  0  0  0  0  0  0
   -2.7923    5.8551    0.7927 N   0  0  0  0  0  0  0  0  0  0  0  0
   -3.5301    6.3976    1.2174 H   0  0  0  0  0  0  0  0  0  0  0  0
   -1.9123    6.0827    1.2333 H   0  0  0  0  0  0  0  0  0  0  0  0
   -0.5564    0.0727    2.1744 C   0  0  0  0  0  0  0  0  0  0  0  0
    0.6169   -0.1288    2.4805 O   0  0  0  0  0  0  0  0  0  0  0  0
   -1.4759    0.4743    3.0595 N   0  0  0  0  0  0  0  0  0  0  0  0
   -2.4132    0.6318    2.7275 H   0  0  0  0  0  0  0  0  0  0  0  0
   -1.1971    0.7118    4.4750 C   0  0  0  0  0  0  0  0  0  0  0  0
   -0.3779    1.4272    4.5748 H   0  0  0  0  0  0  0  0  0  0  0  0
   -2.0826    1.1064    4.9754 H   0  0  0  0  0  0  0  0  0  0  0  0
   -0.8992   -0.2240    4.9525 H   0  0  0  0  0  0  0  0  0  0  0  0
  5  6  2  0  0  0  0
  5  7  1  0  0  0  0
  2  3  1  0  0  0  0
  2  4  1  0  0  0  0
  2  5  1  0  0  0  0
  1  2  1  0  0  0  0
 26 27  2  0  0  0  0
 26 28  1  0  0  0  0
 23 24  1  0  0  0  0
 23 25  1  0  0  0  0
 20 21  1  0  0  0  0
 20 22  1  0  0  0  0
 20 23  1  0  0  0  0
 17 18  1  0  0  0  0
 17 19  1  0  0  0  0
 17 20  1  0  0  0  0
 14 15  1  0  0  0  0
 14 16  1  0  0  0  0
 14 17  1  0  0  0  0
 11 12  1  0  0  0  0
 11 13  1  0  0  0  0
 11 14  1  0  0  0  0
  9 10  1  0  0  0  0
  9 11  1  0  0  0  0
  9 26  1  0  0  0  0
  7  8  1  0  0  0  0
  7  9  1  0  0  0  0
 30 31  1  0  0  0  0
 30 32  1  0  0  0  0
 30 33  1  0  0  0  0
 28 29  1  0  0  0  0
 28 30  1  0  0  0  0
M  END
$$$$
default_name
  -OEChem-02102213163D

 33 32  0     1  0  0  0  0  0999 V2000
   -3.8420   -3.6918    1.5562 H   0  0  0  0  0  0  0  0  0  0  0  0
   -3.8430   -2.7008    1.1032 C   0  0  0  0  0  0  0  0  0  0  0  0
   -4.5510   -2.0608    1.6242 H   0  0  0  0  0  0  0  0  0  0  0  0
   -4.1140   -2.7798    0.0522 H   0  0  0  0  0  0  0  0  0  0  0  0
   -2.4570   -2.1098    1.2172 C   0  0  0  0  0  0  0  0  0  0  0  0
   -1.5600   -2.7438    1.7572 O   0  0  0  0  0  0  0  0  0  0  0  0
   -2.2870   -0.8898    0.7102 N   0  0  0  0  0  0  0  0  0  0  0  0
   -3.0820   -0.4218    0.2992 H   0  0  0  0  0  0  0  0  0  0  0  0
   -1.0240   -0.1468    0.7262 C   0  0  1  0  0  0  0  0  0  0  0  0
   -0.2680   -0.7367    0.2062 H   0  0  0  0  0  0  0  0  0  0  0  0
   -1.2212    1.1806   -0.0314 C   0  0  0  0  0  0  0  0  0  0  0  0
   -0.2776    1.7300   -0.0204 H   0  0  0  0  0  0  0  0  0  0  0  0
   -1.4789    0.9673   -1.0697 H   0  0  0  0  0  0  0  0  0  0  0  0
   -2.3055    2.0777    0.5856 C   0  0  0  0  0  0  0  0  0  0  0  0
   -3.2913    1.6775    0.3468 H   0  0  0  0  0  0  0  0  0  0  0  0
   -2.1809    2.0976    1.6698 H   0  0  0  0  0  0  0  0  0  0  0  0
   -2.2085    3.5073    0.0408 C   0  0  0  0  0  0  0  0  0  0  0  0
   -1.2241    3.9190    0.2652 H   0  0  0  0  0  0  0  0  0  0  0  0
   -2.3563    3.4954   -1.0395 H   0  0  0  0  0  0  0  0  0  0  0  0
   -3.2801    4.3825    0.6879 C   0  0  0  0  0  0  0  0  0  0  0  0
   -4.2649    3.9838    0.4496 H   0  0  0  0  0  0  0  0  0  0  0  0
   -3.1449    4.3812    1.7682 H   0  0  0  0  0  0  0  0  0  0  0  0
   -3.2003    5.7660    0.2053 N   0  0  0  0  0  0  0  0  0  0  0  0
   -3.9293    6.3110    0.6417 H   0  0  0  0  0  0  0  0  0  0  0  0
   -2.2999    6.1515    0.4521 H   0  0  0  0  0  0  0  0  0  0  0  0
   -0.5564    0.0727    2.1744 C   0  0  0  0  0  0  0  0  0  0  0  0
    0.6169   -0.1288    2.4805 O   0  0  0  0  0  0  0  0  0  0  0  0
   -1.4759    0.4743    3.0595 N   0  0  0  0  0  0  0  0  0  0  0  0
   -2.4132    0.6318    2.7275 H   0  0  0  0  0  0  0  0  0  0  0  0
   -1.1971    0.7118    4.4750 C   0  0  0  0  0  0  0  0  0  0  0  0
   -0.3779    1.4272    4.5748 H   0  0  0  0  0  0  0  0  0  0  0  0
   -2.0826    1.1064    4.9754 H   0  0  0  0  0  0  0  0  0  0  0  0
   -0.8992   -0.2240    4.9525 H   0  0  0  0  0  0  0  0  0  0  0  0
  5  6  2  0  0  0  0
  5  7  1  0  0  0  0
  2  3  1  0  0  0  0
  2  4  1  0  0  0  0
  2  5  1  0  0  0  0
  1  2  1  0  0  0  0
 26 27  2  0  0  0  0
 26 28  1  0  0  0  0
 23 24  1  0  0  0  0
 23 25  1  0  0  0  0
 20 21  1  0  0  0  0
 20 22  1  0  0  0  0
 20 23  1  0  0  0  0
 17 18  1  0  0  0  0
 17 19  1  0  0  0  0
 17 20  1  0  0  0  0
 14 15  1  0  0  0  0
 14 16  1  0  0  0  0
 14 17  1  0  0  0  0
 11 12  1  0  0  0  0
 11 13  1  0  0  0  0
 11 14  1  0  0  0  0
  9 10  1  0  0  0  0
  9 11  1  0  0  0  0
  9 26  1  0  0  0  0
  7  8  1  0  0  0  0
  7  9  1  0  0  0  0
 30 31  1  0  0  0  0
 30 32  1  0  0  0  0
 30 33  1  0  0  0  0
 28 29  1  0  0  0  0
 28 30  1  0  0  0  0
M  END
$$$$
default_name
  -OEChem-02102213163D

 33 32  0     1  0  0  0  0  0999 V2000
   -3.8420   -3.6918    1.5562 H   0  0  0  0  0  0  0  0  0  0  0  0
   -3.8430   -2.7008    1.1032 C   0  0  0  0  0  0  0  0  0  0  0  0
   -4.5510   -2.0608    1.6242 H   0  0  0  0  0  0  0  0  0  0  0  0
   -4.1140   -2.7798    0.0522 H   0  0  0  0  0  0  0  0  0  0  0  0
   -2.4570   -2.1098    1.2172 C   0  0  0  0  0  0  0  0  0  0  0  0
   -1.5600   -2.7438    1.7572 O   0  0  0  0  0  0  0  0  0  0  0  0
   -2.2870   -0.8898    0.7102 N   0  0  0  0  0  0  0  0  0  0  0  0
   -3.0820   -0.4218    0.2992 H   0  0  0  0  0  0  0  0  0  0  0  0
   -1.0240   -0.1468    0.7262 C   0  0  1  0  0  0  0  0  0  0  0  0
   -0.2680   -0.7367    0.2062 H   0  0  0  0  0  0  0  0  0  0  0  0
   -1.2212    1.1806   -0.0314 C   0  0  0  0  0  0  0  0  0  0  0  0
   -0.2389    1.6018   -0.2552 H   0  0  0  0  0  0  0  0  0  0  0  0
   -1.7303    0.9835   -0.9758 H   0  0  0  0  0  0  0  0  0  0  0  0
   -2.0195    2.2234    0.7664 C   0  0  0  0  0  0  0  0  0  0  0  0
   -3.0086    1.8278    0.9988 H   0  0  0  0  0  0  0  0  0  0  0  0
   -1.4941    2.4421    1.6978 H   0  0  0  0  0  0  0  0  0  0  0  0
   -2.1828    3.5191   -0.0363 C   0  0  0  0  0  0  0  0  0  0  0  0
   -1.2007    3.9234   -0.2834 H   0  0  0  0  0  0  0  0  0  0  0  0
   -2.7284    3.3101   -0.9569 H   0  0  0  0  0  0  0  0  0  0  0  0
   -2.9573    4.5456    0.7882 C   0  0  0  0  0  0  0  0  0  0  0  0
   -3.9453    4.1515    1.0204 H   0  0  0  0  0  0  0  0  0  0  0  0
   -2.4228    4.7422    1.7161 H   0  0  0  0  0  0  0  0  0  0  0  0
   -3.1114    5.8086    0.0571 N   0  0  0  0  0  0  0  0  0  0  0  0
   -3.6381    6.4567    0.6242 H   0  0  0  0  0  0  0  0  0  0  0  0
   -2.1977    6.1949   -0.1330 H   0  0  0  0  0  0  0  0  0  0  0  0
   -0.5564    0.0727    2.1744 C   0  0  0  0  0  0  0  0  0  0  0  0
    0.6169   -0.1288    2.4805 O   0  0  0  0  0  0  0  0  0  0  0  0
   -1.4759    0.4743    3.0595 N   0  0  0  0  0  0  0  0  0  0  0  0
   -2.4132    0.6318    2.7275 H   0  0  0  0  0  0  0  0  0  0  0  0
   -1.1971    0.7118    4.4750 C   0  0  0  0  0  0  0  0  0  0  0  0
   -0.3779    1.4272    4.5748 H   0  0  0  0  0  0  0  0  0  0  0  0
   -2.0826    1.1064    4.9754 H   0  0  0  0  0  0  0  0  0  0  0  0
   -0.8992   -0.2240    4.9525 H   0  0  0  0  0  0  0  0  0  0  0  0
  5  6  2  0  0  0  0
  5  7  1  0  0  0  0
  2  3  1  0  0  0  0
  2  4  1  0  0  0  0
  2  5  1  0  0  0  0
  1  2  1  0  0  0  0
 26 27  2  0  0  0  0
 26 28  1  0  0  0  0
 23 24  1  0  0  0  0
 23 25  1  0  0  0  0
 20 21  1  0  0  0  0
 20 22  1  0  0  0  0
 20 23  1  0  0  0  0
 17 18  1  0  0  0  0
 17 19  1  0  0  0  0
 17 20  1  0  0  0  0
 14 15  1  0  0  0  0
 14 16  1  0  0  0  0
 14 17  1  0  0  0  0
 11 12  1  0  0  0  0
 11 13  1  0  0  0  0
 11 14  1  0  0  0  0
  9 10  1  0  0  0  0
  9 11  1  0  0  0  0
  9 26  1  0  0  0  0
  7  8  1  0  0  0  0
  7  9  1  0  0  0  0
 30 31  1  0  0  0  0
 30 32  1  0  0  0  0
 30 33  1  0  0  0  0
 28 29  1  0  0  0  0
 28 30  1  0  0  0  0
M  END
$$$$
default_name
  -OEChem-02102213163D

 33 32  0     1  0  0  0  0  0999 V2000
   -3.8420   -3.6918    1.5562 H   0  0  0  0  0  0  0  0  0  0  0  0
   -3.8430   -2.7008    1.1032 C   0  0  0  0  0  0  0  0  0  0  0  0
   -4.5510   -2.0608    1.6242 H   0  0  0  0  0  0  0  0  0  0  0  0
   -4.1140   -2.7798    0.0522 H   0  0  0  0  0  0  0  0  0  0  0  0
   -2.4570   -2.1098    1.2172 C   0  0  0  0  0  0  0  0  0  0  0  0
   -1.5600   -2.7438    1.7572 O   0  0  0  0  0  0  0  0  0  0  0  0
   -2.2870   -0.8898    0.7102 N   0  0  0  0  0  0  0  0  0  0  0  0
   -3.0820   -0.4218    0.2992 H   0  0  0  0  0  0  0  0  0  0  0  0
   -1.0240   -0.1468    0.7262 C   0  0  1  0  0  0  0  0  0  0  0  0
   -0.2680   -0.7367    0.2062 H   0  0  0  0  0  0  0  0  0  0  0  0
   -1.2212    1.1806   -0.0314 C   0  0  0  0  0  0  0  0  0  0  0  0
   -0.2389    1.6018   -0.2552 H   0  0  0  0  0  0  0  0  0  0  0  0
   -1.7303    0.9835   -0.9758 H   0  0  0  0  0  0  0  0  0  0  0  0
   -2.0195    2.2234    0.7664 C   0  0  0  0  0  0  0  0  0  0  0  0
   -2.8874    1.7480    1.2243 H   0  0  0  0  0  0  0  0  0  0  0  0
   -1.3841    2.6388    1.5508 H   0  0  0  0  0  0  0  0  0  0  0  0
   -2.5020    3.3577   -0.1448 C   0  0  0  0  0  0  0  0  0  0  0  0
   -1.6447    3.8386   -0.6168 H   0  0  0  0  0  0  0  0  0  0  0  0
   -3.1567    2.9510   -0.9161 H   0  0  0  0  0  0  0  0  0  0  0  0
   -3.2703    4.3913    0.6766 C   0  0  0  0  0  0  0  0  0  0  0  0
   -4.1374    3.9176    1.1339 H   0  0  0  0  0  0  0  0  0  0  0  0
   -2.6234    4.7857    1.4586 H   0  0  0  0  0  0  0  0  0  0  0  0
   -3.7271    5.5052   -0.1625 N   0  0  0  0  0  0  0  0  0  0  0  0
   -4.2412    6.1600    0.4084 H   0  0  0  0  0  0  0  0  0  0  0  0
   -2.9243    5.9684   -0.5641 H   0  0  0  0  0  0  0  0  0  0  0  0
   -0.5564    0.0727    2.1744 C   0  0  0  0  0  0  0  0  0  0  0  0
    0.6169   -0.1288    2.4805 O   0  0  0  0  0  0  0  0  0  0  0  0
   -1.4759    0.4743    3.0595 N   0  0  0  0  0  0  0  0  0  0  0  0
   -2.4132    0.6318    2.7275 H   0  0  0  0  0  0  0  0  0  0  0  0
   -1.1971    0.7118    4.4750 C   0  0  0  0  0  0  0  0  0  0  0  0
   -0.3779    1.4272    4.5748 H   0  0  0  0  0  0  0  0  0  0  0  0
   -2.0826    1.1064    4.9754 H   0  0  0  0  0  0  0  0  0  0  0  0
   -0.8992   -0.2240    4.9525 H   0  0  0  0  0  0  0  0  0  0  0  0
  5  6  2  0  0  0  0
  5  7  1  0  0  0  0
  2  3  1  0  0  0  0
  2  4  1  0  0  0  0
  2  5  1  0  0  0  0
  1  2  1  0  0  0  0
 26 27  2  0  0  0  0
 26 28  1  0  0  0  0
 23 24  1  0  0  0  0
 23 25  1  0  0  0  0
 20 21  1  0  0  0  0
 20 22  1  0  0  0  0
 20 23  1  0  0  0  0
 17 18  1  0  0  0  0
 17 19  1  0  0  0  0
 17 20  1  0  0  0  0
 14 15  1  0  0  0  0
 14 16  1  0  0  0  0
 14 17  1  0  0  0  0
 11 12  1  0  0  0  0
 11 13  1  0  0  0  0
 11 14  1  0  0  0  0
  9 10  1  0  0  0  0
  9 11  1  0  0  0  0
  9 26  1  0  0  0  0
  7  8  1  0  0  0  0
  7  9  1  0  0  0  0
 30 31  1  0  0  0  0
 30 32  1  0  0  0  0
 30 33  1  0  0  0  0
 28 29  1  0  0  0  0
 28 30  1  0  0  0  0
M  END
$$$$
default_name
  -OEChem-02102213163D

 33 32  0     1  0  0  0  0  0999 V2000
   -3.8420   -3.6918    1.5562 H   0  0  0  0  0  0  0  0  0  0  0  0
   -3.8430   -2.7008    1.1032 C   0  0  0  0  0  0  0  0  0  0  0  0
   -4.5510   -2.0608    1.6242 H   0  0  0  0  0  0  0  0  0  0  0  0
   -4.1140   -2.7798    0.0522 H   0  0  0  0  0  0  0  0  0  0  0  0
   -2.4570   -2.1098    1.2172 C   0  0  0  0  0  0  0  0  0  0  0  0
   -1.5600   -2.7438    1.7572 O   0  0  0  0  0  0  0  0  0  0  0  0
   -2.2870   -0.8898    0.7102 N   0  0  0  0  0  0  0  0  0  0  0  0
   -3.0820   -0.4218    0.2992 H   0  0  0  0  0  0  0  0  0  0  0  0
   -1.0240   -0.1468    0.7262 C   0  0  1  0  0  0  0  0  0  0  0  0
   -0.2680   -0.7367    0.2062 H   0  0  0  0  0  0  0  0  0  0  0  0
   -1.2212    1.1806   -0.0314 C   0  0  0  0  0  0  0  0  0  0  0  0
   -0.2389    1.6018   -0.2552 H   0  0  0  0  0  0  0  0  0  0  0  0
   -1.7303    0.9835   -0.9758 H   0  0  0  0  0  0  0  0  0  0  0  0
   -2.0195    2.2234    0.7664 C   0  0  0  0  0  0  0  0  0  0  0  0
   -2.7200    1.7177    1.4316 H   0  0  0  0  0  0  0  0  0  0  0  0
   -1.3302    2.8238    1.3629 H   0  0  0  0  0  0  0  0  0  0  0  0
   -2.8078    3.1444   -0.1718 C   0  0  0  0  0  0  0  0  0  0  0  0
   -2.1207    3.6521   -0.8494 H   0  0  0  0  0  0  0  0  0  0  0  0
   -3.5149    2.5520   -0.7532 H   0  0  0  0  0  0  0  0  0  0  0  0
   -3.5715    4.1853    0.6445 C   0  0  0  0  0  0  0  0  0  0  0  0
   -4.2716    3.6811    1.3087 H   0  0  0  0  0  0  0  0  0  0  0  0
   -2.8683    4.7661    1.2392 H   0  0  0  0  0  0  0  0  0  0  0  0
   -4.3196    5.0998   -0.2256 N   0  0  0  0  0  0  0  0  0  0  0  0
   -4.8218    5.7633    0.3459 H   0  0  0  0  0  0  0  0  0  0  0  0
   -3.6715    5.5940   -0.8224 H   0  0  0  0  0  0  0  0  0  0  0  0
   -0.5564    0.0727    2.1744 C   0  0  0  0  0  0  0  0  0  0  0  0
    0.6169   -0.1288    2.4805 O   0  0  0  0  0  0  0  0  0  0  0  0
   -1.4759    0.4743    3.0595 N   0  0  0  0  0  0  0  0  0  0  0  0
   -2.4132    0.6318    2.7275 H   0  0  0  0  0  0  0  0  0  0  0  0
   -1.1971    0.7118    4.4750 C   0  0  0  0  0  0  0  0  0  0  0  0
   -0.3779    1.4272    4.5748 H   0  0  0  0  0  0  0  0  0  0  0  0
   -2.0826    1.1064    4.9754 H   0  0  0  0  0  0  0  0  0  0  0  0
   -0.8992   -0.2240    4.9525 H   0  0  0  0  0  0  0  0  0  0  0  0
  5  6  2  0  0  0  0
  5  7  1  0  0  0  0
  2  3  1  0  0  0  0
  2  4  1  0  0  0  0
  2  5  1  0  0  0  0
  1  2  1  0  0  0  0
 26 27  2  0  0  0  0
 26 28  1  0  0  0  0
 23 24  1  0  0  0  0
 23 25  1  0  0  0  0
 20 21  1  0  0  0  0
 20 22  1  0  0  0  0
 20 23  1  0  0  0  0
 17 18  1  0  0  0  0
 17 19  1  0  0  0  0
 17 20  1  0  0  0  0
 14 15  1  0  0  0  0
 14 16  1  0  0  0  0
 14 17  1  0  0  0  0
 11 12  1  0  0  0  0
 11 13  1  0  0  0  0
 11 14  1  0  0  0  0
  9 10  1  0  0  0  0
  9 11  1  0  0  0  0
  9 26  1  0  0  0  0
  7  8  1  0  0  0  0
  7  9  1  0  0  0  0
 30 31  1  0  0  0  0
 30 32  1  0  0  0  0
 30 33  1  0  0  0  0
 28 29  1  0  0  0  0
 28 30  1  0  0  0  0
M  END
$$$$
default_name
  -OEChem-02102213163D

 33 32  0     1  0  0  0  0  0999 V2000
   -3.8420   -3.6918    1.5562 H   0  0  0  0  0  0  0  0  0  0  0  0
   -3.8430   -2.7008    1.1032 C   0  0  0  0  0  0  0  0  0  0  0  0
   -4.5510   -2.0608    1.6242 H   0  0  0  0  0  0  0  0  0  0  0  0
   -4.1140   -2.7798    0.0522 H   0  0  0  0  0  0  0  0  0  0  0  0
   -2.4570   -2.1098    1.2172 C   0  0  0  0  0  0  0  0  0  0  0  0
   -1.5600   -2.7438    1.7572 O   0  0  0  0  0  0  0  0  0  0  0  0
   -2.2870   -0.8898    0.7102 N   0  0  0  0  0  0  0  0  0  0  0  0
   -3.0820   -0.4218    0.2992 H   0  0  0  0  0  0  0  0  0  0  0  0
   -1.0240   -0.1468    0.7262 C   0  0  1  0  0  0  0  0  0  0  0  0
   -0.2680   -0.7367    0.2062 H   0  0  0  0  0  0  0  0  0  0  0  0
   -1.2212    1.1806   -0.0314 C   0  0  0  0  0  0  0  0  0  0  0  0
   -0.2389    1.6018   -0.2552 H   0  0  0  0  0  0  0  0  0  0  0  0
   -1.7303    0.9835   -0.9758 H   0  0  0  0  0  0  0  0  0  0  0  0
   -2.0195    2.2234    0.7664 C   0  0  0  0  0  0  0  0  0  0  0  0
   -2.5178    1.7387    1.6064 H   0  0  0  0  0  0  0  0  0  0  0  0
   -1.3359    2.9845    1.1471 H   0  0  0  0  0  0  0  0  0  0  0  0
   -3.0791    2.8936   -0.1156 C   0  0  0  0  0  0  0  0  0  0  0  0
   -2.5963    3.3768   -0.9655 H   0  0  0  0  0  0  0  0  0  0  0  0
   -3.7788    2.1404   -0.4792 H   0  0  0  0  0  0  0  0  0  0  0  0
   -3.8403    3.9415    0.6941 C   0  0  0  0  0  0  0  0  0  0  0  0
   -4.3387    3.4582    1.5330 H   0  0  0  0  0  0  0  0  0  0  0  0
   -3.1407    4.6847    1.0729 H   0  0  0  0  0  0  0  0  0  0  0  0
   -4.8486    4.6202   -0.1281 N   0  0  0  0  0  0  0  0  0  0  0  0
   -5.3403    5.2938    0.4408 H   0  0  0  0  0  0  0  0  0  0  0  0
   -4.3883    5.0972   -0.8902 H   0  0  0  0  0  0  0  0  0  0  0  0
   -0.5564    0.0727    2.1744 C   0  0  0  0  0  0  0  0  0  0  0  0
    0.6169   -0.1288    2.4805 O   0  0  0  0  0  0  0  0  0  0  0  0
   -1.4759    0.4743    3.0595 N   0  0  0  0  0  0  0  0  0  0  0  0
   -2.4132    0.6318    2.7275 H   0  0  0  0  0  0  0  0  0  0  0  0
   -1.1971    0.7118    4.4750 C   0  0  0  0  0  0  0  0  0  0  0  0
   -0.3779    1.4272    4.5748 H   0  0  0  0  0  0  0  0  0  0  0  0
   -2.0826    1.1064    4.9754 H   0  0  0  0  0  0  0  0  0  0  0  0
   -0.8992   -0.2240    4.9525 H   0  0  0  0  0  0  0  0  0  0  0  0
  5  6  2  0  0  0  0
  5  7  1  0  0  0  0
  2  3  1  0  0  0  0
  2  4  1  0  0  0  0
  2  5  1  0  0  0  0
  1  2  1  0  0  0  0
 26 27  2  0  0  0  0
 26 28  1  0  0  0  0
 23 24  1  0  0  0  0
 23 25  1  0  0  0  0
 20 21  1  0  0  0  0
 20 22  1  0  0  0  0
 20 23  1  0  0  0  0
 17 18  1  0  0  0  0
 17 19  1  0  0  0  0
 17 20  1  0  0  0  0
 14 15  1  0  0  0  0
 14 16  1  0  0  0  0
 14 17  1  0  0  0  0
 11 12  1  0  0  0  0
 11 13  1  0  0  0  0
 11 14  1  0  0  0  0
  9 10  1  0  0  0  0
  9 11  1  0  0  0  0
  9 26  1  0  0  0  0
  7  8  1  0  0  0  0
  7  9  1  0  0  0  0
 30 31  1  0  0  0  0
 30 32  1  0  0  0  0
 30 33  1  0  0  0  0
 28 29  1  0  0  0  0
 28 30  1  0  0  0  0
M  END
$$$$
default_name
  -OEChem-02102213163D

 33 32  0     1  0  0  0  0  0999 V2000
   -3.8420   -3.6918    1.5562 H   0  0  0  0  0  0  0  0  0  0  0  0
   -3.8430   -2.7008    1.1032 C   0  0  0  0  0  0  0  0  0  0  0  0
   -4.5510   -2.0608    1.6242 H   0  0  0  0  0  0  0  0  0  0  0  0
   -4.1140   -2.7798    0.0522 H   0  0  0  0  0  0  0  0  0  0  0  0
   -2.4570   -2.1098    1.2172 C   0  0  0  0  0  0  0  0  0  0  0  0
   -1.5600   -2.7438    1.7572 O   0  0  0  0  0  0  0  0  0  0  0  0
   -2.2870   -0.8898    0.7102 N   0  0  0  0  0  0  0  0  0  0  0  0
   -3.0820   -0.4218    0.2992 H   0  0  0  0  0  0  0  0  0  0  0  0
   -1.0240   -0.1468    0.7262 C   0  0  1  0  0  0  0  0  0  0  0  0
   -0.2680   -0.7367    0.2062 H   0  0  0  0  0  0  0  0  0  0  0  0
   -1.2212    1.1806   -0.0314 C   0  0  0  0  0  0  0  0  0  0  0  0
   -0.2389    1.6018   -0.2552 H   0  0  0  0  0  0  0  0  0  0  0  0
   -1.7303    0.9835   -0.9758 H   0  0  0  0  0  0  0  0  0  0  0  0
   -2.0195    2.2234    0.7664 C   0  0  0  0  0  0  0  0  0  0  0  0
   -2.2947    1.8097    1.7370 H   0  0  0  0  0  0  0  0  0  0  0  0
   -1.4010    3.1099    0.9181 H   0  0  0  0  0  0  0  0  0  0  0  0
   -3.2977    2.6224    0.0201 C   0  0  0  0  0  0  0  0  0  0  0  0
   -3.0390    3.0314   -0.9570 H   0  0  0  0  0  0  0  0  0  0  0  0
   -3.9302    1.7442   -0.1128 H   0  0  0  0  0  0  0  0  0  0  0  0
   -4.0586    3.6765    0.8221 C   0  0  0  0  0  0  0  0  0  0  0  0
   -4.3341    3.2640    1.7913 H   0  0  0  0  0  0  0  0  0  0  0  0
   -3.4221    4.5472    0.9711 H   0  0  0  0  0  0  0  0  0  0  0  0
   -5.2780    4.0990    0.1236 N   0  0  0  0  0  0  0  0  0  0  0  0
   -5.7613    4.7833    0.6867 H   0  0  0  0  0  0  0  0  0  0  0  0
   -5.0258    4.5118   -0.7631 H   0  0  0  0  0  0  0  0  0  0  0  0
   -0.5564    0.0727    2.1744 C   0  0  0  0  0  0  0  0  0  0  0  0
    0.6169   -0.1288    2.4805 O   0  0  0  0  0  0  0  0  0  0  0  0
   -1.4759    0.4743    3.0595 N   0  0  0  0  0  0  0  0  0  0  0  0
   -2.4132    0.6318    2.7275 H   0  0  0  0  0  0  0  0  0  0  0  0
   -1.1971    0.7118    4.4750 C   0  0  0  0  0  0  0  0  0  0  0  0
   -0.3779    1.4272    4.5748 H   0  0  0  0  0  0  0  0  0  0  0  0
   -2.0826    1.1064    4.9754 H   0  0  0  0  0  0  0  0  0  0  0  0
   -0.8992   -0.2240    4.9525 H   0  0  0  0  0  0  0  0  0  0  0  0
  5  6  2  0  0  0  0
  5  7  1  0  0  0  0
  2  3  1  0  0  0  0
  2  4  1  0  0  0  0
  2  5  1  0  0  0  0
  1  2  1  0  0  0  0
 26 27  2  0  0  0  0
 26 28  1  0  0  0  0
 23 24  1  0  0  0  0
 23 25  1  0  0  0  0
 20 21  1  0  0  0  0
 20 22  1  0  0  0  0
 20 23  1  0  0  0  0
 17 18  1  0  0  0  0
 17 19  1  0  0  0  0
 17 20  1  0  0  0  0
 14 15  1  0  0  0  0
 14 16  1  0  0  0  0
 14 17  1  0  0  0  0
 11 12  1  0  0  0  0
 11 13  1  0  0  0  0
 11 14  1  0  0  0  0
  9 10  1  0  0  0  0
  9 11  1  0  0  0  0
  9 26  1  0  0  0  0
  7  8  1  0  0  0  0
  7  9  1  0  0  0  0
 30 31  1  0  0  0  0
 30 32  1  0  0  0  0
 30 33  1  0  0  0  0
 28 29  1  0  0  0  0
 28 30  1  0  0  0  0
M  END
$$$$
default_name
  -OEChem-02102213163D

 33 32  0     1  0  0  0  0  0999 V2000
   -3.8420   -3.6918    1.5562 H   0  0  0  0  0  0  0  0  0  0  0  0
   -3.8430   -2.7008    1.1032 C   0  0  0  0  0  0  0  0  0  0  0  0
   -4.5510   -2.0608    1.6242 H   0  0  0  0  0  0  0  0  0  0  0  0
   -4.1140   -2.7798    0.0522 H   0  0  0  0  0  0  0  0  0  0  0  0
   -2.4570   -2.1098    1.2172 C   0  0  0  0  0  0  0  0  0  0  0  0
   -1.5600   -2.7438    1.7572 O   0  0  0  0  0  0  0  0  0  0  0  0
   -2.2870   -0.8898    0.7102 N   0  0  0  0  0  0  0  0  0  0  0  0
   -3.0820   -0.4218    0.2992 H   0  0  0  0  0  0  0  0  0  0  0  0
   -1.0240   -0.1468    0.7262 C   0  0  1  0  0  0  0  0  0  0  0  0
   -0.2680   -0.7367    0.2062 H   0  0  0  0  0  0  0  0  0  0  0  0
   -1.2212    1.1806   -0.0314 C   0  0  0  0  0  0  0  0  0  0  0  0
   -0.2389    1.6018   -0.2552 H   0  0  0  0  0  0  0  0  0  0  0  0
   -1.7303    0.9835   -0.9758 H   0  0  0  0  0  0  0  0  0  0  0  0
   -2.0195    2.2234    0.7664 C   0  0  0  0  0  0  0  0  0  0  0  0
   -2.0657    1.9258    1.8143 H   0  0  0  0  0  0  0  0  0  0  0  0
   -1.5209    3.1915    0.6915 H   0  0  0  0  0  0  0  0  0  0  0  0
   -3.4485    2.3494    0.2261 C   0  0  0  0  0  0  0  0  0  0  0  0
   -3.4188    2.6393   -0.8246 H   0  0  0  0  0  0  0  0  0  0  0  0
   -3.9588    1.3904    0.3209 H   0  0  0  0  0  0  0  0  0  0  0  0
   -4.2113    3.4084    1.0196 C   0  0  0  0  0  0  0  0  0  0  0  0
   -4.2583    3.1118    2.0662 H   0  0  0  0  0  0  0  0  0  0  0  0
   -3.6933    4.3628    0.9407 H   0  0  0  0  0  0  0  0  0  0  0  0
   -5.5785    3.5716    0.5122 N   0  0  0  0  0  0  0  0  0  0  0  0
   -6.0562    4.2667    1.0667 H   0  0  0  0  0  0  0  0  0  0  0  0
   -5.5406    3.8779   -0.4497 H   0  0  0  0  0  0  0  0  0  0  0  0
   -0.5564    0.0727    2.1744 C   0  0  0  0  0  0  0  0  0  0  0  0
    0.6169   -0.1288    2.4805 O   0  0  0  0  0  0  0  0  0  0  0  0
   -1.4759    0.4743    3.0595 N   0  0  0  0  0  0  0  0  0  0  0  0
   -2.4132    0.6318    2.7275 H   0  0  0  0  0  0  0  0  0  0  0  0
   -1.1971    0.7118    4.4750 C   0  0  0  0  0  0  0  0  0  0  0  0
   -0.3779    1.4272    4.5748 H   0  0  0  0  0  0  0  0  0  0  0  0
   -2.0826    1.1064    4.9754 H   0  0  0  0  0  0  0  0  0  0  0  0
   -0.8992   -0.2240    4.9525 H   0  0  0  0  0  0  0  0  0  0  0  0
  5  6  2  0  0  0  0
  5  7  1  0  0  0  0
  2  3  1  0  0  0  0
  2  4  1  0  0  0  0
  2  5  1  0  0  0  0
  1  2  1  0  0  0  0
 26 27  2  0  0  0  0
 26 28  1  0  0  0  0
 23 24  1  0  0  0  0
 23 25  1  0  0  0  0
 20 21  1  0  0  0  0
 20 22  1  0  0  0  0
 20 23  1  0  0  0  0
 17 18  1  0  0  0  0
 17 19  1  0  0  0  0
 17 20  1  0  0  0  0
 14 15  1  0  0  0  0
 14 16  1  0  0  0  0
 14 17  1  0  0  0  0
 11 12  1  0  0  0  0
 11 13  1  0  0  0  0
 11 14  1  0  0  0  0
  9 10  1  0  0  0  0
  9 11  1  0  0  0  0
  9 26  1  0  0  0  0
  7  8  1  0  0  0  0
  7  9  1  0  0  0  0
 30 31  1  0  0  0  0
 30 32  1  0  0  0  0
 30 33  1  0  0  0  0
 28 29  1  0  0  0  0
 28 30  1  0  0  0  0
M  END
$$$$
default_name
  -OEChem-02102213163D

 33 32  0     1  0  0  0  0  0999 V2000
   -3.8420   -3.6918    1.5562 H   0  0  0  0  0  0  0  0  0  0  0  0
   -3.8430   -2.7008    1.1032 C   0  0  0  0  0  0  0  0  0  0  0  0
   -4.5510   -2.0608    1.6242 H   0  0  0  0  0  0  0  0  0  0  0  0
   -4.1140   -2.7798    0.0522 H   0  0  0  0  0  0  0  0  0  0  0  0
   -2.4570   -2.1098    1.2172 C   0  0  0  0  0  0  0  0  0  0  0  0
   -1.5600   -2.7438    1.7572 O   0  0  0  0  0  0  0  0  0  0  0  0
   -2.2870   -0.8898    0.7102 N   0  0  0  0  0  0  0  0  0  0  0  0
   -3.0820   -0.4218    0.2992 H   0  0  0  0  0  0  0  0  0  0  0  0
   -1.0240   -0.1468    0.7262 C   0  0  1  0  0  0  0  0  0  0  0  0
   -0.2680   -0.7367    0.2062 H   0  0  0  0  0  0  0  0  0  0  0  0
   -1.2212    1.1806   -0.0314 C   0  0  0  0  0  0  0  0  0  0  0  0
   -0.2389    1.6018   -0.2552 H   0  0  0  0  0  0  0  0  0  0  0  0
   -1.7303    0.9835   -0.9758 H   0  0  0  0  0  0  0  0  0  0  0  0
   -2.0195    2.2234    0.7664 C   0  0  0  0  0  0  0  0  0  0  0  0
   -1.8465    2.0791    1.8332 H   0  0  0  0  0  0  0  0  0  0  0  0
   -1.6875    3.2238    0.4826 H   0  0  0  0  0  0  0  0  0  0  0  0
   -3.5213    2.0931    0.4882 C   0  0  0  0  0  0  0  0  0  0  0  0
   -3.7097    2.2274   -0.5774 H   0  0  0  0  0  0  0  0  0  0  0  0
   -3.8628    1.1032    0.7924 H   0  0  0  0  0  0  0  0  0  0  0  0
   -4.2881    3.1555    1.2733 C   0  0  0  0  0  0  0  0  0  0  0  0
   -4.1163    3.0119    2.3388 H   0  0  0  0  0  0  0  0  0  0  0  0
   -3.9359    4.1442    0.9837 H   0  0  0  0  0  0  0  0  0  0  0  0
   -5.7296    3.0741    1.0112 N   0  0  0  0  0  0  0  0  0  0  0  0
   -6.2050    3.7792    1.5551 H   0  0  0  0  0  0  0  0  0  0  0  0
   -5.8976    3.2385    0.0288 H   0  0  0  0  0  0  0  0  0  0  0  0
   -0.5564    0.0727    2.1744 C   0  0  0  0  0  0  0  0  0  0  0  0
    0.6169   -0.1288    2.4805 O   0  0  0  0  0  0  0  0  0  0  0  0
   -1.4759    0.4743    3.0595 N   0  0  0  0  0  0  0  0  0  0  0  0
   -2.4132    0.6318    2.7275 H   0  0  0  0  0  0  0  0  0  0  0  0
   -1.1971    0.7118    4.4750 C   0  0  0  0  0  0  0  0  0  0  0  0
   -0.3779    1.4272    4.5748 H   0  0  0  0  0  0  0  0  0  0  0  0
   -2.0826    1.1064    4.9754 H   0  0  0  0  0  0  0  0  0  0  0  0
   -0.8992   -0.2240    4.9525 H   0  0  0  0  0  0  0  0  0  0  0  0
  5  6  2  0  0  0  0
  5  7  1  0  0  0  0
  2  3  1  0  0  0  0
  2  4  1  0  0  0  0
  2  5  1  0  0  0  0
  1  2  1  0  0  0  0
 26 27  2  0  0  0  0
 26 28  1  0  0  0  0
 23 24  1  0  0  0  0
 23 25  1  0  0  0  0
 20 21  1  0  0  0  0
 20 22  1  0  0  0  0
 20 23  1  0  0  0  0
 17 18  1  0  0  0  0
 17 19  1  0  0  0  0
 17 20  1  0  0  0  0
 14 15  1  0  0  0  0
 14 16  1  0  0  0  0
 14 17  1  0  0  0  0
 11 12  1  0  0  0  0
 11 13  1  0  0  0  0
 11 14  1  0  0  0  0
  9 10  1  0  0  0  0
  9 11  1  0  0  0  0
  9 26  1  0  0  0  0
  7  8  1  0  0  0  0
  7  9  1  0  0  0  0
 30 31  1  0  0  0  0
 30 32  1  0  0  0  0
 30 33  1  0  0  0  0
 28 29  1  0  0  0  0
 28 30  1  0  0  0  0
M  END
$$$$
default_name
  -OEChem-02102213163D

 33 32  0     1  0  0  0  0  0999 V2000
   -3.8420   -3.6918    1.5562 H   0  0  0  0  0  0  0  0  0  0  0  0
   -3.8430   -2.7008    1.1032 C   0  0  0  0  0  0  0  0  0  0  0  0
   -4.5510   -2.0608    1.6242 H   0  0  0  0  0  0  0  0  0  0  0  0
   -4.1140   -2.7798    0.0522 H   0  0  0  0  0  0  0  0  0  0  0  0
   -2.4570   -2.1098    1.2172 C   0  0  0  0  0  0  0  0  0  0  0  0
   -1.5600   -2.7438    1.7572 O   0  0  0  0  0  0  0  0  0  0  0  0
   -2.2870   -0.8898    0.7102 N   0  0  0  0  0  0  0  0  0  0  0  0
   -3.0820   -0.4218    0.2992 H   0  0  0  0  0  0  0  0  0  0  0  0
   -1.0240   -0.1468    0.7262 C   0  0  1  0  0  0  0  0  0  0  0  0
   -0.2680   -0.7367    0.2062 H   0  0  0  0  0  0  0  0  0  0  0  0
   -1.2212    1.1806   -0.0314 C   0  0  0  0  0  0  0  0  0  0  0  0
   -0.2389    1.6018   -0.2552 H   0  0  0  0  0  0  0  0  0  0  0  0
   -1.7303    0.9835   -0.9758 H   0  0  0  0  0  0  0  0  0  0  0  0
   -2.0195    2.2234    0.7664 C   0  0  0  0  0  0  0  0  0  0  0  0
   -1.6521    2.2592    1.7924 H   0  0  0  0  0  0  0  0  0  0  0  0
   -1.8894    3.2044    0.3058 H   0  0  0  0  0  0  0  0  0  0  0  0
   -3.5112    1.8709    0.7887 C   0  0  0  0  0  0  0  0  0  0  0  0
   -3.8919    1.8237   -0.2320 H   0  0  0  0  0  0  0  0  0  0  0  0
   -3.6486    0.9021    1.2696 H   0  0  0  0  0  0  0  0  0  0  0  0
   -4.2838    2.9351    1.5658 C   0  0  0  0  0  0  0  0  0  0  0  0
   -3.9179    2.9712    2.5907 H   0  0  0  0  0  0  0  0  0  0  0  0
   -4.1332    3.9063    1.0973 H   0  0  0  0  0  0  0  0  0  0  0  0
   -5.7211    2.6404    1.5866 N   0  0  0  0  0  0  0  0  0  0  0  0
   -6.1973    3.3540    2.1186 H   0  0  0  0  0  0  0  0  0  0  0  0
   -6.0725    2.6373    0.6396 H   0  0  0  0  0  0  0  0  0  0  0  0
   -0.5564    0.0727    2.1744 C   0  0  0  0  0  0  0  0  0  0  0  0
    0.6169   -0.1288    2.4805 O   0  0  0  0  0  0  0  0  0  0  0  0
   -1.4759    0.4743    3.0595 N   0  0  0  0  0  0  0  0  0  0  0  0
   -2.4132    0.6318    2.7275 H   0  0  0  0  0  0  0  0  0  0  0  0
   -1.1971    0.7118    4.4750 C   0  0  0  0  0  0  0  0  0  0  0  0
   -0.3779    1.4272    4.5748 H   0  0  0  0  0  0  0  0  0  0  0  0
   -2.0826    1.1064    4.9754 H   0  0  0  0  0  0  0  0  0  0  0  0
   -0.8992   -0.2240    4.9525 H   0  0  0  0  0  0  0  0  0  0  0  0
  5  6  2  0  0  0  0
  5  7  1  0  0  0  0
  2  3  1  0  0  0  0
  2  4  1  0  0  0  0
  2  5  1  0  0  0  0
  1  2  1  0  0  0  0
 26 27  2  0  0  0  0
 26 28  1  0  0  0  0
 23 24  1  0  0  0  0
 23 25  1  0  0  0  0
 20 21  1  0  0  0  0
 20 22  1  0  0  0  0
 20 23  1  0  0  0  0
 17 18  1  0  0  0  0
 17 19  1  0  0  0  0
 17 20  1  0  0  0  0
 14 15  1  0  0  0  0
 14 16  1  0  0  0  0
 14 17  1  0  0  0  0
 11 12  1  0  0  0  0
 11 13  1  0  0  0  0
 11 14  1  0  0  0  0
  9 10  1  0  0  0  0
  9 11  1  0  0  0  0
  9 26  1  0  0  0  0
  7  8  1  0  0  0  0
  7  9  1  0  0  0  0
 30 31  1  0  0  0  0
 30 32  1  0  0  0  0
 30 33  1  0  0  0  0
 28 29  1  0  0  0  0
 28 30  1  0  0  0  0
M  END
$$$$
default_name
  -OEChem-02102213163D

 33 32  0     1  0  0  0  0  0999 V2000
   -3.8420   -3.6918    1.5562 H   0  0  0  0  0  0  0  0  0  0  0  0
   -3.8430   -2.7008    1.1032 C   0  0  0  0  0  0  0  0  0  0  0  0
   -4.5510   -2.0608    1.6242 H   0  0  0  0  0  0  0  0  0  0  0  0
   -4.1140   -2.7798    0.0522 H   0  0  0  0  0  0  0  0  0  0  0  0
   -2.4570   -2.1098    1.2172 C   0  0  0  0  0  0  0  0  0  0  0  0
   -1.5600   -2.7438    1.7572 O   0  0  0  0  0  0  0  0  0  0  0  0
   -2.2870   -0.8898    0.7102 N   0  0  0  0  0  0  0  0  0  0  0  0
   -3.0820   -0.4218    0.2992 H   0  0  0  0  0  0  0  0  0  0  0  0
   -1.0240   -0.1468    0.7262 C   0  0  1  0  0  0  0  0  0  0  0  0
   -0.2680   -0.7367    0.2062 H   0  0  0  0  0  0  0  0  0  0  0  0
   -1.2212    1.1806   -0.0314 C   0  0  0  0  0  0  0  0  0  0  0  0
   -0.2389    1.6018   -0.2552 H   0  0  0  0  0  0  0  0  0  0  0  0
   -1.7303    0.9835   -0.9758 H   0  0  0  0  0  0  0  0  0  0  0  0
   -2.0195    2.2234    0.7664 C   0  0  0  0  0  0  0  0  0  0  0  0
   -1.4957    2.4537    1.6946 H   0  0  0  0  0  0  0  0  0  0  0  0
   -2.1129    3.1349    0.1731 H   0  0  0  0  0  0  0  0  0  0  0  0
   -3.4188    1.6982    1.1070 C   0  0  0  0  0  0  0  0  0  0  0  0
   -3.9530    1.4557    0.1879 H   0  0  0  0  0  0  0  0  0  0  0  0
   -3.3309    0.8007    1.7200 H   0  0  0  0  0  0  0  0  0  0  0  0
   -4.1985    2.7620    1.8773 C   0  0  0  0  0  0  0  0  0  0  0  0
   -3.6765    2.9923    2.8046 H   0  0  0  0  0  0  0  0  0  0  0  0
   -4.2719    3.6651    1.2736 H   0  0  0  0  0  0  0  0  0  0  0  0
   -5.5535    2.2999    2.1993 N   0  0  0  0  0  0  0  0  0  0  0  0
   -6.0338    3.0201    2.7186 H   0  0  0  0  0  0  0  0  0  0  0  0
   -6.0533    2.1152    1.3412 H   0  0  0  0  0  0  0  0  0  0  0  0
   -0.5564    0.0727    2.1744 C   0  0  0  0  0  0  0  0  0  0  0  0
    0.6169   -0.1288    2.4805 O   0  0  0  0  0  0  0  0  0  0  0  0
   -1.4759    0.4743    3.0595 N   0  0  0  0  0  0  0  0  0  0  0  0
   -2.4132    0.6318    2.7275 H   0  0  0  0  0  0  0  0  0  0  0  0
   -1.1971    0.7118    4.4750 C   0  0  0  0  0  0  0  0  0  0  0  0
   -0.3779    1.4272    4.5748 H   0  0  0  0  0  0  0  0  0  0  0  0
   -2.0826    1.1064    4.9754 H   0  0  0  0  0  0  0  0  0  0  0  0
   -0.8992   -0.2240    4.9525 H   0  0  0  0  0  0  0  0  0  0  0  0
  5  6  2  0  0  0  0
  5  7  1  0  0  0  0
  2  3  1  0  0  0  0
  2  4  1  0  0  0  0
  2  5  1  0  0  0  0
  1  2  1  0  0  0  0
 26 27  2  0  0  0  0
 26 28  1  0  0  0  0
 23 24  1  0  0  0  0
 23 25  1  0  0  0  0
 20 21  1  0  0  0  0
 20 22  1  0  0  0  0
 20 23  1  0  0  0  0
 17 18  1  0  0  0  0
 17 19  1  0  0  0  0
 17 20  1  0  0  0  0
 14 15  1  0  0  0  0
 14 16  1  0  0  0  0
 14 17  1  0  0  0  0
 11 12  1  0  0  0  0
 11 13  1  0  0  0  0
 11 14  1  0  0  0  0
  9 10  1  0  0  0  0
  9 11  1  0  0  0  0
  9 26  1  0  0  0  0
  7  8  1  0  0  0  0
  7  9  1  0  0  0  0
 30 31  1  0  0  0  0
 30 32  1  0  0  0  0
 30 33  1  0  0  0  0
 28 29  1  0  0  0  0
 28 30  1  0  0  0  0
M  END
$$$$
default_name
  -OEChem-02102213163D

 33 32  0     1  0  0  0  0  0999 V2000
   -3.8420   -3.6918    1.5562 H   0  0  0  0  0  0  0  0  0  0  0  0
   -3.8430   -2.7008    1.1032 C   0  0  0  0  0  0  0  0  0  0  0  0
   -4.5510   -2.0608    1.6242 H   0  0  0  0  0  0  0  0  0  0  0  0
   -4.1140   -2.7798    0.0522 H   0  0  0  0  0  0  0  0  0  0  0  0
   -2.4570   -2.1098    1.2172 C   0  0  0  0  0  0  0  0  0  0  0  0
   -1.5600   -2.7438    1.7572 O   0  0  0  0  0  0  0  0  0  0  0  0
   -2.2870   -0.8898    0.7102 N   0  0  0  0  0  0  0  0  0  0  0  0
   -3.0820   -0.4218    0.2992 H   0  0  0  0  0  0  0  0  0  0  0  0
   -1.0240   -0.1468    0.7262 C   0  0  1  0  0  0  0  0  0  0  0  0
   -0.2680   -0.7367    0.2062 H   0  0  0  0  0  0  0  0  0  0  0  0
   -1.2212    1.1806   -0.0314 C   0  0  0  0  0  0  0  0  0  0  0  0
   -0.2389    1.6018   -0.2552 H   0  0  0  0  0  0  0  0  0  0  0  0
   -1.7303    0.9835   -0.9758 H   0  0  0  0  0  0  0  0  0  0  0  0
   -2.0195    2.2234    0.7664 C   0  0  0  0  0  0  0  0  0  0  0  0
   -1.3880    2.6495    1.5464 H   0  0  0  0  0  0  0  0  0  0  0  0
   -2.3428    3.0198    0.0935 H   0  0  0  0  0  0  0  0  0  0  0  0
   -3.2504    1.5865    1.4215 C   0  0  0  0  0  0  0  0  0  0  0  0
   -3.8888    1.1485    0.6536 H   0  0  0  0  0  0  0  0  0  0  0  0
   -2.9313    0.8061    2.1129 H   0  0  0  0  0  0  0  0  0  0  0  0
   -4.0383    2.6482    2.1864 C   0  0  0  0  0  0  0  0  0  0  0  0
   -3.4085    3.0740    2.9659 H   0  0  0  0  0  0  0  0  0  0  0  0
   -4.3425    3.4373    1.5007 H   0  0  0  0  0  0  0  0  0  0  0  0
   -5.2383    2.0759    2.8075 N   0  0  0  0  0  0  0  0  0  0  0  0
   -5.7256    2.8002    3.3144 H   0  0  0  0  0  0  0  0  0  0  0  0
   -5.8415    1.7078    2.0857 H   0  0  0  0  0  0  0  0  0  0  0  0
   -0.5564    0.0727    2.1744 C   0  0  0  0  0  0  0  0  0  0  0  0
    0.6169   -0.1288    2.4805 O   0  0  0  0  0  0  0  0  0  0  0  0
   -1.4759    0.4743    3.0595 N   0  0  0  0  0  0  0  0  0  0  0  0
   -2.4132    0.6318    2.7275 H   0  0  0  0  0  0  0  0  0  0  0  0
   -1.1971    0.7118    4.4750 C   0  0  0  0  0  0  0  0  0  0  0  0
   -0.3779    1.4272    4.5748 H   0  0  0  0  0  0  0  0  0  0  0  0
   -2.0826    1.1064    4.9754 H   0  0  0  0  0  0  0  0  0  0  0  0
   -0.8992   -0.2240    4.9525 H   0  0  0  0  0  0  0  0  0  0  0  0
  5  6  2  0  0  0  0
  5  7  1  0  0  0  0
  2  3  1  0  0  0  0
  2  4  1  0  0  0  0
  2  5  1  0  0  0  0
  1  2  1  0  0  0  0
 26 27  2  0  0  0  0
 26 28  1  0  0  0  0
 23 24  1  0  0  0  0
 23 25  1  0  0  0  0
 20 21  1  0  0  0  0
 20 22  1  0  0  0  0
 20 23  1  0  0  0  0
 17 18  1  0  0  0  0
 17 19  1  0  0  0  0
 17 20  1  0  0  0  0
 14 15  1  0  0  0  0
 14 16  1  0  0  0  0
 14 17  1  0  0  0  0
 11 12  1  0  0  0  0
 11 13  1  0  0  0  0
 11 14  1  0  0  0  0
  9 10  1  0  0  0  0
  9 11  1  0  0  0  0
  9 26  1  0  0  0  0
  7  8  1  0  0  0  0
  7  9  1  0  0  0  0
 30 31  1  0  0  0  0
 30 32  1  0  0  0  0
 30 33  1  0  0  0  0
 28 29  1  0  0  0  0
 28 30  1  0  0  0  0
M  END
$$$$
default_name
  -OEChem-02102213163D

 33 32  0     1  0  0  0  0  0999 V2000
   -3.8420   -3.6918    1.5562 H   0  0  0  0  0  0  0  0  0  0  0  0
   -3.8430   -2.7008    1.1032 C   0  0  0  0  0  0  0  0  0  0  0  0
   -4.5510   -2.0608    1.6242 H   0  0  0  0  0  0  0  0  0  0  0  0
   -4.1140   -2.7798    0.0522 H   0  0  0  0  0  0  0  0  0  0  0  0
   -2.4570   -2.1098    1.2172 C   0  0  0  0  0  0  0  0  0  0  0  0
   -1.5600   -2.7438    1.7572 O   0  0  0  0  0  0  0  0  0  0  0  0
   -2.2870   -0.8898    0.7102 N   0  0  0  0  0  0  0  0  0  0  0  0
   -3.0820   -0.4218    0.2992 H   0  0  0  0  0  0  0  0  0  0  0  0
   -1.0240   -0.1468    0.7262 C   0  0  1  0  0  0  0  0  0  0  0  0
   -0.2680   -0.7367    0.2062 H   0  0  0  0  0  0  0  0  0  0  0  0
   -1.2212    1.1806   -0.0314 C   0  0  0  0  0  0  0  0  0  0  0  0
   -0.2389    1.6018   -0.2552 H   0  0  0  0  0  0  0  0  0  0  0  0
   -1.7303    0.9835   -0.9758 H   0  0  0  0  0  0  0  0  0  0  0  0
   -2.0195    2.2234    0.7664 C   0  0  0  0  0  0  0  0  0  0  0  0
   -1.3363    2.8332    1.3581 H   0  0  0  0  0  0  0  0  0  0  0  0
   -2.5633    2.8670    0.0725 H   0  0  0  0  0  0  0  0  0  0  0  0
   -3.0175    1.5436    1.7107 C   0  0  0  0  0  0  0  0  0  0  0  0
   -3.7037    0.9230    1.1336 H   0  0  0  0  0  0  0  0  0  0  0  0
   -2.4770    0.9178    2.4215 H   0  0  0  0  0  0  0  0  0  0  0  0
   -3.8139    2.6014    2.4722 C   0  0  0  0  0  0  0  0  0  0  0  0
   -3.1324    3.2106    3.0637 H   0  0  0  0  0  0  0  0  0  0  0  0
   -4.3402    3.2383    1.7632 H   0  0  0  0  0  0  0  0  0  0  0  0
   -4.7969    1.9838    3.3697 N   0  0  0  0  0  0  0  0  0  0  0  0
   -5.2938    2.7093    3.8654 H   0  0  0  0  0  0  0  0  0  0  0  0
   -5.4513    1.4428    2.8224 H   0  0  0  0  0  0  0  0  0  0  0  0
   -0.5564    0.0727    2.1744 C   0  0  0  0  0  0  0  0  0  0  0  0
    0.6169   -0.1288    2.4805 O   0  0  0  0  0  0  0  0  0  0  0  0
   -1.4759    0.4743    3.0595 N   0  0  0  0  0  0  0  0  0  0  0  0
   -2.4132    0.6318    2.7275 H   0  0  0  0  0  0  0  0  0  0  0  0
   -1.1971    0.7118    4.4750 C   0  0  0  0  0  0  0  0  0  0  0  0
   -0.3779    1.4272    4.5748 H   0  0  0  0  0  0  0  0  0  0  0  0
   -2.0826    1.1064    4.9754 H   0  0  0  0  0  0  0  0  0  0  0  0
   -0.8992   -0.2240    4.9525 H   0  0  0  0  0  0  0  0  0  0  0  0
  5  6  2  0  0  0  0
  5  7  1  0  0  0  0
  2  3  1  0  0  0  0
  2  4  1  0  0  0  0
  2  5  1  0  0  0  0
  1  2  1  0  0  0  0
 26 27  2  0  0  0  0
 26 28  1  0  0  0  0
 23 24  1  0  0  0  0
 23 25  1  0  0  0  0
 20 21  1  0  0  0  0
 20 22  1  0  0  0  0
 20 23  1  0  0  0  0
 17 18  1  0  0  0  0
 17 19  1  0  0  0  0
 17 20  1  0  0  0  0
 14 15  1  0  0  0  0
 14 16  1  0  0  0  0
 14 17  1  0  0  0  0
 11 12  1  0  0  0  0
 11 13  1  0  0  0  0
 11 14  1  0  0  0  0
  9 10  1  0  0  0  0
  9 11  1  0  0  0  0
  9 26  1  0  0  0  0
  7  8  1  0  0  0  0
  7  9  1  0  0  0  0
 30 31  1  0  0  0  0
 30 32  1  0  0  0  0
 30 33  1  0  0  0  0
 28 29  1  0  0  0  0
 28 30  1  0  0  0  0
M  END
$$$$
default_name
  -OEChem-02102213163D

 33 32  0     1  0  0  0  0  0999 V2000
   -3.8420   -3.6918    1.5562 H   0  0  0  0  0  0  0  0  0  0  0  0
   -3.8430   -2.7008    1.1032 C   0  0  0  0  0  0  0  0  0  0  0  0
   -4.5510   -2.0608    1.6242 H   0  0  0  0  0  0  0  0  0  0  0  0
   -4.1140   -2.7798    0.0522 H   0  0  0  0  0  0  0  0  0  0  0  0
   -2.4570   -2.1098    1.2172 C   0  0  0  0  0  0  0  0  0  0  0  0
   -1.5600   -2.7438    1.7572 O   0  0  0  0  0  0  0  0  0  0  0  0
   -2.2870   -0.8898    0.7102 N   0  0  0  0  0  0  0  0  0  0  0  0
   -3.0820   -0.4218    0.2992 H   0  0  0  0  0  0  0  0  0  0  0  0
   -1.0240   -0.1468    0.7262 C   0  0  1  0  0  0  0  0  0  0  0  0
   -0.2680   -0.7367    0.2062 H   0  0  0  0  0  0  0  0  0  0  0  0
   -1.2212    1.1806   -0.0314 C   0  0  0  0  0  0  0  0  0  0  0  0
   -0.2389    1.6018   -0.2552 H   0  0  0  0  0  0  0  0  0  0  0  0
   -1.7303    0.9835   -0.9758 H   0  0  0  0  0  0  0  0  0  0  0  0
   -2.0195    2.2234    0.7664 C   0  0  0  0  0  0  0  0  0  0  0  0
   -1.3440    2.9923    1.1424 H   0  0  0  0  0  0  0  0  0  0  0  0
   -2.7595    2.6870    0.1114 H   0  0  0  0  0  0  0  0  0  0  0  0
   -2.7360    1.5722    1.9549 C   0  0  0  0  0  0  0  0  0  0  0  0
   -3.4103    0.7946    1.5950 H   0  0  0  0  0  0  0  0  0  0  0  0
   -1.9990    1.1282    2.6247 H   0  0  0  0  0  0  0  0  0  0  0  0
   -3.5407    2.6247    2.7151 C   0  0  0  0  0  0  0  0  0  0  0  0
   -2.8668    3.3927    3.0914 H   0  0  0  0  0  0  0  0  0  0  0  0
   -4.2651    3.0817    2.0430 H   0  0  0  0  0  0  0  0  0  0  0  0
   -4.2594    2.0296    3.8476 N   0  0  0  0  0  0  0  0  0  0  0  0
   -4.7676    2.7537    4.3339 H   0  0  0  0  0  0  0  0  0  0  0  0
   -4.9094    1.3384    3.5011 H   0  0  0  0  0  0  0  0  0  0  0  0
   -0.5564    0.0727    2.1744 C   0  0  0  0  0  0  0  0  0  0  0  0
    0.6169   -0.1288    2.4805 O   0  0  0  0  0  0  0  0  0  0  0  0
   -1.4759    0.4743    3.0595 N   0  0  0  0  0  0  0  0  0  0  0  0
   -2.4132    0.6318    2.7275 H   0  0  0  0  0  0  0  0  0  0  0  0
   -1.1971    0.7118    4.4750 C   0  0  0  0  0  0  0  0  0  0  0  0
   -0.3779    1.4272    4.5748 H   0  0  0  0  0  0  0  0  0  0  0  0
   -2.0826    1.1064    4.9754 H   0  0  0  0  0  0  0  0  0  0  0  0
   -0.8992   -0.2240    4.9525 H   0  0  0  0  0  0  0  0  0  0  0  0
  5  6  2  0  0  0  0
  5  7  1  0  0  0  0
  2  3  1  0  0  0  0
  2  4  1  0  0  0  0
  2  5  1  0  0  0  0
  1  2  1  0  0  0  0
 26 27  2  0  0  0  0
 26 28  1  0  0  0  0
 23 24  1  0  0  0  0
 23 25  1  0  0  0  0
 20 21  1  0  0  0  0
 20 22  1  0  0  0  0
 20 23  1  0  0  0  0
 17 18  1  0  0  0  0
 17 19  1  0  0  0  0
 17 20  1  0  0  0  0
 14 15  1  0  0  0  0
 14 16  1  0  0  0  0
 14 17  1  0  0  0  0
 11 12  1  0  0  0  0
 11 13  1  0  0  0  0
 11 14  1  0  0  0  0
  9 10  1  0  0  0  0
  9 11  1  0  0  0  0
  9 26  1  0  0  0  0
  7  8  1  0  0  0  0
  7  9  1  0  0  0  0
 30 31  1  0  0  0  0
 30 32  1  0  0  0  0
 30 33  1  0  0  0  0
 28 29  1  0  0  0  0
 28 30  1  0  0  0  0
M  END
$$$$
default_name
  -OEChem-02102213163D

 33 32  0     1  0  0  0  0  0999 V2000
   -3.8420   -3.6918    1.5562 H   0  0  0  0  0  0  0  0  0  0  0  0
   -3.8430   -2.7008    1.1032 C   0  0  0  0  0  0  0  0  0  0  0  0
   -4.5510   -2.0608    1.6242 H   0  0  0  0  0  0  0  0  0  0  0  0
   -4.1140   -2.7798    0.0522 H   0  0  0  0  0  0  0  0  0  0  0  0
   -2.4570   -2.1098    1.2172 C   0  0  0  0  0  0  0  0  0  0  0  0
   -1.5600   -2.7438    1.7572 O   0  0  0  0  0  0  0  0  0  0  0  0
   -2.2870   -0.8898    0.7102 N   0  0  0  0  0  0  0  0  0  0  0  0
   -3.0820   -0.4218    0.2992 H   0  0  0  0  0  0  0  0  0  0  0  0
   -1.0240   -0.1468    0.7262 C   0  0  1  0  0  0  0  0  0  0  0  0
   -0.2680   -0.7367    0.2062 H   0  0  0  0  0  0  0  0  0  0  0  0
   -1.2212    1.1806   -0.0314 C   0  0  0  0  0  0  0  0  0  0  0  0
   -0.2389    1.6018   -0.2552 H   0  0  0  0  0  0  0  0  0  0  0  0
   -1.7303    0.9835   -0.9758 H   0  0  0  0  0  0  0  0  0  0  0  0
   -2.0195    2.2234    0.7664 C   0  0  0  0  0  0  0  0  0  0  0  0
   -1.4108    3.1159    0.9141 H   0  0  0  0  0  0  0  0  0  0  0  0
   -2.9180    2.4920    0.2077 H   0  0  0  0  0  0  0  0  0  0  0  0
   -2.4250    1.6706    2.1375 C   0  0  0  0  0  0  0  0  0  0  0  0
   -3.0287    0.7721    2.0064 H   0  0  0  0  0  0  0  0  0  0  0  0
   -1.5299    1.4231    2.7088 H   0  0  0  0  0  0  0  0  0  0  0  0
   -3.2372    2.7166    2.8986 C   0  0  0  0  0  0  0  0  0  0  0  0
   -2.6300    3.6081    3.0469 H   0  0  0  0  0  0  0  0  0  0  0  0
   -4.1224    2.9781    2.3212 H   0  0  0  0  0  0  0  0  0  0  0  0
   -3.6625    2.2104    4.2086 N   0  0  0  0  0  0  0  0  0  0  0  0
   -4.1831    2.9302    4.6881 H   0  0  0  0  0  0  0  0  0  0  0  0
   -4.2528    1.4016    4.0756 H   0  0  0  0  0  0  0  0  0  0  0  0
   -0.5564    0.0727    2.1744 C   0  0  0  0  0  0  0  0  0  0  0  0
    0.6169   -0.1288    2.4805 O   0  0  0  0  0  0  0  0  0  0  0  0
   -1.4759    0.4743    3.0595 N   0  0  0  0  0  0  0  0  0  0  0  0
   -2.4132    0.6318    2.7275 H   0  0  0  0  0  0  0  0  0  0  0  0
   -1.1971    0.7118    4.4750 C   0  0  0  0  0  0  0  0  0  0  0  0
   -0.3779    1.4272    4.5748 H   0  0  0  0  0  0  0  0  0  0  0  0
   -2.0826    1.1064    4.9754 H   0  0  0  0  0  0  0  0  0  0  0  0
   -0.8992   -0.2240    4.9525 H   0  0  0  0  0  0  0  0  0  0  0  0
  5  6  2  0  0  0  0
  5  7  1  0  0  0  0
  2  3  1  0  0  0  0
  2  4  1  0  0  0  0
  2  5  1  0  0  0  0
  1  2  1  0  0  0  0
 26 27  2  0  0  0  0
 26 28  1  0  0  0  0
 23 24  1  0  0  0  0
 23 25  1  0  0  0  0
 20 21  1  0  0  0  0
 20 22  1  0  0  0  0
 20 23  1  0  0  0  0
 17 18  1  0  0  0  0
 17 19  1  0  0  0  0
 17 20  1  0  0  0  0
 14 15  1  0  0  0  0
 14 16  1  0  0  0  0
 14 17  1  0  0  0  0
 11 12  1  0  0  0  0
 11 13  1  0  0  0  0
 11 14  1  0  0  0  0
  9 10  1  0  0  0  0
  9 11  1  0  0  0  0
  9 26  1  0  0  0  0
  7  8  1  0  0  0  0
  7  9  1  0  0  0  0
 30 31  1  0  0  0  0
 30 32  1  0  0  0  0
 30 33  1  0  0  0  0
 28 29  1  0  0  0  0
 28 30  1  0  0  0  0
M  END
$$$$
default_name
  -OEChem-02102213163D

 33 32  0     1  0  0  0  0  0999 V2000
   -3.8420   -3.6918    1.5562 H   0  0  0  0  0  0  0  0  0  0  0  0
   -3.8430   -2.7008    1.1032 C   0  0  0  0  0  0  0  0  0  0  0  0
   -4.5510   -2.0608    1.6242 H   0  0  0  0  0  0  0  0  0  0  0  0
   -4.1140   -2.7798    0.0522 H   0  0  0  0  0  0  0  0  0  0  0  0
   -2.4570   -2.1098    1.2172 C   0  0  0  0  0  0  0  0  0  0  0  0
   -1.5600   -2.7438    1.7572 O   0  0  0  0  0  0  0  0  0  0  0  0
   -2.2870   -0.8898    0.7102 N   0  0  0  0  0  0  0  0  0  0  0  0
   -3.0820   -0.4218    0.2992 H   0  0  0  0  0  0  0  0  0  0  0  0
   -1.0240   -0.1468    0.7262 C   0  0  1  0  0  0  0  0  0  0  0  0
   -0.2680   -0.7367    0.2062 H   0  0  0  0  0  0  0  0  0  0  0  0
   -1.2212    1.1806   -0.0314 C   0  0  0  0  0  0  0  0  0  0  0  0
   -0.2389    1.6018   -0.2552 H   0  0  0  0  0  0  0  0  0  0  0  0
   -1.7303    0.9835   -0.9758 H   0  0  0  0  0  0  0  0  0  0  0  0
   -2.0195    2.2234    0.7664 C   0  0  0  0  0  0  0  0  0  0  0  0
   -1.5320    3.1956    0.6886 H   0  0  0  0  0  0  0  0  0  0  0  0
   -3.0279    2.2953    0.3548 H   0  0  0  0  0  0  0  0  0  0  0  0
   -2.1058    1.8320    2.2460 C   0  0  0  0  0  0  0  0  0  0  0  0
   -2.5847    0.8569    2.3398 H   0  0  0  0  0  0  0  0  0  0  0  0
   -1.1016    1.7822    2.6680 H   0  0  0  0  0  0  0  0  0  0  0  0
   -2.9242    2.8709    3.0102 C   0  0  0  0  0  0  0  0  0  0  0  0
   -2.4379    3.8420    2.9334 H   0  0  0  0  0  0  0  0  0  0  0  0
   -3.9218    2.9347    2.5787 H   0  0  0  0  0  0  0  0  0  0  0  0
   -3.0468    2.5138    4.4282 N   0  0  0  0  0  0  0  0  0  0  0  0
   -3.5799    3.2269    4.9039 H   0  0  0  0  0  0  0  0  0  0  0  0
   -3.5261    1.6282    4.5066 H   0  0  0  0  0  0  0  0  0  0  0  0
   -0.5564    0.0727    2.1744 C   0  0  0  0  0  0  0  0  0  0  0  0
    0.6169   -0.1288    2.4805 O   0  0  0  0  0  0  0  0  0  0  0  0
   -1.4759    0.4743    3.0595 N   0  0  0  0  0  0  0  0  0  0  0  0
   -2.4132    0.6318    2.7275 H   0  0  0  0  0  0  0  0  0  0  0  0
   -1.1971    0.7118    4.4750 C   0  0  0  0  0  0  0  0  0  0  0  0
   -0.3779    1.4272    4.5748 H   0  0  0  0  0  0  0  0  0  0  0  0
   -2.0826    1.1064    4.9754 H   0  0  0  0  0  0  0  0  0  0  0  0
   -0.8992   -0.2240    4.9525 H   0  0  0  0  0  0  0  0  0  0  0  0
  5  6  2  0  0  0  0
  5  7  1  0  0  0  0
  2  3  1  0  0  0  0
  2  4  1  0  0  0  0
  2  5  1  0  0  0  0
  1  2  1  0  0  0  0
 26 27  2  0  0  0  0
 26 28  1  0  0  0  0
 23 24  1  0  0  0  0
 23 25  1  0  0  0  0
 20 21  1  0  0  0  0
 20 22  1  0  0  0  0
 20 23  1  0  0  0  0
 17 18  1  0  0  0  0
 17 19  1  0  0  0  0
 17 20  1  0  0  0  0
 14 15  1  0  0  0  0
 14 16  1  0  0  0  0
 14 17  1  0  0  0  0
 11 12  1  0  0  0  0
 11 13  1  0  0  0  0
 11 14  1  0  0  0  0
  9 10  1  0  0  0  0
  9 11  1  0  0  0  0
  9 26  1  0  0  0  0
  7  8  1  0  0  0  0
  7  9  1  0  0  0  0
 30 31  1  0  0  0  0
 30 32  1  0  0  0  0
 30 33  1  0  0  0  0
 28 29  1  0  0  0  0
 28 30  1  0  0  0  0
M  END
$$$$
default_name
  -OEChem-02102213163D

 33 32  0     1  0  0  0  0  0999 V2000
   -3.8420   -3.6918    1.5562 H   0  0  0  0  0  0  0  0  0  0  0  0
   -3.8430   -2.7008    1.1032 C   0  0  0  0  0  0  0  0  0  0  0  0
   -4.5510   -2.0608    1.6242 H   0  0  0  0  0  0  0  0  0  0  0  0
   -4.1140   -2.7798    0.0522 H   0  0  0  0  0  0  0  0  0  0  0  0
   -2.4570   -2.1098    1.2172 C   0  0  0  0  0  0  0  0  0  0  0  0
   -1.5600   -2.7438    1.7572 O   0  0  0  0  0  0  0  0  0  0  0  0
   -2.2870   -0.8898    0.7102 N   0  0  0  0  0  0  0  0  0  0  0  0
   -3.0820   -0.4218    0.2992 H   0  0  0  0  0  0  0  0  0  0  0  0
   -1.0240   -0.1468    0.7262 C   0  0  1  0  0  0  0  0  0  0  0  0
   -0.2680   -0.7367    0.2062 H   0  0  0  0  0  0  0  0  0  0  0  0
   -1.2212    1.1806   -0.0314 C   0  0  0  0  0  0  0  0  0  0  0  0
   -0.2389    1.6018   -0.2552 H   0  0  0  0  0  0  0  0  0  0  0  0
   -1.7303    0.9835   -0.9758 H   0  0  0  0  0  0  0  0  0  0  0  0
   -2.0195    2.2234    0.7664 C   0  0  0  0  0  0  0  0  0  0  0  0
   -1.6994    3.2260    0.4813 H   0  0  0  0  0  0  0  0  0  0  0  0
   -3.0819    2.1103    0.5426 H   0  0  0  0  0  0  0  0  0  0  0  0
   -1.8001    2.0454    2.2730 C   0  0  0  0  0  0  0  0  0  0  0  0
   -2.1087    1.0433    2.5724 H   0  0  0  0  0  0  0  0  0  0  0  0
   -0.7433    2.1812    2.5050 H   0  0  0  0  0  0  0  0  0  0  0  0
   -2.6230    3.0769    3.0423 C   0  0  0  0  0  0  0  0  0  0  0  0
   -2.3037    4.0785    2.7586 H   0  0  0  0  0  0  0  0  0  0  0  0
   -3.6770    2.9543    2.7981 H   0  0  0  0  0  0  0  0  0  0  0  0
   -2.4542    2.9191    4.4914 N   0  0  0  0  0  0  0  0  0  0  0  0
   -2.9994    3.6235    4.9664 H   0  0  0  0  0  0  0  0  0  0  0  0
   -2.7790    2.0026    4.7649 H   0  0  0  0  0  0  0  0  0  0  0  0
   -0.5564    0.0727    2.1744 C   0  0  0  0  0  0  0  0  0  0  0  0
    0.6169   -0.1288    2.4805 O   0  0  0  0  0  0  0  0  0  0  0  0
   -1.4759    0.4743    3.0595 N   0  0  0  0  0  0  0  0  0  0  0  0
   -2.4132    0.6318    2.7275 H   0  0  0  0  0  0  0  0  0  0  0  0
   -1.1971    0.7118    4.4750 C   0  0  0  0  0  0  0  0  0  0  0  0
   -0.3779    1.4272    4.5748 H   0  0  0  0  0  0  0  0  0  0  0  0
   -2.0826    1.1064    4.9754 H   0  0  0  0  0  0  0  0  0  0  0  0
   -0.8992   -0.2240    4.9525 H   0  0  0  0  0  0  0  0  0  0  0  0
  5  6  2  0  0  0  0
  5  7  1  0  0  0  0
  2  3  1  0  0  0  0
  2  4  1  0  0  0  0
  2  5  1  0  0  0  0
  1  2  1  0  0  0  0
 26 27  2  0  0  0  0
 26 28  1  0  0  0  0
 23 24  1  0  0  0  0
 23 25  1  0  0  0  0
 20 21  1  0  0  0  0
 20 22  1  0  0  0  0
 20 23  1  0  0  0  0
 17 18  1  0  0  0  0
 17 19  1  0  0  0  0
 17 20  1  0  0  0  0
 14 15  1  0  0  0  0
 14 16  1  0  0  0  0
 14 17  1  0  0  0  0
 11 12  1  0  0  0  0
 11 13  1  0  0  0  0
 11 14  1  0  0  0  0
  9 10  1  0  0  0  0
  9 11  1  0  0  0  0
  9 26  1  0  0  0  0
  7  8  1  0  0  0  0
  7  9  1  0  0  0  0
 30 31  1  0  0  0  0
 30 32  1  0  0  0  0
 30 33  1  0  0  0  0
 28 29  1  0  0  0  0
 28 30  1  0  0  0  0
M  END
$$$$
default_name
  -OEChem-02102213163D

 33 32  0     1  0  0  0  0  0999 V2000
   -3.8420   -3.6918    1.5562 H   0  0  0  0  0  0  0  0  0  0  0  0
   -3.8430   -2.7008    1.1032 C   0  0  0  0  0  0  0  0  0  0  0  0
   -4.5510   -2.0608    1.6242 H   0  0  0  0  0  0  0  0  0  0  0  0
   -4.1140   -2.7798    0.0522 H   0  0  0  0  0  0  0  0  0  0  0  0
   -2.4570   -2.1098    1.2172 C   0  0  0  0  0  0  0  0  0  0  0  0
   -1.5600   -2.7438    1.7572 O   0  0  0  0  0  0  0  0  0  0  0  0
   -2.2870   -0.8898    0.7102 N   0  0  0  0  0  0  0  0  0  0  0  0
   -3.0820   -0.4218    0.2992 H   0  0  0  0  0  0  0  0  0  0  0  0
   -1.0240   -0.1468    0.7262 C   0  0  1  0  0  0  0  0  0  0  0  0
   -0.2680   -0.7367    0.2062 H   0  0  0  0  0  0  0  0  0  0  0  0
   -1.2212    1.1806   -0.0314 C   0  0  0  0  0  0  0  0  0  0  0  0
   -0.2389    1.6018   -0.2552 H   0  0  0  0  0  0  0  0  0  0  0  0
   -1.7303    0.9835   -0.9758 H   0  0  0  0  0  0  0  0  0  0  0  0
   -2.0195    2.2234    0.7664 C   0  0  0  0  0  0  0  0  0  0  0  0
   -1.9016    3.2050    0.3065 H   0  0  0  0  0  0  0  0  0  0  0  0
   -3.0761    1.9496    0.7584 H   0  0  0  0  0  0  0  0  0  0  0  0
   -1.5287    2.2962    2.2168 C   0  0  0  0  0  0  0  0  0  0  0  0
   -1.6331    1.3186    2.6885 H   0  0  0  0  0  0  0  0  0  0  0  0
   -0.4795    2.5928    2.2310 H   0  0  0  0  0  0  0  0  0  0  0  0
   -2.3542    3.3207    2.9926 C   0  0  0  0  0  0  0  0  0  0  0  0
   -2.2366    4.3014    2.5344 H   0  0  0  0  0  0  0  0  0  0  0  0
   -3.4045    3.0356    2.9644 H   0  0  0  0  0  0  0  0  0  0  0  0
   -1.9253    3.3988    4.3938 N   0  0  0  0  0  0  0  0  0  0  0  0
   -2.4809    4.0931    4.8715 H   0  0  0  0  0  0  0  0  0  0  0  0
   -2.0622    2.4994    4.8328 H   0  0  0  0  0  0  0  0  0  0  0  0
   -0.5564    0.0727    2.1744 C   0  0  0  0  0  0  0  0  0  0  0  0
    0.6169   -0.1288    2.4805 O   0  0  0  0  0  0  0  0  0  0  0  0
   -1.4759    0.4743    3.0595 N   0  0  0  0  0  0  0  0  0  0  0  0
   -2.4132    0.6318    2.7275 H   0  0  0  0  0  0  0  0  0  0  0  0
   -1.1971    0.7118    4.4750 C   0  0  0  0  0  0  0  0  0  0  0  0
   -0.3779    1.4272    4.5748 H   0  0  0  0  0  0  0  0  0  0  0  0
   -2.0826    1.1064    4.9754 H   0  0  0  0  0  0  0  0  0  0  0  0
   -0.8992   -0.2240    4.9525 H   0  0  0  0  0  0  0  0  0  0  0  0
  5  6  2  0  0  0  0
  5  7  1  0  0  0  0
  2  3  1  0  0  0  0
  2  4  1  0  0  0  0
  2  5  1  0  0  0  0
  1  2  1  0  0  0  0
 26 27  2  0  0  0  0
 26 28  1  0  0  0  0
 23 24  1  0  0  0  0
 23 25  1  0  0  0  0
 20 21  1  0  0  0  0
 20 22  1  0  0  0  0
 20 23  1  0  0  0  0
 17 18  1  0  0  0  0
 17 19  1  0  0  0  0
 17 20  1  0  0  0  0
 14 15  1  0  0  0  0
 14 16  1  0  0  0  0
 14 17  1  0  0  0  0
 11 12  1  0  0  0  0
 11 13  1  0  0  0  0
 11 14  1  0  0  0  0
  9 10  1  0  0  0  0
  9 11  1  0  0  0  0
  9 26  1  0  0  0  0
  7  8  1  0  0  0  0
  7  9  1  0  0  0  0
 30 31  1  0  0  0  0
 30 32  1  0  0  0  0
 30 33  1  0  0  0  0
 28 29  1  0  0  0  0
 28 30  1  0  0  0  0
M  END
$$$$
default_name
  -OEChem-02102213163D

 33 32  0     1  0  0  0  0  0999 V2000
   -3.8420   -3.6918    1.5562 H   0  0  0  0  0  0  0  0  0  0  0  0
   -3.8430   -2.7008    1.1032 C   0  0  0  0  0  0  0  0  0  0  0  0
   -4.5510   -2.0608    1.6242 H   0  0  0  0  0  0  0  0  0  0  0  0
   -4.1140   -2.7798    0.0522 H   0  0  0  0  0  0  0  0  0  0  0  0
   -2.4570   -2.1098    1.2172 C   0  0  0  0  0  0  0  0  0  0  0  0
   -1.5600   -2.7438    1.7572 O   0  0  0  0  0  0  0  0  0  0  0  0
   -2.2870   -0.8898    0.7102 N   0  0  0  0  0  0  0  0  0  0  0  0
   -3.0820   -0.4218    0.2992 H   0  0  0  0  0  0  0  0  0  0  0  0
   -1.0240   -0.1468    0.7262 C   0  0  1  0  0  0  0  0  0  0  0  0
   -0.2680   -0.7367    0.2062 H   0  0  0  0  0  0  0  0  0  0  0  0
   -1.2212    1.1806   -0.0314 C   0  0  0  0  0  0  0  0  0  0  0  0
   -0.2389    1.6018   -0.2552 H   0  0  0  0  0  0  0  0  0  0  0  0
   -1.7303    0.9835   -0.9758 H   0  0  0  0  0  0  0  0  0  0  0  0
   -2.0195    2.2234    0.7664 C   0  0  0  0  0  0  0  0  0  0  0  0
   -2.1248    3.1340    0.1759 H   0  0  0  0  0  0  0  0  0  0  0  0
   -3.0111    1.8242    0.9874 H   0  0  0  0  0  0  0  0  0  0  0  0
   -1.3101    2.5673    2.0810 C   0  0  0  0  0  0  0  0  0  0  0  0
   -1.1904    1.6641    2.6800 H   0  0  0  0  0  0  0  0  0  0  0  0
   -0.3281    2.9890    1.8647 H   0  0  0  0  0  0  0  0  0  0  0  0
   -2.1359    3.5857    2.8647 C   0  0  0  0  0  0  0  0  0  0  0  0
   -2.2412    4.4956    2.2760 H   0  0  0  0  0  0  0  0  0  0  0  0
   -3.1231    3.1732    3.0662 H   0  0  0  0  0  0  0  0  0  0  0  0
   -1.4959    3.9200    4.1422 N   0  0  0  0  0  0  0  0  0  0  0  0
   -2.0598    4.6036    4.6256 H   0  0  0  0  0  0  0  0  0  0  0  0
   -1.4247    3.0847    4.7057 H   0  0  0  0  0  0  0  0  0  0  0  0
   -0.5564    0.0727    2.1744 C   0  0  0  0  0  0  0  0  0  0  0  0
    0.6169   -0.1288    2.4805 O   0  0  0  0  0  0  0  0  0  0  0  0
   -1.4759    0.4743    3.0595 N   0  0  0  0  0  0  0  0  0  0  0  0
   -2.4132    0.6318    2.7275 H   0  0  0  0  0  0  0  0  0  0  0  0
   -1.1971    0.7118    4.4750 C   0  0  0  0  0  0  0  0  0  0  0  0
   -0.3779    1.4272    4.5748 H   0  0  0  0  0  0  0  0  0  0  0  0
   -2.0826    1.1064    4.9754 H   0  0  0  0  0  0  0  0  0  0  0  0
   -0.8992   -0.2240    4.9525 H   0  0  0  0  0  0  0  0  0  0  0  0
  5  6  2  0  0  0  0
  5  7  1  0  0  0  0
  2  3  1  0  0  0  0
  2  4  1  0  0  0  0
  2  5  1  0  0  0  0
  1  2  1  0  0  0  0
 26 27  2  0  0  0  0
 26 28  1  0  0  0  0
 23 24  1  0  0  0  0
 23 25  1  0  0  0  0
 20 21  1  0  0  0  0
 20 22  1  0  0  0  0
 20 23  1  0  0  0  0
 17 18  1  0  0  0  0
 17 19  1  0  0  0  0
 17 20  1  0  0  0  0
 14 15  1  0  0  0  0
 14 16  1  0  0  0  0
 14 17  1  0  0  0  0
 11 12  1  0  0  0  0
 11 13  1  0  0  0  0
 11 14  1  0  0  0  0
  9 10  1  0  0  0  0
  9 11  1  0  0  0  0
  9 26  1  0  0  0  0
  7  8  1  0  0  0  0
  7  9  1  0  0  0  0
 30 31  1  0  0  0  0
 30 32  1  0  0  0  0
 30 33  1  0  0  0  0
 28 29  1  0  0  0  0
 28 30  1  0  0  0  0
M  END
$$$$
default_name
  -OEChem-02102213163D

 33 32  0     1  0  0  0  0  0999 V2000
   -3.8420   -3.6918    1.5562 H   0  0  0  0  0  0  0  0  0  0  0  0
   -3.8430   -2.7008    1.1032 C   0  0  0  0  0  0  0  0  0  0  0  0
   -4.5510   -2.0608    1.6242 H   0  0  0  0  0  0  0  0  0  0  0  0
   -4.1140   -2.7798    0.0522 H   0  0  0  0  0  0  0  0  0  0  0  0
   -2.4570   -2.1098    1.2172 C   0  0  0  0  0  0  0  0  0  0  0  0
   -1.5600   -2.7438    1.7572 O   0  0  0  0  0  0  0  0  0  0  0  0
   -2.2870   -0.8898    0.7102 N   0  0  0  0  0  0  0  0  0  0  0  0
   -3.0820   -0.4218    0.2992 H   0  0  0  0  0  0  0  0  0  0  0  0
   -1.0240   -0.1468    0.7262 C   0  0  1  0  0  0  0  0  0  0  0  0
   -0.2680   -0.7367    0.2062 H   0  0  0  0  0  0  0  0  0  0  0  0
   -1.2212    1.1806   -0.0314 C   0  0  0  0  0  0  0  0  0  0  0  0
   -0.2389    1.6018   -0.2552 H   0  0  0  0  0  0  0  0  0  0  0  0
   -1.7303    0.9835   -0.9758 H   0  0  0  0  0  0  0  0  0  0  0  0
   -2.0195    2.2234    0.7664 C   0  0  0  0  0  0  0  0  0  0  0  0
   -2.3537    3.0179    0.0986 H   0  0  0  0  0  0  0  0  0  0  0  0
   -2.8912    1.7425    1.2141 H   0  0  0  0  0  0  0  0  0  0  0  0
   -1.1593    2.8404    1.8751 C   0  0  0  0  0  0  0  0  0  0  0  0
   -0.8106    2.0561    2.5476 H   0  0  0  0  0  0  0  0  0  0  0  0
   -0.2994    3.3427    1.4310 H   0  0  0  0  0  0  0  0  0  0  0  0
   -1.9832    3.8538    2.6672 C   0  0  0  0  0  0  0  0  0  0  0  0
   -2.3170    4.6478    2.0011 H   0  0  0  0  0  0  0  0  0  0  0  0
   -2.8519    3.3575    3.0966 H   0  0  0  0  0  0  0  0  0  0  0  0
   -1.1954    4.4473    3.7536 N   0  0  0  0  0  0  0  0  0  0  0  0
   -1.7649    5.1201    4.2456 H   0  0  0  0  0  0  0  0  0  0  0  0
   -0.9099    3.7187    4.3922 H   0  0  0  0  0  0  0  0  0  0  0  0
   -0.5564    0.0727    2.1744 C   0  0  0  0  0  0  0  0  0  0  0  0
    0.6169   -0.1288    2.4805 O   0  0  0  0  0  0  0  0  0  0  0  0
   -1.4759    0.4743    3.0595 N   0  0  0  0  0  0  0  0  0  0  0  0
   -2.4132    0.6318    2.7275 H   0  0  0  0  0  0  0  0  0  0  0  0
   -1.1971    0.7118    4.4750 C   0  0  0  0  0  0  0  0  0  0  0  0
   -0.3779    1.4272    4.5748 H   0  0  0  0  0  0  0  0  0  0  0  0
   -2.0826    1.1064    4.9754 H   0  0  0  0  0  0  0  0  0  0  0  0
   -0.8992   -0.2240    4.9525 H   0  0  0  0  0  0  0  0  0  0  0  0
  5  6  2  0  0  0  0
  5  7  1  0  0  0  0
  2  3  1  0  0  0  0
  2  4  1  0  0  0  0
  2  5  1  0  0  0  0
  1  2  1  0  0  0  0
 26 27  2  0  0  0  0
 26 28  1  0  0  0  0
 23 24  1  0  0  0  0
 23 25  1  0  0  0  0
 20 21  1  0  0  0  0
 20 22  1  0  0  0  0
 20 23  1  0  0  0  0
 17 18  1  0  0  0  0
 17 19  1  0  0  0  0
 17 20  1  0  0  0  0
 14 15  1  0  0  0  0
 14 16  1  0  0  0  0
 14 17  1  0  0  0  0
 11 12  1  0  0  0  0
 11 13  1  0  0  0  0
 11 14  1  0  0  0  0
  9 10  1  0  0  0  0
  9 11  1  0  0  0  0
  9 26  1  0  0  0  0
  7  8  1  0  0  0  0
  7  9  1  0  0  0  0
 30 31  1  0  0  0  0
 30 32  1  0  0  0  0
 30 33  1  0  0  0  0
 28 29  1  0  0  0  0
 28 30  1  0  0  0  0
M  END
$$$$
default_name
  -OEChem-02102213163D

 33 32  0     1  0  0  0  0  0999 V2000
   -3.8420   -3.6918    1.5562 H   0  0  0  0  0  0  0  0  0  0  0  0
   -3.8430   -2.7008    1.1032 C   0  0  0  0  0  0  0  0  0  0  0  0
   -4.5510   -2.0608    1.6242 H   0  0  0  0  0  0  0  0  0  0  0  0
   -4.1140   -2.7798    0.0522 H   0  0  0  0  0  0  0  0  0  0  0  0
   -2.4570   -2.1098    1.2172 C   0  0  0  0  0  0  0  0  0  0  0  0
   -1.5600   -2.7438    1.7572 O   0  0  0  0  0  0  0  0  0  0  0  0
   -2.2870   -0.8898    0.7102 N   0  0  0  0  0  0  0  0  0  0  0  0
   -3.0820   -0.4218    0.2992 H   0  0  0  0  0  0  0  0  0  0  0  0
   -1.0240   -0.1468    0.7262 C   0  0  1  0  0  0  0  0  0  0  0  0
   -0.2680   -0.7367    0.2062 H   0  0  0  0  0  0  0  0  0  0  0  0
   -1.2212    1.1806   -0.0314 C   0  0  0  0  0  0  0  0  0  0  0  0
   -0.2389    1.6018   -0.2552 H   0  0  0  0  0  0  0  0  0  0  0  0
   -1.7303    0.9835   -0.9758 H   0  0  0  0  0  0  0  0  0  0  0  0
   -2.0195    2.2234    0.7664 C   0  0  0  0  0  0  0  0  0  0  0  0
   -2.5729    2.8646    0.0797 H   0  0  0  0  0  0  0  0  0  0  0  0
   -2.7246    1.7103    1.4230 H   0  0  0  0  0  0  0  0  0  0  0  0
   -1.0865    3.0967    1.6129 C   0  0  0  0  0  0  0  0  0  0  0  0
   -0.5197    2.4680    2.3004 H   0  0  0  0  0  0  0  0  0  0  0  0
   -0.3955    3.6300    0.9595 H   0  0  0  0  0  0  0  0  0  0  0  0
   -1.9064    4.1067    2.4135 C   0  0  0  0  0  0  0  0  0  0  0  0
   -2.4590    4.7477    1.7285 H   0  0  0  0  0  0  0  0  0  0  0  0
   -2.6094    3.5761    3.0536 H   0  0  0  0  0  0  0  0  0  0  0  0
   -1.0442    4.9449    3.2546 N   0  0  0  0  0  0  0  0  0  0  0  0
   -1.6162    5.6077    3.7572 H   0  0  0  0  0  0  0  0  0  0  0  0
   -0.5529    4.3581    3.9138 H   0  0  0  0  0  0  0  0  0  0  0  0
   -0.5564    0.0727    2.1744 C   0  0  0  0  0  0  0  0  0  0  0  0
    0.6169   -0.1288    2.4805 O   0  0  0  0  0  0  0  0  0  0  0  0
   -1.4759    0.4743    3.0595 N   0  0  0  0  0  0  0  0  0  0  0  0
   -2.4132    0.6318    2.7275 H   0  0  0  0  0  0  0  0  0  0  0  0
   -1.1971    0.7118    4.4750 C   0  0  0  0  0  0  0  0  0  0  0  0
   -0.3779    1.4272    4.5748 H   0  0  0  0  0  0  0  0  0  0  0  0
   -2.0826    1.1064    4.9754 H   0  0  0  0  0  0  0  0  0  0  0  0
   -0.8992   -0.2240    4.9525 H   0  0  0  0  0  0  0  0  0  0  0  0
  5  6  2  0  0  0  0
  5  7  1  0  0  0  0
  2  3  1  0  0  0  0
  2  4  1  0  0  0  0
  2  5  1  0  0  0  0
  1  2  1  0  0  0  0
 26 27  2  0  0  0  0
 26 28  1  0  0  0  0
 23 24  1  0  0  0  0
 23 25  1  0  0  0  0
 20 21  1  0  0  0  0
 20 22  1  0  0  0  0
 20 23  1  0  0  0  0
 17 18  1  0  0  0  0
 17 19  1  0  0  0  0
 17 20  1  0  0  0  0
 14 15  1  0  0  0  0
 14 16  1  0  0  0  0
 14 17  1  0  0  0  0
 11 12  1  0  0  0  0
 11 13  1  0  0  0  0
 11 14  1  0  0  0  0
  9 10  1  0  0  0  0
  9 11  1  0  0  0  0
  9 26  1  0  0  0  0
  7  8  1  0  0  0  0
  7  9  1  0  0  0  0
 30 31  1  0  0  0  0
 30 32  1  0  0  0  0
 30 33  1  0  0  0  0
 28 29  1  0  0  0  0
 28 30  1  0  0  0  0
M  END
$$$$
default_name
  -OEChem-02102213163D

 33 32  0     1  0  0  0  0  0999 V2000
   -3.8420   -3.6918    1.5562 H   0  0  0  0  0  0  0  0  0  0  0  0
   -3.8430   -2.7008    1.1032 C   0  0  0  0  0  0  0  0  0  0  0  0
   -4.5510   -2.0608    1.6242 H   0  0  0  0  0  0  0  0  0  0  0  0
   -4.1140   -2.7798    0.0522 H   0  0  0  0  0  0  0  0  0  0  0  0
   -2.4570   -2.1098    1.2172 C   0  0  0  0  0  0  0  0  0  0  0  0
   -1.5600   -2.7438    1.7572 O   0  0  0  0  0  0  0  0  0  0  0  0
   -2.2870   -0.8898    0.7102 N   0  0  0  0  0  0  0  0  0  0  0  0
   -3.0820   -0.4218    0.2992 H   0  0  0  0  0  0  0  0  0  0  0  0
   -1.0240   -0.1468    0.7262 C   0  0  1  0  0  0  0  0  0  0  0  0
   -0.2680   -0.7367    0.2062 H   0  0  0  0  0  0  0  0  0  0  0  0
   -1.2212    1.1806   -0.0314 C   0  0  0  0  0  0  0  0  0  0  0  0
   -0.2389    1.6018   -0.2552 H   0  0  0  0  0  0  0  0  0  0  0  0
   -1.7303    0.9835   -0.9758 H   0  0  0  0  0  0  0  0  0  0  0  0
   -2.0195    2.2234    0.7664 C   0  0  0  0  0  0  0  0  0  0  0  0
   -2.7673    2.6845    0.1205 H   0  0  0  0  0  0  0  0  0  0  0  0
   -2.5227    1.7296    1.5998 H   0  0  0  0  0  0  0  0  0  0  0  0
   -1.0966    3.3188    1.3125 C   0  0  0  0  0  0  0  0  0  0  0  0
   -0.3375    2.8717    1.9550 H   0  0  0  0  0  0  0  0  0  0  0  0
   -0.6096    3.8311    0.4822 H   0  0  0  0  0  0  0  0  0  0  0  0
   -1.9107    4.3271    2.1209 C   0  0  0  0  0  0  0  0  0  0  0  0
   -2.6574    4.7884    1.4766 H   0  0  0  0  0  0  0  0  0  0  0  0
   -2.4120    3.8141    2.9400 H   0  0  0  0  0  0  0  0  0  0  0  0
   -1.0528    5.3786    2.6791 N   0  0  0  0  0  0  0  0  0  0  0  0
   -1.6238    6.0329    3.1937 H   0  0  0  0  0  0  0  0  0  0  0  0
   -0.3780    4.9593    3.3029 H   0  0  0  0  0  0  0  0  0  0  0  0
   -0.5564    0.0727    2.1744 C   0  0  0  0  0  0  0  0  0  0  0  0
    0.6169   -0.1288    2.4805 O   0  0  0  0  0  0  0  0  0  0  0  0
   -1.4759    0.4743    3.0595 N   0  0  0  0  0  0  0  0  0  0  0  0
   -2.4132    0.6318    2.7275 H   0  0  0  0  0  0  0  0  0  0  0  0
   -1.1971    0.7118    4.4750 C   0  0  0  0  0  0  0  0  0  0  0  0
   -0.3779    1.4272    4.5748 H   0  0  0  0  0  0  0  0  0  0  0  0
   -2.0826    1.1064    4.9754 H   0  0  0  0  0  0  0  0  0  0  0  0
   -0.8992   -0.2240    4.9525 H   0  0  0  0  0  0  0  0  0  0  0  0
  5  6  2  0  0  0  0
  5  7  1  0  0  0  0
  2  3  1  0  0  0  0
  2  4  1  0  0  0  0
  2  5  1  0  0  0  0
  1  2  1  0  0  0  0
 26 27  2  0  0  0  0
 26 28  1  0  0  0  0
 23 24  1  0  0  0  0
 23 25  1  0  0  0  0
 20 21  1  0  0  0  0
 20 22  1  0  0  0  0
 20 23  1  0  0  0  0
 17 18  1  0  0  0  0
 17 19  1  0  0  0  0
 17 20  1  0  0  0  0
 14 15  1  0  0  0  0
 14 16  1  0  0  0  0
 14 17  1  0  0  0  0
 11 12  1  0  0  0  0
 11 13  1  0  0  0  0
 11 14  1  0  0  0  0
  9 10  1  0  0  0  0
  9 11  1  0  0  0  0
  9 26  1  0  0  0  0
  7  8  1  0  0  0  0
  7  9  1  0  0  0  0
 30 31  1  0  0  0  0
 30 32  1  0  0  0  0
 30 33  1  0  0  0  0
 28 29  1  0  0  0  0
 28 30  1  0  0  0  0
M  END
$$$$
default_name
  -OEChem-02102213163D

 33 32  0     1  0  0  0  0  0999 V2000
   -3.8420   -3.6918    1.5562 H   0  0  0  0  0  0  0  0  0  0  0  0
   -3.8430   -2.7008    1.1032 C   0  0  0  0  0  0  0  0  0  0  0  0
   -4.5510   -2.0608    1.6242 H   0  0  0  0  0  0  0  0  0  0  0  0
   -4.1140   -2.7798    0.0522 H   0  0  0  0  0  0  0  0  0  0  0  0
   -2.4570   -2.1098    1.2172 C   0  0  0  0  0  0  0  0  0  0  0  0
   -1.5600   -2.7438    1.7572 O   0  0  0  0  0  0  0  0  0  0  0  0
   -2.2870   -0.8898    0.7102 N   0  0  0  0  0  0  0  0  0  0  0  0
   -3.0820   -0.4218    0.2992 H   0  0  0  0  0  0  0  0  0  0  0  0
   -1.0240   -0.1468    0.7262 C   0  0  1  0  0  0  0  0  0  0  0  0
   -0.2680   -0.7367    0.2062 H   0  0  0  0  0  0  0  0  0  0  0  0
   -1.2212    1.1806   -0.0314 C   0  0  0  0  0  0  0  0  0  0  0  0
   -0.2389    1.6018   -0.2552 H   0  0  0  0  0  0  0  0  0  0  0  0
   -1.7303    0.9835   -0.9758 H   0  0  0  0  0  0  0  0  0  0  0  0
   -2.0195    2.2234    0.7664 C   0  0  0  0  0  0  0  0  0  0  0  0
   -2.9237    2.4899    0.2183 H   0  0  0  0  0  0  0  0  0  0  0  0
   -2.2992    1.7992    1.7325 H   0  0  0  0  0  0  0  0  0  0  0  0
   -1.1891    3.4916    0.9942 C   0  0  0  0  0  0  0  0  0  0  0  0
   -0.2764    3.2397    1.5351 H   0  0  0  0  0  0  0  0  0  0  0  0
   -0.9274    3.9325    0.0318 H   0  0  0  0  0  0  0  0  0  0  0  0
   -1.9959    4.5002    1.8095 C   0  0  0  0  0  0  0  0  0  0  0  0
   -2.8989    4.7673    1.2627 H   0  0  0  0  0  0  0  0  0  0  0  0
   -2.2733    4.0552    2.7637 H   0  0  0  0  0  0  0  0  0  0  0  0
   -1.2203    5.7191    2.0664 N   0  0  0  0  0  0  0  0  0  0  0  0
   -1.7873    6.3668    2.5937 H   0  0  0  0  0  0  0  0  0  0  0  0
   -0.3971    5.4814    2.6014 H   0  0  0  0  0  0  0  0  0  0  0  0
   -0.5564    0.0727    2.1744 C   0  0  0  0  0  0  0  0  0  0  0  0
    0.6169   -0.1288    2.4805 O   0  0  0  0  0  0  0  0  0  0  0  0
   -1.4759    0.4743    3.0595 N   0  0  0  0  0  0  0  0  0  0  0  0
   -2.4132    0.6318    2.7275 H   0  0  0  0  0  0  0  0  0  0  0  0
   -1.1971    0.7118    4.4750 C   0  0  0  0  0  0  0  0  0  0  0  0
   -0.3779    1.4272    4.5748 H   0  0  0  0  0  0  0  0  0  0  0  0
   -2.0826    1.1064    4.9754 H   0  0  0  0  0  0  0  0  0  0  0  0
   -0.8992   -0.2240    4.9525 H   0  0  0  0  0  0  0  0  0  0  0  0
  5  6  2  0  0  0  0
  5  7  1  0  0  0  0
  2  3  1  0  0  0  0
  2  4  1  0  0  0  0
  2  5  1  0  0  0  0
  1  2  1  0  0  0  0
 26 27  2  0  0  0  0
 26 28  1  0  0  0  0
 23 24  1  0  0  0  0
 23 25  1  0  0  0  0
 20 21  1  0  0  0  0
 20 22  1  0  0  0  0
 20 23  1  0  0  0  0
 17 18  1  0  0  0  0
 17 19  1  0  0  0  0
 17 20  1  0  0  0  0
 14 15  1  0  0  0  0
 14 16  1  0  0  0  0
 14 17  1  0  0  0  0
 11 12  1  0  0  0  0
 11 13  1  0  0  0  0
 11 14  1  0  0  0  0
  9 10  1  0  0  0  0
  9 11  1  0  0  0  0
  9 26  1  0  0  0  0
  7  8  1  0  0  0  0
  7  9  1  0  0  0  0
 30 31  1  0  0  0  0
 30 32  1  0  0  0  0
 30 33  1  0  0  0  0
 28 29  1  0  0  0  0
 28 30  1  0  0  0  0
M  END
$$$$
default_name
  -OEChem-02102213163D

 33 32  0     1  0  0  0  0  0999 V2000
   -3.8420   -3.6918    1.5562 H   0  0  0  0  0  0  0  0  0  0  0  0
   -3.8430   -2.7008    1.1032 C   0  0  0  0  0  0  0  0  0  0  0  0
   -4.5510   -2.0608    1.6242 H   0  0  0  0  0  0  0  0  0  0  0  0
   -4.1140   -2.7798    0.0522 H   0  0  0  0  0  0  0  0  0  0  0  0
   -2.4570   -2.1098    1.2172 C   0  0  0  0  0  0  0  0  0  0  0  0
   -1.5600   -2.7438    1.7572 O   0  0  0  0  0  0  0  0  0  0  0  0
   -2.2870   -0.8898    0.7102 N   0  0  0  0  0  0  0  0  0  0  0  0
   -3.0820   -0.4218    0.2992 H   0  0  0  0  0  0  0  0  0  0  0  0
   -1.0240   -0.1468    0.7262 C   0  0  1  0  0  0  0  0  0  0  0  0
   -0.2680   -0.7367    0.2062 H   0  0  0  0  0  0  0  0  0  0  0  0
   -1.2212    1.1806   -0.0314 C   0  0  0  0  0  0  0  0  0  0  0  0
   -0.2389    1.6018   -0.2552 H   0  0  0  0  0  0  0  0  0  0  0  0
   -1.7303    0.9835   -0.9758 H   0  0  0  0  0  0  0  0  0  0  0  0
   -2.0195    2.2234    0.7664 C   0  0  0  0  0  0  0  0  0  0  0  0
   -3.0314    2.2941    0.3665 H   0  0  0  0  0  0  0  0  0  0  0  0
   -2.0693    1.9143    1.8121 H   0  0  0  0  0  0  0  0  0  0  0  0
   -1.3575    3.6032    0.6797 C   0  0  0  0  0  0  0  0  0  0  0  0
   -0.3406    3.5469    1.0694 H   0  0  0  0  0  0  0  0  0  0  0  0
   -1.3270    3.9271   -0.3610 H   0  0  0  0  0  0  0  0  0  0  0  0
   -2.1562    4.6140    1.5004 C   0  0  0  0  0  0  0  0  0  0  0  0
   -3.1668    4.6856    1.1014 H   0  0  0  0  0  0  0  0  0  0  0  0
   -2.2028    4.2830    2.5366 H   0  0  0  0  0  0  0  0  0  0  0  0
   -1.5356    5.9430    1.4583 N   0  0  0  0  0  0  0  0  0  0  0  0
   -2.0955    6.5867    1.9978 H   0  0  0  0  0  0  0  0  0  0  0  0
   -0.6090    5.8888    1.8569 H   0  0  0  0  0  0  0  0  0  0  0  0
   -0.5564    0.0727    2.1744 C   0  0  0  0  0  0  0  0  0  0  0  0
    0.6169   -0.1288    2.4805 O   0  0  0  0  0  0  0  0  0  0  0  0
   -1.4759    0.4743    3.0595 N   0  0  0  0  0  0  0  0  0  0  0  0
   -2.4132    0.6318    2.7275 H   0  0  0  0  0  0  0  0  0  0  0  0
   -1.1971    0.7118    4.4750 C   0  0  0  0  0  0  0  0  0  0  0  0
   -0.3779    1.4272    4.5748 H   0  0  0  0  0  0  0  0  0  0  0  0
   -2.0826    1.1064    4.9754 H   0  0  0  0  0  0  0  0  0  0  0  0
   -0.8992   -0.2240    4.9525 H   0  0  0  0  0  0  0  0  0  0  0  0
  5  6  2  0  0  0  0
  5  7  1  0  0  0  0
  2  3  1  0  0  0  0
  2  4  1  0  0  0  0
  2  5  1  0  0  0  0
  1  2  1  0  0  0  0
 26 27  2  0  0  0  0
 26 28  1  0  0  0  0
 23 24  1  0  0  0  0
 23 25  1  0  0  0  0
 20 21  1  0  0  0  0
 20 22  1  0  0  0  0
 20 23  1  0  0  0  0
 17 18  1  0  0  0  0
 17 19  1  0  0  0  0
 17 20  1  0  0  0  0
 14 15  1  0  0  0  0
 14 16  1  0  0  0  0
 14 17  1  0  0  0  0
 11 12  1  0  0  0  0
 11 13  1  0  0  0  0
 11 14  1  0  0  0  0
  9 10  1  0  0  0  0
  9 11  1  0  0  0  0
  9 26  1  0  0  0  0
  7  8  1  0  0  0  0
  7  9  1  0  0  0  0
 30 31  1  0  0  0  0
 30 32  1  0  0  0  0
 30 33  1  0  0  0  0
 28 29  1  0  0  0  0
 28 30  1  0  0  0  0
M  END
$$$$
default_name
  -OEChem-02102213163D

 33 32  0     1  0  0  0  0  0999 V2000
   -3.8420   -3.6918    1.5562 H   0  0  0  0  0  0  0  0  0  0  0  0
   -3.8430   -2.7008    1.1032 C   0  0  0  0  0  0  0  0  0  0  0  0
   -4.5510   -2.0608    1.6242 H   0  0  0  0  0  0  0  0  0  0  0  0
   -4.1140   -2.7798    0.0522 H   0  0  0  0  0  0  0  0  0  0  0  0
   -2.4570   -2.1098    1.2172 C   0  0  0  0  0  0  0  0  0  0  0  0
   -1.5600   -2.7438    1.7572 O   0  0  0  0  0  0  0  0  0  0  0  0
   -2.2870   -0.8898    0.7102 N   0  0  0  0  0  0  0  0  0  0  0  0
   -3.0820   -0.4218    0.2992 H   0  0  0  0  0  0  0  0  0  0  0  0
   -1.0240   -0.1468    0.7262 C   0  0  1  0  0  0  0  0  0  0  0  0
   -0.2680   -0.7367    0.2062 H   0  0  0  0  0  0  0  0  0  0  0  0
   -1.2212    1.1806   -0.0314 C   0  0  0  0  0  0  0  0  0  0  0  0
   -0.2389    1.6018   -0.2552 H   0  0  0  0  0  0  0  0  0  0  0  0
   -1.7303    0.9835   -0.9758 H   0  0  0  0  0  0  0  0  0  0  0  0
   -2.0195    2.2234    0.7664 C   0  0  0  0  0  0  0  0  0  0  0  0
   -3.0832    2.1104    0.5548 H   0  0  0  0  0  0  0  0  0  0  0  0
   -1.8488    2.0671    1.8331 H   0  0  0  0  0  0  0  0  0  0  0  0
   -1.5903    3.6462    0.3905 C   0  0  0  0  0  0  0  0  0  0  0  0
   -0.5257    3.7724    0.5894 H   0  0  0  0  0  0  0  0  0  0  0  0
   -1.7813    3.8154   -0.6696 H   0  0  0  0  0  0  0  0  0  0  0  0
   -2.3806    4.6608    1.2146 C   0  0  0  0  0  0  0  0  0  0  0  0
   -3.4429    4.5490    1.0036 H   0  0  0  0  0  0  0  0  0  0  0  0
   -2.2051    4.4820    2.2741 H   0  0  0  0  0  0  0  0  0  0  0  0
   -1.9769    6.0352    0.8961 N   0  0  0  0  0  0  0  0  0  0  0  0
   -2.5274    6.6776    1.4469 H   0  0  0  0  0  0  0  0  0  0  0  0
   -0.9992    6.1537    1.1201 H   0  0  0  0  0  0  0  0  0  0  0  0
   -0.5564    0.0727    2.1744 C   0  0  0  0  0  0  0  0  0  0  0  0
    0.6169   -0.1288    2.4805 O   0  0  0  0  0  0  0  0  0  0  0  0
   -1.4759    0.4743    3.0595 N   0  0  0  0  0  0  0  0  0  0  0  0
   -2.4132    0.6318    2.7275 H   0  0  0  0  0  0  0  0  0  0  0  0
   -1.1971    0.7118    4.4750 C   0  0  0  0  0  0  0  0  0  0  0  0
   -0.3779    1.4272    4.5748 H   0  0  0  0  0  0  0  0  0  0  0  0
   -2.0826    1.1064    4.9754 H   0  0  0  0  0  0  0  0  0  0  0  0
   -0.8992   -0.2240    4.9525 H   0  0  0  0  0  0  0  0  0  0  0  0
  5  6  2  0  0  0  0
  5  7  1  0  0  0  0
  2  3  1  0  0  0  0
  2  4  1  0  0  0  0
  2  5  1  0  0  0  0
  1  2  1  0  0  0  0
 26 27  2  0  0  0  0
 26 28  1  0  0  0  0
 23 24  1  0  0  0  0
 23 25  1  0  0  0  0
 20 21  1  0  0  0  0
 20 22  1  0  0  0  0
 20 23  1  0  0  0  0
 17 18  1  0  0  0  0
 17 19  1  0  0  0  0
 17 20  1  0  0  0  0
 14 15  1  0  0  0  0
 14 16  1  0  0  0  0
 14 17  1  0  0  0  0
 11 12  1  0  0  0  0
 11 13  1  0  0  0  0
 11 14  1  0  0  0  0
  9 10  1  0  0  0  0
  9 11  1  0  0  0  0
  9 26  1  0  0  0  0
  7  8  1  0  0  0  0
  7  9  1  0  0  0  0
 30 31  1  0  0  0  0
 30 32  1  0  0  0  0
 30 33  1  0  0  0  0
 28 29  1  0  0  0  0
 28 30  1  0  0  0  0
M  END
$$$$
default_name
  -OEChem-02102213163D

 33 32  0     1  0  0  0  0  0999 V2000
   -3.8420   -3.6918    1.5562 H   0  0  0  0  0  0  0  0  0  0  0  0
   -3.8430   -2.7008    1.1032 C   0  0  0  0  0  0  0  0  0  0  0  0
   -4.5510   -2.0608    1.6242 H   0  0  0  0  0  0  0  0  0  0  0  0
   -4.1140   -2.7798    0.0522 H   0  0  0  0  0  0  0  0  0  0  0  0
   -2.4570   -2.1098    1.2172 C   0  0  0  0  0  0  0  0  0  0  0  0
   -1.5600   -2.7438    1.7572 O   0  0  0  0  0  0  0  0  0  0  0  0
   -2.2870   -0.8898    0.7102 N   0  0  0  0  0  0  0  0  0  0  0  0
   -3.0820   -0.4218    0.2992 H   0  0  0  0  0  0  0  0  0  0  0  0
   -1.0240   -0.1468    0.7262 C   0  0  1  0  0  0  0  0  0  0  0  0
   -0.2680   -0.7367    0.2062 H   0  0  0  0  0  0  0  0  0  0  0  0
   -1.2212    1.1806   -0.0314 C   0  0  0  0  0  0  0  0  0  0  0  0
   -0.2389    1.6018   -0.2552 H   0  0  0  0  0  0  0  0  0  0  0  0
   -1.7303    0.9835   -0.9758 H   0  0  0  0  0  0  0  0  0  0  0  0
   -2.0195    2.2234    0.7664 C   0  0  0  0  0  0  0  0  0  0  0  0
   -3.0754    1.9514    0.7705 H   0  0  0  0  0  0  0  0  0  0  0  0
   -1.6526    2.2471    1.7941 H   0  0  0  0  0  0  0  0  0  0  0  0
   -1.8719    3.6175    0.1463 C   0  0  0  0  0  0  0  0  0  0  0  0
   -0.8191    3.9008    0.1280 H   0  0  0  0  0  0  0  0  0  0  0  0
   -2.2593    3.6049   -0.8729 H   0  0  0  0  0  0  0  0  0  0  0  0
   -2.6538    4.6375    0.9717 C   0  0  0  0  0  0  0  0  0  0  0  0
   -3.7085    4.3669    0.9759 H   0  0  0  0  0  0  0  0  0  0  0  0
   -2.2801    4.6387    1.9943 H   0  0  0  0  0  0  0  0  0  0  0  0
   -2.5144    5.9893    0.4182 N   0  0  0  0  0  0  0  0  0  0  0  0
   -3.0535    6.6332    0.9784 H   0  0  0  0  0  0  0  0  0  0  0  0
   -1.5410    6.2582    0.4414 H   0  0  0  0  0  0  0  0  0  0  0  0
   -0.5564    0.0727    2.1744 C   0  0  0  0  0  0  0  0  0  0  0  0
    0.6169   -0.1288    2.4805 O   0  0  0  0  0  0  0  0  0  0  0  0
   -1.4759    0.4743    3.0595 N   0  0  0  0  0  0  0  0  0  0  0  0
   -2.4132    0.6318    2.7275 H   0  0  0  0  0  0  0  0  0  0  0  0
   -1.1971    0.7118    4.4750 C   0  0  0  0  0  0  0  0  0  0  0  0
   -0.3779    1.4272    4.5748 H   0  0  0  0  0  0  0  0  0  0  0  0
   -2.0826    1.1064    4.9754 H   0  0  0  0  0  0  0  0  0  0  0  0
   -0.8992   -0.2240    4.9525 H   0  0  0  0  0  0  0  0  0  0  0  0
  5  6  2  0  0  0  0
  5  7  1  0  0  0  0
  2  3  1  0  0  0  0
  2  4  1  0  0  0  0
  2  5  1  0  0  0  0
  1  2  1  0  0  0  0
 26 27  2  0  0  0  0
 26 28  1  0  0  0  0
 23 24  1  0  0  0  0
 23 25  1  0  0  0  0
 20 21  1  0  0  0  0
 20 22  1  0  0  0  0
 20 23  1  0  0  0  0
 17 18  1  0  0  0  0
 17 19  1  0  0  0  0
 17 20  1  0  0  0  0
 14 15  1  0  0  0  0
 14 16  1  0  0  0  0
 14 17  1  0  0  0  0
 11 12  1  0  0  0  0
 11 13  1  0  0  0  0
 11 14  1  0  0  0  0
  9 10  1  0  0  0  0
  9 11  1  0  0  0  0
  9 26  1  0  0  0  0
  7  8  1  0  0  0  0
  7  9  1  0  0  0  0
 30 31  1  0  0  0  0
 30 32  1  0  0  0  0
 30 33  1  0  0  0  0
 28 29  1  0  0  0  0
 28 30  1  0  0  0  0
M  END
$$$$
default_name
  -OEChem-02102213163D

 33 32  0     1  0  0  0  0  0999 V2000
   -3.8420   -3.6918    1.5562 H   0  0  0  0  0  0  0  0  0  0  0  0
   -3.8430   -2.7008    1.1032 C   0  0  0  0  0  0  0  0  0  0  0  0
   -4.5510   -2.0608    1.6242 H   0  0  0  0  0  0  0  0  0  0  0  0
   -4.1140   -2.7798    0.0522 H   0  0  0  0  0  0  0  0  0  0  0  0
   -2.4570   -2.1098    1.2172 C   0  0  0  0  0  0  0  0  0  0  0  0
   -1.5600   -2.7438    1.7572 O   0  0  0  0  0  0  0  0  0  0  0  0
   -2.2870   -0.8898    0.7102 N   0  0  0  0  0  0  0  0  0  0  0  0
   -3.0820   -0.4218    0.2992 H   0  0  0  0  0  0  0  0  0  0  0  0
   -1.0240   -0.1468    0.7262 C   0  0  1  0  0  0  0  0  0  0  0  0
   -0.2680   -0.7367    0.2062 H   0  0  0  0  0  0  0  0  0  0  0  0
   -1.2212    1.1806   -0.0314 C   0  0  0  0  0  0  0  0  0  0  0  0
   -0.2702    1.4652   -0.4863 H   0  0  0  0  0  0  0  0  0  0  0  0
   -1.9502    1.0343   -0.8297 H   0  0  0  0  0  0  0  0  0  0  0  0
   -1.6844    2.3338    0.8725 C   0  0  0  0  0  0  0  0  0  0  0  0
   -2.6369    2.0755    1.3361 H   0  0  0  0  0  0  0  0  0  0  0  0
   -0.9400    2.4990    1.6534 H   0  0  0  0  0  0  0  0  0  0  0  0
   -1.8629    3.6244    0.0650 C   0  0  0  0  0  0  0  0  0  0  0  0
   -0.9194    3.8919   -0.4118 H   0  0  0  0  0  0  0  0  0  0  0  0
   -2.6232    3.4715   -0.7015 H   0  0  0  0  0  0  0  0  0  0  0  0
   -2.2991    4.7587    0.9903 C   0  0  0  0  0  0  0  0  0  0  0  0
   -3.2504    4.5019    1.4534 H   0  0  0  0  0  0  0  0  0  0  0  0
   -1.5494    4.9010    1.7670 H   0  0  0  0  0  0  0  0  0  0  0  0
   -2.4566    6.0171    0.2521 N   0  0  0  0  0  0  0  0  0  0  0  0
   -2.7580    6.7391    0.8900 H   0  0  0  0  0  0  0  0  0  0  0  0
   -1.5686    6.2769   -0.1532 H   0  0  0  0  0  0  0  0  0  0  0  0
   -0.5564    0.0727    2.1744 C   0  0  0  0  0  0  0  0  0  0  0  0
    0.6169   -0.1288    2.4805 O   0  0  0  0  0  0  0  0  0  0  0  0
   -1.4759    0.4743    3.0595 N   0  0  0  0  0  0  0  0  0  0  0  0
   -2.4132    0.6318    2.7275 H   0  0  0  0  0  0  0  0  0  0  0  0
   -1.1971    0.7118    4.4750 C   0  0  0  0  0  0  0  0  0  0  0  0
   -0.3779    1.4272    4.5748 H   0  0  0  0  0  0  0  0  0  0  0  0
   -2.0826    1.1064    4.9754 H   0  0  0  0  0  0  0  0  0  0  0  0
   -0.8992   -0.2240    4.9525 H   0  0  0  0  0  0  0  0  0  0  0  0
  5  6  2  0  0  0  0
  5  7  1  0  0  0  0
  2  3  1  0  0  0  0
  2  4  1  0  0  0  0
  2  5  1  0  0  0  0
  1  2  1  0  0  0  0
 26 27  2  0  0  0  0
 26 28  1  0  0  0  0
 23 24  1  0  0  0  0
 23 25  1  0  0  0  0
 20 21  1  0  0  0  0
 20 22  1  0  0  0  0
 20 23  1  0  0  0  0
 17 18  1  0  0  0  0
 17 19  1  0  0  0  0
 17 20  1  0  0  0  0
 14 15  1  0  0  0  0
 14 16  1  0  0  0  0
 14 17  1  0  0  0  0
 11 12  1  0  0  0  0
 11 13  1  0  0  0  0
 11 14  1  0  0  0  0
  9 10  1  0  0  0  0
  9 11  1  0  0  0  0
  9 26  1  0  0  0  0
  7  8  1  0  0  0  0
  7  9  1  0  0  0  0
 30 31  1  0  0  0  0
 30 32  1  0  0  0  0
 30 33  1  0  0  0  0
 28 29  1  0  0  0  0
 28 30  1  0  0  0  0
M  END
$$$$
default_name
  -OEChem-02102213163D

 33 32  0     1  0  0  0  0  0999 V2000
   -3.8420   -3.6918    1.5562 H   0  0  0  0  0  0  0  0  0  0  0  0
   -3.8430   -2.7008    1.1032 C   0  0  0  0  0  0  0  0  0  0  0  0
   -4.5510   -2.0608    1.6242 H   0  0  0  0  0  0  0  0  0  0  0  0
   -4.1140   -2.7798    0.0522 H   0  0  0  0  0  0  0  0  0  0  0  0
   -2.4570   -2.1098    1.2172 C   0  0  0  0  0  0  0  0  0  0  0  0
   -1.5600   -2.7438    1.7572 O   0  0  0  0  0  0  0  0  0  0  0  0
   -2.2870   -0.8898    0.7102 N   0  0  0  0  0  0  0  0  0  0  0  0
   -3.0820   -0.4218    0.2992 H   0  0  0  0  0  0  0  0  0  0  0  0
   -1.0240   -0.1468    0.7262 C   0  0  1  0  0  0  0  0  0  0  0  0
   -0.2680   -0.7367    0.2062 H   0  0  0  0  0  0  0  0  0  0  0  0
   -1.2212    1.1806   -0.0314 C   0  0  0  0  0  0  0  0  0  0  0  0
   -0.2702    1.4652   -0.4863 H   0  0  0  0  0  0  0  0  0  0  0  0
   -1.9502    1.0343   -0.8297 H   0  0  0  0  0  0  0  0  0  0  0  0
   -1.6844    2.3338    0.8725 C   0  0  0  0  0  0  0  0  0  0  0  0
   -2.4788    1.9848    1.5328 H   0  0  0  0  0  0  0  0  0  0  0  0
   -0.8425    2.6769    1.4765 H   0  0  0  0  0  0  0  0  0  0  0  0
   -2.2158    3.5043    0.0374 C   0  0  0  0  0  0  0  0  0  0  0  0
   -1.4340    3.8597   -0.6345 H   0  0  0  0  0  0  0  0  0  0  0  0
   -3.0723    3.1724   -0.5501 H   0  0  0  0  0  0  0  0  0  0  0  0
   -2.6457    4.6448    0.9581 C   0  0  0  0  0  0  0  0  0  0  0  0
   -3.4394    4.2973    1.6175 H   0  0  0  0  0  0  0  0  0  0  0  0
   -1.7959    4.9655    1.5583 H   0  0  0  0  0  0  0  0  0  0  0  0
   -3.1386    5.7930    0.1886 N   0  0  0  0  0  0  0  0  0  0  0  0
   -3.4261    6.5200    0.8271 H   0  0  0  0  0  0  0  0  0  0  0  0
   -2.3959    6.1394   -0.4019 H   0  0  0  0  0  0  0  0  0  0  0  0
   -0.5564    0.0727    2.1744 C   0  0  0  0  0  0  0  0  0  0  0  0
    0.6169   -0.1288    2.4805 O   0  0  0  0  0  0  0  0  0  0  0  0
   -1.4759    0.4743    3.0595 N   0  0  0  0  0  0  0  0  0  0  0  0
   -2.4132    0.6318    2.7275 H   0  0  0  0  0  0  0  0  0  0  0  0
   -1.1971    0.7118    4.4750 C   0  0  0  0  0  0  0  0  0  0  0  0
   -0.3779    1.4272    4.5748 H   0  0  0  0  0  0  0  0  0  0  0  0
   -2.0826    1.1064    4.9754 H   0  0  0  0  0  0  0  0  0  0  0  0
   -0.8992   -0.2240    4.9525 H   0  0  0  0  0  0  0  0  0  0  0  0
  5  6  2  0  0  0  0
  5  7  1  0  0  0  0
  2  3  1  0  0  0  0
  2  4  1  0  0  0  0
  2  5  1  0  0  0  0
  1  2  1  0  0  0  0
 26 27  2  0  0  0  0
 26 28  1  0  0  0  0
 23 24  1  0  0  0  0
 23 25  1  0  0  0  0
 20 21  1  0  0  0  0
 20 22  1  0  0  0  0
 20 23  1  0  0  0  0
 17 18  1  0  0  0  0
 17 19  1  0  0  0  0
 17 20  1  0  0  0  0
 14 15  1  0  0  0  0
 14 16  1  0  0  0  0
 14 17  1  0  0  0  0
 11 12  1  0  0  0  0
 11 13  1  0  0  0  0
 11 14  1  0  0  0  0
  9 10  1  0  0  0  0
  9 11  1  0  0  0  0
  9 26  1  0  0  0  0
  7  8  1  0  0  0  0
  7  9  1  0  0  0  0
 30 31  1  0  0  0  0
 30 32  1  0  0  0  0
 30 33  1  0  0  0  0
 28 29  1  0  0  0  0
 28 30  1  0  0  0  0
M  END
$$$$
default_name
  -OEChem-02102213163D

 33 32  0     1  0  0  0  0  0999 V2000
   -3.8420   -3.6918    1.5562 H   0  0  0  0  0  0  0  0  0  0  0  0
   -3.8430   -2.7008    1.1032 C   0  0  0  0  0  0  0  0  0  0  0  0
   -4.5510   -2.0608    1.6242 H   0  0  0  0  0  0  0  0  0  0  0  0
   -4.1140   -2.7798    0.0522 H   0  0  0  0  0  0  0  0  0  0  0  0
   -2.4570   -2.1098    1.2172 C   0  0  0  0  0  0  0  0  0  0  0  0
   -1.5600   -2.7438    1.7572 O   0  0  0  0  0  0  0  0  0  0  0  0
   -2.2870   -0.8898    0.7102 N   0  0  0  0  0  0  0  0  0  0  0  0
   -3.0820   -0.4218    0.2992 H   0  0  0  0  0  0  0  0  0  0  0  0
   -1.0240   -0.1468    0.7262 C   0  0  1  0  0  0  0  0  0  0  0  0
   -0.2680   -0.7367    0.2062 H   0  0  0  0  0  0  0  0  0  0  0  0
   -1.2212    1.1806   -0.0314 C   0  0  0  0  0  0  0  0  0  0  0  0
   -0.2702    1.4652   -0.4863 H   0  0  0  0  0  0  0  0  0  0  0  0
   -1.9502    1.0343   -0.8297 H   0  0  0  0  0  0  0  0  0  0  0  0
   -1.6844    2.3338    0.8725 C   0  0  0  0  0  0  0  0  0  0  0  0
   -2.2742    1.9366    1.6991 H   0  0  0  0  0  0  0  0  0  0  0  0
   -0.8098    2.8497    1.2728 H   0  0  0  0  0  0  0  0  0  0  0  0
   -2.5437    3.3323    0.0887 C   0  0  0  0  0  0  0  0  0  0  0  0
   -1.9694    3.7329   -0.7472 H   0  0  0  0  0  0  0  0  0  0  0  0
   -3.4312    2.8269   -0.2933 H   0  0  0  0  0  0  0  0  0  0  0  0
   -2.9695    4.4794    1.0031 C   0  0  0  0  0  0  0  0  0  0  0  0
   -3.5589    4.0838    1.8287 H   0  0  0  0  0  0  0  0  0  0  0  0
   -2.0844    4.9741    1.3996 H   0  0  0  0  0  0  0  0  0  0  0  0
   -3.7755    5.4676    0.2772 N   0  0  0  0  0  0  0  0  0  0  0  0
   -4.0502    6.2018    0.9132 H   0  0  0  0  0  0  0  0  0  0  0  0
   -3.2224    5.8614   -0.4707 H   0  0  0  0  0  0  0  0  0  0  0  0
   -0.5564    0.0727    2.1744 C   0  0  0  0  0  0  0  0  0  0  0  0
    0.6169   -0.1288    2.4805 O   0  0  0  0  0  0  0  0  0  0  0  0
   -1.4759    0.4743    3.0595 N   0  0  0  0  0  0  0  0  0  0  0  0
   -2.4132    0.6318    2.7275 H   0  0  0  0  0  0  0  0  0  0  0  0
   -1.1971    0.7118    4.4750 C   0  0  0  0  0  0  0  0  0  0  0  0
   -0.3779    1.4272    4.5748 H   0  0  0  0  0  0  0  0  0  0  0  0
   -2.0826    1.1064    4.9754 H   0  0  0  0  0  0  0  0  0  0  0  0
   -0.8992   -0.2240    4.9525 H   0  0  0  0  0  0  0  0  0  0  0  0
  5  6  2  0  0  0  0
  5  7  1  0  0  0  0
  2  3  1  0  0  0  0
  2  4  1  0  0  0  0
  2  5  1  0  0  0  0
  1  2  1  0  0  0  0
 26 27  2  0  0  0  0
 26 28  1  0  0  0  0
 23 24  1  0  0  0  0
 23 25  1  0  0  0  0
 20 21  1  0  0  0  0
 20 22  1  0  0  0  0
 20 23  1  0  0  0  0
 17 18  1  0  0  0  0
 17 19  1  0  0  0  0
 17 20  1  0  0  0  0
 14 15  1  0  0  0  0
 14 16  1  0  0  0  0
 14 17  1  0  0  0  0
 11 12  1  0  0  0  0
 11 13  1  0  0  0  0
 11 14  1  0  0  0  0
  9 10  1  0  0  0  0
  9 11  1  0  0  0  0
  9 26  1  0  0  0  0
  7  8  1  0  0  0  0
  7  9  1  0  0  0  0
 30 31  1  0  0  0  0
 30 32  1  0  0  0  0
 30 33  1  0  0  0  0
 28 29  1  0  0  0  0
 28 30  1  0  0  0  0
M  END
$$$$
default_name
  -OEChem-02102213163D

 33 32  0     1  0  0  0  0  0999 V2000
   -3.8420   -3.6918    1.5562 H   0  0  0  0  0  0  0  0  0  0  0  0
   -3.8430   -2.7008    1.1032 C   0  0  0  0  0  0  0  0  0  0  0  0
   -4.5510   -2.0608    1.6242 H   0  0  0  0  0  0  0  0  0  0  0  0
   -4.1140   -2.7798    0.0522 H   0  0  0  0  0  0  0  0  0  0  0  0
   -2.4570   -2.1098    1.2172 C   0  0  0  0  0  0  0  0  0  0  0  0
   -1.5600   -2.7438    1.7572 O   0  0  0  0  0  0  0  0  0  0  0  0
   -2.2870   -0.8898    0.7102 N   0  0  0  0  0  0  0  0  0  0  0  0
   -3.0820   -0.4218    0.2992 H   0  0  0  0  0  0  0  0  0  0  0  0
   -1.0240   -0.1468    0.7262 C   0  0  1  0  0  0  0  0  0  0  0  0
   -0.2680   -0.7367    0.2062 H   0  0  0  0  0  0  0  0  0  0  0  0
   -1.2212    1.1806   -0.0314 C   0  0  0  0  0  0  0  0  0  0  0  0
   -0.2702    1.4652   -0.4863 H   0  0  0  0  0  0  0  0  0  0  0  0
   -1.9502    1.0343   -0.8297 H   0  0  0  0  0  0  0  0  0  0  0  0
   -1.6844    2.3338    0.8725 C   0  0  0  0  0  0  0  0  0  0  0  0
   -2.0368    1.9342    1.8238 H   0  0  0  0  0  0  0  0  0  0  0  0
   -0.8441    3.0057    1.0563 H   0  0  0  0  0  0  0  0  0  0  0  0
   -2.8243    3.1203    0.2154 C   0  0  0  0  0  0  0  0  0  0  0  0
   -2.4892    3.5202   -0.7422 H   0  0  0  0  0  0  0  0  0  0  0  0
   -3.6753    2.4586    0.0515 H   0  0  0  0  0  0  0  0  0  0  0  0
   -3.2483    4.2738    1.1224 C   0  0  0  0  0  0  0  0  0  0  0  0
   -3.6008    3.8758    2.0726 H   0  0  0  0  0  0  0  0  0  0  0  0
   -2.3951    4.9260    1.3016 H   0  0  0  0  0  0  0  0  0  0  0  0
   -4.3240    5.0634    0.5118 N   0  0  0  0  0  0  0  0  0  0  0  0
   -4.5880    5.8060    1.1425 H   0  0  0  0  0  0  0  0  0  0  0  0
   -3.9918    5.4615   -0.3550 H   0  0  0  0  0  0  0  0  0  0  0  0
   -0.5564    0.0727    2.1744 C   0  0  0  0  0  0  0  0  0  0  0  0
    0.6169   -0.1288    2.4805 O   0  0  0  0  0  0  0  0  0  0  0  0
   -1.4759    0.4743    3.0595 N   0  0  0  0  0  0  0  0  0  0  0  0
   -2.4132    0.6318    2.7275 H   0  0  0  0  0  0  0  0  0  0  0  0
   -1.1971    0.7118    4.4750 C   0  0  0  0  0  0  0  0  0  0  0  0
   -0.3779    1.4272    4.5748 H   0  0  0  0  0  0  0  0  0  0  0  0
   -2.0826    1.1064    4.9754 H   0  0  0  0  0  0  0  0  0  0  0  0
   -0.8992   -0.2240    4.9525 H   0  0  0  0  0  0  0  0  0  0  0  0
  5  6  2  0  0  0  0
  5  7  1  0  0  0  0
  2  3  1  0  0  0  0
  2  4  1  0  0  0  0
  2  5  1  0  0  0  0
  1  2  1  0  0  0  0
 26 27  2  0  0  0  0
 26 28  1  0  0  0  0
 23 24  1  0  0  0  0
 23 25  1  0  0  0  0
 20 21  1  0  0  0  0
 20 22  1  0  0  0  0
 20 23  1  0  0  0  0
 17 18  1  0  0  0  0
 17 19  1  0  0  0  0
 17 20  1  0  0  0  0
 14 15  1  0  0  0  0
 14 16  1  0  0  0  0
 14 17  1  0  0  0  0
 11 12  1  0  0  0  0
 11 13  1  0  0  0  0
 11 14  1  0  0  0  0
  9 10  1  0  0  0  0
  9 11  1  0  0  0  0
  9 26  1  0  0  0  0
  7  8  1  0  0  0  0
  7  9  1  0  0  0  0
 30 31  1  0  0  0  0
 30 32  1  0  0  0  0
 30 33  1  0  0  0  0
 28 29  1  0  0  0  0
 28 30  1  0  0  0  0
M  END
$$$$
default_name
  -OEChem-02102213163D

 33 32  0     1  0  0  0  0  0999 V2000
   -3.8420   -3.6918    1.5562 H   0  0  0  0  0  0  0  0  0  0  0  0
   -3.8430   -2.7008    1.1032 C   0  0  0  0  0  0  0  0  0  0  0  0
   -4.5510   -2.0608    1.6242 H   0  0  0  0  0  0  0  0  0  0  0  0
   -4.1140   -2.7798    0.0522 H   0  0  0  0  0  0  0  0  0  0  0  0
   -2.4570   -2.1098    1.2172 C   0  0  0  0  0  0  0  0  0  0  0  0
   -1.5600   -2.7438    1.7572 O   0  0  0  0  0  0  0  0  0  0  0  0
   -2.2870   -0.8898    0.7102 N   0  0  0  0  0  0  0  0  0  0  0  0
   -3.0820   -0.4218    0.2992 H   0  0  0  0  0  0  0  0  0  0  0  0
   -1.0240   -0.1468    0.7262 C   0  0  1  0  0  0  0  0  0  0  0  0
   -0.2680   -0.7367    0.2062 H   0  0  0  0  0  0  0  0  0  0  0  0
   -1.2212    1.1806   -0.0314 C   0  0  0  0  0  0  0  0  0  0  0  0
   -0.2702    1.4652   -0.4863 H   0  0  0  0  0  0  0  0  0  0  0  0
   -1.9502    1.0343   -0.8297 H   0  0  0  0  0  0  0  0  0  0  0  0
   -1.6844    2.3338    0.8725 C   0  0  0  0  0  0  0  0  0  0  0  0
   -1.7830    1.9778    1.8984 H   0  0  0  0  0  0  0  0  0  0  0  0
   -0.9430    3.1342    0.8416 H   0  0  0  0  0  0  0  0  0  0  0  0
   -3.0384    2.8827    0.4087 C   0  0  0  0  0  0  0  0  0  0  0  0
   -2.9579    3.2359   -0.6197 H   0  0  0  0  0  0  0  0  0  0  0  0
   -3.7881    2.0926    0.4606 H   0  0  0  0  0  0  0  0  0  0  0  0
   -3.4632    4.0422    1.3078 C   0  0  0  0  0  0  0  0  0  0  0  0
   -3.5623    3.6876    2.3325 H   0  0  0  0  0  0  0  0  0  0  0  0
   -2.7070    4.8246    1.2711 H   0  0  0  0  0  0  0  0  0  0  0  0
   -4.7467    4.6076    0.8765 N   0  0  0  0  0  0  0  0  0  0  0  0
   -5.0026    5.3598    1.4992 H   0  0  0  0  0  0  0  0  0  0  0  0
   -4.6516    4.9673   -0.0626 H   0  0  0  0  0  0  0  0  0  0  0  0
   -0.5564    0.0727    2.1744 C   0  0  0  0  0  0  0  0  0  0  0  0
    0.6169   -0.1288    2.4805 O   0  0  0  0  0  0  0  0  0  0  0  0
   -1.4759    0.4743    3.0595 N   0  0  0  0  0  0  0  0  0  0  0  0
   -2.4132    0.6318    2.7275 H   0  0  0  0  0  0  0  0  0  0  0  0
   -1.1971    0.7118    4.4750 C   0  0  0  0  0  0  0  0  0  0  0  0
   -0.3779    1.4272    4.5748 H   0  0  0  0  0  0  0  0  0  0  0  0
   -2.0826    1.1064    4.9754 H   0  0  0  0  0  0  0  0  0  0  0  0
   -0.8992   -0.2240    4.9525 H   0  0  0  0  0  0  0  0  0  0  0  0
  5  6  2  0  0  0  0
  5  7  1  0  0  0  0
  2  3  1  0  0  0  0
  2  4  1  0  0  0  0
  2  5  1  0  0  0  0
  1  2  1  0  0  0  0
 26 27  2  0  0  0  0
 26 28  1  0  0  0  0
 23 24  1  0  0  0  0
 23 25  1  0  0  0  0
 20 21  1  0  0  0  0
 20 22  1  0  0  0  0
 20 23  1  0  0  0  0
 17 18  1  0  0  0  0
 17 19  1  0  0  0  0
 17 20  1  0  0  0  0
 14 15  1  0  0  0  0
 14 16  1  0  0  0  0
 14 17  1  0  0  0  0
 11 12  1  0  0  0  0
 11 13  1  0  0  0  0
 11 14  1  0  0  0  0
  9 10  1  0  0  0  0
  9 11  1  0  0  0  0
  9 26  1  0  0  0  0
  7  8  1  0  0  0  0
  7  9  1  0  0  0  0
 30 31  1  0  0  0  0
 30 32  1  0  0  0  0
 30 33  1  0  0  0  0
 28 29  1  0  0  0  0
 28 30  1  0  0  0  0
M  END
$$$$
default_name
  -OEChem-02102213163D

 33 32  0     1  0  0  0  0  0999 V2000
   -3.8420   -3.6918    1.5562 H   0  0  0  0  0  0  0  0  0  0  0  0
   -3.8430   -2.7008    1.1032 C   0  0  0  0  0  0  0  0  0  0  0  0
   -4.5510   -2.0608    1.6242 H   0  0  0  0  0  0  0  0  0  0  0  0
   -4.1140   -2.7798    0.0522 H   0  0  0  0  0  0  0  0  0  0  0  0
   -2.4570   -2.1098    1.2172 C   0  0  0  0  0  0  0  0  0  0  0  0
   -1.5600   -2.7438    1.7572 O   0  0  0  0  0  0  0  0  0  0  0  0
   -2.2870   -0.8898    0.7102 N   0  0  0  0  0  0  0  0  0  0  0  0
   -3.0820   -0.4218    0.2992 H   0  0  0  0  0  0  0  0  0  0  0  0
   -1.0240   -0.1468    0.7262 C   0  0  1  0  0  0  0  0  0  0  0  0
   -0.2680   -0.7367    0.2062 H   0  0  0  0  0  0  0  0  0  0  0  0
   -1.2212    1.1806   -0.0314 C   0  0  0  0  0  0  0  0  0  0  0  0
   -0.2702    1.4652   -0.4863 H   0  0  0  0  0  0  0  0  0  0  0  0
   -1.9502    1.0343   -0.8297 H   0  0  0  0  0  0  0  0  0  0  0  0
   -1.6844    2.3338    0.8725 C   0  0  0  0  0  0  0  0  0  0  0  0
   -1.5299    2.0643    1.9177 H   0  0  0  0  0  0  0  0  0  0  0  0
   -1.0998    3.2266    0.6433 H   0  0  0  0  0  0  0  0  0  0  0  0
   -3.1716    2.6357    0.6557 C   0  0  0  0  0  0  0  0  0  0  0  0
   -3.3435    2.8996   -0.3883 H   0  0  0  0  0  0  0  0  0  0  0  0
   -3.7619    1.7538    0.9062 H   0  0  0  0  0  0  0  0  0  0  0  0
   -3.5994    3.8002    1.5467 C   0  0  0  0  0  0  0  0  0  0  0  0
   -3.4459    3.5319    2.5907 H   0  0  0  0  0  0  0  0  0  0  0  0
   -2.9987    4.6769    1.3101 H   0  0  0  0  0  0  0  0  0  0  0  0
   -5.0148    4.1316    1.3465 N   0  0  0  0  0  0  0  0  0  0  0  0
   -5.2659    4.8935    1.9592 H   0  0  0  0  0  0  0  0  0  0  0  0
   -5.1568    4.4122    0.3866 H   0  0  0  0  0  0  0  0  0  0  0  0
   -0.5564    0.0727    2.1744 C   0  0  0  0  0  0  0  0  0  0  0  0
    0.6169   -0.1288    2.4805 O   0  0  0  0  0  0  0  0  0  0  0  0
   -1.4759    0.4743    3.0595 N   0  0  0  0  0  0  0  0  0  0  0  0
   -2.4132    0.6318    2.7275 H   0  0  0  0  0  0  0  0  0  0  0  0
   -1.1971    0.7118    4.4750 C   0  0  0  0  0  0  0  0  0  0  0  0
   -0.3779    1.4272    4.5748 H   0  0  0  0  0  0  0  0  0  0  0  0
   -2.0826    1.1064    4.9754 H   0  0  0  0  0  0  0  0  0  0  0  0
   -0.8992   -0.2240    4.9525 H   0  0  0  0  0  0  0  0  0  0  0  0
  5  6  2  0  0  0  0
  5  7  1  0  0  0  0
  2  3  1  0  0  0  0
  2  4  1  0  0  0  0
  2  5  1  0  0  0  0
  1  2  1  0  0  0  0
 26 27  2  0  0  0  0
 26 28  1  0  0  0  0
 23 24  1  0  0  0  0
 23 25  1  0  0  0  0
 20 21  1  0  0  0  0
 20 22  1  0  0  0  0
 20 23  1  0  0  0  0
 17 18  1  0  0  0  0
 17 19  1  0  0  0  0
 17 20  1  0  0  0  0
 14 15  1  0  0  0  0
 14 16  1  0  0  0  0
 14 17  1  0  0  0  0
 11 12  1  0  0  0  0
 11 13  1  0  0  0  0
 11 14  1  0  0  0  0
  9 10  1  0  0  0  0
  9 11  1  0  0  0  0
  9 26  1  0  0  0  0
  7  8  1  0  0  0  0
  7  9  1  0  0  0  0
 30 31  1  0  0  0  0
 30 32  1  0  0  0  0
 30 33  1  0  0  0  0
 28 29  1  0  0  0  0
 28 30  1  0  0  0  0
M  END
$$$$
default_name
  -OEChem-02102213163D

 33 32  0     1  0  0  0  0  0999 V2000
   -3.8420   -3.6918    1.5562 H   0  0  0  0  0  0  0  0  0  0  0  0
   -3.8430   -2.7008    1.1032 C   0  0  0  0  0  0  0  0  0  0  0  0
   -4.5510   -2.0608    1.6242 H   0  0  0  0  0  0  0  0  0  0  0  0
   -4.1140   -2.7798    0.0522 H   0  0  0  0  0  0  0  0  0  0  0  0
   -2.4570   -2.1098    1.2172 C   0  0  0  0  0  0  0  0  0  0  0  0
   -1.5600   -2.7438    1.7572 O   0  0  0  0  0  0  0  0  0  0  0  0
   -2.2870   -0.8898    0.7102 N   0  0  0  0  0  0  0  0  0  0  0  0
   -3.0820   -0.4218    0.2992 H   0  0  0  0  0  0  0  0  0  0  0  0
   -1.0240   -0.1468    0.7262 C   0  0  1  0  0  0  0  0  0  0  0  0
   -0.2680   -0.7367    0.2062 H   0  0  0  0  0  0  0  0  0  0  0  0
   -1.2212    1.1806   -0.0314 C   0  0  0  0  0  0  0  0  0  0  0  0
   -0.2702    1.4652   -0.4863 H   0  0  0  0  0  0  0  0  0  0  0  0
   -1.9502    1.0343   -0.8297 H   0  0  0  0  0  0  0  0  0  0  0  0
   -1.6844    2.3338    0.8725 C   0  0  0  0  0  0  0  0  0  0  0  0
   -1.2949    2.1879    1.8804 H   0  0  0  0  0  0  0  0  0  0  0  0
   -1.3039    3.2765    0.4751 H   0  0  0  0  0  0  0  0  0  0  0  0
   -3.2146    2.3961    0.9393 C   0  0  0  0  0  0  0  0  0  0  0  0
   -3.6199    2.5340   -0.0636 H   0  0  0  0  0  0  0  0  0  0  0  0
   -3.5984    1.4653    1.3580 H   0  0  0  0  0  0  0  0  0  0  0  0
   -3.6478    3.5643    1.8228 C   0  0  0  0  0  0  0  0  0  0  0  0
   -3.2597    3.4194    2.8297 H   0  0  0  0  0  0  0  0  0  0  0  0
   -3.2504    4.4928    1.4159 H   0  0  0  0  0  0  0  0  0  0  0  0
   -5.1100    3.6676    1.8896 N   0  0  0  0  0  0  0  0  0  0  0  0
   -5.3599    4.4389    2.4910 H   0  0  0  0  0  0  0  0  0  0  0  0
   -5.4732    3.8341    0.9619 H   0  0  0  0  0  0  0  0  0  0  0  0
   -0.5564    0.0727    2.1744 C   0  0  0  0  0  0  0  0  0  0  0  0
    0.6169   -0.1288    2.4805 O   0  0  0  0  0  0  0  0  0  0  0  0
   -1.4759    0.4743    3.0595 N   0  0  0  0  0  0  0  0  0  0  0  0
   -2.4132    0.6318    2.7275 H   0  0  0  0  0  0  0  0  0  0  0  0
   -1.1971    0.7118    4.4750 C   0  0  0  0  0  0  0  0  0  0  0  0
   -0.3779    1.4272    4.5748 H   0  0  0  0  0  0  0  0  0  0  0  0
   -2.0826    1.1064    4.9754 H   0  0  0  0  0  0  0  0  0  0  0  0
   -0.8992   -0.2240    4.9525 H   0  0  0  0  0  0  0  0  0  0  0  0
  5  6  2  0  0  0  0
  5  7  1  0  0  0  0
  2  3  1  0  0  0  0
  2  4  1  0  0  0  0
  2  5  1  0  0  0  0
  1  2  1  0  0  0  0
 26 27  2  0  0  0  0
 26 28  1  0  0  0  0
 23 24  1  0  0  0  0
 23 25  1  0  0  0  0
 20 21  1  0  0  0  0
 20 22  1  0  0  0  0
 20 23  1  0  0  0  0
 17 18  1  0  0  0  0
 17 19  1  0  0  0  0
 17 20  1  0  0  0  0
 14 15  1  0  0  0  0
 14 16  1  0  0  0  0
 14 17  1  0  0  0  0
 11 12  1  0  0  0  0
 11 13  1  0  0  0  0
 11 14  1  0  0  0  0
  9 10  1  0  0  0  0
  9 11  1  0  0  0  0
  9 26  1  0  0  0  0
  7  8  1  0  0  0  0
  7  9  1  0  0  0  0
 30 31  1  0  0  0  0
 30 32  1  0  0  0  0
 30 33  1  0  0  0  0
 28 29  1  0  0  0  0
 28 30  1  0  0  0  0
M  END
$$$$
default_name
  -OEChem-02102213163D

 33 32  0     1  0  0  0  0  0999 V2000
   -3.8420   -3.6918    1.5562 H   0  0  0  0  0  0  0  0  0  0  0  0
   -3.8430   -2.7008    1.1032 C   0  0  0  0  0  0  0  0  0  0  0  0
   -4.5510   -2.0608    1.6242 H   0  0  0  0  0  0  0  0  0  0  0  0
   -4.1140   -2.7798    0.0522 H   0  0  0  0  0  0  0  0  0  0  0  0
   -2.4570   -2.1098    1.2172 C   0  0  0  0  0  0  0  0  0  0  0  0
   -1.5600   -2.7438    1.7572 O   0  0  0  0  0  0  0  0  0  0  0  0
   -2.2870   -0.8898    0.7102 N   0  0  0  0  0  0  0  0  0  0  0  0
   -3.0820   -0.4218    0.2992 H   0  0  0  0  0  0  0  0  0  0  0  0
   -1.0240   -0.1468    0.7262 C   0  0  1  0  0  0  0  0  0  0  0  0
   -0.2680   -0.7367    0.2062 H   0  0  0  0  0  0  0  0  0  0  0  0
   -1.2212    1.1806   -0.0314 C   0  0  0  0  0  0  0  0  0  0  0  0
   -0.2702    1.4652   -0.4863 H   0  0  0  0  0  0  0  0  0  0  0  0
   -1.9502    1.0343   -0.8297 H   0  0  0  0  0  0  0  0  0  0  0  0
   -1.6844    2.3338    0.8725 C   0  0  0  0  0  0  0  0  0  0  0  0
   -1.0940    2.3402    1.7891 H   0  0  0  0  0  0  0  0  0  0  0  0
   -1.5412    3.2805    0.3484 H   0  0  0  0  0  0  0  0  0  0  0  0
   -3.1646    2.1802    1.2403 C   0  0  0  0  0  0  0  0  0  0  0  0
   -3.7681    2.1642    0.3323 H   0  0  0  0  0  0  0  0  0  0  0  0
   -3.3089    1.2468    1.7852 H   0  0  0  0  0  0  0  0  0  0  0  0
   -3.6050    3.3507    2.1173 C   0  0  0  0  0  0  0  0  0  0  0  0
   -3.0162    3.3577    3.0332 H   0  0  0  0  0  0  0  0  0  0  0  0
   -3.4450    4.2848    1.5815 H   0  0  0  0  0  0  0  0  0  0  0  0
   -5.0258    3.2472    2.4690 N   0  0  0  0  0  0  0  0  0  0  0  0
   -5.2782    4.0269    3.0584 H   0  0  0  0  0  0  0  0  0  0  0  0
   -5.5790    3.2725    1.6241 H   0  0  0  0  0  0  0  0  0  0  0  0
   -0.5564    0.0727    2.1744 C   0  0  0  0  0  0  0  0  0  0  0  0
    0.6169   -0.1288    2.4805 O   0  0  0  0  0  0  0  0  0  0  0  0
   -1.4759    0.4743    3.0595 N   0  0  0  0  0  0  0  0  0  0  0  0
   -2.4132    0.6318    2.7275 H   0  0  0  0  0  0  0  0  0  0  0  0
   -1.1971    0.7118    4.4750 C   0  0  0  0  0  0  0  0  0  0  0  0
   -0.3779    1.4272    4.5748 H   0  0  0  0  0  0  0  0  0  0  0  0
   -2.0826    1.1064    4.9754 H   0  0  0  0  0  0  0  0  0  0  0  0
   -0.8992   -0.2240    4.9525 H   0  0  0  0  0  0  0  0  0  0  0  0
  5  6  2  0  0  0  0
  5  7  1  0  0  0  0
  2  3  1  0  0  0  0
  2  4  1  0  0  0  0
  2  5  1  0  0  0  0
  1  2  1  0  0  0  0
 26 27  2  0  0  0  0
 26 28  1  0  0  0  0
 23 24  1  0  0  0  0
 23 25  1  0  0  0  0
 20 21  1  0  0  0  0
 20 22  1  0  0  0  0
 20 23  1  0  0  0  0
 17 18  1  0  0  0  0
 17 19  1  0  0  0  0
 17 20  1  0  0  0  0
 14 15  1  0  0  0  0
 14 16  1  0  0  0  0
 14 17  1  0  0  0  0
 11 12  1  0  0  0  0
 11 13  1  0  0  0  0
 11 14  1  0  0  0  0
  9 10  1  0  0  0  0
  9 11  1  0  0  0  0
  9 26  1  0  0  0  0
  7  8  1  0  0  0  0
  7  9  1  0  0  0  0
 30 31  1  0  0  0  0
 30 32  1  0  0  0  0
 30 33  1  0  0  0  0
 28 29  1  0  0  0  0
 28 30  1  0  0  0  0
M  END
$$$$
default_name
  -OEChem-02102213163D

 33 32  0     1  0  0  0  0  0999 V2000
   -3.8420   -3.6918    1.5562 H   0  0  0  0  0  0  0  0  0  0  0  0
   -3.8430   -2.7008    1.1032 C   0  0  0  0  0  0  0  0  0  0  0  0
   -4.5510   -2.0608    1.6242 H   0  0  0  0  0  0  0  0  0  0  0  0
   -4.1140   -2.7798    0.0522 H   0  0  0  0  0  0  0  0  0  0  0  0
   -2.4570   -2.1098    1.2172 C   0  0  0  0  0  0  0  0  0  0  0  0
   -1.5600   -2.7438    1.7572 O   0  0  0  0  0  0  0  0  0  0  0  0
   -2.2870   -0.8898    0.7102 N   0  0  0  0  0  0  0  0  0  0  0  0
   -3.0820   -0.4218    0.2992 H   0  0  0  0  0  0  0  0  0  0  0  0
   -1.0240   -0.1468    0.7262 C   0  0  1  0  0  0  0  0  0  0  0  0
   -0.2680   -0.7367    0.2062 H   0  0  0  0  0  0  0  0  0  0  0  0
   -1.2212    1.1806   -0.0314 C   0  0  0  0  0  0  0  0  0  0  0  0
   -0.2702    1.4652   -0.4863 H   0  0  0  0  0  0  0  0  0  0  0  0
   -1.9502    1.0343   -0.8297 H   0  0  0  0  0  0  0  0  0  0  0  0
   -1.6844    2.3338    0.8725 C   0  0  0  0  0  0  0  0  0  0  0  0
   -0.9409    2.5108    1.6501 H   0  0  0  0  0  0  0  0  0  0  0  0
   -1.7957    3.2383    0.2718 H   0  0  0  0  0  0  0  0  0  0  0  0
   -3.0250    2.0028    1.5382 C   0  0  0  0  0  0  0  0  0  0  0  0
   -3.7781    1.8153    0.7723 H   0  0  0  0  0  0  0  0  0  0  0  0
   -2.9129    1.1132    2.1587 H   0  0  0  0  0  0  0  0  0  0  0  0
   -3.4739    3.1738    2.4101 C   0  0  0  0  0  0  0  0  0  0  0  0
   -2.7321    3.3510    3.1873 H   0  0  0  0  0  0  0  0  0  0  0  0
   -3.5691    4.0673    1.7953 H   0  0  0  0  0  0  0  0  0  0  0  0
   -4.7680    2.8993    3.0450 N   0  0  0  0  0  0  0  0  0  0  0  0
   -5.0264    3.6857    3.6227 H   0  0  0  0  0  0  0  0  0  0  0  0
   -5.4670    2.7656    2.3282 H   0  0  0  0  0  0  0  0  0  0  0  0
   -0.5564    0.0727    2.1744 C   0  0  0  0  0  0  0  0  0  0  0  0
    0.6169   -0.1288    2.4805 O   0  0  0  0  0  0  0  0  0  0  0  0
   -1.4759    0.4743    3.0595 N   0  0  0  0  0  0  0  0  0  0  0  0
   -2.4132    0.6318    2.7275 H   0  0  0  0  0  0  0  0  0  0  0  0
   -1.1971    0.7118    4.4750 C   0  0  0  0  0  0  0  0  0  0  0  0
   -0.3779    1.4272    4.5748 H   0  0  0  0  0  0  0  0  0  0  0  0
   -2.0826    1.1064    4.9754 H   0  0  0  0  0  0  0  0  0  0  0  0
   -0.8992   -0.2240    4.9525 H   0  0  0  0  0  0  0  0  0  0  0  0
  5  6  2  0  0  0  0
  5  7  1  0  0  0  0
  2  3  1  0  0  0  0
  2  4  1  0  0  0  0
  2  5  1  0  0  0  0
  1  2  1  0  0  0  0
 26 27  2  0  0  0  0
 26 28  1  0  0  0  0
 23 24  1  0  0  0  0
 23 25  1  0  0  0  0
 20 21  1  0  0  0  0
 20 22  1  0  0  0  0
 20 23  1  0  0  0  0
 17 18  1  0  0  0  0
 17 19  1  0  0  0  0
 17 20  1  0  0  0  0
 14 15  1  0  0  0  0
 14 16  1  0  0  0  0
 14 17  1  0  0  0  0
 11 12  1  0  0  0  0
 11 13  1  0  0  0  0
 11 14  1  0  0  0  0
  9 10  1  0  0  0  0
  9 11  1  0  0  0  0
  9 26  1  0  0  0  0
  7  8  1  0  0  0  0
  7  9  1  0  0  0  0
 30 31  1  0  0  0  0
 30 32  1  0  0  0  0
 30 33  1  0  0  0  0
 28 29  1  0  0  0  0
 28 30  1  0  0  0  0
M  END
$$$$
default_name
  -OEChem-02102213163D

 33 32  0     1  0  0  0  0  0999 V2000
   -3.8420   -3.6918    1.5562 H   0  0  0  0  0  0  0  0  0  0  0  0
   -3.8430   -2.7008    1.1032 C   0  0  0  0  0  0  0  0  0  0  0  0
   -4.5510   -2.0608    1.6242 H   0  0  0  0  0  0  0  0  0  0  0  0
   -4.1140   -2.7798    0.0522 H   0  0  0  0  0  0  0  0  0  0  0  0
   -2.4570   -2.1098    1.2172 C   0  0  0  0  0  0  0  0  0  0  0  0
   -1.5600   -2.7438    1.7572 O   0  0  0  0  0  0  0  0  0  0  0  0
   -2.2870   -0.8898    0.7102 N   0  0  0  0  0  0  0  0  0  0  0  0
   -3.0820   -0.4218    0.2992 H   0  0  0  0  0  0  0  0  0  0  0  0
   -1.0240   -0.1468    0.7262 C   0  0  1  0  0  0  0  0  0  0  0  0
   -0.2680   -0.7367    0.2062 H   0  0  0  0  0  0  0  0  0  0  0  0
   -1.2212    1.1806   -0.0314 C   0  0  0  0  0  0  0  0  0  0  0  0
   -0.2702    1.4652   -0.4863 H   0  0  0  0  0  0  0  0  0  0  0  0
   -1.9502    1.0343   -0.8297 H   0  0  0  0  0  0  0  0  0  0  0  0
   -1.6844    2.3338    0.8725 C   0  0  0  0  0  0  0  0  0  0  0  0
   -0.8459    2.6880    1.4727 H   0  0  0  0  0  0  0  0  0  0  0  0
   -2.0500    3.1529    0.2505 H   0  0  0  0  0  0  0  0  0  0  0  0
   -2.8052    1.8759    1.8127 C   0  0  0  0  0  0  0  0  0  0  0  0
   -3.6492    1.5110    1.2264 H   0  0  0  0  0  0  0  0  0  0  0  0
   -2.4376    1.0735    2.4529 H   0  0  0  0  0  0  0  0  0  0  0  0
   -3.2635    3.0458    2.6813 C   0  0  0  0  0  0  0  0  0  0  0  0
   -2.4268    3.3999    3.2814 H   0  0  0  0  0  0  0  0  0  0  0  0
   -3.6144    3.8550    2.0430 H   0  0  0  0  0  0  0  0  0  0  0  0
   -4.3541    2.6474    3.5785 N   0  0  0  0  0  0  0  0  0  0  0  0
   -4.6216    3.4385    4.1455 H   0  0  0  0  0  0  0  0  0  0  0  0
   -5.1450    2.3479    3.0261 H   0  0  0  0  0  0  0  0  0  0  0  0
   -0.5564    0.0727    2.1744 C   0  0  0  0  0  0  0  0  0  0  0  0
    0.6169   -0.1288    2.4805 O   0  0  0  0  0  0  0  0  0  0  0  0
   -1.4759    0.4743    3.0595 N   0  0  0  0  0  0  0  0  0  0  0  0
   -2.4132    0.6318    2.7275 H   0  0  0  0  0  0  0  0  0  0  0  0
   -1.1971    0.7118    4.4750 C   0  0  0  0  0  0  0  0  0  0  0  0
   -0.3779    1.4272    4.5748 H   0  0  0  0  0  0  0  0  0  0  0  0
   -2.0826    1.1064    4.9754 H   0  0  0  0  0  0  0  0  0  0  0  0
   -0.8992   -0.2240    4.9525 H   0  0  0  0  0  0  0  0  0  0  0  0
  5  6  2  0  0  0  0
  5  7  1  0  0  0  0
  2  3  1  0  0  0  0
  2  4  1  0  0  0  0
  2  5  1  0  0  0  0
  1  2  1  0  0  0  0
 26 27  2  0  0  0  0
 26 28  1  0  0  0  0
 23 24  1  0  0  0  0
 23 25  1  0  0  0  0
 20 21  1  0  0  0  0
 20 22  1  0  0  0  0
 20 23  1  0  0  0  0
 17 18  1  0  0  0  0
 17 19  1  0  0  0  0
 17 20  1  0  0  0  0
 14 15  1  0  0  0  0
 14 16  1  0  0  0  0
 14 17  1  0  0  0  0
 11 12  1  0  0  0  0
 11 13  1  0  0  0  0
 11 14  1  0  0  0  0
  9 10  1  0  0  0  0
  9 11  1  0  0  0  0
  9 26  1  0  0  0  0
  7  8  1  0  0  0  0
  7  9  1  0  0  0  0
 30 31  1  0  0  0  0
 30 32  1  0  0  0  0
 30 33  1  0  0  0  0
 28 29  1  0  0  0  0
 28 30  1  0  0  0  0
M  END
$$$$
default_name
  -OEChem-02102213163D

 33 32  0     1  0  0  0  0  0999 V2000
   -3.8420   -3.6918    1.5562 H   0  0  0  0  0  0  0  0  0  0  0  0
   -3.8430   -2.7008    1.1032 C   0  0  0  0  0  0  0  0  0  0  0  0
   -4.5510   -2.0608    1.6242 H   0  0  0  0  0  0  0  0  0  0  0  0
   -4.1140   -2.7798    0.0522 H   0  0  0  0  0  0  0  0  0  0  0  0
   -2.4570   -2.1098    1.2172 C   0  0  0  0  0  0  0  0  0  0  0  0
   -1.5600   -2.7438    1.7572 O   0  0  0  0  0  0  0  0  0  0  0  0
   -2.2870   -0.8898    0.7102 N   0  0  0  0  0  0  0  0  0  0  0  0
   -3.0820   -0.4218    0.2992 H   0  0  0  0  0  0  0  0  0  0  0  0
   -1.0240   -0.1468    0.7262 C   0  0  1  0  0  0  0  0  0  0  0  0
   -0.2680   -0.7367    0.2062 H   0  0  0  0  0  0  0  0  0  0  0  0
   -1.2212    1.1806   -0.0314 C   0  0  0  0  0  0  0  0  0  0  0  0
   -0.2702    1.4652   -0.4863 H   0  0  0  0  0  0  0  0  0  0  0  0
   -1.9502    1.0343   -0.8297 H   0  0  0  0  0  0  0  0  0  0  0  0
   -1.6844    2.3338    0.8725 C   0  0  0  0  0  0  0  0  0  0  0  0
   -0.8156    2.8597    1.2690 H   0  0  0  0  0  0  0  0  0  0  0  0
   -2.2867    3.0299    0.2859 H   0  0  0  0  0  0  0  0  0  0  0  0
   -2.5204    1.8082    2.0450 C   0  0  0  0  0  0  0  0  0  0  0  0
   -3.3901    1.2723    1.6638 H   0  0  0  0  0  0  0  0  0  0  0  0
   -1.9153    1.1305    2.6479 H   0  0  0  0  0  0  0  0  0  0  0  0
   -2.9880    2.9753    2.9124 C   0  0  0  0  0  0  0  0  0  0  0  0
   -2.1210    3.5009    3.3092 H   0  0  0  0  0  0  0  0  0  0  0  0
   -3.5776    3.6624    2.3076 H   0  0  0  0  0  0  0  0  0  0  0  0
   -3.8124    2.5087    4.0331 N   0  0  0  0  0  0  0  0  0  0  0  0
   -4.0914    3.3022    4.5912 H   0  0  0  0  0  0  0  0  0  0  0  0
   -4.6348    2.0480    3.6702 H   0  0  0  0  0  0  0  0  0  0  0  0
   -0.5564    0.0727    2.1744 C   0  0  0  0  0  0  0  0  0  0  0  0
    0.6169   -0.1288    2.4805 O   0  0  0  0  0  0  0  0  0  0  0  0
   -1.4759    0.4743    3.0595 N   0  0  0  0  0  0  0  0  0  0  0  0
   -2.4132    0.6318    2.7275 H   0  0  0  0  0  0  0  0  0  0  0  0
   -1.1971    0.7118    4.4750 C   0  0  0  0  0  0  0  0  0  0  0  0
   -0.3779    1.4272    4.5748 H   0  0  0  0  0  0  0  0  0  0  0  0
   -2.0826    1.1064    4.9754 H   0  0  0  0  0  0  0  0  0  0  0  0
   -0.8992   -0.2240    4.9525 H   0  0  0  0  0  0  0  0  0  0  0  0
  5  6  2  0  0  0  0
  5  7  1  0  0  0  0
  2  3  1  0  0  0  0
  2  4  1  0  0  0  0
  2  5  1  0  0  0  0
  1  2  1  0  0  0  0
 26 27  2  0  0  0  0
 26 28  1  0  0  0  0
 23 24  1  0  0  0  0
 23 25  1  0  0  0  0
 20 21  1  0  0  0  0
 20 22  1  0  0  0  0
 20 23  1  0  0  0  0
 17 18  1  0  0  0  0
 17 19  1  0  0  0  0
 17 20  1  0  0  0  0
 14 15  1  0  0  0  0
 14 16  1  0  0  0  0
 14 17  1  0  0  0  0
 11 12  1  0  0  0  0
 11 13  1  0  0  0  0
 11 14  1  0  0  0  0
  9 10  1  0  0  0  0
  9 11  1  0  0  0  0
  9 26  1  0  0  0  0
  7  8  1  0  0  0  0
  7  9  1  0  0  0  0
 30 31  1  0  0  0  0
 30 32  1  0  0  0  0
 30 33  1  0  0  0  0
 28 29  1  0  0  0  0
 28 30  1  0  0  0  0
M  END
$$$$
default_name
  -OEChem-02102213163D

 33 32  0     1  0  0  0  0  0999 V2000
   -3.8420   -3.6918    1.5562 H   0  0  0  0  0  0  0  0  0  0  0  0
   -3.8430   -2.7008    1.1032 C   0  0  0  0  0  0  0  0  0  0  0  0
   -4.5510   -2.0608    1.6242 H   0  0  0  0  0  0  0  0  0  0  0  0
   -4.1140   -2.7798    0.0522 H   0  0  0  0  0  0  0  0  0  0  0  0
   -2.4570   -2.1098    1.2172 C   0  0  0  0  0  0  0  0  0  0  0  0
   -1.5600   -2.7438    1.7572 O   0  0  0  0  0  0  0  0  0  0  0  0
   -2.2870   -0.8898    0.7102 N   0  0  0  0  0  0  0  0  0  0  0  0
   -3.0820   -0.4218    0.2992 H   0  0  0  0  0  0  0  0  0  0  0  0
   -1.0240   -0.1468    0.7262 C   0  0  1  0  0  0  0  0  0  0  0  0
   -0.2680   -0.7367    0.2062 H   0  0  0  0  0  0  0  0  0  0  0  0
   -1.2212    1.1806   -0.0314 C   0  0  0  0  0  0  0  0  0  0  0  0
   -0.2702    1.4652   -0.4863 H   0  0  0  0  0  0  0  0  0  0  0  0
   -1.9502    1.0343   -0.8297 H   0  0  0  0  0  0  0  0  0  0  0  0
   -1.6844    2.3338    0.8725 C   0  0  0  0  0  0  0  0  0  0  0  0
   -0.8520    3.0144    1.0531 H   0  0  0  0  0  0  0  0  0  0  0  0
   -2.4898    2.8779    0.3758 H   0  0  0  0  0  0  0  0  0  0  0  0
   -2.1898    1.8044    2.2194 C   0  0  0  0  0  0  0  0  0  0  0  0
   -3.0186    1.1152    2.0546 H   0  0  0  0  0  0  0  0  0  0  0  0
   -1.3816    1.2802    2.7303 H   0  0  0  0  0  0  0  0  0  0  0  0
   -2.6664    2.9672    3.0876 C   0  0  0  0  0  0  0  0  0  0  0  0
   -1.8356    3.6472    3.2689 H   0  0  0  0  0  0  0  0  0  0  0  0
   -3.4614    3.5025    2.5711 H   0  0  0  0  0  0  0  0  0  0  0  0
   -3.1797    2.4927    4.3778 N   0  0  0  0  0  0  0  0  0  0  0  0
   -3.4720    3.2860    4.9294 H   0  0  0  0  0  0  0  0  0  0  0  0
   -3.9712    1.8862    4.2167 H   0  0  0  0  0  0  0  0  0  0  0  0
   -0.5564    0.0727    2.1744 C   0  0  0  0  0  0  0  0  0  0  0  0
    0.6169   -0.1288    2.4805 O   0  0  0  0  0  0  0  0  0  0  0  0
   -1.4759    0.4743    3.0595 N   0  0  0  0  0  0  0  0  0  0  0  0
   -2.4132    0.6318    2.7275 H   0  0  0  0  0  0  0  0  0  0  0  0
   -1.1971    0.7118    4.4750 C   0  0  0  0  0  0  0  0  0  0  0  0
   -0.3779    1.4272    4.5748 H   0  0  0  0  0  0  0  0  0  0  0  0
   -2.0826    1.1064    4.9754 H   0  0  0  0  0  0  0  0  0  0  0  0
   -0.8992   -0.2240    4.9525 H   0  0  0  0  0  0  0  0  0  0  0  0
  5  6  2  0  0  0  0
  5  7  1  0  0  0  0
  2  3  1  0  0  0  0
  2  4  1  0  0  0  0
  2  5  1  0  0  0  0
  1  2  1  0  0  0  0
 26 27  2  0  0  0  0
 26 28  1  0  0  0  0
 23 24  1  0  0  0  0
 23 25  1  0  0  0  0
 20 21  1  0  0  0  0
 20 22  1  0  0  0  0
 20 23  1  0  0  0  0
 17 18  1  0  0  0  0
 17 19  1  0  0  0  0
 17 20  1  0  0  0  0
 14 15  1  0  0  0  0
 14 16  1  0  0  0  0
 14 17  1  0  0  0  0
 11 12  1  0  0  0  0
 11 13  1  0  0  0  0
 11 14  1  0  0  0  0
  9 10  1  0  0  0  0
  9 11  1  0  0  0  0
  9 26  1  0  0  0  0
  7  8  1  0  0  0  0
  7  9  1  0  0  0  0
 30 31  1  0  0  0  0
 30 32  1  0  0  0  0
 30 33  1  0  0  0  0
 28 29  1  0  0  0  0
 28 30  1  0  0  0  0
M  END
$$$$
default_name
  -OEChem-02102213163D

 33 32  0     1  0  0  0  0  0999 V2000
   -3.8420   -3.6918    1.5562 H   0  0  0  0  0  0  0  0  0  0  0  0
   -3.8430   -2.7008    1.1032 C   0  0  0  0  0  0  0  0  0  0  0  0
   -4.5510   -2.0608    1.6242 H   0  0  0  0  0  0  0  0  0  0  0  0
   -4.1140   -2.7798    0.0522 H   0  0  0  0  0  0  0  0  0  0  0  0
   -2.4570   -2.1098    1.2172 C   0  0  0  0  0  0  0  0  0  0  0  0
   -1.5600   -2.7438    1.7572 O   0  0  0  0  0  0  0  0  0  0  0  0
   -2.2870   -0.8898    0.7102 N   0  0  0  0  0  0  0  0  0  0  0  0
   -3.0820   -0.4218    0.2992 H   0  0  0  0  0  0  0  0  0  0  0  0
   -1.0240   -0.1468    0.7262 C   0  0  1  0  0  0  0  0  0  0  0  0
   -0.2680   -0.7367    0.2062 H   0  0  0  0  0  0  0  0  0  0  0  0
   -1.2212    1.1806   -0.0314 C   0  0  0  0  0  0  0  0  0  0  0  0
   -0.2702    1.4652   -0.4863 H   0  0  0  0  0  0  0  0  0  0  0  0
   -1.9502    1.0343   -0.8297 H   0  0  0  0  0  0  0  0  0  0  0  0
   -1.6844    2.3338    0.8725 C   0  0  0  0  0  0  0  0  0  0  0  0
   -0.9527    3.1414    0.8395 H   0  0  0  0  0  0  0  0  0  0  0  0
   -2.6454    2.7072    0.5138 H   0  0  0  0  0  0  0  0  0  0  0  0
   -1.8360    1.8646    2.3239 C   0  0  0  0  0  0  0  0  0  0  0  0
   -2.5599    1.0505    2.3722 H   0  0  0  0  0  0  0  0  0  0  0  0
   -0.8728    1.5126    2.6946 H   0  0  0  0  0  0  0  0  0  0  0  0
   -2.3205    3.0220    3.1950 C   0  0  0  0  0  0  0  0  0  0  0  0
   -1.5901    3.8288    3.1630 H   0  0  0  0  0  0  0  0  0  0  0  0
   -3.2737    3.3864    2.8155 H   0  0  0  0  0  0  0  0  0  0  0  0
   -2.4992    2.6004    4.5891 N   0  0  0  0  0  0  0  0  0  0  0  0
   -2.8055    3.3910    5.1370 H   0  0  0  0  0  0  0  0  0  0  0  0
   -3.1995    1.8736    4.6283 H   0  0  0  0  0  0  0  0  0  0  0  0
   -0.5564    0.0727    2.1744 C   0  0  0  0  0  0  0  0  0  0  0  0
    0.6169   -0.1288    2.4805 O   0  0  0  0  0  0  0  0  0  0  0  0
   -1.4759    0.4743    3.0595 N   0  0  0  0  0  0  0  0  0  0  0  0
   -2.4132    0.6318    2.7275 H   0  0  0  0  0  0  0  0  0  0  0  0
   -1.1971    0.7118    4.4750 C   0  0  0  0  0  0  0  0  0  0  0  0
   -0.3779    1.4272    4.5748 H   0  0  0  0  0  0  0  0  0  0  0  0
   -2.0826    1.1064    4.9754 H   0  0  0  0  0  0  0  0  0  0  0  0
   -0.8992   -0.2240    4.9525 H   0  0  0  0  0  0  0  0  0  0  0  0
  5  6  2  0  0  0  0
  5  7  1  0  0  0  0
  2  3  1  0  0  0  0
  2  4  1  0  0  0  0
  2  5  1  0  0  0  0
  1  2  1  0  0  0  0
 26 27  2  0  0  0  0
 26 28  1  0  0  0  0
 23 24  1  0  0  0  0
 23 25  1  0  0  0  0
 20 21  1  0  0  0  0
 20 22  1  0  0  0  0
 20 23  1  0  0  0  0
 17 18  1  0  0  0  0
 17 19  1  0  0  0  0
 17 20  1  0  0  0  0
 14 15  1  0  0  0  0
 14 16  1  0  0  0  0
 14 17  1  0  0  0  0
 11 12  1  0  0  0  0
 11 13  1  0  0  0  0
 11 14  1  0  0  0  0
  9 10  1  0  0  0  0
  9 11  1  0  0  0  0
  9 26  1  0  0  0  0
  7  8  1  0  0  0  0
  7  9  1  0  0  0  0
 30 31  1  0  0  0  0
 30 32  1  0  0  0  0
 30 33  1  0  0  0  0
 28 29  1  0  0  0  0
 28 30  1  0  0  0  0
M  END
$$$$
default_name
  -OEChem-02102213163D

 33 32  0     1  0  0  0  0  0999 V2000
   -3.8420   -3.6918    1.5562 H   0  0  0  0  0  0  0  0  0  0  0  0
   -3.8430   -2.7008    1.1032 C   0  0  0  0  0  0  0  0  0  0  0  0
   -4.5510   -2.0608    1.6242 H   0  0  0  0  0  0  0  0  0  0  0  0
   -4.1140   -2.7798    0.0522 H   0  0  0  0  0  0  0  0  0  0  0  0
   -2.4570   -2.1098    1.2172 C   0  0  0  0  0  0  0  0  0  0  0  0
   -1.5600   -2.7438    1.7572 O   0  0  0  0  0  0  0  0  0  0  0  0
   -2.2870   -0.8898    0.7102 N   0  0  0  0  0  0  0  0  0  0  0  0
   -3.0820   -0.4218    0.2992 H   0  0  0  0  0  0  0  0  0  0  0  0
   -1.0240   -0.1468    0.7262 C   0  0  1  0  0  0  0  0  0  0  0  0
   -0.2680   -0.7367    0.2062 H   0  0  0  0  0  0  0  0  0  0  0  0
   -1.2212    1.1806   -0.0314 C   0  0  0  0  0  0  0  0  0  0  0  0
   -0.2702    1.4652   -0.4863 H   0  0  0  0  0  0  0  0  0  0  0  0
   -1.9502    1.0343   -0.8297 H   0  0  0  0  0  0  0  0  0  0  0  0
   -1.6844    2.3338    0.8725 C   0  0  0  0  0  0  0  0  0  0  0  0
   -1.1107    3.2321    0.6428 H   0  0  0  0  0  0  0  0  0  0  0  0
   -2.7428    2.5294    0.6907 H   0  0  0  0  0  0  0  0  0  0  0  0
   -1.4831    1.9847    2.3515 C   0  0  0  0  0  0  0  0  0  0  0  0
   -2.0453    1.0827    2.5950 H   0  0  0  0  0  0  0  0  0  0  0  0
   -0.4237    1.8117    2.5432 H   0  0  0  0  0  0  0  0  0  0  0  0
   -1.9738    3.1359    3.2272 C   0  0  0  0  0  0  0  0  0  0  0  0
   -1.4011    4.0334    2.9989 H   0  0  0  0  0  0  0  0  0  0  0  0
   -3.0272    3.3218    3.0242 H   0  0  0  0  0  0  0  0  0  0  0  0
   -1.8172    2.8246    4.6527 N   0  0  0  0  0  0  0  0  0  0  0  0
   -2.1374    3.6101    5.1998 H   0  0  0  0  0  0  0  0  0  0  0  0
   -2.3722    2.0110    4.8770 H   0  0  0  0  0  0  0  0  0  0  0  0
   -0.5564    0.0727    2.1744 C   0  0  0  0  0  0  0  0  0  0  0  0
    0.6169   -0.1288    2.4805 O   0  0  0  0  0  0  0  0  0  0  0  0
   -1.4759    0.4743    3.0595 N   0  0  0  0  0  0  0  0  0  0  0  0
   -2.4132    0.6318    2.7275 H   0  0  0  0  0  0  0  0  0  0  0  0
   -1.1971    0.7118    4.4750 C   0  0  0  0  0  0  0  0  0  0  0  0
   -0.3779    1.4272    4.5748 H   0  0  0  0  0  0  0  0  0  0  0  0
   -2.0826    1.1064    4.9754 H   0  0  0  0  0  0  0  0  0  0  0  0
   -0.8992   -0.2240    4.9525 H   0  0  0  0  0  0  0  0  0  0  0  0
  5  6  2  0  0  0  0
  5  7  1  0  0  0  0
  2  3  1  0  0  0  0
  2  4  1  0  0  0  0
  2  5  1  0  0  0  0
  1  2  1  0  0  0  0
 26 27  2  0  0  0  0
 26 28  1  0  0  0  0
 23 24  1  0  0  0  0
 23 25  1  0  0  0  0
 20 21  1  0  0  0  0
 20 22  1  0  0  0  0
 20 23  1  0  0  0  0
 17 18  1  0  0  0  0
 17 19  1  0  0  0  0
 17 20  1  0  0  0  0
 14 15  1  0  0  0  0
 14 16  1  0  0  0  0
 14 17  1  0  0  0  0
 11 12  1  0  0  0  0
 11 13  1  0  0  0  0
 11 14  1  0  0  0  0
  9 10  1  0  0  0  0
  9 11  1  0  0  0  0
  9 26  1  0  0  0  0
  7  8  1  0  0  0  0
  7  9  1  0  0  0  0
 30 31  1  0  0  0  0
 30 32  1  0  0  0  0
 30 33  1  0  0  0  0
 28 29  1  0  0  0  0
 28 30  1  0  0  0  0
M  END
$$$$
default_name
  -OEChem-02102213163D

 33 32  0     1  0  0  0  0  0999 V2000
   -3.8420   -3.6918    1.5562 H   0  0  0  0  0  0  0  0  0  0  0  0
   -3.8430   -2.7008    1.1032 C   0  0  0  0  0  0  0  0  0  0  0  0
   -4.5510   -2.0608    1.6242 H   0  0  0  0  0  0  0  0  0  0  0  0
   -4.1140   -2.7798    0.0522 H   0  0  0  0  0  0  0  0  0  0  0  0
   -2.4570   -2.1098    1.2172 C   0  0  0  0  0  0  0  0  0  0  0  0
   -1.5600   -2.7438    1.7572 O   0  0  0  0  0  0  0  0  0  0  0  0
   -2.2870   -0.8898    0.7102 N   0  0  0  0  0  0  0  0  0  0  0  0
   -3.0820   -0.4218    0.2992 H   0  0  0  0  0  0  0  0  0  0  0  0
   -1.0240   -0.1468    0.7262 C   0  0  1  0  0  0  0  0  0  0  0  0
   -0.2680   -0.7367    0.2062 H   0  0  0  0  0  0  0  0  0  0  0  0
   -1.2212    1.1806   -0.0314 C   0  0  0  0  0  0  0  0  0  0  0  0
   -0.2702    1.4652   -0.4863 H   0  0  0  0  0  0  0  0  0  0  0  0
   -1.9502    1.0343   -0.8297 H   0  0  0  0  0  0  0  0  0  0  0  0
   -1.6844    2.3338    0.8725 C   0  0  0  0  0  0  0  0  0  0  0  0
   -1.3154    3.2802    0.4764 H   0  0  0  0  0  0  0  0  0  0  0  0
   -2.7755    2.3566    0.8944 H   0  0  0  0  0  0  0  0  0  0  0  0
   -1.1552    2.1567    2.3002 C   0  0  0  0  0  0  0  0  0  0  0  0
   -1.5099    1.2094    2.7076 H   0  0  0  0  0  0  0  0  0  0  0  0
   -0.0649    2.1572    2.2864 H   0  0  0  0  0  0  0  0  0  0  0  0
   -1.6501    3.3013    3.1822 C   0  0  0  0  0  0  0  0  0  0  0  0
   -1.2816    4.2469    2.7877 H   0  0  0  0  0  0  0  0  0  0  0  0
   -2.7388    3.3133    3.1829 H   0  0  0  0  0  0  0  0  0  0  0  0
   -1.1802    3.1499    4.5641 N   0  0  0  0  0  0  0  0  0  0  0  0
   -1.5132    3.9284    5.1137 H   0  0  0  0  0  0  0  0  0  0  0  0
   -1.5457    2.2891    4.9459 H   0  0  0  0  0  0  0  0  0  0  0  0
   -0.5564    0.0727    2.1744 C   0  0  0  0  0  0  0  0  0  0  0  0
    0.6169   -0.1288    2.4805 O   0  0  0  0  0  0  0  0  0  0  0  0
   -1.4759    0.4743    3.0595 N   0  0  0  0  0  0  0  0  0  0  0  0
   -2.4132    0.6318    2.7275 H   0  0  0  0  0  0  0  0  0  0  0  0
   -1.1971    0.7118    4.4750 C   0  0  0  0  0  0  0  0  0  0  0  0
   -0.3779    1.4272    4.5748 H   0  0  0  0  0  0  0  0  0  0  0  0
   -2.0826    1.1064    4.9754 H   0  0  0  0  0  0  0  0  0  0  0  0
   -0.8992   -0.2240    4.9525 H   0  0  0  0  0  0  0  0  0  0  0  0
  5  6  2  0  0  0  0
  5  7  1  0  0  0  0
  2  3  1  0  0  0  0
  2  4  1  0  0  0  0
  2  5  1  0  0  0  0
  1  2  1  0  0  0  0
 26 27  2  0  0  0  0
 26 28  1  0  0  0  0
 23 24  1  0  0  0  0
 23 25  1  0  0  0  0
 20 21  1  0  0  0  0
 20 22  1  0  0  0  0
 20 23  1  0  0  0  0
 17 18  1  0  0  0  0
 17 19  1  0  0  0  0
 17 20  1  0  0  0  0
 14 15  1  0  0  0  0
 14 16  1  0  0  0  0
 14 17  1  0  0  0  0
 11 12  1  0  0  0  0
 11 13  1  0  0  0  0
 11 14  1  0  0  0  0
  9 10  1  0  0  0  0
  9 11  1  0  0  0  0
  9 26  1  0  0  0  0
  7  8  1  0  0  0  0
  7  9  1  0  0  0  0
 30 31  1  0  0  0  0
 30 32  1  0  0  0  0
 30 33  1  0  0  0  0
 28 29  1  0  0  0  0
 28 30  1  0  0  0  0
M  END
$$$$
default_name
  -OEChem-02102213163D

 33 32  0     1  0  0  0  0  0999 V2000
   -3.8420   -3.6918    1.5562 H   0  0  0  0  0  0  0  0  0  0  0  0
   -3.8430   -2.7008    1.1032 C   0  0  0  0  0  0  0  0  0  0  0  0
   -4.5510   -2.0608    1.6242 H   0  0  0  0  0  0  0  0  0  0  0  0
   -4.1140   -2.7798    0.0522 H   0  0  0  0  0  0  0  0  0  0  0  0
   -2.4570   -2.1098    1.2172 C   0  0  0  0  0  0  0  0  0  0  0  0
   -1.5600   -2.7438    1.7572 O   0  0  0  0  0  0  0  0  0  0  0  0
   -2.2870   -0.8898    0.7102 N   0  0  0  0  0  0  0  0  0  0  0  0
   -3.0820   -0.4218    0.2992 H   0  0  0  0  0  0  0  0  0  0  0  0
   -1.0240   -0.1468    0.7262 C   0  0  1  0  0  0  0  0  0  0  0  0
   -0.2680   -0.7367    0.2062 H   0  0  0  0  0  0  0  0  0  0  0  0
   -1.2212    1.1806   -0.0314 C   0  0  0  0  0  0  0  0  0  0  0  0
   -0.2702    1.4652   -0.4863 H   0  0  0  0  0  0  0  0  0  0  0  0
   -1.9502    1.0343   -0.8297 H   0  0  0  0  0  0  0  0  0  0  0  0
   -1.6844    2.3338    0.8725 C   0  0  0  0  0  0  0  0  0  0  0  0
   -1.5528    3.2826    0.3518 H   0  0  0  0  0  0  0  0  0  0  0  0
   -2.7412    2.2006    1.1110 H   0  0  0  0  0  0  0  0  0  0  0  0
   -0.8746    2.3687    2.1735 C   0  0  0  0  0  0  0  0  0  0  0  0
   -0.9901    1.4222    2.7026 H   0  0  0  0  0  0  0  0  0  0  0  0
    0.1792    2.5255    1.9417 H   0  0  0  0  0  0  0  0  0  0  0  0
   -1.3713    3.5068    3.0629 C   0  0  0  0  0  0  0  0  0  0  0  0
   -1.2397    4.4549    2.5439 H   0  0  0  0  0  0  0  0  0  0  0  0
   -2.4280    3.3613    3.2808 H   0  0  0  0  0  0  0  0  0  0  0  0
   -0.6317    3.5542    4.3295 N   0  0  0  0  0  0  0  0  0  0  0  0
   -0.9755    4.3241    4.8845 H   0  0  0  0  0  0  0  0  0  0  0  0
   -0.7763    2.6889    4.8301 H   0  0  0  0  0  0  0  0  0  0  0  0
   -0.5564    0.0727    2.1744 C   0  0  0  0  0  0  0  0  0  0  0  0
    0.6169   -0.1288    2.4805 O   0  0  0  0  0  0  0  0  0  0  0  0
   -1.4759    0.4743    3.0595 N   0  0  0  0  0  0  0  0  0  0  0  0
   -2.4132    0.6318    2.7275 H   0  0  0  0  0  0  0  0  0  0  0  0
   -1.1971    0.7118    4.4750 C   0  0  0  0  0  0  0  0  0  0  0  0
   -0.3779    1.4272    4.5748 H   0  0  0  0  0  0  0  0  0  0  0  0
   -2.0826    1.1064    4.9754 H   0  0  0  0  0  0  0  0  0  0  0  0
   -0.8992   -0.2240    4.9525 H   0  0  0  0  0  0  0  0  0  0  0  0
  5  6  2  0  0  0  0
  5  7  1  0  0  0  0
  2  3  1  0  0  0  0
  2  4  1  0  0  0  0
  2  5  1  0  0  0  0
  1  2  1  0  0  0  0
 26 27  2  0  0  0  0
 26 28  1  0  0  0  0
 23 24  1  0  0  0  0
 23 25  1  0  0  0  0
 20 21  1  0  0  0  0
 20 22  1  0  0  0  0
 20 23  1  0  0  0  0
 17 18  1  0  0  0  0
 17 19  1  0  0  0  0
 17 20  1  0  0  0  0
 14 15  1  0  0  0  0
 14 16  1  0  0  0  0
 14 17  1  0  0  0  0
 11 12  1  0  0  0  0
 11 13  1  0  0  0  0
 11 14  1  0  0  0  0
  9 10  1  0  0  0  0
  9 11  1  0  0  0  0
  9 26  1  0  0  0  0
  7  8  1  0  0  0  0
  7  9  1  0  0  0  0
 30 31  1  0  0  0  0
 30 32  1  0  0  0  0
 30 33  1  0  0  0  0
 28 29  1  0  0  0  0
 28 30  1  0  0  0  0
M  END
$$$$
default_name
  -OEChem-02102213163D

 33 32  0     1  0  0  0  0  0999 V2000
   -3.8420   -3.6918    1.5562 H   0  0  0  0  0  0  0  0  0  0  0  0
   -3.8430   -2.7008    1.1032 C   0  0  0  0  0  0  0  0  0  0  0  0
   -4.5510   -2.0608    1.6242 H   0  0  0  0  0  0  0  0  0  0  0  0
   -4.1140   -2.7798    0.0522 H   0  0  0  0  0  0  0  0  0  0  0  0
   -2.4570   -2.1098    1.2172 C   0  0  0  0  0  0  0  0  0  0  0  0
   -1.5600   -2.7438    1.7572 O   0  0  0  0  0  0  0  0  0  0  0  0
   -2.2870   -0.8898    0.7102 N   0  0  0  0  0  0  0  0  0  0  0  0
   -3.0820   -0.4218    0.2992 H   0  0  0  0  0  0  0  0  0  0  0  0
   -1.0240   -0.1468    0.7262 C   0  0  1  0  0  0  0  0  0  0  0  0
   -0.2680   -0.7367    0.2062 H   0  0  0  0  0  0  0  0  0  0  0  0
   -1.2212    1.1806   -0.0314 C   0  0  0  0  0  0  0  0  0  0  0  0
   -0.2702    1.4652   -0.4863 H   0  0  0  0  0  0  0  0  0  0  0  0
   -1.9502    1.0343   -0.8297 H   0  0  0  0  0  0  0  0  0  0  0  0
   -1.6844    2.3338    0.8725 C   0  0  0  0  0  0  0  0  0  0  0  0
   -1.8066    3.2391    0.2772 H   0  0  0  0  0  0  0  0  0  0  0  0
   -2.6423    2.0720    1.3257 H   0  0  0  0  0  0  0  0  0  0  0  0
   -0.6605    2.6063    1.9802 C   0  0  0  0  0  0  0  0  0  0  0  0
   -0.5214    1.7065    2.5802 H   0  0  0  0  0  0  0  0  0  0  0  0
    0.2920    2.8915    1.5326 H   0  0  0  0  0  0  0  0  0  0  0  0
   -1.1564    3.7385    2.8775 C   0  0  0  0  0  0  0  0  0  0  0  0
   -1.2783    4.6432    2.2840 H   0  0  0  0  0  0  0  0  0  0  0  0
   -2.1161    3.4627    3.3114 H   0  0  0  0  0  0  0  0  0  0  0  0
   -0.2090    4.0099    3.9647 N   0  0  0  0  0  0  0  0  0  0  0  0
   -0.5608    4.7703    4.5277 H   0  0  0  0  0  0  0  0  0  0  0  0
   -0.1165    3.1832    4.5377 H   0  0  0  0  0  0  0  0  0  0  0  0
   -0.5564    0.0727    2.1744 C   0  0  0  0  0  0  0  0  0  0  0  0
    0.6169   -0.1288    2.4805 O   0  0  0  0  0  0  0  0  0  0  0  0
   -1.4759    0.4743    3.0595 N   0  0  0  0  0  0  0  0  0  0  0  0
   -2.4132    0.6318    2.7275 H   0  0  0  0  0  0  0  0  0  0  0  0
   -1.1971    0.7118    4.4750 C   0  0  0  0  0  0  0  0  0  0  0  0
   -0.3779    1.4272    4.5748 H   0  0  0  0  0  0  0  0  0  0  0  0
   -2.0826    1.1064    4.9754 H   0  0  0  0  0  0  0  0  0  0  0  0
   -0.8992   -0.2240    4.9525 H   0  0  0  0  0  0  0  0  0  0  0  0
  5  6  2  0  0  0  0
  5  7  1  0  0  0  0
  2  3  1  0  0  0  0
  2  4  1  0  0  0  0
  2  5  1  0  0  0  0
  1  2  1  0  0  0  0
 26 27  2  0  0  0  0
 26 28  1  0  0  0  0
 23 24  1  0  0  0  0
 23 25  1  0  0  0  0
 20 21  1  0  0  0  0
 20 22  1  0  0  0  0
 20 23  1  0  0  0  0
 17 18  1  0  0  0  0
 17 19  1  0  0  0  0
 17 20  1  0  0  0  0
 14 15  1  0  0  0  0
 14 16  1  0  0  0  0
 14 17  1  0  0  0  0
 11 12  1  0  0  0  0
 11 13  1  0  0  0  0
 11 14  1  0  0  0  0
  9 10  1  0  0  0  0
  9 11  1  0  0  0  0
  9 26  1  0  0  0  0
  7  8  1  0  0  0  0
  7  9  1  0  0  0  0
 30 31  1  0  0  0  0
 30 32  1  0  0  0  0
 30 33  1  0  0  0  0
 28 29  1  0  0  0  0
 28 30  1  0  0  0  0
M  END
$$$$
default_name
  -OEChem-02102213163D

 33 32  0     1  0  0  0  0  0999 V2000
   -3.8420   -3.6918    1.5562 H   0  0  0  0  0  0  0  0  0  0  0  0
   -3.8430   -2.7008    1.1032 C   0  0  0  0  0  0  0  0  0  0  0  0
   -4.5510   -2.0608    1.6242 H   0  0  0  0  0  0  0  0  0  0  0  0
   -4.1140   -2.7798    0.0522 H   0  0  0  0  0  0  0  0  0  0  0  0
   -2.4570   -2.1098    1.2172 C   0  0  0  0  0  0  0  0  0  0  0  0
   -1.5600   -2.7438    1.7572 O   0  0  0  0  0  0  0  0  0  0  0  0
   -2.2870   -0.8898    0.7102 N   0  0  0  0  0  0  0  0  0  0  0  0
   -3.0820   -0.4218    0.2992 H   0  0  0  0  0  0  0  0  0  0  0  0
   -1.0240   -0.1468    0.7262 C   0  0  1  0  0  0  0  0  0  0  0  0
   -0.2680   -0.7367    0.2062 H   0  0  0  0  0  0  0  0  0  0  0  0
   -1.2212    1.1806   -0.0314 C   0  0  0  0  0  0  0  0  0  0  0  0
   -0.2702    1.4652   -0.4863 H   0  0  0  0  0  0  0  0  0  0  0  0
   -1.9502    1.0343   -0.8297 H   0  0  0  0  0  0  0  0  0  0  0  0
   -1.6844    2.3338    0.8725 C   0  0  0  0  0  0  0  0  0  0  0  0
   -2.0596    3.1525    0.2579 H   0  0  0  0  0  0  0  0  0  0  0  0
   -2.4855    1.9797    1.5239 H   0  0  0  0  0  0  0  0  0  0  0  0
   -0.5273    2.8533    1.7332 C   0  0  0  0  0  0  0  0  0  0  0  0
   -0.1358    2.0428    2.3487 H   0  0  0  0  0  0  0  0  0  0  0  0
    0.2658    3.2303    1.0869 H   0  0  0  0  0  0  0  0  0  0  0  0
   -1.0202    3.9805    2.6386 C   0  0  0  0  0  0  0  0  0  0  0  0
   -1.3946    4.7989    2.0257 H   0  0  0  0  0  0  0  0  0  0  0  0
   -1.8244    3.6105    3.2724 H   0  0  0  0  0  0  0  0  0  0  0  0
    0.0591    4.4860    3.4948 N   0  0  0  0  0  0  0  0  0  0  0  0
   -0.2975    5.2366    4.0678 H   0  0  0  0  0  0  0  0  0  0  0  0
    0.3887    3.7382    4.0885 H   0  0  0  0  0  0  0  0  0  0  0  0
   -0.5564    0.0727    2.1744 C   0  0  0  0  0  0  0  0  0  0  0  0
    0.6169   -0.1288    2.4805 O   0  0  0  0  0  0  0  0  0  0  0  0
   -1.4759    0.4743    3.0595 N   0  0  0  0  0  0  0  0  0  0  0  0
   -2.4132    0.6318    2.7275 H   0  0  0  0  0  0  0  0  0  0  0  0
   -1.1971    0.7118    4.4750 C   0  0  0  0  0  0  0  0  0  0  0  0
   -0.3779    1.4272    4.5748 H   0  0  0  0  0  0  0  0  0  0  0  0
   -2.0826    1.1064    4.9754 H   0  0  0  0  0  0  0  0  0  0  0  0
   -0.8992   -0.2240    4.9525 H   0  0  0  0  0  0  0  0  0  0  0  0
  5  6  2  0  0  0  0
  5  7  1  0  0  0  0
  2  3  1  0  0  0  0
  2  4  1  0  0  0  0
  2  5  1  0  0  0  0
  1  2  1  0  0  0  0
 26 27  2  0  0  0  0
 26 28  1  0  0  0  0
 23 24  1  0  0  0  0
 23 25  1  0  0  0  0
 20 21  1  0  0  0  0
 20 22  1  0  0  0  0
 20 23  1  0  0  0  0
 17 18  1  0  0  0  0
 17 19  1  0  0  0  0
 17 20  1  0  0  0  0
 14 15  1  0  0  0  0
 14 16  1  0  0  0  0
 14 17  1  0  0  0  0
 11 12  1  0  0  0  0
 11 13  1  0  0  0  0
 11 14  1  0  0  0  0
  9 10  1  0  0  0  0
  9 11  1  0  0  0  0
  9 26  1  0  0  0  0
  7  8  1  0  0  0  0
  7  9  1  0  0  0  0
 30 31  1  0  0  0  0
 30 32  1  0  0  0  0
 30 33  1  0  0  0  0
 28 29  1  0  0  0  0
 28 30  1  0  0  0  0
M  END
$$$$
default_name
  -OEChem-02102213163D

 33 32  0     1  0  0  0  0  0999 V2000
   -3.8420   -3.6918    1.5562 H   0  0  0  0  0  0  0  0  0  0  0  0
   -3.8430   -2.7008    1.1032 C   0  0  0  0  0  0  0  0  0  0  0  0
   -4.5510   -2.0608    1.6242 H   0  0  0  0  0  0  0  0  0  0  0  0
   -4.1140   -2.7798    0.0522 H   0  0  0  0  0  0  0  0  0  0  0  0
   -2.4570   -2.1098    1.2172 C   0  0  0  0  0  0  0  0  0  0  0  0
   -1.5600   -2.7438    1.7572 O   0  0  0  0  0  0  0  0  0  0  0  0
   -2.2870   -0.8898    0.7102 N   0  0  0  0  0  0  0  0  0  0  0  0
   -3.0820   -0.4218    0.2992 H   0  0  0  0  0  0  0  0  0  0  0  0
   -1.0240   -0.1468    0.7262 C   0  0  1  0  0  0  0  0  0  0  0  0
   -0.2680   -0.7367    0.2062 H   0  0  0  0  0  0  0  0  0  0  0  0
   -1.2212    1.1806   -0.0314 C   0  0  0  0  0  0  0  0  0  0  0  0
   -0.2702    1.4652   -0.4863 H   0  0  0  0  0  0  0  0  0  0  0  0
   -1.9502    1.0343   -0.8297 H   0  0  0  0  0  0  0  0  0  0  0  0
   -1.6844    2.3338    0.8725 C   0  0  0  0  0  0  0  0  0  0  0  0
   -2.2946    3.0289    0.2952 H   0  0  0  0  0  0  0  0  0  0  0  0
   -2.2815    1.9298    1.6921 H   0  0  0  0  0  0  0  0  0  0  0  0
   -0.4843    3.0929    1.4496 C   0  0  0  0  0  0  0  0  0  0  0  0
    0.1406    2.4084    2.0240 H   0  0  0  0  0  0  0  0  0  0  0  0
    0.1024    3.5188    0.6351 H   0  0  0  0  0  0  0  0  0  0  0  0
   -0.9718    4.2164    2.3625 C   0  0  0  0  0  0  0  0  0  0  0  0
   -1.5809    4.9114    1.7867 H   0  0  0  0  0  0  0  0  0  0  0  0
   -1.5727    3.7946    3.1665 H   0  0  0  0  0  0  0  0  0  0  0  0
    0.1543    4.9500    2.9516 N   0  0  0  0  0  0  0  0  0  0  0  0
   -0.2035    5.6913    3.5360 H   0  0  0  0  0  0  0  0  0  0  0  0
    0.7051    4.3163    3.5132 H   0  0  0  0  0  0  0  0  0  0  0  0
   -0.5564    0.0727    2.1744 C   0  0  0  0  0  0  0  0  0  0  0  0
    0.6169   -0.1288    2.4805 O   0  0  0  0  0  0  0  0  0  0  0  0
   -1.4759    0.4743    3.0595 N   0  0  0  0  0  0  0  0  0  0  0  0
   -2.4132    0.6318    2.7275 H   0  0  0  0  0  0  0  0  0  0  0  0
   -1.1971    0.7118    4.4750 C   0  0  0  0  0  0  0  0  0  0  0  0
   -0.3779    1.4272    4.5748 H   0  0  0  0  0  0  0  0  0  0  0  0
   -2.0826    1.1064    4.9754 H   0  0  0  0  0  0  0  0  0  0  0  0
   -0.8992   -0.2240    4.9525 H   0  0  0  0  0  0  0  0  0  0  0  0
  5  6  2  0  0  0  0
  5  7  1  0  0  0  0
  2  3  1  0  0  0  0
  2  4  1  0  0  0  0
  2  5  1  0  0  0  0
  1  2  1  0  0  0  0
 26 27  2  0  0  0  0
 26 28  1  0  0  0  0
 23 24  1  0  0  0  0
 23 25  1  0  0  0  0
 20 21  1  0  0  0  0
 20 22  1  0  0  0  0
 20 23  1  0  0  0  0
 17 18  1  0  0  0  0
 17 19  1  0  0  0  0
 17 20  1  0  0  0  0
 14 15  1  0  0  0  0
 14 16  1  0  0  0  0
 14 17  1  0  0  0  0
 11 12  1  0  0  0  0
 11 13  1  0  0  0  0
 11 14  1  0  0  0  0
  9 10  1  0  0  0  0
  9 11  1  0  0  0  0
  9 26  1  0  0  0  0
  7  8  1  0  0  0  0
  7  9  1  0  0  0  0
 30 31  1  0  0  0  0
 30 32  1  0  0  0  0
 30 33  1  0  0  0  0
 28 29  1  0  0  0  0
 28 30  1  0  0  0  0
M  END
$$$$
default_name
  -OEChem-02102213163D

 33 32  0     1  0  0  0  0  0999 V2000
   -3.8420   -3.6918    1.5562 H   0  0  0  0  0  0  0  0  0  0  0  0
   -3.8430   -2.7008    1.1032 C   0  0  0  0  0  0  0  0  0  0  0  0
   -4.5510   -2.0608    1.6242 H   0  0  0  0  0  0  0  0  0  0  0  0
   -4.1140   -2.7798    0.0522 H   0  0  0  0  0  0  0  0  0  0  0  0
   -2.4570   -2.1098    1.2172 C   0  0  0  0  0  0  0  0  0  0  0  0
   -1.5600   -2.7438    1.7572 O   0  0  0  0  0  0  0  0  0  0  0  0
   -2.2870   -0.8898    0.7102 N   0  0  0  0  0  0  0  0  0  0  0  0
   -3.0820   -0.4218    0.2992 H   0  0  0  0  0  0  0  0  0  0  0  0
   -1.0240   -0.1468    0.7262 C   0  0  1  0  0  0  0  0  0  0  0  0
   -0.2680   -0.7367    0.2062 H   0  0  0  0  0  0  0  0  0  0  0  0
   -1.2212    1.1806   -0.0314 C   0  0  0  0  0  0  0  0  0  0  0  0
   -0.2702    1.4652   -0.4863 H   0  0  0  0  0  0  0  0  0  0  0  0
   -1.9502    1.0343   -0.8297 H   0  0  0  0  0  0  0  0  0  0  0  0
   -1.6844    2.3338    0.8725 C   0  0  0  0  0  0  0  0  0  0  0  0
   -2.4955    2.8767    0.3865 H   0  0  0  0  0  0  0  0  0  0  0  0
   -2.0441    1.9258    1.8189 H   0  0  0  0  0  0  0  0  0  0  0  0
   -0.5343    3.3088    1.1486 C   0  0  0  0  0  0  0  0  0  0  0  0
    0.2888    2.7782    1.6282 H   0  0  0  0  0  0  0  0  0  0  0  0
   -0.1872    3.7373    0.2079 H   0  0  0  0  0  0  0  0  0  0  0  0
   -1.0146    4.4300    2.0680 C   0  0  0  0  0  0  0  0  0  0  0  0
   -1.8244    4.9731    1.5833 H   0  0  0  0  0  0  0  0  0  0  0  0
   -1.3781    4.0025    3.0010 H   0  0  0  0  0  0  0  0  0  0  0  0
    0.0701    5.3703    2.3723 N   0  0  0  0  0  0  0  0  0  0  0  0
   -0.2852    6.1032    2.9686 H   0  0  0  0  0  0  0  0  0  0  0  0
    0.8109    4.8779    2.8510 H   0  0  0  0  0  0  0  0  0  0  0  0
   -0.5564    0.0727    2.1744 C   0  0  0  0  0  0  0  0  0  0  0  0
    0.6169   -0.1288    2.4805 O   0  0  0  0  0  0  0  0  0  0  0  0
   -1.4759    0.4743    3.0595 N   0  0  0  0  0  0  0  0  0  0  0  0
   -2.4132    0.6318    2.7275 H   0  0  0  0  0  0  0  0  0  0  0  0
   -1.1971    0.7118    4.4750 C   0  0  0  0  0  0  0  0  0  0  0  0
   -0.3779    1.4272    4.5748 H   0  0  0  0  0  0  0  0  0  0  0  0
   -2.0826    1.1064    4.9754 H   0  0  0  0  0  0  0  0  0  0  0  0
   -0.8992   -0.2240    4.9525 H   0  0  0  0  0  0  0  0  0  0  0  0
  5  6  2  0  0  0  0
  5  7  1  0  0  0  0
  2  3  1  0  0  0  0
  2  4  1  0  0  0  0
  2  5  1  0  0  0  0
  1  2  1  0  0  0  0
 26 27  2  0  0  0  0
 26 28  1  0  0  0  0
 23 24  1  0  0  0  0
 23 25  1  0  0  0  0
 20 21  1  0  0  0  0
 20 22  1  0  0  0  0
 20 23  1  0  0  0  0
 17 18  1  0  0  0  0
 17 19  1  0  0  0  0
 17 20  1  0  0  0  0
 14 15  1  0  0  0  0
 14 16  1  0  0  0  0
 14 17  1  0  0  0  0
 11 12  1  0  0  0  0
 11 13  1  0  0  0  0
 11 14  1  0  0  0  0
  9 10  1  0  0  0  0
  9 11  1  0  0  0  0
  9 26  1  0  0  0  0
  7  8  1  0  0  0  0
  7  9  1  0  0  0  0
 30 31  1  0  0  0  0
 30 32  1  0  0  0  0
 30 33  1  0  0  0  0
 28 29  1  0  0  0  0
 28 30  1  0  0  0  0
M  END
$$$$
default_name
  -OEChem-02102213163D

 33 32  0     1  0  0  0  0  0999 V2000
   -3.8420   -3.6918    1.5562 H   0  0  0  0  0  0  0  0  0  0  0  0
   -3.8430   -2.7008    1.1032 C   0  0  0  0  0  0  0  0  0  0  0  0
   -4.5510   -2.0608    1.6242 H   0  0  0  0  0  0  0  0  0  0  0  0
   -4.1140   -2.7798    0.0522 H   0  0  0  0  0  0  0  0  0  0  0  0
   -2.4570   -2.1098    1.2172 C   0  0  0  0  0  0  0  0  0  0  0  0
   -1.5600   -2.7438    1.7572 O   0  0  0  0  0  0  0  0  0  0  0  0
   -2.2870   -0.8898    0.7102 N   0  0  0  0  0  0  0  0  0  0  0  0
   -3.0820   -0.4218    0.2992 H   0  0  0  0  0  0  0  0  0  0  0  0
   -1.0240   -0.1468    0.7262 C   0  0  1  0  0  0  0  0  0  0  0  0
   -0.2680   -0.7367    0.2062 H   0  0  0  0  0  0  0  0  0  0  0  0
   -1.2212    1.1806   -0.0314 C   0  0  0  0  0  0  0  0  0  0  0  0
   -0.2702    1.4652   -0.4863 H   0  0  0  0  0  0  0  0  0  0  0  0
   -1.9502    1.0343   -0.8297 H   0  0  0  0  0  0  0  0  0  0  0  0
   -1.6844    2.3338    0.8725 C   0  0  0  0  0  0  0  0  0  0  0  0
   -2.6487    2.7061    0.5255 H   0  0  0  0  0  0  0  0  0  0  0  0
   -1.7896    1.9679    1.8955 H   0  0  0  0  0  0  0  0  0  0  0  0
   -0.6739    3.4862    0.8507 C   0  0  0  0  0  0  0  0  0  0  0  0
    0.2988    3.1271    1.1882 H   0  0  0  0  0  0  0  0  0  0  0  0
   -0.5832    3.8710   -0.1655 H   0  0  0  0  0  0  0  0  0  0  0  0
   -1.1457    4.6069    1.7752 C   0  0  0  0  0  0  0  0  0  0  0  0
   -2.1084    4.9797    1.4292 H   0  0  0  0  0  0  0  0  0  0  0  0
   -1.2540    4.2200    2.7871 H   0  0  0  0  0  0  0  0  0  0  0  0
   -0.1877    5.7183    1.7962 N   0  0  0  0  0  0  0  0  0  0  0  0
   -0.5371    6.4444    2.4042 H   0  0  0  0  0  0  0  0  0  0  0  0
    0.6989    5.3848    2.1469 H   0  0  0  0  0  0  0  0  0  0  0  0
   -0.5564    0.0727    2.1744 C   0  0  0  0  0  0  0  0  0  0  0  0
    0.6169   -0.1288    2.4805 O   0  0  0  0  0  0  0  0  0  0  0  0
   -1.4759    0.4743    3.0595 N   0  0  0  0  0  0  0  0  0  0  0  0
   -2.4132    0.6318    2.7275 H   0  0  0  0  0  0  0  0  0  0  0  0
   -1.1971    0.7118    4.4750 C   0  0  0  0  0  0  0  0  0  0  0  0
   -0.3779    1.4272    4.5748 H   0  0  0  0  0  0  0  0  0  0  0  0
   -2.0826    1.1064    4.9754 H   0  0  0  0  0  0  0  0  0  0  0  0
   -0.8992   -0.2240    4.9525 H   0  0  0  0  0  0  0  0  0  0  0  0
  5  6  2  0  0  0  0
  5  7  1  0  0  0  0
  2  3  1  0  0  0  0
  2  4  1  0  0  0  0
  2  5  1  0  0  0  0
  1  2  1  0  0  0  0
 26 27  2  0  0  0  0
 26 28  1  0  0  0  0
 23 24  1  0  0  0  0
 23 25  1  0  0  0  0
 20 21  1  0  0  0  0
 20 22  1  0  0  0  0
 20 23  1  0  0  0  0
 17 18  1  0  0  0  0
 17 19  1  0  0  0  0
 17 20  1  0  0  0  0
 14 15  1  0  0  0  0
 14 16  1  0  0  0  0
 14 17  1  0  0  0  0
 11 12  1  0  0  0  0
 11 13  1  0  0  0  0
 11 14  1  0  0  0  0
  9 10  1  0  0  0  0
  9 11  1  0  0  0  0
  9 26  1  0  0  0  0
  7  8  1  0  0  0  0
  7  9  1  0  0  0  0
 30 31  1  0  0  0  0
 30 32  1  0  0  0  0
 30 33  1  0  0  0  0
 28 29  1  0  0  0  0
 28 30  1  0  0  0  0
M  END
$$$$
default_name
  -OEChem-02102213163D

 33 32  0     1  0  0  0  0  0999 V2000
   -3.8420   -3.6918    1.5562 H   0  0  0  0  0  0  0  0  0  0  0  0
   -3.8430   -2.7008    1.1032 C   0  0  0  0  0  0  0  0  0  0  0  0
   -4.5510   -2.0608    1.6242 H   0  0  0  0  0  0  0  0  0  0  0  0
   -4.1140   -2.7798    0.0522 H   0  0  0  0  0  0  0  0  0  0  0  0
   -2.4570   -2.1098    1.2172 C   0  0  0  0  0  0  0  0  0  0  0  0
   -1.5600   -2.7438    1.7572 O   0  0  0  0  0  0  0  0  0  0  0  0
   -2.2870   -0.8898    0.7102 N   0  0  0  0  0  0  0  0  0  0  0  0
   -3.0820   -0.4218    0.2992 H   0  0  0  0  0  0  0  0  0  0  0  0
   -1.0240   -0.1468    0.7262 C   0  0  1  0  0  0  0  0  0  0  0  0
   -0.2680   -0.7367    0.2062 H   0  0  0  0  0  0  0  0  0  0  0  0
   -1.2212    1.1806   -0.0314 C   0  0  0  0  0  0  0  0  0  0  0  0
   -0.2702    1.4652   -0.4863 H   0  0  0  0  0  0  0  0  0  0  0  0
   -1.9502    1.0343   -0.8297 H   0  0  0  0  0  0  0  0  0  0  0  0
   -1.6844    2.3338    0.8725 C   0  0  0  0  0  0  0  0  0  0  0  0
   -2.7437    2.5289    0.7029 H   0  0  0  0  0  0  0  0  0  0  0  0
   -1.5353    2.0534    1.9168 H   0  0  0  0  0  0  0  0  0  0  0  0
   -0.8937    3.6131    0.5762 C   0  0  0  0  0  0  0  0  0  0  0  0
    0.1699    3.4313    0.7340 H   0  0  0  0  0  0  0  0  0  0  0  0
   -1.0585    3.9106   -0.4597 H   0  0  0  0  0  0  0  0  0  0  0  0
   -1.3561    4.7349    1.5040 C   0  0  0  0  0  0  0  0  0  0  0  0
   -2.4138    4.9308    1.3350 H   0  0  0  0  0  0  0  0  0  0  0  0
   -1.2087    4.4323    2.5394 H   0  0  0  0  0  0  0  0  0  0  0  0
   -0.6016    5.9702    1.2628 N   0  0  0  0  0  0  0  0  0  0  0  0
   -0.9419    6.6916    1.8814 H   0  0  0  0  0  0  0  0  0  0  0  0
    0.3769    5.8025    1.4491 H   0  0  0  0  0  0  0  0  0  0  0  0
   -0.5564    0.0727    2.1744 C   0  0  0  0  0  0  0  0  0  0  0  0
    0.6169   -0.1288    2.4805 O   0  0  0  0  0  0  0  0  0  0  0  0
   -1.4759    0.4743    3.0595 N   0  0  0  0  0  0  0  0  0  0  0  0
   -2.4132    0.6318    2.7275 H   0  0  0  0  0  0  0  0  0  0  0  0
   -1.1971    0.7118    4.4750 C   0  0  0  0  0  0  0  0  0  0  0  0
   -0.3779    1.4272    4.5748 H   0  0  0  0  0  0  0  0  0  0  0  0
   -2.0826    1.1064    4.9754 H   0  0  0  0  0  0  0  0  0  0  0  0
   -0.8992   -0.2240    4.9525 H   0  0  0  0  0  0  0  0  0  0  0  0
  5  6  2  0  0  0  0
  5  7  1  0  0  0  0
  2  3  1  0  0  0  0
  2  4  1  0  0  0  0
  2  5  1  0  0  0  0
  1  2  1  0  0  0  0
 26 27  2  0  0  0  0
 26 28  1  0  0  0  0
 23 24  1  0  0  0  0
 23 25  1  0  0  0  0
 20 21  1  0  0  0  0
 20 22  1  0  0  0  0
 20 23  1  0  0  0  0
 17 18  1  0  0  0  0
 17 19  1  0  0  0  0
 17 20  1  0  0  0  0
 14 15  1  0  0  0  0
 14 16  1  0  0  0  0
 14 17  1  0  0  0  0
 11 12  1  0  0  0  0
 11 13  1  0  0  0  0
 11 14  1  0  0  0  0
  9 10  1  0  0  0  0
  9 11  1  0  0  0  0
  9 26  1  0  0  0  0
  7  8  1  0  0  0  0
  7  9  1  0  0  0  0
 30 31  1  0  0  0  0
 30 32  1  0  0  0  0
 30 33  1  0  0  0  0
 28 29  1  0  0  0  0
 28 30  1  0  0  0  0
M  END
$$$$
default_name
  -OEChem-02102213163D

 33 32  0     1  0  0  0  0  0999 V2000
   -3.8420   -3.6918    1.5562 H   0  0  0  0  0  0  0  0  0  0  0  0
   -3.8430   -2.7008    1.1032 C   0  0  0  0  0  0  0  0  0  0  0  0
   -4.5510   -2.0608    1.6242 H   0  0  0  0  0  0  0  0  0  0  0  0
   -4.1140   -2.7798    0.0522 H   0  0  0  0  0  0  0  0  0  0  0  0
   -2.4570   -2.1098    1.2172 C   0  0  0  0  0  0  0  0  0  0  0  0
   -1.5600   -2.7438    1.7572 O   0  0  0  0  0  0  0  0  0  0  0  0
   -2.2870   -0.8898    0.7102 N   0  0  0  0  0  0  0  0  0  0  0  0
   -3.0820   -0.4218    0.2992 H   0  0  0  0  0  0  0  0  0  0  0  0
   -1.0240   -0.1468    0.7262 C   0  0  1  0  0  0  0  0  0  0  0  0
   -0.2680   -0.7367    0.2062 H   0  0  0  0  0  0  0  0  0  0  0  0
   -1.2212    1.1806   -0.0314 C   0  0  0  0  0  0  0  0  0  0  0  0
   -0.2702    1.4652   -0.4863 H   0  0  0  0  0  0  0  0  0  0  0  0
   -1.9502    1.0343   -0.8297 H   0  0  0  0  0  0  0  0  0  0  0  0
   -1.6844    2.3338    0.8725 C   0  0  0  0  0  0  0  0  0  0  0  0
   -2.7740    2.3571    0.9065 H   0  0  0  0  0  0  0  0  0  0  0  0
   -1.2986    2.1763    1.8813 H   0  0  0  0  0  0  0  0  0  0  0  0
   -1.1785    3.6807    0.3439 C   0  0  0  0  0  0  0  0  0  0  0  0
   -0.0892    3.6701    0.2966 H   0  0  0  0  0  0  0  0  0  0  0  0
   -1.5808    3.8537   -0.6547 H   0  0  0  0  0  0  0  0  0  0  0  0
   -1.6315    4.8054    1.2729 C   0  0  0  0  0  0  0  0  0  0  0  0
   -2.7195    4.8298    1.3072 H   0  0  0  0  0  0  0  0  0  0  0  0
   -1.2455    4.6250    2.2748 H   0  0  0  0  0  0  0  0  0  0  0  0
   -1.1434    6.1089    0.8082 N   0  0  0  0  0  0  0  0  0  0  0  0
   -1.4721    6.8280    1.4357 H   0  0  0  0  0  0  0  0  0  0  0  0
   -0.1333    6.1024    0.8049 H   0  0  0  0  0  0  0  0  0  0  0  0
   -0.5564    0.0727    2.1744 C   0  0  0  0  0  0  0  0  0  0  0  0
    0.6169   -0.1288    2.4805 O   0  0  0  0  0  0  0  0  0  0  0  0
   -1.4759    0.4743    3.0595 N   0  0  0  0  0  0  0  0  0  0  0  0
   -2.4132    0.6318    2.7275 H   0  0  0  0  0  0  0  0  0  0  0  0
   -1.1971    0.7118    4.4750 C   0  0  0  0  0  0  0  0  0  0  0  0
   -0.3779    1.4272    4.5748 H   0  0  0  0  0  0  0  0  0  0  0  0
   -2.0826    1.1064    4.9754 H   0  0  0  0  0  0  0  0  0  0  0  0
   -0.8992   -0.2240    4.9525 H   0  0  0  0  0  0  0  0  0  0  0  0
  5  6  2  0  0  0  0
  5  7  1  0  0  0  0
  2  3  1  0  0  0  0
  2  4  1  0  0  0  0
  2  5  1  0  0  0  0
  1  2  1  0  0  0  0
 26 27  2  0  0  0  0
 26 28  1  0  0  0  0
 23 24  1  0  0  0  0
 23 25  1  0  0  0  0
 20 21  1  0  0  0  0
 20 22  1  0  0  0  0
 20 23  1  0  0  0  0
 17 18  1  0  0  0  0
 17 19  1  0  0  0  0
 17 20  1  0  0  0  0
 14 15  1  0  0  0  0
 14 16  1  0  0  0  0
 14 17  1  0  0  0  0
 11 12  1  0  0  0  0
 11 13  1  0  0  0  0
 11 14  1  0  0  0  0
  9 10  1  0  0  0  0
  9 11  1  0  0  0  0
  9 26  1  0  0  0  0
  7  8  1  0  0  0  0
  7  9  1  0  0  0  0
 30 31  1  0  0  0  0
 30 32  1  0  0  0  0
 30 33  1  0  0  0  0
 28 29  1  0  0  0  0
 28 30  1  0  0  0  0
M  END
$$$$
default_name
  -OEChem-02102213163D

 33 32  0     1  0  0  0  0  0999 V2000
   -3.8420   -3.6918    1.5562 H   0  0  0  0  0  0  0  0  0  0  0  0
   -3.8430   -2.7008    1.1032 C   0  0  0  0  0  0  0  0  0  0  0  0
   -4.5510   -2.0608    1.6242 H   0  0  0  0  0  0  0  0  0  0  0  0
   -4.1140   -2.7798    0.0522 H   0  0  0  0  0  0  0  0  0  0  0  0
   -2.4570   -2.1098    1.2172 C   0  0  0  0  0  0  0  0  0  0  0  0
   -1.5600   -2.7438    1.7572 O   0  0  0  0  0  0  0  0  0  0  0  0
   -2.2870   -0.8898    0.7102 N   0  0  0  0  0  0  0  0  0  0  0  0
   -3.0820   -0.4218    0.2992 H   0  0  0  0  0  0  0  0  0  0  0  0
   -1.0240   -0.1468    0.7262 C   0  0  1  0  0  0  0  0  0  0  0  0
   -0.2680   -0.7367    0.2062 H   0  0  0  0  0  0  0  0  0  0  0  0
   -1.2212    1.1806   -0.0314 C   0  0  0  0  0  0  0  0  0  0  0  0
   -0.2702    1.4652   -0.4863 H   0  0  0  0  0  0  0  0  0  0  0  0
   -1.9502    1.0343   -0.8297 H   0  0  0  0  0  0  0  0  0  0  0  0
   -1.6844    2.3338    0.8725 C   0  0  0  0  0  0  0  0  0  0  0  0
   -2.7376    2.2025    1.1225 H   0  0  0  0  0  0  0  0  0  0  0  0
   -1.0955    2.3283    1.7915 H   0  0  0  0  0  0  0  0  0  0  0  0
   -1.5091    3.6846    0.1695 C   0  0  0  0  0  0  0  0  0  0  0  0
   -0.4607    3.8272   -0.0942 H   0  0  0  0  0  0  0  0  0  0  0  0
   -2.1145    3.7039   -0.7372 H   0  0  0  0  0  0  0  0  0  0  0  0
   -1.9532    4.8135    1.0977 C   0  0  0  0  0  0  0  0  0  0  0  0
   -3.0049    4.6835    1.3476 H   0  0  0  0  0  0  0  0  0  0  0  0
   -1.3617    4.7848    2.0114 H   0  0  0  0  0  0  0  0  0  0  0  0
   -1.7761    6.1249    0.4635 N   0  0  0  0  0  0  0  0  0  0  0  0
   -2.0915    6.8442    1.0976 H   0  0  0  0  0  0  0  0  0  0  0  0
   -0.7969    6.2642    0.2584 H   0  0  0  0  0  0  0  0  0  0  0  0
   -0.5564    0.0727    2.1744 C   0  0  0  0  0  0  0  0  0  0  0  0
    0.6169   -0.1288    2.4805 O   0  0  0  0  0  0  0  0  0  0  0  0
   -1.4759    0.4743    3.0595 N   0  0  0  0  0  0  0  0  0  0  0  0
   -2.4132    0.6318    2.7275 H   0  0  0  0  0  0  0  0  0  0  0  0
   -1.1971    0.7118    4.4750 C   0  0  0  0  0  0  0  0  0  0  0  0
   -0.3779    1.4272    4.5748 H   0  0  0  0  0  0  0  0  0  0  0  0
   -2.0826    1.1064    4.9754 H   0  0  0  0  0  0  0  0  0  0  0  0
   -0.8992   -0.2240    4.9525 H   0  0  0  0  0  0  0  0  0  0  0  0
  5  6  2  0  0  0  0
  5  7  1  0  0  0  0
  2  3  1  0  0  0  0
  2  4  1  0  0  0  0
  2  5  1  0  0  0  0
  1  2  1  0  0  0  0
 26 27  2  0  0  0  0
 26 28  1  0  0  0  0
 23 24  1  0  0  0  0
 23 25  1  0  0  0  0
 20 21  1  0  0  0  0
 20 22  1  0  0  0  0
 20 23  1  0  0  0  0
 17 18  1  0  0  0  0
 17 19  1  0  0  0  0
 17 20  1  0  0  0  0
 14 15  1  0  0  0  0
 14 16  1  0  0  0  0
 14 17  1  0  0  0  0
 11 12  1  0  0  0  0
 11 13  1  0  0  0  0
 11 14  1  0  0  0  0
  9 10  1  0  0  0  0
  9 11  1  0  0  0  0
  9 26  1  0  0  0  0
  7  8  1  0  0  0  0
  7  9  1  0  0  0  0
 30 31  1  0  0  0  0
 30 32  1  0  0  0  0
 30 33  1  0  0  0  0
 28 29  1  0  0  0  0
 28 30  1  0  0  0  0
M  END
$$$$
default_name
  -OEChem-02102213163D

 33 32  0     1  0  0  0  0  0999 V2000
   -3.8420   -3.6918    1.5562 H   0  0  0  0  0  0  0  0  0  0  0  0
   -3.8430   -2.7008    1.1032 C   0  0  0  0  0  0  0  0  0  0  0  0
   -4.5510   -2.0608    1.6242 H   0  0  0  0  0  0  0  0  0  0  0  0
   -4.1140   -2.7798    0.0522 H   0  0  0  0  0  0  0  0  0  0  0  0
   -2.4570   -2.1098    1.2172 C   0  0  0  0  0  0  0  0  0  0  0  0
   -1.5600   -2.7438    1.7572 O   0  0  0  0  0  0  0  0  0  0  0  0
   -2.2870   -0.8898    0.7102 N   0  0  0  0  0  0  0  0  0  0  0  0
   -3.0820   -0.4218    0.2992 H   0  0  0  0  0  0  0  0  0  0  0  0
   -1.0240   -0.1468    0.7262 C   0  0  1  0  0  0  0  0  0  0  0  0
   -0.2680   -0.7367    0.2062 H   0  0  0  0  0  0  0  0  0  0  0  0
   -1.2212    1.1806   -0.0314 C   0  0  0  0  0  0  0  0  0  0  0  0
   -0.3693    1.3296   -0.6981 H   0  0  0  0  0  0  0  0  0  0  0  0
   -2.1235    1.1162   -0.6411 H   0  0  0  0  0  0  0  0  0  0  0  0
   -1.3231    2.4012    0.8966 C   0  0  0  0  0  0  0  0  0  0  0  0
   -2.1712    2.2786    1.5708 H   0  0  0  0  0  0  0  0  0  0  0  0
   -0.4073    2.4821    1.4851 H   0  0  0  0  0  0  0  0  0  0  0  0
   -1.5179    3.6888    0.0880 C   0  0  0  0  0  0  0  0  0  0  0  0
   -0.6803    3.8214   -0.5975 H   0  0  0  0  0  0  0  0  0  0  0  0
   -2.4442    3.6225   -0.4835 H   0  0  0  0  0  0  0  0  0  0  0  0
   -1.5911    4.8876    1.0318 C   0  0  0  0  0  0  0  0  0  0  0  0
   -2.4381    4.7663    1.7052 H   0  0  0  0  0  0  0  0  0  0  0  0
   -0.6742    4.9449    1.6161 H   0  0  0  0  0  0  0  0  0  0  0  0
   -1.7541    6.1417    0.2876 N   0  0  0  0  0  0  0  0  0  0  0  0
   -1.8127    6.9088    0.9412 H   0  0  0  0  0  0  0  0  0  0  0  0
   -0.9550    6.2753   -0.3157 H   0  0  0  0  0  0  0  0  0  0  0  0
   -0.5564    0.0727    2.1744 C   0  0  0  0  0  0  0  0  0  0  0  0
    0.6169   -0.1288    2.4805 O   0  0  0  0  0  0  0  0  0  0  0  0
   -1.4759    0.4743    3.0595 N   0  0  0  0  0  0  0  0  0  0  0  0
   -2.4132    0.6318    2.7275 H   0  0  0  0  0  0  0  0  0  0  0  0
   -1.1971    0.7118    4.4750 C   0  0  0  0  0  0  0  0  0  0  0  0
   -0.3779    1.4272    4.5748 H   0  0  0  0  0  0  0  0  0  0  0  0
   -2.0826    1.1064    4.9754 H   0  0  0  0  0  0  0  0  0  0  0  0
   -0.8992   -0.2240    4.9525 H   0  0  0  0  0  0  0  0  0  0  0  0
  5  6  2  0  0  0  0
  5  7  1  0  0  0  0
  2  3  1  0  0  0  0
  2  4  1  0  0  0  0
  2  5  1  0  0  0  0
  1  2  1  0  0  0  0
 26 27  2  0  0  0  0
 26 28  1  0  0  0  0
 23 24  1  0  0  0  0
 23 25  1  0  0  0  0
 20 21  1  0  0  0  0
 20 22  1  0  0  0  0
 20 23  1  0  0  0  0
 17 18  1  0  0  0  0
 17 19  1  0  0  0  0
 17 20  1  0  0  0  0
 14 15  1  0  0  0  0
 14 16  1  0  0  0  0
 14 17  1  0  0  0  0
 11 12  1  0  0  0  0
 11 13  1  0  0  0  0
 11 14  1  0  0  0  0
  9 10  1  0  0  0  0
  9 11  1  0  0  0  0
  9 26  1  0  0  0  0
  7  8  1  0  0  0  0
  7  9  1  0  0  0  0
 30 31  1  0  0  0  0
 30 32  1  0  0  0  0
 30 33  1  0  0  0  0
 28 29  1  0  0  0  0
 28 30  1  0  0  0  0
M  END
$$$$
default_name
  -OEChem-02102213163D

 33 32  0     1  0  0  0  0  0999 V2000
   -3.8420   -3.6918    1.5562 H   0  0  0  0  0  0  0  0  0  0  0  0
   -3.8430   -2.7008    1.1032 C   0  0  0  0  0  0  0  0  0  0  0  0
   -4.5510   -2.0608    1.6242 H   0  0  0  0  0  0  0  0  0  0  0  0
   -4.1140   -2.7798    0.0522 H   0  0  0  0  0  0  0  0  0  0  0  0
   -2.4570   -2.1098    1.2172 C   0  0  0  0  0  0  0  0  0  0  0  0
   -1.5600   -2.7438    1.7572 O   0  0  0  0  0  0  0  0  0  0  0  0
   -2.2870   -0.8898    0.7102 N   0  0  0  0  0  0  0  0  0  0  0  0
   -3.0820   -0.4218    0.2992 H   0  0  0  0  0  0  0  0  0  0  0  0
   -1.0240   -0.1468    0.7262 C   0  0  1  0  0  0  0  0  0  0  0  0
   -0.2680   -0.7367    0.2062 H   0  0  0  0  0  0  0  0  0  0  0  0
   -1.2212    1.1806   -0.0314 C   0  0  0  0  0  0  0  0  0  0  0  0
   -0.3693    1.3296   -0.6981 H   0  0  0  0  0  0  0  0  0  0  0  0
   -2.1235    1.1162   -0.6411 H   0  0  0  0  0  0  0  0  0  0  0  0
   -1.3231    2.4012    0.8966 C   0  0  0  0  0  0  0  0  0  0  0  0
   -1.9853    2.1717    1.7318 H   0  0  0  0  0  0  0  0  0  0  0  0
   -0.3310    2.6423    1.2828 H   0  0  0  0  0  0  0  0  0  0  0  0
   -1.8800    3.6154    0.1448 C   0  0  0  0  0  0  0  0  0  0  0  0
   -1.2318    3.8528   -0.6993 H   0  0  0  0  0  0  0  0  0  0  0  0
   -2.8811    3.3877   -0.2227 H   0  0  0  0  0  0  0  0  0  0  0  0
   -1.9475    4.8194    1.0823 C   0  0  0  0  0  0  0  0  0  0  0  0
   -2.6090    4.5913    1.9165 H   0  0  0  0  0  0  0  0  0  0  0  0
   -0.9514    5.0372    1.4641 H   0  0  0  0  0  0  0  0  0  0  0  0
   -2.4552    6.0077    0.3870 N   0  0  0  0  0  0  0  0  0  0  0  0
   -2.4996    6.7780    1.0379 H   0  0  0  0  0  0  0  0  0  0  0  0
   -1.8276    6.2428   -0.3687 H   0  0  0  0  0  0  0  0  0  0  0  0
   -0.5564    0.0727    2.1744 C   0  0  0  0  0  0  0  0  0  0  0  0
    0.6169   -0.1288    2.4805 O   0  0  0  0  0  0  0  0  0  0  0  0
   -1.4759    0.4743    3.0595 N   0  0  0  0  0  0  0  0  0  0  0  0
   -2.4132    0.6318    2.7275 H   0  0  0  0  0  0  0  0  0  0  0  0
   -1.1971    0.7118    4.4750 C   0  0  0  0  0  0  0  0  0  0  0  0
   -0.3779    1.4272    4.5748 H   0  0  0  0  0  0  0  0  0  0  0  0
   -2.0826    1.1064    4.9754 H   0  0  0  0  0  0  0  0  0  0  0  0
   -0.8992   -0.2240    4.9525 H   0  0  0  0  0  0  0  0  0  0  0  0
  5  6  2  0  0  0  0
  5  7  1  0  0  0  0
  2  3  1  0  0  0  0
  2  4  1  0  0  0  0
  2  5  1  0  0  0  0
  1  2  1  0  0  0  0
 26 27  2  0  0  0  0
 26 28  1  0  0  0  0
 23 24  1  0  0  0  0
 23 25  1  0  0  0  0
 20 21  1  0  0  0  0
 20 22  1  0  0  0  0
 20 23  1  0  0  0  0
 17 18  1  0  0  0  0
 17 19  1  0  0  0  0
 17 20  1  0  0  0  0
 14 15  1  0  0  0  0
 14 16  1  0  0  0  0
 14 17  1  0  0  0  0
 11 12  1  0  0  0  0
 11 13  1  0  0  0  0
 11 14  1  0  0  0  0
  9 10  1  0  0  0  0
  9 11  1  0  0  0  0
  9 26  1  0  0  0  0
  7  8  1  0  0  0  0
  7  9  1  0  0  0  0
 30 31  1  0  0  0  0
 30 32  1  0  0  0  0
 30 33  1  0  0  0  0
 28 29  1  0  0  0  0
 28 30  1  0  0  0  0
M  END
$$$$
default_name
  -OEChem-02102213163D

 33 32  0     1  0  0  0  0  0999 V2000
   -3.8420   -3.6918    1.5562 H   0  0  0  0  0  0  0  0  0  0  0  0
   -3.8430   -2.7008    1.1032 C   0  0  0  0  0  0  0  0  0  0  0  0
   -4.5510   -2.0608    1.6242 H   0  0  0  0  0  0  0  0  0  0  0  0
   -4.1140   -2.7798    0.0522 H   0  0  0  0  0  0  0  0  0  0  0  0
   -2.4570   -2.1098    1.2172 C   0  0  0  0  0  0  0  0  0  0  0  0
   -1.5600   -2.7438    1.7572 O   0  0  0  0  0  0  0  0  0  0  0  0
   -2.2870   -0.8898    0.7102 N   0  0  0  0  0  0  0  0  0  0  0  0
   -3.0820   -0.4218    0.2992 H   0  0  0  0  0  0  0  0  0  0  0  0
   -1.0240   -0.1468    0.7262 C   0  0  1  0  0  0  0  0  0  0  0  0
   -0.2680   -0.7367    0.2062 H   0  0  0  0  0  0  0  0  0  0  0  0
   -1.2212    1.1806   -0.0314 C   0  0  0  0  0  0  0  0  0  0  0  0
   -0.3693    1.3296   -0.6981 H   0  0  0  0  0  0  0  0  0  0  0  0
   -2.1235    1.1162   -0.6411 H   0  0  0  0  0  0  0  0  0  0  0  0
   -1.3231    2.4012    0.8966 C   0  0  0  0  0  0  0  0  0  0  0  0
   -1.7560    2.1003    1.8510 H   0  0  0  0  0  0  0  0  0  0  0  0
   -0.3239    2.8055    1.0690 H   0  0  0  0  0  0  0  0  0  0  0  0
   -2.2066    3.4889    0.2753 C   0  0  0  0  0  0  0  0  0  0  0  0
   -1.7903    3.7951   -0.6848 H   0  0  0  0  0  0  0  0  0  0  0  0
   -3.2127    3.0971    0.1232 H   0  0  0  0  0  0  0  0  0  0  0  0
   -2.2707    4.6987    1.2055 C   0  0  0  0  0  0  0  0  0  0  0  0
   -2.7034    4.3993    2.1588 H   0  0  0  0  0  0  0  0  0  0  0  0
   -1.2649    5.0805    1.3728 H   0  0  0  0  0  0  0  0  0  0  0  0
   -3.0911    5.7703    0.6293 N   0  0  0  0  0  0  0  0  0  0  0  0
   -3.1228    6.5459    1.2747 H   0  0  0  0  0  0  0  0  0  0  0  0
   -2.6762    6.0741   -0.2401 H   0  0  0  0  0  0  0  0  0  0  0  0
   -0.5564    0.0727    2.1744 C   0  0  0  0  0  0  0  0  0  0  0  0
    0.6169   -0.1288    2.4805 O   0  0  0  0  0  0  0  0  0  0  0  0
   -1.4759    0.4743    3.0595 N   0  0  0  0  0  0  0  0  0  0  0  0
   -2.4132    0.6318    2.7275 H   0  0  0  0  0  0  0  0  0  0  0  0
   -1.1971    0.7118    4.4750 C   0  0  0  0  0  0  0  0  0  0  0  0
   -0.3779    1.4272    4.5748 H   0  0  0  0  0  0  0  0  0  0  0  0
   -2.0826    1.1064    4.9754 H   0  0  0  0  0  0  0  0  0  0  0  0
   -0.8992   -0.2240    4.9525 H   0  0  0  0  0  0  0  0  0  0  0  0
  5  6  2  0  0  0  0
  5  7  1  0  0  0  0
  2  3  1  0  0  0  0
  2  4  1  0  0  0  0
  2  5  1  0  0  0  0
  1  2  1  0  0  0  0
 26 27  2  0  0  0  0
 26 28  1  0  0  0  0
 23 24  1  0  0  0  0
 23 25  1  0  0  0  0
 20 21  1  0  0  0  0
 20 22  1  0  0  0  0
 20 23  1  0  0  0  0
 17 18  1  0  0  0  0
 17 19  1  0  0  0  0
 17 20  1  0  0  0  0
 14 15  1  0  0  0  0
 14 16  1  0  0  0  0
 14 17  1  0  0  0  0
 11 12  1  0  0  0  0
 11 13  1  0  0  0  0
 11 14  1  0  0  0  0
  9 10  1  0  0  0  0
  9 11  1  0  0  0  0
  9 26  1  0  0  0  0
  7  8  1  0  0  0  0
  7  9  1  0  0  0  0
 30 31  1  0  0  0  0
 30 32  1  0  0  0  0
 30 33  1  0  0  0  0
 28 29  1  0  0  0  0
 28 30  1  0  0  0  0
M  END
$$$$
default_name
  -OEChem-02102213163D

 33 32  0     1  0  0  0  0  0999 V2000
   -3.8420   -3.6918    1.5562 H   0  0  0  0  0  0  0  0  0  0  0  0
   -3.8430   -2.7008    1.1032 C   0  0  0  0  0  0  0  0  0  0  0  0
   -4.5510   -2.0608    1.6242 H   0  0  0  0  0  0  0  0  0  0  0  0
   -4.1140   -2.7798    0.0522 H   0  0  0  0  0  0  0  0  0  0  0  0
   -2.4570   -2.1098    1.2172 C   0  0  0  0  0  0  0  0  0  0  0  0
   -1.5600   -2.7438    1.7572 O   0  0  0  0  0  0  0  0  0  0  0  0
   -2.2870   -0.8898    0.7102 N   0  0  0  0  0  0  0  0  0  0  0  0
   -3.0820   -0.4218    0.2992 H   0  0  0  0  0  0  0  0  0  0  0  0
   -1.0240   -0.1468    0.7262 C   0  0  1  0  0  0  0  0  0  0  0  0
   -0.2680   -0.7367    0.2062 H   0  0  0  0  0  0  0  0  0  0  0  0
   -1.2212    1.1806   -0.0314 C   0  0  0  0  0  0  0  0  0  0  0  0
   -0.3693    1.3296   -0.6981 H   0  0  0  0  0  0  0  0  0  0  0  0
   -2.1235    1.1162   -0.6411 H   0  0  0  0  0  0  0  0  0  0  0  0
   -1.3231    2.4012    0.8966 C   0  0  0  0  0  0  0  0  0  0  0  0
   -1.4988    2.0691    1.9202 H   0  0  0  0  0  0  0  0  0  0  0  0
   -0.3865    2.9605    0.8581 H   0  0  0  0  0  0  0  0  0  0  0  0
   -2.4755    3.3179    0.4707 C   0  0  0  0  0  0  0  0  0  0  0  0
   -2.3178    3.6524   -0.5551 H   0  0  0  0  0  0  0  0  0  0  0  0
   -3.4166    2.7704    0.5304 H   0  0  0  0  0  0  0  0  0  0  0  0
   -2.5387    4.5338    1.3931 C   0  0  0  0  0  0  0  0  0  0  0  0
   -2.7147    4.2032    2.4155 H   0  0  0  0  0  0  0  0  0  0  0  0
   -1.5932    5.0718    1.3483 H   0  0  0  0  0  0  0  0  0  0  0  0
   -3.6183    5.4458    0.9983 N   0  0  0  0  0  0  0  0  0  0  0  0
   -3.6397    6.2283    1.6356 H   0  0  0  0  0  0  0  0  0  0  0  0
   -3.4431    5.7808    0.0615 H   0  0  0  0  0  0  0  0  0  0  0  0
   -0.5564    0.0727    2.1744 C   0  0  0  0  0  0  0  0  0  0  0  0
    0.6169   -0.1288    2.4805 O   0  0  0  0  0  0  0  0  0  0  0  0
   -1.4759    0.4743    3.0595 N   0  0  0  0  0  0  0  0  0  0  0  0
   -2.4132    0.6318    2.7275 H   0  0  0  0  0  0  0  0  0  0  0  0
   -1.1971    0.7118    4.4750 C   0  0  0  0  0  0  0  0  0  0  0  0
   -0.3779    1.4272    4.5748 H   0  0  0  0  0  0  0  0  0  0  0  0
   -2.0826    1.1064    4.9754 H   0  0  0  0  0  0  0  0  0  0  0  0
   -0.8992   -0.2240    4.9525 H   0  0  0  0  0  0  0  0  0  0  0  0
  5  6  2  0  0  0  0
  5  7  1  0  0  0  0
  2  3  1  0  0  0  0
  2  4  1  0  0  0  0
  2  5  1  0  0  0  0
  1  2  1  0  0  0  0
 26 27  2  0  0  0  0
 26 28  1  0  0  0  0
 23 24  1  0  0  0  0
 23 25  1  0  0  0  0
 20 21  1  0  0  0  0
 20 22  1  0  0  0  0
 20 23  1  0  0  0  0
 17 18  1  0  0  0  0
 17 19  1  0  0  0  0
 17 20  1  0  0  0  0
 14 15  1  0  0  0  0
 14 16  1  0  0  0  0
 14 17  1  0  0  0  0
 11 12  1  0  0  0  0
 11 13  1  0  0  0  0
 11 14  1  0  0  0  0
  9 10  1  0  0  0  0
  9 11  1  0  0  0  0
  9 26  1  0  0  0  0
  7  8  1  0  0  0  0
  7  9  1  0  0  0  0
 30 31  1  0  0  0  0
 30 32  1  0  0  0  0
 30 33  1  0  0  0  0
 28 29  1  0  0  0  0
 28 30  1  0  0  0  0
M  END
$$$$
default_name
  -OEChem-02102213163D

 33 32  0     1  0  0  0  0  0999 V2000
   -3.8420   -3.6918    1.5562 H   0  0  0  0  0  0  0  0  0  0  0  0
   -3.8430   -2.7008    1.1032 C   0  0  0  0  0  0  0  0  0  0  0  0
   -4.5510   -2.0608    1.6242 H   0  0  0  0  0  0  0  0  0  0  0  0
   -4.1140   -2.7798    0.0522 H   0  0  0  0  0  0  0  0  0  0  0  0
   -2.4570   -2.1098    1.2172 C   0  0  0  0  0  0  0  0  0  0  0  0
   -1.5600   -2.7438    1.7572 O   0  0  0  0  0  0  0  0  0  0  0  0
   -2.2870   -0.8898    0.7102 N   0  0  0  0  0  0  0  0  0  0  0  0
   -3.0820   -0.4218    0.2992 H   0  0  0  0  0  0  0  0  0  0  0  0
   -1.0240   -0.1468    0.7262 C   0  0  1  0  0  0  0  0  0  0  0  0
   -0.2680   -0.7367    0.2062 H   0  0  0  0  0  0  0  0  0  0  0  0
   -1.2212    1.1806   -0.0314 C   0  0  0  0  0  0  0  0  0  0  0  0
   -0.3693    1.3296   -0.6981 H   0  0  0  0  0  0  0  0  0  0  0  0
   -2.1235    1.1162   -0.6411 H   0  0  0  0  0  0  0  0  0  0  0  0
   -1.3231    2.4012    0.8966 C   0  0  0  0  0  0  0  0  0  0  0  0
   -1.2314    2.0804    1.9346 H   0  0  0  0  0  0  0  0  0  0  0  0
   -0.5146    3.0969    0.6647 H   0  0  0  0  0  0  0  0  0  0  0  0
   -2.6683    3.1140    0.7177 C   0  0  0  0  0  0  0  0  0  0  0  0
   -2.7783    3.4344   -0.3188 H   0  0  0  0  0  0  0  0  0  0  0  0
   -3.4787    2.4301    0.9713 H   0  0  0  0  0  0  0  0  0  0  0  0
   -2.7332    4.3358    1.6322 C   0  0  0  0  0  0  0  0  0  0  0  0
   -2.6422    4.0164    2.6691 H   0  0  0  0  0  0  0  0  0  0  0  0
   -1.9140    5.0116    1.3922 H   0  0  0  0  0  0  0  0  0  0  0  0
   -4.0010    5.0563    1.4685 N   0  0  0  0  0  0  0  0  0  0  0  0
   -4.0153    5.8470    2.0959 H   0  0  0  0  0  0  0  0  0  0  0  0
   -4.0760    5.3828    0.5156 H   0  0  0  0  0  0  0  0  0  0  0  0
   -0.5564    0.0727    2.1744 C   0  0  0  0  0  0  0  0  0  0  0  0
    0.6169   -0.1288    2.4805 O   0  0  0  0  0  0  0  0  0  0  0  0
   -1.4759    0.4743    3.0595 N   0  0  0  0  0  0  0  0  0  0  0  0
   -2.4132    0.6318    2.7275 H   0  0  0  0  0  0  0  0  0  0  0  0
   -1.1971    0.7118    4.4750 C   0  0  0  0  0  0  0  0  0  0  0  0
   -0.3779    1.4272    4.5748 H   0  0  0  0  0  0  0  0  0  0  0  0
   -2.0826    1.1064    4.9754 H   0  0  0  0  0  0  0  0  0  0  0  0
   -0.8992   -0.2240    4.9525 H   0  0  0  0  0  0  0  0  0  0  0  0
  5  6  2  0  0  0  0
  5  7  1  0  0  0  0
  2  3  1  0  0  0  0
  2  4  1  0  0  0  0
  2  5  1  0  0  0  0
  1  2  1  0  0  0  0
 26 27  2  0  0  0  0
 26 28  1  0  0  0  0
 23 24  1  0  0  0  0
 23 25  1  0  0  0  0
 20 21  1  0  0  0  0
 20 22  1  0  0  0  0
 20 23  1  0  0  0  0
 17 18  1  0  0  0  0
 17 19  1  0  0  0  0
 17 20  1  0  0  0  0
 14 15  1  0  0  0  0
 14 16  1  0  0  0  0
 14 17  1  0  0  0  0
 11 12  1  0  0  0  0
 11 13  1  0  0  0  0
 11 14  1  0  0  0  0
  9 10  1  0  0  0  0
  9 11  1  0  0  0  0
  9 26  1  0  0  0  0
  7  8  1  0  0  0  0
  7  9  1  0  0  0  0
 30 31  1  0  0  0  0
 30 32  1  0  0  0  0
 30 33  1  0  0  0  0
 28 29  1  0  0  0  0
 28 30  1  0  0  0  0
M  END
$$$$
default_name
  -OEChem-02102213163D

 33 32  0     1  0  0  0  0  0999 V2000
   -3.8420   -3.6918    1.5562 H   0  0  0  0  0  0  0  0  0  0  0  0
   -3.8430   -2.7008    1.1032 C   0  0  0  0  0  0  0  0  0  0  0  0
   -4.5510   -2.0608    1.6242 H   0  0  0  0  0  0  0  0  0  0  0  0
   -4.1140   -2.7798    0.0522 H   0  0  0  0  0  0  0  0  0  0  0  0
   -2.4570   -2.1098    1.2172 C   0  0  0  0  0  0  0  0  0  0  0  0
   -1.5600   -2.7438    1.7572 O   0  0  0  0  0  0  0  0  0  0  0  0
   -2.2870   -0.8898    0.7102 N   0  0  0  0  0  0  0  0  0  0  0  0
   -3.0820   -0.4218    0.2992 H   0  0  0  0  0  0  0  0  0  0  0  0
   -1.0240   -0.1468    0.7262 C   0  0  1  0  0  0  0  0  0  0  0  0
   -0.2680   -0.7367    0.2062 H   0  0  0  0  0  0  0  0  0  0  0  0
   -1.2212    1.1806   -0.0314 C   0  0  0  0  0  0  0  0  0  0  0  0
   -0.3693    1.3296   -0.6981 H   0  0  0  0  0  0  0  0  0  0  0  0
   -2.1235    1.1162   -0.6411 H   0  0  0  0  0  0  0  0  0  0  0  0
   -1.3231    2.4012    0.8966 C   0  0  0  0  0  0  0  0  0  0  0  0
   -0.9718    2.1334    1.8935 H   0  0  0  0  0  0  0  0  0  0  0  0
   -0.6994    3.2053    0.5018 H   0  0  0  0  0  0  0  0  0  0  0  0
   -2.7719    2.8912    0.9993 C   0  0  0  0  0  0  0  0  0  0  0  0
   -3.1405    3.1558    0.0078 H   0  0  0  0  0  0  0  0  0  0  0  0
   -3.3949    2.0991    1.4157 H   0  0  0  0  0  0  0  0  0  0  0  0
   -2.8410    4.1182    1.9065 C   0  0  0  0  0  0  0  0  0  0  0  0
   -2.4908    3.8516    2.9024 H   0  0  0  0  0  0  0  0  0  0  0  0
   -2.2054    4.9040    1.5017 H   0  0  0  0  0  0  0  0  0  0  0  0
   -4.2131    4.6283    2.0082 N   0  0  0  0  0  0  0  0  0  0  0  0
   -4.2238    5.4279    2.6243 H   0  0  0  0  0  0  0  0  0  0  0  0
   -4.5318    4.9071    1.0911 H   0  0  0  0  0  0  0  0  0  0  0  0
   -0.5564    0.0727    2.1744 C   0  0  0  0  0  0  0  0  0  0  0  0
    0.6169   -0.1288    2.4805 O   0  0  0  0  0  0  0  0  0  0  0  0
   -1.4759    0.4743    3.0595 N   0  0  0  0  0  0  0  0  0  0  0  0
   -2.4132    0.6318    2.7275 H   0  0  0  0  0  0  0  0  0  0  0  0
   -1.1971    0.7118    4.4750 C   0  0  0  0  0  0  0  0  0  0  0  0
   -0.3779    1.4272    4.5748 H   0  0  0  0  0  0  0  0  0  0  0  0
   -2.0826    1.1064    4.9754 H   0  0  0  0  0  0  0  0  0  0  0  0
   -0.8992   -0.2240    4.9525 H   0  0  0  0  0  0  0  0  0  0  0  0
  5  6  2  0  0  0  0
  5  7  1  0  0  0  0
  2  3  1  0  0  0  0
  2  4  1  0  0  0  0
  2  5  1  0  0  0  0
  1  2  1  0  0  0  0
 26 27  2  0  0  0  0
 26 28  1  0  0  0  0
 23 24  1  0  0  0  0
 23 25  1  0  0  0  0
 20 21  1  0  0  0  0
 20 22  1  0  0  0  0
 20 23  1  0  0  0  0
 17 18  1  0  0  0  0
 17 19  1  0  0  0  0
 17 20  1  0  0  0  0
 14 15  1  0  0  0  0
 14 16  1  0  0  0  0
 14 17  1  0  0  0  0
 11 12  1  0  0  0  0
 11 13  1  0  0  0  0
 11 14  1  0  0  0  0
  9 10  1  0  0  0  0
  9 11  1  0  0  0  0
  9 26  1  0  0  0  0
  7  8  1  0  0  0  0
  7  9  1  0  0  0  0
 30 31  1  0  0  0  0
 30 32  1  0  0  0  0
 30 33  1  0  0  0  0
 28 29  1  0  0  0  0
 28 30  1  0  0  0  0
M  END
$$$$
default_name
  -OEChem-02102213163D

 33 32  0     1  0  0  0  0  0999 V2000
   -3.8420   -3.6918    1.5562 H   0  0  0  0  0  0  0  0  0  0  0  0
   -3.8430   -2.7008    1.1032 C   0  0  0  0  0  0  0  0  0  0  0  0
   -4.5510   -2.0608    1.6242 H   0  0  0  0  0  0  0  0  0  0  0  0
   -4.1140   -2.7798    0.0522 H   0  0  0  0  0  0  0  0  0  0  0  0
   -2.4570   -2.1098    1.2172 C   0  0  0  0  0  0  0  0  0  0  0  0
   -1.5600   -2.7438    1.7572 O   0  0  0  0  0  0  0  0  0  0  0  0
   -2.2870   -0.8898    0.7102 N   0  0  0  0  0  0  0  0  0  0  0  0
   -3.0820   -0.4218    0.2992 H   0  0  0  0  0  0  0  0  0  0  0  0
   -1.0240   -0.1468    0.7262 C   0  0  1  0  0  0  0  0  0  0  0  0
   -0.2680   -0.7367    0.2062 H   0  0  0  0  0  0  0  0  0  0  0  0
   -1.2212    1.1806   -0.0314 C   0  0  0  0  0  0  0  0  0  0  0  0
   -0.3693    1.3296   -0.6981 H   0  0  0  0  0  0  0  0  0  0  0  0
   -2.1235    1.1162   -0.6411 H   0  0  0  0  0  0  0  0  0  0  0  0
   -1.3231    2.4012    0.8966 C   0  0  0  0  0  0  0  0  0  0  0  0
   -0.7378    2.2245    1.7994 H   0  0  0  0  0  0  0  0  0  0  0  0
   -0.9283    3.2783    0.3807 H   0  0  0  0  0  0  0  0  0  0  0  0
   -2.7792    2.6647    1.2965 C   0  0  0  0  0  0  0  0  0  0  0  0
   -3.3796    2.8357    0.4025 H   0  0  0  0  0  0  0  0  0  0  0  0
   -3.1708    1.8002    1.8335 H   0  0  0  0  0  0  0  0  0  0  0  0
   -2.8547    3.8959    2.1974 C   0  0  0  0  0  0  0  0  0  0  0  0
   -2.2709    3.7202    3.0994 H   0  0  0  0  0  0  0  0  0  0  0  0
   -2.4476    4.7565    1.6691 H   0  0  0  0  0  0  0  0  0  0  0  0
   -4.2402    4.1910    2.5804 N   0  0  0  0  0  0  0  0  0  0  0  0
   -4.2511    4.9995    3.1847 H   0  0  0  0  0  0  0  0  0  0  0  0
   -4.7794    4.3864    1.7489 H   0  0  0  0  0  0  0  0  0  0  0  0
   -0.5564    0.0727    2.1744 C   0  0  0  0  0  0  0  0  0  0  0  0
    0.6169   -0.1288    2.4805 O   0  0  0  0  0  0  0  0  0  0  0  0
   -1.4759    0.4743    3.0595 N   0  0  0  0  0  0  0  0  0  0  0  0
   -2.4132    0.6318    2.7275 H   0  0  0  0  0  0  0  0  0  0  0  0
   -1.1971    0.7118    4.4750 C   0  0  0  0  0  0  0  0  0  0  0  0
   -0.3779    1.4272    4.5748 H   0  0  0  0  0  0  0  0  0  0  0  0
   -2.0826    1.1064    4.9754 H   0  0  0  0  0  0  0  0  0  0  0  0
   -0.8992   -0.2240    4.9525 H   0  0  0  0  0  0  0  0  0  0  0  0
  5  6  2  0  0  0  0
  5  7  1  0  0  0  0
  2  3  1  0  0  0  0
  2  4  1  0  0  0  0
  2  5  1  0  0  0  0
  1  2  1  0  0  0  0
 26 27  2  0  0  0  0
 26 28  1  0  0  0  0
 23 24  1  0  0  0  0
 23 25  1  0  0  0  0
 20 21  1  0  0  0  0
 20 22  1  0  0  0  0
 20 23  1  0  0  0  0
 17 18  1  0  0  0  0
 17 19  1  0  0  0  0
 17 20  1  0  0  0  0
 14 15  1  0  0  0  0
 14 16  1  0  0  0  0
 14 17  1  0  0  0  0
 11 12  1  0  0  0  0
 11 13  1  0  0  0  0
 11 14  1  0  0  0  0
  9 10  1  0  0  0  0
  9 11  1  0  0  0  0
  9 26  1  0  0  0  0
  7  8  1  0  0  0  0
  7  9  1  0  0  0  0
 30 31  1  0  0  0  0
 30 32  1  0  0  0  0
 30 33  1  0  0  0  0
 28 29  1  0  0  0  0
 28 30  1  0  0  0  0
M  END
$$$$
default_name
  -OEChem-02102213163D

 33 32  0     1  0  0  0  0  0999 V2000
   -3.8420   -3.6918    1.5562 H   0  0  0  0  0  0  0  0  0  0  0  0
   -3.8430   -2.7008    1.1032 C   0  0  0  0  0  0  0  0  0  0  0  0
   -4.5510   -2.0608    1.6242 H   0  0  0  0  0  0  0  0  0  0  0  0
   -4.1140   -2.7798    0.0522 H   0  0  0  0  0  0  0  0  0  0  0  0
   -2.4570   -2.1098    1.2172 C   0  0  0  0  0  0  0  0  0  0  0  0
   -1.5600   -2.7438    1.7572 O   0  0  0  0  0  0  0  0  0  0  0  0
   -2.2870   -0.8898    0.7102 N   0  0  0  0  0  0  0  0  0  0  0  0
   -3.0820   -0.4218    0.2992 H   0  0  0  0  0  0  0  0  0  0  0  0
   -1.0240   -0.1468    0.7262 C   0  0  1  0  0  0  0  0  0  0  0  0
   -0.2680   -0.7367    0.2062 H   0  0  0  0  0  0  0  0  0  0  0  0
   -1.2212    1.1806   -0.0314 C   0  0  0  0  0  0  0  0  0  0  0  0
   -0.3693    1.3296   -0.6981 H   0  0  0  0  0  0  0  0  0  0  0  0
   -2.1235    1.1162   -0.6411 H   0  0  0  0  0  0  0  0  0  0  0  0
   -1.3231    2.4012    0.8966 C   0  0  0  0  0  0  0  0  0  0  0  0
   -0.5453    2.3474    1.6589 H   0  0  0  0  0  0  0  0  0  0  0  0
   -1.1857    3.3110    0.3094 H   0  0  0  0  0  0  0  0  0  0  0  0
   -2.6898    2.4498    1.5890 C   0  0  0  0  0  0  0  0  0  0  0  0
   -3.4794    2.4960    0.8385 H   0  0  0  0  0  0  0  0  0  0  0  0
   -2.8218    1.5537    2.1961 H   0  0  0  0  0  0  0  0  0  0  0  0
   -2.7734    3.6840    2.4849 C   0  0  0  0  0  0  0  0  0  0  0  0
   -1.9974    3.6309    3.2468 H   0  0  0  0  0  0  0  0  0  0  0  0
   -2.6241    4.5790    1.8832 H   0  0  0  0  0  0  0  0  0  0  0  0
   -4.0803    3.7742    3.1461 N   0  0  0  0  0  0  0  0  0  0  0  0
   -4.0953    4.5911    3.7390 H   0  0  0  0  0  0  0  0  0  0  0  0
   -4.8020    3.8559    2.4441 H   0  0  0  0  0  0  0  0  0  0  0  0
   -0.5564    0.0727    2.1744 C   0  0  0  0  0  0  0  0  0  0  0  0
    0.6169   -0.1288    2.4805 O   0  0  0  0  0  0  0  0  0  0  0  0
   -1.4759    0.4743    3.0595 N   0  0  0  0  0  0  0  0  0  0  0  0
   -2.4132    0.6318    2.7275 H   0  0  0  0  0  0  0  0  0  0  0  0
   -1.1971    0.7118    4.4750 C   0  0  0  0  0  0  0  0  0  0  0  0
   -0.3779    1.4272    4.5748 H   0  0  0  0  0  0  0  0  0  0  0  0
   -2.0826    1.1064    4.9754 H   0  0  0  0  0  0  0  0  0  0  0  0
   -0.8992   -0.2240    4.9525 H   0  0  0  0  0  0  0  0  0  0  0  0
  5  6  2  0  0  0  0
  5  7  1  0  0  0  0
  2  3  1  0  0  0  0
  2  4  1  0  0  0  0
  2  5  1  0  0  0  0
  1  2  1  0  0  0  0
 26 27  2  0  0  0  0
 26 28  1  0  0  0  0
 23 24  1  0  0  0  0
 23 25  1  0  0  0  0
 20 21  1  0  0  0  0
 20 22  1  0  0  0  0
 20 23  1  0  0  0  0
 17 18  1  0  0  0  0
 17 19  1  0  0  0  0
 17 20  1  0  0  0  0
 14 15  1  0  0  0  0
 14 16  1  0  0  0  0
 14 17  1  0  0  0  0
 11 12  1  0  0  0  0
 11 13  1  0  0  0  0
 11 14  1  0  0  0  0
  9 10  1  0  0  0  0
  9 11  1  0  0  0  0
  9 26  1  0  0  0  0
  7  8  1  0  0  0  0
  7  9  1  0  0  0  0
 30 31  1  0  0  0  0
 30 32  1  0  0  0  0
 30 33  1  0  0  0  0
 28 29  1  0  0  0  0
 28 30  1  0  0  0  0
M  END
$$$$
default_name
  -OEChem-02102213163D

 33 32  0     1  0  0  0  0  0999 V2000
   -3.8420   -3.6918    1.5562 H   0  0  0  0  0  0  0  0  0  0  0  0
   -3.8430   -2.7008    1.1032 C   0  0  0  0  0  0  0  0  0  0  0  0
   -4.5510   -2.0608    1.6242 H   0  0  0  0  0  0  0  0  0  0  0  0
   -4.1140   -2.7798    0.0522 H   0  0  0  0  0  0  0  0  0  0  0  0
   -2.4570   -2.1098    1.2172 C   0  0  0  0  0  0  0  0  0  0  0  0
   -1.5600   -2.7438    1.7572 O   0  0  0  0  0  0  0  0  0  0  0  0
   -2.2870   -0.8898    0.7102 N   0  0  0  0  0  0  0  0  0  0  0  0
   -3.0820   -0.4218    0.2992 H   0  0  0  0  0  0  0  0  0  0  0  0
   -1.0240   -0.1468    0.7262 C   0  0  1  0  0  0  0  0  0  0  0  0
   -0.2680   -0.7367    0.2062 H   0  0  0  0  0  0  0  0  0  0  0  0
   -1.2212    1.1806   -0.0314 C   0  0  0  0  0  0  0  0  0  0  0  0
   -0.3693    1.3296   -0.6981 H   0  0  0  0  0  0  0  0  0  0  0  0
   -2.1235    1.1162   -0.6411 H   0  0  0  0  0  0  0  0  0  0  0  0
   -1.3231    2.4012    0.8966 C   0  0  0  0  0  0  0  0  0  0  0  0
   -0.4075    2.4938    1.4815 H   0  0  0  0  0  0  0  0  0  0  0  0
   -1.4541    3.3011    0.2929 H   0  0  0  0  0  0  0  0  0  0  0  0
   -2.5097    2.2612    1.8568 C   0  0  0  0  0  0  0  0  0  0  0  0
   -3.4331    2.1597    1.2859 H   0  0  0  0  0  0  0  0  0  0  0  0
   -2.3716    1.3763    2.4788 H   0  0  0  0  0  0  0  0  0  0  0  0
   -2.6027    3.4970    2.7497 C   0  0  0  0  0  0  0  0  0  0  0  0
   -1.6890    3.5900    3.3345 H   0  0  0  0  0  0  0  0  0  0  0  0
   -2.7228    4.3837    2.1293 H   0  0  0  0  0  0  0  0  0  0  0  0
   -3.7445    3.4063    3.6669 N   0  0  0  0  0  0  0  0  0  0  0  0
   -3.7670    4.2305    4.2493 H   0  0  0  0  0  0  0  0  0  0  0  0
   -4.5979    3.3520    3.1293 H   0  0  0  0  0  0  0  0  0  0  0  0
   -0.5564    0.0727    2.1744 C   0  0  0  0  0  0  0  0  0  0  0  0
    0.6169   -0.1288    2.4805 O   0  0  0  0  0  0  0  0  0  0  0  0
   -1.4759    0.4743    3.0595 N   0  0  0  0  0  0  0  0  0  0  0  0
   -2.4132    0.6318    2.7275 H   0  0  0  0  0  0  0  0  0  0  0  0
   -1.1971    0.7118    4.4750 C   0  0  0  0  0  0  0  0  0  0  0  0
   -0.3779    1.4272    4.5748 H   0  0  0  0  0  0  0  0  0  0  0  0
   -2.0826    1.1064    4.9754 H   0  0  0  0  0  0  0  0  0  0  0  0
   -0.8992   -0.2240    4.9525 H   0  0  0  0  0  0  0  0  0  0  0  0
  5  6  2  0  0  0  0
  5  7  1  0  0  0  0
  2  3  1  0  0  0  0
  2  4  1  0  0  0  0
  2  5  1  0  0  0  0
  1  2  1  0  0  0  0
 26 27  2  0  0  0  0
 26 28  1  0  0  0  0
 23 24  1  0  0  0  0
 23 25  1  0  0  0  0
 20 21  1  0  0  0  0
 20 22  1  0  0  0  0
 20 23  1  0  0  0  0
 17 18  1  0  0  0  0
 17 19  1  0  0  0  0
 17 20  1  0  0  0  0
 14 15  1  0  0  0  0
 14 16  1  0  0  0  0
 14 17  1  0  0  0  0
 11 12  1  0  0  0  0
 11 13  1  0  0  0  0
 11 14  1  0  0  0  0
  9 10  1  0  0  0  0
  9 11  1  0  0  0  0
  9 26  1  0  0  0  0
  7  8  1  0  0  0  0
  7  9  1  0  0  0  0
 30 31  1  0  0  0  0
 30 32  1  0  0  0  0
 30 33  1  0  0  0  0
 28 29  1  0  0  0  0
 28 30  1  0  0  0  0
M  END
$$$$
default_name
  -OEChem-02102213163D

 33 32  0     1  0  0  0  0  0999 V2000
   -3.8420   -3.6918    1.5562 H   0  0  0  0  0  0  0  0  0  0  0  0
   -3.8430   -2.7008    1.1032 C   0  0  0  0  0  0  0  0  0  0  0  0
   -4.5510   -2.0608    1.6242 H   0  0  0  0  0  0  0  0  0  0  0  0
   -4.1140   -2.7798    0.0522 H   0  0  0  0  0  0  0  0  0  0  0  0
   -2.4570   -2.1098    1.2172 C   0  0  0  0  0  0  0  0  0  0  0  0
   -1.5600   -2.7438    1.7572 O   0  0  0  0  0  0  0  0  0  0  0  0
   -2.2870   -0.8898    0.7102 N   0  0  0  0  0  0  0  0  0  0  0  0
   -3.0820   -0.4218    0.2992 H   0  0  0  0  0  0  0  0  0  0  0  0
   -1.0240   -0.1468    0.7262 C   0  0  1  0  0  0  0  0  0  0  0  0
   -0.2680   -0.7367    0.2062 H   0  0  0  0  0  0  0  0  0  0  0  0
   -1.2212    1.1806   -0.0314 C   0  0  0  0  0  0  0  0  0  0  0  0
   -0.3693    1.3296   -0.6981 H   0  0  0  0  0  0  0  0  0  0  0  0
   -2.1235    1.1162   -0.6411 H   0  0  0  0  0  0  0  0  0  0  0  0
   -1.3231    2.4012    0.8966 C   0  0  0  0  0  0  0  0  0  0  0  0
   -0.3338    2.6536    1.2793 H   0  0  0  0  0  0  0  0  0  0  0  0
   -1.7152    3.2494    0.3324 H   0  0  0  0  0  0  0  0  0  0  0  0
   -2.2512    2.1118    2.0817 C   0  0  0  0  0  0  0  0  0  0  0  0
   -3.2439    1.8497    1.7143 H   0  0  0  0  0  0  0  0  0  0  0  0
   -1.8509    1.2802    2.6624 H   0  0  0  0  0  0  0  0  0  0  0  0
   -2.3541    3.3476    2.9735 C   0  0  0  0  0  0  0  0  0  0  0  0
   -1.3667    3.6002    3.3565 H   0  0  0  0  0  0  0  0  0  0  0  0
   -2.7370    4.1838    2.3907 H   0  0  0  0  0  0  0  0  0  0  0  0
   -3.2555    3.1123    4.1072 N   0  0  0  0  0  0  0  0  0  0  0  0
   -3.2887    3.9422    4.6810 H   0  0  0  0  0  0  0  0  0  0  0  0
   -4.1812    2.9088    3.7579 H   0  0  0  0  0  0  0  0  0  0  0  0
   -0.5564    0.0727    2.1744 C   0  0  0  0  0  0  0  0  0  0  0  0
    0.6169   -0.1288    2.4805 O   0  0  0  0  0  0  0  0  0  0  0  0
   -1.4759    0.4743    3.0595 N   0  0  0  0  0  0  0  0  0  0  0  0
   -2.4132    0.6318    2.7275 H   0  0  0  0  0  0  0  0  0  0  0  0
   -1.1971    0.7118    4.4750 C   0  0  0  0  0  0  0  0  0  0  0  0
   -0.3779    1.4272    4.5748 H   0  0  0  0  0  0  0  0  0  0  0  0
   -2.0826    1.1064    4.9754 H   0  0  0  0  0  0  0  0  0  0  0  0
   -0.8992   -0.2240    4.9525 H   0  0  0  0  0  0  0  0  0  0  0  0
  5  6  2  0  0  0  0
  5  7  1  0  0  0  0
  2  3  1  0  0  0  0
  2  4  1  0  0  0  0
  2  5  1  0  0  0  0
  1  2  1  0  0  0  0
 26 27  2  0  0  0  0
 26 28  1  0  0  0  0
 23 24  1  0  0  0  0
 23 25  1  0  0  0  0
 20 21  1  0  0  0  0
 20 22  1  0  0  0  0
 20 23  1  0  0  0  0
 17 18  1  0  0  0  0
 17 19  1  0  0  0  0
 17 20  1  0  0  0  0
 14 15  1  0  0  0  0
 14 16  1  0  0  0  0
 14 17  1  0  0  0  0
 11 12  1  0  0  0  0
 11 13  1  0  0  0  0
 11 14  1  0  0  0  0
  9 10  1  0  0  0  0
  9 11  1  0  0  0  0
  9 26  1  0  0  0  0
  7  8  1  0  0  0  0
  7  9  1  0  0  0  0
 30 31  1  0  0  0  0
 30 32  1  0  0  0  0
 30 33  1  0  0  0  0
 28 29  1  0  0  0  0
 28 30  1  0  0  0  0
M  END
$$$$
default_name
  -OEChem-02102213163D

 33 32  0     1  0  0  0  0  0999 V2000
   -3.8420   -3.6918    1.5562 H   0  0  0  0  0  0  0  0  0  0  0  0
   -3.8430   -2.7008    1.1032 C   0  0  0  0  0  0  0  0  0  0  0  0
   -4.5510   -2.0608    1.6242 H   0  0  0  0  0  0  0  0  0  0  0  0
   -4.1140   -2.7798    0.0522 H   0  0  0  0  0  0  0  0  0  0  0  0
   -2.4570   -2.1098    1.2172 C   0  0  0  0  0  0  0  0  0  0  0  0
   -1.5600   -2.7438    1.7572 O   0  0  0  0  0  0  0  0  0  0  0  0
   -2.2870   -0.8898    0.7102 N   0  0  0  0  0  0  0  0  0  0  0  0
   -3.0820   -0.4218    0.2992 H   0  0  0  0  0  0  0  0  0  0  0  0
   -1.0240   -0.1468    0.7262 C   0  0  1  0  0  0  0  0  0  0  0  0
   -0.2680   -0.7367    0.2062 H   0  0  0  0  0  0  0  0  0  0  0  0
   -1.2212    1.1806   -0.0314 C   0  0  0  0  0  0  0  0  0  0  0  0
   -0.3693    1.3296   -0.6981 H   0  0  0  0  0  0  0  0  0  0  0  0
   -2.1235    1.1162   -0.6411 H   0  0  0  0  0  0  0  0  0  0  0  0
   -1.3231    2.4012    0.8966 C   0  0  0  0  0  0  0  0  0  0  0  0
   -0.3291    2.8161    1.0661 H   0  0  0  0  0  0  0  0  0  0  0  0
   -1.9512    3.1592    0.4251 H   0  0  0  0  0  0  0  0  0  0  0  0
   -1.9320    2.0117    2.2484 C   0  0  0  0  0  0  0  0  0  0  0  0
   -2.9245    1.5873    2.0946 H   0  0  0  0  0  0  0  0  0  0  0  0
   -1.2952    1.2719    2.7343 H   0  0  0  0  0  0  0  0  0  0  0  0
   -2.0446    3.2460    3.1411 C   0  0  0  0  0  0  0  0  0  0  0  0
   -1.0524    3.6608    3.3113 H   0  0  0  0  0  0  0  0  0  0  0  0
   -2.6657    3.9929    2.6495 H   0  0  0  0  0  0  0  0  0  0  0  0
   -2.6467    2.9124    4.4371 N   0  0  0  0  0  0  0  0  0  0  0  0
   -2.6928    3.7459    5.0046 H   0  0  0  0  0  0  0  0  0  0  0  0
   -3.5801    2.5567    4.2870 H   0  0  0  0  0  0  0  0  0  0  0  0
   -0.5564    0.0727    2.1744 C   0  0  0  0  0  0  0  0  0  0  0  0
    0.6169   -0.1288    2.4805 O   0  0  0  0  0  0  0  0  0  0  0  0
   -1.4759    0.4743    3.0595 N   0  0  0  0  0  0  0  0  0  0  0  0
   -2.4132    0.6318    2.7275 H   0  0  0  0  0  0  0  0  0  0  0  0
   -1.1971    0.7118    4.4750 C   0  0  0  0  0  0  0  0  0  0  0  0
   -0.3779    1.4272    4.5748 H   0  0  0  0  0  0  0  0  0  0  0  0
   -2.0826    1.1064    4.9754 H   0  0  0  0  0  0  0  0  0  0  0  0
   -0.8992   -0.2240    4.9525 H   0  0  0  0  0  0  0  0  0  0  0  0
  5  6  2  0  0  0  0
  5  7  1  0  0  0  0
  2  3  1  0  0  0  0
  2  4  1  0  0  0  0
  2  5  1  0  0  0  0
  1  2  1  0  0  0  0
 26 27  2  0  0  0  0
 26 28  1  0  0  0  0
 23 24  1  0  0  0  0
 23 25  1  0  0  0  0
 20 21  1  0  0  0  0
 20 22  1  0  0  0  0
 20 23  1  0  0  0  0
 17 18  1  0  0  0  0
 17 19  1  0  0  0  0
 17 20  1  0  0  0  0
 14 15  1  0  0  0  0
 14 16  1  0  0  0  0
 14 17  1  0  0  0  0
 11 12  1  0  0  0  0
 11 13  1  0  0  0  0
 11 14  1  0  0  0  0
  9 10  1  0  0  0  0
  9 11  1  0  0  0  0
  9 26  1  0  0  0  0
  7  8  1  0  0  0  0
  7  9  1  0  0  0  0
 30 31  1  0  0  0  0
 30 32  1  0  0  0  0
 30 33  1  0  0  0  0
 28 29  1  0  0  0  0
 28 30  1  0  0  0  0
M  END
$$$$
default_name
  -OEChem-02102213163D

 33 32  0     1  0  0  0  0  0999 V2000
   -3.8420   -3.6918    1.5562 H   0  0  0  0  0  0  0  0  0  0  0  0
   -3.8430   -2.7008    1.1032 C   0  0  0  0  0  0  0  0  0  0  0  0
   -4.5510   -2.0608    1.6242 H   0  0  0  0  0  0  0  0  0  0  0  0
   -4.1140   -2.7798    0.0522 H   0  0  0  0  0  0  0  0  0  0  0  0
   -2.4570   -2.1098    1.2172 C   0  0  0  0  0  0  0  0  0  0  0  0
   -1.5600   -2.7438    1.7572 O   0  0  0  0  0  0  0  0  0  0  0  0
   -2.2870   -0.8898    0.7102 N   0  0  0  0  0  0  0  0  0  0  0  0
   -3.0820   -0.4218    0.2992 H   0  0  0  0  0  0  0  0  0  0  0  0
   -1.0240   -0.1468    0.7262 C   0  0  1  0  0  0  0  0  0  0  0  0
   -0.2680   -0.7367    0.2062 H   0  0  0  0  0  0  0  0  0  0  0  0
   -1.2212    1.1806   -0.0314 C   0  0  0  0  0  0  0  0  0  0  0  0
   -0.3693    1.3296   -0.6981 H   0  0  0  0  0  0  0  0  0  0  0  0
   -2.1235    1.1162   -0.6411 H   0  0  0  0  0  0  0  0  0  0  0  0
   -1.3231    2.4012    0.8966 C   0  0  0  0  0  0  0  0  0  0  0  0
   -0.3938    2.9702    0.8564 H   0  0  0  0  0  0  0  0  0  0  0  0
   -2.1460    3.0368    0.5646 H   0  0  0  0  0  0  0  0  0  0  0  0
   -1.5737    1.9678    2.3454 C   0  0  0  0  0  0  0  0  0  0  0  0
   -2.4969    1.3902    2.4007 H   0  0  0  0  0  0  0  0  0  0  0  0
   -0.7423    1.3520    2.6897 H   0  0  0  0  0  0  0  0  0  0  0  0
   -1.6953    3.1991    3.2411 C   0  0  0  0  0  0  0  0  0  0  0  0
   -0.7676    3.7677    3.2020 H   0  0  0  0  0  0  0  0  0  0  0  0
   -2.5139    3.8242    2.8881 H   0  0  0  0  0  0  0  0  0  0  0  0
   -1.9596    2.8201    4.6339 N   0  0  0  0  0  0  0  0  0  0  0  0
   -2.0200    3.6550    5.1980 H   0  0  0  0  0  0  0  0  0  0  0  0
   -2.8358    2.3196    4.6806 H   0  0  0  0  0  0  0  0  0  0  0  0
   -0.5564    0.0727    2.1744 C   0  0  0  0  0  0  0  0  0  0  0  0
    0.6169   -0.1288    2.4805 O   0  0  0  0  0  0  0  0  0  0  0  0
   -1.4759    0.4743    3.0595 N   0  0  0  0  0  0  0  0  0  0  0  0
   -2.4132    0.6318    2.7275 H   0  0  0  0  0  0  0  0  0  0  0  0
   -1.1971    0.7118    4.4750 C   0  0  0  0  0  0  0  0  0  0  0  0
   -0.3779    1.4272    4.5748 H   0  0  0  0  0  0  0  0  0  0  0  0
   -2.0826    1.1064    4.9754 H   0  0  0  0  0  0  0  0  0  0  0  0
   -0.8992   -0.2240    4.9525 H   0  0  0  0  0  0  0  0  0  0  0  0
  5  6  2  0  0  0  0
  5  7  1  0  0  0  0
  2  3  1  0  0  0  0
  2  4  1  0  0  0  0
  2  5  1  0  0  0  0
  1  2  1  0  0  0  0
 26 27  2  0  0  0  0
 26 28  1  0  0  0  0
 23 24  1  0  0  0  0
 23 25  1  0  0  0  0
 20 21  1  0  0  0  0
 20 22  1  0  0  0  0
 20 23  1  0  0  0  0
 17 18  1  0  0  0  0
 17 19  1  0  0  0  0
 17 20  1  0  0  0  0
 14 15  1  0  0  0  0
 14 16  1  0  0  0  0
 14 17  1  0  0  0  0
 11 12  1  0  0  0  0
 11 13  1  0  0  0  0
 11 14  1  0  0  0  0
  9 10  1  0  0  0  0
  9 11  1  0  0  0  0
  9 26  1  0  0  0  0
  7  8  1  0  0  0  0
  7  9  1  0  0  0  0
 30 31  1  0  0  0  0
 30 32  1  0  0  0  0
 30 33  1  0  0  0  0
 28 29  1  0  0  0  0
 28 30  1  0  0  0  0
M  END
$$$$
default_name
  -OEChem-02102213163D

 33 32  0     1  0  0  0  0  0999 V2000
   -3.8420   -3.6918    1.5562 H   0  0  0  0  0  0  0  0  0  0  0  0
   -3.8430   -2.7008    1.1032 C   0  0  0  0  0  0  0  0  0  0  0  0
   -4.5510   -2.0608    1.6242 H   0  0  0  0  0  0  0  0  0  0  0  0
   -4.1140   -2.7798    0.0522 H   0  0  0  0  0  0  0  0  0  0  0  0
   -2.4570   -2.1098    1.2172 C   0  0  0  0  0  0  0  0  0  0  0  0
   -1.5600   -2.7438    1.7572 O   0  0  0  0  0  0  0  0  0  0  0  0
   -2.2870   -0.8898    0.7102 N   0  0  0  0  0  0  0  0  0  0  0  0
   -3.0820   -0.4218    0.2992 H   0  0  0  0  0  0  0  0  0  0  0  0
   -1.0240   -0.1468    0.7262 C   0  0  1  0  0  0  0  0  0  0  0  0
   -0.2680   -0.7367    0.2062 H   0  0  0  0  0  0  0  0  0  0  0  0
   -1.2212    1.1806   -0.0314 C   0  0  0  0  0  0  0  0  0  0  0  0
   -0.3693    1.3296   -0.6981 H   0  0  0  0  0  0  0  0  0  0  0  0
   -2.1235    1.1162   -0.6411 H   0  0  0  0  0  0  0  0  0  0  0  0
   -1.3231    2.4012    0.8966 C   0  0  0  0  0  0  0  0  0  0  0  0
   -0.5235    3.1052    0.6645 H   0  0  0  0  0  0  0  0  0  0  0  0
   -2.2864    2.8905    0.7416 H   0  0  0  0  0  0  0  0  0  0  0  0
   -1.2008    1.9831    2.3663 C   0  0  0  0  0  0  0  0  0  0  0  0
   -1.9901    1.2719    2.6119 H   0  0  0  0  0  0  0  0  0  0  0  0
   -0.2299    1.5150    2.5315 H   0  0  0  0  0  0  0  0  0  0  0  0
   -1.3301    3.2101    3.2668 C   0  0  0  0  0  0  0  0  0  0  0  0
   -0.5317    3.9136    3.0360 H   0  0  0  0  0  0  0  0  0  0  0  0
   -2.2918    3.6890    3.0902 H   0  0  0  0  0  0  0  0  0  0  0  0
   -1.2410    2.8417    4.6844 N   0  0  0  0  0  0  0  0  0  0  0  0
   -1.3161    3.6757    5.2481 H   0  0  0  0  0  0  0  0  0  0  0  0
   -1.9988    2.2137    4.9118 H   0  0  0  0  0  0  0  0  0  0  0  0
   -0.5564    0.0727    2.1744 C   0  0  0  0  0  0  0  0  0  0  0  0
    0.6169   -0.1288    2.4805 O   0  0  0  0  0  0  0  0  0  0  0  0
   -1.4759    0.4743    3.0595 N   0  0  0  0  0  0  0  0  0  0  0  0
   -2.4132    0.6318    2.7275 H   0  0  0  0  0  0  0  0  0  0  0  0
   -1.1971    0.7118    4.4750 C   0  0  0  0  0  0  0  0  0  0  0  0
   -0.3779    1.4272    4.5748 H   0  0  0  0  0  0  0  0  0  0  0  0
   -2.0826    1.1064    4.9754 H   0  0  0  0  0  0  0  0  0  0  0  0
   -0.8992   -0.2240    4.9525 H   0  0  0  0  0  0  0  0  0  0  0  0
  5  6  2  0  0  0  0
  5  7  1  0  0  0  0
  2  3  1  0  0  0  0
  2  4  1  0  0  0  0
  2  5  1  0  0  0  0
  1  2  1  0  0  0  0
 26 27  2  0  0  0  0
 26 28  1  0  0  0  0
 23 24  1  0  0  0  0
 23 25  1  0  0  0  0
 20 21  1  0  0  0  0
 20 22  1  0  0  0  0
 20 23  1  0  0  0  0
 17 18  1  0  0  0  0
 17 19  1  0  0  0  0
 17 20  1  0  0  0  0
 14 15  1  0  0  0  0
 14 16  1  0  0  0  0
 14 17  1  0  0  0  0
 11 12  1  0  0  0  0
 11 13  1  0  0  0  0
 11 14  1  0  0  0  0
  9 10  1  0  0  0  0
  9 11  1  0  0  0  0
  9 26  1  0  0  0  0
  7  8  1  0  0  0  0
  7  9  1  0  0  0  0
 30 31  1  0  0  0  0
 30 32  1  0  0  0  0
 30 33  1  0  0  0  0
 28 29  1  0  0  0  0
 28 30  1  0  0  0  0
M  END
$$$$
default_name
  -OEChem-02102213163D

 33 32  0     1  0  0  0  0  0999 V2000
   -3.8420   -3.6918    1.5562 H   0  0  0  0  0  0  0  0  0  0  0  0
   -3.8430   -2.7008    1.1032 C   0  0  0  0  0  0  0  0  0  0  0  0
   -4.5510   -2.0608    1.6242 H   0  0  0  0  0  0  0  0  0  0  0  0
   -4.1140   -2.7798    0.0522 H   0  0  0  0  0  0  0  0  0  0  0  0
   -2.4570   -2.1098    1.2172 C   0  0  0  0  0  0  0  0  0  0  0  0
   -1.5600   -2.7438    1.7572 O   0  0  0  0  0  0  0  0  0  0  0  0
   -2.2870   -0.8898    0.7102 N   0  0  0  0  0  0  0  0  0  0  0  0
   -3.0820   -0.4218    0.2992 H   0  0  0  0  0  0  0  0  0  0  0  0
   -1.0240   -0.1468    0.7262 C   0  0  1  0  0  0  0  0  0  0  0  0
   -0.2680   -0.7367    0.2062 H   0  0  0  0  0  0  0  0  0  0  0  0
   -1.2212    1.1806   -0.0314 C   0  0  0  0  0  0  0  0  0  0  0  0
   -0.3693    1.3296   -0.6981 H   0  0  0  0  0  0  0  0  0  0  0  0
   -2.1235    1.1162   -0.6411 H   0  0  0  0  0  0  0  0  0  0  0  0
   -1.3231    2.4012    0.8966 C   0  0  0  0  0  0  0  0  0  0  0  0
   -0.7094    3.2122    0.5035 H   0  0  0  0  0  0  0  0  0  0  0  0
   -2.3627    2.7303    0.9439 H   0  0  0  0  0  0  0  0  0  0  0  0
   -0.8387    2.0565    2.3095 C   0  0  0  0  0  0  0  0  0  0  0  0
   -1.4386    1.2406    2.7137 H   0  0  0  0  0  0  0  0  0  0  0  0
    0.2070    1.7498    2.2706 H   0  0  0  0  0  0  0  0  0  0  0  0
   -0.9737    3.2782    3.2163 C   0  0  0  0  0  0  0  0  0  0  0  0
   -0.3608    4.0885    2.8247 H   0  0  0  0  0  0  0  0  0  0  0  0
   -2.0145    3.5967    3.2422 H   0  0  0  0  0  0  0  0  0  0  0  0
   -0.5399    2.9757    4.5851 N   0  0  0  0  0  0  0  0  0  0  0  0
   -0.6292    3.8065    5.1515 H   0  0  0  0  0  0  0  0  0  0  0  0
   -1.1263    2.2462    4.9649 H   0  0  0  0  0  0  0  0  0  0  0  0
   -0.5564    0.0727    2.1744 C   0  0  0  0  0  0  0  0  0  0  0  0
    0.6169   -0.1288    2.4805 O   0  0  0  0  0  0  0  0  0  0  0  0
   -1.4759    0.4743    3.0595 N   0  0  0  0  0  0  0  0  0  0  0  0
   -2.4132    0.6318    2.7275 H   0  0  0  0  0  0  0  0  0  0  0  0
   -1.1971    0.7118    4.4750 C   0  0  0  0  0  0  0  0  0  0  0  0
   -0.3779    1.4272    4.5748 H   0  0  0  0  0  0  0  0  0  0  0  0
   -2.0826    1.1064    4.9754 H   0  0  0  0  0  0  0  0  0  0  0  0
   -0.8992   -0.2240    4.9525 H   0  0  0  0  0  0  0  0  0  0  0  0
  5  6  2  0  0  0  0
  5  7  1  0  0  0  0
  2  3  1  0  0  0  0
  2  4  1  0  0  0  0
  2  5  1  0  0  0  0
  1  2  1  0  0  0  0
 26 27  2  0  0  0  0
 26 28  1  0  0  0  0
 23 24  1  0  0  0  0
 23 25  1  0  0  0  0
 20 21  1  0  0  0  0
 20 22  1  0  0  0  0
 20 23  1  0  0  0  0
 17 18  1  0  0  0  0
 17 19  1  0  0  0  0
 17 20  1  0  0  0  0
 14 15  1  0  0  0  0
 14 16  1  0  0  0  0
 14 17  1  0  0  0  0
 11 12  1  0  0  0  0
 11 13  1  0  0  0  0
 11 14  1  0  0  0  0
  9 10  1  0  0  0  0
  9 11  1  0  0  0  0
  9 26  1  0  0  0  0
  7  8  1  0  0  0  0
  7  9  1  0  0  0  0
 30 31  1  0  0  0  0
 30 32  1  0  0  0  0
 30 33  1  0  0  0  0
 28 29  1  0  0  0  0
 28 30  1  0  0  0  0
M  END
$$$$
default_name
  -OEChem-02102213163D

 33 32  0     1  0  0  0  0  0999 V2000
   -3.8420   -3.6918    1.5562 H   0  0  0  0  0  0  0  0  0  0  0  0
   -3.8430   -2.7008    1.1032 C   0  0  0  0  0  0  0  0  0  0  0  0
   -4.5510   -2.0608    1.6242 H   0  0  0  0  0  0  0  0  0  0  0  0
   -4.1140   -2.7798    0.0522 H   0  0  0  0  0  0  0  0  0  0  0  0
   -2.4570   -2.1098    1.2172 C   0  0  0  0  0  0  0  0  0  0  0  0
   -1.5600   -2.7438    1.7572 O   0  0  0  0  0  0  0  0  0  0  0  0
   -2.2870   -0.8898    0.7102 N   0  0  0  0  0  0  0  0  0  0  0  0
   -3.0820   -0.4218    0.2992 H   0  0  0  0  0  0  0  0  0  0  0  0
   -1.0240   -0.1468    0.7262 C   0  0  1  0  0  0  0  0  0  0  0  0
   -0.2680   -0.7367    0.2062 H   0  0  0  0  0  0  0  0  0  0  0  0
   -1.2212    1.1806   -0.0314 C   0  0  0  0  0  0  0  0  0  0  0  0
   -0.3693    1.3296   -0.6981 H   0  0  0  0  0  0  0  0  0  0  0  0
   -2.1235    1.1162   -0.6411 H   0  0  0  0  0  0  0  0  0  0  0  0
   -1.3231    2.4012    0.8966 C   0  0  0  0  0  0  0  0  0  0  0  0
   -0.9387    3.2836    0.3843 H   0  0  0  0  0  0  0  0  0  0  0  0
   -2.3698    2.5672    1.1578 H   0  0  0  0  0  0  0  0  0  0  0  0
   -0.5121    2.1830    2.1790 C   0  0  0  0  0  0  0  0  0  0  0  0
   -0.8801    1.2982    2.6992 H   0  0  0  0  0  0  0  0  0  0  0  0
    0.5386    2.0404    1.9248 H   0  0  0  0  0  0  0  0  0  0  0  0
   -0.6505    3.3989    3.0930 C   0  0  0  0  0  0  0  0  0  0  0  0
   -0.2664    4.2806    2.5825 H   0  0  0  0  0  0  0  0  0  0  0  0
   -1.7011    3.5534    3.3335 H   0  0  0  0  0  0  0  0  0  0  0  0
    0.0959    3.2131    4.3427 N   0  0  0  0  0  0  0  0  0  0  0  0
   -0.0060    4.0386    4.9146 H   0  0  0  0  0  0  0  0  0  0  0  0
   -0.2777    2.4148    4.8362 H   0  0  0  0  0  0  0  0  0  0  0  0
   -0.5564    0.0727    2.1744 C   0  0  0  0  0  0  0  0  0  0  0  0
    0.6169   -0.1288    2.4805 O   0  0  0  0  0  0  0  0  0  0  0  0
   -1.4759    0.4743    3.0595 N   0  0  0  0  0  0  0  0  0  0  0  0
   -2.4132    0.6318    2.7275 H   0  0  0  0  0  0  0  0  0  0  0  0
   -1.1971    0.7118    4.4750 C   0  0  0  0  0  0  0  0  0  0  0  0
   -0.3779    1.4272    4.5748 H   0  0  0  0  0  0  0  0  0  0  0  0
   -2.0826    1.1064    4.9754 H   0  0  0  0  0  0  0  0  0  0  0  0
   -0.8992   -0.2240    4.9525 H   0  0  0  0  0  0  0  0  0  0  0  0
  5  6  2  0  0  0  0
  5  7  1  0  0  0  0
  2  3  1  0  0  0  0
  2  4  1  0  0  0  0
  2  5  1  0  0  0  0
  1  2  1  0  0  0  0
 26 27  2  0  0  0  0
 26 28  1  0  0  0  0
 23 24  1  0  0  0  0
 23 25  1  0  0  0  0
 20 21  1  0  0  0  0
 20 22  1  0  0  0  0
 20 23  1  0  0  0  0
 17 18  1  0  0  0  0
 17 19  1  0  0  0  0
 17 20  1  0  0  0  0
 14 15  1  0  0  0  0
 14 16  1  0  0  0  0
 14 17  1  0  0  0  0
 11 12  1  0  0  0  0
 11 13  1  0  0  0  0
 11 14  1  0  0  0  0
  9 10  1  0  0  0  0
  9 11  1  0  0  0  0
  9 26  1  0  0  0  0
  7  8  1  0  0  0  0
  7  9  1  0  0  0  0
 30 31  1  0  0  0  0
 30 32  1  0  0  0  0
 30 33  1  0  0  0  0
 28 29  1  0  0  0  0
 28 30  1  0  0  0  0
M  END
$$$$
default_name
  -OEChem-02102213163D

 33 32  0     1  0  0  0  0  0999 V2000
   -3.8420   -3.6918    1.5562 H   0  0  0  0  0  0  0  0  0  0  0  0
   -3.8430   -2.7008    1.1032 C   0  0  0  0  0  0  0  0  0  0  0  0
   -4.5510   -2.0608    1.6242 H   0  0  0  0  0  0  0  0  0  0  0  0
   -4.1140   -2.7798    0.0522 H   0  0  0  0  0  0  0  0  0  0  0  0
   -2.4570   -2.1098    1.2172 C   0  0  0  0  0  0  0  0  0  0  0  0
   -1.5600   -2.7438    1.7572 O   0  0  0  0  0  0  0  0  0  0  0  0
   -2.2870   -0.8898    0.7102 N   0  0  0  0  0  0  0  0  0  0  0  0
   -3.0820   -0.4218    0.2992 H   0  0  0  0  0  0  0  0  0  0  0  0
   -1.0240   -0.1468    0.7262 C   0  0  1  0  0  0  0  0  0  0  0  0
   -0.2680   -0.7367    0.2062 H   0  0  0  0  0  0  0  0  0  0  0  0
   -1.2212    1.1806   -0.0314 C   0  0  0  0  0  0  0  0  0  0  0  0
   -0.3693    1.3296   -0.6981 H   0  0  0  0  0  0  0  0  0  0  0  0
   -2.1235    1.1162   -0.6411 H   0  0  0  0  0  0  0  0  0  0  0  0
   -1.3231    2.4012    0.8966 C   0  0  0  0  0  0  0  0  0  0  0  0
   -1.1958    3.3147    0.3151 H   0  0  0  0  0  0  0  0  0  0  0  0
   -2.3072    2.4121    1.3686 H   0  0  0  0  0  0  0  0  0  0  0  0
   -0.2432    2.3540    1.9835 C   0  0  0  0  0  0  0  0  0  0  0  0
   -0.3527    1.4409    2.5694 H   0  0  0  0  0  0  0  0  0  0  0  0
    0.7425    2.3671    1.5176 H   0  0  0  0  0  0  0  0  0  0  0  0
   -0.3825    3.5639    2.9055 C   0  0  0  0  0  0  0  0  0  0  0  0
   -0.2551    4.4767    2.3258 H   0  0  0  0  0  0  0  0  0  0  0  0
   -1.3728    3.5621    3.3580 H   0  0  0  0  0  0  0  0  0  0  0  0
    0.6232    3.5376    3.9738 N   0  0  0  0  0  0  0  0  0  0  0  0
    0.5109    4.3561    4.5537 H   0  0  0  0  0  0  0  0  0  0  0  0
    0.4892    2.7082    4.5346 H   0  0  0  0  0  0  0  0  0  0  0  0
   -0.5564    0.0727    2.1744 C   0  0  0  0  0  0  0  0  0  0  0  0
    0.6169   -0.1288    2.4805 O   0  0  0  0  0  0  0  0  0  0  0  0
   -1.4759    0.4743    3.0595 N   0  0  0  0  0  0  0  0  0  0  0  0
   -2.4132    0.6318    2.7275 H   0  0  0  0  0  0  0  0  0  0  0  0
   -1.1971    0.7118    4.4750 C   0  0  0  0  0  0  0  0  0  0  0  0
   -0.3779    1.4272    4.5748 H   0  0  0  0  0  0  0  0  0  0  0  0
   -2.0826    1.1064    4.9754 H   0  0  0  0  0  0  0  0  0  0  0  0
   -0.8992   -0.2240    4.9525 H   0  0  0  0  0  0  0  0  0  0  0  0
  5  6  2  0  0  0  0
  5  7  1  0  0  0  0
  2  3  1  0  0  0  0
  2  4  1  0  0  0  0
  2  5  1  0  0  0  0
  1  2  1  0  0  0  0
 26 27  2  0  0  0  0
 26 28  1  0  0  0  0
 23 24  1  0  0  0  0
 23 25  1  0  0  0  0
 20 21  1  0  0  0  0
 20 22  1  0  0  0  0
 20 23  1  0  0  0  0
 17 18  1  0  0  0  0
 17 19  1  0  0  0  0
 17 20  1  0  0  0  0
 14 15  1  0  0  0  0
 14 16  1  0  0  0  0
 14 17  1  0  0  0  0
 11 12  1  0  0  0  0
 11 13  1  0  0  0  0
 11 14  1  0  0  0  0
  9 10  1  0  0  0  0
  9 11  1  0  0  0  0
  9 26  1  0  0  0  0
  7  8  1  0  0  0  0
  7  9  1  0  0  0  0
 30 31  1  0  0  0  0
 30 32  1  0  0  0  0
 30 33  1  0  0  0  0
 28 29  1  0  0  0  0
 28 30  1  0  0  0  0
M  END
$$$$
default_name
  -OEChem-02102213163D

 33 32  0     1  0  0  0  0  0999 V2000
   -3.8420   -3.6918    1.5562 H   0  0  0  0  0  0  0  0  0  0  0  0
   -3.8430   -2.7008    1.1032 C   0  0  0  0  0  0  0  0  0  0  0  0
   -4.5510   -2.0608    1.6242 H   0  0  0  0  0  0  0  0  0  0  0  0
   -4.1140   -2.7798    0.0522 H   0  0  0  0  0  0  0  0  0  0  0  0
   -2.4570   -2.1098    1.2172 C   0  0  0  0  0  0  0  0  0  0  0  0
   -1.5600   -2.7438    1.7572 O   0  0  0  0  0  0  0  0  0  0  0  0
   -2.2870   -0.8898    0.7102 N   0  0  0  0  0  0  0  0  0  0  0  0
   -3.0820   -0.4218    0.2992 H   0  0  0  0  0  0  0  0  0  0  0  0
   -1.0240   -0.1468    0.7262 C   0  0  1  0  0  0  0  0  0  0  0  0
   -0.2680   -0.7367    0.2062 H   0  0  0  0  0  0  0  0  0  0  0  0
   -1.2212    1.1806   -0.0314 C   0  0  0  0  0  0  0  0  0  0  0  0
   -0.3693    1.3296   -0.6981 H   0  0  0  0  0  0  0  0  0  0  0  0
   -2.1235    1.1162   -0.6411 H   0  0  0  0  0  0  0  0  0  0  0  0
   -1.3231    2.4012    0.8966 C   0  0  0  0  0  0  0  0  0  0  0  0
   -1.4633    3.3034    0.3006 H   0  0  0  0  0  0  0  0  0  0  0  0
   -2.1792    2.2757    1.5620 H   0  0  0  0  0  0  0  0  0  0  0  0
   -0.0504    2.5579    1.7366 C   0  0  0  0  0  0  0  0  0  0  0  0
    0.1079    1.6590    2.3332 H   0  0  0  0  0  0  0  0  0  0  0  0
    0.8046    2.7074    1.0767 H   0  0  0  0  0  0  0  0  0  0  0  0
   -0.1880    3.7619    2.6664 C   0  0  0  0  0  0  0  0  0  0  0  0
   -0.3276    4.6635    2.0721 H   0  0  0  0  0  0  0  0  0  0  0  0
   -1.0520    3.6223    3.3141 H   0  0  0  0  0  0  0  0  0  0  0  0
    1.0059    3.9271    3.5035 N   0  0  0  0  0  0  0  0  0  0  0  0
    0.8865    4.7375    4.0935 H   0  0  0  0  0  0  0  0  0  0  0  0
    1.1221    3.1062    4.0805 H   0  0  0  0  0  0  0  0  0  0  0  0
   -0.5564    0.0727    2.1744 C   0  0  0  0  0  0  0  0  0  0  0  0
    0.6169   -0.1288    2.4805 O   0  0  0  0  0  0  0  0  0  0  0  0
   -1.4759    0.4743    3.0595 N   0  0  0  0  0  0  0  0  0  0  0  0
   -2.4132    0.6318    2.7275 H   0  0  0  0  0  0  0  0  0  0  0  0
   -1.1971    0.7118    4.4750 C   0  0  0  0  0  0  0  0  0  0  0  0
   -0.3779    1.4272    4.5748 H   0  0  0  0  0  0  0  0  0  0  0  0
   -2.0826    1.1064    4.9754 H   0  0  0  0  0  0  0  0  0  0  0  0
   -0.8992   -0.2240    4.9525 H   0  0  0  0  0  0  0  0  0  0  0  0
  5  6  2  0  0  0  0
  5  7  1  0  0  0  0
  2  3  1  0  0  0  0
  2  4  1  0  0  0  0
  2  5  1  0  0  0  0
  1  2  1  0  0  0  0
 26 27  2  0  0  0  0
 26 28  1  0  0  0  0
 23 24  1  0  0  0  0
 23 25  1  0  0  0  0
 20 21  1  0  0  0  0
 20 22  1  0  0  0  0
 20 23  1  0  0  0  0
 17 18  1  0  0  0  0
 17 19  1  0  0  0  0
 17 20  1  0  0  0  0
 14 15  1  0  0  0  0
 14 16  1  0  0  0  0
 14 17  1  0  0  0  0
 11 12  1  0  0  0  0
 11 13  1  0  0  0  0
 11 14  1  0  0  0  0
  9 10  1  0  0  0  0
  9 11  1  0  0  0  0
  9 26  1  0  0  0  0
  7  8  1  0  0  0  0
  7  9  1  0  0  0  0
 30 31  1  0  0  0  0
 30 32  1  0  0  0  0
 30 33  1  0  0  0  0
 28 29  1  0  0  0  0
 28 30  1  0  0  0  0
M  END
$$$$
default_name
  -OEChem-02102213163D

 33 32  0     1  0  0  0  0  0999 V2000
   -3.8420   -3.6918    1.5562 H   0  0  0  0  0  0  0  0  0  0  0  0
   -3.8430   -2.7008    1.1032 C   0  0  0  0  0  0  0  0  0  0  0  0
   -4.5510   -2.0608    1.6242 H   0  0  0  0  0  0  0  0  0  0  0  0
   -4.1140   -2.7798    0.0522 H   0  0  0  0  0  0  0  0  0  0  0  0
   -2.4570   -2.1098    1.2172 C   0  0  0  0  0  0  0  0  0  0  0  0
   -1.5600   -2.7438    1.7572 O   0  0  0  0  0  0  0  0  0  0  0  0
   -2.2870   -0.8898    0.7102 N   0  0  0  0  0  0  0  0  0  0  0  0
   -3.0820   -0.4218    0.2992 H   0  0  0  0  0  0  0  0  0  0  0  0
   -1.0240   -0.1468    0.7262 C   0  0  1  0  0  0  0  0  0  0  0  0
   -0.2680   -0.7367    0.2062 H   0  0  0  0  0  0  0  0  0  0  0  0
   -1.2212    1.1806   -0.0314 C   0  0  0  0  0  0  0  0  0  0  0  0
   -0.3693    1.3296   -0.6981 H   0  0  0  0  0  0  0  0  0  0  0  0
   -2.1235    1.1162   -0.6411 H   0  0  0  0  0  0  0  0  0  0  0  0
   -1.3231    2.4012    0.8966 C   0  0  0  0  0  0  0  0  0  0  0  0
   -1.7229    3.2504    0.3418 H   0  0  0  0  0  0  0  0  0  0  0  0
   -1.9944    2.1673    1.7249 H   0  0  0  0  0  0  0  0  0  0  0  0
    0.0532    2.7807    1.4549 C   0  0  0  0  0  0  0  0  0  0  0  0
    0.4700    1.9375    2.0066 H   0  0  0  0  0  0  0  0  0  0  0  0
    0.7208    3.0384    0.6322 H   0  0  0  0  0  0  0  0  0  0  0  0
   -0.0802    3.9794    2.3921 C   0  0  0  0  0  0  0  0  0  0  0  0
   -0.4790    4.8282    1.8388 H   0  0  0  0  0  0  0  0  0  0  0  0
   -0.7605    3.7299    3.2046 H   0  0  0  0  0  0  0  0  0  0  0  0
    1.2180    4.3551    2.9639 N   0  0  0  0  0  0  0  0  0  0  0  0
    1.0950    5.1566    3.5651 H   0  0  0  0  0  0  0  0  0  0  0  0
    1.5779    3.5818    3.5050 H   0  0  0  0  0  0  0  0  0  0  0  0
   -0.5564    0.0727    2.1744 C   0  0  0  0  0  0  0  0  0  0  0  0
    0.6169   -0.1288    2.4805 O   0  0  0  0  0  0  0  0  0  0  0  0
   -1.4759    0.4743    3.0595 N   0  0  0  0  0  0  0  0  0  0  0  0
   -2.4132    0.6318    2.7275 H   0  0  0  0  0  0  0  0  0  0  0  0
   -1.1971    0.7118    4.4750 C   0  0  0  0  0  0  0  0  0  0  0  0
   -0.3779    1.4272    4.5748 H   0  0  0  0  0  0  0  0  0  0  0  0
   -2.0826    1.1064    4.9754 H   0  0  0  0  0  0  0  0  0  0  0  0
   -0.8992   -0.2240    4.9525 H   0  0  0  0  0  0  0  0  0  0  0  0
  5  6  2  0  0  0  0
  5  7  1  0  0  0  0
  2  3  1  0  0  0  0
  2  4  1  0  0  0  0
  2  5  1  0  0  0  0
  1  2  1  0  0  0  0
 26 27  2  0  0  0  0
 26 28  1  0  0  0  0
 23 24  1  0  0  0  0
 23 25  1  0  0  0  0
 20 21  1  0  0  0  0
 20 22  1  0  0  0  0
 20 23  1  0  0  0  0
 17 18  1  0  0  0  0
 17 19  1  0  0  0  0
 17 20  1  0  0  0  0
 14 15  1  0  0  0  0
 14 16  1  0  0  0  0
 14 17  1  0  0  0  0
 11 12  1  0  0  0  0
 11 13  1  0  0  0  0
 11 14  1  0  0  0  0
  9 10  1  0  0  0  0
  9 11  1  0  0  0  0
  9 26  1  0  0  0  0
  7  8  1  0  0  0  0
  7  9  1  0  0  0  0
 30 31  1  0  0  0  0
 30 32  1  0  0  0  0
 30 33  1  0  0  0  0
 28 29  1  0  0  0  0
 28 30  1  0  0  0  0
M  END
$$$$
default_name
  -OEChem-02102213163D

 33 32  0     1  0  0  0  0  0999 V2000
   -3.8420   -3.6918    1.5562 H   0  0  0  0  0  0  0  0  0  0  0  0
   -3.8430   -2.7008    1.1032 C   0  0  0  0  0  0  0  0  0  0  0  0
   -4.5510   -2.0608    1.6242 H   0  0  0  0  0  0  0  0  0  0  0  0
   -4.1140   -2.7798    0.0522 H   0  0  0  0  0  0  0  0  0  0  0  0
   -2.4570   -2.1098    1.2172 C   0  0  0  0  0  0  0  0  0  0  0  0
   -1.5600   -2.7438    1.7572 O   0  0  0  0  0  0  0  0  0  0  0  0
   -2.2870   -0.8898    0.7102 N   0  0  0  0  0  0  0  0  0  0  0  0
   -3.0820   -0.4218    0.2992 H   0  0  0  0  0  0  0  0  0  0  0  0
   -1.0240   -0.1468    0.7262 C   0  0  1  0  0  0  0  0  0  0  0  0
   -0.2680   -0.7367    0.2062 H   0  0  0  0  0  0  0  0  0  0  0  0
   -1.2212    1.1806   -0.0314 C   0  0  0  0  0  0  0  0  0  0  0  0
   -0.3693    1.3296   -0.6981 H   0  0  0  0  0  0  0  0  0  0  0  0
   -2.1235    1.1162   -0.6411 H   0  0  0  0  0  0  0  0  0  0  0  0
   -1.3231    2.4012    0.8966 C   0  0  0  0  0  0  0  0  0  0  0  0
   -1.9569    3.1594    0.4359 H   0  0  0  0  0  0  0  0  0  0  0  0
   -1.7655    2.0943    1.8461 H   0  0  0  0  0  0  0  0  0  0  0  0
    0.0605    3.0072    1.1577 C   0  0  0  0  0  0  0  0  0  0  0  0
    0.7092    2.2576    1.6119 H   0  0  0  0  0  0  0  0  0  0  0  0
    0.4967    3.3373    0.2145 H   0  0  0  0  0  0  0  0  0  0  0  0
   -0.0665    4.2017    2.1012 C   0  0  0  0  0  0  0  0  0  0  0  0
   -0.6989    4.9597    1.6418 H   0  0  0  0  0  0  0  0  0  0  0  0
   -0.5183    3.8774    3.0372 H   0  0  0  0  0  0  0  0  0  0  0  0
    1.2450    4.7924    2.3917 N   0  0  0  0  0  0  0  0  0  0  0  0
    1.1223    5.5850    3.0047 H   0  0  0  0  0  0  0  0  0  0  0  0
    1.8255    4.1026    2.8472 H   0  0  0  0  0  0  0  0  0  0  0  0
   -0.5564    0.0727    2.1744 C   0  0  0  0  0  0  0  0  0  0  0  0
    0.6169   -0.1288    2.4805 O   0  0  0  0  0  0  0  0  0  0  0  0
   -1.4759    0.4743    3.0595 N   0  0  0  0  0  0  0  0  0  0  0  0
   -2.4132    0.6318    2.7275 H   0  0  0  0  0  0  0  0  0  0  0  0
   -1.1971    0.7118    4.4750 C   0  0  0  0  0  0  0  0  0  0  0  0
   -0.3779    1.4272    4.5748 H   0  0  0  0  0  0  0  0  0  0  0  0
   -2.0826    1.1064    4.9754 H   0  0  0  0  0  0  0  0  0  0  0  0
   -0.8992   -0.2240    4.9525 H   0  0  0  0  0  0  0  0  0  0  0  0
  5  6  2  0  0  0  0
  5  7  1  0  0  0  0
  2  3  1  0  0  0  0
  2  4  1  0  0  0  0
  2  5  1  0  0  0  0
  1  2  1  0  0  0  0
 26 27  2  0  0  0  0
 26 28  1  0  0  0  0
 23 24  1  0  0  0  0
 23 25  1  0  0  0  0
 20 21  1  0  0  0  0
 20 22  1  0  0  0  0
 20 23  1  0  0  0  0
 17 18  1  0  0  0  0
 17 19  1  0  0  0  0
 17 20  1  0  0  0  0
 14 15  1  0  0  0  0
 14 16  1  0  0  0  0
 14 17  1  0  0  0  0
 11 12  1  0  0  0  0
 11 13  1  0  0  0  0
 11 14  1  0  0  0  0
  9 10  1  0  0  0  0
  9 11  1  0  0  0  0
  9 26  1  0  0  0  0
  7  8  1  0  0  0  0
  7  9  1  0  0  0  0
 30 31  1  0  0  0  0
 30 32  1  0  0  0  0
 30 33  1  0  0  0  0
 28 29  1  0  0  0  0
 28 30  1  0  0  0  0
M  END
$$$$
default_name
  -OEChem-02102213163D

 33 32  0     1  0  0  0  0  0999 V2000
   -3.8420   -3.6918    1.5562 H   0  0  0  0  0  0  0  0  0  0  0  0
   -3.8430   -2.7008    1.1032 C   0  0  0  0  0  0  0  0  0  0  0  0
   -4.5510   -2.0608    1.6242 H   0  0  0  0  0  0  0  0  0  0  0  0
   -4.1140   -2.7798    0.0522 H   0  0  0  0  0  0  0  0  0  0  0  0
   -2.4570   -2.1098    1.2172 C   0  0  0  0  0  0  0  0  0  0  0  0
   -1.5600   -2.7438    1.7572 O   0  0  0  0  0  0  0  0  0  0  0  0
   -2.2870   -0.8898    0.7102 N   0  0  0  0  0  0  0  0  0  0  0  0
   -3.0820   -0.4218    0.2992 H   0  0  0  0  0  0  0  0  0  0  0  0
   -1.0240   -0.1468    0.7262 C   0  0  1  0  0  0  0  0  0  0  0  0
   -0.2680   -0.7367    0.2062 H   0  0  0  0  0  0  0  0  0  0  0  0
   -1.2212    1.1806   -0.0314 C   0  0  0  0  0  0  0  0  0  0  0  0
   -0.3693    1.3296   -0.6981 H   0  0  0  0  0  0  0  0  0  0  0  0
   -2.1235    1.1162   -0.6411 H   0  0  0  0  0  0  0  0  0  0  0  0
   -1.3231    2.4012    0.8966 C   0  0  0  0  0  0  0  0  0  0  0  0
   -2.1493    3.0365    0.5764 H   0  0  0  0  0  0  0  0  0  0  0  0
   -1.5080    2.0616    1.9173 H   0  0  0  0  0  0  0  0  0  0  0  0
   -0.0289    3.2221    0.8653 C   0  0  0  0  0  0  0  0  0  0  0  0
    0.8090    2.5974    1.1759 H   0  0  0  0  0  0  0  0  0  0  0  0
    0.1477    3.5838   -0.1481 H   0  0  0  0  0  0  0  0  0  0  0  0
   -0.1478    4.4136    1.8136 C   0  0  0  0  0  0  0  0  0  0  0  0
   -0.9724    5.0489    1.4944 H   0  0  0  0  0  0  0  0  0  0  0  0
   -0.3419    4.0549    2.8231 H   0  0  0  0  0  0  0  0  0  0  0  0
    1.0852    5.2092    1.8259 N   0  0  0  0  0  0  0  0  0  0  0  0
    0.9665    5.9934    2.4504 H   0  0  0  0  0  0  0  0  0  0  0  0
    1.8481    4.6331    2.1521 H   0  0  0  0  0  0  0  0  0  0  0  0
   -0.5564    0.0727    2.1744 C   0  0  0  0  0  0  0  0  0  0  0  0
    0.6169   -0.1288    2.4805 O   0  0  0  0  0  0  0  0  0  0  0  0
   -1.4759    0.4743    3.0595 N   0  0  0  0  0  0  0  0  0  0  0  0
   -2.4132    0.6318    2.7275 H   0  0  0  0  0  0  0  0  0  0  0  0
   -1.1971    0.7118    4.4750 C   0  0  0  0  0  0  0  0  0  0  0  0
   -0.3779    1.4272    4.5748 H   0  0  0  0  0  0  0  0  0  0  0  0
   -2.0826    1.1064    4.9754 H   0  0  0  0  0  0  0  0  0  0  0  0
   -0.8992   -0.2240    4.9525 H   0  0  0  0  0  0  0  0  0  0  0  0
  5  6  2  0  0  0  0
  5  7  1  0  0  0  0
  2  3  1  0  0  0  0
  2  4  1  0  0  0  0
  2  5  1  0  0  0  0
  1  2  1  0  0  0  0
 26 27  2  0  0  0  0
 26 28  1  0  0  0  0
 23 24  1  0  0  0  0
 23 25  1  0  0  0  0
 20 21  1  0  0  0  0
 20 22  1  0  0  0  0
 20 23  1  0  0  0  0
 17 18  1  0  0  0  0
 17 19  1  0  0  0  0
 17 20  1  0  0  0  0
 14 15  1  0  0  0  0
 14 16  1  0  0  0  0
 14 17  1  0  0  0  0
 11 12  1  0  0  0  0
 11 13  1  0  0  0  0
 11 14  1  0  0  0  0
  9 10  1  0  0  0  0
  9 11  1  0  0  0  0
  9 26  1  0  0  0  0
  7  8  1  0  0  0  0
  7  9  1  0  0  0  0
 30 31  1  0  0  0  0
 30 32  1  0  0  0  0
 30 33  1  0  0  0  0
 28 29  1  0  0  0  0
 28 30  1  0  0  0  0
M  END
$$$$
default_name
  -OEChem-02102213163D

 33 32  0     1  0  0  0  0  0999 V2000
   -3.8420   -3.6918    1.5562 H   0  0  0  0  0  0  0  0  0  0  0  0
   -3.8430   -2.7008    1.1032 C   0  0  0  0  0  0  0  0  0  0  0  0
   -4.5510   -2.0608    1.6242 H   0  0  0  0  0  0  0  0  0  0  0  0
   -4.1140   -2.7798    0.0522 H   0  0  0  0  0  0  0  0  0  0  0  0
   -2.4570   -2.1098    1.2172 C   0  0  0  0  0  0  0  0  0  0  0  0
   -1.5600   -2.7438    1.7572 O   0  0  0  0  0  0  0  0  0  0  0  0
   -2.2870   -0.8898    0.7102 N   0  0  0  0  0  0  0  0  0  0  0  0
   -3.0820   -0.4218    0.2992 H   0  0  0  0  0  0  0  0  0  0  0  0
   -1.0240   -0.1468    0.7262 C   0  0  1  0  0  0  0  0  0  0  0  0
   -0.2680   -0.7367    0.2062 H   0  0  0  0  0  0  0  0  0  0  0  0
   -1.2212    1.1806   -0.0314 C   0  0  0  0  0  0  0  0  0  0  0  0
   -0.3693    1.3296   -0.6981 H   0  0  0  0  0  0  0  0  0  0  0  0
   -2.1235    1.1162   -0.6411 H   0  0  0  0  0  0  0  0  0  0  0  0
   -1.3231    2.4012    0.8966 C   0  0  0  0  0  0  0  0  0  0  0  0
   -2.2871    2.8901    0.7538 H   0  0  0  0  0  0  0  0  0  0  0  0
   -1.2396    2.0715    1.9338 H   0  0  0  0  0  0  0  0  0  0  0  0
   -0.2090    3.4107    0.5975 C   0  0  0  0  0  0  0  0  0  0  0  0
    0.7627    2.9337    0.7285 H   0  0  0  0  0  0  0  0  0  0  0  0
   -0.3025    3.7612   -0.4308 H   0  0  0  0  0  0  0  0  0  0  0  0
   -0.3185    4.6006    1.5489 C   0  0  0  0  0  0  0  0  0  0  0  0
   -1.2808    5.0898    1.4067 H   0  0  0  0  0  0  0  0  0  0  0  0
   -0.2432    4.2502    2.5770 H   0  0  0  0  0  0  0  0  0  0  0  0
    0.7493    5.5771    1.3051 N   0  0  0  0  0  0  0  0  0  0  0  0
    0.6382    6.3540    1.9400 H   0  0  0  0  0  0  0  0  0  0  0  0
    1.6440    5.1370    1.4668 H   0  0  0  0  0  0  0  0  0  0  0  0
   -0.5564    0.0727    2.1744 C   0  0  0  0  0  0  0  0  0  0  0  0
    0.6169   -0.1288    2.4805 O   0  0  0  0  0  0  0  0  0  0  0  0
   -1.4759    0.4743    3.0595 N   0  0  0  0  0  0  0  0  0  0  0  0
   -2.4132    0.6318    2.7275 H   0  0  0  0  0  0  0  0  0  0  0  0
   -1.1971    0.7118    4.4750 C   0  0  0  0  0  0  0  0  0  0  0  0
   -0.3779    1.4272    4.5748 H   0  0  0  0  0  0  0  0  0  0  0  0
   -2.0826    1.1064    4.9754 H   0  0  0  0  0  0  0  0  0  0  0  0
   -0.8992   -0.2240    4.9525 H   0  0  0  0  0  0  0  0  0  0  0  0
  5  6  2  0  0  0  0
  5  7  1  0  0  0  0
  2  3  1  0  0  0  0
  2  4  1  0  0  0  0
  2  5  1  0  0  0  0
  1  2  1  0  0  0  0
 26 27  2  0  0  0  0
 26 28  1  0  0  0  0
 23 24  1  0  0  0  0
 23 25  1  0  0  0  0
 20 21  1  0  0  0  0
 20 22  1  0  0  0  0
 20 23  1  0  0  0  0
 17 18  1  0  0  0  0
 17 19  1  0  0  0  0
 17 20  1  0  0  0  0
 14 15  1  0  0  0  0
 14 16  1  0  0  0  0
 14 17  1  0  0  0  0
 11 12  1  0  0  0  0
 11 13  1  0  0  0  0
 11 14  1  0  0  0  0
  9 10  1  0  0  0  0
  9 11  1  0  0  0  0
  9 26  1  0  0  0  0
  7  8  1  0  0  0  0
  7  9  1  0  0  0  0
 30 31  1  0  0  0  0
 30 32  1  0  0  0  0
 30 33  1  0  0  0  0
 28 29  1  0  0  0  0
 28 30  1  0  0  0  0
M  END
$$$$
default_name
  -OEChem-02102213163D

 33 32  0     1  0  0  0  0  0999 V2000
   -3.8420   -3.6918    1.5562 H   0  0  0  0  0  0  0  0  0  0  0  0
   -3.8430   -2.7008    1.1032 C   0  0  0  0  0  0  0  0  0  0  0  0
   -4.5510   -2.0608    1.6242 H   0  0  0  0  0  0  0  0  0  0  0  0
   -4.1140   -2.7798    0.0522 H   0  0  0  0  0  0  0  0  0  0  0  0
   -2.4570   -2.1098    1.2172 C   0  0  0  0  0  0  0  0  0  0  0  0
   -1.5600   -2.7438    1.7572 O   0  0  0  0  0  0  0  0  0  0  0  0
   -2.2870   -0.8898    0.7102 N   0  0  0  0  0  0  0  0  0  0  0  0
   -3.0820   -0.4218    0.2992 H   0  0  0  0  0  0  0  0  0  0  0  0
   -1.0240   -0.1468    0.7262 C   0  0  1  0  0  0  0  0  0  0  0  0
   -0.2680   -0.7367    0.2062 H   0  0  0  0  0  0  0  0  0  0  0  0
   -1.2212    1.1806   -0.0314 C   0  0  0  0  0  0  0  0  0  0  0  0
   -0.3693    1.3296   -0.6981 H   0  0  0  0  0  0  0  0  0  0  0  0
   -2.1235    1.1162   -0.6411 H   0  0  0  0  0  0  0  0  0  0  0  0
   -1.3231    2.4012    0.8966 C   0  0  0  0  0  0  0  0  0  0  0  0
   -2.3609    2.7302    0.9560 H   0  0  0  0  0  0  0  0  0  0  0  0
   -0.9785    2.1233    1.8943 H   0  0  0  0  0  0  0  0  0  0  0  0
   -0.4675    3.5601    0.3726 C   0  0  0  0  0  0  0  0  0  0  0  0
    0.5735    3.2436    0.3001 H   0  0  0  0  0  0  0  0  0  0  0  0
   -0.8232    3.8573   -0.6144 H   0  0  0  0  0  0  0  0  0  0  0  0
   -0.5671    4.7500    1.3251 C   0  0  0  0  0  0  0  0  0  0  0  0
   -1.6031    5.0796    1.3847 H   0  0  0  0  0  0  0  0  0  0  0  0
   -0.2290    4.4501    2.3156 H   0  0  0  0  0  0  0  0  0  0  0  0
    0.2604    5.8711    0.8648 N   0  0  0  0  0  0  0  0  0  0  0  0
    0.1599    6.6423    1.5083 H   0  0  0  0  0  0  0  0  0  0  0  0
    1.2273    5.5802    0.8382 H   0  0  0  0  0  0  0  0  0  0  0  0
   -0.5564    0.0727    2.1744 C   0  0  0  0  0  0  0  0  0  0  0  0
    0.6169   -0.1288    2.4805 O   0  0  0  0  0  0  0  0  0  0  0  0
   -1.4759    0.4743    3.0595 N   0  0  0  0  0  0  0  0  0  0  0  0
   -2.4132    0.6318    2.7275 H   0  0  0  0  0  0  0  0  0  0  0  0
   -1.1971    0.7118    4.4750 C   0  0  0  0  0  0  0  0  0  0  0  0
   -0.3779    1.4272    4.5748 H   0  0  0  0  0  0  0  0  0  0  0  0
   -2.0826    1.1064    4.9754 H   0  0  0  0  0  0  0  0  0  0  0  0
   -0.8992   -0.2240    4.9525 H   0  0  0  0  0  0  0  0  0  0  0  0
  5  6  2  0  0  0  0
  5  7  1  0  0  0  0
  2  3  1  0  0  0  0
  2  4  1  0  0  0  0
  2  5  1  0  0  0  0
  1  2  1  0  0  0  0
 26 27  2  0  0  0  0
 26 28  1  0  0  0  0
 23 24  1  0  0  0  0
 23 25  1  0  0  0  0
 20 21  1  0  0  0  0
 20 22  1  0  0  0  0
 20 23  1  0  0  0  0
 17 18  1  0  0  0  0
 17 19  1  0  0  0  0
 17 20  1  0  0  0  0
 14 15  1  0  0  0  0
 14 16  1  0  0  0  0
 14 17  1  0  0  0  0
 11 12  1  0  0  0  0
 11 13  1  0  0  0  0
 11 14  1  0  0  0  0
  9 10  1  0  0  0  0
  9 11  1  0  0  0  0
  9 26  1  0  0  0  0
  7  8  1  0  0  0  0
  7  9  1  0  0  0  0
 30 31  1  0  0  0  0
 30 32  1  0  0  0  0
 30 33  1  0  0  0  0
 28 29  1  0  0  0  0
 28 30  1  0  0  0  0
M  END
$$$$
default_name
  -OEChem-02102213163D

 33 32  0     1  0  0  0  0  0999 V2000
   -3.8420   -3.6918    1.5562 H   0  0  0  0  0  0  0  0  0  0  0  0
   -3.8430   -2.7008    1.1032 C   0  0  0  0  0  0  0  0  0  0  0  0
   -4.5510   -2.0608    1.6242 H   0  0  0  0  0  0  0  0  0  0  0  0
   -4.1140   -2.7798    0.0522 H   0  0  0  0  0  0  0  0  0  0  0  0
   -2.4570   -2.1098    1.2172 C   0  0  0  0  0  0  0  0  0  0  0  0
   -1.5600   -2.7438    1.7572 O   0  0  0  0  0  0  0  0  0  0  0  0
   -2.2870   -0.8898    0.7102 N   0  0  0  0  0  0  0  0  0  0  0  0
   -3.0820   -0.4218    0.2992 H   0  0  0  0  0  0  0  0  0  0  0  0
   -1.0240   -0.1468    0.7262 C   0  0  1  0  0  0  0  0  0  0  0  0
   -0.2680   -0.7367    0.2062 H   0  0  0  0  0  0  0  0  0  0  0  0
   -1.2212    1.1806   -0.0314 C   0  0  0  0  0  0  0  0  0  0  0  0
   -0.3693    1.3296   -0.6981 H   0  0  0  0  0  0  0  0  0  0  0  0
   -2.1235    1.1162   -0.6411 H   0  0  0  0  0  0  0  0  0  0  0  0
   -1.3231    2.4012    0.8966 C   0  0  0  0  0  0  0  0  0  0  0  0
   -2.3656    2.5677    1.1692 H   0  0  0  0  0  0  0  0  0  0  0  0
   -0.7425    2.2134    1.8017 H   0  0  0  0  0  0  0  0  0  0  0  0
   -0.7868    3.6602    0.2059 C   0  0  0  0  0  0  0  0  0  0  0  0
    0.2541    3.5061   -0.0802 H   0  0  0  0  0  0  0  0  0  0  0  0
   -1.3789    3.8656   -0.6863 H   0  0  0  0  0  0  0  0  0  0  0  0
   -0.8766    4.8516    1.1575 C   0  0  0  0  0  0  0  0  0  0  0  0
   -1.9174    5.0190    1.4299 H   0  0  0  0  0  0  0  0  0  0  0  0
   -0.3002    4.6410    2.0568 H   0  0  0  0  0  0  0  0  0  0  0  0
   -0.3484    6.0710    0.5350 N   0  0  0  0  0  0  0  0  0  0  0  0
   -0.4360    6.8386    1.1847 H   0  0  0  0  0  0  0  0  0  0  0  0
    0.6263    5.9323    0.3091 H   0  0  0  0  0  0  0  0  0  0  0  0
   -0.5564    0.0727    2.1744 C   0  0  0  0  0  0  0  0  0  0  0  0
    0.6169   -0.1288    2.4805 O   0  0  0  0  0  0  0  0  0  0  0  0
   -1.4759    0.4743    3.0595 N   0  0  0  0  0  0  0  0  0  0  0  0
   -2.4132    0.6318    2.7275 H   0  0  0  0  0  0  0  0  0  0  0  0
   -1.1971    0.7118    4.4750 C   0  0  0  0  0  0  0  0  0  0  0  0
   -0.3779    1.4272    4.5748 H   0  0  0  0  0  0  0  0  0  0  0  0
   -2.0826    1.1064    4.9754 H   0  0  0  0  0  0  0  0  0  0  0  0
   -0.8992   -0.2240    4.9525 H   0  0  0  0  0  0  0  0  0  0  0  0
  5  6  2  0  0  0  0
  5  7  1  0  0  0  0
  2  3  1  0  0  0  0
  2  4  1  0  0  0  0
  2  5  1  0  0  0  0
  1  2  1  0  0  0  0
 26 27  2  0  0  0  0
 26 28  1  0  0  0  0
 23 24  1  0  0  0  0
 23 25  1  0  0  0  0
 20 21  1  0  0  0  0
 20 22  1  0  0  0  0
 20 23  1  0  0  0  0
 17 18  1  0  0  0  0
 17 19  1  0  0  0  0
 17 20  1  0  0  0  0
 14 15  1  0  0  0  0
 14 16  1  0  0  0  0
 14 17  1  0  0  0  0
 11 12  1  0  0  0  0
 11 13  1  0  0  0  0
 11 14  1  0  0  0  0
  9 10  1  0  0  0  0
  9 11  1  0  0  0  0
  9 26  1  0  0  0  0
  7  8  1  0  0  0  0
  7  9  1  0  0  0  0
 30 31  1  0  0  0  0
 30 32  1  0  0  0  0
 30 33  1  0  0  0  0
 28 29  1  0  0  0  0
 28 30  1  0  0  0  0
M  END
$$$$
default_name
  -OEChem-02102213163D

 33 32  0     1  0  0  0  0  0999 V2000
   -3.8420   -3.6918    1.5562 H   0  0  0  0  0  0  0  0  0  0  0  0
   -3.8430   -2.7008    1.1032 C   0  0  0  0  0  0  0  0  0  0  0  0
   -4.5510   -2.0608    1.6242 H   0  0  0  0  0  0  0  0  0  0  0  0
   -4.1140   -2.7798    0.0522 H   0  0  0  0  0  0  0  0  0  0  0  0
   -2.4570   -2.1098    1.2172 C   0  0  0  0  0  0  0  0  0  0  0  0
   -1.5600   -2.7438    1.7572 O   0  0  0  0  0  0  0  0  0  0  0  0
   -2.2870   -0.8898    0.7102 N   0  0  0  0  0  0  0  0  0  0  0  0
   -3.0820   -0.4218    0.2992 H   0  0  0  0  0  0  0  0  0  0  0  0
   -1.0240   -0.1468    0.7262 C   0  0  1  0  0  0  0  0  0  0  0  0
   -0.2680   -0.7367    0.2062 H   0  0  0  0  0  0  0  0  0  0  0  0
   -1.2212    1.1806   -0.0314 C   0  0  0  0  0  0  0  0  0  0  0  0
   -0.3693    1.3296   -0.6981 H   0  0  0  0  0  0  0  0  0  0  0  0
   -2.1235    1.1162   -0.6411 H   0  0  0  0  0  0  0  0  0  0  0  0
   -1.3231    2.4012    0.8966 C   0  0  0  0  0  0  0  0  0  0  0  0
   -2.3008    2.4137    1.3789 H   0  0  0  0  0  0  0  0  0  0  0  0
   -0.5477    2.3358    1.6621 H   0  0  0  0  0  0  0  0  0  0  0  0
   -1.1450    3.7041    0.1088 C   0  0  0  0  0  0  0  0  0  0  0  0
   -0.1735    3.7031   -0.3863 H   0  0  0  0  0  0  0  0  0  0  0  0
   -1.9318    3.7855   -0.6417 H   0  0  0  0  0  0  0  0  0  0  0  0
   -1.2259    4.8986    1.0574 C   0  0  0  0  0  0  0  0  0  0  0  0
   -2.2022    4.9121    1.5392 H   0  0  0  0  0  0  0  0  0  0  0  0
   -0.4521    4.8097    1.8182 H   0  0  0  0  0  0  0  0  0  0  0  0
   -1.0355    6.1633    0.3381 N   0  0  0  0  0  0  0  0  0  0  0  0
   -1.1088    6.9295    0.9913 H   0  0  0  0  0  0  0  0  0  0  0  0
   -0.1181    6.1694   -0.0845 H   0  0  0  0  0  0  0  0  0  0  0  0
   -0.5564    0.0727    2.1744 C   0  0  0  0  0  0  0  0  0  0  0  0
    0.6169   -0.1288    2.4805 O   0  0  0  0  0  0  0  0  0  0  0  0
   -1.4759    0.4743    3.0595 N   0  0  0  0  0  0  0  0  0  0  0  0
   -2.4132    0.6318    2.7275 H   0  0  0  0  0  0  0  0  0  0  0  0
   -1.1971    0.7118    4.4750 C   0  0  0  0  0  0  0  0  0  0  0  0
   -0.3779    1.4272    4.5748 H   0  0  0  0  0  0  0  0  0  0  0  0
   -2.0826    1.1064    4.9754 H   0  0  0  0  0  0  0  0  0  0  0  0
   -0.8992   -0.2240    4.9525 H   0  0  0  0  0  0  0  0  0  0  0  0
  5  6  2  0  0  0  0
  5  7  1  0  0  0  0
  2  3  1  0  0  0  0
  2  4  1  0  0  0  0
  2  5  1  0  0  0  0
  1  2  1  0  0  0  0
 26 27  2  0  0  0  0
 26 28  1  0  0  0  0
 23 24  1  0  0  0  0
 23 25  1  0  0  0  0
 20 21  1  0  0  0  0
 20 22  1  0  0  0  0
 20 23  1  0  0  0  0
 17 18  1  0  0  0  0
 17 19  1  0  0  0  0
 17 20  1  0  0  0  0
 14 15  1  0  0  0  0
 14 16  1  0  0  0  0
 14 17  1  0  0  0  0
 11 12  1  0  0  0  0
 11 13  1  0  0  0  0
 11 14  1  0  0  0  0
  9 10  1  0  0  0  0
  9 11  1  0  0  0  0
  9 26  1  0  0  0  0
  7  8  1  0  0  0  0
  7  9  1  0  0  0  0
 30 31  1  0  0  0  0
 30 32  1  0  0  0  0
 30 33  1  0  0  0  0
 28 29  1  0  0  0  0
 28 30  1  0  0  0  0
M  END
$$$$
default_name
  -OEChem-02102213163D

 33 32  0     1  0  0  0  0  0999 V2000
   -3.8420   -3.6918    1.5562 H   0  0  0  0  0  0  0  0  0  0  0  0
   -3.8430   -2.7008    1.1032 C   0  0  0  0  0  0  0  0  0  0  0  0
   -4.5510   -2.0608    1.6242 H   0  0  0  0  0  0  0  0  0  0  0  0
   -4.1140   -2.7798    0.0522 H   0  0  0  0  0  0  0  0  0  0  0  0
   -2.4570   -2.1098    1.2172 C   0  0  0  0  0  0  0  0  0  0  0  0
   -1.5600   -2.7438    1.7572 O   0  0  0  0  0  0  0  0  0  0  0  0
   -2.2870   -0.8898    0.7102 N   0  0  0  0  0  0  0  0  0  0  0  0
   -3.0820   -0.4218    0.2992 H   0  0  0  0  0  0  0  0  0  0  0  0
   -1.0240   -0.1468    0.7262 C   0  0  1  0  0  0  0  0  0  0  0  0
   -0.2680   -0.7367    0.2062 H   0  0  0  0  0  0  0  0  0  0  0  0
   -1.2212    1.1806   -0.0314 C   0  0  0  0  0  0  0  0  0  0  0  0
   -0.5295    1.2042   -0.8760 H   0  0  0  0  0  0  0  0  0  0  0  0
   -2.2384    1.2235   -0.4231 H   0  0  0  0  0  0  0  0  0  0  0  0
   -0.9601    2.4211    0.8371 C   0  0  0  0  0  0  0  0  0  0  0  0
   -1.6431    2.4233    1.6870 H   0  0  0  0  0  0  0  0  0  0  0  0
    0.0674    2.3924    1.2044 H   0  0  0  0  0  0  0  0  0  0  0  0
   -1.1714    3.7079    0.0312 C   0  0  0  0  0  0  0  0  0  0  0  0
   -0.4998    3.7167   -0.8278 H   0  0  0  0  0  0  0  0  0  0  0  0
   -2.2034    3.7528   -0.3179 H   0  0  0  0  0  0  0  0  0  0  0  0
   -0.8817    4.9233    0.9098 C   0  0  0  0  0  0  0  0  0  0  0  0
   -1.5636    4.9266    1.7585 H   0  0  0  0  0  0  0  0  0  0  0  0
    0.1431    4.8709    1.2738 H   0  0  0  0  0  0  0  0  0  0  0  0
   -1.0518    6.1739    0.1612 N   0  0  0  0  0  0  0  0  0  0  0  0
   -0.8665    6.9541    0.7743 H   0  0  0  0  0  0  0  0  0  0  0  0
   -0.3988    6.1903   -0.6093 H   0  0  0  0  0  0  0  0  0  0  0  0
   -0.5564    0.0727    2.1744 C   0  0  0  0  0  0  0  0  0  0  0  0
    0.6169   -0.1288    2.4805 O   0  0  0  0  0  0  0  0  0  0  0  0
   -1.4759    0.4743    3.0595 N   0  0  0  0  0  0  0  0  0  0  0  0
   -2.4132    0.6318    2.7275 H   0  0  0  0  0  0  0  0  0  0  0  0
   -1.1971    0.7118    4.4750 C   0  0  0  0  0  0  0  0  0  0  0  0
   -0.3779    1.4272    4.5748 H   0  0  0  0  0  0  0  0  0  0  0  0
   -2.0826    1.1064    4.9754 H   0  0  0  0  0  0  0  0  0  0  0  0
   -0.8992   -0.2240    4.9525 H   0  0  0  0  0  0  0  0  0  0  0  0
  5  6  2  0  0  0  0
  5  7  1  0  0  0  0
  2  3  1  0  0  0  0
  2  4  1  0  0  0  0
  2  5  1  0  0  0  0
  1  2  1  0  0  0  0
 26 27  2  0  0  0  0
 26 28  1  0  0  0  0
 23 24  1  0  0  0  0
 23 25  1  0  0  0  0
 20 21  1  0  0  0  0
 20 22  1  0  0  0  0
 20 23  1  0  0  0  0
 17 18  1  0  0  0  0
 17 19  1  0  0  0  0
 17 20  1  0  0  0  0
 14 15  1  0  0  0  0
 14 16  1  0  0  0  0
 14 17  1  0  0  0  0
 11 12  1  0  0  0  0
 11 13  1  0  0  0  0
 11 14  1  0  0  0  0
  9 10  1  0  0  0  0
  9 11  1  0  0  0  0
  9 26  1  0  0  0  0
  7  8  1  0  0  0  0
  7  9  1  0  0  0  0
 30 31  1  0  0  0  0
 30 32  1  0  0  0  0
 30 33  1  0  0  0  0
 28 29  1  0  0  0  0
 28 30  1  0  0  0  0
M  END
$$$$
default_name
  -OEChem-02102213163D

 33 32  0     1  0  0  0  0  0999 V2000
   -3.8420   -3.6918    1.5562 H   0  0  0  0  0  0  0  0  0  0  0  0
   -3.8430   -2.7008    1.1032 C   0  0  0  0  0  0  0  0  0  0  0  0
   -4.5510   -2.0608    1.6242 H   0  0  0  0  0  0  0  0  0  0  0  0
   -4.1140   -2.7798    0.0522 H   0  0  0  0  0  0  0  0  0  0  0  0
   -2.4570   -2.1098    1.2172 C   0  0  0  0  0  0  0  0  0  0  0  0
   -1.5600   -2.7438    1.7572 O   0  0  0  0  0  0  0  0  0  0  0  0
   -2.2870   -0.8898    0.7102 N   0  0  0  0  0  0  0  0  0  0  0  0
   -3.0820   -0.4218    0.2992 H   0  0  0  0  0  0  0  0  0  0  0  0
   -1.0240   -0.1468    0.7262 C   0  0  1  0  0  0  0  0  0  0  0  0
   -0.2680   -0.7367    0.2062 H   0  0  0  0  0  0  0  0  0  0  0  0
   -1.2212    1.1806   -0.0314 C   0  0  0  0  0  0  0  0  0  0  0  0
   -0.5295    1.2042   -0.8760 H   0  0  0  0  0  0  0  0  0  0  0  0
   -2.2384    1.2235   -0.4231 H   0  0  0  0  0  0  0  0  0  0  0  0
   -0.9601    2.4211    0.8371 C   0  0  0  0  0  0  0  0  0  0  0  0
   -1.4405    2.2960    1.8079 H   0  0  0  0  0  0  0  0  0  0  0  0
    0.1155    2.5374    0.9828 H   0  0  0  0  0  0  0  0  0  0  0  0
   -1.5176    3.6836    0.1699 C   0  0  0  0  0  0  0  0  0  0  0  0
   -1.0518    3.8182   -0.8068 H   0  0  0  0  0  0  0  0  0  0  0  0
   -2.5959    3.5822    0.0438 H   0  0  0  0  0  0  0  0  0  0  0  0
   -1.2231    4.9034    1.0409 C   0  0  0  0  0  0  0  0  0  0  0  0
   -1.7029    4.7795    2.0104 H   0  0  0  0  0  0  0  0  0  0  0  0
   -0.1476    4.9959    1.1826 H   0  0  0  0  0  0  0  0  0  0  0  0
   -1.7236    6.1347    0.4191 N   0  0  0  0  0  0  0  0  0  0  0  0
   -1.5248    6.9162    1.0264 H   0  0  0  0  0  0  0  0  0  0  0  0
   -1.2580    6.2714   -0.4668 H   0  0  0  0  0  0  0  0  0  0  0  0
   -0.5564    0.0727    2.1744 C   0  0  0  0  0  0  0  0  0  0  0  0
    0.6169   -0.1288    2.4805 O   0  0  0  0  0  0  0  0  0  0  0  0
   -1.4759    0.4743    3.0595 N   0  0  0  0  0  0  0  0  0  0  0  0
   -2.4132    0.6318    2.7275 H   0  0  0  0  0  0  0  0  0  0  0  0
   -1.1971    0.7118    4.4750 C   0  0  0  0  0  0  0  0  0  0  0  0
   -0.3779    1.4272    4.5748 H   0  0  0  0  0  0  0  0  0  0  0  0
   -2.0826    1.1064    4.9754 H   0  0  0  0  0  0  0  0  0  0  0  0
   -0.8992   -0.2240    4.9525 H   0  0  0  0  0  0  0  0  0  0  0  0
  5  6  2  0  0  0  0
  5  7  1  0  0  0  0
  2  3  1  0  0  0  0
  2  4  1  0  0  0  0
  2  5  1  0  0  0  0
  1  2  1  0  0  0  0
 26 27  2  0  0  0  0
 26 28  1  0  0  0  0
 23 24  1  0  0  0  0
 23 25  1  0  0  0  0
 20 21  1  0  0  0  0
 20 22  1  0  0  0  0
 20 23  1  0  0  0  0
 17 18  1  0  0  0  0
 17 19  1  0  0  0  0
 17 20  1  0  0  0  0
 14 15  1  0  0  0  0
 14 16  1  0  0  0  0
 14 17  1  0  0  0  0
 11 12  1  0  0  0  0
 11 13  1  0  0  0  0
 11 14  1  0  0  0  0
  9 10  1  0  0  0  0
  9 11  1  0  0  0  0
  9 26  1  0  0  0  0
  7  8  1  0  0  0  0
  7  9  1  0  0  0  0
 30 31  1  0  0  0  0
 30 32  1  0  0  0  0
 30 33  1  0  0  0  0
 28 29  1  0  0  0  0
 28 30  1  0  0  0  0
M  END
$$$$
default_name
  -OEChem-02102213163D

 33 32  0     1  0  0  0  0  0999 V2000
   -3.8420   -3.6918    1.5562 H   0  0  0  0  0  0  0  0  0  0  0  0
   -3.8430   -2.7008    1.1032 C   0  0  0  0  0  0  0  0  0  0  0  0
   -4.5510   -2.0608    1.6242 H   0  0  0  0  0  0  0  0  0  0  0  0
   -4.1140   -2.7798    0.0522 H   0  0  0  0  0  0  0  0  0  0  0  0
   -2.4570   -2.1098    1.2172 C   0  0  0  0  0  0  0  0  0  0  0  0
   -1.5600   -2.7438    1.7572 O   0  0  0  0  0  0  0  0  0  0  0  0
   -2.2870   -0.8898    0.7102 N   0  0  0  0  0  0  0  0  0  0  0  0
   -3.0820   -0.4218    0.2992 H   0  0  0  0  0  0  0  0  0  0  0  0
   -1.0240   -0.1468    0.7262 C   0  0  1  0  0  0  0  0  0  0  0  0
   -0.2680   -0.7367    0.2062 H   0  0  0  0  0  0  0  0  0  0  0  0
   -1.2212    1.1806   -0.0314 C   0  0  0  0  0  0  0  0  0  0  0  0
   -0.5295    1.2042   -0.8760 H   0  0  0  0  0  0  0  0  0  0  0  0
   -2.2384    1.2235   -0.4231 H   0  0  0  0  0  0  0  0  0  0  0  0
   -0.9601    2.4211    0.8371 C   0  0  0  0  0  0  0  0  0  0  0  0
   -1.2008    2.1974    1.8767 H   0  0  0  0  0  0  0  0  0  0  0  0
    0.0943    2.6942    0.7652 H   0  0  0  0  0  0  0  0  0  0  0  0
   -1.8195    3.6034    0.3752 C   0  0  0  0  0  0  0  0  0  0  0  0
   -1.5954    3.8345   -0.6666 H   0  0  0  0  0  0  0  0  0  0  0  0
   -2.8745    3.3440    0.4678 H   0  0  0  0  0  0  0  0  0  0  0  0
   -1.5227    4.8284    1.2380 C   0  0  0  0  0  0  0  0  0  0  0  0
   -1.7633    4.6061    2.2764 H   0  0  0  0  0  0  0  0  0  0  0  0
   -0.4658    5.0782    1.1608 H   0  0  0  0  0  0  0  0  0  0  0  0
   -2.3129    5.9873    0.8069 N   0  0  0  0  0  0  0  0  0  0  0  0
   -2.1025    6.7722    1.4057 H   0  0  0  0  0  0  0  0  0  0  0  0
   -2.0701    6.2178   -0.1461 H   0  0  0  0  0  0  0  0  0  0  0  0
   -0.5564    0.0727    2.1744 C   0  0  0  0  0  0  0  0  0  0  0  0
    0.6169   -0.1288    2.4805 O   0  0  0  0  0  0  0  0  0  0  0  0
   -1.4759    0.4743    3.0595 N   0  0  0  0  0  0  0  0  0  0  0  0
   -2.4132    0.6318    2.7275 H   0  0  0  0  0  0  0  0  0  0  0  0
   -1.1971    0.7118    4.4750 C   0  0  0  0  0  0  0  0  0  0  0  0
   -0.3779    1.4272    4.5748 H   0  0  0  0  0  0  0  0  0  0  0  0
   -2.0826    1.1064    4.9754 H   0  0  0  0  0  0  0  0  0  0  0  0
   -0.8992   -0.2240    4.9525 H   0  0  0  0  0  0  0  0  0  0  0  0
  5  6  2  0  0  0  0
  5  7  1  0  0  0  0
  2  3  1  0  0  0  0
  2  4  1  0  0  0  0
  2  5  1  0  0  0  0
  1  2  1  0  0  0  0
 26 27  2  0  0  0  0
 26 28  1  0  0  0  0
 23 24  1  0  0  0  0
 23 25  1  0  0  0  0
 20 21  1  0  0  0  0
 20 22  1  0  0  0  0
 20 23  1  0  0  0  0
 17 18  1  0  0  0  0
 17 19  1  0  0  0  0
 17 20  1  0  0  0  0
 14 15  1  0  0  0  0
 14 16  1  0  0  0  0
 14 17  1  0  0  0  0
 11 12  1  0  0  0  0
 11 13  1  0  0  0  0
 11 14  1  0  0  0  0
  9 10  1  0  0  0  0
  9 11  1  0  0  0  0
  9 26  1  0  0  0  0
  7  8  1  0  0  0  0
  7  9  1  0  0  0  0
 30 31  1  0  0  0  0
 30 32  1  0  0  0  0
 30 33  1  0  0  0  0
 28 29  1  0  0  0  0
 28 30  1  0  0  0  0
M  END
$$$$
default_name
  -OEChem-02102213163D

 33 32  0     1  0  0  0  0  0999 V2000
   -3.8420   -3.6918    1.5562 H   0  0  0  0  0  0  0  0  0  0  0  0
   -3.8430   -2.7008    1.1032 C   0  0  0  0  0  0  0  0  0  0  0  0
   -4.5510   -2.0608    1.6242 H   0  0  0  0  0  0  0  0  0  0  0  0
   -4.1140   -2.7798    0.0522 H   0  0  0  0  0  0  0  0  0  0  0  0
   -2.4570   -2.1098    1.2172 C   0  0  0  0  0  0  0  0  0  0  0  0
   -1.5600   -2.7438    1.7572 O   0  0  0  0  0  0  0  0  0  0  0  0
   -2.2870   -0.8898    0.7102 N   0  0  0  0  0  0  0  0  0  0  0  0
   -3.0820   -0.4218    0.2992 H   0  0  0  0  0  0  0  0  0  0  0  0
   -1.0240   -0.1468    0.7262 C   0  0  1  0  0  0  0  0  0  0  0  0
   -0.2680   -0.7367    0.2062 H   0  0  0  0  0  0  0  0  0  0  0  0
   -1.2212    1.1806   -0.0314 C   0  0  0  0  0  0  0  0  0  0  0  0
   -0.5295    1.2042   -0.8760 H   0  0  0  0  0  0  0  0  0  0  0  0
   -2.2384    1.2235   -0.4231 H   0  0  0  0  0  0  0  0  0  0  0  0
   -0.9601    2.4211    0.8371 C   0  0  0  0  0  0  0  0  0  0  0  0
   -0.9406    2.1342    1.8888 H   0  0  0  0  0  0  0  0  0  0  0  0
    0.0055    2.8522    0.5662 H   0  0  0  0  0  0  0  0  0  0  0  0
   -2.0565    3.4728    0.6331 C   0  0  0  0  0  0  0  0  0  0  0  0
   -2.0936    3.7646   -0.4169 H   0  0  0  0  0  0  0  0  0  0  0  0
   -3.0202    3.0545    0.9250 H   0  0  0  0  0  0  0  0  0  0  0  0
   -1.7598    4.7035    1.4878 C   0  0  0  0  0  0  0  0  0  0  0  0
   -1.7406    4.4180    2.5383 H   0  0  0  0  0  0  0  0  0  0  0  0
   -0.7897    5.1121    1.2098 H   0  0  0  0  0  0  0  0  0  0  0  0
   -2.7795    5.7416    1.2981 N   0  0  0  0  0  0  0  0  0  0  0  0
   -2.5601    6.5319    1.8865 H   0  0  0  0  0  0  0  0  0  0  0  0
   -2.7796    6.0332    0.3310 H   0  0  0  0  0  0  0  0  0  0  0  0
   -0.5564    0.0727    2.1744 C   0  0  0  0  0  0  0  0  0  0  0  0
    0.6169   -0.1288    2.4805 O   0  0  0  0  0  0  0  0  0  0  0  0
   -1.4759    0.4743    3.0595 N   0  0  0  0  0  0  0  0  0  0  0  0
   -2.4132    0.6318    2.7275 H   0  0  0  0  0  0  0  0  0  0  0  0
   -1.1971    0.7118    4.4750 C   0  0  0  0  0  0  0  0  0  0  0  0
   -0.3779    1.4272    4.5748 H   0  0  0  0  0  0  0  0  0  0  0  0
   -2.0826    1.1064    4.9754 H   0  0  0  0  0  0  0  0  0  0  0  0
   -0.8992   -0.2240    4.9525 H   0  0  0  0  0  0  0  0  0  0  0  0
  5  6  2  0  0  0  0
  5  7  1  0  0  0  0
  2  3  1  0  0  0  0
  2  4  1  0  0  0  0
  2  5  1  0  0  0  0
  1  2  1  0  0  0  0
 26 27  2  0  0  0  0
 26 28  1  0  0  0  0
 23 24  1  0  0  0  0
 23 25  1  0  0  0  0
 20 21  1  0  0  0  0
 20 22  1  0  0  0  0
 20 23  1  0  0  0  0
 17 18  1  0  0  0  0
 17 19  1  0  0  0  0
 17 20  1  0  0  0  0
 14 15  1  0  0  0  0
 14 16  1  0  0  0  0
 14 17  1  0  0  0  0
 11 12  1  0  0  0  0
 11 13  1  0  0  0  0
 11 14  1  0  0  0  0
  9 10  1  0  0  0  0
  9 11  1  0  0  0  0
  9 26  1  0  0  0  0
  7  8  1  0  0  0  0
  7  9  1  0  0  0  0
 30 31  1  0  0  0  0
 30 32  1  0  0  0  0
 30 33  1  0  0  0  0
 28 29  1  0  0  0  0
 28 30  1  0  0  0  0
M  END
$$$$
default_name
  -OEChem-02102213163D

 33 32  0     1  0  0  0  0  0999 V2000
   -3.8420   -3.6918    1.5562 H   0  0  0  0  0  0  0  0  0  0  0  0
   -3.8430   -2.7008    1.1032 C   0  0  0  0  0  0  0  0  0  0  0  0
   -4.5510   -2.0608    1.6242 H   0  0  0  0  0  0  0  0  0  0  0  0
   -4.1140   -2.7798    0.0522 H   0  0  0  0  0  0  0  0  0  0  0  0
   -2.4570   -2.1098    1.2172 C   0  0  0  0  0  0  0  0  0  0  0  0
   -1.5600   -2.7438    1.7572 O   0  0  0  0  0  0  0  0  0  0  0  0
   -2.2870   -0.8898    0.7102 N   0  0  0  0  0  0  0  0  0  0  0  0
   -3.0820   -0.4218    0.2992 H   0  0  0  0  0  0  0  0  0  0  0  0
   -1.0240   -0.1468    0.7262 C   0  0  1  0  0  0  0  0  0  0  0  0
   -0.2680   -0.7367    0.2062 H   0  0  0  0  0  0  0  0  0  0  0  0
   -1.2212    1.1806   -0.0314 C   0  0  0  0  0  0  0  0  0  0  0  0
   -0.5295    1.2042   -0.8760 H   0  0  0  0  0  0  0  0  0  0  0  0
   -2.2384    1.2235   -0.4231 H   0  0  0  0  0  0  0  0  0  0  0  0
   -0.9601    2.4211    0.8371 C   0  0  0  0  0  0  0  0  0  0  0  0
   -0.6774    2.1106    1.8433 H   0  0  0  0  0  0  0  0  0  0  0  0
   -0.1449    3.0005    0.3996 H   0  0  0  0  0  0  0  0  0  0  0  0
   -2.2124    3.3006    0.9259 C   0  0  0  0  0  0  0  0  0  0  0  0
   -2.5125    3.6132   -0.0747 H   0  0  0  0  0  0  0  0  0  0  0  0
   -3.0231    2.7335    1.3844 H   0  0  0  0  0  0  0  0  0  0  0  0
   -1.9185    4.5372    1.7730 C   0  0  0  0  0  0  0  0  0  0  0  0
   -1.6365    4.2280    2.7782 H   0  0  0  0  0  0  0  0  0  0  0  0
   -1.0973    5.0952    1.3263 H   0  0  0  0  0  0  0  0  0  0  0  0
   -3.0916    5.4144    1.8593 N   0  0  0  0  0  0  0  0  0  0  0  0
   -2.8666    6.2118    2.4360 H   0  0  0  0  0  0  0  0  0  0  0  0
   -3.3383    5.7300    0.9320 H   0  0  0  0  0  0  0  0  0  0  0  0
   -0.5564    0.0727    2.1744 C   0  0  0  0  0  0  0  0  0  0  0  0
    0.6169   -0.1288    2.4805 O   0  0  0  0  0  0  0  0  0  0  0  0
   -1.4759    0.4743    3.0595 N   0  0  0  0  0  0  0  0  0  0  0  0
   -2.4132    0.6318    2.7275 H   0  0  0  0  0  0  0  0  0  0  0  0
   -1.1971    0.7118    4.4750 C   0  0  0  0  0  0  0  0  0  0  0  0
   -0.3779    1.4272    4.5748 H   0  0  0  0  0  0  0  0  0  0  0  0
   -2.0826    1.1064    4.9754 H   0  0  0  0  0  0  0  0  0  0  0  0
   -0.8992   -0.2240    4.9525 H   0  0  0  0  0  0  0  0  0  0  0  0
  5  6  2  0  0  0  0
  5  7  1  0  0  0  0
  2  3  1  0  0  0  0
  2  4  1  0  0  0  0
  2  5  1  0  0  0  0
  1  2  1  0  0  0  0
 26 27  2  0  0  0  0
 26 28  1  0  0  0  0
 23 24  1  0  0  0  0
 23 25  1  0  0  0  0
 20 21  1  0  0  0  0
 20 22  1  0  0  0  0
 20 23  1  0  0  0  0
 17 18  1  0  0  0  0
 17 19  1  0  0  0  0
 17 20  1  0  0  0  0
 14 15  1  0  0  0  0
 14 16  1  0  0  0  0
 14 17  1  0  0  0  0
 11 12  1  0  0  0  0
 11 13  1  0  0  0  0
 11 14  1  0  0  0  0
  9 10  1  0  0  0  0
  9 11  1  0  0  0  0
  9 26  1  0  0  0  0
  7  8  1  0  0  0  0
  7  9  1  0  0  0  0
 30 31  1  0  0  0  0
 30 32  1  0  0  0  0
 30 33  1  0  0  0  0
 28 29  1  0  0  0  0
 28 30  1  0  0  0  0
M  END
$$$$
default_name
  -OEChem-02102213163D

 33 32  0     1  0  0  0  0  0999 V2000
   -3.8420   -3.6918    1.5562 H   0  0  0  0  0  0  0  0  0  0  0  0
   -3.8430   -2.7008    1.1032 C   0  0  0  0  0  0  0  0  0  0  0  0
   -4.5510   -2.0608    1.6242 H   0  0  0  0  0  0  0  0  0  0  0  0
   -4.1140   -2.7798    0.0522 H   0  0  0  0  0  0  0  0  0  0  0  0
   -2.4570   -2.1098    1.2172 C   0  0  0  0  0  0  0  0  0  0  0  0
   -1.5600   -2.7438    1.7572 O   0  0  0  0  0  0  0  0  0  0  0  0
   -2.2870   -0.8898    0.7102 N   0  0  0  0  0  0  0  0  0  0  0  0
   -3.0820   -0.4218    0.2992 H   0  0  0  0  0  0  0  0  0  0  0  0
   -1.0240   -0.1468    0.7262 C   0  0  1  0  0  0  0  0  0  0  0  0
   -0.2680   -0.7367    0.2062 H   0  0  0  0  0  0  0  0  0  0  0  0
   -1.2212    1.1806   -0.0314 C   0  0  0  0  0  0  0  0  0  0  0  0
   -0.5295    1.2042   -0.8760 H   0  0  0  0  0  0  0  0  0  0  0  0
   -2.2384    1.2235   -0.4231 H   0  0  0  0  0  0  0  0  0  0  0  0
   -0.9601    2.4211    0.8371 C   0  0  0  0  0  0  0  0  0  0  0  0
   -0.4292    2.1283    1.7434 H   0  0  0  0  0  0  0  0  0  0  0  0
   -0.3468    3.1291    0.2766 H   0  0  0  0  0  0  0  0  0  0  0  0
   -2.2767    3.0986    1.2338 C   0  0  0  0  0  0  0  0  0  0  0  0
   -2.8234    3.3906    0.3366 H   0  0  0  0  0  0  0  0  0  0  0  0
   -2.8829    2.4028    1.8146 H   0  0  0  0  0  0  0  0  0  0  0  0
   -1.9878    4.3408    2.0744 C   0  0  0  0  0  0  0  0  0  0  0  0
   -1.4581    4.0493    2.9799 H   0  0  0  0  0  0  0  0  0  0  0  0
   -1.3676    5.0289    1.5023 H   0  0  0  0  0  0  0  0  0  0  0  0
   -3.2280    5.0281    2.4522 N   0  0  0  0  0  0  0  0  0  0  0  0
   -3.0010    5.8335    3.0167 H   0  0  0  0  0  0  0  0  0  0  0  0
   -3.7080    5.3290    1.6159 H   0  0  0  0  0  0  0  0  0  0  0  0
   -0.5564    0.0727    2.1744 C   0  0  0  0  0  0  0  0  0  0  0  0
    0.6169   -0.1288    2.4805 O   0  0  0  0  0  0  0  0  0  0  0  0
   -1.4759    0.4743    3.0595 N   0  0  0  0  0  0  0  0  0  0  0  0
   -2.4132    0.6318    2.7275 H   0  0  0  0  0  0  0  0  0  0  0  0
   -1.1971    0.7118    4.4750 C   0  0  0  0  0  0  0  0  0  0  0  0
   -0.3779    1.4272    4.5748 H   0  0  0  0  0  0  0  0  0  0  0  0
   -2.0826    1.1064    4.9754 H   0  0  0  0  0  0  0  0  0  0  0  0
   -0.8992   -0.2240    4.9525 H   0  0  0  0  0  0  0  0  0  0  0  0
  5  6  2  0  0  0  0
  5  7  1  0  0  0  0
  2  3  1  0  0  0  0
  2  4  1  0  0  0  0
  2  5  1  0  0  0  0
  1  2  1  0  0  0  0
 26 27  2  0  0  0  0
 26 28  1  0  0  0  0
 23 24  1  0  0  0  0
 23 25  1  0  0  0  0
 20 21  1  0  0  0  0
 20 22  1  0  0  0  0
 20 23  1  0  0  0  0
 17 18  1  0  0  0  0
 17 19  1  0  0  0  0
 17 20  1  0  0  0  0
 14 15  1  0  0  0  0
 14 16  1  0  0  0  0
 14 17  1  0  0  0  0
 11 12  1  0  0  0  0
 11 13  1  0  0  0  0
 11 14  1  0  0  0  0
  9 10  1  0  0  0  0
  9 11  1  0  0  0  0
  9 26  1  0  0  0  0
  7  8  1  0  0  0  0
  7  9  1  0  0  0  0
 30 31  1  0  0  0  0
 30 32  1  0  0  0  0
 30 33  1  0  0  0  0
 28 29  1  0  0  0  0
 28 30  1  0  0  0  0
M  END
$$$$
default_name
  -OEChem-02102213163D

 33 32  0     1  0  0  0  0  0999 V2000
   -3.8420   -3.6918    1.5562 H   0  0  0  0  0  0  0  0  0  0  0  0
   -3.8430   -2.7008    1.1032 C   0  0  0  0  0  0  0  0  0  0  0  0
   -4.5510   -2.0608    1.6242 H   0  0  0  0  0  0  0  0  0  0  0  0
   -4.1140   -2.7798    0.0522 H   0  0  0  0  0  0  0  0  0  0  0  0
   -2.4570   -2.1098    1.2172 C   0  0  0  0  0  0  0  0  0  0  0  0
   -1.5600   -2.7438    1.7572 O   0  0  0  0  0  0  0  0  0  0  0  0
   -2.2870   -0.8898    0.7102 N   0  0  0  0  0  0  0  0  0  0  0  0
   -3.0820   -0.4218    0.2992 H   0  0  0  0  0  0  0  0  0  0  0  0
   -1.0240   -0.1468    0.7262 C   0  0  1  0  0  0  0  0  0  0  0  0
   -0.2680   -0.7367    0.2062 H   0  0  0  0  0  0  0  0  0  0  0  0
   -1.2212    1.1806   -0.0314 C   0  0  0  0  0  0  0  0  0  0  0  0
   -0.5295    1.2042   -0.8760 H   0  0  0  0  0  0  0  0  0  0  0  0
   -2.2384    1.2235   -0.4231 H   0  0  0  0  0  0  0  0  0  0  0  0
   -0.9601    2.4211    0.8371 C   0  0  0  0  0  0  0  0  0  0  0  0
   -0.2130    2.1862    1.5957 H   0  0  0  0  0  0  0  0  0  0  0  0
   -0.5863    3.2292    0.2056 H   0  0  0  0  0  0  0  0  0  0  0  0
   -2.2448    2.8805    1.5357 C   0  0  0  0  0  0  0  0  0  0  0  0
   -3.0052    3.1121    0.7892 H   0  0  0  0  0  0  0  0  0  0  0  0
   -2.6092    2.0850    2.1863 H   0  0  0  0  0  0  0  0  0  0  0  0
   -1.9630    4.1277    2.3713 C   0  0  0  0  0  0  0  0  0  0  0  0
   -1.2174    3.8939    3.1296 H   0  0  0  0  0  0  0  0  0  0  0  0
   -1.5822    4.9175    1.7260 H   0  0  0  0  0  0  0  0  0  0  0  0
   -3.1794    4.6088    3.0363 N   0  0  0  0  0  0  0  0  0  0  0  0
   -2.9541    5.4230    3.5890 H   0  0  0  0  0  0  0  0  0  0  0  0
   -3.8636    4.8576    2.3361 H   0  0  0  0  0  0  0  0  0  0  0  0
   -0.5564    0.0727    2.1744 C   0  0  0  0  0  0  0  0  0  0  0  0
    0.6169   -0.1288    2.4805 O   0  0  0  0  0  0  0  0  0  0  0  0
   -1.4759    0.4743    3.0595 N   0  0  0  0  0  0  0  0  0  0  0  0
   -2.4132    0.6318    2.7275 H   0  0  0  0  0  0  0  0  0  0  0  0
   -1.1971    0.7118    4.4750 C   0  0  0  0  0  0  0  0  0  0  0  0
   -0.3779    1.4272    4.5748 H   0  0  0  0  0  0  0  0  0  0  0  0
   -2.0826    1.1064    4.9754 H   0  0  0  0  0  0  0  0  0  0  0  0
   -0.8992   -0.2240    4.9525 H   0  0  0  0  0  0  0  0  0  0  0  0
  5  6  2  0  0  0  0
  5  7  1  0  0  0  0
  2  3  1  0  0  0  0
  2  4  1  0  0  0  0
  2  5  1  0  0  0  0
  1  2  1  0  0  0  0
 26 27  2  0  0  0  0
 26 28  1  0  0  0  0
 23 24  1  0  0  0  0
 23 25  1  0  0  0  0
 20 21  1  0  0  0  0
 20 22  1  0  0  0  0
 20 23  1  0  0  0  0
 17 18  1  0  0  0  0
 17 19  1  0  0  0  0
 17 20  1  0  0  0  0
 14 15  1  0  0  0  0
 14 16  1  0  0  0  0
 14 17  1  0  0  0  0
 11 12  1  0  0  0  0
 11 13  1  0  0  0  0
 11 14  1  0  0  0  0
  9 10  1  0  0  0  0
  9 11  1  0  0  0  0
  9 26  1  0  0  0  0
  7  8  1  0  0  0  0
  7  9  1  0  0  0  0
 30 31  1  0  0  0  0
 30 32  1  0  0  0  0
 30 33  1  0  0  0  0
 28 29  1  0  0  0  0
 28 30  1  0  0  0  0
M  END
$$$$
default_name
  -OEChem-02102213163D

 33 32  0     1  0  0  0  0  0999 V2000
   -3.8420   -3.6918    1.5562 H   0  0  0  0  0  0  0  0  0  0  0  0
   -3.8430   -2.7008    1.1032 C   0  0  0  0  0  0  0  0  0  0  0  0
   -4.5510   -2.0608    1.6242 H   0  0  0  0  0  0  0  0  0  0  0  0
   -4.1140   -2.7798    0.0522 H   0  0  0  0  0  0  0  0  0  0  0  0
   -2.4570   -2.1098    1.2172 C   0  0  0  0  0  0  0  0  0  0  0  0
   -1.5600   -2.7438    1.7572 O   0  0  0  0  0  0  0  0  0  0  0  0
   -2.2870   -0.8898    0.7102 N   0  0  0  0  0  0  0  0  0  0  0  0
   -3.0820   -0.4218    0.2992 H   0  0  0  0  0  0  0  0  0  0  0  0
   -1.0240   -0.1468    0.7262 C   0  0  1  0  0  0  0  0  0  0  0  0
   -0.2680   -0.7367    0.2062 H   0  0  0  0  0  0  0  0  0  0  0  0
   -1.2212    1.1806   -0.0314 C   0  0  0  0  0  0  0  0  0  0  0  0
   -0.5295    1.2042   -0.8760 H   0  0  0  0  0  0  0  0  0  0  0  0
   -2.2384    1.2235   -0.4231 H   0  0  0  0  0  0  0  0  0  0  0  0
   -0.9601    2.4211    0.8371 C   0  0  0  0  0  0  0  0  0  0  0  0
   -0.0435    2.2802    1.4105 H   0  0  0  0  0  0  0  0  0  0  0  0
   -0.8471    3.2940    0.1915 H   0  0  0  0  0  0  0  0  0  0  0  0
   -2.1191    2.6613    1.8111 C   0  0  0  0  0  0  0  0  0  0  0  0
   -3.0455    2.7965    1.2520 H   0  0  0  0  0  0  0  0  0  0  0  0
   -2.2208    1.8017    2.4742 H   0  0  0  0  0  0  0  0  0  0  0  0
   -1.8459    3.9124    2.6436 C   0  0  0  0  0  0  0  0  0  0  0  0
   -0.9310    3.7723    3.2170 H   0  0  0  0  0  0  0  0  0  0  0  0
   -1.7265    4.7687    1.9819 H   0  0  0  0  0  0  0  0  0  0  0  0
   -2.9490    4.1853    3.5720 N   0  0  0  0  0  0  0  0  0  0  0  0
   -2.7292    5.0081    4.1140 H   0  0  0  0  0  0  0  0  0  0  0  0
   -3.7944    4.3477    3.0435 H   0  0  0  0  0  0  0  0  0  0  0  0
   -0.5564    0.0727    2.1744 C   0  0  0  0  0  0  0  0  0  0  0  0
    0.6169   -0.1288    2.4805 O   0  0  0  0  0  0  0  0  0  0  0  0
   -1.4759    0.4743    3.0595 N   0  0  0  0  0  0  0  0  0  0  0  0
   -2.4132    0.6318    2.7275 H   0  0  0  0  0  0  0  0  0  0  0  0
   -1.1971    0.7118    4.4750 C   0  0  0  0  0  0  0  0  0  0  0  0
   -0.3779    1.4272    4.5748 H   0  0  0  0  0  0  0  0  0  0  0  0
   -2.0826    1.1064    4.9754 H   0  0  0  0  0  0  0  0  0  0  0  0
   -0.8992   -0.2240    4.9525 H   0  0  0  0  0  0  0  0  0  0  0  0
  5  6  2  0  0  0  0
  5  7  1  0  0  0  0
  2  3  1  0  0  0  0
  2  4  1  0  0  0  0
  2  5  1  0  0  0  0
  1  2  1  0  0  0  0
 26 27  2  0  0  0  0
 26 28  1  0  0  0  0
 23 24  1  0  0  0  0
 23 25  1  0  0  0  0
 20 21  1  0  0  0  0
 20 22  1  0  0  0  0
 20 23  1  0  0  0  0
 17 18  1  0  0  0  0
 17 19  1  0  0  0  0
 17 20  1  0  0  0  0
 14 15  1  0  0  0  0
 14 16  1  0  0  0  0
 14 17  1  0  0  0  0
 11 12  1  0  0  0  0
 11 13  1  0  0  0  0
 11 14  1  0  0  0  0
  9 10  1  0  0  0  0
  9 11  1  0  0  0  0
  9 26  1  0  0  0  0
  7  8  1  0  0  0  0
  7  9  1  0  0  0  0
 30 31  1  0  0  0  0
 30 32  1  0  0  0  0
 30 33  1  0  0  0  0
 28 29  1  0  0  0  0
 28 30  1  0  0  0  0
M  END
$$$$
default_name
  -OEChem-02102213163D

 33 32  0     1  0  0  0  0  0999 V2000
   -3.8420   -3.6918    1.5562 H   0  0  0  0  0  0  0  0  0  0  0  0
   -3.8430   -2.7008    1.1032 C   0  0  0  0  0  0  0  0  0  0  0  0
   -4.5510   -2.0608    1.6242 H   0  0  0  0  0  0  0  0  0  0  0  0
   -4.1140   -2.7798    0.0522 H   0  0  0  0  0  0  0  0  0  0  0  0
   -2.4570   -2.1098    1.2172 C   0  0  0  0  0  0  0  0  0  0  0  0
   -1.5600   -2.7438    1.7572 O   0  0  0  0  0  0  0  0  0  0  0  0
   -2.2870   -0.8898    0.7102 N   0  0  0  0  0  0  0  0  0  0  0  0
   -3.0820   -0.4218    0.2992 H   0  0  0  0  0  0  0  0  0  0  0  0
   -1.0240   -0.1468    0.7262 C   0  0  1  0  0  0  0  0  0  0  0  0
   -0.2680   -0.7367    0.2062 H   0  0  0  0  0  0  0  0  0  0  0  0
   -1.2212    1.1806   -0.0314 C   0  0  0  0  0  0  0  0  0  0  0  0
   -0.5295    1.2042   -0.8760 H   0  0  0  0  0  0  0  0  0  0  0  0
   -2.2384    1.2235   -0.4231 H   0  0  0  0  0  0  0  0  0  0  0  0
   -0.9601    2.4211    0.8371 C   0  0  0  0  0  0  0  0  0  0  0  0
    0.0679    2.4039    1.2003 H   0  0  0  0  0  0  0  0  0  0  0  0
   -1.1114    3.3191    0.2352 H   0  0  0  0  0  0  0  0  0  0  0  0
   -1.9081    2.4557    2.0411 C   0  0  0  0  0  0  0  0  0  0  0  0
   -2.9416    2.4654    1.6937 H   0  0  0  0  0  0  0  0  0  0  0  0
   -1.7439    1.5722    2.6586 H   0  0  0  0  0  0  0  0  0  0  0  0
   -1.6444    3.7096    2.8727 C   0  0  0  0  0  0  0  0  0  0  0  0
   -0.6182    3.6930    3.2363 H   0  0  0  0  0  0  0  0  0  0  0  0
   -1.7906    4.5926    2.2527 H   0  0  0  0  0  0  0  0  0  0  0  0
   -2.5527    3.7864    4.0227 N   0  0  0  0  0  0  0  0  0  0  0  0
   -2.3416    4.6172    4.5558 H   0  0  0  0  0  0  0  0  0  0  0  0
   -3.5052    3.8343    3.6900 H   0  0  0  0  0  0  0  0  0  0  0  0
   -0.5564    0.0727    2.1744 C   0  0  0  0  0  0  0  0  0  0  0  0
    0.6169   -0.1288    2.4805 O   0  0  0  0  0  0  0  0  0  0  0  0
   -1.4759    0.4743    3.0595 N   0  0  0  0  0  0  0  0  0  0  0  0
   -2.4132    0.6318    2.7275 H   0  0  0  0  0  0  0  0  0  0  0  0
   -1.1971    0.7118    4.4750 C   0  0  0  0  0  0  0  0  0  0  0  0
   -0.3779    1.4272    4.5748 H   0  0  0  0  0  0  0  0  0  0  0  0
   -2.0826    1.1064    4.9754 H   0  0  0  0  0  0  0  0  0  0  0  0
   -0.8992   -0.2240    4.9525 H   0  0  0  0  0  0  0  0  0  0  0  0
  5  6  2  0  0  0  0
  5  7  1  0  0  0  0
  2  3  1  0  0  0  0
  2  4  1  0  0  0  0
  2  5  1  0  0  0  0
  1  2  1  0  0  0  0
 26 27  2  0  0  0  0
 26 28  1  0  0  0  0
 23 24  1  0  0  0  0
 23 25  1  0  0  0  0
 20 21  1  0  0  0  0
 20 22  1  0  0  0  0
 20 23  1  0  0  0  0
 17 18  1  0  0  0  0
 17 19  1  0  0  0  0
 17 20  1  0  0  0  0
 14 15  1  0  0  0  0
 14 16  1  0  0  0  0
 14 17  1  0  0  0  0
 11 12  1  0  0  0  0
 11 13  1  0  0  0  0
 11 14  1  0  0  0  0
  9 10  1  0  0  0  0
  9 11  1  0  0  0  0
  9 26  1  0  0  0  0
  7  8  1  0  0  0  0
  7  9  1  0  0  0  0
 30 31  1  0  0  0  0
 30 32  1  0  0  0  0
 30 33  1  0  0  0  0
 28 29  1  0  0  0  0
 28 30  1  0  0  0  0
M  END
$$$$
default_name
  -OEChem-02102213163D

 33 32  0     1  0  0  0  0  0999 V2000
   -3.8420   -3.6918    1.5562 H   0  0  0  0  0  0  0  0  0  0  0  0
   -3.8430   -2.7008    1.1032 C   0  0  0  0  0  0  0  0  0  0  0  0
   -4.5510   -2.0608    1.6242 H   0  0  0  0  0  0  0  0  0  0  0  0
   -4.1140   -2.7798    0.0522 H   0  0  0  0  0  0  0  0  0  0  0  0
   -2.4570   -2.1098    1.2172 C   0  0  0  0  0  0  0  0  0  0  0  0
   -1.5600   -2.7438    1.7572 O   0  0  0  0  0  0  0  0  0  0  0  0
   -2.2870   -0.8898    0.7102 N   0  0  0  0  0  0  0  0  0  0  0  0
   -3.0820   -0.4218    0.2992 H   0  0  0  0  0  0  0  0  0  0  0  0
   -1.0240   -0.1468    0.7262 C   0  0  1  0  0  0  0  0  0  0  0  0
   -0.2680   -0.7367    0.2062 H   0  0  0  0  0  0  0  0  0  0  0  0
   -1.2212    1.1806   -0.0314 C   0  0  0  0  0  0  0  0  0  0  0  0
   -0.5295    1.2042   -0.8760 H   0  0  0  0  0  0  0  0  0  0  0  0
   -2.2384    1.2235   -0.4231 H   0  0  0  0  0  0  0  0  0  0  0  0
   -0.9601    2.4211    0.8371 C   0  0  0  0  0  0  0  0  0  0  0  0
    0.1134    2.5489    0.9794 H   0  0  0  0  0  0  0  0  0  0  0  0
   -1.3613    3.3027    0.3337 H   0  0  0  0  0  0  0  0  0  0  0  0
   -1.6261    2.2780    2.2103 C   0  0  0  0  0  0  0  0  0  0  0  0
   -2.7005    2.1414    2.0840 H   0  0  0  0  0  0  0  0  0  0  0  0
   -1.2112    1.4121    2.7271 H   0  0  0  0  0  0  0  0  0  0  0  0
   -1.3722    3.5331    3.0429 C   0  0  0  0  0  0  0  0  0  0  0  0
   -0.3005    3.6613    3.1860 H   0  0  0  0  0  0  0  0  0  0  0  0
   -1.7702    4.4012    2.5200 H   0  0  0  0  0  0  0  0  0  0  0  0
   -2.0173    3.4392    4.3576 N   0  0  0  0  0  0  0  0  0  0  0  0
   -1.8177    4.2768    4.8845 H   0  0  0  0  0  0  0  0  0  0  0  0
   -3.0157    3.3522    4.2314 H   0  0  0  0  0  0  0  0  0  0  0  0
   -0.5564    0.0727    2.1744 C   0  0  0  0  0  0  0  0  0  0  0  0
    0.6169   -0.1288    2.4805 O   0  0  0  0  0  0  0  0  0  0  0  0
   -1.4759    0.4743    3.0595 N   0  0  0  0  0  0  0  0  0  0  0  0
   -2.4132    0.6318    2.7275 H   0  0  0  0  0  0  0  0  0  0  0  0
   -1.1971    0.7118    4.4750 C   0  0  0  0  0  0  0  0  0  0  0  0
   -0.3779    1.4272    4.5748 H   0  0  0  0  0  0  0  0  0  0  0  0
   -2.0826    1.1064    4.9754 H   0  0  0  0  0  0  0  0  0  0  0  0
   -0.8992   -0.2240    4.9525 H   0  0  0  0  0  0  0  0  0  0  0  0
  5  6  2  0  0  0  0
  5  7  1  0  0  0  0
  2  3  1  0  0  0  0
  2  4  1  0  0  0  0
  2  5  1  0  0  0  0
  1  2  1  0  0  0  0
 26 27  2  0  0  0  0
 26 28  1  0  0  0  0
 23 24  1  0  0  0  0
 23 25  1  0  0  0  0
 20 21  1  0  0  0  0
 20 22  1  0  0  0  0
 20 23  1  0  0  0  0
 17 18  1  0  0  0  0
 17 19  1  0  0  0  0
 17 20  1  0  0  0  0
 14 15  1  0  0  0  0
 14 16  1  0  0  0  0
 14 17  1  0  0  0  0
 11 12  1  0  0  0  0
 11 13  1  0  0  0  0
 11 14  1  0  0  0  0
  9 10  1  0  0  0  0
  9 11  1  0  0  0  0
  9 26  1  0  0  0  0
  7  8  1  0  0  0  0
  7  9  1  0  0  0  0
 30 31  1  0  0  0  0
 30 32  1  0  0  0  0
 30 33  1  0  0  0  0
 28 29  1  0  0  0  0
 28 30  1  0  0  0  0
M  END
$$$$
default_name
  -OEChem-02102213163D

 33 32  0     1  0  0  0  0  0999 V2000
   -3.8420   -3.6918    1.5562 H   0  0  0  0  0  0  0  0  0  0  0  0
   -3.8430   -2.7008    1.1032 C   0  0  0  0  0  0  0  0  0  0  0  0
   -4.5510   -2.0608    1.6242 H   0  0  0  0  0  0  0  0  0  0  0  0
   -4.1140   -2.7798    0.0522 H   0  0  0  0  0  0  0  0  0  0  0  0
   -2.4570   -2.1098    1.2172 C   0  0  0  0  0  0  0  0  0  0  0  0
   -1.5600   -2.7438    1.7572 O   0  0  0  0  0  0  0  0  0  0  0  0
   -2.2870   -0.8898    0.7102 N   0  0  0  0  0  0  0  0  0  0  0  0
   -3.0820   -0.4218    0.2992 H   0  0  0  0  0  0  0  0  0  0  0  0
   -1.0240   -0.1468    0.7262 C   0  0  1  0  0  0  0  0  0  0  0  0
   -0.2680   -0.7367    0.2062 H   0  0  0  0  0  0  0  0  0  0  0  0
   -1.2212    1.1806   -0.0314 C   0  0  0  0  0  0  0  0  0  0  0  0
   -0.5295    1.2042   -0.8760 H   0  0  0  0  0  0  0  0  0  0  0  0
   -2.2384    1.2235   -0.4231 H   0  0  0  0  0  0  0  0  0  0  0  0
   -0.9601    2.4211    0.8371 C   0  0  0  0  0  0  0  0  0  0  0  0
    0.0900    2.7054    0.7630 H   0  0  0  0  0  0  0  0  0  0  0  0
   -1.5797    3.2460    0.4804 H   0  0  0  0  0  0  0  0  0  0  0  0
   -1.2924    2.1401    2.3069 C   0  0  0  0  0  0  0  0  0  0  0  0
   -2.3387    1.8466    2.3964 H   0  0  0  0  0  0  0  0  0  0  0  0
   -0.6589    1.3325    2.6748 H   0  0  0  0  0  0  0  0  0  0  0  0
   -1.0479    3.3950    3.1427 C   0  0  0  0  0  0  0  0  0  0  0  0
    0.0006    3.6794    3.0697 H   0  0  0  0  0  0  0  0  0  0  0  0
   -1.6666    4.2075    2.7654 H   0  0  0  0  0  0  0  0  0  0  0  0
   -1.3793    3.1674    4.5540 N   0  0  0  0  0  0  0  0  0  0  0  0
   -1.1932    4.0102    5.0774 H   0  0  0  0  0  0  0  0  0  0  0  0
   -2.3592    2.9343    4.6308 H   0  0  0  0  0  0  0  0  0  0  0  0
   -0.5564    0.0727    2.1744 C   0  0  0  0  0  0  0  0  0  0  0  0
    0.6169   -0.1288    2.4805 O   0  0  0  0  0  0  0  0  0  0  0  0
   -1.4759    0.4743    3.0595 N   0  0  0  0  0  0  0  0  0  0  0  0
   -2.4132    0.6318    2.7275 H   0  0  0  0  0  0  0  0  0  0  0  0
   -1.1971    0.7118    4.4750 C   0  0  0  0  0  0  0  0  0  0  0  0
   -0.3779    1.4272    4.5748 H   0  0  0  0  0  0  0  0  0  0  0  0
   -2.0826    1.1064    4.9754 H   0  0  0  0  0  0  0  0  0  0  0  0
   -0.8992   -0.2240    4.9525 H   0  0  0  0  0  0  0  0  0  0  0  0
  5  6  2  0  0  0  0
  5  7  1  0  0  0  0
  2  3  1  0  0  0  0
  2  4  1  0  0  0  0
  2  5  1  0  0  0  0
  1  2  1  0  0  0  0
 26 27  2  0  0  0  0
 26 28  1  0  0  0  0
 23 24  1  0  0  0  0
 23 25  1  0  0  0  0
 20 21  1  0  0  0  0
 20 22  1  0  0  0  0
 20 23  1  0  0  0  0
 17 18  1  0  0  0  0
 17 19  1  0  0  0  0
 17 20  1  0  0  0  0
 14 15  1  0  0  0  0
 14 16  1  0  0  0  0
 14 17  1  0  0  0  0
 11 12  1  0  0  0  0
 11 13  1  0  0  0  0
 11 14  1  0  0  0  0
  9 10  1  0  0  0  0
  9 11  1  0  0  0  0
  9 26  1  0  0  0  0
  7  8  1  0  0  0  0
  7  9  1  0  0  0  0
 30 31  1  0  0  0  0
 30 32  1  0  0  0  0
 30 33  1  0  0  0  0
 28 29  1  0  0  0  0
 28 30  1  0  0  0  0
M  END
$$$$
default_name
  -OEChem-02102213163D

 33 32  0     1  0  0  0  0  0999 V2000
   -3.8420   -3.6918    1.5562 H   0  0  0  0  0  0  0  0  0  0  0  0
   -3.8430   -2.7008    1.1032 C   0  0  0  0  0  0  0  0  0  0  0  0
   -4.5510   -2.0608    1.6242 H   0  0  0  0  0  0  0  0  0  0  0  0
   -4.1140   -2.7798    0.0522 H   0  0  0  0  0  0  0  0  0  0  0  0
   -2.4570   -2.1098    1.2172 C   0  0  0  0  0  0  0  0  0  0  0  0
   -1.5600   -2.7438    1.7572 O   0  0  0  0  0  0  0  0  0  0  0  0
   -2.2870   -0.8898    0.7102 N   0  0  0  0  0  0  0  0  0  0  0  0
   -3.0820   -0.4218    0.2992 H   0  0  0  0  0  0  0  0  0  0  0  0
   -1.0240   -0.1468    0.7262 C   0  0  1  0  0  0  0  0  0  0  0  0
   -0.2680   -0.7367    0.2062 H   0  0  0  0  0  0  0  0  0  0  0  0
   -1.2212    1.1806   -0.0314 C   0  0  0  0  0  0  0  0  0  0  0  0
   -0.5295    1.2042   -0.8760 H   0  0  0  0  0  0  0  0  0  0  0  0
   -2.2384    1.2235   -0.4231 H   0  0  0  0  0  0  0  0  0  0  0  0
   -0.9601    2.4211    0.8371 C   0  0  0  0  0  0  0  0  0  0  0  0
   -0.0007    2.8626    0.5657 H   0  0  0  0  0  0  0  0  0  0  0  0
   -1.7517    3.1528    0.6652 H   0  0  0  0  0  0  0  0  0  0  0  0
   -0.9297    2.0515    2.3244 C   0  0  0  0  0  0  0  0  0  0  0  0
   -1.8808    1.6009    2.6096 H   0  0  0  0  0  0  0  0  0  0  0  0
   -0.1247    1.3386    2.5055 H   0  0  0  0  0  0  0  0  0  0  0  0
   -0.6936    3.3046    3.1653 C   0  0  0  0  0  0  0  0  0  0  0  0
    0.2644    3.7460    2.8953 H   0  0  0  0  0  0  0  0  0  0  0  0
   -1.4870    4.0248    2.9724 H   0  0  0  0  0  0  0  0  0  0  0  0
   -0.6824    2.9896    4.5985 N   0  0  0  0  0  0  0  0  0  0  0  0
   -0.5106    3.8356    5.1216 H   0  0  0  0  0  0  0  0  0  0  0  0
   -1.5805    2.6092    4.8612 H   0  0  0  0  0  0  0  0  0  0  0  0
   -0.5564    0.0727    2.1744 C   0  0  0  0  0  0  0  0  0  0  0  0
    0.6169   -0.1288    2.4805 O   0  0  0  0  0  0  0  0  0  0  0  0
   -1.4759    0.4743    3.0595 N   0  0  0  0  0  0  0  0  0  0  0  0
   -2.4132    0.6318    2.7275 H   0  0  0  0  0  0  0  0  0  0  0  0
   -1.1971    0.7118    4.4750 C   0  0  0  0  0  0  0  0  0  0  0  0
   -0.3779    1.4272    4.5748 H   0  0  0  0  0  0  0  0  0  0  0  0
   -2.0826    1.1064    4.9754 H   0  0  0  0  0  0  0  0  0  0  0  0
   -0.8992   -0.2240    4.9525 H   0  0  0  0  0  0  0  0  0  0  0  0
  5  6  2  0  0  0  0
  5  7  1  0  0  0  0
  2  3  1  0  0  0  0
  2  4  1  0  0  0  0
  2  5  1  0  0  0  0
  1  2  1  0  0  0  0
 26 27  2  0  0  0  0
 26 28  1  0  0  0  0
 23 24  1  0  0  0  0
 23 25  1  0  0  0  0
 20 21  1  0  0  0  0
 20 22  1  0  0  0  0
 20 23  1  0  0  0  0
 17 18  1  0  0  0  0
 17 19  1  0  0  0  0
 17 20  1  0  0  0  0
 14 15  1  0  0  0  0
 14 16  1  0  0  0  0
 14 17  1  0  0  0  0
 11 12  1  0  0  0  0
 11 13  1  0  0  0  0
 11 14  1  0  0  0  0
  9 10  1  0  0  0  0
  9 11  1  0  0  0  0
  9 26  1  0  0  0  0
  7  8  1  0  0  0  0
  7  9  1  0  0  0  0
 30 31  1  0  0  0  0
 30 32  1  0  0  0  0
 30 33  1  0  0  0  0
 28 29  1  0  0  0  0
 28 30  1  0  0  0  0
M  END
$$$$
default_name
  -OEChem-02102213163D

 33 32  0     1  0  0  0  0  0999 V2000
   -3.8420   -3.6918    1.5562 H   0  0  0  0  0  0  0  0  0  0  0  0
   -3.8430   -2.7008    1.1032 C   0  0  0  0  0  0  0  0  0  0  0  0
   -4.5510   -2.0608    1.6242 H   0  0  0  0  0  0  0  0  0  0  0  0
   -4.1140   -2.7798    0.0522 H   0  0  0  0  0  0  0  0  0  0  0  0
   -2.4570   -2.1098    1.2172 C   0  0  0  0  0  0  0  0  0  0  0  0
   -1.5600   -2.7438    1.7572 O   0  0  0  0  0  0  0  0  0  0  0  0
   -2.2870   -0.8898    0.7102 N   0  0  0  0  0  0  0  0  0  0  0  0
   -3.0820   -0.4218    0.2992 H   0  0  0  0  0  0  0  0  0  0  0  0
   -1.0240   -0.1468    0.7262 C   0  0  1  0  0  0  0  0  0  0  0  0
   -0.2680   -0.7367    0.2062 H   0  0  0  0  0  0  0  0  0  0  0  0
   -1.2212    1.1806   -0.0314 C   0  0  0  0  0  0  0  0  0  0  0  0
   -0.5295    1.2042   -0.8760 H   0  0  0  0  0  0  0  0  0  0  0  0
   -2.2384    1.2235   -0.4231 H   0  0  0  0  0  0  0  0  0  0  0  0
   -0.9601    2.4211    0.8371 C   0  0  0  0  0  0  0  0  0  0  0  0
   -0.1526    3.0099    0.4009 H   0  0  0  0  0  0  0  0  0  0  0  0
   -1.8655    3.0295    0.8755 H   0  0  0  0  0  0  0  0  0  0  0  0
   -0.5627    2.0182    2.2617 C   0  0  0  0  0  0  0  0  0  0  0  0
   -1.3581    1.4213    2.7090 H   0  0  0  0  0  0  0  0  0  0  0  0
    0.3550    1.4301    2.2305 H   0  0  0  0  0  0  0  0  0  0  0  0
   -0.3335    3.2681    3.1091 C   0  0  0  0  0  0  0  0  0  0  0  0
    0.4731    3.8565    2.6746 H   0  0  0  0  0  0  0  0  0  0  0  0
   -1.2435    3.8656    3.1267 H   0  0  0  0  0  0  0  0  0  0  0  0
    0.0262    2.9178    4.4880 N   0  0  0  0  0  0  0  0  0  0  0  0
    0.1835    3.7648    5.0140 H   0  0  0  0  0  0  0  0  0  0  0  0
   -0.7326    2.3989    4.9066 H   0  0  0  0  0  0  0  0  0  0  0  0
   -0.5564    0.0727    2.1744 C   0  0  0  0  0  0  0  0  0  0  0  0
    0.6169   -0.1288    2.4805 O   0  0  0  0  0  0  0  0  0  0  0  0
   -1.4759    0.4743    3.0595 N   0  0  0  0  0  0  0  0  0  0  0  0
   -2.4132    0.6318    2.7275 H   0  0  0  0  0  0  0  0  0  0  0  0
   -1.1971    0.7118    4.4750 C   0  0  0  0  0  0  0  0  0  0  0  0
   -0.3779    1.4272    4.5748 H   0  0  0  0  0  0  0  0  0  0  0  0
   -2.0826    1.1064    4.9754 H   0  0  0  0  0  0  0  0  0  0  0  0
   -0.8992   -0.2240    4.9525 H   0  0  0  0  0  0  0  0  0  0  0  0
  5  6  2  0  0  0  0
  5  7  1  0  0  0  0
  2  3  1  0  0  0  0
  2  4  1  0  0  0  0
  2  5  1  0  0  0  0
  1  2  1  0  0  0  0
 26 27  2  0  0  0  0
 26 28  1  0  0  0  0
 23 24  1  0  0  0  0
 23 25  1  0  0  0  0
 20 21  1  0  0  0  0
 20 22  1  0  0  0  0
 20 23  1  0  0  0  0
 17 18  1  0  0  0  0
 17 19  1  0  0  0  0
 17 20  1  0  0  0  0
 14 15  1  0  0  0  0
 14 16  1  0  0  0  0
 14 17  1  0  0  0  0
 11 12  1  0  0  0  0
 11 13  1  0  0  0  0
 11 14  1  0  0  0  0
  9 10  1  0  0  0  0
  9 11  1  0  0  0  0
  9 26  1  0  0  0  0
  7  8  1  0  0  0  0
  7  9  1  0  0  0  0
 30 31  1  0  0  0  0
 30 32  1  0  0  0  0
 30 33  1  0  0  0  0
 28 29  1  0  0  0  0
 28 30  1  0  0  0  0
M  END
$$$$
default_name
  -OEChem-02102213163D

 33 32  0     1  0  0  0  0  0999 V2000
   -3.8420   -3.6918    1.5562 H   0  0  0  0  0  0  0  0  0  0  0  0
   -3.8430   -2.7008    1.1032 C   0  0  0  0  0  0  0  0  0  0  0  0
   -4.5510   -2.0608    1.6242 H   0  0  0  0  0  0  0  0  0  0  0  0
   -4.1140   -2.7798    0.0522 H   0  0  0  0  0  0  0  0  0  0  0  0
   -2.4570   -2.1098    1.2172 C   0  0  0  0  0  0  0  0  0  0  0  0
   -1.5600   -2.7438    1.7572 O   0  0  0  0  0  0  0  0  0  0  0  0
   -2.2870   -0.8898    0.7102 N   0  0  0  0  0  0  0  0  0  0  0  0
   -3.0820   -0.4218    0.2992 H   0  0  0  0  0  0  0  0  0  0  0  0
   -1.0240   -0.1468    0.7262 C   0  0  1  0  0  0  0  0  0  0  0  0
   -0.2680   -0.7367    0.2062 H   0  0  0  0  0  0  0  0  0  0  0  0
   -1.2212    1.1806   -0.0314 C   0  0  0  0  0  0  0  0  0  0  0  0
   -0.5295    1.2042   -0.8760 H   0  0  0  0  0  0  0  0  0  0  0  0
   -2.2384    1.2235   -0.4231 H   0  0  0  0  0  0  0  0  0  0  0  0
   -0.9601    2.4211    0.8371 C   0  0  0  0  0  0  0  0  0  0  0  0
   -0.3552    3.1372    0.2800 H   0  0  0  0  0  0  0  0  0  0  0  0
   -1.9136    2.8845    1.0971 H   0  0  0  0  0  0  0  0  0  0  0  0
   -0.2165    2.0424    2.1229 C   0  0  0  0  0  0  0  0  0  0  0  0
   -0.8061    1.3198    2.6879 H   0  0  0  0  0  0  0  0  0  0  0  0
    0.7475    1.6007    1.8688 H   0  0  0  0  0  0  0  0  0  0  0  0
    0.0080    3.2881    2.9780 C   0  0  0  0  0  0  0  0  0  0  0  0
    0.6123    4.0036    2.4227 H   0  0  0  0  0  0  0  0  0  0  0  0
   -0.9528    3.7405    3.2179 H   0  0  0  0  0  0  0  0  0  0  0  0
    0.6980    2.9570    4.2300 N   0  0  0  0  0  0  0  0  0  0  0  0
    0.8418    3.8027    4.7620 H   0  0  0  0  0  0  0  0  0  0  0  0
    0.1266    2.3177    4.7642 H   0  0  0  0  0  0  0  0  0  0  0  0
   -0.5564    0.0727    2.1744 C   0  0  0  0  0  0  0  0  0  0  0  0
    0.6169   -0.1288    2.4805 O   0  0  0  0  0  0  0  0  0  0  0  0
   -1.4759    0.4743    3.0595 N   0  0  0  0  0  0  0  0  0  0  0  0
   -2.4132    0.6318    2.7275 H   0  0  0  0  0  0  0  0  0  0  0  0
   -1.1971    0.7118    4.4750 C   0  0  0  0  0  0  0  0  0  0  0  0
   -0.3779    1.4272    4.5748 H   0  0  0  0  0  0  0  0  0  0  0  0
   -2.0826    1.1064    4.9754 H   0  0  0  0  0  0  0  0  0  0  0  0
   -0.8992   -0.2240    4.9525 H   0  0  0  0  0  0  0  0  0  0  0  0
  5  6  2  0  0  0  0
  5  7  1  0  0  0  0
  2  3  1  0  0  0  0
  2  4  1  0  0  0  0
  2  5  1  0  0  0  0
  1  2  1  0  0  0  0
 26 27  2  0  0  0  0
 26 28  1  0  0  0  0
 23 24  1  0  0  0  0
 23 25  1  0  0  0  0
 20 21  1  0  0  0  0
 20 22  1  0  0  0  0
 20 23  1  0  0  0  0
 17 18  1  0  0  0  0
 17 19  1  0  0  0  0
 17 20  1  0  0  0  0
 14 15  1  0  0  0  0
 14 16  1  0  0  0  0
 14 17  1  0  0  0  0
 11 12  1  0  0  0  0
 11 13  1  0  0  0  0
 11 14  1  0  0  0  0
  9 10  1  0  0  0  0
  9 11  1  0  0  0  0
  9 26  1  0  0  0  0
  7  8  1  0  0  0  0
  7  9  1  0  0  0  0
 30 31  1  0  0  0  0
 30 32  1  0  0  0  0
 30 33  1  0  0  0  0
 28 29  1  0  0  0  0
 28 30  1  0  0  0  0
M  END
$$$$
default_name
  -OEChem-02102213163D

 33 32  0     1  0  0  0  0  0999 V2000
   -3.8420   -3.6918    1.5562 H   0  0  0  0  0  0  0  0  0  0  0  0
   -3.8430   -2.7008    1.1032 C   0  0  0  0  0  0  0  0  0  0  0  0
   -4.5510   -2.0608    1.6242 H   0  0  0  0  0  0  0  0  0  0  0  0
   -4.1140   -2.7798    0.0522 H   0  0  0  0  0  0  0  0  0  0  0  0
   -2.4570   -2.1098    1.2172 C   0  0  0  0  0  0  0  0  0  0  0  0
   -1.5600   -2.7438    1.7572 O   0  0  0  0  0  0  0  0  0  0  0  0
   -2.2870   -0.8898    0.7102 N   0  0  0  0  0  0  0  0  0  0  0  0
   -3.0820   -0.4218    0.2992 H   0  0  0  0  0  0  0  0  0  0  0  0
   -1.0240   -0.1468    0.7262 C   0  0  1  0  0  0  0  0  0  0  0  0
   -0.2680   -0.7367    0.2062 H   0  0  0  0  0  0  0  0  0  0  0  0
   -1.2212    1.1806   -0.0314 C   0  0  0  0  0  0  0  0  0  0  0  0
   -0.5295    1.2042   -0.8760 H   0  0  0  0  0  0  0  0  0  0  0  0
   -2.2384    1.2235   -0.4231 H   0  0  0  0  0  0  0  0  0  0  0  0
   -0.9601    2.4211    0.8371 C   0  0  0  0  0  0  0  0  0  0  0  0
   -0.5949    3.2359    0.2112 H   0  0  0  0  0  0  0  0  0  0  0  0
   -1.8924    2.7277    1.3147 H   0  0  0  0  0  0  0  0  0  0  0  0
    0.0854    2.1226    1.9176 C   0  0  0  0  0  0  0  0  0  0  0  0
   -0.2624    1.3035    2.5478 H   0  0  0  0  0  0  0  0  0  0  0  0
    1.0261    1.8389    1.4448 H   0  0  0  0  0  0  0  0  0  0  0  0
    0.3076    3.3630    2.7808 C   0  0  0  0  0  0  0  0  0  0  0  0
    0.6727    4.1771    2.1567 H   0  0  0  0  0  0  0  0  0  0  0  0
   -0.6346    3.6583    3.2397 H   0  0  0  0  0  0  0  0  0  0  0  0
    1.2873    3.1044    3.8422 N   0  0  0  0  0  0  0  0  0  0  0  0
    1.4194    3.9467    4.3826 H   0  0  0  0  0  0  0  0  0  0  0  0
    0.9387    2.3713    4.4434 H   0  0  0  0  0  0  0  0  0  0  0  0
   -0.5564    0.0727    2.1744 C   0  0  0  0  0  0  0  0  0  0  0  0
    0.6169   -0.1288    2.4805 O   0  0  0  0  0  0  0  0  0  0  0  0
   -1.4759    0.4743    3.0595 N   0  0  0  0  0  0  0  0  0  0  0  0
   -2.4132    0.6318    2.7275 H   0  0  0  0  0  0  0  0  0  0  0  0
   -1.1971    0.7118    4.4750 C   0  0  0  0  0  0  0  0  0  0  0  0
   -0.3779    1.4272    4.5748 H   0  0  0  0  0  0  0  0  0  0  0  0
   -2.0826    1.1064    4.9754 H   0  0  0  0  0  0  0  0  0  0  0  0
   -0.8992   -0.2240    4.9525 H   0  0  0  0  0  0  0  0  0  0  0  0
  5  6  2  0  0  0  0
  5  7  1  0  0  0  0
  2  3  1  0  0  0  0
  2  4  1  0  0  0  0
  2  5  1  0  0  0  0
  1  2  1  0  0  0  0
 26 27  2  0  0  0  0
 26 28  1  0  0  0  0
 23 24  1  0  0  0  0
 23 25  1  0  0  0  0
 20 21  1  0  0  0  0
 20 22  1  0  0  0  0
 20 23  1  0  0  0  0
 17 18  1  0  0  0  0
 17 19  1  0  0  0  0
 17 20  1  0  0  0  0
 14 15  1  0  0  0  0
 14 16  1  0  0  0  0
 14 17  1  0  0  0  0
 11 12  1  0  0  0  0
 11 13  1  0  0  0  0
 11 14  1  0  0  0  0
  9 10  1  0  0  0  0
  9 11  1  0  0  0  0
  9 26  1  0  0  0  0
  7  8  1  0  0  0  0
  7  9  1  0  0  0  0
 30 31  1  0  0  0  0
 30 32  1  0  0  0  0
 30 33  1  0  0  0  0
 28 29  1  0  0  0  0
 28 30  1  0  0  0  0
M  END
$$$$
default_name
  -OEChem-02102213163D

 33 32  0     1  0  0  0  0  0999 V2000
   -3.8420   -3.6918    1.5562 H   0  0  0  0  0  0  0  0  0  0  0  0
   -3.8430   -2.7008    1.1032 C   0  0  0  0  0  0  0  0  0  0  0  0
   -4.5510   -2.0608    1.6242 H   0  0  0  0  0  0  0  0  0  0  0  0
   -4.1140   -2.7798    0.0522 H   0  0  0  0  0  0  0  0  0  0  0  0
   -2.4570   -2.1098    1.2172 C   0  0  0  0  0  0  0  0  0  0  0  0
   -1.5600   -2.7438    1.7572 O   0  0  0  0  0  0  0  0  0  0  0  0
   -2.2870   -0.8898    0.7102 N   0  0  0  0  0  0  0  0  0  0  0  0
   -3.0820   -0.4218    0.2992 H   0  0  0  0  0  0  0  0  0  0  0  0
   -1.0240   -0.1468    0.7262 C   0  0  1  0  0  0  0  0  0  0  0  0
   -0.2680   -0.7367    0.2062 H   0  0  0  0  0  0  0  0  0  0  0  0
   -1.2212    1.1806   -0.0314 C   0  0  0  0  0  0  0  0  0  0  0  0
   -0.5295    1.2042   -0.8760 H   0  0  0  0  0  0  0  0  0  0  0  0
   -2.2384    1.2235   -0.4231 H   0  0  0  0  0  0  0  0  0  0  0  0
   -0.9601    2.4211    0.8371 C   0  0  0  0  0  0  0  0  0  0  0  0
   -0.8551    3.2991    0.1991 H   0  0  0  0  0  0  0  0  0  0  0  0
   -1.8036    2.5697    1.5137 H   0  0  0  0  0  0  0  0  0  0  0  0
    0.3224    2.2532    1.6598 C   0  0  0  0  0  0  0  0  0  0  0  0
    0.2358    1.3734    2.2981 H   0  0  0  0  0  0  0  0  0  0  0  0
    1.1718    2.1283    0.9876 H   0  0  0  0  0  0  0  0  0  0  0  0
    0.5447    3.4879    2.5311 C   0  0  0  0  0  0  0  0  0  0  0  0
    0.6501    4.3652    1.8948 H   0  0  0  0  0  0  0  0  0  0  0  0
   -0.3107    3.6244    3.1907 H   0  0  0  0  0  0  0  0  0  0  0  0
    1.7539    3.3501    3.3510 N   0  0  0  0  0  0  0  0  0  0  0  0
    1.8770    4.1870    3.9019 H   0  0  0  0  0  0  0  0  0  0  0  0
    1.6482    2.5560    3.9663 H   0  0  0  0  0  0  0  0  0  0  0  0
   -0.5564    0.0727    2.1744 C   0  0  0  0  0  0  0  0  0  0  0  0
    0.6169   -0.1288    2.4805 O   0  0  0  0  0  0  0  0  0  0  0  0
   -1.4759    0.4743    3.0595 N   0  0  0  0  0  0  0  0  0  0  0  0
   -2.4132    0.6318    2.7275 H   0  0  0  0  0  0  0  0  0  0  0  0
   -1.1971    0.7118    4.4750 C   0  0  0  0  0  0  0  0  0  0  0  0
   -0.3779    1.4272    4.5748 H   0  0  0  0  0  0  0  0  0  0  0  0
   -2.0826    1.1064    4.9754 H   0  0  0  0  0  0  0  0  0  0  0  0
   -0.8992   -0.2240    4.9525 H   0  0  0  0  0  0  0  0  0  0  0  0
  5  6  2  0  0  0  0
  5  7  1  0  0  0  0
  2  3  1  0  0  0  0
  2  4  1  0  0  0  0
  2  5  1  0  0  0  0
  1  2  1  0  0  0  0
 26 27  2  0  0  0  0
 26 28  1  0  0  0  0
 23 24  1  0  0  0  0
 23 25  1  0  0  0  0
 20 21  1  0  0  0  0
 20 22  1  0  0  0  0
 20 23  1  0  0  0  0
 17 18  1  0  0  0  0
 17 19  1  0  0  0  0
 17 20  1  0  0  0  0
 14 15  1  0  0  0  0
 14 16  1  0  0  0  0
 14 17  1  0  0  0  0
 11 12  1  0  0  0  0
 11 13  1  0  0  0  0
 11 14  1  0  0  0  0
  9 10  1  0  0  0  0
  9 11  1  0  0  0  0
  9 26  1  0  0  0  0
  7  8  1  0  0  0  0
  7  9  1  0  0  0  0
 30 31  1  0  0  0  0
 30 32  1  0  0  0  0
 30 33  1  0  0  0  0
 28 29  1  0  0  0  0
 28 30  1  0  0  0  0
M  END
$$$$
default_name
  -OEChem-02102213163D

 33 32  0     1  0  0  0  0  0999 V2000
   -3.8420   -3.6918    1.5562 H   0  0  0  0  0  0  0  0  0  0  0  0
   -3.8430   -2.7008    1.1032 C   0  0  0  0  0  0  0  0  0  0  0  0
   -4.5510   -2.0608    1.6242 H   0  0  0  0  0  0  0  0  0  0  0  0
   -4.1140   -2.7798    0.0522 H   0  0  0  0  0  0  0  0  0  0  0  0
   -2.4570   -2.1098    1.2172 C   0  0  0  0  0  0  0  0  0  0  0  0
   -1.5600   -2.7438    1.7572 O   0  0  0  0  0  0  0  0  0  0  0  0
   -2.2870   -0.8898    0.7102 N   0  0  0  0  0  0  0  0  0  0  0  0
   -3.0820   -0.4218    0.2992 H   0  0  0  0  0  0  0  0  0  0  0  0
   -1.0240   -0.1468    0.7262 C   0  0  1  0  0  0  0  0  0  0  0  0
   -0.2680   -0.7367    0.2062 H   0  0  0  0  0  0  0  0  0  0  0  0
   -1.2212    1.1806   -0.0314 C   0  0  0  0  0  0  0  0  0  0  0  0
   -0.5295    1.2042   -0.8760 H   0  0  0  0  0  0  0  0  0  0  0  0
   -2.2384    1.2235   -0.4231 H   0  0  0  0  0  0  0  0  0  0  0  0
   -0.9601    2.4211    0.8371 C   0  0  0  0  0  0  0  0  0  0  0  0
   -1.1183    3.3227    0.2446 H   0  0  0  0  0  0  0  0  0  0  0  0
   -1.6532    2.4214    1.6803 H   0  0  0  0  0  0  0  0  0  0  0  0
    0.4783    2.4254    1.3669 C   0  0  0  0  0  0  0  0  0  0  0  0
    0.6546    1.5248    1.9559 H   0  0  0  0  0  0  0  0  0  0  0  0
    1.1747    2.4494    0.5282 H   0  0  0  0  0  0  0  0  0  0  0  0
    0.7034    3.6542    2.2458 C   0  0  0  0  0  0  0  0  0  0  0  0
    0.5460    4.5551    1.6549 H   0  0  0  0  0  0  0  0  0  0  0  0
   -0.0031    3.6412    3.0742 H   0  0  0  0  0  0  0  0  0  0  0  0
    2.0660    3.6773    2.7899 N   0  0  0  0  0  0  0  0  0  0  0  0
    2.1835    4.5072    3.3524 H   0  0  0  0  0  0  0  0  0  0  0  0
    2.2069    2.8592    3.3653 H   0  0  0  0  0  0  0  0  0  0  0  0
   -0.5564    0.0727    2.1744 C   0  0  0  0  0  0  0  0  0  0  0  0
    0.6169   -0.1288    2.4805 O   0  0  0  0  0  0  0  0  0  0  0  0
   -1.4759    0.4743    3.0595 N   0  0  0  0  0  0  0  0  0  0  0  0
   -2.4132    0.6318    2.7275 H   0  0  0  0  0  0  0  0  0  0  0  0
   -1.1971    0.7118    4.4750 C   0  0  0  0  0  0  0  0  0  0  0  0
   -0.3779    1.4272    4.5748 H   0  0  0  0  0  0  0  0  0  0  0  0
   -2.0826    1.1064    4.9754 H   0  0  0  0  0  0  0  0  0  0  0  0
   -0.8992   -0.2240    4.9525 H   0  0  0  0  0  0  0  0  0  0  0  0
  5  6  2  0  0  0  0
  5  7  1  0  0  0  0
  2  3  1  0  0  0  0
  2  4  1  0  0  0  0
  2  5  1  0  0  0  0
  1  2  1  0  0  0  0
 26 27  2  0  0  0  0
 26 28  1  0  0  0  0
 23 24  1  0  0  0  0
 23 25  1  0  0  0  0
 20 21  1  0  0  0  0
 20 22  1  0  0  0  0
 20 23  1  0  0  0  0
 17 18  1  0  0  0  0
 17 19  1  0  0  0  0
 17 20  1  0  0  0  0
 14 15  1  0  0  0  0
 14 16  1  0  0  0  0
 14 17  1  0  0  0  0
 11 12  1  0  0  0  0
 11 13  1  0  0  0  0
 11 14  1  0  0  0  0
  9 10  1  0  0  0  0
  9 11  1  0  0  0  0
  9 26  1  0  0  0  0
  7  8  1  0  0  0  0
  7  9  1  0  0  0  0
 30 31  1  0  0  0  0
 30 32  1  0  0  0  0
 30 33  1  0  0  0  0
 28 29  1  0  0  0  0
 28 30  1  0  0  0  0
M  END
$$$$
default_name
  -OEChem-02102213163D

 33 32  0     1  0  0  0  0  0999 V2000
   -3.8420   -3.6918    1.5562 H   0  0  0  0  0  0  0  0  0  0  0  0
   -3.8430   -2.7008    1.1032 C   0  0  0  0  0  0  0  0  0  0  0  0
   -4.5510   -2.0608    1.6242 H   0  0  0  0  0  0  0  0  0  0  0  0
   -4.1140   -2.7798    0.0522 H   0  0  0  0  0  0  0  0  0  0  0  0
   -2.4570   -2.1098    1.2172 C   0  0  0  0  0  0  0  0  0  0  0  0
   -1.5600   -2.7438    1.7572 O   0  0  0  0  0  0  0  0  0  0  0  0
   -2.2870   -0.8898    0.7102 N   0  0  0  0  0  0  0  0  0  0  0  0
   -3.0820   -0.4218    0.2992 H   0  0  0  0  0  0  0  0  0  0  0  0
   -1.0240   -0.1468    0.7262 C   0  0  1  0  0  0  0  0  0  0  0  0
   -0.2680   -0.7367    0.2062 H   0  0  0  0  0  0  0  0  0  0  0  0
   -1.2212    1.1806   -0.0314 C   0  0  0  0  0  0  0  0  0  0  0  0
   -0.5295    1.2042   -0.8760 H   0  0  0  0  0  0  0  0  0  0  0  0
   -2.2384    1.2235   -0.4231 H   0  0  0  0  0  0  0  0  0  0  0  0
   -0.9601    2.4211    0.8371 C   0  0  0  0  0  0  0  0  0  0  0  0
   -1.3665    3.3049    0.3445 H   0  0  0  0  0  0  0  0  0  0  0  0
   -1.4513    2.2927    1.8033 H   0  0  0  0  0  0  0  0  0  0  0  0
    0.5426    2.6274    1.0591 C   0  0  0  0  0  0  0  0  0  0  0  0
    0.9655    1.7474    1.5445 H   0  0  0  0  0  0  0  0  0  0  0  0
    1.0345    2.7800    0.0980 H   0  0  0  0  0  0  0  0  0  0  0  0
    0.7727    3.8507    1.9445 C   0  0  0  0  0  0  0  0  0  0  0  0
    0.3675    4.7338    1.4532 H   0  0  0  0  0  0  0  0  0  0  0  0
    0.2672    3.7076    2.8981 H   0  0  0  0  0  0  0  0  0  0  0  0
    2.2024    4.0636    2.1970 N   0  0  0  0  0  0  0  0  0  0  0  0
    2.3179    4.8854    2.7717 H   0  0  0  0  0  0  0  0  0  0  0  0
    2.5766    3.2601    2.6815 H   0  0  0  0  0  0  0  0  0  0  0  0
   -0.5564    0.0727    2.1744 C   0  0  0  0  0  0  0  0  0  0  0  0
    0.6169   -0.1288    2.4805 O   0  0  0  0  0  0  0  0  0  0  0  0
   -1.4759    0.4743    3.0595 N   0  0  0  0  0  0  0  0  0  0  0  0
   -2.4132    0.6318    2.7275 H   0  0  0  0  0  0  0  0  0  0  0  0
   -1.1971    0.7118    4.4750 C   0  0  0  0  0  0  0  0  0  0  0  0
   -0.3779    1.4272    4.5748 H   0  0  0  0  0  0  0  0  0  0  0  0
   -2.0826    1.1064    4.9754 H   0  0  0  0  0  0  0  0  0  0  0  0
   -0.8992   -0.2240    4.9525 H   0  0  0  0  0  0  0  0  0  0  0  0
  5  6  2  0  0  0  0
  5  7  1  0  0  0  0
  2  3  1  0  0  0  0
  2  4  1  0  0  0  0
  2  5  1  0  0  0  0
  1  2  1  0  0  0  0
 26 27  2  0  0  0  0
 26 28  1  0  0  0  0
 23 24  1  0  0  0  0
 23 25  1  0  0  0  0
 20 21  1  0  0  0  0
 20 22  1  0  0  0  0
 20 23  1  0  0  0  0
 17 18  1  0  0  0  0
 17 19  1  0  0  0  0
 17 20  1  0  0  0  0
 14 15  1  0  0  0  0
 14 16  1  0  0  0  0
 14 17  1  0  0  0  0
 11 12  1  0  0  0  0
 11 13  1  0  0  0  0
 11 14  1  0  0  0  0
  9 10  1  0  0  0  0
  9 11  1  0  0  0  0
  9 26  1  0  0  0  0
  7  8  1  0  0  0  0
  7  9  1  0  0  0  0
 30 31  1  0  0  0  0
 30 32  1  0  0  0  0
 30 33  1  0  0  0  0
 28 29  1  0  0  0  0
 28 30  1  0  0  0  0
M  END
$$$$
default_name
  -OEChem-02102213163D

 33 32  0     1  0  0  0  0  0999 V2000
   -3.8420   -3.6918    1.5562 H   0  0  0  0  0  0  0  0  0  0  0  0
   -3.8430   -2.7008    1.1032 C   0  0  0  0  0  0  0  0  0  0  0  0
   -4.5510   -2.0608    1.6242 H   0  0  0  0  0  0  0  0  0  0  0  0
   -4.1140   -2.7798    0.0522 H   0  0  0  0  0  0  0  0  0  0  0  0
   -2.4570   -2.1098    1.2172 C   0  0  0  0  0  0  0  0  0  0  0  0
   -1.5600   -2.7438    1.7572 O   0  0  0  0  0  0  0  0  0  0  0  0
   -2.2870   -0.8898    0.7102 N   0  0  0  0  0  0  0  0  0  0  0  0
   -3.0820   -0.4218    0.2992 H   0  0  0  0  0  0  0  0  0  0  0  0
   -1.0240   -0.1468    0.7262 C   0  0  1  0  0  0  0  0  0  0  0  0
   -0.2680   -0.7367    0.2062 H   0  0  0  0  0  0  0  0  0  0  0  0
   -1.2212    1.1806   -0.0314 C   0  0  0  0  0  0  0  0  0  0  0  0
   -0.5295    1.2042   -0.8760 H   0  0  0  0  0  0  0  0  0  0  0  0
   -2.2384    1.2235   -0.4231 H   0  0  0  0  0  0  0  0  0  0  0  0
   -0.9601    2.4211    0.8371 C   0  0  0  0  0  0  0  0  0  0  0  0
   -1.5827    3.2471    0.4922 H   0  0  0  0  0  0  0  0  0  0  0  0
   -1.2118    2.1926    1.8743 H   0  0  0  0  0  0  0  0  0  0  0  0
    0.5108    2.8455    0.7572 C   0  0  0  0  0  0  0  0  0  0  0  0
    1.1474    2.0260    1.0920 H   0  0  0  0  0  0  0  0  0  0  0  0
    0.7608    3.0979   -0.2737 H   0  0  0  0  0  0  0  0  0  0  0  0
    0.7479    4.0638    1.6475 C   0  0  0  0  0  0  0  0  0  0  0  0
    0.1269    4.8893    1.3036 H   0  0  0  0  0  0  0  0  0  0  0  0
    0.4818    3.8190    2.6745 H   0  0  0  0  0  0  0  0  0  0  0  0
    2.1538    4.4828    1.6128 N   0  0  0  0  0  0  0  0  0  0  0  0
    2.2710    5.2960    2.1994 H   0  0  0  0  0  0  0  0  0  0  0  0
    2.7322    3.7316    1.9613 H   0  0  0  0  0  0  0  0  0  0  0  0
   -0.5564    0.0727    2.1744 C   0  0  0  0  0  0  0  0  0  0  0  0
    0.6169   -0.1288    2.4805 O   0  0  0  0  0  0  0  0  0  0  0  0
   -1.4759    0.4743    3.0595 N   0  0  0  0  0  0  0  0  0  0  0  0
   -2.4132    0.6318    2.7275 H   0  0  0  0  0  0  0  0  0  0  0  0
   -1.1971    0.7118    4.4750 C   0  0  0  0  0  0  0  0  0  0  0  0
   -0.3779    1.4272    4.5748 H   0  0  0  0  0  0  0  0  0  0  0  0
   -2.0826    1.1064    4.9754 H   0  0  0  0  0  0  0  0  0  0  0  0
   -0.8992   -0.2240    4.9525 H   0  0  0  0  0  0  0  0  0  0  0  0
  5  6  2  0  0  0  0
  5  7  1  0  0  0  0
  2  3  1  0  0  0  0
  2  4  1  0  0  0  0
  2  5  1  0  0  0  0
  1  2  1  0  0  0  0
 26 27  2  0  0  0  0
 26 28  1  0  0  0  0
 23 24  1  0  0  0  0
 23 25  1  0  0  0  0
 20 21  1  0  0  0  0
 20 22  1  0  0  0  0
 20 23  1  0  0  0  0
 17 18  1  0  0  0  0
 17 19  1  0  0  0  0
 17 20  1  0  0  0  0
 14 15  1  0  0  0  0
 14 16  1  0  0  0  0
 14 17  1  0  0  0  0
 11 12  1  0  0  0  0
 11 13  1  0  0  0  0
 11 14  1  0  0  0  0
  9 10  1  0  0  0  0
  9 11  1  0  0  0  0
  9 26  1  0  0  0  0
  7  8  1  0  0  0  0
  7  9  1  0  0  0  0
 30 31  1  0  0  0  0
 30 32  1  0  0  0  0
 30 33  1  0  0  0  0
 28 29  1  0  0  0  0
 28 30  1  0  0  0  0
M  END
$$$$
default_name
  -OEChem-02102213163D

 33 32  0     1  0  0  0  0  0999 V2000
   -3.8420   -3.6918    1.5562 H   0  0  0  0  0  0  0  0  0  0  0  0
   -3.8430   -2.7008    1.1032 C   0  0  0  0  0  0  0  0  0  0  0  0
   -4.5510   -2.0608    1.6242 H   0  0  0  0  0  0  0  0  0  0  0  0
   -4.1140   -2.7798    0.0522 H   0  0  0  0  0  0  0  0  0  0  0  0
   -2.4570   -2.1098    1.2172 C   0  0  0  0  0  0  0  0  0  0  0  0
   -1.5600   -2.7438    1.7572 O   0  0  0  0  0  0  0  0  0  0  0  0
   -2.2870   -0.8898    0.7102 N   0  0  0  0  0  0  0  0  0  0  0  0
   -3.0820   -0.4218    0.2992 H   0  0  0  0  0  0  0  0  0  0  0  0
   -1.0240   -0.1468    0.7262 C   0  0  1  0  0  0  0  0  0  0  0  0
   -0.2680   -0.7367    0.2062 H   0  0  0  0  0  0  0  0  0  0  0  0
   -1.2212    1.1806   -0.0314 C   0  0  0  0  0  0  0  0  0  0  0  0
   -0.5295    1.2042   -0.8760 H   0  0  0  0  0  0  0  0  0  0  0  0
   -2.2384    1.2235   -0.4231 H   0  0  0  0  0  0  0  0  0  0  0  0
   -0.9601    2.4211    0.8371 C   0  0  0  0  0  0  0  0  0  0  0  0
   -1.7522    3.1531    0.6774 H   0  0  0  0  0  0  0  0  0  0  0  0
   -0.9510    2.1279    1.8884 H   0  0  0  0  0  0  0  0  0  0  0  0
    0.3850    3.0648    0.4818 C   0  0  0  0  0  0  0  0  0  0  0  0
    1.1877    2.3415    0.6291 H   0  0  0  0  0  0  0  0  0  0  0  0
    0.3723    3.3812   -0.5616 H   0  0  0  0  0  0  0  0  0  0  0  0
    0.6308    4.2790    1.3752 C   0  0  0  0  0  0  0  0  0  0  0  0
   -0.1596    5.0108    1.2161 H   0  0  0  0  0  0  0  0  0  0  0  0
    0.6261    3.9678    2.4186 H   0  0  0  0  0  0  0  0  0  0  0  0
    1.9234    4.9064    1.0771 N   0  0  0  0  0  0  0  0  0  0  0  0
    2.0461    5.7108    1.6744 H   0  0  0  0  0  0  0  0  0  0  0  0
    2.6630    4.2414    1.2538 H   0  0  0  0  0  0  0  0  0  0  0  0
   -0.5564    0.0727    2.1744 C   0  0  0  0  0  0  0  0  0  0  0  0
    0.6169   -0.1288    2.4805 O   0  0  0  0  0  0  0  0  0  0  0  0
   -1.4759    0.4743    3.0595 N   0  0  0  0  0  0  0  0  0  0  0  0
   -2.4132    0.6318    2.7275 H   0  0  0  0  0  0  0  0  0  0  0  0
   -1.1971    0.7118    4.4750 C   0  0  0  0  0  0  0  0  0  0  0  0
   -0.3779    1.4272    4.5748 H   0  0  0  0  0  0  0  0  0  0  0  0
   -2.0826    1.1064    4.9754 H   0  0  0  0  0  0  0  0  0  0  0  0
   -0.8992   -0.2240    4.9525 H   0  0  0  0  0  0  0  0  0  0  0  0
  5  6  2  0  0  0  0
  5  7  1  0  0  0  0
  2  3  1  0  0  0  0
  2  4  1  0  0  0  0
  2  5  1  0  0  0  0
  1  2  1  0  0  0  0
 26 27  2  0  0  0  0
 26 28  1  0  0  0  0
 23 24  1  0  0  0  0
 23 25  1  0  0  0  0
 20 21  1  0  0  0  0
 20 22  1  0  0  0  0
 20 23  1  0  0  0  0
 17 18  1  0  0  0  0
 17 19  1  0  0  0  0
 17 20  1  0  0  0  0
 14 15  1  0  0  0  0
 14 16  1  0  0  0  0
 14 17  1  0  0  0  0
 11 12  1  0  0  0  0
 11 13  1  0  0  0  0
 11 14  1  0  0  0  0
  9 10  1  0  0  0  0
  9 11  1  0  0  0  0
  9 26  1  0  0  0  0
  7  8  1  0  0  0  0
  7  9  1  0  0  0  0
 30 31  1  0  0  0  0
 30 32  1  0  0  0  0
 30 33  1  0  0  0  0
 28 29  1  0  0  0  0
 28 30  1  0  0  0  0
M  END
$$$$
default_name
  -OEChem-02102213163D

 33 32  0     1  0  0  0  0  0999 V2000
   -3.8420   -3.6918    1.5562 H   0  0  0  0  0  0  0  0  0  0  0  0
   -3.8430   -2.7008    1.1032 C   0  0  0  0  0  0  0  0  0  0  0  0
   -4.5510   -2.0608    1.6242 H   0  0  0  0  0  0  0  0  0  0  0  0
   -4.1140   -2.7798    0.0522 H   0  0  0  0  0  0  0  0  0  0  0  0
   -2.4570   -2.1098    1.2172 C   0  0  0  0  0  0  0  0  0  0  0  0
   -1.5600   -2.7438    1.7572 O   0  0  0  0  0  0  0  0  0  0  0  0
   -2.2870   -0.8898    0.7102 N   0  0  0  0  0  0  0  0  0  0  0  0
   -3.0820   -0.4218    0.2992 H   0  0  0  0  0  0  0  0  0  0  0  0
   -1.0240   -0.1468    0.7262 C   0  0  1  0  0  0  0  0  0  0  0  0
   -0.2680   -0.7367    0.2062 H   0  0  0  0  0  0  0  0  0  0  0  0
   -1.2212    1.1806   -0.0314 C   0  0  0  0  0  0  0  0  0  0  0  0
   -0.5295    1.2042   -0.8760 H   0  0  0  0  0  0  0  0  0  0  0  0
   -2.2384    1.2235   -0.4231 H   0  0  0  0  0  0  0  0  0  0  0  0
   -0.9601    2.4211    0.8371 C   0  0  0  0  0  0  0  0  0  0  0  0
   -1.8636    3.0294    0.8876 H   0  0  0  0  0  0  0  0  0  0  0  0
   -0.6867    2.1028    1.8447 H   0  0  0  0  0  0  0  0  0  0  0  0
    0.1740    3.2703    0.2517 C   0  0  0  0  0  0  0  0  0  0  0  0
    1.0838    2.6726    0.1875 H   0  0  0  0  0  0  0  0  0  0  0  0
   -0.1045    3.6107   -0.7460 H   0  0  0  0  0  0  0  0  0  0  0  0
    0.4293    4.4818    1.1462 C   0  0  0  0  0  0  0  0  0  0  0  0
   -0.4724    5.0901    1.1969 H   0  0  0  0  0  0  0  0  0  0  0  0
    0.6902    4.1439    2.1477 H   0  0  0  0  0  0  0  0  0  0  0  0
    1.5270    5.3053    0.6265 N   0  0  0  0  0  0  0  0  0  0  0  0
    1.6585    6.1018    1.2326 H   0  0  0  0  0  0  0  0  0  0  0  0
    2.3738    4.7549    0.6074 H   0  0  0  0  0  0  0  0  0  0  0  0
   -0.5564    0.0727    2.1744 C   0  0  0  0  0  0  0  0  0  0  0  0
    0.6169   -0.1288    2.4805 O   0  0  0  0  0  0  0  0  0  0  0  0
   -1.4759    0.4743    3.0595 N   0  0  0  0  0  0  0  0  0  0  0  0
   -2.4132    0.6318    2.7275 H   0  0  0  0  0  0  0  0  0  0  0  0
   -1.1971    0.7118    4.4750 C   0  0  0  0  0  0  0  0  0  0  0  0
   -0.3779    1.4272    4.5748 H   0  0  0  0  0  0  0  0  0  0  0  0
   -2.0826    1.1064    4.9754 H   0  0  0  0  0  0  0  0  0  0  0  0
   -0.8992   -0.2240    4.9525 H   0  0  0  0  0  0  0  0  0  0  0  0
  5  6  2  0  0  0  0
  5  7  1  0  0  0  0
  2  3  1  0  0  0  0
  2  4  1  0  0  0  0
  2  5  1  0  0  0  0
  1  2  1  0  0  0  0
 26 27  2  0  0  0  0
 26 28  1  0  0  0  0
 23 24  1  0  0  0  0
 23 25  1  0  0  0  0
 20 21  1  0  0  0  0
 20 22  1  0  0  0  0
 20 23  1  0  0  0  0
 17 18  1  0  0  0  0
 17 19  1  0  0  0  0
 17 20  1  0  0  0  0
 14 15  1  0  0  0  0
 14 16  1  0  0  0  0
 14 17  1  0  0  0  0
 11 12  1  0  0  0  0
 11 13  1  0  0  0  0
 11 14  1  0  0  0  0
  9 10  1  0  0  0  0
  9 11  1  0  0  0  0
  9 26  1  0  0  0  0
  7  8  1  0  0  0  0
  7  9  1  0  0  0  0
 30 31  1  0  0  0  0
 30 32  1  0  0  0  0
 30 33  1  0  0  0  0
 28 29  1  0  0  0  0
 28 30  1  0  0  0  0
M  END
$$$$
default_name
  -OEChem-02102213163D

 33 32  0     1  0  0  0  0  0999 V2000
   -3.8420   -3.6918    1.5562 H   0  0  0  0  0  0  0  0  0  0  0  0
   -3.8430   -2.7008    1.1032 C   0  0  0  0  0  0  0  0  0  0  0  0
   -4.5510   -2.0608    1.6242 H   0  0  0  0  0  0  0  0  0  0  0  0
   -4.1140   -2.7798    0.0522 H   0  0  0  0  0  0  0  0  0  0  0  0
   -2.4570   -2.1098    1.2172 C   0  0  0  0  0  0  0  0  0  0  0  0
   -1.5600   -2.7438    1.7572 O   0  0  0  0  0  0  0  0  0  0  0  0
   -2.2870   -0.8898    0.7102 N   0  0  0  0  0  0  0  0  0  0  0  0
   -3.0820   -0.4218    0.2992 H   0  0  0  0  0  0  0  0  0  0  0  0
   -1.0240   -0.1468    0.7262 C   0  0  1  0  0  0  0  0  0  0  0  0
   -0.2680   -0.7367    0.2062 H   0  0  0  0  0  0  0  0  0  0  0  0
   -1.2212    1.1806   -0.0314 C   0  0  0  0  0  0  0  0  0  0  0  0
   -0.5295    1.2042   -0.8760 H   0  0  0  0  0  0  0  0  0  0  0  0
   -2.2384    1.2235   -0.4231 H   0  0  0  0  0  0  0  0  0  0  0  0
   -0.9601    2.4211    0.8371 C   0  0  0  0  0  0  0  0  0  0  0  0
   -1.9091    2.8843    1.1085 H   0  0  0  0  0  0  0  0  0  0  0  0
   -0.4368    2.1192    1.7462 H   0  0  0  0  0  0  0  0  0  0  0  0
   -0.1080    3.4480    0.0826 C   0  0  0  0  0  0  0  0  0  0  0  0
    0.8427    2.9966   -0.2028 H   0  0  0  0  0  0  0  0  0  0  0  0
   -0.6372    3.7708   -0.8145 H   0  0  0  0  0  0  0  0  0  0  0  0
    0.1571    4.6583    0.9759 C   0  0  0  0  0  0  0  0  0  0  0  0
   -0.7901    5.1218    1.2471 H   0  0  0  0  0  0  0  0  0  0  0  0
    0.6698    4.3353    1.8805 H   0  0  0  0  0  0  0  0  0  0  0  0
    0.9916    5.6525    0.2915 N   0  0  0  0  0  0  0  0  0  0  0  0
    1.1346    6.4421    0.9039 H   0  0  0  0  0  0  0  0  0  0  0  0
    1.8843    5.2370    0.0660 H   0  0  0  0  0  0  0  0  0  0  0  0
   -0.5564    0.0727    2.1744 C   0  0  0  0  0  0  0  0  0  0  0  0
    0.6169   -0.1288    2.4805 O   0  0  0  0  0  0  0  0  0  0  0  0
   -1.4759    0.4743    3.0595 N   0  0  0  0  0  0  0  0  0  0  0  0
   -2.4132    0.6318    2.7275 H   0  0  0  0  0  0  0  0  0  0  0  0
   -1.1971    0.7118    4.4750 C   0  0  0  0  0  0  0  0  0  0  0  0
   -0.3779    1.4272    4.5748 H   0  0  0  0  0  0  0  0  0  0  0  0
   -2.0826    1.1064    4.9754 H   0  0  0  0  0  0  0  0  0  0  0  0
   -0.8992   -0.2240    4.9525 H   0  0  0  0  0  0  0  0  0  0  0  0
  5  6  2  0  0  0  0
  5  7  1  0  0  0  0
  2  3  1  0  0  0  0
  2  4  1  0  0  0  0
  2  5  1  0  0  0  0
  1  2  1  0  0  0  0
 26 27  2  0  0  0  0
 26 28  1  0  0  0  0
 23 24  1  0  0  0  0
 23 25  1  0  0  0  0
 20 21  1  0  0  0  0
 20 22  1  0  0  0  0
 20 23  1  0  0  0  0
 17 18  1  0  0  0  0
 17 19  1  0  0  0  0
 17 20  1  0  0  0  0
 14 15  1  0  0  0  0
 14 16  1  0  0  0  0
 14 17  1  0  0  0  0
 11 12  1  0  0  0  0
 11 13  1  0  0  0  0
 11 14  1  0  0  0  0
  9 10  1  0  0  0  0
  9 11  1  0  0  0  0
  9 26  1  0  0  0  0
  7  8  1  0  0  0  0
  7  9  1  0  0  0  0
 30 31  1  0  0  0  0
 30 32  1  0  0  0  0
 30 33  1  0  0  0  0
 28 29  1  0  0  0  0
 28 30  1  0  0  0  0
M  END
$$$$
default_name
  -OEChem-02102213163D

 33 32  0     1  0  0  0  0  0999 V2000
   -3.8420   -3.6918    1.5562 H   0  0  0  0  0  0  0  0  0  0  0  0
   -3.8430   -2.7008    1.1032 C   0  0  0  0  0  0  0  0  0  0  0  0
   -4.5510   -2.0608    1.6242 H   0  0  0  0  0  0  0  0  0  0  0  0
   -4.1140   -2.7798    0.0522 H   0  0  0  0  0  0  0  0  0  0  0  0
   -2.4570   -2.1098    1.2172 C   0  0  0  0  0  0  0  0  0  0  0  0
   -1.5600   -2.7438    1.7572 O   0  0  0  0  0  0  0  0  0  0  0  0
   -2.2870   -0.8898    0.7102 N   0  0  0  0  0  0  0  0  0  0  0  0
   -3.0820   -0.4218    0.2992 H   0  0  0  0  0  0  0  0  0  0  0  0
   -1.0240   -0.1468    0.7262 C   0  0  1  0  0  0  0  0  0  0  0  0
   -0.2680   -0.7367    0.2062 H   0  0  0  0  0  0  0  0  0  0  0  0
   -1.2212    1.1806   -0.0314 C   0  0  0  0  0  0  0  0  0  0  0  0
   -0.5295    1.2042   -0.8760 H   0  0  0  0  0  0  0  0  0  0  0  0
   -2.2384    1.2235   -0.4231 H   0  0  0  0  0  0  0  0  0  0  0  0
   -0.9601    2.4211    0.8371 C   0  0  0  0  0  0  0  0  0  0  0  0
   -1.8857    2.7279    1.3249 H   0  0  0  0  0  0  0  0  0  0  0  0
   -0.2184    2.1759    1.5995 H   0  0  0  0  0  0  0  0  0  0  0  0
   -0.4417    3.5859   -0.0140 C   0  0  0  0  0  0  0  0  0  0  0  0
    0.4809    3.2914   -0.5152 H   0  0  0  0  0  0  0  0  0  0  0  0
   -1.1895    3.8504   -0.7622 H   0  0  0  0  0  0  0  0  0  0  0  0
   -0.1672    4.7964    0.8761 C   0  0  0  0  0  0  0  0  0  0  0  0
   -1.0911    5.1038    1.3634 H   0  0  0  0  0  0  0  0  0  0  0  0
    0.5662    4.5289    1.6350 H   0  0  0  0  0  0  0  0  0  0  0  0
    0.3537    5.9243    0.0951 N   0  0  0  0  0  0  0  0  0  0  0  0
    0.5101    6.7087    0.7109 H   0  0  0  0  0  0  0  0  0  0  0  0
    1.2278    5.6548   -0.3335 H   0  0  0  0  0  0  0  0  0  0  0  0
   -0.5564    0.0727    2.1744 C   0  0  0  0  0  0  0  0  0  0  0  0
    0.6169   -0.1288    2.4805 O   0  0  0  0  0  0  0  0  0  0  0  0
   -1.4759    0.4743    3.0595 N   0  0  0  0  0  0  0  0  0  0  0  0
   -2.4132    0.6318    2.7275 H   0  0  0  0  0  0  0  0  0  0  0  0
   -1.1971    0.7118    4.4750 C   0  0  0  0  0  0  0  0  0  0  0  0
   -0.3779    1.4272    4.5748 H   0  0  0  0  0  0  0  0  0  0  0  0
   -2.0826    1.1064    4.9754 H   0  0  0  0  0  0  0  0  0  0  0  0
   -0.8992   -0.2240    4.9525 H   0  0  0  0  0  0  0  0  0  0  0  0
  5  6  2  0  0  0  0
  5  7  1  0  0  0  0
  2  3  1  0  0  0  0
  2  4  1  0  0  0  0
  2  5  1  0  0  0  0
  1  2  1  0  0  0  0
 26 27  2  0  0  0  0
 26 28  1  0  0  0  0
 23 24  1  0  0  0  0
 23 25  1  0  0  0  0
 20 21  1  0  0  0  0
 20 22  1  0  0  0  0
 20 23  1  0  0  0  0
 17 18  1  0  0  0  0
 17 19  1  0  0  0  0
 17 20  1  0  0  0  0
 14 15  1  0  0  0  0
 14 16  1  0  0  0  0
 14 17  1  0  0  0  0
 11 12  1  0  0  0  0
 11 13  1  0  0  0  0
 11 14  1  0  0  0  0
  9 10  1  0  0  0  0
  9 11  1  0  0  0  0
  9 26  1  0  0  0  0
  7  8  1  0  0  0  0
  7  9  1  0  0  0  0
 30 31  1  0  0  0  0
 30 32  1  0  0  0  0
 30 33  1  0  0  0  0
 28 29  1  0  0  0  0
 28 30  1  0  0  0  0
M  END
$$$$
default_name
  -OEChem-02102213163D

 33 32  0     1  0  0  0  0  0999 V2000
   -3.8420   -3.6918    1.5562 H   0  0  0  0  0  0  0  0  0  0  0  0
   -3.8430   -2.7008    1.1032 C   0  0  0  0  0  0  0  0  0  0  0  0
   -4.5510   -2.0608    1.6242 H   0  0  0  0  0  0  0  0  0  0  0  0
   -4.1140   -2.7798    0.0522 H   0  0  0  0  0  0  0  0  0  0  0  0
   -2.4570   -2.1098    1.2172 C   0  0  0  0  0  0  0  0  0  0  0  0
   -1.5600   -2.7438    1.7572 O   0  0  0  0  0  0  0  0  0  0  0  0
   -2.2870   -0.8898    0.7102 N   0  0  0  0  0  0  0  0  0  0  0  0
   -3.0820   -0.4218    0.2992 H   0  0  0  0  0  0  0  0  0  0  0  0
   -1.0240   -0.1468    0.7262 C   0  0  1  0  0  0  0  0  0  0  0  0
   -0.2680   -0.7367    0.2062 H   0  0  0  0  0  0  0  0  0  0  0  0
   -1.2212    1.1806   -0.0314 C   0  0  0  0  0  0  0  0  0  0  0  0
   -0.5295    1.2042   -0.8760 H   0  0  0  0  0  0  0  0  0  0  0  0
   -2.2384    1.2235   -0.4231 H   0  0  0  0  0  0  0  0  0  0  0  0
   -0.9601    2.4211    0.8371 C   0  0  0  0  0  0  0  0  0  0  0  0
   -1.7950    2.5706    1.5222 H   0  0  0  0  0  0  0  0  0  0  0  0
   -0.0465    2.2691    1.4147 H   0  0  0  0  0  0  0  0  0  0  0  0
   -0.8044    3.6745   -0.0316 C   0  0  0  0  0  0  0  0  0  0  0  0
    0.0230    3.5371   -0.7284 H   0  0  0  0  0  0  0  0  0  0  0  0
   -1.7237    3.8443   -0.5929 H   0  0  0  0  0  0  0  0  0  0  0  0
   -0.5215    4.8868    0.8536 C   0  0  0  0  0  0  0  0  0  0  0  0
   -1.3550    5.0372    1.5378 H   0  0  0  0  0  0  0  0  0  0  0  0
    0.3866    4.7116    1.4281 H   0  0  0  0  0  0  0  0  0  0  0  0
   -0.3433    6.1021    0.0507 N   0  0  0  0  0  0  0  0  0  0  0  0
   -0.1725    6.8833    0.6667 H   0  0  0  0  0  0  0  0  0  0  0  0
    0.4491    5.9800   -0.5638 H   0  0  0  0  0  0  0  0  0  0  0  0
   -0.5564    0.0727    2.1744 C   0  0  0  0  0  0  0  0  0  0  0  0
    0.6169   -0.1288    2.4805 O   0  0  0  0  0  0  0  0  0  0  0  0
   -1.4759    0.4743    3.0595 N   0  0  0  0  0  0  0  0  0  0  0  0
   -2.4132    0.6318    2.7275 H   0  0  0  0  0  0  0  0  0  0  0  0
   -1.1971    0.7118    4.4750 C   0  0  0  0  0  0  0  0  0  0  0  0
   -0.3779    1.4272    4.5748 H   0  0  0  0  0  0  0  0  0  0  0  0
   -2.0826    1.1064    4.9754 H   0  0  0  0  0  0  0  0  0  0  0  0
   -0.8992   -0.2240    4.9525 H   0  0  0  0  0  0  0  0  0  0  0  0
  5  6  2  0  0  0  0
  5  7  1  0  0  0  0
  2  3  1  0  0  0  0
  2  4  1  0  0  0  0
  2  5  1  0  0  0  0
  1  2  1  0  0  0  0
 26 27  2  0  0  0  0
 26 28  1  0  0  0  0
 23 24  1  0  0  0  0
 23 25  1  0  0  0  0
 20 21  1  0  0  0  0
 20 22  1  0  0  0  0
 20 23  1  0  0  0  0
 17 18  1  0  0  0  0
 17 19  1  0  0  0  0
 17 20  1  0  0  0  0
 14 15  1  0  0  0  0
 14 16  1  0  0  0  0
 14 17  1  0  0  0  0
 11 12  1  0  0  0  0
 11 13  1  0  0  0  0
 11 14  1  0  0  0  0
  9 10  1  0  0  0  0
  9 11  1  0  0  0  0
  9 26  1  0  0  0  0
  7  8  1  0  0  0  0
  7  9  1  0  0  0  0
 30 31  1  0  0  0  0
 30 32  1  0  0  0  0
 30 33  1  0  0  0  0
 28 29  1  0  0  0  0
 28 30  1  0  0  0  0
M  END
$$$$
default_name
  -OEChem-02102213163D

 33 32  0     1  0  0  0  0  0999 V2000
   -3.8420   -3.6918    1.5562 H   0  0  0  0  0  0  0  0  0  0  0  0
   -3.8430   -2.7008    1.1032 C   0  0  0  0  0  0  0  0  0  0  0  0
   -4.5510   -2.0608    1.6242 H   0  0  0  0  0  0  0  0  0  0  0  0
   -4.1140   -2.7798    0.0522 H   0  0  0  0  0  0  0  0  0  0  0  0
   -2.4570   -2.1098    1.2172 C   0  0  0  0  0  0  0  0  0  0  0  0
   -1.5600   -2.7438    1.7572 O   0  0  0  0  0  0  0  0  0  0  0  0
   -2.2870   -0.8898    0.7102 N   0  0  0  0  0  0  0  0  0  0  0  0
   -3.0820   -0.4218    0.2992 H   0  0  0  0  0  0  0  0  0  0  0  0
   -1.0240   -0.1468    0.7262 C   0  0  1  0  0  0  0  0  0  0  0  0
   -0.2680   -0.7367    0.2062 H   0  0  0  0  0  0  0  0  0  0  0  0
   -1.2212    1.1806   -0.0314 C   0  0  0  0  0  0  0  0  0  0  0  0
   -0.7398    1.0976   -1.0080 H   0  0  0  0  0  0  0  0  0  0  0  0
   -2.2872    1.3491   -0.1904 H   0  0  0  0  0  0  0  0  0  0  0  0
   -0.6201    2.3923    0.6980 C   0  0  0  0  0  0  0  0  0  0  0  0
   -1.0887    2.4998    1.6766 H   0  0  0  0  0  0  0  0  0  0  0  0
    0.4520    2.2360    0.8303 H   0  0  0  0  0  0  0  0  0  0  0  0
   -0.8469    3.6803   -0.1016 C   0  0  0  0  0  0  0  0  0  0  0  0
   -0.3900    3.5851   -1.0871 H   0  0  0  0  0  0  0  0  0  0  0  0
   -1.9173    3.8535   -0.2160 H   0  0  0  0  0  0  0  0  0  0  0  0
   -0.2190    4.8635    0.6325 C   0  0  0  0  0  0  0  0  0  0  0  0
   -0.6867    4.9720    1.6098 H   0  0  0  0  0  0  0  0  0  0  0  0
    0.8469    4.6841    0.7634 H   0  0  0  0  0  0  0  0  0  0  0  0
   -0.3975    6.1114   -0.1186 N   0  0  0  0  0  0  0  0  0  0  0  0
    0.0159    6.8719    0.4007 H   0  0  0  0  0  0  0  0  0  0  0  0
    0.0622    6.0277   -1.0141 H   0  0  0  0  0  0  0  0  0  0  0  0
   -0.5564    0.0727    2.1744 C   0  0  0  0  0  0  0  0  0  0  0  0
    0.6169   -0.1288    2.4805 O   0  0  0  0  0  0  0  0  0  0  0  0
   -1.4759    0.4743    3.0595 N   0  0  0  0  0  0  0  0  0  0  0  0
   -2.4132    0.6318    2.7275 H   0  0  0  0  0  0  0  0  0  0  0  0
   -1.1971    0.7118    4.4750 C   0  0  0  0  0  0  0  0  0  0  0  0
   -0.3779    1.4272    4.5748 H   0  0  0  0  0  0  0  0  0  0  0  0
   -2.0826    1.1064    4.9754 H   0  0  0  0  0  0  0  0  0  0  0  0
   -0.8992   -0.2240    4.9525 H   0  0  0  0  0  0  0  0  0  0  0  0
  5  6  2  0  0  0  0
  5  7  1  0  0  0  0
  2  3  1  0  0  0  0
  2  4  1  0  0  0  0
  2  5  1  0  0  0  0
  1  2  1  0  0  0  0
 26 27  2  0  0  0  0
 26 28  1  0  0  0  0
 23 24  1  0  0  0  0
 23 25  1  0  0  0  0
 20 21  1  0  0  0  0
 20 22  1  0  0  0  0
 20 23  1  0  0  0  0
 17 18  1  0  0  0  0
 17 19  1  0  0  0  0
 17 20  1  0  0  0  0
 14 15  1  0  0  0  0
 14 16  1  0  0  0  0
 14 17  1  0  0  0  0
 11 12  1  0  0  0  0
 11 13  1  0  0  0  0
 11 14  1  0  0  0  0
  9 10  1  0  0  0  0
  9 11  1  0  0  0  0
  9 26  1  0  0  0  0
  7  8  1  0  0  0  0
  7  9  1  0  0  0  0
 30 31  1  0  0  0  0
 30 32  1  0  0  0  0
 30 33  1  0  0  0  0
 28 29  1  0  0  0  0
 28 30  1  0  0  0  0
M  END
$$$$
default_name
  -OEChem-02102213163D

 33 32  0     1  0  0  0  0  0999 V2000
   -3.8420   -3.6918    1.5562 H   0  0  0  0  0  0  0  0  0  0  0  0
   -3.8430   -2.7008    1.1032 C   0  0  0  0  0  0  0  0  0  0  0  0
   -4.5510   -2.0608    1.6242 H   0  0  0  0  0  0  0  0  0  0  0  0
   -4.1140   -2.7798    0.0522 H   0  0  0  0  0  0  0  0  0  0  0  0
   -2.4570   -2.1098    1.2172 C   0  0  0  0  0  0  0  0  0  0  0  0
   -1.5600   -2.7438    1.7572 O   0  0  0  0  0  0  0  0  0  0  0  0
   -2.2870   -0.8898    0.7102 N   0  0  0  0  0  0  0  0  0  0  0  0
   -3.0820   -0.4218    0.2992 H   0  0  0  0  0  0  0  0  0  0  0  0
   -1.0240   -0.1468    0.7262 C   0  0  1  0  0  0  0  0  0  0  0  0
   -0.2680   -0.7367    0.2062 H   0  0  0  0  0  0  0  0  0  0  0  0
   -1.2212    1.1806   -0.0314 C   0  0  0  0  0  0  0  0  0  0  0  0
   -0.7398    1.0976   -1.0080 H   0  0  0  0  0  0  0  0  0  0  0  0
   -2.2872    1.3491   -0.1904 H   0  0  0  0  0  0  0  0  0  0  0  0
   -0.6201    2.3923    0.6980 C   0  0  0  0  0  0  0  0  0  0  0  0
   -0.8814    2.3493    1.7557 H   0  0  0  0  0  0  0  0  0  0  0  0
    0.4665    2.3693    0.5970 H   0  0  0  0  0  0  0  0  0  0  0  0
   -1.1533    3.7042    0.1112 C   0  0  0  0  0  0  0  0  0  0  0  0
   -0.9063    3.7583   -0.9495 H   0  0  0  0  0  0  0  0  0  0  0  0
   -2.2364    3.7425    0.2312 H   0  0  0  0  0  0  0  0  0  0  0  0
   -0.5220    4.8909    0.8366 C   0  0  0  0  0  0  0  0  0  0  0  0
   -0.7827    4.8492    1.8929 H   0  0  0  0  0  0  0  0  0  0  0  0
    0.5608    4.8444    0.7328 H   0  0  0  0  0  0  0  0  0  0  0  0
   -0.9936    6.1654    0.2829 N   0  0  0  0  0  0  0  0  0  0  0  0
   -0.5683    6.9253    0.7934 H   0  0  0  0  0  0  0  0  0  0  0  0
   -0.7262    6.2234   -0.6895 H   0  0  0  0  0  0  0  0  0  0  0  0
   -0.5564    0.0727    2.1744 C   0  0  0  0  0  0  0  0  0  0  0  0
    0.6169   -0.1288    2.4805 O   0  0  0  0  0  0  0  0  0  0  0  0
   -1.4759    0.4743    3.0595 N   0  0  0  0  0  0  0  0  0  0  0  0
   -2.4132    0.6318    2.7275 H   0  0  0  0  0  0  0  0  0  0  0  0
   -1.1971    0.7118    4.4750 C   0  0  0  0  0  0  0  0  0  0  0  0
   -0.3779    1.4272    4.5748 H   0  0  0  0  0  0  0  0  0  0  0  0
   -2.0826    1.1064    4.9754 H   0  0  0  0  0  0  0  0  0  0  0  0
   -0.8992   -0.2240    4.9525 H   0  0  0  0  0  0  0  0  0  0  0  0
  5  6  2  0  0  0  0
  5  7  1  0  0  0  0
  2  3  1  0  0  0  0
  2  4  1  0  0  0  0
  2  5  1  0  0  0  0
  1  2  1  0  0  0  0
 26 27  2  0  0  0  0
 26 28  1  0  0  0  0
 23 24  1  0  0  0  0
 23 25  1  0  0  0  0
 20 21  1  0  0  0  0
 20 22  1  0  0  0  0
 20 23  1  0  0  0  0
 17 18  1  0  0  0  0
 17 19  1  0  0  0  0
 17 20  1  0  0  0  0
 14 15  1  0  0  0  0
 14 16  1  0  0  0  0
 14 17  1  0  0  0  0
 11 12  1  0  0  0  0
 11 13  1  0  0  0  0
 11 14  1  0  0  0  0
  9 10  1  0  0  0  0
  9 11  1  0  0  0  0
  9 26  1  0  0  0  0
  7  8  1  0  0  0  0
  7  9  1  0  0  0  0
 30 31  1  0  0  0  0
 30 32  1  0  0  0  0
 30 33  1  0  0  0  0
 28 29  1  0  0  0  0
 28 30  1  0  0  0  0
M  END
$$$$
default_name
  -OEChem-02102213163D

 33 32  0     1  0  0  0  0  0999 V2000
   -3.8420   -3.6918    1.5562 H   0  0  0  0  0  0  0  0  0  0  0  0
   -3.8430   -2.7008    1.1032 C   0  0  0  0  0  0  0  0  0  0  0  0
   -4.5510   -2.0608    1.6242 H   0  0  0  0  0  0  0  0  0  0  0  0
   -4.1140   -2.7798    0.0522 H   0  0  0  0  0  0  0  0  0  0  0  0
   -2.4570   -2.1098    1.2172 C   0  0  0  0  0  0  0  0  0  0  0  0
   -1.5600   -2.7438    1.7572 O   0  0  0  0  0  0  0  0  0  0  0  0
   -2.2870   -0.8898    0.7102 N   0  0  0  0  0  0  0  0  0  0  0  0
   -3.0820   -0.4218    0.2992 H   0  0  0  0  0  0  0  0  0  0  0  0
   -1.0240   -0.1468    0.7262 C   0  0  1  0  0  0  0  0  0  0  0  0
   -0.2680   -0.7367    0.2062 H   0  0  0  0  0  0  0  0  0  0  0  0
   -1.2212    1.1806   -0.0314 C   0  0  0  0  0  0  0  0  0  0  0  0
   -0.7398    1.0976   -1.0080 H   0  0  0  0  0  0  0  0  0  0  0  0
   -2.2872    1.3491   -0.1904 H   0  0  0  0  0  0  0  0  0  0  0  0
   -0.6201    2.3923    0.6980 C   0  0  0  0  0  0  0  0  0  0  0  0
   -0.6465    2.2215    1.7746 H   0  0  0  0  0  0  0  0  0  0  0  0
    0.4164    2.5234    0.3822 H   0  0  0  0  0  0  0  0  0  0  0  0
   -1.4087    3.6681    0.3816 C   0  0  0  0  0  0  0  0  0  0  0  0
   -1.3981    3.8483   -0.6937 H   0  0  0  0  0  0  0  0  0  0  0  0
   -2.4396    3.5509    0.7171 H   0  0  0  0  0  0  0  0  0  0  0  0
   -0.7764    4.8595    1.0984 C   0  0  0  0  0  0  0  0  0  0  0  0
   -0.8027    4.6901    2.1736 H   0  0  0  0  0  0  0  0  0  0  0  0
    0.2585    4.9672    0.7779 H   0  0  0  0  0  0  0  0  0  0  0  0
   -1.4940    6.1037    0.7978 N   0  0  0  0  0  0  0  0  0  0  0  0
   -1.0590    6.8653    1.2973 H   0  0  0  0  0  0  0  0  0  0  0  0
   -1.4454    6.2826   -0.1952 H   0  0  0  0  0  0  0  0  0  0  0  0
   -0.5564    0.0727    2.1744 C   0  0  0  0  0  0  0  0  0  0  0  0
    0.6169   -0.1288    2.4805 O   0  0  0  0  0  0  0  0  0  0  0  0
   -1.4759    0.4743    3.0595 N   0  0  0  0  0  0  0  0  0  0  0  0
   -2.4132    0.6318    2.7275 H   0  0  0  0  0  0  0  0  0  0  0  0
   -1.1971    0.7118    4.4750 C   0  0  0  0  0  0  0  0  0  0  0  0
   -0.3779    1.4272    4.5748 H   0  0  0  0  0  0  0  0  0  0  0  0
   -2.0826    1.1064    4.9754 H   0  0  0  0  0  0  0  0  0  0  0  0
   -0.8992   -0.2240    4.9525 H   0  0  0  0  0  0  0  0  0  0  0  0
  5  6  2  0  0  0  0
  5  7  1  0  0  0  0
  2  3  1  0  0  0  0
  2  4  1  0  0  0  0
  2  5  1  0  0  0  0
  1  2  1  0  0  0  0
 26 27  2  0  0  0  0
 26 28  1  0  0  0  0
 23 24  1  0  0  0  0
 23 25  1  0  0  0  0
 20 21  1  0  0  0  0
 20 22  1  0  0  0  0
 20 23  1  0  0  0  0
 17 18  1  0  0  0  0
 17 19  1  0  0  0  0
 17 20  1  0  0  0  0
 14 15  1  0  0  0  0
 14 16  1  0  0  0  0
 14 17  1  0  0  0  0
 11 12  1  0  0  0  0
 11 13  1  0  0  0  0
 11 14  1  0  0  0  0
  9 10  1  0  0  0  0
  9 11  1  0  0  0  0
  9 26  1  0  0  0  0
  7  8  1  0  0  0  0
  7  9  1  0  0  0  0
 30 31  1  0  0  0  0
 30 32  1  0  0  0  0
 30 33  1  0  0  0  0
 28 29  1  0  0  0  0
 28 30  1  0  0  0  0
M  END
$$$$
default_name
  -OEChem-02102213163D

 33 32  0     1  0  0  0  0  0999 V2000
   -3.8420   -3.6918    1.5562 H   0  0  0  0  0  0  0  0  0  0  0  0
   -3.8430   -2.7008    1.1032 C   0  0  0  0  0  0  0  0  0  0  0  0
   -4.5510   -2.0608    1.6242 H   0  0  0  0  0  0  0  0  0  0  0  0
   -4.1140   -2.7798    0.0522 H   0  0  0  0  0  0  0  0  0  0  0  0
   -2.4570   -2.1098    1.2172 C   0  0  0  0  0  0  0  0  0  0  0  0
   -1.5600   -2.7438    1.7572 O   0  0  0  0  0  0  0  0  0  0  0  0
   -2.2870   -0.8898    0.7102 N   0  0  0  0  0  0  0  0  0  0  0  0
   -3.0820   -0.4218    0.2992 H   0  0  0  0  0  0  0  0  0  0  0  0
   -1.0240   -0.1468    0.7262 C   0  0  1  0  0  0  0  0  0  0  0  0
   -0.2680   -0.7367    0.2062 H   0  0  0  0  0  0  0  0  0  0  0  0
   -1.2212    1.1806   -0.0314 C   0  0  0  0  0  0  0  0  0  0  0  0
   -0.7398    1.0976   -1.0080 H   0  0  0  0  0  0  0  0  0  0  0  0
   -2.2872    1.3491   -0.1904 H   0  0  0  0  0  0  0  0  0  0  0  0
   -0.6201    2.3923    0.6980 C   0  0  0  0  0  0  0  0  0  0  0  0
   -0.4000    2.1249    1.7319 H   0  0  0  0  0  0  0  0  0  0  0  0
    0.3053    2.6879    0.2005 H   0  0  0  0  0  0  0  0  0  0  0  0
   -1.5959    3.5745    0.6913 C   0  0  0  0  0  0  0  0  0  0  0  0
   -1.8321    3.8489   -0.3372 H   0  0  0  0  0  0  0  0  0  0  0  0
   -2.5133    3.2916    1.2084 H   0  0  0  0  0  0  0  0  0  0  0  0
   -0.9648    4.7715    1.3999 C   0  0  0  0  0  0  0  0  0  0  0  0
   -0.7451    4.5056    2.4327 H   0  0  0  0  0  0  0  0  0  0  0  0
   -0.0393    5.0442    0.8955 H   0  0  0  0  0  0  0  0  0  0  0  0
   -1.8648    5.9305    1.3910 N   0  0  0  0  0  0  0  0  0  0  0  0
   -1.4228    6.6961    1.8782 H   0  0  0  0  0  0  0  0  0  0  0  0
   -2.0466    6.2014    0.4350 H   0  0  0  0  0  0  0  0  0  0  0  0
   -0.5564    0.0727    2.1744 C   0  0  0  0  0  0  0  0  0  0  0  0
    0.6169   -0.1288    2.4805 O   0  0  0  0  0  0  0  0  0  0  0  0
   -1.4759    0.4743    3.0595 N   0  0  0  0  0  0  0  0  0  0  0  0
   -2.4132    0.6318    2.7275 H   0  0  0  0  0  0  0  0  0  0  0  0
   -1.1971    0.7118    4.4750 C   0  0  0  0  0  0  0  0  0  0  0  0
   -0.3779    1.4272    4.5748 H   0  0  0  0  0  0  0  0  0  0  0  0
   -2.0826    1.1064    4.9754 H   0  0  0  0  0  0  0  0  0  0  0  0
   -0.8992   -0.2240    4.9525 H   0  0  0  0  0  0  0  0  0  0  0  0
  5  6  2  0  0  0  0
  5  7  1  0  0  0  0
  2  3  1  0  0  0  0
  2  4  1  0  0  0  0
  2  5  1  0  0  0  0
  1  2  1  0  0  0  0
 26 27  2  0  0  0  0
 26 28  1  0  0  0  0
 23 24  1  0  0  0  0
 23 25  1  0  0  0  0
 20 21  1  0  0  0  0
 20 22  1  0  0  0  0
 20 23  1  0  0  0  0
 17 18  1  0  0  0  0
 17 19  1  0  0  0  0
 17 20  1  0  0  0  0
 14 15  1  0  0  0  0
 14 16  1  0  0  0  0
 14 17  1  0  0  0  0
 11 12  1  0  0  0  0
 11 13  1  0  0  0  0
 11 14  1  0  0  0  0
  9 10  1  0  0  0  0
  9 11  1  0  0  0  0
  9 26  1  0  0  0  0
  7  8  1  0  0  0  0
  7  9  1  0  0  0  0
 30 31  1  0  0  0  0
 30 32  1  0  0  0  0
 30 33  1  0  0  0  0
 28 29  1  0  0  0  0
 28 30  1  0  0  0  0
M  END
$$$$
default_name
  -OEChem-02102213163D

 33 32  0     1  0  0  0  0  0999 V2000
   -3.8420   -3.6918    1.5562 H   0  0  0  0  0  0  0  0  0  0  0  0
   -3.8430   -2.7008    1.1032 C   0  0  0  0  0  0  0  0  0  0  0  0
   -4.5510   -2.0608    1.6242 H   0  0  0  0  0  0  0  0  0  0  0  0
   -4.1140   -2.7798    0.0522 H   0  0  0  0  0  0  0  0  0  0  0  0
   -2.4570   -2.1098    1.2172 C   0  0  0  0  0  0  0  0  0  0  0  0
   -1.5600   -2.7438    1.7572 O   0  0  0  0  0  0  0  0  0  0  0  0
   -2.2870   -0.8898    0.7102 N   0  0  0  0  0  0  0  0  0  0  0  0
   -3.0820   -0.4218    0.2992 H   0  0  0  0  0  0  0  0  0  0  0  0
   -1.0240   -0.1468    0.7262 C   0  0  1  0  0  0  0  0  0  0  0  0
   -0.2680   -0.7367    0.2062 H   0  0  0  0  0  0  0  0  0  0  0  0
   -1.2212    1.1806   -0.0314 C   0  0  0  0  0  0  0  0  0  0  0  0
   -0.7398    1.0976   -1.0080 H   0  0  0  0  0  0  0  0  0  0  0  0
   -2.2872    1.3491   -0.1904 H   0  0  0  0  0  0  0  0  0  0  0  0
   -0.6201    2.3923    0.6980 C   0  0  0  0  0  0  0  0  0  0  0  0
   -0.1588    2.0662    1.6306 H   0  0  0  0  0  0  0  0  0  0  0  0
    0.1407    2.8516    0.0643 H   0  0  0  0  0  0  0  0  0  0  0  0
   -1.7019    3.4297    1.0192 C   0  0  0  0  0  0  0  0  0  0  0  0
   -2.1786    3.7601    0.0958 H   0  0  0  0  0  0  0  0  0  0  0  0
   -2.4523    2.9824    1.6718 H   0  0  0  0  0  0  0  0  0  0  0  0
   -1.0745    4.6327    1.7208 C   0  0  0  0  0  0  0  0  0  0  0  0
   -0.6139    4.3082    2.6525 H   0  0  0  0  0  0  0  0  0  0  0  0
   -0.3124    5.0700    1.0777 H   0  0  0  0  0  0  0  0  0  0  0  0
   -2.0806    5.6575    2.0221 N   0  0  0  0  0  0  0  0  0  0  0  0
   -1.6348    6.4292    2.4963 H   0  0  0  0  0  0  0  0  0  0  0  0
   -2.4887    5.9853    1.1582 H   0  0  0  0  0  0  0  0  0  0  0  0
   -0.5564    0.0727    2.1744 C   0  0  0  0  0  0  0  0  0  0  0  0
    0.6169   -0.1288    2.4805 O   0  0  0  0  0  0  0  0  0  0  0  0
   -1.4759    0.4743    3.0595 N   0  0  0  0  0  0  0  0  0  0  0  0
   -2.4132    0.6318    2.7275 H   0  0  0  0  0  0  0  0  0  0  0  0
   -1.1971    0.7118    4.4750 C   0  0  0  0  0  0  0  0  0  0  0  0
   -0.3779    1.4272    4.5748 H   0  0  0  0  0  0  0  0  0  0  0  0
   -2.0826    1.1064    4.9754 H   0  0  0  0  0  0  0  0  0  0  0  0
   -0.8992   -0.2240    4.9525 H   0  0  0  0  0  0  0  0  0  0  0  0
  5  6  2  0  0  0  0
  5  7  1  0  0  0  0
  2  3  1  0  0  0  0
  2  4  1  0  0  0  0
  2  5  1  0  0  0  0
  1  2  1  0  0  0  0
 26 27  2  0  0  0  0
 26 28  1  0  0  0  0
 23 24  1  0  0  0  0
 23 25  1  0  0  0  0
 20 21  1  0  0  0  0
 20 22  1  0  0  0  0
 20 23  1  0  0  0  0
 17 18  1  0  0  0  0
 17 19  1  0  0  0  0
 17 20  1  0  0  0  0
 14 15  1  0  0  0  0
 14 16  1  0  0  0  0
 14 17  1  0  0  0  0
 11 12  1  0  0  0  0
 11 13  1  0  0  0  0
 11 14  1  0  0  0  0
  9 10  1  0  0  0  0
  9 11  1  0  0  0  0
  9 26  1  0  0  0  0
  7  8  1  0  0  0  0
  7  9  1  0  0  0  0
 30 31  1  0  0  0  0
 30 32  1  0  0  0  0
 30 33  1  0  0  0  0
 28 29  1  0  0  0  0
 28 30  1  0  0  0  0
M  END
$$$$
default_name
  -OEChem-02102213163D

 33 32  0     1  0  0  0  0  0999 V2000
   -3.8420   -3.6918    1.5562 H   0  0  0  0  0  0  0  0  0  0  0  0
   -3.8430   -2.7008    1.1032 C   0  0  0  0  0  0  0  0  0  0  0  0
   -4.5510   -2.0608    1.6242 H   0  0  0  0  0  0  0  0  0  0  0  0
   -4.1140   -2.7798    0.0522 H   0  0  0  0  0  0  0  0  0  0  0  0
   -2.4570   -2.1098    1.2172 C   0  0  0  0  0  0  0  0  0  0  0  0
   -1.5600   -2.7438    1.7572 O   0  0  0  0  0  0  0  0  0  0  0  0
   -2.2870   -0.8898    0.7102 N   0  0  0  0  0  0  0  0  0  0  0  0
   -3.0820   -0.4218    0.2992 H   0  0  0  0  0  0  0  0  0  0  0  0
   -1.0240   -0.1468    0.7262 C   0  0  1  0  0  0  0  0  0  0  0  0
   -0.2680   -0.7367    0.2062 H   0  0  0  0  0  0  0  0  0  0  0  0
   -1.2212    1.1806   -0.0314 C   0  0  0  0  0  0  0  0  0  0  0  0
   -0.7398    1.0976   -1.0080 H   0  0  0  0  0  0  0  0  0  0  0  0
   -2.2872    1.3491   -0.1904 H   0  0  0  0  0  0  0  0  0  0  0  0
   -0.6201    2.3923    0.6980 C   0  0  0  0  0  0  0  0  0  0  0  0
    0.0607    2.0494    1.4776 H   0  0  0  0  0  0  0  0  0  0  0  0
   -0.0662    3.0032   -0.0171 H   0  0  0  0  0  0  0  0  0  0  0  0
   -1.7197    3.2436    1.3429 C   0  0  0  0  0  0  0  0  0  0  0  0
   -2.4139    3.5879    0.5758 H   0  0  0  0  0  0  0  0  0  0  0  0
   -2.2608    2.6443    2.0757 H   0  0  0  0  0  0  0  0  0  0  0  0
   -1.0979    4.4527    2.0390 C   0  0  0  0  0  0  0  0  0  0  0  0
   -0.4181    4.1114    2.8180 H   0  0  0  0  0  0  0  0  0  0  0  0
   -0.5423    5.0429    1.3121 H   0  0  0  0  0  0  0  0  0  0  0  0
   -2.1267    5.3035    2.6482 N   0  0  0  0  0  0  0  0  0  0  0  0
   -1.6807    6.0827    3.1096 H   0  0  0  0  0  0  0  0  0  0  0  0
   -2.7416    5.6491    1.9251 H   0  0  0  0  0  0  0  0  0  0  0  0
   -0.5564    0.0727    2.1744 C   0  0  0  0  0  0  0  0  0  0  0  0
    0.6169   -0.1288    2.4805 O   0  0  0  0  0  0  0  0  0  0  0  0
   -1.4759    0.4743    3.0595 N   0  0  0  0  0  0  0  0  0  0  0  0
   -2.4132    0.6318    2.7275 H   0  0  0  0  0  0  0  0  0  0  0  0
   -1.1971    0.7118    4.4750 C   0  0  0  0  0  0  0  0  0  0  0  0
   -0.3779    1.4272    4.5748 H   0  0  0  0  0  0  0  0  0  0  0  0
   -2.0826    1.1064    4.9754 H   0  0  0  0  0  0  0  0  0  0  0  0
   -0.8992   -0.2240    4.9525 H   0  0  0  0  0  0  0  0  0  0  0  0
  5  6  2  0  0  0  0
  5  7  1  0  0  0  0
  2  3  1  0  0  0  0
  2  4  1  0  0  0  0
  2  5  1  0  0  0  0
  1  2  1  0  0  0  0
 26 27  2  0  0  0  0
 26 28  1  0  0  0  0
 23 24  1  0  0  0  0
 23 25  1  0  0  0  0
 20 21  1  0  0  0  0
 20 22  1  0  0  0  0
 20 23  1  0  0  0  0
 17 18  1  0  0  0  0
 17 19  1  0  0  0  0
 17 20  1  0  0  0  0
 14 15  1  0  0  0  0
 14 16  1  0  0  0  0
 14 17  1  0  0  0  0
 11 12  1  0  0  0  0
 11 13  1  0  0  0  0
 11 14  1  0  0  0  0
  9 10  1  0  0  0  0
  9 11  1  0  0  0  0
  9 26  1  0  0  0  0
  7  8  1  0  0  0  0
  7  9  1  0  0  0  0
 30 31  1  0  0  0  0
 30 32  1  0  0  0  0
 30 33  1  0  0  0  0
 28 29  1  0  0  0  0
 28 30  1  0  0  0  0
M  END
$$$$
default_name
  -OEChem-02102213163D

 33 32  0     1  0  0  0  0  0999 V2000
   -3.8420   -3.6918    1.5562 H   0  0  0  0  0  0  0  0  0  0  0  0
   -3.8430   -2.7008    1.1032 C   0  0  0  0  0  0  0  0  0  0  0  0
   -4.5510   -2.0608    1.6242 H   0  0  0  0  0  0  0  0  0  0  0  0
   -4.1140   -2.7798    0.0522 H   0  0  0  0  0  0  0  0  0  0  0  0
   -2.4570   -2.1098    1.2172 C   0  0  0  0  0  0  0  0  0  0  0  0
   -1.5600   -2.7438    1.7572 O   0  0  0  0  0  0  0  0  0  0  0  0
   -2.2870   -0.8898    0.7102 N   0  0  0  0  0  0  0  0  0  0  0  0
   -3.0820   -0.4218    0.2992 H   0  0  0  0  0  0  0  0  0  0  0  0
   -1.0240   -0.1468    0.7262 C   0  0  1  0  0  0  0  0  0  0  0  0
   -0.2680   -0.7367    0.2062 H   0  0  0  0  0  0  0  0  0  0  0  0
   -1.2212    1.1806   -0.0314 C   0  0  0  0  0  0  0  0  0  0  0  0
   -0.7398    1.0976   -1.0080 H   0  0  0  0  0  0  0  0  0  0  0  0
   -2.2872    1.3491   -0.1904 H   0  0  0  0  0  0  0  0  0  0  0  0
   -0.6201    2.3923    0.6980 C   0  0  0  0  0  0  0  0  0  0  0  0
    0.2436    2.0757    1.2833 H   0  0  0  0  0  0  0  0  0  0  0  0
   -0.3012    3.1325   -0.0381 H   0  0  0  0  0  0  0  0  0  0  0  0
   -1.6479    3.0290    1.6404 C   0  0  0  0  0  0  0  0  0  0  0  0
   -2.5222    3.3441    1.0700 H   0  0  0  0  0  0  0  0  0  0  0  0
   -1.9519    2.3003    2.3925 H   0  0  0  0  0  0  0  0  0  0  0  0
   -1.0334    4.2438    2.3329 C   0  0  0  0  0  0  0  0  0  0  0  0
   -0.1710    3.9286    2.9181 H   0  0  0  0  0  0  0  0  0  0  0  0
   -0.7131    4.9648    1.5826 H   0  0  0  0  0  0  0  0  0  0  0  0
   -1.9999    4.8925    3.2264 N   0  0  0  0  0  0  0  0  0  0  0  0
   -1.5573    5.6803    3.6764 H   0  0  0  0  0  0  0  0  0  0  0  0
   -2.7881    5.2156    2.6835 H   0  0  0  0  0  0  0  0  0  0  0  0
   -0.5564    0.0727    2.1744 C   0  0  0  0  0  0  0  0  0  0  0  0
    0.6169   -0.1288    2.4805 O   0  0  0  0  0  0  0  0  0  0  0  0
   -1.4759    0.4743    3.0595 N   0  0  0  0  0  0  0  0  0  0  0  0
   -2.4132    0.6318    2.7275 H   0  0  0  0  0  0  0  0  0  0  0  0
   -1.1971    0.7118    4.4750 C   0  0  0  0  0  0  0  0  0  0  0  0
   -0.3779    1.4272    4.5748 H   0  0  0  0  0  0  0  0  0  0  0  0
   -2.0826    1.1064    4.9754 H   0  0  0  0  0  0  0  0  0  0  0  0
   -0.8992   -0.2240    4.9525 H   0  0  0  0  0  0  0  0  0  0  0  0
  5  6  2  0  0  0  0
  5  7  1  0  0  0  0
  2  3  1  0  0  0  0
  2  4  1  0  0  0  0
  2  5  1  0  0  0  0
  1  2  1  0  0  0  0
 26 27  2  0  0  0  0
 26 28  1  0  0  0  0
 23 24  1  0  0  0  0
 23 25  1  0  0  0  0
 20 21  1  0  0  0  0
 20 22  1  0  0  0  0
 20 23  1  0  0  0  0
 17 18  1  0  0  0  0
 17 19  1  0  0  0  0
 17 20  1  0  0  0  0
 14 15  1  0  0  0  0
 14 16  1  0  0  0  0
 14 17  1  0  0  0  0
 11 12  1  0  0  0  0
 11 13  1  0  0  0  0
 11 14  1  0  0  0  0
  9 10  1  0  0  0  0
  9 11  1  0  0  0  0
  9 26  1  0  0  0  0
  7  8  1  0  0  0  0
  7  9  1  0  0  0  0
 30 31  1  0  0  0  0
 30 32  1  0  0  0  0
 30 33  1  0  0  0  0
 28 29  1  0  0  0  0
 28 30  1  0  0  0  0
M  END
$$$$
default_name
  -OEChem-02102213163D

 33 32  0     1  0  0  0  0  0999 V2000
   -3.8420   -3.6918    1.5562 H   0  0  0  0  0  0  0  0  0  0  0  0
   -3.8430   -2.7008    1.1032 C   0  0  0  0  0  0  0  0  0  0  0  0
   -4.5510   -2.0608    1.6242 H   0  0  0  0  0  0  0  0  0  0  0  0
   -4.1140   -2.7798    0.0522 H   0  0  0  0  0  0  0  0  0  0  0  0
   -2.4570   -2.1098    1.2172 C   0  0  0  0  0  0  0  0  0  0  0  0
   -1.5600   -2.7438    1.7572 O   0  0  0  0  0  0  0  0  0  0  0  0
   -2.2870   -0.8898    0.7102 N   0  0  0  0  0  0  0  0  0  0  0  0
   -3.0820   -0.4218    0.2992 H   0  0  0  0  0  0  0  0  0  0  0  0
   -1.0240   -0.1468    0.7262 C   0  0  1  0  0  0  0  0  0  0  0  0
   -0.2680   -0.7367    0.2062 H   0  0  0  0  0  0  0  0  0  0  0  0
   -1.2212    1.1806   -0.0314 C   0  0  0  0  0  0  0  0  0  0  0  0
   -0.7398    1.0976   -1.0080 H   0  0  0  0  0  0  0  0  0  0  0  0
   -2.2872    1.3491   -0.1904 H   0  0  0  0  0  0  0  0  0  0  0  0
   -0.6201    2.3923    0.6980 C   0  0  0  0  0  0  0  0  0  0  0  0
    0.3774    2.1432    1.0609 H   0  0  0  0  0  0  0  0  0  0  0  0
   -0.5485    3.2306    0.0026 H   0  0  0  0  0  0  0  0  0  0  0  0
   -1.4915    2.8003    1.8913 C   0  0  0  0  0  0  0  0  0  0  0  0
   -2.4960    3.0453    1.5449 H   0  0  0  0  0  0  0  0  0  0  0  0
   -1.5466    1.9740    2.6006 H   0  0  0  0  0  0  0  0  0  0  0  0
   -0.8855    4.0202    2.5826 C   0  0  0  0  0  0  0  0  0  0  0  0
    0.1105    3.7722    2.9458 H   0  0  0  0  0  0  0  0  0  0  0  0
   -0.8133    4.8409    1.8708 H   0  0  0  0  0  0  0  0  0  0  0  0
   -1.7090    4.4526    3.7175 N   0  0  0  0  0  0  0  0  0  0  0  0
   -1.2730    5.2494    4.1578 H   0  0  0  0  0  0  0  0  0  0  0  0
   -2.6250    4.7144    3.3816 H   0  0  0  0  0  0  0  0  0  0  0  0
   -0.5564    0.0727    2.1744 C   0  0  0  0  0  0  0  0  0  0  0  0
    0.6169   -0.1288    2.4805 O   0  0  0  0  0  0  0  0  0  0  0  0
   -1.4759    0.4743    3.0595 N   0  0  0  0  0  0  0  0  0  0  0  0
   -2.4132    0.6318    2.7275 H   0  0  0  0  0  0  0  0  0  0  0  0
   -1.1971    0.7118    4.4750 C   0  0  0  0  0  0  0  0  0  0  0  0
   -0.3779    1.4272    4.5748 H   0  0  0  0  0  0  0  0  0  0  0  0
   -2.0826    1.1064    4.9754 H   0  0  0  0  0  0  0  0  0  0  0  0
   -0.8992   -0.2240    4.9525 H   0  0  0  0  0  0  0  0  0  0  0  0
  5  6  2  0  0  0  0
  5  7  1  0  0  0  0
  2  3  1  0  0  0  0
  2  4  1  0  0  0  0
  2  5  1  0  0  0  0
  1  2  1  0  0  0  0
 26 27  2  0  0  0  0
 26 28  1  0  0  0  0
 23 24  1  0  0  0  0
 23 25  1  0  0  0  0
 20 21  1  0  0  0  0
 20 22  1  0  0  0  0
 20 23  1  0  0  0  0
 17 18  1  0  0  0  0
 17 19  1  0  0  0  0
 17 20  1  0  0  0  0
 14 15  1  0  0  0  0
 14 16  1  0  0  0  0
 14 17  1  0  0  0  0
 11 12  1  0  0  0  0
 11 13  1  0  0  0  0
 11 14  1  0  0  0  0
  9 10  1  0  0  0  0
  9 11  1  0  0  0  0
  9 26  1  0  0  0  0
  7  8  1  0  0  0  0
  7  9  1  0  0  0  0
 30 31  1  0  0  0  0
 30 32  1  0  0  0  0
 30 33  1  0  0  0  0
 28 29  1  0  0  0  0
 28 30  1  0  0  0  0
M  END
$$$$
default_name
  -OEChem-02102213163D

 33 32  0     1  0  0  0  0  0999 V2000
   -3.8420   -3.6918    1.5562 H   0  0  0  0  0  0  0  0  0  0  0  0
   -3.8430   -2.7008    1.1032 C   0  0  0  0  0  0  0  0  0  0  0  0
   -4.5510   -2.0608    1.6242 H   0  0  0  0  0  0  0  0  0  0  0  0
   -4.1140   -2.7798    0.0522 H   0  0  0  0  0  0  0  0  0  0  0  0
   -2.4570   -2.1098    1.2172 C   0  0  0  0  0  0  0  0  0  0  0  0
   -1.5600   -2.7438    1.7572 O   0  0  0  0  0  0  0  0  0  0  0  0
   -2.2870   -0.8898    0.7102 N   0  0  0  0  0  0  0  0  0  0  0  0
   -3.0820   -0.4218    0.2992 H   0  0  0  0  0  0  0  0  0  0  0  0
   -1.0240   -0.1468    0.7262 C   0  0  1  0  0  0  0  0  0  0  0  0
   -0.2680   -0.7367    0.2062 H   0  0  0  0  0  0  0  0  0  0  0  0
   -1.2212    1.1806   -0.0314 C   0  0  0  0  0  0  0  0  0  0  0  0
   -0.7398    1.0976   -1.0080 H   0  0  0  0  0  0  0  0  0  0  0  0
   -2.2872    1.3491   -0.1904 H   0  0  0  0  0  0  0  0  0  0  0  0
   -0.6201    2.3923    0.6980 C   0  0  0  0  0  0  0  0  0  0  0  0
    0.4530    2.2473    0.8257 H   0  0  0  0  0  0  0  0  0  0  0  0
   -0.7910    3.2909    0.1024 H   0  0  0  0  0  0  0  0  0  0  0  0
   -1.2611    2.5732    2.0786 C   0  0  0  0  0  0  0  0  0  0  0  0
   -2.3370    2.7117    1.9679 H   0  0  0  0  0  0  0  0  0  0  0  0
   -1.0726    1.6875    2.6859 H   0  0  0  0  0  0  0  0  0  0  0  0
   -0.6643    3.7971    2.7709 C   0  0  0  0  0  0  0  0  0  0  0  0
    0.4073    3.6530    2.8993 H   0  0  0  0  0  0  0  0  0  0  0  0
   -0.8361    4.6798    2.1572 H   0  0  0  0  0  0  0  0  0  0  0  0
   -1.2738    4.0136    4.0880 N   0  0  0  0  0  0  0  0  0  0  0  0
   -0.8472    4.8194    4.5213 H   0  0  0  0  0  0  0  0  0  0  0  0
   -2.2633    4.1797    3.9719 H   0  0  0  0  0  0  0  0  0  0  0  0
   -0.5564    0.0727    2.1744 C   0  0  0  0  0  0  0  0  0  0  0  0
    0.6169   -0.1288    2.4805 O   0  0  0  0  0  0  0  0  0  0  0  0
   -1.4759    0.4743    3.0595 N   0  0  0  0  0  0  0  0  0  0  0  0
   -2.4132    0.6318    2.7275 H   0  0  0  0  0  0  0  0  0  0  0  0
   -1.1971    0.7118    4.4750 C   0  0  0  0  0  0  0  0  0  0  0  0
   -0.3779    1.4272    4.5748 H   0  0  0  0  0  0  0  0  0  0  0  0
   -2.0826    1.1064    4.9754 H   0  0  0  0  0  0  0  0  0  0  0  0
   -0.8992   -0.2240    4.9525 H   0  0  0  0  0  0  0  0  0  0  0  0
  5  6  2  0  0  0  0
  5  7  1  0  0  0  0
  2  3  1  0  0  0  0
  2  4  1  0  0  0  0
  2  5  1  0  0  0  0
  1  2  1  0  0  0  0
 26 27  2  0  0  0  0
 26 28  1  0  0  0  0
 23 24  1  0  0  0  0
 23 25  1  0  0  0  0
 20 21  1  0  0  0  0
 20 22  1  0  0  0  0
 20 23  1  0  0  0  0
 17 18  1  0  0  0  0
 17 19  1  0  0  0  0
 17 20  1  0  0  0  0
 14 15  1  0  0  0  0
 14 16  1  0  0  0  0
 14 17  1  0  0  0  0
 11 12  1  0  0  0  0
 11 13  1  0  0  0  0
 11 14  1  0  0  0  0
  9 10  1  0  0  0  0
  9 11  1  0  0  0  0
  9 26  1  0  0  0  0
  7  8  1  0  0  0  0
  7  9  1  0  0  0  0
 30 31  1  0  0  0  0
 30 32  1  0  0  0  0
 30 33  1  0  0  0  0
 28 29  1  0  0  0  0
 28 30  1  0  0  0  0
M  END
$$$$
default_name
  -OEChem-02102213163D

 33 32  0     1  0  0  0  0  0999 V2000
   -3.8420   -3.6918    1.5562 H   0  0  0  0  0  0  0  0  0  0  0  0
   -3.8430   -2.7008    1.1032 C   0  0  0  0  0  0  0  0  0  0  0  0
   -4.5510   -2.0608    1.6242 H   0  0  0  0  0  0  0  0  0  0  0  0
   -4.1140   -2.7798    0.0522 H   0  0  0  0  0  0  0  0  0  0  0  0
   -2.4570   -2.1098    1.2172 C   0  0  0  0  0  0  0  0  0  0  0  0
   -1.5600   -2.7438    1.7572 O   0  0  0  0  0  0  0  0  0  0  0  0
   -2.2870   -0.8898    0.7102 N   0  0  0  0  0  0  0  0  0  0  0  0
   -3.0820   -0.4218    0.2992 H   0  0  0  0  0  0  0  0  0  0  0  0
   -1.0240   -0.1468    0.7262 C   0  0  1  0  0  0  0  0  0  0  0  0
   -0.2680   -0.7367    0.2062 H   0  0  0  0  0  0  0  0  0  0  0  0
   -1.2212    1.1806   -0.0314 C   0  0  0  0  0  0  0  0  0  0  0  0
   -0.7398    1.0976   -1.0080 H   0  0  0  0  0  0  0  0  0  0  0  0
   -2.2872    1.3491   -0.1904 H   0  0  0  0  0  0  0  0  0  0  0  0
   -0.6201    2.3923    0.6980 C   0  0  0  0  0  0  0  0  0  0  0  0
    0.4651    2.3810    0.5936 H   0  0  0  0  0  0  0  0  0  0  0  0
   -1.0124    3.3092    0.2543 H   0  0  0  0  0  0  0  0  0  0  0  0
   -0.9725    2.3633    2.1896 C   0  0  0  0  0  0  0  0  0  0  0  0
   -2.0562    2.3663    2.3103 H   0  0  0  0  0  0  0  0  0  0  0  0
   -0.5621    1.4603    2.6426 H   0  0  0  0  0  0  0  0  0  0  0  0
   -0.3847    3.5897    2.8850 C   0  0  0  0  0  0  0  0  0  0  0  0
    0.6992    3.5790    2.7817 H   0  0  0  0  0  0  0  0  0  0  0  0
   -0.7798    4.4925    2.4221 H   0  0  0  0  0  0  0  0  0  0  0  0
   -0.7238    3.6056    4.3126 N   0  0  0  0  0  0  0  0  0  0  0  0
   -0.3089    4.4196    4.7419 H   0  0  0  0  0  0  0  0  0  0  0  0
   -1.7279    3.6478    4.4142 H   0  0  0  0  0  0  0  0  0  0  0  0
   -0.5564    0.0727    2.1744 C   0  0  0  0  0  0  0  0  0  0  0  0
    0.6169   -0.1288    2.4805 O   0  0  0  0  0  0  0  0  0  0  0  0
   -1.4759    0.4743    3.0595 N   0  0  0  0  0  0  0  0  0  0  0  0
   -2.4132    0.6318    2.7275 H   0  0  0  0  0  0  0  0  0  0  0  0
   -1.1971    0.7118    4.4750 C   0  0  0  0  0  0  0  0  0  0  0  0
   -0.3779    1.4272    4.5748 H   0  0  0  0  0  0  0  0  0  0  0  0
   -2.0826    1.1064    4.9754 H   0  0  0  0  0  0  0  0  0  0  0  0
   -0.8992   -0.2240    4.9525 H   0  0  0  0  0  0  0  0  0  0  0  0
  5  6  2  0  0  0  0
  5  7  1  0  0  0  0
  2  3  1  0  0  0  0
  2  4  1  0  0  0  0
  2  5  1  0  0  0  0
  1  2  1  0  0  0  0
 26 27  2  0  0  0  0
 26 28  1  0  0  0  0
 23 24  1  0  0  0  0
 23 25  1  0  0  0  0
 20 21  1  0  0  0  0
 20 22  1  0  0  0  0
 20 23  1  0  0  0  0
 17 18  1  0  0  0  0
 17 19  1  0  0  0  0
 17 20  1  0  0  0  0
 14 15  1  0  0  0  0
 14 16  1  0  0  0  0
 14 17  1  0  0  0  0
 11 12  1  0  0  0  0
 11 13  1  0  0  0  0
 11 14  1  0  0  0  0
  9 10  1  0  0  0  0
  9 11  1  0  0  0  0
  9 26  1  0  0  0  0
  7  8  1  0  0  0  0
  7  9  1  0  0  0  0
 30 31  1  0  0  0  0
 30 32  1  0  0  0  0
 30 33  1  0  0  0  0
 28 29  1  0  0  0  0
 28 30  1  0  0  0  0
M  END
$$$$
default_name
  -OEChem-02102213163D

 33 32  0     1  0  0  0  0  0999 V2000
   -3.8420   -3.6918    1.5562 H   0  0  0  0  0  0  0  0  0  0  0  0
   -3.8430   -2.7008    1.1032 C   0  0  0  0  0  0  0  0  0  0  0  0
   -4.5510   -2.0608    1.6242 H   0  0  0  0  0  0  0  0  0  0  0  0
   -4.1140   -2.7798    0.0522 H   0  0  0  0  0  0  0  0  0  0  0  0
   -2.4570   -2.1098    1.2172 C   0  0  0  0  0  0  0  0  0  0  0  0
   -1.5600   -2.7438    1.7572 O   0  0  0  0  0  0  0  0  0  0  0  0
   -2.2870   -0.8898    0.7102 N   0  0  0  0  0  0  0  0  0  0  0  0
   -3.0820   -0.4218    0.2992 H   0  0  0  0  0  0  0  0  0  0  0  0
   -1.0240   -0.1468    0.7262 C   0  0  1  0  0  0  0  0  0  0  0  0
   -0.2680   -0.7367    0.2062 H   0  0  0  0  0  0  0  0  0  0  0  0
   -1.2212    1.1806   -0.0314 C   0  0  0  0  0  0  0  0  0  0  0  0
   -0.7398    1.0976   -1.0080 H   0  0  0  0  0  0  0  0  0  0  0  0
   -2.2872    1.3491   -0.1904 H   0  0  0  0  0  0  0  0  0  0  0  0
   -0.6201    2.3923    0.6980 C   0  0  0  0  0  0  0  0  0  0  0  0
    0.4131    2.5351    0.3805 H   0  0  0  0  0  0  0  0  0  0  0  0
   -1.1974    3.2843    0.4481 H   0  0  0  0  0  0  0  0  0  0  0  0
   -0.6452    2.1847    2.2166 C   0  0  0  0  0  0  0  0  0  0  0  0
   -1.6726    2.0325    2.5487 H   0  0  0  0  0  0  0  0  0  0  0  0
   -0.0499    1.3080    2.4735 H   0  0  0  0  0  0  0  0  0  0  0  0
   -0.0658    3.4121    2.9172 C   0  0  0  0  0  0  0  0  0  0  0  0
    0.9662    3.5553    2.6011 H   0  0  0  0  0  0  0  0  0  0  0  0
   -0.6484    4.2915    2.6476 H   0  0  0  0  0  0  0  0  0  0  0  0
   -0.0966    3.2563    4.3760 N   0  0  0  0  0  0  0  0  0  0  0  0
    0.3052    4.0771    4.8047 H   0  0  0  0  0  0  0  0  0  0  0  0
   -1.0551    3.1551    4.6783 H   0  0  0  0  0  0  0  0  0  0  0  0
   -0.5564    0.0727    2.1744 C   0  0  0  0  0  0  0  0  0  0  0  0
    0.6169   -0.1288    2.4805 O   0  0  0  0  0  0  0  0  0  0  0  0
   -1.4759    0.4743    3.0595 N   0  0  0  0  0  0  0  0  0  0  0  0
   -2.4132    0.6318    2.7275 H   0  0  0  0  0  0  0  0  0  0  0  0
   -1.1971    0.7118    4.4750 C   0  0  0  0  0  0  0  0  0  0  0  0
   -0.3779    1.4272    4.5748 H   0  0  0  0  0  0  0  0  0  0  0  0
   -2.0826    1.1064    4.9754 H   0  0  0  0  0  0  0  0  0  0  0  0
   -0.8992   -0.2240    4.9525 H   0  0  0  0  0  0  0  0  0  0  0  0
  5  6  2  0  0  0  0
  5  7  1  0  0  0  0
  2  3  1  0  0  0  0
  2  4  1  0  0  0  0
  2  5  1  0  0  0  0
  1  2  1  0  0  0  0
 26 27  2  0  0  0  0
 26 28  1  0  0  0  0
 23 24  1  0  0  0  0
 23 25  1  0  0  0  0
 20 21  1  0  0  0  0
 20 22  1  0  0  0  0
 20 23  1  0  0  0  0
 17 18  1  0  0  0  0
 17 19  1  0  0  0  0
 17 20  1  0  0  0  0
 14 15  1  0  0  0  0
 14 16  1  0  0  0  0
 14 17  1  0  0  0  0
 11 12  1  0  0  0  0
 11 13  1  0  0  0  0
 11 14  1  0  0  0  0
  9 10  1  0  0  0  0
  9 11  1  0  0  0  0
  9 26  1  0  0  0  0
  7  8  1  0  0  0  0
  7  9  1  0  0  0  0
 30 31  1  0  0  0  0
 30 32  1  0  0  0  0
 30 33  1  0  0  0  0
 28 29  1  0  0  0  0
 28 30  1  0  0  0  0
M  END
$$$$
default_name
  -OEChem-02102213163D

 33 32  0     1  0  0  0  0  0999 V2000
   -3.8420   -3.6918    1.5562 H   0  0  0  0  0  0  0  0  0  0  0  0
   -3.8430   -2.7008    1.1032 C   0  0  0  0  0  0  0  0  0  0  0  0
   -4.5510   -2.0608    1.6242 H   0  0  0  0  0  0  0  0  0  0  0  0
   -4.1140   -2.7798    0.0522 H   0  0  0  0  0  0  0  0  0  0  0  0
   -2.4570   -2.1098    1.2172 C   0  0  0  0  0  0  0  0  0  0  0  0
   -1.5600   -2.7438    1.7572 O   0  0  0  0  0  0  0  0  0  0  0  0
   -2.2870   -0.8898    0.7102 N   0  0  0  0  0  0  0  0  0  0  0  0
   -3.0820   -0.4218    0.2992 H   0  0  0  0  0  0  0  0  0  0  0  0
   -1.0240   -0.1468    0.7262 C   0  0  1  0  0  0  0  0  0  0  0  0
   -0.2680   -0.7367    0.2062 H   0  0  0  0  0  0  0  0  0  0  0  0
   -1.2212    1.1806   -0.0314 C   0  0  0  0  0  0  0  0  0  0  0  0
   -0.7398    1.0976   -1.0080 H   0  0  0  0  0  0  0  0  0  0  0  0
   -2.2872    1.3491   -0.1904 H   0  0  0  0  0  0  0  0  0  0  0  0
   -0.6201    2.3923    0.6980 C   0  0  0  0  0  0  0  0  0  0  0  0
    0.3004    2.6991    0.2008 H   0  0  0  0  0  0  0  0  0  0  0  0
   -1.3335    3.2179    0.6705 H   0  0  0  0  0  0  0  0  0  0  0  0
   -0.3017    2.0497    2.1578 C   0  0  0  0  0  0  0  0  0  0  0  0
   -1.2124    1.7330    2.6670 H   0  0  0  0  0  0  0  0  0  0  0  0
    0.4290    1.2410    2.1903 H   0  0  0  0  0  0  0  0  0  0  0  0
    0.2705    3.2765    2.8652 C   0  0  0  0  0  0  0  0  0  0  0  0
    1.1901    3.5835    2.3697 H   0  0  0  0  0  0  0  0  0  0  0  0
   -0.4508    4.0908    2.8182 H   0  0  0  0  0  0  0  0  0  0  0  0
    0.5651    2.9896    4.2739 N   0  0  0  0  0  0  0  0  0  0  0  0
    0.9533    3.8155    4.7054 H   0  0  0  0  0  0  0  0  0  0  0  0
   -0.2908    2.7351    4.7462 H   0  0  0  0  0  0  0  0  0  0  0  0
   -0.5564    0.0727    2.1744 C   0  0  0  0  0  0  0  0  0  0  0  0
    0.6169   -0.1288    2.4805 O   0  0  0  0  0  0  0  0  0  0  0  0
   -1.4759    0.4743    3.0595 N   0  0  0  0  0  0  0  0  0  0  0  0
   -2.4132    0.6318    2.7275 H   0  0  0  0  0  0  0  0  0  0  0  0
   -1.1971    0.7118    4.4750 C   0  0  0  0  0  0  0  0  0  0  0  0
   -0.3779    1.4272    4.5748 H   0  0  0  0  0  0  0  0  0  0  0  0
   -2.0826    1.1064    4.9754 H   0  0  0  0  0  0  0  0  0  0  0  0
   -0.8992   -0.2240    4.9525 H   0  0  0  0  0  0  0  0  0  0  0  0
  5  6  2  0  0  0  0
  5  7  1  0  0  0  0
  2  3  1  0  0  0  0
  2  4  1  0  0  0  0
  2  5  1  0  0  0  0
  1  2  1  0  0  0  0
 26 27  2  0  0  0  0
 26 28  1  0  0  0  0
 23 24  1  0  0  0  0
 23 25  1  0  0  0  0
 20 21  1  0  0  0  0
 20 22  1  0  0  0  0
 20 23  1  0  0  0  0
 17 18  1  0  0  0  0
 17 19  1  0  0  0  0
 17 20  1  0  0  0  0
 14 15  1  0  0  0  0
 14 16  1  0  0  0  0
 14 17  1  0  0  0  0
 11 12  1  0  0  0  0
 11 13  1  0  0  0  0
 11 14  1  0  0  0  0
  9 10  1  0  0  0  0
  9 11  1  0  0  0  0
  9 26  1  0  0  0  0
  7  8  1  0  0  0  0
  7  9  1  0  0  0  0
 30 31  1  0  0  0  0
 30 32  1  0  0  0  0
 30 33  1  0  0  0  0
 28 29  1  0  0  0  0
 28 30  1  0  0  0  0
M  END
$$$$
default_name
  -OEChem-02102213163D

 33 32  0     1  0  0  0  0  0999 V2000
   -3.8420   -3.6918    1.5562 H   0  0  0  0  0  0  0  0  0  0  0  0
   -3.8430   -2.7008    1.1032 C   0  0  0  0  0  0  0  0  0  0  0  0
   -4.5510   -2.0608    1.6242 H   0  0  0  0  0  0  0  0  0  0  0  0
   -4.1140   -2.7798    0.0522 H   0  0  0  0  0  0  0  0  0  0  0  0
   -2.4570   -2.1098    1.2172 C   0  0  0  0  0  0  0  0  0  0  0  0
   -1.5600   -2.7438    1.7572 O   0  0  0  0  0  0  0  0  0  0  0  0
   -2.2870   -0.8898    0.7102 N   0  0  0  0  0  0  0  0  0  0  0  0
   -3.0820   -0.4218    0.2992 H   0  0  0  0  0  0  0  0  0  0  0  0
   -1.0240   -0.1468    0.7262 C   0  0  1  0  0  0  0  0  0  0  0  0
   -0.2680   -0.7367    0.2062 H   0  0  0  0  0  0  0  0  0  0  0  0
   -1.2212    1.1806   -0.0314 C   0  0  0  0  0  0  0  0  0  0  0  0
   -0.7398    1.0976   -1.0080 H   0  0  0  0  0  0  0  0  0  0  0  0
   -2.2872    1.3491   -0.1904 H   0  0  0  0  0  0  0  0  0  0  0  0
   -0.6201    2.3923    0.6980 C   0  0  0  0  0  0  0  0  0  0  0  0
    0.1348    2.8619    0.0669 H   0  0  0  0  0  0  0  0  0  0  0  0
   -1.4115    3.1146    0.9065 H   0  0  0  0  0  0  0  0  0  0  0  0
    0.0348    1.9674    2.0172 C   0  0  0  0  0  0  0  0  0  0  0  0
   -0.7070    1.4883    2.6570 H   0  0  0  0  0  0  0  0  0  0  0  0
    0.8421    1.2637    1.8122 H   0  0  0  0  0  0  0  0  0  0  0  0
    0.6014    3.1922    2.7327 C   0  0  0  0  0  0  0  0  0  0  0  0
    1.3558    3.6616    2.1034 H   0  0  0  0  0  0  0  0  0  0  0  0
   -0.2004    3.9039    2.9224 H   0  0  0  0  0  0  0  0  0  0  0  0
    1.2161    2.8236    4.0132 N   0  0  0  0  0  0  0  0  0  0  0  0
    1.5911    3.6524    4.4507 H   0  0  0  0  0  0  0  0  0  0  0  0
    0.5129    2.4164    4.6132 H   0  0  0  0  0  0  0  0  0  0  0  0
   -0.5564    0.0727    2.1744 C   0  0  0  0  0  0  0  0  0  0  0  0
    0.6169   -0.1288    2.4805 O   0  0  0  0  0  0  0  0  0  0  0  0
   -1.4759    0.4743    3.0595 N   0  0  0  0  0  0  0  0  0  0  0  0
   -2.4132    0.6318    2.7275 H   0  0  0  0  0  0  0  0  0  0  0  0
   -1.1971    0.7118    4.4750 C   0  0  0  0  0  0  0  0  0  0  0  0
   -0.3779    1.4272    4.5748 H   0  0  0  0  0  0  0  0  0  0  0  0
   -2.0826    1.1064    4.9754 H   0  0  0  0  0  0  0  0  0  0  0  0
   -0.8992   -0.2240    4.9525 H   0  0  0  0  0  0  0  0  0  0  0  0
  5  6  2  0  0  0  0
  5  7  1  0  0  0  0
  2  3  1  0  0  0  0
  2  4  1  0  0  0  0
  2  5  1  0  0  0  0
  1  2  1  0  0  0  0
 26 27  2  0  0  0  0
 26 28  1  0  0  0  0
 23 24  1  0  0  0  0
 23 25  1  0  0  0  0
 20 21  1  0  0  0  0
 20 22  1  0  0  0  0
 20 23  1  0  0  0  0
 17 18  1  0  0  0  0
 17 19  1  0  0  0  0
 17 20  1  0  0  0  0
 14 15  1  0  0  0  0
 14 16  1  0  0  0  0
 14 17  1  0  0  0  0
 11 12  1  0  0  0  0
 11 13  1  0  0  0  0
 11 14  1  0  0  0  0
  9 10  1  0  0  0  0
  9 11  1  0  0  0  0
  9 26  1  0  0  0  0
  7  8  1  0  0  0  0
  7  9  1  0  0  0  0
 30 31  1  0  0  0  0
 30 32  1  0  0  0  0
 30 33  1  0  0  0  0
 28 29  1  0  0  0  0
 28 30  1  0  0  0  0
M  END
$$$$
default_name
  -OEChem-02102213163D

 33 32  0     1  0  0  0  0  0999 V2000
   -3.8420   -3.6918    1.5562 H   0  0  0  0  0  0  0  0  0  0  0  0
   -3.8430   -2.7008    1.1032 C   0  0  0  0  0  0  0  0  0  0  0  0
   -4.5510   -2.0608    1.6242 H   0  0  0  0  0  0  0  0  0  0  0  0
   -4.1140   -2.7798    0.0522 H   0  0  0  0  0  0  0  0  0  0  0  0
   -2.4570   -2.1098    1.2172 C   0  0  0  0  0  0  0  0  0  0  0  0
   -1.5600   -2.7438    1.7572 O   0  0  0  0  0  0  0  0  0  0  0  0
   -2.2870   -0.8898    0.7102 N   0  0  0  0  0  0  0  0  0  0  0  0
   -3.0820   -0.4218    0.2992 H   0  0  0  0  0  0  0  0  0  0  0  0
   -1.0240   -0.1468    0.7262 C   0  0  1  0  0  0  0  0  0  0  0  0
   -0.2680   -0.7367    0.2062 H   0  0  0  0  0  0  0  0  0  0  0  0
   -1.2212    1.1806   -0.0314 C   0  0  0  0  0  0  0  0  0  0  0  0
   -0.7398    1.0976   -1.0080 H   0  0  0  0  0  0  0  0  0  0  0  0
   -2.2872    1.3491   -0.1904 H   0  0  0  0  0  0  0  0  0  0  0  0
   -0.6201    2.3923    0.6980 C   0  0  0  0  0  0  0  0  0  0  0  0
   -0.0726    3.0124   -0.0122 H   0  0  0  0  0  0  0  0  0  0  0  0
   -1.4259    2.9813    1.1398 H   0  0  0  0  0  0  0  0  0  0  0  0
    0.3412    1.9435    1.8044 C   0  0  0  0  0  0  0  0  0  0  0  0
   -0.1907    1.3150    2.5194 H   0  0  0  0  0  0  0  0  0  0  0  0
    1.1611    1.3747    1.3650 H   0  0  0  0  0  0  0  0  0  0  0  0
    0.9044    3.1647    2.5286 C   0  0  0  0  0  0  0  0  0  0  0  0
    1.4518    3.7844    1.8202 H   0  0  0  0  0  0  0  0  0  0  0  0
    0.0857    3.7436    2.9529 H   0  0  0  0  0  0  0  0  0  0  0  0
    1.8122    2.7696    3.6117 N   0  0  0  0  0  0  0  0  0  0  0  0
    2.1753    3.5990    4.0580 H   0  0  0  0  0  0  0  0  0  0  0  0
    1.3013    2.2208    4.2886 H   0  0  0  0  0  0  0  0  0  0  0  0
   -0.5564    0.0727    2.1744 C   0  0  0  0  0  0  0  0  0  0  0  0
    0.6169   -0.1288    2.4805 O   0  0  0  0  0  0  0  0  0  0  0  0
   -1.4759    0.4743    3.0595 N   0  0  0  0  0  0  0  0  0  0  0  0
   -2.4132    0.6318    2.7275 H   0  0  0  0  0  0  0  0  0  0  0  0
   -1.1971    0.7118    4.4750 C   0  0  0  0  0  0  0  0  0  0  0  0
   -0.3779    1.4272    4.5748 H   0  0  0  0  0  0  0  0  0  0  0  0
   -2.0826    1.1064    4.9754 H   0  0  0  0  0  0  0  0  0  0  0  0
   -0.8992   -0.2240    4.9525 H   0  0  0  0  0  0  0  0  0  0  0  0
  5  6  2  0  0  0  0
  5  7  1  0  0  0  0
  2  3  1  0  0  0  0
  2  4  1  0  0  0  0
  2  5  1  0  0  0  0
  1  2  1  0  0  0  0
 26 27  2  0  0  0  0
 26 28  1  0  0  0  0
 23 24  1  0  0  0  0
 23 25  1  0  0  0  0
 20 21  1  0  0  0  0
 20 22  1  0  0  0  0
 20 23  1  0  0  0  0
 17 18  1  0  0  0  0
 17 19  1  0  0  0  0
 17 20  1  0  0  0  0
 14 15  1  0  0  0  0
 14 16  1  0  0  0  0
 14 17  1  0  0  0  0
 11 12  1  0  0  0  0
 11 13  1  0  0  0  0
 11 14  1  0  0  0  0
  9 10  1  0  0  0  0
  9 11  1  0  0  0  0
  9 26  1  0  0  0  0
  7  8  1  0  0  0  0
  7  9  1  0  0  0  0
 30 31  1  0  0  0  0
 30 32  1  0  0  0  0
 30 33  1  0  0  0  0
 28 29  1  0  0  0  0
 28 30  1  0  0  0  0
M  END
$$$$
default_name
  -OEChem-02102213163D

 33 32  0     1  0  0  0  0  0999 V2000
   -3.8420   -3.6918    1.5562 H   0  0  0  0  0  0  0  0  0  0  0  0
   -3.8430   -2.7008    1.1032 C   0  0  0  0  0  0  0  0  0  0  0  0
   -4.5510   -2.0608    1.6242 H   0  0  0  0  0  0  0  0  0  0  0  0
   -4.1140   -2.7798    0.0522 H   0  0  0  0  0  0  0  0  0  0  0  0
   -2.4570   -2.1098    1.2172 C   0  0  0  0  0  0  0  0  0  0  0  0
   -1.5600   -2.7438    1.7572 O   0  0  0  0  0  0  0  0  0  0  0  0
   -2.2870   -0.8898    0.7102 N   0  0  0  0  0  0  0  0  0  0  0  0
   -3.0820   -0.4218    0.2992 H   0  0  0  0  0  0  0  0  0  0  0  0
   -1.0240   -0.1468    0.7262 C   0  0  1  0  0  0  0  0  0  0  0  0
   -0.2680   -0.7367    0.2062 H   0  0  0  0  0  0  0  0  0  0  0  0
   -1.2212    1.1806   -0.0314 C   0  0  0  0  0  0  0  0  0  0  0  0
   -0.7398    1.0976   -1.0080 H   0  0  0  0  0  0  0  0  0  0  0  0
   -2.2872    1.3491   -0.1904 H   0  0  0  0  0  0  0  0  0  0  0  0
   -0.6201    2.3923    0.6980 C   0  0  0  0  0  0  0  0  0  0  0  0
   -0.3075    3.1403   -0.0311 H   0  0  0  0  0  0  0  0  0  0  0  0
   -1.3759    2.8271    1.3546 H   0  0  0  0  0  0  0  0  0  0  0  0
    0.5966    1.9796    1.5340 C   0  0  0  0  0  0  0  0  0  0  0  0
    0.3011    1.2250    2.2636 H   0  0  0  0  0  0  0  0  0  0  0  0
    1.3644    1.5663    0.8792 H   0  0  0  0  0  0  0  0  0  0  0  0
    1.1588    3.1961    2.2669 C   0  0  0  0  0  0  0  0  0  0  0  0
    1.4718    3.9435    1.5396 H   0  0  0  0  0  0  0  0  0  0  0  0
    0.3879    3.6208    2.9079 H   0  0  0  0  0  0  0  0  0  0  0  0
    2.3126    2.8313    3.0968 N   0  0  0  0  0  0  0  0  0  0  0  0
    2.6660    3.6590    3.5541 H   0  0  0  0  0  0  0  0  0  0  0  0
    2.0205    2.1616    3.7943 H   0  0  0  0  0  0  0  0  0  0  0  0
   -0.5564    0.0727    2.1744 C   0  0  0  0  0  0  0  0  0  0  0  0
    0.6169   -0.1288    2.4805 O   0  0  0  0  0  0  0  0  0  0  0  0
   -1.4759    0.4743    3.0595 N   0  0  0  0  0  0  0  0  0  0  0  0
   -2.4132    0.6318    2.7275 H   0  0  0  0  0  0  0  0  0  0  0  0
   -1.1971    0.7118    4.4750 C   0  0  0  0  0  0  0  0  0  0  0  0
   -0.3779    1.4272    4.5748 H   0  0  0  0  0  0  0  0  0  0  0  0
   -2.0826    1.1064    4.9754 H   0  0  0  0  0  0  0  0  0  0  0  0
   -0.8992   -0.2240    4.9525 H   0  0  0  0  0  0  0  0  0  0  0  0
  5  6  2  0  0  0  0
  5  7  1  0  0  0  0
  2  3  1  0  0  0  0
  2  4  1  0  0  0  0
  2  5  1  0  0  0  0
  1  2  1  0  0  0  0
 26 27  2  0  0  0  0
 26 28  1  0  0  0  0
 23 24  1  0  0  0  0
 23 25  1  0  0  0  0
 20 21  1  0  0  0  0
 20 22  1  0  0  0  0
 20 23  1  0  0  0  0
 17 18  1  0  0  0  0
 17 19  1  0  0  0  0
 17 20  1  0  0  0  0
 14 15  1  0  0  0  0
 14 16  1  0  0  0  0
 14 17  1  0  0  0  0
 11 12  1  0  0  0  0
 11 13  1  0  0  0  0
 11 14  1  0  0  0  0
  9 10  1  0  0  0  0
  9 11  1  0  0  0  0
  9 26  1  0  0  0  0
  7  8  1  0  0  0  0
  7  9  1  0  0  0  0
 30 31  1  0  0  0  0
 30 32  1  0  0  0  0
 30 33  1  0  0  0  0
 28 29  1  0  0  0  0
 28 30  1  0  0  0  0
M  END
$$$$
default_name
  -OEChem-02102213163D

 33 32  0     1  0  0  0  0  0999 V2000
   -3.8420   -3.6918    1.5562 H   0  0  0  0  0  0  0  0  0  0  0  0
   -3.8430   -2.7008    1.1032 C   0  0  0  0  0  0  0  0  0  0  0  0
   -4.5510   -2.0608    1.6242 H   0  0  0  0  0  0  0  0  0  0  0  0
   -4.1140   -2.7798    0.0522 H   0  0  0  0  0  0  0  0  0  0  0  0
   -2.4570   -2.1098    1.2172 C   0  0  0  0  0  0  0  0  0  0  0  0
   -1.5600   -2.7438    1.7572 O   0  0  0  0  0  0  0  0  0  0  0  0
   -2.2870   -0.8898    0.7102 N   0  0  0  0  0  0  0  0  0  0  0  0
   -3.0820   -0.4218    0.2992 H   0  0  0  0  0  0  0  0  0  0  0  0
   -1.0240   -0.1468    0.7262 C   0  0  1  0  0  0  0  0  0  0  0  0
   -0.2680   -0.7367    0.2062 H   0  0  0  0  0  0  0  0  0  0  0  0
   -1.2212    1.1806   -0.0314 C   0  0  0  0  0  0  0  0  0  0  0  0
   -0.7398    1.0976   -1.0080 H   0  0  0  0  0  0  0  0  0  0  0  0
   -2.2872    1.3491   -0.1904 H   0  0  0  0  0  0  0  0  0  0  0  0
   -0.6201    2.3923    0.6980 C   0  0  0  0  0  0  0  0  0  0  0  0
   -0.5539    3.2369    0.0116 H   0  0  0  0  0  0  0  0  0  0  0  0
   -1.2648    2.6627    1.5363 H   0  0  0  0  0  0  0  0  0  0  0  0
    0.7838    2.0732    1.2243 C   0  0  0  0  0  0  0  0  0  0  0  0
    0.7351    1.2244    1.9071 H   0  0  0  0  0  0  0  0  0  0  0  0
    1.4380    1.8256    0.3878 H   0  0  0  0  0  0  0  0  0  0  0  0
    1.3472    3.2842    1.9653 C   0  0  0  0  0  0  0  0  0  0  0  0
    1.4142    4.1280    1.2805 H   0  0  0  0  0  0  0  0  0  0  0  0
    0.6858    3.5438    2.7902 H   0  0  0  0  0  0  0  0  0  0  0  0
    2.6834    3.0045    2.5036 N   0  0  0  0  0  0  0  0  0  0  0  0
    3.0297    3.8282    2.9732 H   0  0  0  0  0  0  0  0  0  0  0  0
    2.6217    2.2427    3.1641 H   0  0  0  0  0  0  0  0  0  0  0  0
   -0.5564    0.0727    2.1744 C   0  0  0  0  0  0  0  0  0  0  0  0
    0.6169   -0.1288    2.4805 O   0  0  0  0  0  0  0  0  0  0  0  0
   -1.4759    0.4743    3.0595 N   0  0  0  0  0  0  0  0  0  0  0  0
   -2.4132    0.6318    2.7275 H   0  0  0  0  0  0  0  0  0  0  0  0
   -1.1971    0.7118    4.4750 C   0  0  0  0  0  0  0  0  0  0  0  0
   -0.3779    1.4272    4.5748 H   0  0  0  0  0  0  0  0  0  0  0  0
   -2.0826    1.1064    4.9754 H   0  0  0  0  0  0  0  0  0  0  0  0
   -0.8992   -0.2240    4.9525 H   0  0  0  0  0  0  0  0  0  0  0  0
  5  6  2  0  0  0  0
  5  7  1  0  0  0  0
  2  3  1  0  0  0  0
  2  4  1  0  0  0  0
  2  5  1  0  0  0  0
  1  2  1  0  0  0  0
 26 27  2  0  0  0  0
 26 28  1  0  0  0  0
 23 24  1  0  0  0  0
 23 25  1  0  0  0  0
 20 21  1  0  0  0  0
 20 22  1  0  0  0  0
 20 23  1  0  0  0  0
 17 18  1  0  0  0  0
 17 19  1  0  0  0  0
 17 20  1  0  0  0  0
 14 15  1  0  0  0  0
 14 16  1  0  0  0  0
 14 17  1  0  0  0  0
 11 12  1  0  0  0  0
 11 13  1  0  0  0  0
 11 14  1  0  0  0  0
  9 10  1  0  0  0  0
  9 11  1  0  0  0  0
  9 26  1  0  0  0  0
  7  8  1  0  0  0  0
  7  9  1  0  0  0  0
 30 31  1  0  0  0  0
 30 32  1  0  0  0  0
 30 33  1  0  0  0  0
 28 29  1  0  0  0  0
 28 30  1  0  0  0  0
M  END
$$$$
default_name
  -OEChem-02102213163D

 33 32  0     1  0  0  0  0  0999 V2000
   -3.8420   -3.6918    1.5562 H   0  0  0  0  0  0  0  0  0  0  0  0
   -3.8430   -2.7008    1.1032 C   0  0  0  0  0  0  0  0  0  0  0  0
   -4.5510   -2.0608    1.6242 H   0  0  0  0  0  0  0  0  0  0  0  0
   -4.1140   -2.7798    0.0522 H   0  0  0  0  0  0  0  0  0  0  0  0
   -2.4570   -2.1098    1.2172 C   0  0  0  0  0  0  0  0  0  0  0  0
   -1.5600   -2.7438    1.7572 O   0  0  0  0  0  0  0  0  0  0  0  0
   -2.2870   -0.8898    0.7102 N   0  0  0  0  0  0  0  0  0  0  0  0
   -3.0820   -0.4218    0.2992 H   0  0  0  0  0  0  0  0  0  0  0  0
   -1.0240   -0.1468    0.7262 C   0  0  1  0  0  0  0  0  0  0  0  0
   -0.2680   -0.7367    0.2062 H   0  0  0  0  0  0  0  0  0  0  0  0
   -1.2212    1.1806   -0.0314 C   0  0  0  0  0  0  0  0  0  0  0  0
   -0.7398    1.0976   -1.0080 H   0  0  0  0  0  0  0  0  0  0  0  0
   -2.2872    1.3491   -0.1904 H   0  0  0  0  0  0  0  0  0  0  0  0
   -0.6201    2.3923    0.6980 C   0  0  0  0  0  0  0  0  0  0  0  0
   -0.7951    3.2955    0.1129 H   0  0  0  0  0  0  0  0  0  0  0  0
   -1.1002    2.4990    1.6725 H   0  0  0  0  0  0  0  0  0  0  0  0
    0.8898    2.2180    0.8964 C   0  0  0  0  0  0  0  0  0  0  0  0
    1.0816    1.3132    1.4740 H   0  0  0  0  0  0  0  0  0  0  0  0
    1.3770    2.1348   -0.0756 H   0  0  0  0  0  0  0  0  0  0  0  0
    1.4569    3.4229    1.6445 C   0  0  0  0  0  0  0  0  0  0  0  0
    1.2830    4.3254    1.0607 H   0  0  0  0  0  0  0  0  0  0  0  0
    0.9589    3.5180    2.6080 H   0  0  0  0  0  0  0  0  0  0  0  0
    2.8992    3.2774    1.8725 N   0  0  0  0  0  0  0  0  0  0  0  0
    3.2418    4.0951    2.3551 H   0  0  0  0  0  0  0  0  0  0  0  0
    3.0638    2.4588    2.4409 H   0  0  0  0  0  0  0  0  0  0  0  0
   -0.5564    0.0727    2.1744 C   0  0  0  0  0  0  0  0  0  0  0  0
    0.6169   -0.1288    2.4805 O   0  0  0  0  0  0  0  0  0  0  0  0
   -1.4759    0.4743    3.0595 N   0  0  0  0  0  0  0  0  0  0  0  0
   -2.4132    0.6318    2.7275 H   0  0  0  0  0  0  0  0  0  0  0  0
   -1.1971    0.7118    4.4750 C   0  0  0  0  0  0  0  0  0  0  0  0
   -0.3779    1.4272    4.5748 H   0  0  0  0  0  0  0  0  0  0  0  0
   -2.0826    1.1064    4.9754 H   0  0  0  0  0  0  0  0  0  0  0  0
   -0.8992   -0.2240    4.9525 H   0  0  0  0  0  0  0  0  0  0  0  0
  5  6  2  0  0  0  0
  5  7  1  0  0  0  0
  2  3  1  0  0  0  0
  2  4  1  0  0  0  0
  2  5  1  0  0  0  0
  1  2  1  0  0  0  0
 26 27  2  0  0  0  0
 26 28  1  0  0  0  0
 23 24  1  0  0  0  0
 23 25  1  0  0  0  0
 20 21  1  0  0  0  0
 20 22  1  0  0  0  0
 20 23  1  0  0  0  0
 17 18  1  0  0  0  0
 17 19  1  0  0  0  0
 17 20  1  0  0  0  0
 14 15  1  0  0  0  0
 14 16  1  0  0  0  0
 14 17  1  0  0  0  0
 11 12  1  0  0  0  0
 11 13  1  0  0  0  0
 11 14  1  0  0  0  0
  9 10  1  0  0  0  0
  9 11  1  0  0  0  0
  9 26  1  0  0  0  0
  7  8  1  0  0  0  0
  7  9  1  0  0  0  0
 30 31  1  0  0  0  0
 30 32  1  0  0  0  0
 30 33  1  0  0  0  0
 28 29  1  0  0  0  0
 28 30  1  0  0  0  0
M  END
$$$$
default_name
  -OEChem-02102213163D

 33 32  0     1  0  0  0  0  0999 V2000
   -3.8420   -3.6918    1.5562 H   0  0  0  0  0  0  0  0  0  0  0  0
   -3.8430   -2.7008    1.1032 C   0  0  0  0  0  0  0  0  0  0  0  0
   -4.5510   -2.0608    1.6242 H   0  0  0  0  0  0  0  0  0  0  0  0
   -4.1140   -2.7798    0.0522 H   0  0  0  0  0  0  0  0  0  0  0  0
   -2.4570   -2.1098    1.2172 C   0  0  0  0  0  0  0  0  0  0  0  0
   -1.5600   -2.7438    1.7572 O   0  0  0  0  0  0  0  0  0  0  0  0
   -2.2870   -0.8898    0.7102 N   0  0  0  0  0  0  0  0  0  0  0  0
   -3.0820   -0.4218    0.2992 H   0  0  0  0  0  0  0  0  0  0  0  0
   -1.0240   -0.1468    0.7262 C   0  0  1  0  0  0  0  0  0  0  0  0
   -0.2680   -0.7367    0.2062 H   0  0  0  0  0  0  0  0  0  0  0  0
   -1.2212    1.1806   -0.0314 C   0  0  0  0  0  0  0  0  0  0  0  0
   -0.7398    1.0976   -1.0080 H   0  0  0  0  0  0  0  0  0  0  0  0
   -2.2872    1.3491   -0.1904 H   0  0  0  0  0  0  0  0  0  0  0  0
   -0.6201    2.3923    0.6980 C   0  0  0  0  0  0  0  0  0  0  0  0
   -1.0147    3.3123    0.2659 H   0  0  0  0  0  0  0  0  0  0  0  0
   -0.8933    2.3474    1.7539 H   0  0  0  0  0  0  0  0  0  0  0  0
    0.9076    2.4040    0.5727 C   0  0  0  0  0  0  0  0  0  0  0  0
    1.3169    1.4854    0.9941 H   0  0  0  0  0  0  0  0  0  0  0  0
    1.1855    2.4729   -0.4794 H   0  0  0  0  0  0  0  0  0  0  0  0
    1.4803    3.6029    1.3263 C   0  0  0  0  0  0  0  0  0  0  0  0
    1.0872    4.5222    0.8951 H   0  0  0  0  0  0  0  0  0  0  0  0
    1.1887    3.5451    2.3737 H   0  0  0  0  0  0  0  0  0  0  0  0
    2.9452    3.6314    1.2464 N   0  0  0  0  0  0  0  0  0  0  0  0
    3.2877    4.4416    1.7418 H   0  0  0  0  0  0  0  0  0  0  0  0
    3.3167    2.7950    1.6740 H   0  0  0  0  0  0  0  0  0  0  0  0
   -0.5564    0.0727    2.1744 C   0  0  0  0  0  0  0  0  0  0  0  0
    0.6169   -0.1288    2.4805 O   0  0  0  0  0  0  0  0  0  0  0  0
   -1.4759    0.4743    3.0595 N   0  0  0  0  0  0  0  0  0  0  0  0
   -2.4132    0.6318    2.7275 H   0  0  0  0  0  0  0  0  0  0  0  0
   -1.1971    0.7118    4.4750 C   0  0  0  0  0  0  0  0  0  0  0  0
   -0.3779    1.4272    4.5748 H   0  0  0  0  0  0  0  0  0  0  0  0
   -2.0826    1.1064    4.9754 H   0  0  0  0  0  0  0  0  0  0  0  0
   -0.8992   -0.2240    4.9525 H   0  0  0  0  0  0  0  0  0  0  0  0
  5  6  2  0  0  0  0
  5  7  1  0  0  0  0
  2  3  1  0  0  0  0
  2  4  1  0  0  0  0
  2  5  1  0  0  0  0
  1  2  1  0  0  0  0
 26 27  2  0  0  0  0
 26 28  1  0  0  0  0
 23 24  1  0  0  0  0
 23 25  1  0  0  0  0
 20 21  1  0  0  0  0
 20 22  1  0  0  0  0
 20 23  1  0  0  0  0
 17 18  1  0  0  0  0
 17 19  1  0  0  0  0
 17 20  1  0  0  0  0
 14 15  1  0  0  0  0
 14 16  1  0  0  0  0
 14 17  1  0  0  0  0
 11 12  1  0  0  0  0
 11 13  1  0  0  0  0
 11 14  1  0  0  0  0
  9 10  1  0  0  0  0
  9 11  1  0  0  0  0
  9 26  1  0  0  0  0
  7  8  1  0  0  0  0
  7  9  1  0  0  0  0
 30 31  1  0  0  0  0
 30 32  1  0  0  0  0
 30 33  1  0  0  0  0
 28 29  1  0  0  0  0
 28 30  1  0  0  0  0
M  END
$$$$
default_name
  -OEChem-02102213163D

 33 32  0     1  0  0  0  0  0999 V2000
   -3.8420   -3.6918    1.5562 H   0  0  0  0  0  0  0  0  0  0  0  0
   -3.8430   -2.7008    1.1032 C   0  0  0  0  0  0  0  0  0  0  0  0
   -4.5510   -2.0608    1.6242 H   0  0  0  0  0  0  0  0  0  0  0  0
   -4.1140   -2.7798    0.0522 H   0  0  0  0  0  0  0  0  0  0  0  0
   -2.4570   -2.1098    1.2172 C   0  0  0  0  0  0  0  0  0  0  0  0
   -1.5600   -2.7438    1.7572 O   0  0  0  0  0  0  0  0  0  0  0  0
   -2.2870   -0.8898    0.7102 N   0  0  0  0  0  0  0  0  0  0  0  0
   -3.0820   -0.4218    0.2992 H   0  0  0  0  0  0  0  0  0  0  0  0
   -1.0240   -0.1468    0.7262 C   0  0  1  0  0  0  0  0  0  0  0  0
   -0.2680   -0.7367    0.2062 H   0  0  0  0  0  0  0  0  0  0  0  0
   -1.2212    1.1806   -0.0314 C   0  0  0  0  0  0  0  0  0  0  0  0
   -0.7398    1.0976   -1.0080 H   0  0  0  0  0  0  0  0  0  0  0  0
   -2.2872    1.3491   -0.1904 H   0  0  0  0  0  0  0  0  0  0  0  0
   -0.6201    2.3923    0.6980 C   0  0  0  0  0  0  0  0  0  0  0  0
   -1.1976    3.2861    0.4602 H   0  0  0  0  0  0  0  0  0  0  0  0
   -0.6582    2.2181    1.7749 H   0  0  0  0  0  0  0  0  0  0  0  0
    0.8358    2.6187    0.2752 C   0  0  0  0  0  0  0  0  0  0  0  0
    1.4252    1.7292    0.4998 H   0  0  0  0  0  0  0  0  0  0  0  0
    0.8766    2.8169   -0.7962 H   0  0  0  0  0  0  0  0  0  0  0  0
    1.4158    3.8118    1.0323 C   0  0  0  0  0  0  0  0  0  0  0  0
    0.8401    4.7050    0.7951 H   0  0  0  0  0  0  0  0  0  0  0  0
    1.3596    3.6232    2.1031 H   0  0  0  0  0  0  0  0  0  0  0  0
    2.8185    4.0424    0.6682 N   0  0  0  0  0  0  0  0  0  0  0  0
    3.1643    4.8440    1.1750 H   0  0  0  0  0  0  0  0  0  0  0  0
    3.3632    3.2285    0.9156 H   0  0  0  0  0  0  0  0  0  0  0  0
   -0.5564    0.0727    2.1744 C   0  0  0  0  0  0  0  0  0  0  0  0
    0.6169   -0.1288    2.4805 O   0  0  0  0  0  0  0  0  0  0  0  0
   -1.4759    0.4743    3.0595 N   0  0  0  0  0  0  0  0  0  0  0  0
   -2.4132    0.6318    2.7275 H   0  0  0  0  0  0  0  0  0  0  0  0
   -1.1971    0.7118    4.4750 C   0  0  0  0  0  0  0  0  0  0  0  0
   -0.3779    1.4272    4.5748 H   0  0  0  0  0  0  0  0  0  0  0  0
   -2.0826    1.1064    4.9754 H   0  0  0  0  0  0  0  0  0  0  0  0
   -0.8992   -0.2240    4.9525 H   0  0  0  0  0  0  0  0  0  0  0  0
  5  6  2  0  0  0  0
  5  7  1  0  0  0  0
  2  3  1  0  0  0  0
  2  4  1  0  0  0  0
  2  5  1  0  0  0  0
  1  2  1  0  0  0  0
 26 27  2  0  0  0  0
 26 28  1  0  0  0  0
 23 24  1  0  0  0  0
 23 25  1  0  0  0  0
 20 21  1  0  0  0  0
 20 22  1  0  0  0  0
 20 23  1  0  0  0  0
 17 18  1  0  0  0  0
 17 19  1  0  0  0  0
 17 20  1  0  0  0  0
 14 15  1  0  0  0  0
 14 16  1  0  0  0  0
 14 17  1  0  0  0  0
 11 12  1  0  0  0  0
 11 13  1  0  0  0  0
 11 14  1  0  0  0  0
  9 10  1  0  0  0  0
  9 11  1  0  0  0  0
  9 26  1  0  0  0  0
  7  8  1  0  0  0  0
  7  9  1  0  0  0  0
 30 31  1  0  0  0  0
 30 32  1  0  0  0  0
 30 33  1  0  0  0  0
 28 29  1  0  0  0  0
 28 30  1  0  0  0  0
M  END
$$$$
default_name
  -OEChem-02102213163D

 33 32  0     1  0  0  0  0  0999 V2000
   -3.8420   -3.6918    1.5562 H   0  0  0  0  0  0  0  0  0  0  0  0
   -3.8430   -2.7008    1.1032 C   0  0  0  0  0  0  0  0  0  0  0  0
   -4.5510   -2.0608    1.6242 H   0  0  0  0  0  0  0  0  0  0  0  0
   -4.1140   -2.7798    0.0522 H   0  0  0  0  0  0  0  0  0  0  0  0
   -2.4570   -2.1098    1.2172 C   0  0  0  0  0  0  0  0  0  0  0  0
   -1.5600   -2.7438    1.7572 O   0  0  0  0  0  0  0  0  0  0  0  0
   -2.2870   -0.8898    0.7102 N   0  0  0  0  0  0  0  0  0  0  0  0
   -3.0820   -0.4218    0.2992 H   0  0  0  0  0  0  0  0  0  0  0  0
   -1.0240   -0.1468    0.7262 C   0  0  1  0  0  0  0  0  0  0  0  0
   -0.2680   -0.7367    0.2062 H   0  0  0  0  0  0  0  0  0  0  0  0
   -1.2212    1.1806   -0.0314 C   0  0  0  0  0  0  0  0  0  0  0  0
   -0.7398    1.0976   -1.0080 H   0  0  0  0  0  0  0  0  0  0  0  0
   -2.2872    1.3491   -0.1904 H   0  0  0  0  0  0  0  0  0  0  0  0
   -0.6201    2.3923    0.6980 C   0  0  0  0  0  0  0  0  0  0  0  0
   -1.3313    3.2186    0.6825 H   0  0  0  0  0  0  0  0  0  0  0  0
   -0.4110    2.1200    1.7341 H   0  0  0  0  0  0  0  0  0  0  0  0
    0.6794    2.8474    0.0243 C   0  0  0  0  0  0  0  0  0  0  0  0
    1.3990    2.0281    0.0250 H   0  0  0  0  0  0  0  0  0  0  0  0
    0.4713    3.1432   -1.0044 H   0  0  0  0  0  0  0  0  0  0  0  0
    1.2679    4.0355    0.7827 C   0  0  0  0  0  0  0  0  0  0  0  0
    0.5586    4.8614    0.7674 H   0  0  0  0  0  0  0  0  0  0  0  0
    1.4598    3.7471    1.8149 H   0  0  0  0  0  0  0  0  0  0  0  0
    2.5276    4.4824    0.1770 N   0  0  0  0  0  0  0  0  0  0  0  0
    2.8800    5.2749    0.6936 H   0  0  0  0  0  0  0  0  0  0  0  0
    3.2001    3.7297    0.2175 H   0  0  0  0  0  0  0  0  0  0  0  0
   -0.5564    0.0727    2.1744 C   0  0  0  0  0  0  0  0  0  0  0  0
    0.6169   -0.1288    2.4805 O   0  0  0  0  0  0  0  0  0  0  0  0
   -1.4759    0.4743    3.0595 N   0  0  0  0  0  0  0  0  0  0  0  0
   -2.4132    0.6318    2.7275 H   0  0  0  0  0  0  0  0  0  0  0  0
   -1.1971    0.7118    4.4750 C   0  0  0  0  0  0  0  0  0  0  0  0
   -0.3779    1.4272    4.5748 H   0  0  0  0  0  0  0  0  0  0  0  0
   -2.0826    1.1064    4.9754 H   0  0  0  0  0  0  0  0  0  0  0  0
   -0.8992   -0.2240    4.9525 H   0  0  0  0  0  0  0  0  0  0  0  0
  5  6  2  0  0  0  0
  5  7  1  0  0  0  0
  2  3  1  0  0  0  0
  2  4  1  0  0  0  0
  2  5  1  0  0  0  0
  1  2  1  0  0  0  0
 26 27  2  0  0  0  0
 26 28  1  0  0  0  0
 23 24  1  0  0  0  0
 23 25  1  0  0  0  0
 20 21  1  0  0  0  0
 20 22  1  0  0  0  0
 20 23  1  0  0  0  0
 17 18  1  0  0  0  0
 17 19  1  0  0  0  0
 17 20  1  0  0  0  0
 14 15  1  0  0  0  0
 14 16  1  0  0  0  0
 14 17  1  0  0  0  0
 11 12  1  0  0  0  0
 11 13  1  0  0  0  0
 11 14  1  0  0  0  0
  9 10  1  0  0  0  0
  9 11  1  0  0  0  0
  9 26  1  0  0  0  0
  7  8  1  0  0  0  0
  7  9  1  0  0  0  0
 30 31  1  0  0  0  0
 30 32  1  0  0  0  0
 30 33  1  0  0  0  0
 28 29  1  0  0  0  0
 28 30  1  0  0  0  0
M  END
$$$$
default_name
  -OEChem-02102213163D

 33 32  0     1  0  0  0  0  0999 V2000
   -3.8420   -3.6918    1.5562 H   0  0  0  0  0  0  0  0  0  0  0  0
   -3.8430   -2.7008    1.1032 C   0  0  0  0  0  0  0  0  0  0  0  0
   -4.5510   -2.0608    1.6242 H   0  0  0  0  0  0  0  0  0  0  0  0
   -4.1140   -2.7798    0.0522 H   0  0  0  0  0  0  0  0  0  0  0  0
   -2.4570   -2.1098    1.2172 C   0  0  0  0  0  0  0  0  0  0  0  0
   -1.5600   -2.7438    1.7572 O   0  0  0  0  0  0  0  0  0  0  0  0
   -2.2870   -0.8898    0.7102 N   0  0  0  0  0  0  0  0  0  0  0  0
   -3.0820   -0.4218    0.2992 H   0  0  0  0  0  0  0  0  0  0  0  0
   -1.0240   -0.1468    0.7262 C   0  0  1  0  0  0  0  0  0  0  0  0
   -0.2680   -0.7367    0.2062 H   0  0  0  0  0  0  0  0  0  0  0  0
   -1.2212    1.1806   -0.0314 C   0  0  0  0  0  0  0  0  0  0  0  0
   -0.7398    1.0976   -1.0080 H   0  0  0  0  0  0  0  0  0  0  0  0
   -2.2872    1.3491   -0.1904 H   0  0  0  0  0  0  0  0  0  0  0  0
   -0.6201    2.3923    0.6980 C   0  0  0  0  0  0  0  0  0  0  0  0
   -1.4069    3.1145    0.9178 H   0  0  0  0  0  0  0  0  0  0  0  0
   -0.1684    2.0597    1.6344 H   0  0  0  0  0  0  0  0  0  0  0  0
    0.4490    3.0744   -0.1630 C   0  0  0  0  0  0  0  0  0  0  0  0
    1.2400    2.3616   -0.3980 H   0  0  0  0  0  0  0  0  0  0  0  0
   -0.0027    3.4297   -1.0897 H   0  0  0  0  0  0  0  0  0  0  0  0
    1.0467    4.2586    0.5944 C   0  0  0  0  0  0  0  0  0  0  0  0
    0.2618    4.9806    0.8139 H   0  0  0  0  0  0  0  0  0  0  0  0
    1.4825    3.9082    1.5285 H   0  0  0  0  0  0  0  0  0  0  0  0
    2.0923    4.9213   -0.1934 N   0  0  0  0  0  0  0  0  0  0  0  0
    2.4542    5.7049    0.3301 H   0  0  0  0  0  0  0  0  0  0  0  0
    2.8385    4.2645   -0.3728 H   0  0  0  0  0  0  0  0  0  0  0  0
   -0.5564    0.0727    2.1744 C   0  0  0  0  0  0  0  0  0  0  0  0
    0.6169   -0.1288    2.4805 O   0  0  0  0  0  0  0  0  0  0  0  0
   -1.4759    0.4743    3.0595 N   0  0  0  0  0  0  0  0  0  0  0  0
   -2.4132    0.6318    2.7275 H   0  0  0  0  0  0  0  0  0  0  0  0
   -1.1971    0.7118    4.4750 C   0  0  0  0  0  0  0  0  0  0  0  0
   -0.3779    1.4272    4.5748 H   0  0  0  0  0  0  0  0  0  0  0  0
   -2.0826    1.1064    4.9754 H   0  0  0  0  0  0  0  0  0  0  0  0
   -0.8992   -0.2240    4.9525 H   0  0  0  0  0  0  0  0  0  0  0  0
  5  6  2  0  0  0  0
  5  7  1  0  0  0  0
  2  3  1  0  0  0  0
  2  4  1  0  0  0  0
  2  5  1  0  0  0  0
  1  2  1  0  0  0  0
 26 27  2  0  0  0  0
 26 28  1  0  0  0  0
 23 24  1  0  0  0  0
 23 25  1  0  0  0  0
 20 21  1  0  0  0  0
 20 22  1  0  0  0  0
 20 23  1  0  0  0  0
 17 18  1  0  0  0  0
 17 19  1  0  0  0  0
 17 20  1  0  0  0  0
 14 15  1  0  0  0  0
 14 16  1  0  0  0  0
 14 17  1  0  0  0  0
 11 12  1  0  0  0  0
 11 13  1  0  0  0  0
 11 14  1  0  0  0  0
  9 10  1  0  0  0  0
  9 11  1  0  0  0  0
  9 26  1  0  0  0  0
  7  8  1  0  0  0  0
  7  9  1  0  0  0  0
 30 31  1  0  0  0  0
 30 32  1  0  0  0  0
 30 33  1  0  0  0  0
 28 29  1  0  0  0  0
 28 30  1  0  0  0  0
M  END
$$$$
default_name
  -OEChem-02102213163D

 33 32  0     1  0  0  0  0  0999 V2000
   -3.8420   -3.6918    1.5562 H   0  0  0  0  0  0  0  0  0  0  0  0
   -3.8430   -2.7008    1.1032 C   0  0  0  0  0  0  0  0  0  0  0  0
   -4.5510   -2.0608    1.6242 H   0  0  0  0  0  0  0  0  0  0  0  0
   -4.1140   -2.7798    0.0522 H   0  0  0  0  0  0  0  0  0  0  0  0
   -2.4570   -2.1098    1.2172 C   0  0  0  0  0  0  0  0  0  0  0  0
   -1.5600   -2.7438    1.7572 O   0  0  0  0  0  0  0  0  0  0  0  0
   -2.2870   -0.8898    0.7102 N   0  0  0  0  0  0  0  0  0  0  0  0
   -3.0820   -0.4218    0.2992 H   0  0  0  0  0  0  0  0  0  0  0  0
   -1.0240   -0.1468    0.7262 C   0  0  1  0  0  0  0  0  0  0  0  0
   -0.2680   -0.7367    0.2062 H   0  0  0  0  0  0  0  0  0  0  0  0
   -1.2212    1.1806   -0.0314 C   0  0  0  0  0  0  0  0  0  0  0  0
   -0.7398    1.0976   -1.0080 H   0  0  0  0  0  0  0  0  0  0  0  0
   -2.2872    1.3491   -0.1904 H   0  0  0  0  0  0  0  0  0  0  0  0
   -0.6201    2.3923    0.6980 C   0  0  0  0  0  0  0  0  0  0  0  0
   -1.4191    2.9808    1.1499 H   0  0  0  0  0  0  0  0  0  0  0  0
    0.0529    2.0414    1.4825 H   0  0  0  0  0  0  0  0  0  0  0  0
    0.1604    3.2844   -0.2739 C   0  0  0  0  0  0  0  0  0  0  0  0
    0.9592    2.7070   -0.7404 H   0  0  0  0  0  0  0  0  0  0  0  0
   -0.5132    3.6569   -1.0463 H   0  0  0  0  0  0  0  0  0  0  0  0
    0.7671    4.4660    0.4803 C   0  0  0  0  0  0  0  0  0  0  0  0
   -0.0301    5.0546    0.9315 H   0  0  0  0  0  0  0  0  0  0  0  0
    1.4263    4.0955    1.2636 H   0  0  0  0  0  0  0  0  0  0  0  0
    1.5424    5.3293   -0.4180 N   0  0  0  0  0  0  0  0  0  0  0  0
    1.9159    6.1047    0.1095 H   0  0  0  0  0  0  0  0  0  0  0  0
    2.3030    4.7963   -0.8151 H   0  0  0  0  0  0  0  0  0  0  0  0
   -0.5564    0.0727    2.1744 C   0  0  0  0  0  0  0  0  0  0  0  0
    0.6169   -0.1288    2.4805 O   0  0  0  0  0  0  0  0  0  0  0  0
   -1.4759    0.4743    3.0595 N   0  0  0  0  0  0  0  0  0  0  0  0
   -2.4132    0.6318    2.7275 H   0  0  0  0  0  0  0  0  0  0  0  0
   -1.1971    0.7118    4.4750 C   0  0  0  0  0  0  0  0  0  0  0  0
   -0.3779    1.4272    4.5748 H   0  0  0  0  0  0  0  0  0  0  0  0
   -2.0826    1.1064    4.9754 H   0  0  0  0  0  0  0  0  0  0  0  0
   -0.8992   -0.2240    4.9525 H   0  0  0  0  0  0  0  0  0  0  0  0
  5  6  2  0  0  0  0
  5  7  1  0  0  0  0
  2  3  1  0  0  0  0
  2  4  1  0  0  0  0
  2  5  1  0  0  0  0
  1  2  1  0  0  0  0
 26 27  2  0  0  0  0
 26 28  1  0  0  0  0
 23 24  1  0  0  0  0
 23 25  1  0  0  0  0
 20 21  1  0  0  0  0
 20 22  1  0  0  0  0
 20 23  1  0  0  0  0
 17 18  1  0  0  0  0
 17 19  1  0  0  0  0
 17 20  1  0  0  0  0
 14 15  1  0  0  0  0
 14 16  1  0  0  0  0
 14 17  1  0  0  0  0
 11 12  1  0  0  0  0
 11 13  1  0  0  0  0
 11 14  1  0  0  0  0
  9 10  1  0  0  0  0
  9 11  1  0  0  0  0
  9 26  1  0  0  0  0
  7  8  1  0  0  0  0
  7  9  1  0  0  0  0
 30 31  1  0  0  0  0
 30 32  1  0  0  0  0
 30 33  1  0  0  0  0
 28 29  1  0  0  0  0
 28 30  1  0  0  0  0
M  END
$$$$
default_name
  -OEChem-02102213163D

 33 32  0     1  0  0  0  0  0999 V2000
   -3.8420   -3.6918    1.5562 H   0  0  0  0  0  0  0  0  0  0  0  0
   -3.8430   -2.7008    1.1032 C   0  0  0  0  0  0  0  0  0  0  0  0
   -4.5510   -2.0608    1.6242 H   0  0  0  0  0  0  0  0  0  0  0  0
   -4.1140   -2.7798    0.0522 H   0  0  0  0  0  0  0  0  0  0  0  0
   -2.4570   -2.1098    1.2172 C   0  0  0  0  0  0  0  0  0  0  0  0
   -1.5600   -2.7438    1.7572 O   0  0  0  0  0  0  0  0  0  0  0  0
   -2.2870   -0.8898    0.7102 N   0  0  0  0  0  0  0  0  0  0  0  0
   -3.0820   -0.4218    0.2992 H   0  0  0  0  0  0  0  0  0  0  0  0
   -1.0240   -0.1468    0.7262 C   0  0  1  0  0  0  0  0  0  0  0  0
   -0.2680   -0.7367    0.2062 H   0  0  0  0  0  0  0  0  0  0  0  0
   -1.2212    1.1806   -0.0314 C   0  0  0  0  0  0  0  0  0  0  0  0
   -0.7398    1.0976   -1.0080 H   0  0  0  0  0  0  0  0  0  0  0  0
   -2.2872    1.3491   -0.1904 H   0  0  0  0  0  0  0  0  0  0  0  0
   -0.6201    2.3923    0.6980 C   0  0  0  0  0  0  0  0  0  0  0  0
   -1.3671    2.8267    1.3630 H   0  0  0  0  0  0  0  0  0  0  0  0
    0.2379    2.0663    1.2887 H   0  0  0  0  0  0  0  0  0  0  0  0
   -0.1669    3.4630   -0.3009 C   0  0  0  0  0  0  0  0  0  0  0  0
    0.5756    3.0409   -0.9789 H   0  0  0  0  0  0  0  0  0  0  0  0
   -1.0254    3.8091   -0.8773 H   0  0  0  0  0  0  0  0  0  0  0  0
    0.4482    4.6435    0.4481 C   0  0  0  0  0  0  0  0  0  0  0  0
   -0.2971    5.0783    1.1121 H   0  0  0  0  0  0  0  0  0  0  0  0
    1.2949    4.2965    1.0381 H   0  0  0  0  0  0  0  0  0  0  0  0
    0.9152    5.6786   -0.4814 N   0  0  0  0  0  0  0  0  0  0  0  0
    1.3018    6.4472    0.0467 H   0  0  0  0  0  0  0  0  0  0  0  0
    1.6302    5.2890   -1.0791 H   0  0  0  0  0  0  0  0  0  0  0  0
   -0.5564    0.0727    2.1744 C   0  0  0  0  0  0  0  0  0  0  0  0
    0.6169   -0.1288    2.4805 O   0  0  0  0  0  0  0  0  0  0  0  0
   -1.4759    0.4743    3.0595 N   0  0  0  0  0  0  0  0  0  0  0  0
   -2.4132    0.6318    2.7275 H   0  0  0  0  0  0  0  0  0  0  0  0
   -1.1971    0.7118    4.4750 C   0  0  0  0  0  0  0  0  0  0  0  0
   -0.3779    1.4272    4.5748 H   0  0  0  0  0  0  0  0  0  0  0  0
   -2.0826    1.1064    4.9754 H   0  0  0  0  0  0  0  0  0  0  0  0
   -0.8992   -0.2240    4.9525 H   0  0  0  0  0  0  0  0  0  0  0  0
  5  6  2  0  0  0  0
  5  7  1  0  0  0  0
  2  3  1  0  0  0  0
  2  4  1  0  0  0  0
  2  5  1  0  0  0  0
  1  2  1  0  0  0  0
 26 27  2  0  0  0  0
 26 28  1  0  0  0  0
 23 24  1  0  0  0  0
 23 25  1  0  0  0  0
 20 21  1  0  0  0  0
 20 22  1  0  0  0  0
 20 23  1  0  0  0  0
 17 18  1  0  0  0  0
 17 19  1  0  0  0  0
 17 20  1  0  0  0  0
 14 15  1  0  0  0  0
 14 16  1  0  0  0  0
 14 17  1  0  0  0  0
 11 12  1  0  0  0  0
 11 13  1  0  0  0  0
 11 14  1  0  0  0  0
  9 10  1  0  0  0  0
  9 11  1  0  0  0  0
  9 26  1  0  0  0  0
  7  8  1  0  0  0  0
  7  9  1  0  0  0  0
 30 31  1  0  0  0  0
 30 32  1  0  0  0  0
 30 33  1  0  0  0  0
 28 29  1  0  0  0  0
 28 30  1  0  0  0  0
M  END
$$$$
default_name
  -OEChem-02102213163D

 33 32  0     1  0  0  0  0  0999 V2000
   -3.8420   -3.6918    1.5562 H   0  0  0  0  0  0  0  0  0  0  0  0
   -3.8430   -2.7008    1.1032 C   0  0  0  0  0  0  0  0  0  0  0  0
   -4.5510   -2.0608    1.6242 H   0  0  0  0  0  0  0  0  0  0  0  0
   -4.1140   -2.7798    0.0522 H   0  0  0  0  0  0  0  0  0  0  0  0
   -2.4570   -2.1098    1.2172 C   0  0  0  0  0  0  0  0  0  0  0  0
   -1.5600   -2.7438    1.7572 O   0  0  0  0  0  0  0  0  0  0  0  0
   -2.2870   -0.8898    0.7102 N   0  0  0  0  0  0  0  0  0  0  0  0
   -3.0820   -0.4218    0.2992 H   0  0  0  0  0  0  0  0  0  0  0  0
   -1.0240   -0.1468    0.7262 C   0  0  1  0  0  0  0  0  0  0  0  0
   -0.2680   -0.7367    0.2062 H   0  0  0  0  0  0  0  0  0  0  0  0
   -1.2212    1.1806   -0.0314 C   0  0  0  0  0  0  0  0  0  0  0  0
   -0.7398    1.0976   -1.0080 H   0  0  0  0  0  0  0  0  0  0  0  0
   -2.2872    1.3491   -0.1904 H   0  0  0  0  0  0  0  0  0  0  0  0
   -0.6201    2.3923    0.6980 C   0  0  0  0  0  0  0  0  0  0  0  0
   -1.2544    2.6626    1.5427 H   0  0  0  0  0  0  0  0  0  0  0  0
    0.3741    2.1327    1.0662 H   0  0  0  0  0  0  0  0  0  0  0  0
   -0.5104    3.5980   -0.2422 C   0  0  0  0  0  0  0  0  0  0  0  0
    0.1154    3.3404   -1.0971 H   0  0  0  0  0  0  0  0  0  0  0  0
   -1.5043    3.8762   -0.5941 H   0  0  0  0  0  0  0  0  0  0  0  0
    0.1119    4.7791    0.5000 C   0  0  0  0  0  0  0  0  0  0  0  0
   -0.5210    5.0501    1.3435 H   0  0  0  0  0  0  0  0  0  0  0  0
    1.0972    4.4972    0.8675 H   0  0  0  0  0  0  0  0  0  0  0  0
    0.2535    5.9454   -0.3793 N   0  0  0  0  0  0  0  0  0  0  0  0
    0.6537    6.7088    0.1460 H   0  0  0  0  0  0  0  0  0  0  0  0
    0.8659    5.7091   -1.1470 H   0  0  0  0  0  0  0  0  0  0  0  0
   -0.5564    0.0727    2.1744 C   0  0  0  0  0  0  0  0  0  0  0  0
    0.6169   -0.1288    2.4805 O   0  0  0  0  0  0  0  0  0  0  0  0
   -1.4759    0.4743    3.0595 N   0  0  0  0  0  0  0  0  0  0  0  0
   -2.4132    0.6318    2.7275 H   0  0  0  0  0  0  0  0  0  0  0  0
   -1.1971    0.7118    4.4750 C   0  0  0  0  0  0  0  0  0  0  0  0
   -0.3779    1.4272    4.5748 H   0  0  0  0  0  0  0  0  0  0  0  0
   -2.0826    1.1064    4.9754 H   0  0  0  0  0  0  0  0  0  0  0  0
   -0.8992   -0.2240    4.9525 H   0  0  0  0  0  0  0  0  0  0  0  0
  5  6  2  0  0  0  0
  5  7  1  0  0  0  0
  2  3  1  0  0  0  0
  2  4  1  0  0  0  0
  2  5  1  0  0  0  0
  1  2  1  0  0  0  0
 26 27  2  0  0  0  0
 26 28  1  0  0  0  0
 23 24  1  0  0  0  0
 23 25  1  0  0  0  0
 20 21  1  0  0  0  0
 20 22  1  0  0  0  0
 20 23  1  0  0  0  0
 17 18  1  0  0  0  0
 17 19  1  0  0  0  0
 17 20  1  0  0  0  0
 14 15  1  0  0  0  0
 14 16  1  0  0  0  0
 14 17  1  0  0  0  0
 11 12  1  0  0  0  0
 11 13  1  0  0  0  0
 11 14  1  0  0  0  0
  9 10  1  0  0  0  0
  9 11  1  0  0  0  0
  9 26  1  0  0  0  0
  7  8  1  0  0  0  0
  7  9  1  0  0  0  0
 30 31  1  0  0  0  0
 30 32  1  0  0  0  0
 30 33  1  0  0  0  0
 28 29  1  0  0  0  0
 28 30  1  0  0  0  0
M  END
$$$$
default_name
  -OEChem-02102213163D

 33 32  0     1  0  0  0  0  0999 V2000
   -3.8420   -3.6918    1.5562 H   0  0  0  0  0  0  0  0  0  0  0  0
   -3.8430   -2.7008    1.1032 C   0  0  0  0  0  0  0  0  0  0  0  0
   -4.5510   -2.0608    1.6242 H   0  0  0  0  0  0  0  0  0  0  0  0
   -4.1140   -2.7798    0.0522 H   0  0  0  0  0  0  0  0  0  0  0  0
   -2.4570   -2.1098    1.2172 C   0  0  0  0  0  0  0  0  0  0  0  0
   -1.5600   -2.7438    1.7572 O   0  0  0  0  0  0  0  0  0  0  0  0
   -2.2870   -0.8898    0.7102 N   0  0  0  0  0  0  0  0  0  0  0  0
   -3.0820   -0.4218    0.2992 H   0  0  0  0  0  0  0  0  0  0  0  0
   -1.0240   -0.1468    0.7262 C   0  0  1  0  0  0  0  0  0  0  0  0
   -0.2680   -0.7367    0.2062 H   0  0  0  0  0  0  0  0  0  0  0  0
   -1.2212    1.1806   -0.0314 C   0  0  0  0  0  0  0  0  0  0  0  0
   -0.9860    1.0171   -1.0851 H   0  0  0  0  0  0  0  0  0  0  0  0
   -2.2664    1.4843    0.0411 H   0  0  0  0  0  0  0  0  0  0  0  0
   -0.3265    2.3165    0.4888 C   0  0  0  0  0  0  0  0  0  0  0  0
   -0.5458    2.5028    1.5405 H   0  0  0  0  0  0  0  0  0  0  0  0
    0.7202    2.0236    0.3884 H   0  0  0  0  0  0  0  0  0  0  0  0
   -0.5665    3.6080   -0.3013 C   0  0  0  0  0  0  0  0  0  0  0  0
   -0.3586    3.4353   -1.3577 H   0  0  0  0  0  0  0  0  0  0  0  0
   -1.6055    3.9177   -0.1846 H   0  0  0  0  0  0  0  0  0  0  0  0
    0.3516    4.7122    0.2190 C   0  0  0  0  0  0  0  0  0  0  0  0
    0.1330    4.8993    1.2691 H   0  0  0  0  0  0  0  0  0  0  0  0
    1.3891    4.3973    0.1197 H   0  0  0  0  0  0  0  0  0  0  0  0
    0.1641    5.9585   -0.5326 N   0  0  0  0  0  0  0  0  0  0  0  0
    0.7745    6.6679   -0.1542 H   0  0  0  0  0  0  0  0  0  0  0  0
    0.3966    5.7986   -1.5025 H   0  0  0  0  0  0  0  0  0  0  0  0
   -0.5564    0.0727    2.1744 C   0  0  0  0  0  0  0  0  0  0  0  0
    0.6169   -0.1288    2.4805 O   0  0  0  0  0  0  0  0  0  0  0  0
   -1.4759    0.4743    3.0595 N   0  0  0  0  0  0  0  0  0  0  0  0
   -2.4132    0.6318    2.7275 H   0  0  0  0  0  0  0  0  0  0  0  0
   -1.1971    0.7118    4.4750 C   0  0  0  0  0  0  0  0  0  0  0  0
   -0.3779    1.4272    4.5748 H   0  0  0  0  0  0  0  0  0  0  0  0
   -2.0826    1.1064    4.9754 H   0  0  0  0  0  0  0  0  0  0  0  0
   -0.8992   -0.2240    4.9525 H   0  0  0  0  0  0  0  0  0  0  0  0
  5  6  2  0  0  0  0
  5  7  1  0  0  0  0
  2  3  1  0  0  0  0
  2  4  1  0  0  0  0
  2  5  1  0  0  0  0
  1  2  1  0  0  0  0
 26 27  2  0  0  0  0
 26 28  1  0  0  0  0
 23 24  1  0  0  0  0
 23 25  1  0  0  0  0
 20 21  1  0  0  0  0
 20 22  1  0  0  0  0
 20 23  1  0  0  0  0
 17 18  1  0  0  0  0
 17 19  1  0  0  0  0
 17 20  1  0  0  0  0
 14 15  1  0  0  0  0
 14 16  1  0  0  0  0
 14 17  1  0  0  0  0
 11 12  1  0  0  0  0
 11 13  1  0  0  0  0
 11 14  1  0  0  0  0
  9 10  1  0  0  0  0
  9 11  1  0  0  0  0
  9 26  1  0  0  0  0
  7  8  1  0  0  0  0
  7  9  1  0  0  0  0
 30 31  1  0  0  0  0
 30 32  1  0  0  0  0
 30 33  1  0  0  0  0
 28 29  1  0  0  0  0
 28 30  1  0  0  0  0
M  END
$$$$
default_name
  -OEChem-02102213163D

 33 32  0     1  0  0  0  0  0999 V2000
   -3.8420   -3.6918    1.5562 H   0  0  0  0  0  0  0  0  0  0  0  0
   -3.8430   -2.7008    1.1032 C   0  0  0  0  0  0  0  0  0  0  0  0
   -4.5510   -2.0608    1.6242 H   0  0  0  0  0  0  0  0  0  0  0  0
   -4.1140   -2.7798    0.0522 H   0  0  0  0  0  0  0  0  0  0  0  0
   -2.4570   -2.1098    1.2172 C   0  0  0  0  0  0  0  0  0  0  0  0
   -1.5600   -2.7438    1.7572 O   0  0  0  0  0  0  0  0  0  0  0  0
   -2.2870   -0.8898    0.7102 N   0  0  0  0  0  0  0  0  0  0  0  0
   -3.0820   -0.4218    0.2992 H   0  0  0  0  0  0  0  0  0  0  0  0
   -1.0240   -0.1468    0.7262 C   0  0  1  0  0  0  0  0  0  0  0  0
   -0.2680   -0.7367    0.2062 H   0  0  0  0  0  0  0  0  0  0  0  0
   -1.2212    1.1806   -0.0314 C   0  0  0  0  0  0  0  0  0  0  0  0
   -0.9860    1.0171   -1.0851 H   0  0  0  0  0  0  0  0  0  0  0  0
   -2.2664    1.4843    0.0411 H   0  0  0  0  0  0  0  0  0  0  0  0
   -0.3265    2.3165    0.4888 C   0  0  0  0  0  0  0  0  0  0  0  0
   -0.3462    2.3279    1.5789 H   0  0  0  0  0  0  0  0  0  0  0  0
    0.6981    2.1495    0.1516 H   0  0  0  0  0  0  0  0  0  0  0  0
   -0.8118    3.6758   -0.0275 C   0  0  0  0  0  0  0  0  0  0  0  0
   -0.8052    3.6772   -1.1179 H   0  0  0  0  0  0  0  0  0  0  0  0
   -1.8268    3.8579    0.3268 H   0  0  0  0  0  0  0  0  0  0  0  0
    0.1081    4.7829    0.4834 C   0  0  0  0  0  0  0  0  0  0  0  0
    0.0887    4.7954    1.5720 H   0  0  0  0  0  0  0  0  0  0  0  0
    1.1255    4.5931    0.1454 H   0  0  0  0  0  0  0  0  0  0  0  0
   -0.3149    6.0976   -0.0125 N   0  0  0  0  0  0  0  0  0  0  0  0
    0.3049    6.8047    0.3548 H   0  0  0  0  0  0  0  0  0  0  0  0
   -0.2681    6.1019   -1.0215 H   0  0  0  0  0  0  0  0  0  0  0  0
   -0.5564    0.0727    2.1744 C   0  0  0  0  0  0  0  0  0  0  0  0
    0.6169   -0.1288    2.4805 O   0  0  0  0  0  0  0  0  0  0  0  0
   -1.4759    0.4743    3.0595 N   0  0  0  0  0  0  0  0  0  0  0  0
   -2.4132    0.6318    2.7275 H   0  0  0  0  0  0  0  0  0  0  0  0
   -1.1971    0.7118    4.4750 C   0  0  0  0  0  0  0  0  0  0  0  0
   -0.3779    1.4272    4.5748 H   0  0  0  0  0  0  0  0  0  0  0  0
   -2.0826    1.1064    4.9754 H   0  0  0  0  0  0  0  0  0  0  0  0
   -0.8992   -0.2240    4.9525 H   0  0  0  0  0  0  0  0  0  0  0  0
  5  6  2  0  0  0  0
  5  7  1  0  0  0  0
  2  3  1  0  0  0  0
  2  4  1  0  0  0  0
  2  5  1  0  0  0  0
  1  2  1  0  0  0  0
 26 27  2  0  0  0  0
 26 28  1  0  0  0  0
 23 24  1  0  0  0  0
 23 25  1  0  0  0  0
 20 21  1  0  0  0  0
 20 22  1  0  0  0  0
 20 23  1  0  0  0  0
 17 18  1  0  0  0  0
 17 19  1  0  0  0  0
 17 20  1  0  0  0  0
 14 15  1  0  0  0  0
 14 16  1  0  0  0  0
 14 17  1  0  0  0  0
 11 12  1  0  0  0  0
 11 13  1  0  0  0  0
 11 14  1  0  0  0  0
  9 10  1  0  0  0  0
  9 11  1  0  0  0  0
  9 26  1  0  0  0  0
  7  8  1  0  0  0  0
  7  9  1  0  0  0  0
 30 31  1  0  0  0  0
 30 32  1  0  0  0  0
 30 33  1  0  0  0  0
 28 29  1  0  0  0  0
 28 30  1  0  0  0  0
M  END
$$$$
default_name
  -OEChem-02102213163D

 33 32  0     1  0  0  0  0  0999 V2000
   -3.8420   -3.6918    1.5562 H   0  0  0  0  0  0  0  0  0  0  0  0
   -3.8430   -2.7008    1.1032 C   0  0  0  0  0  0  0  0  0  0  0  0
   -4.5510   -2.0608    1.6242 H   0  0  0  0  0  0  0  0  0  0  0  0
   -4.1140   -2.7798    0.0522 H   0  0  0  0  0  0  0  0  0  0  0  0
   -2.4570   -2.1098    1.2172 C   0  0  0  0  0  0  0  0  0  0  0  0
   -1.5600   -2.7438    1.7572 O   0  0  0  0  0  0  0  0  0  0  0  0
   -2.2870   -0.8898    0.7102 N   0  0  0  0  0  0  0  0  0  0  0  0
   -3.0820   -0.4218    0.2992 H   0  0  0  0  0  0  0  0  0  0  0  0
   -1.0240   -0.1468    0.7262 C   0  0  1  0  0  0  0  0  0  0  0  0
   -0.2680   -0.7367    0.2062 H   0  0  0  0  0  0  0  0  0  0  0  0
   -1.2212    1.1806   -0.0314 C   0  0  0  0  0  0  0  0  0  0  0  0
   -0.9860    1.0171   -1.0851 H   0  0  0  0  0  0  0  0  0  0  0  0
   -2.2664    1.4843    0.0411 H   0  0  0  0  0  0  0  0  0  0  0  0
   -0.3265    2.3165    0.4888 C   0  0  0  0  0  0  0  0  0  0  0  0
   -0.1307    2.1708    1.5515 H   0  0  0  0  0  0  0  0  0  0  0  0
    0.6205    2.3048   -0.0539 H   0  0  0  0  0  0  0  0  0  0  0  0
   -1.0023    3.6785    0.2941 C   0  0  0  0  0  0  0  0  0  0  0  0
   -1.2118    3.8357   -0.7644 H   0  0  0  0  0  0  0  0  0  0  0  0
   -1.9376    3.7036    0.8541 H   0  0  0  0  0  0  0  0  0  0  0  0
   -0.0827    4.7900    0.7961 C   0  0  0  0  0  0  0  0  0  0  0  0
    0.1130    4.6456    1.8574 H   0  0  0  0  0  0  0  0  0  0  0  0
    0.8587    4.7552    0.2502 H   0  0  0  0  0  0  0  0  0  0  0  0
   -0.6903    6.1116    0.6025 N   0  0  0  0  0  0  0  0  0  0  0  0
   -0.0634    6.8189    0.9569 H   0  0  0  0  0  0  0  0  0  0  0  0
   -0.8447    6.2640   -0.3840 H   0  0  0  0  0  0  0  0  0  0  0  0
   -0.5564    0.0727    2.1744 C   0  0  0  0  0  0  0  0  0  0  0  0
    0.6169   -0.1288    2.4805 O   0  0  0  0  0  0  0  0  0  0  0  0
   -1.4759    0.4743    3.0595 N   0  0  0  0  0  0  0  0  0  0  0  0
   -2.4132    0.6318    2.7275 H   0  0  0  0  0  0  0  0  0  0  0  0
   -1.1971    0.7118    4.4750 C   0  0  0  0  0  0  0  0  0  0  0  0
   -0.3779    1.4272    4.5748 H   0  0  0  0  0  0  0  0  0  0  0  0
   -2.0826    1.1064    4.9754 H   0  0  0  0  0  0  0  0  0  0  0  0
   -0.8992   -0.2240    4.9525 H   0  0  0  0  0  0  0  0  0  0  0  0
  5  6  2  0  0  0  0
  5  7  1  0  0  0  0
  2  3  1  0  0  0  0
  2  4  1  0  0  0  0
  2  5  1  0  0  0  0
  1  2  1  0  0  0  0
 26 27  2  0  0  0  0
 26 28  1  0  0  0  0
 23 24  1  0  0  0  0
 23 25  1  0  0  0  0
 20 21  1  0  0  0  0
 20 22  1  0  0  0  0
 20 23  1  0  0  0  0
 17 18  1  0  0  0  0
 17 19  1  0  0  0  0
 17 20  1  0  0  0  0
 14 15  1  0  0  0  0
 14 16  1  0  0  0  0
 14 17  1  0  0  0  0
 11 12  1  0  0  0  0
 11 13  1  0  0  0  0
 11 14  1  0  0  0  0
  9 10  1  0  0  0  0
  9 11  1  0  0  0  0
  9 26  1  0  0  0  0
  7  8  1  0  0  0  0
  7  9  1  0  0  0  0
 30 31  1  0  0  0  0
 30 32  1  0  0  0  0
 30 33  1  0  0  0  0
 28 29  1  0  0  0  0
 28 30  1  0  0  0  0
M  END
$$$$
default_name
  -OEChem-02102213163D

 33 32  0     1  0  0  0  0  0999 V2000
   -3.8420   -3.6918    1.5562 H   0  0  0  0  0  0  0  0  0  0  0  0
   -3.8430   -2.7008    1.1032 C   0  0  0  0  0  0  0  0  0  0  0  0
   -4.5510   -2.0608    1.6242 H   0  0  0  0  0  0  0  0  0  0  0  0
   -4.1140   -2.7798    0.0522 H   0  0  0  0  0  0  0  0  0  0  0  0
   -2.4570   -2.1098    1.2172 C   0  0  0  0  0  0  0  0  0  0  0  0
   -1.5600   -2.7438    1.7572 O   0  0  0  0  0  0  0  0  0  0  0  0
   -2.2870   -0.8898    0.7102 N   0  0  0  0  0  0  0  0  0  0  0  0
   -3.0820   -0.4218    0.2992 H   0  0  0  0  0  0  0  0  0  0  0  0
   -1.0240   -0.1468    0.7262 C   0  0  1  0  0  0  0  0  0  0  0  0
   -0.2680   -0.7367    0.2062 H   0  0  0  0  0  0  0  0  0  0  0  0
   -1.2212    1.1806   -0.0314 C   0  0  0  0  0  0  0  0  0  0  0  0
   -0.9860    1.0171   -1.0851 H   0  0  0  0  0  0  0  0  0  0  0  0
   -2.2664    1.4843    0.0411 H   0  0  0  0  0  0  0  0  0  0  0  0
   -0.3265    2.3165    0.4888 C   0  0  0  0  0  0  0  0  0  0  0  0
    0.0859    2.0420    1.4601 H   0  0  0  0  0  0  0  0  0  0  0  0
    0.4925    2.4791   -0.2142 H   0  0  0  0  0  0  0  0  0  0  0  0
   -1.1250    3.6160    0.6416 C   0  0  0  0  0  0  0  0  0  0  0  0
   -1.5509    3.8998   -0.3213 H   0  0  0  0  0  0  0  0  0  0  0  0
   -1.9302    3.4655    1.3613 H   0  0  0  0  0  0  0  0  0  0  0  0
   -0.2078    4.7331    1.1356 C   0  0  0  0  0  0  0  0  0  0  0  0
    0.2042    4.4600    2.1058 H   0  0  0  0  0  0  0  0  0  0  0  0
    0.6068    4.8727    0.4269 H   0  0  0  0  0  0  0  0  0  0  0  0
   -0.9365    5.9996    1.2705 N   0  0  0  0  0  0  0  0  0  0  0  0
   -0.3051    6.7097    1.6111 H   0  0  0  0  0  0  0  0  0  0  0  0
   -1.2939    6.2741    0.3665 H   0  0  0  0  0  0  0  0  0  0  0  0
   -0.5564    0.0727    2.1744 C   0  0  0  0  0  0  0  0  0  0  0  0
    0.6169   -0.1288    2.4805 O   0  0  0  0  0  0  0  0  0  0  0  0
   -1.4759    0.4743    3.0595 N   0  0  0  0  0  0  0  0  0  0  0  0
   -2.4132    0.6318    2.7275 H   0  0  0  0  0  0  0  0  0  0  0  0
   -1.1971    0.7118    4.4750 C   0  0  0  0  0  0  0  0  0  0  0  0
   -0.3779    1.4272    4.5748 H   0  0  0  0  0  0  0  0  0  0  0  0
   -2.0826    1.1064    4.9754 H   0  0  0  0  0  0  0  0  0  0  0  0
   -0.8992   -0.2240    4.9525 H   0  0  0  0  0  0  0  0  0  0  0  0
  5  6  2  0  0  0  0
  5  7  1  0  0  0  0
  2  3  1  0  0  0  0
  2  4  1  0  0  0  0
  2  5  1  0  0  0  0
  1  2  1  0  0  0  0
 26 27  2  0  0  0  0
 26 28  1  0  0  0  0
 23 24  1  0  0  0  0
 23 25  1  0  0  0  0
 20 21  1  0  0  0  0
 20 22  1  0  0  0  0
 20 23  1  0  0  0  0
 17 18  1  0  0  0  0
 17 19  1  0  0  0  0
 17 20  1  0  0  0  0
 14 15  1  0  0  0  0
 14 16  1  0  0  0  0
 14 17  1  0  0  0  0
 11 12  1  0  0  0  0
 11 13  1  0  0  0  0
 11 14  1  0  0  0  0
  9 10  1  0  0  0  0
  9 11  1  0  0  0  0
  9 26  1  0  0  0  0
  7  8  1  0  0  0  0
  7  9  1  0  0  0  0
 30 31  1  0  0  0  0
 30 32  1  0  0  0  0
 30 33  1  0  0  0  0
 28 29  1  0  0  0  0
 28 30  1  0  0  0  0
M  END
$$$$
default_name
  -OEChem-02102213163D

 33 32  0     1  0  0  0  0  0999 V2000
   -3.8420   -3.6918    1.5562 H   0  0  0  0  0  0  0  0  0  0  0  0
   -3.8430   -2.7008    1.1032 C   0  0  0  0  0  0  0  0  0  0  0  0
   -4.5510   -2.0608    1.6242 H   0  0  0  0  0  0  0  0  0  0  0  0
   -4.1140   -2.7798    0.0522 H   0  0  0  0  0  0  0  0  0  0  0  0
   -2.4570   -2.1098    1.2172 C   0  0  0  0  0  0  0  0  0  0  0  0
   -1.5600   -2.7438    1.7572 O   0  0  0  0  0  0  0  0  0  0  0  0
   -2.2870   -0.8898    0.7102 N   0  0  0  0  0  0  0  0  0  0  0  0
   -3.0820   -0.4218    0.2992 H   0  0  0  0  0  0  0  0  0  0  0  0
   -1.0240   -0.1468    0.7262 C   0  0  1  0  0  0  0  0  0  0  0  0
   -0.2680   -0.7367    0.2062 H   0  0  0  0  0  0  0  0  0  0  0  0
   -1.2212    1.1806   -0.0314 C   0  0  0  0  0  0  0  0  0  0  0  0
   -0.9860    1.0171   -1.0851 H   0  0  0  0  0  0  0  0  0  0  0  0
   -2.2664    1.4843    0.0411 H   0  0  0  0  0  0  0  0  0  0  0  0
   -0.3265    2.3165    0.4888 C   0  0  0  0  0  0  0  0  0  0  0  0
    0.2890    1.9503    1.3110 H   0  0  0  0  0  0  0  0  0  0  0  0
    0.3230    2.6603   -0.3183 H   0  0  0  0  0  0  0  0  0  0  0  0
   -1.1716    3.4925    0.9913 C   0  0  0  0  0  0  0  0  0  0  0  0
   -1.7993    3.8652    0.1813 H   0  0  0  0  0  0  0  0  0  0  0  0
   -1.8051    3.1596    1.8140 H   0  0  0  0  0  0  0  0  0  0  0  0
   -0.2587    4.6159    1.4790 C   0  0  0  0  0  0  0  0  0  0  0  0
    0.3560    4.2513    2.3003 H   0  0  0  0  0  0  0  0  0  0  0  0
    0.3870    4.9374    0.6635 H   0  0  0  0  0  0  0  0  0  0  0  0
   -1.0367    5.7691    1.9459 N   0  0  0  0  0  0  0  0  0  0  0  0
   -0.4039    6.4845    2.2728 H   0  0  0  0  0  0  0  0  0  0  0  0
   -1.5851    6.1314    1.1789 H   0  0  0  0  0  0  0  0  0  0  0  0
   -0.5564    0.0727    2.1744 C   0  0  0  0  0  0  0  0  0  0  0  0
    0.6169   -0.1288    2.4805 O   0  0  0  0  0  0  0  0  0  0  0  0
   -1.4759    0.4743    3.0595 N   0  0  0  0  0  0  0  0  0  0  0  0
   -2.4132    0.6318    2.7275 H   0  0  0  0  0  0  0  0  0  0  0  0
   -1.1971    0.7118    4.4750 C   0  0  0  0  0  0  0  0  0  0  0  0
   -0.3779    1.4272    4.5748 H   0  0  0  0  0  0  0  0  0  0  0  0
   -2.0826    1.1064    4.9754 H   0  0  0  0  0  0  0  0  0  0  0  0
   -0.8992   -0.2240    4.9525 H   0  0  0  0  0  0  0  0  0  0  0  0
  5  6  2  0  0  0  0
  5  7  1  0  0  0  0
  2  3  1  0  0  0  0
  2  4  1  0  0  0  0
  2  5  1  0  0  0  0
  1  2  1  0  0  0  0
 26 27  2  0  0  0  0
 26 28  1  0  0  0  0
 23 24  1  0  0  0  0
 23 25  1  0  0  0  0
 20 21  1  0  0  0  0
 20 22  1  0  0  0  0
 20 23  1  0  0  0  0
 17 18  1  0  0  0  0
 17 19  1  0  0  0  0
 17 20  1  0  0  0  0
 14 15  1  0  0  0  0
 14 16  1  0  0  0  0
 14 17  1  0  0  0  0
 11 12  1  0  0  0  0
 11 13  1  0  0  0  0
 11 14  1  0  0  0  0
  9 10  1  0  0  0  0
  9 11  1  0  0  0  0
  9 26  1  0  0  0  0
  7  8  1  0  0  0  0
  7  9  1  0  0  0  0
 30 31  1  0  0  0  0
 30 32  1  0  0  0  0
 30 33  1  0  0  0  0
 28 29  1  0  0  0  0
 28 30  1  0  0  0  0
M  END
$$$$
default_name
  -OEChem-02102213163D

 33 32  0     1  0  0  0  0  0999 V2000
   -3.8420   -3.6918    1.5562 H   0  0  0  0  0  0  0  0  0  0  0  0
   -3.8430   -2.7008    1.1032 C   0  0  0  0  0  0  0  0  0  0  0  0
   -4.5510   -2.0608    1.6242 H   0  0  0  0  0  0  0  0  0  0  0  0
   -4.1140   -2.7798    0.0522 H   0  0  0  0  0  0  0  0  0  0  0  0
   -2.4570   -2.1098    1.2172 C   0  0  0  0  0  0  0  0  0  0  0  0
   -1.5600   -2.7438    1.7572 O   0  0  0  0  0  0  0  0  0  0  0  0
   -2.2870   -0.8898    0.7102 N   0  0  0  0  0  0  0  0  0  0  0  0
   -3.0820   -0.4218    0.2992 H   0  0  0  0  0  0  0  0  0  0  0  0
   -1.0240   -0.1468    0.7262 C   0  0  1  0  0  0  0  0  0  0  0  0
   -0.2680   -0.7367    0.2062 H   0  0  0  0  0  0  0  0  0  0  0  0
   -1.2212    1.1806   -0.0314 C   0  0  0  0  0  0  0  0  0  0  0  0
   -0.9860    1.0171   -1.0851 H   0  0  0  0  0  0  0  0  0  0  0  0
   -2.2664    1.4843    0.0411 H   0  0  0  0  0  0  0  0  0  0  0  0
   -0.3265    2.3165    0.4888 C   0  0  0  0  0  0  0  0  0  0  0  0
    0.4647    1.9021    1.1142 H   0  0  0  0  0  0  0  0  0  0  0  0
    0.1234    2.8361   -0.3591 H   0  0  0  0  0  0  0  0  0  0  0  0
   -1.1389    3.3165    1.3194 C   0  0  0  0  0  0  0  0  0  0  0  0
   -1.9400    3.7344    0.7090 H   0  0  0  0  0  0  0  0  0  0  0  0
   -1.5709    2.8070    2.1812 H   0  0  0  0  0  0  0  0  0  0  0  0
   -0.2319    4.4465    1.8027 C   0  0  0  0  0  0  0  0  0  0  0  0
    0.5582    4.0336    2.4277 H   0  0  0  0  0  0  0  0  0  0  0  0
    0.2143    4.9451    0.9438 H   0  0  0  0  0  0  0  0  0  0  0  0
   -0.9841    5.4360    2.5828 N   0  0  0  0  0  0  0  0  0  0  0  0
   -0.3529    6.1585    2.8969 H   0  0  0  0  0  0  0  0  0  0  0  0
   -1.6985    5.8455    1.9978 H   0  0  0  0  0  0  0  0  0  0  0  0
   -0.5564    0.0727    2.1744 C   0  0  0  0  0  0  0  0  0  0  0  0
    0.6169   -0.1288    2.4805 O   0  0  0  0  0  0  0  0  0  0  0  0
   -1.4759    0.4743    3.0595 N   0  0  0  0  0  0  0  0  0  0  0  0
   -2.4132    0.6318    2.7275 H   0  0  0  0  0  0  0  0  0  0  0  0
   -1.1971    0.7118    4.4750 C   0  0  0  0  0  0  0  0  0  0  0  0
   -0.3779    1.4272    4.5748 H   0  0  0  0  0  0  0  0  0  0  0  0
   -2.0826    1.1064    4.9754 H   0  0  0  0  0  0  0  0  0  0  0  0
   -0.8992   -0.2240    4.9525 H   0  0  0  0  0  0  0  0  0  0  0  0
  5  6  2  0  0  0  0
  5  7  1  0  0  0  0
  2  3  1  0  0  0  0
  2  4  1  0  0  0  0
  2  5  1  0  0  0  0
  1  2  1  0  0  0  0
 26 27  2  0  0  0  0
 26 28  1  0  0  0  0
 23 24  1  0  0  0  0
 23 25  1  0  0  0  0
 20 21  1  0  0  0  0
 20 22  1  0  0  0  0
 20 23  1  0  0  0  0
 17 18  1  0  0  0  0
 17 19  1  0  0  0  0
 17 20  1  0  0  0  0
 14 15  1  0  0  0  0
 14 16  1  0  0  0  0
 14 17  1  0  0  0  0
 11 12  1  0  0  0  0
 11 13  1  0  0  0  0
 11 14  1  0  0  0  0
  9 10  1  0  0  0  0
  9 11  1  0  0  0  0
  9 26  1  0  0  0  0
  7  8  1  0  0  0  0
  7  9  1  0  0  0  0
 30 31  1  0  0  0  0
 30 32  1  0  0  0  0
 30 33  1  0  0  0  0
 28 29  1  0  0  0  0
 28 30  1  0  0  0  0
M  END
$$$$
default_name
  -OEChem-02102213163D

 33 32  0     1  0  0  0  0  0999 V2000
   -3.8420   -3.6918    1.5562 H   0  0  0  0  0  0  0  0  0  0  0  0
   -3.8430   -2.7008    1.1032 C   0  0  0  0  0  0  0  0  0  0  0  0
   -4.5510   -2.0608    1.6242 H   0  0  0  0  0  0  0  0  0  0  0  0
   -4.1140   -2.7798    0.0522 H   0  0  0  0  0  0  0  0  0  0  0  0
   -2.4570   -2.1098    1.2172 C   0  0  0  0  0  0  0  0  0  0  0  0
   -1.5600   -2.7438    1.7572 O   0  0  0  0  0  0  0  0  0  0  0  0
   -2.2870   -0.8898    0.7102 N   0  0  0  0  0  0  0  0  0  0  0  0
   -3.0820   -0.4218    0.2992 H   0  0  0  0  0  0  0  0  0  0  0  0
   -1.0240   -0.1468    0.7262 C   0  0  1  0  0  0  0  0  0  0  0  0
   -0.2680   -0.7367    0.2062 H   0  0  0  0  0  0  0  0  0  0  0  0
   -1.2212    1.1806   -0.0314 C   0  0  0  0  0  0  0  0  0  0  0  0
   -0.9860    1.0171   -1.0851 H   0  0  0  0  0  0  0  0  0  0  0  0
   -2.2664    1.4843    0.0411 H   0  0  0  0  0  0  0  0  0  0  0  0
   -0.3265    2.3165    0.4888 C   0  0  0  0  0  0  0  0  0  0  0  0
    0.6010    1.9005    0.8833 H   0  0  0  0  0  0  0  0  0  0  0  0
   -0.0925    2.9947   -0.3339 H   0  0  0  0  0  0  0  0  0  0  0  0
   -1.0291    3.0998    1.6035 C   0  0  0  0  0  0  0  0  0  0  0  0
   -1.9635    3.5161    1.2260 H   0  0  0  0  0  0  0  0  0  0  0  0
   -1.2436    2.4315    2.4379 H   0  0  0  0  0  0  0  0  0  0  0  0
   -0.1293    4.2365    2.0848 C   0  0  0  0  0  0  0  0  0  0  0  0
    0.7970    3.8220    2.4793 H   0  0  0  0  0  0  0  0  0  0  0  0
    0.1004    4.8951    1.2488 H   0  0  0  0  0  0  0  0  0  0  0  0
   -0.7822    5.0228    3.1377 N   0  0  0  0  0  0  0  0  0  0  0  0
   -0.1558    5.7541    3.4408 H   0  0  0  0  0  0  0  0  0  0  0  0
   -1.6262    5.4361    2.7675 H   0  0  0  0  0  0  0  0  0  0  0  0
   -0.5564    0.0727    2.1744 C   0  0  0  0  0  0  0  0  0  0  0  0
    0.6169   -0.1288    2.4805 O   0  0  0  0  0  0  0  0  0  0  0  0
   -1.4759    0.4743    3.0595 N   0  0  0  0  0  0  0  0  0  0  0  0
   -2.4132    0.6318    2.7275 H   0  0  0  0  0  0  0  0  0  0  0  0
   -1.1971    0.7118    4.4750 C   0  0  0  0  0  0  0  0  0  0  0  0
   -0.3779    1.4272    4.5748 H   0  0  0  0  0  0  0  0  0  0  0  0
   -2.0826    1.1064    4.9754 H   0  0  0  0  0  0  0  0  0  0  0  0
   -0.8992   -0.2240    4.9525 H   0  0  0  0  0  0  0  0  0  0  0  0
  5  6  2  0  0  0  0
  5  7  1  0  0  0  0
  2  3  1  0  0  0  0
  2  4  1  0  0  0  0
  2  5  1  0  0  0  0
  1  2  1  0  0  0  0
 26 27  2  0  0  0  0
 26 28  1  0  0  0  0
 23 24  1  0  0  0  0
 23 25  1  0  0  0  0
 20 21  1  0  0  0  0
 20 22  1  0  0  0  0
 20 23  1  0  0  0  0
 17 18  1  0  0  0  0
 17 19  1  0  0  0  0
 17 20  1  0  0  0  0
 14 15  1  0  0  0  0
 14 16  1  0  0  0  0
 14 17  1  0  0  0  0
 11 12  1  0  0  0  0
 11 13  1  0  0  0  0
 11 14  1  0  0  0  0
  9 10  1  0  0  0  0
  9 11  1  0  0  0  0
  9 26  1  0  0  0  0
  7  8  1  0  0  0  0
  7  9  1  0  0  0  0
 30 31  1  0  0  0  0
 30 32  1  0  0  0  0
 30 33  1  0  0  0  0
 28 29  1  0  0  0  0
 28 30  1  0  0  0  0
M  END
$$$$
default_name
  -OEChem-02102213163D

 33 32  0     1  0  0  0  0  0999 V2000
   -3.8420   -3.6918    1.5562 H   0  0  0  0  0  0  0  0  0  0  0  0
   -3.8430   -2.7008    1.1032 C   0  0  0  0  0  0  0  0  0  0  0  0
   -4.5510   -2.0608    1.6242 H   0  0  0  0  0  0  0  0  0  0  0  0
   -4.1140   -2.7798    0.0522 H   0  0  0  0  0  0  0  0  0  0  0  0
   -2.4570   -2.1098    1.2172 C   0  0  0  0  0  0  0  0  0  0  0  0
   -1.5600   -2.7438    1.7572 O   0  0  0  0  0  0  0  0  0  0  0  0
   -2.2870   -0.8898    0.7102 N   0  0  0  0  0  0  0  0  0  0  0  0
   -3.0820   -0.4218    0.2992 H   0  0  0  0  0  0  0  0  0  0  0  0
   -1.0240   -0.1468    0.7262 C   0  0  1  0  0  0  0  0  0  0  0  0
   -0.2680   -0.7367    0.2062 H   0  0  0  0  0  0  0  0  0  0  0  0
   -1.2212    1.1806   -0.0314 C   0  0  0  0  0  0  0  0  0  0  0  0
   -0.9860    1.0171   -1.0851 H   0  0  0  0  0  0  0  0  0  0  0  0
   -2.2664    1.4843    0.0411 H   0  0  0  0  0  0  0  0  0  0  0  0
   -0.3265    2.3165    0.4888 C   0  0  0  0  0  0  0  0  0  0  0  0
    0.6885    1.9457    0.6340 H   0  0  0  0  0  0  0  0  0  0  0  0
   -0.3102    3.1251   -0.2442 H   0  0  0  0  0  0  0  0  0  0  0  0
   -0.8497    2.8574    1.8243 C   0  0  0  0  0  0  0  0  0  0  0  0
   -1.8682    3.2253    1.6969 H   0  0  0  0  0  0  0  0  0  0  0  0
   -0.8453    2.0588    2.5667 H   0  0  0  0  0  0  0  0  0  0  0  0
    0.0422    4.0001    2.3059 C   0  0  0  0  0  0  0  0  0  0  0  0
    1.0560    3.6306    2.4516 H   0  0  0  0  0  0  0  0  0  0  0  0
    0.0532    4.7909    1.5576 H   0  0  0  0  0  0  0  0  0  0  0  0
   -0.4448    4.5578    3.5728 N   0  0  0  0  0  0  0  0  0  0  0  0
    0.1741    5.2987    3.8676 H   0  0  0  0  0  0  0  0  0  0  0  0
   -1.3733    4.9310    3.4354 H   0  0  0  0  0  0  0  0  0  0  0  0
   -0.5564    0.0727    2.1744 C   0  0  0  0  0  0  0  0  0  0  0  0
    0.6169   -0.1288    2.4805 O   0  0  0  0  0  0  0  0  0  0  0  0
   -1.4759    0.4743    3.0595 N   0  0  0  0  0  0  0  0  0  0  0  0
   -2.4132    0.6318    2.7275 H   0  0  0  0  0  0  0  0  0  0  0  0
   -1.1971    0.7118    4.4750 C   0  0  0  0  0  0  0  0  0  0  0  0
   -0.3779    1.4272    4.5748 H   0  0  0  0  0  0  0  0  0  0  0  0
   -2.0826    1.1064    4.9754 H   0  0  0  0  0  0  0  0  0  0  0  0
   -0.8992   -0.2240    4.9525 H   0  0  0  0  0  0  0  0  0  0  0  0
  5  6  2  0  0  0  0
  5  7  1  0  0  0  0
  2  3  1  0  0  0  0
  2  4  1  0  0  0  0
  2  5  1  0  0  0  0
  1  2  1  0  0  0  0
 26 27  2  0  0  0  0
 26 28  1  0  0  0  0
 23 24  1  0  0  0  0
 23 25  1  0  0  0  0
 20 21  1  0  0  0  0
 20 22  1  0  0  0  0
 20 23  1  0  0  0  0
 17 18  1  0  0  0  0
 17 19  1  0  0  0  0
 17 20  1  0  0  0  0
 14 15  1  0  0  0  0
 14 16  1  0  0  0  0
 14 17  1  0  0  0  0
 11 12  1  0  0  0  0
 11 13  1  0  0  0  0
 11 14  1  0  0  0  0
  9 10  1  0  0  0  0
  9 11  1  0  0  0  0
  9 26  1  0  0  0  0
  7  8  1  0  0  0  0
  7  9  1  0  0  0  0
 30 31  1  0  0  0  0
 30 32  1  0  0  0  0
 30 33  1  0  0  0  0
 28 29  1  0  0  0  0
 28 30  1  0  0  0  0
M  END
$$$$
default_name
  -OEChem-02102213163D

 33 32  0     1  0  0  0  0  0999 V2000
   -3.8420   -3.6918    1.5562 H   0  0  0  0  0  0  0  0  0  0  0  0
   -3.8430   -2.7008    1.1032 C   0  0  0  0  0  0  0  0  0  0  0  0
   -4.5510   -2.0608    1.6242 H   0  0  0  0  0  0  0  0  0  0  0  0
   -4.1140   -2.7798    0.0522 H   0  0  0  0  0  0  0  0  0  0  0  0
   -2.4570   -2.1098    1.2172 C   0  0  0  0  0  0  0  0  0  0  0  0
   -1.5600   -2.7438    1.7572 O   0  0  0  0  0  0  0  0  0  0  0  0
   -2.2870   -0.8898    0.7102 N   0  0  0  0  0  0  0  0  0  0  0  0
   -3.0820   -0.4218    0.2992 H   0  0  0  0  0  0  0  0  0  0  0  0
   -1.0240   -0.1468    0.7262 C   0  0  1  0  0  0  0  0  0  0  0  0
   -0.2680   -0.7367    0.2062 H   0  0  0  0  0  0  0  0  0  0  0  0
   -1.2212    1.1806   -0.0314 C   0  0  0  0  0  0  0  0  0  0  0  0
   -0.9860    1.0171   -1.0851 H   0  0  0  0  0  0  0  0  0  0  0  0
   -2.2664    1.4843    0.0411 H   0  0  0  0  0  0  0  0  0  0  0  0
   -0.3265    2.3165    0.4888 C   0  0  0  0  0  0  0  0  0  0  0  0
    0.7215    2.0346    0.3832 H   0  0  0  0  0  0  0  0  0  0  0  0
   -0.5147    3.2185   -0.0964 H   0  0  0  0  0  0  0  0  0  0  0  0
   -0.6129    2.6057    1.9667 C   0  0  0  0  0  0  0  0  0  0  0  0
   -1.6605    2.8818    2.0898 H   0  0  0  0  0  0  0  0  0  0  0  0
   -0.4033    1.7143    2.5588 H   0  0  0  0  0  0  0  0  0  0  0  0
    0.2709    3.7535    2.4511 C   0  0  0  0  0  0  0  0  0  0  0  0
    1.3177    3.4727    2.3464 H   0  0  0  0  0  0  0  0  0  0  0  0
    0.0757    4.6395    1.8493 H   0  0  0  0  0  0  0  0  0  0  0  0
    0.0050    4.0726    3.8585 N   0  0  0  0  0  0  0  0  0  0  0  0
    0.6144    4.8235    4.1481 H   0  0  0  0  0  0  0  0  0  0  0  0
   -0.9570    4.3646    3.9560 H   0  0  0  0  0  0  0  0  0  0  0  0
   -0.5564    0.0727    2.1744 C   0  0  0  0  0  0  0  0  0  0  0  0
    0.6169   -0.1288    2.4805 O   0  0  0  0  0  0  0  0  0  0  0  0
   -1.4759    0.4743    3.0595 N   0  0  0  0  0  0  0  0  0  0  0  0
   -2.4132    0.6318    2.7275 H   0  0  0  0  0  0  0  0  0  0  0  0
   -1.1971    0.7118    4.4750 C   0  0  0  0  0  0  0  0  0  0  0  0
   -0.3779    1.4272    4.5748 H   0  0  0  0  0  0  0  0  0  0  0  0
   -2.0826    1.1064    4.9754 H   0  0  0  0  0  0  0  0  0  0  0  0
   -0.8992   -0.2240    4.9525 H   0  0  0  0  0  0  0  0  0  0  0  0
  5  6  2  0  0  0  0
  5  7  1  0  0  0  0
  2  3  1  0  0  0  0
  2  4  1  0  0  0  0
  2  5  1  0  0  0  0
  1  2  1  0  0  0  0
 26 27  2  0  0  0  0
 26 28  1  0  0  0  0
 23 24  1  0  0  0  0
 23 25  1  0  0  0  0
 20 21  1  0  0  0  0
 20 22  1  0  0  0  0
 20 23  1  0  0  0  0
 17 18  1  0  0  0  0
 17 19  1  0  0  0  0
 17 20  1  0  0  0  0
 14 15  1  0  0  0  0
 14 16  1  0  0  0  0
 14 17  1  0  0  0  0
 11 12  1  0  0  0  0
 11 13  1  0  0  0  0
 11 14  1  0  0  0  0
  9 10  1  0  0  0  0
  9 11  1  0  0  0  0
  9 26  1  0  0  0  0
  7  8  1  0  0  0  0
  7  9  1  0  0  0  0
 30 31  1  0  0  0  0
 30 32  1  0  0  0  0
 30 33  1  0  0  0  0
 28 29  1  0  0  0  0
 28 30  1  0  0  0  0
M  END
$$$$
default_name
  -OEChem-02102213163D

 33 32  0     1  0  0  0  0  0999 V2000
   -3.8420   -3.6918    1.5562 H   0  0  0  0  0  0  0  0  0  0  0  0
   -3.8430   -2.7008    1.1032 C   0  0  0  0  0  0  0  0  0  0  0  0
   -4.5510   -2.0608    1.6242 H   0  0  0  0  0  0  0  0  0  0  0  0
   -4.1140   -2.7798    0.0522 H   0  0  0  0  0  0  0  0  0  0  0  0
   -2.4570   -2.1098    1.2172 C   0  0  0  0  0  0  0  0  0  0  0  0
   -1.5600   -2.7438    1.7572 O   0  0  0  0  0  0  0  0  0  0  0  0
   -2.2870   -0.8898    0.7102 N   0  0  0  0  0  0  0  0  0  0  0  0
   -3.0820   -0.4218    0.2992 H   0  0  0  0  0  0  0  0  0  0  0  0
   -1.0240   -0.1468    0.7262 C   0  0  1  0  0  0  0  0  0  0  0  0
   -0.2680   -0.7367    0.2062 H   0  0  0  0  0  0  0  0  0  0  0  0
   -1.2212    1.1806   -0.0314 C   0  0  0  0  0  0  0  0  0  0  0  0
   -0.9860    1.0171   -1.0851 H   0  0  0  0  0  0  0  0  0  0  0  0
   -2.2664    1.4843    0.0411 H   0  0  0  0  0  0  0  0  0  0  0  0
   -0.3265    2.3165    0.4888 C   0  0  0  0  0  0  0  0  0  0  0  0
    0.6975    2.1612    0.1481 H   0  0  0  0  0  0  0  0  0  0  0  0
   -0.6922    3.2685    0.0996 H   0  0  0  0  0  0  0  0  0  0  0  0
   -0.3349    2.3618    2.0210 C   0  0  0  0  0  0  0  0  0  0  0  0
   -1.3547    2.5090    2.3778 H   0  0  0  0  0  0  0  0  0  0  0  0
    0.0522    1.4215    2.4147 H   0  0  0  0  0  0  0  0  0  0  0  0
    0.5412    3.5134    2.5104 C   0  0  0  0  0  0  0  0  0  0  0  0
    1.5641    3.3589    2.1710 H   0  0  0  0  0  0  0  0  0  0  0  0
    0.1666    4.4514    2.1038 H   0  0  0  0  0  0  0  0  0  0  0  0
    0.5367    3.6003    3.9752 N   0  0  0  0  0  0  0  0  0  0  0  0
    1.1349    4.3608    4.2632 H   0  0  0  0  0  0  0  0  0  0  0  0
   -0.4056    3.7756    4.2939 H   0  0  0  0  0  0  0  0  0  0  0  0
   -0.5564    0.0727    2.1744 C   0  0  0  0  0  0  0  0  0  0  0  0
    0.6169   -0.1288    2.4805 O   0  0  0  0  0  0  0  0  0  0  0  0
   -1.4759    0.4743    3.0595 N   0  0  0  0  0  0  0  0  0  0  0  0
   -2.4132    0.6318    2.7275 H   0  0  0  0  0  0  0  0  0  0  0  0
   -1.1971    0.7118    4.4750 C   0  0  0  0  0  0  0  0  0  0  0  0
   -0.3779    1.4272    4.5748 H   0  0  0  0  0  0  0  0  0  0  0  0
   -2.0826    1.1064    4.9754 H   0  0  0  0  0  0  0  0  0  0  0  0
   -0.8992   -0.2240    4.9525 H   0  0  0  0  0  0  0  0  0  0  0  0
  5  6  2  0  0  0  0
  5  7  1  0  0  0  0
  2  3  1  0  0  0  0
  2  4  1  0  0  0  0
  2  5  1  0  0  0  0
  1  2  1  0  0  0  0
 26 27  2  0  0  0  0
 26 28  1  0  0  0  0
 23 24  1  0  0  0  0
 23 25  1  0  0  0  0
 20 21  1  0  0  0  0
 20 22  1  0  0  0  0
 20 23  1  0  0  0  0
 17 18  1  0  0  0  0
 17 19  1  0  0  0  0
 17 20  1  0  0  0  0
 14 15  1  0  0  0  0
 14 16  1  0  0  0  0
 14 17  1  0  0  0  0
 11 12  1  0  0  0  0
 11 13  1  0  0  0  0
 11 14  1  0  0  0  0
  9 10  1  0  0  0  0
  9 11  1  0  0  0  0
  9 26  1  0  0  0  0
  7  8  1  0  0  0  0
  7  9  1  0  0  0  0
 30 31  1  0  0  0  0
 30 32  1  0  0  0  0
 30 33  1  0  0  0  0
 28 29  1  0  0  0  0
 28 30  1  0  0  0  0
M  END
$$$$
default_name
  -OEChem-02102213163D

 33 32  0     1  0  0  0  0  0999 V2000
   -3.8420   -3.6918    1.5562 H   0  0  0  0  0  0  0  0  0  0  0  0
   -3.8430   -2.7008    1.1032 C   0  0  0  0  0  0  0  0  0  0  0  0
   -4.5510   -2.0608    1.6242 H   0  0  0  0  0  0  0  0  0  0  0  0
   -4.1140   -2.7798    0.0522 H   0  0  0  0  0  0  0  0  0  0  0  0
   -2.4570   -2.1098    1.2172 C   0  0  0  0  0  0  0  0  0  0  0  0
   -1.5600   -2.7438    1.7572 O   0  0  0  0  0  0  0  0  0  0  0  0
   -2.2870   -0.8898    0.7102 N   0  0  0  0  0  0  0  0  0  0  0  0
   -3.0820   -0.4218    0.2992 H   0  0  0  0  0  0  0  0  0  0  0  0
   -1.0240   -0.1468    0.7262 C   0  0  1  0  0  0  0  0  0  0  0  0
   -0.2680   -0.7367    0.2062 H   0  0  0  0  0  0  0  0  0  0  0  0
   -1.2212    1.1806   -0.0314 C   0  0  0  0  0  0  0  0  0  0  0  0
   -0.9860    1.0171   -1.0851 H   0  0  0  0  0  0  0  0  0  0  0  0
   -2.2664    1.4843    0.0411 H   0  0  0  0  0  0  0  0  0  0  0  0
   -0.3265    2.3165    0.4888 C   0  0  0  0  0  0  0  0  0  0  0  0
    0.6183    2.3168   -0.0554 H   0  0  0  0  0  0  0  0  0  0  0  0
   -0.8305    3.2717    0.3305 H   0  0  0  0  0  0  0  0  0  0  0  0
   -0.0346    2.1424    1.9836 C   0  0  0  0  0  0  0  0  0  0  0  0
   -0.9715    2.1323    2.5412 H   0  0  0  0  0  0  0  0  0  0  0  0
    0.4904    1.2003    2.1442 H   0  0  0  0  0  0  0  0  0  0  0  0
    0.8347    3.2963    2.4798 C   0  0  0  0  0  0  0  0  0  0  0  0
    1.7786    3.2971    1.9372 H   0  0  0  0  0  0  0  0  0  0  0  0
    0.3195    4.2392    2.3040 H   0  0  0  0  0  0  0  0  0  0  0  0
    1.1140    3.1731    3.9151 N   0  0  0  0  0  0  0  0  0  0  0  0
    1.7002    3.9421    4.2050 H   0  0  0  0  0  0  0  0  0  0  0  0
    0.2432    3.2040    4.4260 H   0  0  0  0  0  0  0  0  0  0  0  0
   -0.5564    0.0727    2.1744 C   0  0  0  0  0  0  0  0  0  0  0  0
    0.6169   -0.1288    2.4805 O   0  0  0  0  0  0  0  0  0  0  0  0
   -1.4759    0.4743    3.0595 N   0  0  0  0  0  0  0  0  0  0  0  0
   -2.4132    0.6318    2.7275 H   0  0  0  0  0  0  0  0  0  0  0  0
   -1.1971    0.7118    4.4750 C   0  0  0  0  0  0  0  0  0  0  0  0
   -0.3779    1.4272    4.5748 H   0  0  0  0  0  0  0  0  0  0  0  0
   -2.0826    1.1064    4.9754 H   0  0  0  0  0  0  0  0  0  0  0  0
   -0.8992   -0.2240    4.9525 H   0  0  0  0  0  0  0  0  0  0  0  0
  5  6  2  0  0  0  0
  5  7  1  0  0  0  0
  2  3  1  0  0  0  0
  2  4  1  0  0  0  0
  2  5  1  0  0  0  0
  1  2  1  0  0  0  0
 26 27  2  0  0  0  0
 26 28  1  0  0  0  0
 23 24  1  0  0  0  0
 23 25  1  0  0  0  0
 20 21  1  0  0  0  0
 20 22  1  0  0  0  0
 20 23  1  0  0  0  0
 17 18  1  0  0  0  0
 17 19  1  0  0  0  0
 17 20  1  0  0  0  0
 14 15  1  0  0  0  0
 14 16  1  0  0  0  0
 14 17  1  0  0  0  0
 11 12  1  0  0  0  0
 11 13  1  0  0  0  0
 11 14  1  0  0  0  0
  9 10  1  0  0  0  0
  9 11  1  0  0  0  0
  9 26  1  0  0  0  0
  7  8  1  0  0  0  0
  7  9  1  0  0  0  0
 30 31  1  0  0  0  0
 30 32  1  0  0  0  0
 30 33  1  0  0  0  0
 28 29  1  0  0  0  0
 28 30  1  0  0  0  0
M  END
$$$$
default_name
  -OEChem-02102213163D

 33 32  0     1  0  0  0  0  0999 V2000
   -3.8420   -3.6918    1.5562 H   0  0  0  0  0  0  0  0  0  0  0  0
   -3.8430   -2.7008    1.1032 C   0  0  0  0  0  0  0  0  0  0  0  0
   -4.5510   -2.0608    1.6242 H   0  0  0  0  0  0  0  0  0  0  0  0
   -4.1140   -2.7798    0.0522 H   0  0  0  0  0  0  0  0  0  0  0  0
   -2.4570   -2.1098    1.2172 C   0  0  0  0  0  0  0  0  0  0  0  0
   -1.5600   -2.7438    1.7572 O   0  0  0  0  0  0  0  0  0  0  0  0
   -2.2870   -0.8898    0.7102 N   0  0  0  0  0  0  0  0  0  0  0  0
   -3.0820   -0.4218    0.2992 H   0  0  0  0  0  0  0  0  0  0  0  0
   -1.0240   -0.1468    0.7262 C   0  0  1  0  0  0  0  0  0  0  0  0
   -0.2680   -0.7367    0.2062 H   0  0  0  0  0  0  0  0  0  0  0  0
   -1.2212    1.1806   -0.0314 C   0  0  0  0  0  0  0  0  0  0  0  0
   -0.9860    1.0171   -1.0851 H   0  0  0  0  0  0  0  0  0  0  0  0
   -2.2664    1.4843    0.0411 H   0  0  0  0  0  0  0  0  0  0  0  0
   -0.3265    2.3165    0.4888 C   0  0  0  0  0  0  0  0  0  0  0  0
    0.4892    2.4908   -0.2134 H   0  0  0  0  0  0  0  0  0  0  0  0
   -0.9202    3.2279    0.5804 H   0  0  0  0  0  0  0  0  0  0  0  0
    0.2676    1.9625    1.8569 C   0  0  0  0  0  0  0  0  0  0  0  0
   -0.5371    1.7774    2.5691 H   0  0  0  0  0  0  0  0  0  0  0  0
    0.8812    1.0658    1.7657 H   0  0  0  0  0  0  0  0  0  0  0  0
    1.1313    3.1168    2.3614 C   0  0  0  0  0  0  0  0  0  0  0  0
    1.9465    3.2913    1.6610 H   0  0  0  0  0  0  0  0  0  0  0  0
    0.5242    4.0175    2.4361 H   0  0  0  0  0  0  0  0  0  0  0  0
    1.6976    2.8201    3.6822 N   0  0  0  0  0  0  0  0  0  0  0  0
    2.2719    3.5960    3.9776 H   0  0  0  0  0  0  0  0  0  0  0  0
    0.9453    2.6888    4.3434 H   0  0  0  0  0  0  0  0  0  0  0  0
   -0.5564    0.0727    2.1744 C   0  0  0  0  0  0  0  0  0  0  0  0
    0.6169   -0.1288    2.4805 O   0  0  0  0  0  0  0  0  0  0  0  0
   -1.4759    0.4743    3.0595 N   0  0  0  0  0  0  0  0  0  0  0  0
   -2.4132    0.6318    2.7275 H   0  0  0  0  0  0  0  0  0  0  0  0
   -1.1971    0.7118    4.4750 C   0  0  0  0  0  0  0  0  0  0  0  0
   -0.3779    1.4272    4.5748 H   0  0  0  0  0  0  0  0  0  0  0  0
   -2.0826    1.1064    4.9754 H   0  0  0  0  0  0  0  0  0  0  0  0
   -0.8992   -0.2240    4.9525 H   0  0  0  0  0  0  0  0  0  0  0  0
  5  6  2  0  0  0  0
  5  7  1  0  0  0  0
  2  3  1  0  0  0  0
  2  4  1  0  0  0  0
  2  5  1  0  0  0  0
  1  2  1  0  0  0  0
 26 27  2  0  0  0  0
 26 28  1  0  0  0  0
 23 24  1  0  0  0  0
 23 25  1  0  0  0  0
 20 21  1  0  0  0  0
 20 22  1  0  0  0  0
 20 23  1  0  0  0  0
 17 18  1  0  0  0  0
 17 19  1  0  0  0  0
 17 20  1  0  0  0  0
 14 15  1  0  0  0  0
 14 16  1  0  0  0  0
 14 17  1  0  0  0  0
 11 12  1  0  0  0  0
 11 13  1  0  0  0  0
 11 14  1  0  0  0  0
  9 10  1  0  0  0  0
  9 11  1  0  0  0  0
  9 26  1  0  0  0  0
  7  8  1  0  0  0  0
  7  9  1  0  0  0  0
 30 31  1  0  0  0  0
 30 32  1  0  0  0  0
 30 33  1  0  0  0  0
 28 29  1  0  0  0  0
 28 30  1  0  0  0  0
M  END
$$$$
default_name
  -OEChem-02102213163D

 33 32  0     1  0  0  0  0  0999 V2000
   -3.8420   -3.6918    1.5562 H   0  0  0  0  0  0  0  0  0  0  0  0
   -3.8430   -2.7008    1.1032 C   0  0  0  0  0  0  0  0  0  0  0  0
   -4.5510   -2.0608    1.6242 H   0  0  0  0  0  0  0  0  0  0  0  0
   -4.1140   -2.7798    0.0522 H   0  0  0  0  0  0  0  0  0  0  0  0
   -2.4570   -2.1098    1.2172 C   0  0  0  0  0  0  0  0  0  0  0  0
   -1.5600   -2.7438    1.7572 O   0  0  0  0  0  0  0  0  0  0  0  0
   -2.2870   -0.8898    0.7102 N   0  0  0  0  0  0  0  0  0  0  0  0
   -3.0820   -0.4218    0.2992 H   0  0  0  0  0  0  0  0  0  0  0  0
   -1.0240   -0.1468    0.7262 C   0  0  1  0  0  0  0  0  0  0  0  0
   -0.2680   -0.7367    0.2062 H   0  0  0  0  0  0  0  0  0  0  0  0
   -1.2212    1.1806   -0.0314 C   0  0  0  0  0  0  0  0  0  0  0  0
   -0.9860    1.0171   -1.0851 H   0  0  0  0  0  0  0  0  0  0  0  0
   -2.2664    1.4843    0.0411 H   0  0  0  0  0  0  0  0  0  0  0  0
   -0.3265    2.3165    0.4888 C   0  0  0  0  0  0  0  0  0  0  0  0
    0.3191    2.6714   -0.3150 H   0  0  0  0  0  0  0  0  0  0  0  0
   -0.9552    3.1400    0.8323 H   0  0  0  0  0  0  0  0  0  0  0  0
    0.5509    1.8342    1.6496 C   0  0  0  0  0  0  0  0  0  0  0  0
   -0.0811    1.4685    2.4594 H   0  0  0  0  0  0  0  0  0  0  0  0
    1.1981    1.0271    1.3051 H   0  0  0  0  0  0  0  0  0  0  0  0
    1.4109    2.9874    2.1632 C   0  0  0  0  0  0  0  0  0  0  0  0
    2.0563    3.3421    1.3613 H   0  0  0  0  0  0  0  0  0  0  0  0
    0.7665    3.8014    2.4912 H   0  0  0  0  0  0  0  0  0  0  0  0
    2.2476    2.5654    3.2924 N   0  0  0  0  0  0  0  0  0  0  0  0
    2.8109    3.3460    3.5964 H   0  0  0  0  0  0  0  0  0  0  0  0
    1.6528    2.2652    4.0516 H   0  0  0  0  0  0  0  0  0  0  0  0
   -0.5564    0.0727    2.1744 C   0  0  0  0  0  0  0  0  0  0  0  0
    0.6169   -0.1288    2.4805 O   0  0  0  0  0  0  0  0  0  0  0  0
   -1.4759    0.4743    3.0595 N   0  0  0  0  0  0  0  0  0  0  0  0
   -2.4132    0.6318    2.7275 H   0  0  0  0  0  0  0  0  0  0  0  0
   -1.1971    0.7118    4.4750 C   0  0  0  0  0  0  0  0  0  0  0  0
   -0.3779    1.4272    4.5748 H   0  0  0  0  0  0  0  0  0  0  0  0
   -2.0826    1.1064    4.9754 H   0  0  0  0  0  0  0  0  0  0  0  0
   -0.8992   -0.2240    4.9525 H   0  0  0  0  0  0  0  0  0  0  0  0
  5  6  2  0  0  0  0
  5  7  1  0  0  0  0
  2  3  1  0  0  0  0
  2  4  1  0  0  0  0
  2  5  1  0  0  0  0
  1  2  1  0  0  0  0
 26 27  2  0  0  0  0
 26 28  1  0  0  0  0
 23 24  1  0  0  0  0
 23 25  1  0  0  0  0
 20 21  1  0  0  0  0
 20 22  1  0  0  0  0
 20 23  1  0  0  0  0
 17 18  1  0  0  0  0
 17 19  1  0  0  0  0
 17 20  1  0  0  0  0
 14 15  1  0  0  0  0
 14 16  1  0  0  0  0
 14 17  1  0  0  0  0
 11 12  1  0  0  0  0
 11 13  1  0  0  0  0
 11 14  1  0  0  0  0
  9 10  1  0  0  0  0
  9 11  1  0  0  0  0
  9 26  1  0  0  0  0
  7  8  1  0  0  0  0
  7  9  1  0  0  0  0
 30 31  1  0  0  0  0
 30 32  1  0  0  0  0
 30 33  1  0  0  0  0
 28 29  1  0  0  0  0
 28 30  1  0  0  0  0
M  END
$$$$
default_name
  -OEChem-02102213163D

 33 32  0     1  0  0  0  0  0999 V2000
   -3.8420   -3.6918    1.5562 H   0  0  0  0  0  0  0  0  0  0  0  0
   -3.8430   -2.7008    1.1032 C   0  0  0  0  0  0  0  0  0  0  0  0
   -4.5510   -2.0608    1.6242 H   0  0  0  0  0  0  0  0  0  0  0  0
   -4.1140   -2.7798    0.0522 H   0  0  0  0  0  0  0  0  0  0  0  0
   -2.4570   -2.1098    1.2172 C   0  0  0  0  0  0  0  0  0  0  0  0
   -1.5600   -2.7438    1.7572 O   0  0  0  0  0  0  0  0  0  0  0  0
   -2.2870   -0.8898    0.7102 N   0  0  0  0  0  0  0  0  0  0  0  0
   -3.0820   -0.4218    0.2992 H   0  0  0  0  0  0  0  0  0  0  0  0
   -1.0240   -0.1468    0.7262 C   0  0  1  0  0  0  0  0  0  0  0  0
   -0.2680   -0.7367    0.2062 H   0  0  0  0  0  0  0  0  0  0  0  0
   -1.2212    1.1806   -0.0314 C   0  0  0  0  0  0  0  0  0  0  0  0
   -0.9860    1.0171   -1.0851 H   0  0  0  0  0  0  0  0  0  0  0  0
   -2.2664    1.4843    0.0411 H   0  0  0  0  0  0  0  0  0  0  0  0
   -0.3265    2.3165    0.4888 C   0  0  0  0  0  0  0  0  0  0  0  0
    0.1195    2.8462   -0.3534 H   0  0  0  0  0  0  0  0  0  0  0  0
   -0.9331    3.0142    1.0691 H   0  0  0  0  0  0  0  0  0  0  0  0
    0.7962    1.7664    1.3758 C   0  0  0  0  0  0  0  0  0  0  0  0
    0.3655    1.2265    2.2196 H   0  0  0  0  0  0  0  0  0  0  0  0
    1.4195    1.0870    0.7937 H   0  0  0  0  0  0  0  0  0  0  0  0
    1.6544    2.9167    1.8988 C   0  0  0  0  0  0  0  0  0  0  0  0
    2.1006    3.4460    1.0584 H   0  0  0  0  0  0  0  0  0  0  0  0
    1.0301    3.6056    2.4654 H   0  0  0  0  0  0  0  0  0  0  0  0
    2.7267    2.4263    2.7723 N   0  0  0  0  0  0  0  0  0  0  0  0
    3.2805    3.2092    3.0874 H   0  0  0  0  0  0  0  0  0  0  0  0
    2.3175    1.9619    3.5706 H   0  0  0  0  0  0  0  0  0  0  0  0
   -0.5564    0.0727    2.1744 C   0  0  0  0  0  0  0  0  0  0  0  0
    0.6169   -0.1288    2.4805 O   0  0  0  0  0  0  0  0  0  0  0  0
   -1.4759    0.4743    3.0595 N   0  0  0  0  0  0  0  0  0  0  0  0
   -2.4132    0.6318    2.7275 H   0  0  0  0  0  0  0  0  0  0  0  0
   -1.1971    0.7118    4.4750 C   0  0  0  0  0  0  0  0  0  0  0  0
   -0.3779    1.4272    4.5748 H   0  0  0  0  0  0  0  0  0  0  0  0
   -2.0826    1.1064    4.9754 H   0  0  0  0  0  0  0  0  0  0  0  0
   -0.8992   -0.2240    4.9525 H   0  0  0  0  0  0  0  0  0  0  0  0
  5  6  2  0  0  0  0
  5  7  1  0  0  0  0
  2  3  1  0  0  0  0
  2  4  1  0  0  0  0
  2  5  1  0  0  0  0
  1  2  1  0  0  0  0
 26 27  2  0  0  0  0
 26 28  1  0  0  0  0
 23 24  1  0  0  0  0
 23 25  1  0  0  0  0
 20 21  1  0  0  0  0
 20 22  1  0  0  0  0
 20 23  1  0  0  0  0
 17 18  1  0  0  0  0
 17 19  1  0  0  0  0
 17 20  1  0  0  0  0
 14 15  1  0  0  0  0
 14 16  1  0  0  0  0
 14 17  1  0  0  0  0
 11 12  1  0  0  0  0
 11 13  1  0  0  0  0
 11 14  1  0  0  0  0
  9 10  1  0  0  0  0
  9 11  1  0  0  0  0
  9 26  1  0  0  0  0
  7  8  1  0  0  0  0
  7  9  1  0  0  0  0
 30 31  1  0  0  0  0
 30 32  1  0  0  0  0
 30 33  1  0  0  0  0
 28 29  1  0  0  0  0
 28 30  1  0  0  0  0
M  END
$$$$
default_name
  -OEChem-02102213163D

 33 32  0     1  0  0  0  0  0999 V2000
   -3.8420   -3.6918    1.5562 H   0  0  0  0  0  0  0  0  0  0  0  0
   -3.8430   -2.7008    1.1032 C   0  0  0  0  0  0  0  0  0  0  0  0
   -4.5510   -2.0608    1.6242 H   0  0  0  0  0  0  0  0  0  0  0  0
   -4.1140   -2.7798    0.0522 H   0  0  0  0  0  0  0  0  0  0  0  0
   -2.4570   -2.1098    1.2172 C   0  0  0  0  0  0  0  0  0  0  0  0
   -1.5600   -2.7438    1.7572 O   0  0  0  0  0  0  0  0  0  0  0  0
   -2.2870   -0.8898    0.7102 N   0  0  0  0  0  0  0  0  0  0  0  0
   -3.0820   -0.4218    0.2992 H   0  0  0  0  0  0  0  0  0  0  0  0
   -1.0240   -0.1468    0.7262 C   0  0  1  0  0  0  0  0  0  0  0  0
   -0.2680   -0.7367    0.2062 H   0  0  0  0  0  0  0  0  0  0  0  0
   -1.2212    1.1806   -0.0314 C   0  0  0  0  0  0  0  0  0  0  0  0
   -0.9860    1.0171   -1.0851 H   0  0  0  0  0  0  0  0  0  0  0  0
   -2.2664    1.4843    0.0411 H   0  0  0  0  0  0  0  0  0  0  0  0
   -0.3265    2.3165    0.4888 C   0  0  0  0  0  0  0  0  0  0  0  0
   -0.0960    3.0034   -0.3260 H   0  0  0  0  0  0  0  0  0  0  0  0
   -0.8554    2.8588    1.2747 H   0  0  0  0  0  0  0  0  0  0  0  0
    0.9867    1.7637    1.0542 C   0  0  0  0  0  0  0  0  0  0  0  0
    0.7721    1.0681    1.8661 H   0  0  0  0  0  0  0  0  0  0  0  0
    1.5303    1.2412    0.2665 H   0  0  0  0  0  0  0  0  0  0  0  0
    1.8452    2.9096    1.5862 C   0  0  0  0  0  0  0  0  0  0  0  0
    2.0763    3.5958    0.7730 H   0  0  0  0  0  0  0  0  0  0  0  0
    1.2969    3.4434    2.3606 H   0  0  0  0  0  0  0  0  0  0  0  0
    3.1021    2.4123    2.1573 N   0  0  0  0  0  0  0  0  0  0  0  0
    3.6488    3.1950    2.4853 H   0  0  0  0  0  0  0  0  0  0  0  0
    2.8941    1.7998    2.9331 H   0  0  0  0  0  0  0  0  0  0  0  0
   -0.5564    0.0727    2.1744 C   0  0  0  0  0  0  0  0  0  0  0  0
    0.6169   -0.1288    2.4805 O   0  0  0  0  0  0  0  0  0  0  0  0
   -1.4759    0.4743    3.0595 N   0  0  0  0  0  0  0  0  0  0  0  0
   -2.4132    0.6318    2.7275 H   0  0  0  0  0  0  0  0  0  0  0  0
   -1.1971    0.7118    4.4750 C   0  0  0  0  0  0  0  0  0  0  0  0
   -0.3779    1.4272    4.5748 H   0  0  0  0  0  0  0  0  0  0  0  0
   -2.0826    1.1064    4.9754 H   0  0  0  0  0  0  0  0  0  0  0  0
   -0.8992   -0.2240    4.9525 H   0  0  0  0  0  0  0  0  0  0  0  0
  5  6  2  0  0  0  0
  5  7  1  0  0  0  0
  2  3  1  0  0  0  0
  2  4  1  0  0  0  0
  2  5  1  0  0  0  0
  1  2  1  0  0  0  0
 26 27  2  0  0  0  0
 26 28  1  0  0  0  0
 23 24  1  0  0  0  0
 23 25  1  0  0  0  0
 20 21  1  0  0  0  0
 20 22  1  0  0  0  0
 20 23  1  0  0  0  0
 17 18  1  0  0  0  0
 17 19  1  0  0  0  0
 17 20  1  0  0  0  0
 14 15  1  0  0  0  0
 14 16  1  0  0  0  0
 14 17  1  0  0  0  0
 11 12  1  0  0  0  0
 11 13  1  0  0  0  0
 11 14  1  0  0  0  0
  9 10  1  0  0  0  0
  9 11  1  0  0  0  0
  9 26  1  0  0  0  0
  7  8  1  0  0  0  0
  7  9  1  0  0  0  0
 30 31  1  0  0  0  0
 30 32  1  0  0  0  0
 30 33  1  0  0  0  0
 28 29  1  0  0  0  0
 28 30  1  0  0  0  0
M  END
$$$$
default_name
  -OEChem-02102213163D

 33 32  0     1  0  0  0  0  0999 V2000
   -3.8420   -3.6918    1.5562 H   0  0  0  0  0  0  0  0  0  0  0  0
   -3.8430   -2.7008    1.1032 C   0  0  0  0  0  0  0  0  0  0  0  0
   -4.5510   -2.0608    1.6242 H   0  0  0  0  0  0  0  0  0  0  0  0
   -4.1140   -2.7798    0.0522 H   0  0  0  0  0  0  0  0  0  0  0  0
   -2.4570   -2.1098    1.2172 C   0  0  0  0  0  0  0  0  0  0  0  0
   -1.5600   -2.7438    1.7572 O   0  0  0  0  0  0  0  0  0  0  0  0
   -2.2870   -0.8898    0.7102 N   0  0  0  0  0  0  0  0  0  0  0  0
   -3.0820   -0.4218    0.2992 H   0  0  0  0  0  0  0  0  0  0  0  0
   -1.0240   -0.1468    0.7262 C   0  0  1  0  0  0  0  0  0  0  0  0
   -0.2680   -0.7367    0.2062 H   0  0  0  0  0  0  0  0  0  0  0  0
   -1.2212    1.1806   -0.0314 C   0  0  0  0  0  0  0  0  0  0  0  0
   -0.9860    1.0171   -1.0851 H   0  0  0  0  0  0  0  0  0  0  0  0
   -2.2664    1.4843    0.0411 H   0  0  0  0  0  0  0  0  0  0  0  0
   -0.3265    2.3165    0.4888 C   0  0  0  0  0  0  0  0  0  0  0  0
   -0.3127    3.1322   -0.2346 H   0  0  0  0  0  0  0  0  0  0  0  0
   -0.7275    2.6846    1.4350 H   0  0  0  0  0  0  0  0  0  0  0  0
    1.1094    1.8262    0.7067 C   0  0  0  0  0  0  0  0  0  0  0  0
    1.1112    1.0040    1.4230 H   0  0  0  0  0  0  0  0  0  0  0  0
    1.5229    1.4794   -0.2408 H   0  0  0  0  0  0  0  0  0  0  0  0
    1.9703    2.9665    1.2466 C   0  0  0  0  0  0  0  0  0  0  0  0
    1.9851    3.7814    0.5246 H   0  0  0  0  0  0  0  0  0  0  0  0
    1.5488    3.3260    2.1839 H   0  0  0  0  0  0  0  0  0  0  0  0
    3.3483    2.5243    1.4893 N   0  0  0  0  0  0  0  0  0  0  0  0
    3.8905    3.3042    1.8312 H   0  0  0  0  0  0  0  0  0  0  0  0
    3.3433    1.7897    2.1826 H   0  0  0  0  0  0  0  0  0  0  0  0
   -0.5564    0.0727    2.1744 C   0  0  0  0  0  0  0  0  0  0  0  0
    0.6169   -0.1288    2.4805 O   0  0  0  0  0  0  0  0  0  0  0  0
   -1.4759    0.4743    3.0595 N   0  0  0  0  0  0  0  0  0  0  0  0
   -2.4132    0.6318    2.7275 H   0  0  0  0  0  0  0  0  0  0  0  0
   -1.1971    0.7118    4.4750 C   0  0  0  0  0  0  0  0  0  0  0  0
   -0.3779    1.4272    4.5748 H   0  0  0  0  0  0  0  0  0  0  0  0
   -2.0826    1.1064    4.9754 H   0  0  0  0  0  0  0  0  0  0  0  0
   -0.8992   -0.2240    4.9525 H   0  0  0  0  0  0  0  0  0  0  0  0
  5  6  2  0  0  0  0
  5  7  1  0  0  0  0
  2  3  1  0  0  0  0
  2  4  1  0  0  0  0
  2  5  1  0  0  0  0
  1  2  1  0  0  0  0
 26 27  2  0  0  0  0
 26 28  1  0  0  0  0
 23 24  1  0  0  0  0
 23 25  1  0  0  0  0
 20 21  1  0  0  0  0
 20 22  1  0  0  0  0
 20 23  1  0  0  0  0
 17 18  1  0  0  0  0
 17 19  1  0  0  0  0
 17 20  1  0  0  0  0
 14 15  1  0  0  0  0
 14 16  1  0  0  0  0
 14 17  1  0  0  0  0
 11 12  1  0  0  0  0
 11 13  1  0  0  0  0
 11 14  1  0  0  0  0
  9 10  1  0  0  0  0
  9 11  1  0  0  0  0
  9 26  1  0  0  0  0
  7  8  1  0  0  0  0
  7  9  1  0  0  0  0
 30 31  1  0  0  0  0
 30 32  1  0  0  0  0
 30 33  1  0  0  0  0
 28 29  1  0  0  0  0
 28 30  1  0  0  0  0
M  END
$$$$
default_name
  -OEChem-02102213163D

 33 32  0     1  0  0  0  0  0999 V2000
   -3.8420   -3.6918    1.5562 H   0  0  0  0  0  0  0  0  0  0  0  0
   -3.8430   -2.7008    1.1032 C   0  0  0  0  0  0  0  0  0  0  0  0
   -4.5510   -2.0608    1.6242 H   0  0  0  0  0  0  0  0  0  0  0  0
   -4.1140   -2.7798    0.0522 H   0  0  0  0  0  0  0  0  0  0  0  0
   -2.4570   -2.1098    1.2172 C   0  0  0  0  0  0  0  0  0  0  0  0
   -1.5600   -2.7438    1.7572 O   0  0  0  0  0  0  0  0  0  0  0  0
   -2.2870   -0.8898    0.7102 N   0  0  0  0  0  0  0  0  0  0  0  0
   -3.0820   -0.4218    0.2992 H   0  0  0  0  0  0  0  0  0  0  0  0
   -1.0240   -0.1468    0.7262 C   0  0  1  0  0  0  0  0  0  0  0  0
   -0.2680   -0.7367    0.2062 H   0  0  0  0  0  0  0  0  0  0  0  0
   -1.2212    1.1806   -0.0314 C   0  0  0  0  0  0  0  0  0  0  0  0
   -0.9860    1.0171   -1.0851 H   0  0  0  0  0  0  0  0  0  0  0  0
   -2.2664    1.4843    0.0411 H   0  0  0  0  0  0  0  0  0  0  0  0
   -0.3265    2.3165    0.4888 C   0  0  0  0  0  0  0  0  0  0  0  0
   -0.5158    3.2238   -0.0854 H   0  0  0  0  0  0  0  0  0  0  0  0
   -0.5579    2.5034    1.5391 H   0  0  0  0  0  0  0  0  0  0  0  0
    1.1560    1.9497    0.3570 C   0  0  0  0  0  0  0  0  0  0  0  0
    1.3596    1.0385    0.9204 H   0  0  0  0  0  0  0  0  0  0  0  0
    1.3978    1.7852   -0.6934 H   0  0  0  0  0  0  0  0  0  0  0  0
    2.0212    3.0837    0.9033 C   0  0  0  0  0  0  0  0  0  0  0  0
    1.8332    3.9901    0.3301 H   0  0  0  0  0  0  0  0  0  0  0  0
    1.7686    3.2612    1.9473 H   0  0  0  0  0  0  0  0  0  0  0  0
    3.4485    2.7548    0.8139 N   0  0  0  0  0  0  0  0  0  0  0  0
    3.9893    3.5294    1.1695 H   0  0  0  0  0  0  0  0  0  0  0  0
    3.6345    1.9324    1.3701 H   0  0  0  0  0  0  0  0  0  0  0  0
   -0.5564    0.0727    2.1744 C   0  0  0  0  0  0  0  0  0  0  0  0
    0.6169   -0.1288    2.4805 O   0  0  0  0  0  0  0  0  0  0  0  0
   -1.4759    0.4743    3.0595 N   0  0  0  0  0  0  0  0  0  0  0  0
   -2.4132    0.6318    2.7275 H   0  0  0  0  0  0  0  0  0  0  0  0
   -1.1971    0.7118    4.4750 C   0  0  0  0  0  0  0  0  0  0  0  0
   -0.3779    1.4272    4.5748 H   0  0  0  0  0  0  0  0  0  0  0  0
   -2.0826    1.1064    4.9754 H   0  0  0  0  0  0  0  0  0  0  0  0
   -0.8992   -0.2240    4.9525 H   0  0  0  0  0  0  0  0  0  0  0  0
  5  6  2  0  0  0  0
  5  7  1  0  0  0  0
  2  3  1  0  0  0  0
  2  4  1  0  0  0  0
  2  5  1  0  0  0  0
  1  2  1  0  0  0  0
 26 27  2  0  0  0  0
 26 28  1  0  0  0  0
 23 24  1  0  0  0  0
 23 25  1  0  0  0  0
 20 21  1  0  0  0  0
 20 22  1  0  0  0  0
 20 23  1  0  0  0  0
 17 18  1  0  0  0  0
 17 19  1  0  0  0  0
 17 20  1  0  0  0  0
 14 15  1  0  0  0  0
 14 16  1  0  0  0  0
 14 17  1  0  0  0  0
 11 12  1  0  0  0  0
 11 13  1  0  0  0  0
 11 14  1  0  0  0  0
  9 10  1  0  0  0  0
  9 11  1  0  0  0  0
  9 26  1  0  0  0  0
  7  8  1  0  0  0  0
  7  9  1  0  0  0  0
 30 31  1  0  0  0  0
 30 32  1  0  0  0  0
 30 33  1  0  0  0  0
 28 29  1  0  0  0  0
 28 30  1  0  0  0  0
M  END
$$$$
default_name
  -OEChem-02102213163D

 33 32  0     1  0  0  0  0  0999 V2000
   -3.8420   -3.6918    1.5562 H   0  0  0  0  0  0  0  0  0  0  0  0
   -3.8430   -2.7008    1.1032 C   0  0  0  0  0  0  0  0  0  0  0  0
   -4.5510   -2.0608    1.6242 H   0  0  0  0  0  0  0  0  0  0  0  0
   -4.1140   -2.7798    0.0522 H   0  0  0  0  0  0  0  0  0  0  0  0
   -2.4570   -2.1098    1.2172 C   0  0  0  0  0  0  0  0  0  0  0  0
   -1.5600   -2.7438    1.7572 O   0  0  0  0  0  0  0  0  0  0  0  0
   -2.2870   -0.8898    0.7102 N   0  0  0  0  0  0  0  0  0  0  0  0
   -3.0820   -0.4218    0.2992 H   0  0  0  0  0  0  0  0  0  0  0  0
   -1.0240   -0.1468    0.7262 C   0  0  1  0  0  0  0  0  0  0  0  0
   -0.2680   -0.7367    0.2062 H   0  0  0  0  0  0  0  0  0  0  0  0
   -1.2212    1.1806   -0.0314 C   0  0  0  0  0  0  0  0  0  0  0  0
   -0.9860    1.0171   -1.0851 H   0  0  0  0  0  0  0  0  0  0  0  0
   -2.2664    1.4843    0.0411 H   0  0  0  0  0  0  0  0  0  0  0  0
   -0.3265    2.3165    0.4888 C   0  0  0  0  0  0  0  0  0  0  0  0
   -0.6914    3.2721    0.1113 H   0  0  0  0  0  0  0  0  0  0  0  0
   -0.3584    2.3275    1.5799 H   0  0  0  0  0  0  0  0  0  0  0  0
    1.1233    2.1257    0.0289 C   0  0  0  0  0  0  0  0  0  0  0  0
    1.5003    1.1694    0.3927 H   0  0  0  0  0  0  0  0  0  0  0  0
    1.1636    2.1379   -1.0607 H   0  0  0  0  0  0  0  0  0  0  0  0
    1.9944    3.2531    0.5795 C   0  0  0  0  0  0  0  0  0  0  0  0
    1.6310    4.2078    0.2027 H   0  0  0  0  0  0  0  0  0  0  0  0
    1.9413    3.2536    1.6670 H   0  0  0  0  0  0  0  0  0  0  0  0
    3.3959    3.0879    0.1770 N   0  0  0  0  0  0  0  0  0  0  0  0
    3.9384    3.8554    0.5454 H   0  0  0  0  0  0  0  0  0  0  0  0
    3.7478    2.2182    0.5512 H   0  0  0  0  0  0  0  0  0  0  0  0
   -0.5564    0.0727    2.1744 C   0  0  0  0  0  0  0  0  0  0  0  0
    0.6169   -0.1288    2.4805 O   0  0  0  0  0  0  0  0  0  0  0  0
   -1.4759    0.4743    3.0595 N   0  0  0  0  0  0  0  0  0  0  0  0
   -2.4132    0.6318    2.7275 H   0  0  0  0  0  0  0  0  0  0  0  0
   -1.1971    0.7118    4.4750 C   0  0  0  0  0  0  0  0  0  0  0  0
   -0.3779    1.4272    4.5748 H   0  0  0  0  0  0  0  0  0  0  0  0
   -2.0826    1.1064    4.9754 H   0  0  0  0  0  0  0  0  0  0  0  0
   -0.8992   -0.2240    4.9525 H   0  0  0  0  0  0  0  0  0  0  0  0
  5  6  2  0  0  0  0
  5  7  1  0  0  0  0
  2  3  1  0  0  0  0
  2  4  1  0  0  0  0
  2  5  1  0  0  0  0
  1  2  1  0  0  0  0
 26 27  2  0  0  0  0
 26 28  1  0  0  0  0
 23 24  1  0  0  0  0
 23 25  1  0  0  0  0
 20 21  1  0  0  0  0
 20 22  1  0  0  0  0
 20 23  1  0  0  0  0
 17 18  1  0  0  0  0
 17 19  1  0  0  0  0
 17 20  1  0  0  0  0
 14 15  1  0  0  0  0
 14 16  1  0  0  0  0
 14 17  1  0  0  0  0
 11 12  1  0  0  0  0
 11 13  1  0  0  0  0
 11 14  1  0  0  0  0
  9 10  1  0  0  0  0
  9 11  1  0  0  0  0
  9 26  1  0  0  0  0
  7  8  1  0  0  0  0
  7  9  1  0  0  0  0
 30 31  1  0  0  0  0
 30 32  1  0  0  0  0
 30 33  1  0  0  0  0
 28 29  1  0  0  0  0
 28 30  1  0  0  0  0
M  END
$$$$
default_name
  -OEChem-02102213163D

 33 32  0     1  0  0  0  0  0999 V2000
   -3.8420   -3.6918    1.5562 H   0  0  0  0  0  0  0  0  0  0  0  0
   -3.8430   -2.7008    1.1032 C   0  0  0  0  0  0  0  0  0  0  0  0
   -4.5510   -2.0608    1.6242 H   0  0  0  0  0  0  0  0  0  0  0  0
   -4.1140   -2.7798    0.0522 H   0  0  0  0  0  0  0  0  0  0  0  0
   -2.4570   -2.1098    1.2172 C   0  0  0  0  0  0  0  0  0  0  0  0
   -1.5600   -2.7438    1.7572 O   0  0  0  0  0  0  0  0  0  0  0  0
   -2.2870   -0.8898    0.7102 N   0  0  0  0  0  0  0  0  0  0  0  0
   -3.0820   -0.4218    0.2992 H   0  0  0  0  0  0  0  0  0  0  0  0
   -1.0240   -0.1468    0.7262 C   0  0  1  0  0  0  0  0  0  0  0  0
   -0.2680   -0.7367    0.2062 H   0  0  0  0  0  0  0  0  0  0  0  0
   -1.2212    1.1806   -0.0314 C   0  0  0  0  0  0  0  0  0  0  0  0
   -0.9860    1.0171   -1.0851 H   0  0  0  0  0  0  0  0  0  0  0  0
   -2.2664    1.4843    0.0411 H   0  0  0  0  0  0  0  0  0  0  0  0
   -0.3265    2.3165    0.4888 C   0  0  0  0  0  0  0  0  0  0  0  0
   -0.8277    3.2737    0.3422 H   0  0  0  0  0  0  0  0  0  0  0  0
   -0.1424    2.1690    1.5546 H   0  0  0  0  0  0  0  0  0  0  0  0
    1.0135    2.3423   -0.2552 C   0  0  0  0  0  0  0  0  0  0  0  0
    1.5238    1.3877   -0.1243 H   0  0  0  0  0  0  0  0  0  0  0  0
    0.8362    2.5134   -1.3174 H   0  0  0  0  0  0  0  0  0  0  0  0
    1.8918    3.4631    0.2975 C   0  0  0  0  0  0  0  0  0  0  0  0
    1.3923    4.4194    0.1511 H   0  0  0  0  0  0  0  0  0  0  0  0
    2.0552    3.3036    1.3620 H   0  0  0  0  0  0  0  0  0  0  0  0
    3.1940    3.5011   -0.3779 N   0  0  0  0  0  0  0  0  0  0  0  0
    3.7412    4.2598    0.0014 H   0  0  0  0  0  0  0  0  0  0  0  0
    3.6756    2.6277   -0.2184 H   0  0  0  0  0  0  0  0  0  0  0  0
   -0.5564    0.0727    2.1744 C   0  0  0  0  0  0  0  0  0  0  0  0
    0.6169   -0.1288    2.4805 O   0  0  0  0  0  0  0  0  0  0  0  0
   -1.4759    0.4743    3.0595 N   0  0  0  0  0  0  0  0  0  0  0  0
   -2.4132    0.6318    2.7275 H   0  0  0  0  0  0  0  0  0  0  0  0
   -1.1971    0.7118    4.4750 C   0  0  0  0  0  0  0  0  0  0  0  0
   -0.3779    1.4272    4.5748 H   0  0  0  0  0  0  0  0  0  0  0  0
   -2.0826    1.1064    4.9754 H   0  0  0  0  0  0  0  0  0  0  0  0
   -0.8992   -0.2240    4.9525 H   0  0  0  0  0  0  0  0  0  0  0  0
  5  6  2  0  0  0  0
  5  7  1  0  0  0  0
  2  3  1  0  0  0  0
  2  4  1  0  0  0  0
  2  5  1  0  0  0  0
  1  2  1  0  0  0  0
 26 27  2  0  0  0  0
 26 28  1  0  0  0  0
 23 24  1  0  0  0  0
 23 25  1  0  0  0  0
 20 21  1  0  0  0  0
 20 22  1  0  0  0  0
 20 23  1  0  0  0  0
 17 18  1  0  0  0  0
 17 19  1  0  0  0  0
 17 20  1  0  0  0  0
 14 15  1  0  0  0  0
 14 16  1  0  0  0  0
 14 17  1  0  0  0  0
 11 12  1  0  0  0  0
 11 13  1  0  0  0  0
 11 14  1  0  0  0  0
  9 10  1  0  0  0  0
  9 11  1  0  0  0  0
  9 26  1  0  0  0  0
  7  8  1  0  0  0  0
  7  9  1  0  0  0  0
 30 31  1  0  0  0  0
 30 32  1  0  0  0  0
 30 33  1  0  0  0  0
 28 29  1  0  0  0  0
 28 30  1  0  0  0  0
M  END
$$$$
default_name
  -OEChem-02102213163D

 33 32  0     1  0  0  0  0  0999 V2000
   -3.8420   -3.6918    1.5562 H   0  0  0  0  0  0  0  0  0  0  0  0
   -3.8430   -2.7008    1.1032 C   0  0  0  0  0  0  0  0  0  0  0  0
   -4.5510   -2.0608    1.6242 H   0  0  0  0  0  0  0  0  0  0  0  0
   -4.1140   -2.7798    0.0522 H   0  0  0  0  0  0  0  0  0  0  0  0
   -2.4570   -2.1098    1.2172 C   0  0  0  0  0  0  0  0  0  0  0  0
   -1.5600   -2.7438    1.7572 O   0  0  0  0  0  0  0  0  0  0  0  0
   -2.2870   -0.8898    0.7102 N   0  0  0  0  0  0  0  0  0  0  0  0
   -3.0820   -0.4218    0.2992 H   0  0  0  0  0  0  0  0  0  0  0  0
   -1.0240   -0.1468    0.7262 C   0  0  1  0  0  0  0  0  0  0  0  0
   -0.2680   -0.7367    0.2062 H   0  0  0  0  0  0  0  0  0  0  0  0
   -1.2212    1.1806   -0.0314 C   0  0  0  0  0  0  0  0  0  0  0  0
   -0.9860    1.0171   -1.0851 H   0  0  0  0  0  0  0  0  0  0  0  0
   -2.2664    1.4843    0.0411 H   0  0  0  0  0  0  0  0  0  0  0  0
   -0.3265    2.3165    0.4888 C   0  0  0  0  0  0  0  0  0  0  0  0
   -0.9153    3.2284    0.5915 H   0  0  0  0  0  0  0  0  0  0  0  0
    0.0752    2.0386    1.4650 H   0  0  0  0  0  0  0  0  0  0  0  0
    0.8341    2.5848   -0.4760 C   0  0  0  0  0  0  0  0  0  0  0  0
    1.4285    1.6785   -0.5952 H   0  0  0  0  0  0  0  0  0  0  0  0
    0.4380    2.8860   -1.4462 H   0  0  0  0  0  0  0  0  0  0  0  0
    1.7203    3.6995    0.0763 C   0  0  0  0  0  0  0  0  0  0  0  0
    1.1333    4.6108    0.1788 H   0  0  0  0  0  0  0  0  0  0  0  0
    2.1024    3.4078    1.0532 H   0  0  0  0  0  0  0  0  0  0  0  0
    2.8566    3.9661   -0.8130 N   0  0  0  0  0  0  0  0  0  0  0  0
    3.4113    4.7152   -0.4253 H   0  0  0  0  0  0  0  0  0  0  0  0
    3.4227    3.1328   -0.8863 H   0  0  0  0  0  0  0  0  0  0  0  0
   -0.5564    0.0727    2.1744 C   0  0  0  0  0  0  0  0  0  0  0  0
    0.6169   -0.1288    2.4805 O   0  0  0  0  0  0  0  0  0  0  0  0
   -1.4759    0.4743    3.0595 N   0  0  0  0  0  0  0  0  0  0  0  0
   -2.4132    0.6318    2.7275 H   0  0  0  0  0  0  0  0  0  0  0  0
   -1.1971    0.7118    4.4750 C   0  0  0  0  0  0  0  0  0  0  0  0
   -0.3779    1.4272    4.5748 H   0  0  0  0  0  0  0  0  0  0  0  0
   -2.0826    1.1064    4.9754 H   0  0  0  0  0  0  0  0  0  0  0  0
   -0.8992   -0.2240    4.9525 H   0  0  0  0  0  0  0  0  0  0  0  0
  5  6  2  0  0  0  0
  5  7  1  0  0  0  0
  2  3  1  0  0  0  0
  2  4  1  0  0  0  0
  2  5  1  0  0  0  0
  1  2  1  0  0  0  0
 26 27  2  0  0  0  0
 26 28  1  0  0  0  0
 23 24  1  0  0  0  0
 23 25  1  0  0  0  0
 20 21  1  0  0  0  0
 20 22  1  0  0  0  0
 20 23  1  0  0  0  0
 17 18  1  0  0  0  0
 17 19  1  0  0  0  0
 17 20  1  0  0  0  0
 14 15  1  0  0  0  0
 14 16  1  0  0  0  0
 14 17  1  0  0  0  0
 11 12  1  0  0  0  0
 11 13  1  0  0  0  0
 11 14  1  0  0  0  0
  9 10  1  0  0  0  0
  9 11  1  0  0  0  0
  9 26  1  0  0  0  0
  7  8  1  0  0  0  0
  7  9  1  0  0  0  0
 30 31  1  0  0  0  0
 30 32  1  0  0  0  0
 30 33  1  0  0  0  0
 28 29  1  0  0  0  0
 28 30  1  0  0  0  0
M  END
$$$$
default_name
  -OEChem-02102213163D

 33 32  0     1  0  0  0  0  0999 V2000
   -3.8420   -3.6918    1.5562 H   0  0  0  0  0  0  0  0  0  0  0  0
   -3.8430   -2.7008    1.1032 C   0  0  0  0  0  0  0  0  0  0  0  0
   -4.5510   -2.0608    1.6242 H   0  0  0  0  0  0  0  0  0  0  0  0
   -4.1140   -2.7798    0.0522 H   0  0  0  0  0  0  0  0  0  0  0  0
   -2.4570   -2.1098    1.2172 C   0  0  0  0  0  0  0  0  0  0  0  0
   -1.5600   -2.7438    1.7572 O   0  0  0  0  0  0  0  0  0  0  0  0
   -2.2870   -0.8898    0.7102 N   0  0  0  0  0  0  0  0  0  0  0  0
   -3.0820   -0.4218    0.2992 H   0  0  0  0  0  0  0  0  0  0  0  0
   -1.0240   -0.1468    0.7262 C   0  0  1  0  0  0  0  0  0  0  0  0
   -0.2680   -0.7367    0.2062 H   0  0  0  0  0  0  0  0  0  0  0  0
   -1.2212    1.1806   -0.0314 C   0  0  0  0  0  0  0  0  0  0  0  0
   -0.9860    1.0171   -1.0851 H   0  0  0  0  0  0  0  0  0  0  0  0
   -2.2664    1.4843    0.0411 H   0  0  0  0  0  0  0  0  0  0  0  0
   -0.3265    2.3165    0.4888 C   0  0  0  0  0  0  0  0  0  0  0  0
   -0.9482    3.1395    0.8423 H   0  0  0  0  0  0  0  0  0  0  0  0
    0.2798    1.9452    1.3171 H   0  0  0  0  0  0  0  0  0  0  0  0
    0.5973    2.8365   -0.6184 C   0  0  0  0  0  0  0  0  0  0  0  0
    1.2209    2.0220   -0.9881 H   0  0  0  0  0  0  0  0  0  0  0  0
   -0.0040    3.2305   -1.4383 H   0  0  0  0  0  0  0  0  0  0  0  0
    1.4916    3.9461   -0.0688 C   0  0  0  0  0  0  0  0  0  0  0  0
    0.8716    4.7687    0.2840 H   0  0  0  0  0  0  0  0  0  0  0  0
    2.0798    3.5591    0.7616 H   0  0  0  0  0  0  0  0  0  0  0  0
    2.4068    4.4513   -1.0987 N   0  0  0  0  0  0  0  0  0  0  0  0
    2.9711    5.1904   -0.7058 H   0  0  0  0  0  0  0  0  0  0  0  0
    3.0064    3.6992   -1.4069 H   0  0  0  0  0  0  0  0  0  0  0  0
   -0.5564    0.0727    2.1744 C   0  0  0  0  0  0  0  0  0  0  0  0
    0.6169   -0.1288    2.4805 O   0  0  0  0  0  0  0  0  0  0  0  0
   -1.4759    0.4743    3.0595 N   0  0  0  0  0  0  0  0  0  0  0  0
   -2.4132    0.6318    2.7275 H   0  0  0  0  0  0  0  0  0  0  0  0
   -1.1971    0.7118    4.4750 C   0  0  0  0  0  0  0  0  0  0  0  0
   -0.3779    1.4272    4.5748 H   0  0  0  0  0  0  0  0  0  0  0  0
   -2.0826    1.1064    4.9754 H   0  0  0  0  0  0  0  0  0  0  0  0
   -0.8992   -0.2240    4.9525 H   0  0  0  0  0  0  0  0  0  0  0  0
  5  6  2  0  0  0  0
  5  7  1  0  0  0  0
  2  3  1  0  0  0  0
  2  4  1  0  0  0  0
  2  5  1  0  0  0  0
  1  2  1  0  0  0  0
 26 27  2  0  0  0  0
 26 28  1  0  0  0  0
 23 24  1  0  0  0  0
 23 25  1  0  0  0  0
 20 21  1  0  0  0  0
 20 22  1  0  0  0  0
 20 23  1  0  0  0  0
 17 18  1  0  0  0  0
 17 19  1  0  0  0  0
 17 20  1  0  0  0  0
 14 15  1  0  0  0  0
 14 16  1  0  0  0  0
 14 17  1  0  0  0  0
 11 12  1  0  0  0  0
 11 13  1  0  0  0  0
 11 14  1  0  0  0  0
  9 10  1  0  0  0  0
  9 11  1  0  0  0  0
  9 26  1  0  0  0  0
  7  8  1  0  0  0  0
  7  9  1  0  0  0  0
 30 31  1  0  0  0  0
 30 32  1  0  0  0  0
 30 33  1  0  0  0  0
 28 29  1  0  0  0  0
 28 30  1  0  0  0  0
M  END
$$$$
default_name
  -OEChem-02102213163D

 33 32  0     1  0  0  0  0  0999 V2000
   -3.8420   -3.6918    1.5562 H   0  0  0  0  0  0  0  0  0  0  0  0
   -3.8430   -2.7008    1.1032 C   0  0  0  0  0  0  0  0  0  0  0  0
   -4.5510   -2.0608    1.6242 H   0  0  0  0  0  0  0  0  0  0  0  0
   -4.1140   -2.7798    0.0522 H   0  0  0  0  0  0  0  0  0  0  0  0
   -2.4570   -2.1098    1.2172 C   0  0  0  0  0  0  0  0  0  0  0  0
   -1.5600   -2.7438    1.7572 O   0  0  0  0  0  0  0  0  0  0  0  0
   -2.2870   -0.8898    0.7102 N   0  0  0  0  0  0  0  0  0  0  0  0
   -3.0820   -0.4218    0.2992 H   0  0  0  0  0  0  0  0  0  0  0  0
   -1.0240   -0.1468    0.7262 C   0  0  1  0  0  0  0  0  0  0  0  0
   -0.2680   -0.7367    0.2062 H   0  0  0  0  0  0  0  0  0  0  0  0
   -1.2212    1.1806   -0.0314 C   0  0  0  0  0  0  0  0  0  0  0  0
   -0.9860    1.0171   -1.0851 H   0  0  0  0  0  0  0  0  0  0  0  0
   -2.2664    1.4843    0.0411 H   0  0  0  0  0  0  0  0  0  0  0  0
   -0.3265    2.3165    0.4888 C   0  0  0  0  0  0  0  0  0  0  0  0
   -0.9243    3.0129    1.0775 H   0  0  0  0  0  0  0  0  0  0  0  0
    0.4572    1.8952    1.1211 H   0  0  0  0  0  0  0  0  0  0  0  0
    0.3193    3.0804   -0.6727 C   0  0  0  0  0  0  0  0  0  0  0  0
    0.9150    2.3948   -1.2761 H   0  0  0  0  0  0  0  0  0  0  0  0
   -0.4596    3.5234   -1.2941 H   0  0  0  0  0  0  0  0  0  0  0  0
    1.2213    4.1862   -0.1282 C   0  0  0  0  0  0  0  0  0  0  0  0
    0.6251    4.8825    0.4594 H   0  0  0  0  0  0  0  0  0  0  0  0
    1.9890    3.7473    0.5070 H   0  0  0  0  0  0  0  0  0  0  0  0
    1.8751    4.9236   -1.2154 N   0  0  0  0  0  0  0  0  0  0  0  0
    2.4505    5.6531   -0.8209 H   0  0  0  0  0  0  0  0  0  0  0  0
    2.4550    4.2882   -1.7448 H   0  0  0  0  0  0  0  0  0  0  0  0
   -0.5564    0.0727    2.1744 C   0  0  0  0  0  0  0  0  0  0  0  0
    0.6169   -0.1288    2.4805 O   0  0  0  0  0  0  0  0  0  0  0  0
   -1.4759    0.4743    3.0595 N   0  0  0  0  0  0  0  0  0  0  0  0
   -2.4132    0.6318    2.7275 H   0  0  0  0  0  0  0  0  0  0  0  0
   -1.1971    0.7118    4.4750 C   0  0  0  0  0  0  0  0  0  0  0  0
   -0.3779    1.4272    4.5748 H   0  0  0  0  0  0  0  0  0  0  0  0
   -2.0826    1.1064    4.9754 H   0  0  0  0  0  0  0  0  0  0  0  0
   -0.8992   -0.2240    4.9525 H   0  0  0  0  0  0  0  0  0  0  0  0
  5  6  2  0  0  0  0
  5  7  1  0  0  0  0
  2  3  1  0  0  0  0
  2  4  1  0  0  0  0
  2  5  1  0  0  0  0
  1  2  1  0  0  0  0
 26 27  2  0  0  0  0
 26 28  1  0  0  0  0
 23 24  1  0  0  0  0
 23 25  1  0  0  0  0
 20 21  1  0  0  0  0
 20 22  1  0  0  0  0
 20 23  1  0  0  0  0
 17 18  1  0  0  0  0
 17 19  1  0  0  0  0
 17 20  1  0  0  0  0
 14 15  1  0  0  0  0
 14 16  1  0  0  0  0
 14 17  1  0  0  0  0
 11 12  1  0  0  0  0
 11 13  1  0  0  0  0
 11 14  1  0  0  0  0
  9 10  1  0  0  0  0
  9 11  1  0  0  0  0
  9 26  1  0  0  0  0
  7  8  1  0  0  0  0
  7  9  1  0  0  0  0
 30 31  1  0  0  0  0
 30 32  1  0  0  0  0
 30 33  1  0  0  0  0
 28 29  1  0  0  0  0
 28 30  1  0  0  0  0
M  END
$$$$
default_name
  -OEChem-02102213163D

 33 32  0     1  0  0  0  0  0999 V2000
   -3.8420   -3.6918    1.5562 H   0  0  0  0  0  0  0  0  0  0  0  0
   -3.8430   -2.7008    1.1032 C   0  0  0  0  0  0  0  0  0  0  0  0
   -4.5510   -2.0608    1.6242 H   0  0  0  0  0  0  0  0  0  0  0  0
   -4.1140   -2.7798    0.0522 H   0  0  0  0  0  0  0  0  0  0  0  0
   -2.4570   -2.1098    1.2172 C   0  0  0  0  0  0  0  0  0  0  0  0
   -1.5600   -2.7438    1.7572 O   0  0  0  0  0  0  0  0  0  0  0  0
   -2.2870   -0.8898    0.7102 N   0  0  0  0  0  0  0  0  0  0  0  0
   -3.0820   -0.4218    0.2992 H   0  0  0  0  0  0  0  0  0  0  0  0
   -1.0240   -0.1468    0.7262 C   0  0  1  0  0  0  0  0  0  0  0  0
   -0.2680   -0.7367    0.2062 H   0  0  0  0  0  0  0  0  0  0  0  0
   -1.2212    1.1806   -0.0314 C   0  0  0  0  0  0  0  0  0  0  0  0
   -0.9860    1.0171   -1.0851 H   0  0  0  0  0  0  0  0  0  0  0  0
   -2.2664    1.4843    0.0411 H   0  0  0  0  0  0  0  0  0  0  0  0
   -0.3265    2.3165    0.4888 C   0  0  0  0  0  0  0  0  0  0  0  0
   -0.8451    2.8574    1.2809 H   0  0  0  0  0  0  0  0  0  0  0  0
    0.5955    1.8920    0.8903 H   0  0  0  0  0  0  0  0  0  0  0  0
    0.0189    3.2998   -0.6353 C   0  0  0  0  0  0  0  0  0  0  0  0
    0.5318    2.7714   -1.4395 H   0  0  0  0  0  0  0  0  0  0  0  0
   -0.8977    3.7446   -1.0236 H   0  0  0  0  0  0  0  0  0  0  0  0
    0.9278    4.4033   -0.0976 C   0  0  0  0  0  0  0  0  0  0  0  0
    0.4106    4.9443    0.6932 H   0  0  0  0  0  0  0  0  0  0  0  0
    1.8360    3.9595    0.3068 H   0  0  0  0  0  0  0  0  0  0  0  0
    1.2978    5.3508   -1.1553 N   0  0  0  0  0  0  0  0  0  0  0  0
    1.8852    6.0718   -0.7628 H   0  0  0  0  0  0  0  0  0  0  0  0
    1.8062    4.8598   -1.8770 H   0  0  0  0  0  0  0  0  0  0  0  0
   -0.5564    0.0727    2.1744 C   0  0  0  0  0  0  0  0  0  0  0  0
    0.6169   -0.1288    2.4805 O   0  0  0  0  0  0  0  0  0  0  0  0
   -1.4759    0.4743    3.0595 N   0  0  0  0  0  0  0  0  0  0  0  0
   -2.4132    0.6318    2.7275 H   0  0  0  0  0  0  0  0  0  0  0  0
   -1.1971    0.7118    4.4750 C   0  0  0  0  0  0  0  0  0  0  0  0
   -0.3779    1.4272    4.5748 H   0  0  0  0  0  0  0  0  0  0  0  0
   -2.0826    1.1064    4.9754 H   0  0  0  0  0  0  0  0  0  0  0  0
   -0.8992   -0.2240    4.9525 H   0  0  0  0  0  0  0  0  0  0  0  0
  5  6  2  0  0  0  0
  5  7  1  0  0  0  0
  2  3  1  0  0  0  0
  2  4  1  0  0  0  0
  2  5  1  0  0  0  0
  1  2  1  0  0  0  0
 26 27  2  0  0  0  0
 26 28  1  0  0  0  0
 23 24  1  0  0  0  0
 23 25  1  0  0  0  0
 20 21  1  0  0  0  0
 20 22  1  0  0  0  0
 20 23  1  0  0  0  0
 17 18  1  0  0  0  0
 17 19  1  0  0  0  0
 17 20  1  0  0  0  0
 14 15  1  0  0  0  0
 14 16  1  0  0  0  0
 14 17  1  0  0  0  0
 11 12  1  0  0  0  0
 11 13  1  0  0  0  0
 11 14  1  0  0  0  0
  9 10  1  0  0  0  0
  9 11  1  0  0  0  0
  9 26  1  0  0  0  0
  7  8  1  0  0  0  0
  7  9  1  0  0  0  0
 30 31  1  0  0  0  0
 30 32  1  0  0  0  0
 30 33  1  0  0  0  0
 28 29  1  0  0  0  0
 28 30  1  0  0  0  0
M  END
$$$$
default_name
  -OEChem-02102213163D

 33 32  0     1  0  0  0  0  0999 V2000
   -3.8420   -3.6918    1.5562 H   0  0  0  0  0  0  0  0  0  0  0  0
   -3.8430   -2.7008    1.1032 C   0  0  0  0  0  0  0  0  0  0  0  0
   -4.5510   -2.0608    1.6242 H   0  0  0  0  0  0  0  0  0  0  0  0
   -4.1140   -2.7798    0.0522 H   0  0  0  0  0  0  0  0  0  0  0  0
   -2.4570   -2.1098    1.2172 C   0  0  0  0  0  0  0  0  0  0  0  0
   -1.5600   -2.7438    1.7572 O   0  0  0  0  0  0  0  0  0  0  0  0
   -2.2870   -0.8898    0.7102 N   0  0  0  0  0  0  0  0  0  0  0  0
   -3.0820   -0.4218    0.2992 H   0  0  0  0  0  0  0  0  0  0  0  0
   -1.0240   -0.1468    0.7262 C   0  0  1  0  0  0  0  0  0  0  0  0
   -0.2680   -0.7367    0.2062 H   0  0  0  0  0  0  0  0  0  0  0  0
   -1.2212    1.1806   -0.0314 C   0  0  0  0  0  0  0  0  0  0  0  0
   -0.9860    1.0171   -1.0851 H   0  0  0  0  0  0  0  0  0  0  0  0
   -2.2664    1.4843    0.0411 H   0  0  0  0  0  0  0  0  0  0  0  0
   -0.3265    2.3165    0.4888 C   0  0  0  0  0  0  0  0  0  0  0  0
   -0.7160    2.6833    1.4389 H   0  0  0  0  0  0  0  0  0  0  0  0
    0.6852    1.9358    0.6404 H   0  0  0  0  0  0  0  0  0  0  0  0
   -0.2832    3.4797   -0.5086 C   0  0  0  0  0  0  0  0  0  0  0  0
    0.0974    3.1264   -1.4674 H   0  0  0  0  0  0  0  0  0  0  0  0
   -1.2886    3.8791   -0.6452 H   0  0  0  0  0  0  0  0  0  0  0  0
    0.6312    4.5828    0.0209 C   0  0  0  0  0  0  0  0  0  0  0  0
    0.2428    4.9501    0.9694 H   0  0  0  0  0  0  0  0  0  0  0  0
    1.6314    4.1811    0.1747 H   0  0  0  0  0  0  0  0  0  0  0  0
    0.7142    5.7038   -0.9224 N   0  0  0  0  0  0  0  0  0  0  0  0
    1.3135    6.4179   -0.5354 H   0  0  0  0  0  0  0  0  0  0  0  0
    1.1041    5.3750   -1.7943 H   0  0  0  0  0  0  0  0  0  0  0  0
   -0.5564    0.0727    2.1744 C   0  0  0  0  0  0  0  0  0  0  0  0
    0.6169   -0.1288    2.4805 O   0  0  0  0  0  0  0  0  0  0  0  0
   -1.4759    0.4743    3.0595 N   0  0  0  0  0  0  0  0  0  0  0  0
   -2.4132    0.6318    2.7275 H   0  0  0  0  0  0  0  0  0  0  0  0
   -1.1971    0.7118    4.4750 C   0  0  0  0  0  0  0  0  0  0  0  0
   -0.3779    1.4272    4.5748 H   0  0  0  0  0  0  0  0  0  0  0  0
   -2.0826    1.1064    4.9754 H   0  0  0  0  0  0  0  0  0  0  0  0
   -0.8992   -0.2240    4.9525 H   0  0  0  0  0  0  0  0  0  0  0  0
  5  6  2  0  0  0  0
  5  7  1  0  0  0  0
  2  3  1  0  0  0  0
  2  4  1  0  0  0  0
  2  5  1  0  0  0  0
  1  2  1  0  0  0  0
 26 27  2  0  0  0  0
 26 28  1  0  0  0  0
 23 24  1  0  0  0  0
 23 25  1  0  0  0  0
 20 21  1  0  0  0  0
 20 22  1  0  0  0  0
 20 23  1  0  0  0  0
 17 18  1  0  0  0  0
 17 19  1  0  0  0  0
 17 20  1  0  0  0  0
 14 15  1  0  0  0  0
 14 16  1  0  0  0  0
 14 17  1  0  0  0  0
 11 12  1  0  0  0  0
 11 13  1  0  0  0  0
 11 14  1  0  0  0  0
  9 10  1  0  0  0  0
  9 11  1  0  0  0  0
  9 26  1  0  0  0  0
  7  8  1  0  0  0  0
  7  9  1  0  0  0  0
 30 31  1  0  0  0  0
 30 32  1  0  0  0  0
 30 33  1  0  0  0  0
 28 29  1  0  0  0  0
 28 30  1  0  0  0  0
M  END
$$$$
default_name
  -OEChem-02102213163D

 33 32  0     1  0  0  0  0  0999 V2000
   -3.8420   -3.6918    1.5562 H   0  0  0  0  0  0  0  0  0  0  0  0
   -3.8430   -2.7008    1.1032 C   0  0  0  0  0  0  0  0  0  0  0  0
   -4.5510   -2.0608    1.6242 H   0  0  0  0  0  0  0  0  0  0  0  0
   -4.1140   -2.7798    0.0522 H   0  0  0  0  0  0  0  0  0  0  0  0
   -2.4570   -2.1098    1.2172 C   0  0  0  0  0  0  0  0  0  0  0  0
   -1.5600   -2.7438    1.7572 O   0  0  0  0  0  0  0  0  0  0  0  0
   -2.2870   -0.8898    0.7102 N   0  0  0  0  0  0  0  0  0  0  0  0
   -3.0820   -0.4218    0.2992 H   0  0  0  0  0  0  0  0  0  0  0  0
   -1.0240   -0.1468    0.7262 C   0  0  1  0  0  0  0  0  0  0  0  0
   -0.2680   -0.7367    0.2062 H   0  0  0  0  0  0  0  0  0  0  0  0
   -1.2212    1.1806   -0.0314 C   0  0  0  0  0  0  0  0  0  0  0  0
   -1.2513    0.9680   -1.1020 H   0  0  0  0  0  0  0  0  0  0  0  0
   -2.1776    1.6199    0.2555 H   0  0  0  0  0  0  0  0  0  0  0  0
   -0.0991    2.1990    0.2239 C   0  0  0  0  0  0  0  0  0  0  0  0
   -0.0514    2.4320    1.2879 H   0  0  0  0  0  0  0  0  0  0  0  0
    0.8538    1.7698   -0.0911 H   0  0  0  0  0  0  0  0  0  0  0  0
   -0.3495    3.4958   -0.5542 C   0  0  0  0  0  0  0  0  0  0  0  0
   -0.4076    3.2777   -1.6210 H   0  0  0  0  0  0  0  0  0  0  0  0
   -1.2891    3.9412   -0.2259 H   0  0  0  0  0  0  0  0  0  0  0  0
    0.7914    4.4798   -0.3026 C   0  0  0  0  0  0  0  0  0  0  0  0
    0.8395    4.7135    0.7597 H   0  0  0  0  0  0  0  0  0  0  0  0
    1.7328    4.0298   -0.6135 H   0  0  0  0  0  0  0  0  0  0  0  0
    0.5949    5.7256   -1.0527 N   0  0  0  0  0  0  0  0  0  0  0  0
    1.3576    6.3559   -0.8525 H   0  0  0  0  0  0  0  0  0  0  0  0
    0.5815    5.5186   -2.0413 H   0  0  0  0  0  0  0  0  0  0  0  0
   -0.5564    0.0727    2.1744 C   0  0  0  0  0  0  0  0  0  0  0  0
    0.6169   -0.1288    2.4805 O   0  0  0  0  0  0  0  0  0  0  0  0
   -1.4759    0.4743    3.0595 N   0  0  0  0  0  0  0  0  0  0  0  0
   -2.4132    0.6318    2.7275 H   0  0  0  0  0  0  0  0  0  0  0  0
   -1.1971    0.7118    4.4750 C   0  0  0  0  0  0  0  0  0  0  0  0
   -0.3779    1.4272    4.5748 H   0  0  0  0  0  0  0  0  0  0  0  0
   -2.0826    1.1064    4.9754 H   0  0  0  0  0  0  0  0  0  0  0  0
   -0.8992   -0.2240    4.9525 H   0  0  0  0  0  0  0  0  0  0  0  0
  5  6  2  0  0  0  0
  5  7  1  0  0  0  0
  2  3  1  0  0  0  0
  2  4  1  0  0  0  0
  2  5  1  0  0  0  0
  1  2  1  0  0  0  0
 26 27  2  0  0  0  0
 26 28  1  0  0  0  0
 23 24  1  0  0  0  0
 23 25  1  0  0  0  0
 20 21  1  0  0  0  0
 20 22  1  0  0  0  0
 20 23  1  0  0  0  0
 17 18  1  0  0  0  0
 17 19  1  0  0  0  0
 17 20  1  0  0  0  0
 14 15  1  0  0  0  0
 14 16  1  0  0  0  0
 14 17  1  0  0  0  0
 11 12  1  0  0  0  0
 11 13  1  0  0  0  0
 11 14  1  0  0  0  0
  9 10  1  0  0  0  0
  9 11  1  0  0  0  0
  9 26  1  0  0  0  0
  7  8  1  0  0  0  0
  7  9  1  0  0  0  0
 30 31  1  0  0  0  0
 30 32  1  0  0  0  0
 30 33  1  0  0  0  0
 28 29  1  0  0  0  0
 28 30  1  0  0  0  0
M  END
$$$$
default_name
  -OEChem-02102213163D

 33 32  0     1  0  0  0  0  0999 V2000
   -3.8420   -3.6918    1.5562 H   0  0  0  0  0  0  0  0  0  0  0  0
   -3.8430   -2.7008    1.1032 C   0  0  0  0  0  0  0  0  0  0  0  0
   -4.5510   -2.0608    1.6242 H   0  0  0  0  0  0  0  0  0  0  0  0
   -4.1140   -2.7798    0.0522 H   0  0  0  0  0  0  0  0  0  0  0  0
   -2.4570   -2.1098    1.2172 C   0  0  0  0  0  0  0  0  0  0  0  0
   -1.5600   -2.7438    1.7572 O   0  0  0  0  0  0  0  0  0  0  0  0
   -2.2870   -0.8898    0.7102 N   0  0  0  0  0  0  0  0  0  0  0  0
   -3.0820   -0.4218    0.2992 H   0  0  0  0  0  0  0  0  0  0  0  0
   -1.0240   -0.1468    0.7262 C   0  0  1  0  0  0  0  0  0  0  0  0
   -0.2680   -0.7367    0.2062 H   0  0  0  0  0  0  0  0  0  0  0  0
   -1.2212    1.1806   -0.0314 C   0  0  0  0  0  0  0  0  0  0  0  0
   -1.2513    0.9680   -1.1020 H   0  0  0  0  0  0  0  0  0  0  0  0
   -2.1776    1.6199    0.2555 H   0  0  0  0  0  0  0  0  0  0  0  0
   -0.0991    2.1990    0.2239 C   0  0  0  0  0  0  0  0  0  0  0  0
    0.1286    2.2333    1.2896 H   0  0  0  0  0  0  0  0  0  0  0  0
    0.7947    1.8930   -0.3229 H   0  0  0  0  0  0  0  0  0  0  0  0
   -0.5165    3.6003   -0.2366 C   0  0  0  0  0  0  0  0  0  0  0  0
   -0.7553    3.5805   -1.3004 H   0  0  0  0  0  0  0  0  0  0  0  0
   -1.3953    3.9204    0.3240 H   0  0  0  0  0  0  0  0  0  0  0  0
    0.6243    4.5867    0.0054 C   0  0  0  0  0  0  0  0  0  0  0  0
    0.8521    4.6220    1.0695 H   0  0  0  0  0  0  0  0  0  0  0  0
    1.5081    4.2589   -0.5395 H   0  0  0  0  0  0  0  0  0  0  0  0
    0.2662    5.9360   -0.4469 N   0  0  0  0  0  0  0  0  0  0  0  0
    1.0352    6.5625   -0.2595 H   0  0  0  0  0  0  0  0  0  0  0  0
    0.0848    5.9152   -1.4403 H   0  0  0  0  0  0  0  0  0  0  0  0
   -0.5564    0.0727    2.1744 C   0  0  0  0  0  0  0  0  0  0  0  0
    0.6169   -0.1288    2.4805 O   0  0  0  0  0  0  0  0  0  0  0  0
   -1.4759    0.4743    3.0595 N   0  0  0  0  0  0  0  0  0  0  0  0
   -2.4132    0.6318    2.7275 H   0  0  0  0  0  0  0  0  0  0  0  0
   -1.1971    0.7118    4.4750 C   0  0  0  0  0  0  0  0  0  0  0  0
   -0.3779    1.4272    4.5748 H   0  0  0  0  0  0  0  0  0  0  0  0
   -2.0826    1.1064    4.9754 H   0  0  0  0  0  0  0  0  0  0  0  0
   -0.8992   -0.2240    4.9525 H   0  0  0  0  0  0  0  0  0  0  0  0
  5  6  2  0  0  0  0
  5  7  1  0  0  0  0
  2  3  1  0  0  0  0
  2  4  1  0  0  0  0
  2  5  1  0  0  0  0
  1  2  1  0  0  0  0
 26 27  2  0  0  0  0
 26 28  1  0  0  0  0
 23 24  1  0  0  0  0
 23 25  1  0  0  0  0
 20 21  1  0  0  0  0
 20 22  1  0  0  0  0
 20 23  1  0  0  0  0
 17 18  1  0  0  0  0
 17 19  1  0  0  0  0
 17 20  1  0  0  0  0
 14 15  1  0  0  0  0
 14 16  1  0  0  0  0
 14 17  1  0  0  0  0
 11 12  1  0  0  0  0
 11 13  1  0  0  0  0
 11 14  1  0  0  0  0
  9 10  1  0  0  0  0
  9 11  1  0  0  0  0
  9 26  1  0  0  0  0
  7  8  1  0  0  0  0
  7  9  1  0  0  0  0
 30 31  1  0  0  0  0
 30 32  1  0  0  0  0
 30 33  1  0  0  0  0
 28 29  1  0  0  0  0
 28 30  1  0  0  0  0
M  END
$$$$
default_name
  -OEChem-02102213163D

 33 32  0     1  0  0  0  0  0999 V2000
   -3.8420   -3.6918    1.5562 H   0  0  0  0  0  0  0  0  0  0  0  0
   -3.8430   -2.7008    1.1032 C   0  0  0  0  0  0  0  0  0  0  0  0
   -4.5510   -2.0608    1.6242 H   0  0  0  0  0  0  0  0  0  0  0  0
   -4.1140   -2.7798    0.0522 H   0  0  0  0  0  0  0  0  0  0  0  0
   -2.4570   -2.1098    1.2172 C   0  0  0  0  0  0  0  0  0  0  0  0
   -1.5600   -2.7438    1.7572 O   0  0  0  0  0  0  0  0  0  0  0  0
   -2.2870   -0.8898    0.7102 N   0  0  0  0  0  0  0  0  0  0  0  0
   -3.0820   -0.4218    0.2992 H   0  0  0  0  0  0  0  0  0  0  0  0
   -1.0240   -0.1468    0.7262 C   0  0  1  0  0  0  0  0  0  0  0  0
   -0.2680   -0.7367    0.2062 H   0  0  0  0  0  0  0  0  0  0  0  0
   -1.2212    1.1806   -0.0314 C   0  0  0  0  0  0  0  0  0  0  0  0
   -1.2513    0.9680   -1.1020 H   0  0  0  0  0  0  0  0  0  0  0  0
   -2.1776    1.6199    0.2555 H   0  0  0  0  0  0  0  0  0  0  0  0
   -0.0991    2.1990    0.2239 C   0  0  0  0  0  0  0  0  0  0  0  0
    0.3113    2.0488    1.2228 H   0  0  0  0  0  0  0  0  0  0  0  0
    0.6925    2.0533   -0.5134 H   0  0  0  0  0  0  0  0  0  0  0  0
   -0.6279    3.6340    0.1186 C   0  0  0  0  0  0  0  0  0  0  0  0
   -1.0493    3.7974   -0.8738 H   0  0  0  0  0  0  0  0  0  0  0  0
   -1.4027    3.7919    0.8694 H   0  0  0  0  0  0  0  0  0  0  0  0
    0.5111    4.6246    0.3517 C   0  0  0  0  0  0  0  0  0  0  0  0
    0.9213    4.4756    1.3492 H   0  0  0  0  0  0  0  0  0  0  0  0
    1.2938    4.4566   -0.3862 H   0  0  0  0  0  0  0  0  0  0  0  0
    0.0435    6.0106    0.2345 N   0  0  0  0  0  0  0  0  0  0  0  0
    0.8166    6.6361    0.4077 H   0  0  0  0  0  0  0  0  0  0  0  0
   -0.3090    6.1634   -0.6997 H   0  0  0  0  0  0  0  0  0  0  0  0
   -0.5564    0.0727    2.1744 C   0  0  0  0  0  0  0  0  0  0  0  0
    0.6169   -0.1288    2.4805 O   0  0  0  0  0  0  0  0  0  0  0  0
   -1.4759    0.4743    3.0595 N   0  0  0  0  0  0  0  0  0  0  0  0
   -2.4132    0.6318    2.7275 H   0  0  0  0  0  0  0  0  0  0  0  0
   -1.1971    0.7118    4.4750 C   0  0  0  0  0  0  0  0  0  0  0  0
   -0.3779    1.4272    4.5748 H   0  0  0  0  0  0  0  0  0  0  0  0
   -2.0826    1.1064    4.9754 H   0  0  0  0  0  0  0  0  0  0  0  0
   -0.8992   -0.2240    4.9525 H   0  0  0  0  0  0  0  0  0  0  0  0
  5  6  2  0  0  0  0
  5  7  1  0  0  0  0
  2  3  1  0  0  0  0
  2  4  1  0  0  0  0
  2  5  1  0  0  0  0
  1  2  1  0  0  0  0
 26 27  2  0  0  0  0
 26 28  1  0  0  0  0
 23 24  1  0  0  0  0
 23 25  1  0  0  0  0
 20 21  1  0  0  0  0
 20 22  1  0  0  0  0
 20 23  1  0  0  0  0
 17 18  1  0  0  0  0
 17 19  1  0  0  0  0
 17 20  1  0  0  0  0
 14 15  1  0  0  0  0
 14 16  1  0  0  0  0
 14 17  1  0  0  0  0
 11 12  1  0  0  0  0
 11 13  1  0  0  0  0
 11 14  1  0  0  0  0
  9 10  1  0  0  0  0
  9 11  1  0  0  0  0
  9 26  1  0  0  0  0
  7  8  1  0  0  0  0
  7  9  1  0  0  0  0
 30 31  1  0  0  0  0
 30 32  1  0  0  0  0
 30 33  1  0  0  0  0
 28 29  1  0  0  0  0
 28 30  1  0  0  0  0
M  END
$$$$
default_name
  -OEChem-02102213163D

 33 32  0     1  0  0  0  0  0999 V2000
   -3.8420   -3.6918    1.5562 H   0  0  0  0  0  0  0  0  0  0  0  0
   -3.8430   -2.7008    1.1032 C   0  0  0  0  0  0  0  0  0  0  0  0
   -4.5510   -2.0608    1.6242 H   0  0  0  0  0  0  0  0  0  0  0  0
   -4.1140   -2.7798    0.0522 H   0  0  0  0  0  0  0  0  0  0  0  0
   -2.4570   -2.1098    1.2172 C   0  0  0  0  0  0  0  0  0  0  0  0
   -1.5600   -2.7438    1.7572 O   0  0  0  0  0  0  0  0  0  0  0  0
   -2.2870   -0.8898    0.7102 N   0  0  0  0  0  0  0  0  0  0  0  0
   -3.0820   -0.4218    0.2992 H   0  0  0  0  0  0  0  0  0  0  0  0
   -1.0240   -0.1468    0.7262 C   0  0  1  0  0  0  0  0  0  0  0  0
   -0.2680   -0.7367    0.2062 H   0  0  0  0  0  0  0  0  0  0  0  0
   -1.2212    1.1806   -0.0314 C   0  0  0  0  0  0  0  0  0  0  0  0
   -1.2513    0.9680   -1.1020 H   0  0  0  0  0  0  0  0  0  0  0  0
   -2.1776    1.6199    0.2555 H   0  0  0  0  0  0  0  0  0  0  0  0
   -0.0991    2.1990    0.2239 C   0  0  0  0  0  0  0  0  0  0  0  0
    0.4842    1.8910    1.0920 H   0  0  0  0  0  0  0  0  0  0  0  0
    0.5543    2.2397   -0.6496 H   0  0  0  0  0  0  0  0  0  0  0  0
   -0.6760    3.5946    0.4872 C   0  0  0  0  0  0  0  0  0  0  0  0
   -1.2693    3.9137   -0.3703 H   0  0  0  0  0  0  0  0  0  0  0  0
   -1.3108    3.5643    1.3732 H   0  0  0  0  0  0  0  0  0  0  0  0
    0.4596    4.5909    0.7128 C   0  0  0  0  0  0  0  0  0  0  0  0
    1.0424    4.2844    1.5799 H   0  0  0  0  0  0  0  0  0  0  0  0
    1.1046    4.6093   -0.1641 H   0  0  0  0  0  0  0  0  0  0  0  0
   -0.0579    5.9443    0.9449 N   0  0  0  0  0  0  0  0  0  0  0  0
    0.7167    6.5718    1.1035 H   0  0  0  0  0  0  0  0  0  0  0  0
   -0.5730    6.2463    0.1301 H   0  0  0  0  0  0  0  0  0  0  0  0
   -0.5564    0.0727    2.1744 C   0  0  0  0  0  0  0  0  0  0  0  0
    0.6169   -0.1288    2.4805 O   0  0  0  0  0  0  0  0  0  0  0  0
   -1.4759    0.4743    3.0595 N   0  0  0  0  0  0  0  0  0  0  0  0
   -2.4132    0.6318    2.7275 H   0  0  0  0  0  0  0  0  0  0  0  0
   -1.1971    0.7118    4.4750 C   0  0  0  0  0  0  0  0  0  0  0  0
   -0.3779    1.4272    4.5748 H   0  0  0  0  0  0  0  0  0  0  0  0
   -2.0826    1.1064    4.9754 H   0  0  0  0  0  0  0  0  0  0  0  0
   -0.8992   -0.2240    4.9525 H   0  0  0  0  0  0  0  0  0  0  0  0
  5  6  2  0  0  0  0
  5  7  1  0  0  0  0
  2  3  1  0  0  0  0
  2  4  1  0  0  0  0
  2  5  1  0  0  0  0
  1  2  1  0  0  0  0
 26 27  2  0  0  0  0
 26 28  1  0  0  0  0
 23 24  1  0  0  0  0
 23 25  1  0  0  0  0
 20 21  1  0  0  0  0
 20 22  1  0  0  0  0
 20 23  1  0  0  0  0
 17 18  1  0  0  0  0
 17 19  1  0  0  0  0
 17 20  1  0  0  0  0
 14 15  1  0  0  0  0
 14 16  1  0  0  0  0
 14 17  1  0  0  0  0
 11 12  1  0  0  0  0
 11 13  1  0  0  0  0
 11 14  1  0  0  0  0
  9 10  1  0  0  0  0
  9 11  1  0  0  0  0
  9 26  1  0  0  0  0
  7  8  1  0  0  0  0
  7  9  1  0  0  0  0
 30 31  1  0  0  0  0
 30 32  1  0  0  0  0
 30 33  1  0  0  0  0
 28 29  1  0  0  0  0
 28 30  1  0  0  0  0
M  END
$$$$
default_name
  -OEChem-02102213163D

 33 32  0     1  0  0  0  0  0999 V2000
   -3.8420   -3.6918    1.5562 H   0  0  0  0  0  0  0  0  0  0  0  0
   -3.8430   -2.7008    1.1032 C   0  0  0  0  0  0  0  0  0  0  0  0
   -4.5510   -2.0608    1.6242 H   0  0  0  0  0  0  0  0  0  0  0  0
   -4.1140   -2.7798    0.0522 H   0  0  0  0  0  0  0  0  0  0  0  0
   -2.4570   -2.1098    1.2172 C   0  0  0  0  0  0  0  0  0  0  0  0
   -1.5600   -2.7438    1.7572 O   0  0  0  0  0  0  0  0  0  0  0  0
   -2.2870   -0.8898    0.7102 N   0  0  0  0  0  0  0  0  0  0  0  0
   -3.0820   -0.4218    0.2992 H   0  0  0  0  0  0  0  0  0  0  0  0
   -1.0240   -0.1468    0.7262 C   0  0  1  0  0  0  0  0  0  0  0  0
   -0.2680   -0.7367    0.2062 H   0  0  0  0  0  0  0  0  0  0  0  0
   -1.2212    1.1806   -0.0314 C   0  0  0  0  0  0  0  0  0  0  0  0
   -1.2513    0.9680   -1.1020 H   0  0  0  0  0  0  0  0  0  0  0  0
   -2.1776    1.6199    0.2555 H   0  0  0  0  0  0  0  0  0  0  0  0
   -0.0991    2.1990    0.2239 C   0  0  0  0  0  0  0  0  0  0  0  0
    0.6356    1.7708    0.9063 H   0  0  0  0  0  0  0  0  0  0  0  0
    0.3894    2.4396   -0.7222 H   0  0  0  0  0  0  0  0  0  0  0  0
   -0.6576    3.4848    0.8440 C   0  0  0  0  0  0  0  0  0  0  0  0
   -1.4005    3.9213    0.1758 H   0  0  0  0  0  0  0  0  0  0  0  0
   -1.1258    3.2532    1.8011 H   0  0  0  0  0  0  0  0  0  0  0  0
    0.4732    4.4878    1.0641 C   0  0  0  0  0  0  0  0  0  0  0  0
    1.2072    4.0612    1.7459 H   0  0  0  0  0  0  0  0  0  0  0  0
    0.9535    4.7067    0.1118 H   0  0  0  0  0  0  0  0  0  0  0  0
   -0.0312    5.7416    1.6360 N   0  0  0  0  0  0  0  0  0  0  0  0
    0.7423    6.3738    1.7806 H   0  0  0  0  0  0  0  0  0  0  0  0
   -0.6892    6.1581    0.9926 H   0  0  0  0  0  0  0  0  0  0  0  0
   -0.5564    0.0727    2.1744 C   0  0  0  0  0  0  0  0  0  0  0  0
    0.6169   -0.1288    2.4805 O   0  0  0  0  0  0  0  0  0  0  0  0
   -1.4759    0.4743    3.0595 N   0  0  0  0  0  0  0  0  0  0  0  0
   -2.4132    0.6318    2.7275 H   0  0  0  0  0  0  0  0  0  0  0  0
   -1.1971    0.7118    4.4750 C   0  0  0  0  0  0  0  0  0  0  0  0
   -0.3779    1.4272    4.5748 H   0  0  0  0  0  0  0  0  0  0  0  0
   -2.0826    1.1064    4.9754 H   0  0  0  0  0  0  0  0  0  0  0  0
   -0.8992   -0.2240    4.9525 H   0  0  0  0  0  0  0  0  0  0  0  0
  5  6  2  0  0  0  0
  5  7  1  0  0  0  0
  2  3  1  0  0  0  0
  2  4  1  0  0  0  0
  2  5  1  0  0  0  0
  1  2  1  0  0  0  0
 26 27  2  0  0  0  0
 26 28  1  0  0  0  0
 23 24  1  0  0  0  0
 23 25  1  0  0  0  0
 20 21  1  0  0  0  0
 20 22  1  0  0  0  0
 20 23  1  0  0  0  0
 17 18  1  0  0  0  0
 17 19  1  0  0  0  0
 17 20  1  0  0  0  0
 14 15  1  0  0  0  0
 14 16  1  0  0  0  0
 14 17  1  0  0  0  0
 11 12  1  0  0  0  0
 11 13  1  0  0  0  0
 11 14  1  0  0  0  0
  9 10  1  0  0  0  0
  9 11  1  0  0  0  0
  9 26  1  0  0  0  0
  7  8  1  0  0  0  0
  7  9  1  0  0  0  0
 30 31  1  0  0  0  0
 30 32  1  0  0  0  0
 30 33  1  0  0  0  0
 28 29  1  0  0  0  0
 28 30  1  0  0  0  0
M  END
$$$$
default_name
  -OEChem-02102213163D

 33 32  0     1  0  0  0  0  0999 V2000
   -3.8420   -3.6918    1.5562 H   0  0  0  0  0  0  0  0  0  0  0  0
   -3.8430   -2.7008    1.1032 C   0  0  0  0  0  0  0  0  0  0  0  0
   -4.5510   -2.0608    1.6242 H   0  0  0  0  0  0  0  0  0  0  0  0
   -4.1140   -2.7798    0.0522 H   0  0  0  0  0  0  0  0  0  0  0  0
   -2.4570   -2.1098    1.2172 C   0  0  0  0  0  0  0  0  0  0  0  0
   -1.5600   -2.7438    1.7572 O   0  0  0  0  0  0  0  0  0  0  0  0
   -2.2870   -0.8898    0.7102 N   0  0  0  0  0  0  0  0  0  0  0  0
   -3.0820   -0.4218    0.2992 H   0  0  0  0  0  0  0  0  0  0  0  0
   -1.0240   -0.1468    0.7262 C   0  0  1  0  0  0  0  0  0  0  0  0
   -0.2680   -0.7367    0.2062 H   0  0  0  0  0  0  0  0  0  0  0  0
   -1.2212    1.1806   -0.0314 C   0  0  0  0  0  0  0  0  0  0  0  0
   -1.2513    0.9680   -1.1020 H   0  0  0  0  0  0  0  0  0  0  0  0
   -2.1776    1.6199    0.2555 H   0  0  0  0  0  0  0  0  0  0  0  0
   -0.0991    2.1990    0.2239 C   0  0  0  0  0  0  0  0  0  0  0  0
    0.7551    1.6963    0.6781 H   0  0  0  0  0  0  0  0  0  0  0  0
    0.2090    2.6393   -0.7262 H   0  0  0  0  0  0  0  0  0  0  0  0
   -0.5738    3.3121    1.1648 C   0  0  0  0  0  0  0  0  0  0  0  0
   -1.4339    3.8199    0.7272 H   0  0  0  0  0  0  0  0  0  0  0  0
   -0.8604    2.8798    2.1239 H   0  0  0  0  0  0  0  0  0  0  0  0
    0.5510    4.3225    1.3816 C   0  0  0  0  0  0  0  0  0  0  0  0
    1.4044    3.8214    1.8357 H   0  0  0  0  0  0  0  0  0  0  0  0
    0.8506    4.7422    0.4227 H   0  0  0  0  0  0  0  0  0  0  0  0
    0.1219    5.4163    2.2606 N   0  0  0  0  0  0  0  0  0  0  0  0
    0.8918    6.0557    2.3928 H   0  0  0  0  0  0  0  0  0  0  0  0
   -0.6497    5.9050    1.8290 H   0  0  0  0  0  0  0  0  0  0  0  0
   -0.5564    0.0727    2.1744 C   0  0  0  0  0  0  0  0  0  0  0  0
    0.6169   -0.1288    2.4805 O   0  0  0  0  0  0  0  0  0  0  0  0
   -1.4759    0.4743    3.0595 N   0  0  0  0  0  0  0  0  0  0  0  0
   -2.4132    0.6318    2.7275 H   0  0  0  0  0  0  0  0  0  0  0  0
   -1.1971    0.7118    4.4750 C   0  0  0  0  0  0  0  0  0  0  0  0
   -0.3779    1.4272    4.5748 H   0  0  0  0  0  0  0  0  0  0  0  0
   -2.0826    1.1064    4.9754 H   0  0  0  0  0  0  0  0  0  0  0  0
   -0.8992   -0.2240    4.9525 H   0  0  0  0  0  0  0  0  0  0  0  0
  5  6  2  0  0  0  0
  5  7  1  0  0  0  0
  2  3  1  0  0  0  0
  2  4  1  0  0  0  0
  2  5  1  0  0  0  0
  1  2  1  0  0  0  0
 26 27  2  0  0  0  0
 26 28  1  0  0  0  0
 23 24  1  0  0  0  0
 23 25  1  0  0  0  0
 20 21  1  0  0  0  0
 20 22  1  0  0  0  0
 20 23  1  0  0  0  0
 17 18  1  0  0  0  0
 17 19  1  0  0  0  0
 17 20  1  0  0  0  0
 14 15  1  0  0  0  0
 14 16  1  0  0  0  0
 14 17  1  0  0  0  0
 11 12  1  0  0  0  0
 11 13  1  0  0  0  0
 11 14  1  0  0  0  0
  9 10  1  0  0  0  0
  9 11  1  0  0  0  0
  9 26  1  0  0  0  0
  7  8  1  0  0  0  0
  7  9  1  0  0  0  0
 30 31  1  0  0  0  0
 30 32  1  0  0  0  0
 30 33  1  0  0  0  0
 28 29  1  0  0  0  0
 28 30  1  0  0  0  0
M  END
$$$$
default_name
  -OEChem-02102213163D

 33 32  0     1  0  0  0  0  0999 V2000
   -3.8420   -3.6918    1.5562 H   0  0  0  0  0  0  0  0  0  0  0  0
   -3.8430   -2.7008    1.1032 C   0  0  0  0  0  0  0  0  0  0  0  0
   -4.5510   -2.0608    1.6242 H   0  0  0  0  0  0  0  0  0  0  0  0
   -4.1140   -2.7798    0.0522 H   0  0  0  0  0  0  0  0  0  0  0  0
   -2.4570   -2.1098    1.2172 C   0  0  0  0  0  0  0  0  0  0  0  0
   -1.5600   -2.7438    1.7572 O   0  0  0  0  0  0  0  0  0  0  0  0
   -2.2870   -0.8898    0.7102 N   0  0  0  0  0  0  0  0  0  0  0  0
   -3.0820   -0.4218    0.2992 H   0  0  0  0  0  0  0  0  0  0  0  0
   -1.0240   -0.1468    0.7262 C   0  0  1  0  0  0  0  0  0  0  0  0
   -0.2680   -0.7367    0.2062 H   0  0  0  0  0  0  0  0  0  0  0  0
   -1.2212    1.1806   -0.0314 C   0  0  0  0  0  0  0  0  0  0  0  0
   -1.2513    0.9680   -1.1020 H   0  0  0  0  0  0  0  0  0  0  0  0
   -2.1776    1.6199    0.2555 H   0  0  0  0  0  0  0  0  0  0  0  0
   -0.0991    2.1990    0.2239 C   0  0  0  0  0  0  0  0  0  0  0  0
    0.8347    1.6725    0.4232 H   0  0  0  0  0  0  0  0  0  0  0  0
    0.0256    2.8252   -0.6615 H   0  0  0  0  0  0  0  0  0  0  0  0
   -0.4305    3.0883    1.4276 C   0  0  0  0  0  0  0  0  0  0  0  0
   -1.3672    3.6163    1.2464 H   0  0  0  0  0  0  0  0  0  0  0  0
   -0.5325    2.4696    2.3196 H   0  0  0  0  0  0  0  0  0  0  0  0
    0.6878    4.1061    1.6437 C   0  0  0  0  0  0  0  0  0  0  0  0
    1.6206    3.5813    1.8433 H   0  0  0  0  0  0  0  0  0  0  0  0
    0.8030    4.7132    0.7473 H   0  0  0  0  0  0  0  0  0  0  0  0
    0.3909    4.9907    2.7762 N   0  0  0  0  0  0  0  0  0  0  0  0
    1.1548    5.6392    2.8984 H   0  0  0  0  0  0  0  0  0  0  0  0
   -0.4572    5.5041    2.5822 H   0  0  0  0  0  0  0  0  0  0  0  0
   -0.5564    0.0727    2.1744 C   0  0  0  0  0  0  0  0  0  0  0  0
    0.6169   -0.1288    2.4805 O   0  0  0  0  0  0  0  0  0  0  0  0
   -1.4759    0.4743    3.0595 N   0  0  0  0  0  0  0  0  0  0  0  0
   -2.4132    0.6318    2.7275 H   0  0  0  0  0  0  0  0  0  0  0  0
   -1.1971    0.7118    4.4750 C   0  0  0  0  0  0  0  0  0  0  0  0
   -0.3779    1.4272    4.5748 H   0  0  0  0  0  0  0  0  0  0  0  0
   -2.0826    1.1064    4.9754 H   0  0  0  0  0  0  0  0  0  0  0  0
   -0.8992   -0.2240    4.9525 H   0  0  0  0  0  0  0  0  0  0  0  0
  5  6  2  0  0  0  0
  5  7  1  0  0  0  0
  2  3  1  0  0  0  0
  2  4  1  0  0  0  0
  2  5  1  0  0  0  0
  1  2  1  0  0  0  0
 26 27  2  0  0  0  0
 26 28  1  0  0  0  0
 23 24  1  0  0  0  0
 23 25  1  0  0  0  0
 20 21  1  0  0  0  0
 20 22  1  0  0  0  0
 20 23  1  0  0  0  0
 17 18  1  0  0  0  0
 17 19  1  0  0  0  0
 17 20  1  0  0  0  0
 14 15  1  0  0  0  0
 14 16  1  0  0  0  0
 14 17  1  0  0  0  0
 11 12  1  0  0  0  0
 11 13  1  0  0  0  0
 11 14  1  0  0  0  0
  9 10  1  0  0  0  0
  9 11  1  0  0  0  0
  9 26  1  0  0  0  0
  7  8  1  0  0  0  0
  7  9  1  0  0  0  0
 30 31  1  0  0  0  0
 30 32  1  0  0  0  0
 30 33  1  0  0  0  0
 28 29  1  0  0  0  0
 28 30  1  0  0  0  0
M  END
$$$$
default_name
  -OEChem-02102213163D

 33 32  0     1  0  0  0  0  0999 V2000
   -3.8420   -3.6918    1.5562 H   0  0  0  0  0  0  0  0  0  0  0  0
   -3.8430   -2.7008    1.1032 C   0  0  0  0  0  0  0  0  0  0  0  0
   -4.5510   -2.0608    1.6242 H   0  0  0  0  0  0  0  0  0  0  0  0
   -4.1140   -2.7798    0.0522 H   0  0  0  0  0  0  0  0  0  0  0  0
   -2.4570   -2.1098    1.2172 C   0  0  0  0  0  0  0  0  0  0  0  0
   -1.5600   -2.7438    1.7572 O   0  0  0  0  0  0  0  0  0  0  0  0
   -2.2870   -0.8898    0.7102 N   0  0  0  0  0  0  0  0  0  0  0  0
   -3.0820   -0.4218    0.2992 H   0  0  0  0  0  0  0  0  0  0  0  0
   -1.0240   -0.1468    0.7262 C   0  0  1  0  0  0  0  0  0  0  0  0
   -0.2680   -0.7367    0.2062 H   0  0  0  0  0  0  0  0  0  0  0  0
   -1.2212    1.1806   -0.0314 C   0  0  0  0  0  0  0  0  0  0  0  0
   -1.2513    0.9680   -1.1020 H   0  0  0  0  0  0  0  0  0  0  0  0
   -2.1776    1.6199    0.2555 H   0  0  0  0  0  0  0  0  0  0  0  0
   -0.0991    2.1990    0.2239 C   0  0  0  0  0  0  0  0  0  0  0  0
    0.8688    1.7012    0.1588 H   0  0  0  0  0  0  0  0  0  0  0  0
   -0.1485    2.9847   -0.5323 H   0  0  0  0  0  0  0  0  0  0  0  0
   -0.2374    2.8287    1.6146 C   0  0  0  0  0  0  0  0  0  0  0  0
   -1.2050    3.3244    1.6979 H   0  0  0  0  0  0  0  0  0  0  0  0
   -0.1647    2.0504    2.3749 H   0  0  0  0  0  0  0  0  0  0  0  0
    0.8741    3.8535    1.8325 C   0  0  0  0  0  0  0  0  0  0  0  0
    1.8411    3.3572    1.7682 H   0  0  0  0  0  0  0  0  0  0  0  0
    0.8139    4.6219    1.0635 H   0  0  0  0  0  0  0  0  0  0  0  0
    0.7574    4.4937    3.1477 N   0  0  0  0  0  0  0  0  0  0  0  0
    1.5135    5.1526    3.2630 H   0  0  0  0  0  0  0  0  0  0  0  0
   -0.1248    4.9828    3.2011 H   0  0  0  0  0  0  0  0  0  0  0  0
   -0.5564    0.0727    2.1744 C   0  0  0  0  0  0  0  0  0  0  0  0
    0.6169   -0.1288    2.4805 O   0  0  0  0  0  0  0  0  0  0  0  0
   -1.4759    0.4743    3.0595 N   0  0  0  0  0  0  0  0  0  0  0  0
   -2.4132    0.6318    2.7275 H   0  0  0  0  0  0  0  0  0  0  0  0
   -1.1971    0.7118    4.4750 C   0  0  0  0  0  0  0  0  0  0  0  0
   -0.3779    1.4272    4.5748 H   0  0  0  0  0  0  0  0  0  0  0  0
   -2.0826    1.1064    4.9754 H   0  0  0  0  0  0  0  0  0  0  0  0
   -0.8992   -0.2240    4.9525 H   0  0  0  0  0  0  0  0  0  0  0  0
  5  6  2  0  0  0  0
  5  7  1  0  0  0  0
  2  3  1  0  0  0  0
  2  4  1  0  0  0  0
  2  5  1  0  0  0  0
  1  2  1  0  0  0  0
 26 27  2  0  0  0  0
 26 28  1  0  0  0  0
 23 24  1  0  0  0  0
 23 25  1  0  0  0  0
 20 21  1  0  0  0  0
 20 22  1  0  0  0  0
 20 23  1  0  0  0  0
 17 18  1  0  0  0  0
 17 19  1  0  0  0  0
 17 20  1  0  0  0  0
 14 15  1  0  0  0  0
 14 16  1  0  0  0  0
 14 17  1  0  0  0  0
 11 12  1  0  0  0  0
 11 13  1  0  0  0  0
 11 14  1  0  0  0  0
  9 10  1  0  0  0  0
  9 11  1  0  0  0  0
  9 26  1  0  0  0  0
  7  8  1  0  0  0  0
  7  9  1  0  0  0  0
 30 31  1  0  0  0  0
 30 32  1  0  0  0  0
 30 33  1  0  0  0  0
 28 29  1  0  0  0  0
 28 30  1  0  0  0  0
M  END
$$$$
default_name
  -OEChem-02102213163D

 33 32  0     1  0  0  0  0  0999 V2000
   -3.8420   -3.6918    1.5562 H   0  0  0  0  0  0  0  0  0  0  0  0
   -3.8430   -2.7008    1.1032 C   0  0  0  0  0  0  0  0  0  0  0  0
   -4.5510   -2.0608    1.6242 H   0  0  0  0  0  0  0  0  0  0  0  0
   -4.1140   -2.7798    0.0522 H   0  0  0  0  0  0  0  0  0  0  0  0
   -2.4570   -2.1098    1.2172 C   0  0  0  0  0  0  0  0  0  0  0  0
   -1.5600   -2.7438    1.7572 O   0  0  0  0  0  0  0  0  0  0  0  0
   -2.2870   -0.8898    0.7102 N   0  0  0  0  0  0  0  0  0  0  0  0
   -3.0820   -0.4218    0.2992 H   0  0  0  0  0  0  0  0  0  0  0  0
   -1.0240   -0.1468    0.7262 C   0  0  1  0  0  0  0  0  0  0  0  0
   -0.2680   -0.7367    0.2062 H   0  0  0  0  0  0  0  0  0  0  0  0
   -1.2212    1.1806   -0.0314 C   0  0  0  0  0  0  0  0  0  0  0  0
   -1.2513    0.9680   -1.1020 H   0  0  0  0  0  0  0  0  0  0  0  0
   -2.1776    1.6199    0.2555 H   0  0  0  0  0  0  0  0  0  0  0  0
   -0.0991    2.1990    0.2239 C   0  0  0  0  0  0  0  0  0  0  0  0
    0.8552    1.7804   -0.0970 H   0  0  0  0  0  0  0  0  0  0  0  0
   -0.3014    3.1068   -0.3476 H   0  0  0  0  0  0  0  0  0  0  0  0
   -0.0076    2.5508    1.7130 C   0  0  0  0  0  0  0  0  0  0  0  0
   -0.9583    2.9640    2.0511 H   0  0  0  0  0  0  0  0  0  0  0  0
    0.2182    1.6509    2.2859 H   0  0  0  0  0  0  0  0  0  0  0  0
    1.0974    3.5818    1.9352 C   0  0  0  0  0  0  0  0  0  0  0  0
    2.0508    3.1644    1.6154 H   0  0  0  0  0  0  0  0  0  0  0  0
    0.8827    4.4744    1.3499 H   0  0  0  0  0  0  0  0  0  0  0  0
    1.1966    3.9592    3.3497 N   0  0  0  0  0  0  0  0  0  0  0  0
    1.9434    4.6291    3.4616 H   0  0  0  0  0  0  0  0  0  0  0  0
    0.3248    4.3765    3.6432 H   0  0  0  0  0  0  0  0  0  0  0  0
   -0.5564    0.0727    2.1744 C   0  0  0  0  0  0  0  0  0  0  0  0
    0.6169   -0.1288    2.4805 O   0  0  0  0  0  0  0  0  0  0  0  0
   -1.4759    0.4743    3.0595 N   0  0  0  0  0  0  0  0  0  0  0  0
   -2.4132    0.6318    2.7275 H   0  0  0  0  0  0  0  0  0  0  0  0
   -1.1971    0.7118    4.4750 C   0  0  0  0  0  0  0  0  0  0  0  0
   -0.3779    1.4272    4.5748 H   0  0  0  0  0  0  0  0  0  0  0  0
   -2.0826    1.1064    4.9754 H   0  0  0  0  0  0  0  0  0  0  0  0
   -0.8992   -0.2240    4.9525 H   0  0  0  0  0  0  0  0  0  0  0  0
  5  6  2  0  0  0  0
  5  7  1  0  0  0  0
  2  3  1  0  0  0  0
  2  4  1  0  0  0  0
  2  5  1  0  0  0  0
  1  2  1  0  0  0  0
 26 27  2  0  0  0  0
 26 28  1  0  0  0  0
 23 24  1  0  0  0  0
 23 25  1  0  0  0  0
 20 21  1  0  0  0  0
 20 22  1  0  0  0  0
 20 23  1  0  0  0  0
 17 18  1  0  0  0  0
 17 19  1  0  0  0  0
 17 20  1  0  0  0  0
 14 15  1  0  0  0  0
 14 16  1  0  0  0  0
 14 17  1  0  0  0  0
 11 12  1  0  0  0  0
 11 13  1  0  0  0  0
 11 14  1  0  0  0  0
  9 10  1  0  0  0  0
  9 11  1  0  0  0  0
  9 26  1  0  0  0  0
  7  8  1  0  0  0  0
  7  9  1  0  0  0  0
 30 31  1  0  0  0  0
 30 32  1  0  0  0  0
 30 33  1  0  0  0  0
 28 29  1  0  0  0  0
 28 30  1  0  0  0  0
M  END
$$$$
default_name
  -OEChem-02102213163D

 33 32  0     1  0  0  0  0  0999 V2000
   -3.8420   -3.6918    1.5562 H   0  0  0  0  0  0  0  0  0  0  0  0
   -3.8430   -2.7008    1.1032 C   0  0  0  0  0  0  0  0  0  0  0  0
   -4.5510   -2.0608    1.6242 H   0  0  0  0  0  0  0  0  0  0  0  0
   -4.1140   -2.7798    0.0522 H   0  0  0  0  0  0  0  0  0  0  0  0
   -2.4570   -2.1098    1.2172 C   0  0  0  0  0  0  0  0  0  0  0  0
   -1.5600   -2.7438    1.7572 O   0  0  0  0  0  0  0  0  0  0  0  0
   -2.2870   -0.8898    0.7102 N   0  0  0  0  0  0  0  0  0  0  0  0
   -3.0820   -0.4218    0.2992 H   0  0  0  0  0  0  0  0  0  0  0  0
   -1.0240   -0.1468    0.7262 C   0  0  1  0  0  0  0  0  0  0  0  0
   -0.2680   -0.7367    0.2062 H   0  0  0  0  0  0  0  0  0  0  0  0
   -1.2212    1.1806   -0.0314 C   0  0  0  0  0  0  0  0  0  0  0  0
   -1.2513    0.9680   -1.1020 H   0  0  0  0  0  0  0  0  0  0  0  0
   -2.1776    1.6199    0.2555 H   0  0  0  0  0  0  0  0  0  0  0  0
   -0.0991    2.1990    0.2239 C   0  0  0  0  0  0  0  0  0  0  0  0
    0.7947    1.9046   -0.3268 H   0  0  0  0  0  0  0  0  0  0  0  0
   -0.4226    3.1833   -0.1198 H   0  0  0  0  0  0  0  0  0  0  0  0
    0.2433    2.2737    1.7162 C   0  0  0  0  0  0  0  0  0  0  0  0
   -0.6439    2.5598    2.2818 H   0  0  0  0  0  0  0  0  0  0  0  0
    0.5899    1.2983    2.0588 H   0  0  0  0  0  0  0  0  0  0  0  0
    1.3423    3.3095    1.9447 C   0  0  0  0  0  0  0  0  0  0  0  0
    2.2355    3.0160    1.3955 H   0  0  0  0  0  0  0  0  0  0  0  0
    1.0046    4.2807    1.5867 H   0  0  0  0  0  0  0  0  0  0  0  0
    1.6784    3.4236    3.3685 N   0  0  0  0  0  0  0  0  0  0  0  0
    2.4152    4.1044    3.4808 H   0  0  0  0  0  0  0  0  0  0  0  0
    0.8610    3.7268    3.8787 H   0  0  0  0  0  0  0  0  0  0  0  0
   -0.5564    0.0727    2.1744 C   0  0  0  0  0  0  0  0  0  0  0  0
    0.6169   -0.1288    2.4805 O   0  0  0  0  0  0  0  0  0  0  0  0
   -1.4759    0.4743    3.0595 N   0  0  0  0  0  0  0  0  0  0  0  0
   -2.4132    0.6318    2.7275 H   0  0  0  0  0  0  0  0  0  0  0  0
   -1.1971    0.7118    4.4750 C   0  0  0  0  0  0  0  0  0  0  0  0
   -0.3779    1.4272    4.5748 H   0  0  0  0  0  0  0  0  0  0  0  0
   -2.0826    1.1064    4.9754 H   0  0  0  0  0  0  0  0  0  0  0  0
   -0.8992   -0.2240    4.9525 H   0  0  0  0  0  0  0  0  0  0  0  0
  5  6  2  0  0  0  0
  5  7  1  0  0  0  0
  2  3  1  0  0  0  0
  2  4  1  0  0  0  0
  2  5  1  0  0  0  0
  1  2  1  0  0  0  0
 26 27  2  0  0  0  0
 26 28  1  0  0  0  0
 23 24  1  0  0  0  0
 23 25  1  0  0  0  0
 20 21  1  0  0  0  0
 20 22  1  0  0  0  0
 20 23  1  0  0  0  0
 17 18  1  0  0  0  0
 17 19  1  0  0  0  0
 17 20  1  0  0  0  0
 14 15  1  0  0  0  0
 14 16  1  0  0  0  0
 14 17  1  0  0  0  0
 11 12  1  0  0  0  0
 11 13  1  0  0  0  0
 11 14  1  0  0  0  0
  9 10  1  0  0  0  0
  9 11  1  0  0  0  0
  9 26  1  0  0  0  0
  7  8  1  0  0  0  0
  7  9  1  0  0  0  0
 30 31  1  0  0  0  0
 30 32  1  0  0  0  0
 30 33  1  0  0  0  0
 28 29  1  0  0  0  0
 28 30  1  0  0  0  0
M  END
$$$$
default_name
  -OEChem-02102213163D

 33 32  0     1  0  0  0  0  0999 V2000
   -3.8420   -3.6918    1.5562 H   0  0  0  0  0  0  0  0  0  0  0  0
   -3.8430   -2.7008    1.1032 C   0  0  0  0  0  0  0  0  0  0  0  0
   -4.5510   -2.0608    1.6242 H   0  0  0  0  0  0  0  0  0  0  0  0
   -4.1140   -2.7798    0.0522 H   0  0  0  0  0  0  0  0  0  0  0  0
   -2.4570   -2.1098    1.2172 C   0  0  0  0  0  0  0  0  0  0  0  0
   -1.5600   -2.7438    1.7572 O   0  0  0  0  0  0  0  0  0  0  0  0
   -2.2870   -0.8898    0.7102 N   0  0  0  0  0  0  0  0  0  0  0  0
   -3.0820   -0.4218    0.2992 H   0  0  0  0  0  0  0  0  0  0  0  0
   -1.0240   -0.1468    0.7262 C   0  0  1  0  0  0  0  0  0  0  0  0
   -0.2680   -0.7367    0.2062 H   0  0  0  0  0  0  0  0  0  0  0  0
   -1.2212    1.1806   -0.0314 C   0  0  0  0  0  0  0  0  0  0  0  0
   -1.2513    0.9680   -1.1020 H   0  0  0  0  0  0  0  0  0  0  0  0
   -2.1776    1.6199    0.2555 H   0  0  0  0  0  0  0  0  0  0  0  0
   -0.0991    2.1990    0.2239 C   0  0  0  0  0  0  0  0  0  0  0  0
    0.6916    2.0654   -0.5150 H   0  0  0  0  0  0  0  0  0  0  0  0
   -0.5039    3.2089    0.1354 H   0  0  0  0  0  0  0  0  0  0  0  0
    0.4980    2.0162    1.6238 C   0  0  0  0  0  0  0  0  0  0  0  0
   -0.2833    2.1393    2.3744 H   0  0  0  0  0  0  0  0  0  0  0  0
    0.9251    1.0166    1.7091 H   0  0  0  0  0  0  0  0  0  0  0  0
    1.5922    3.0553    1.8604 C   0  0  0  0  0  0  0  0  0  0  0  0
    2.3825    2.9223    1.1234 H   0  0  0  0  0  0  0  0  0  0  0  0
    1.1713    4.0541    1.7581 H   0  0  0  0  0  0  0  0  0  0  0  0
    2.1701    2.9234    3.2028 N   0  0  0  0  0  0  0  0  0  0  0  0
    2.8969    3.6143    3.3192 H   0  0  0  0  0  0  0  0  0  0  0  0
    1.4473    3.0777    3.8913 H   0  0  0  0  0  0  0  0  0  0  0  0
   -0.5564    0.0727    2.1744 C   0  0  0  0  0  0  0  0  0  0  0  0
    0.6169   -0.1288    2.4805 O   0  0  0  0  0  0  0  0  0  0  0  0
   -1.4759    0.4743    3.0595 N   0  0  0  0  0  0  0  0  0  0  0  0
   -2.4132    0.6318    2.7275 H   0  0  0  0  0  0  0  0  0  0  0  0
   -1.1971    0.7118    4.4750 C   0  0  0  0  0  0  0  0  0  0  0  0
   -0.3779    1.4272    4.5748 H   0  0  0  0  0  0  0  0  0  0  0  0
   -2.0826    1.1064    4.9754 H   0  0  0  0  0  0  0  0  0  0  0  0
   -0.8992   -0.2240    4.9525 H   0  0  0  0  0  0  0  0  0  0  0  0
  5  6  2  0  0  0  0
  5  7  1  0  0  0  0
  2  3  1  0  0  0  0
  2  4  1  0  0  0  0
  2  5  1  0  0  0  0
  1  2  1  0  0  0  0
 26 27  2  0  0  0  0
 26 28  1  0  0  0  0
 23 24  1  0  0  0  0
 23 25  1  0  0  0  0
 20 21  1  0  0  0  0
 20 22  1  0  0  0  0
 20 23  1  0  0  0  0
 17 18  1  0  0  0  0
 17 19  1  0  0  0  0
 17 20  1  0  0  0  0
 14 15  1  0  0  0  0
 14 16  1  0  0  0  0
 14 17  1  0  0  0  0
 11 12  1  0  0  0  0
 11 13  1  0  0  0  0
 11 14  1  0  0  0  0
  9 10  1  0  0  0  0
  9 11  1  0  0  0  0
  9 26  1  0  0  0  0
  7  8  1  0  0  0  0
  7  9  1  0  0  0  0
 30 31  1  0  0  0  0
 30 32  1  0  0  0  0
 30 33  1  0  0  0  0
 28 29  1  0  0  0  0
 28 30  1  0  0  0  0
M  END
$$$$
default_name
  -OEChem-02102213163D

 33 32  0     1  0  0  0  0  0999 V2000
   -3.8420   -3.6918    1.5562 H   0  0  0  0  0  0  0  0  0  0  0  0
   -3.8430   -2.7008    1.1032 C   0  0  0  0  0  0  0  0  0  0  0  0
   -4.5510   -2.0608    1.6242 H   0  0  0  0  0  0  0  0  0  0  0  0
   -4.1140   -2.7798    0.0522 H   0  0  0  0  0  0  0  0  0  0  0  0
   -2.4570   -2.1098    1.2172 C   0  0  0  0  0  0  0  0  0  0  0  0
   -1.5600   -2.7438    1.7572 O   0  0  0  0  0  0  0  0  0  0  0  0
   -2.2870   -0.8898    0.7102 N   0  0  0  0  0  0  0  0  0  0  0  0
   -3.0820   -0.4218    0.2992 H   0  0  0  0  0  0  0  0  0  0  0  0
   -1.0240   -0.1468    0.7262 C   0  0  1  0  0  0  0  0  0  0  0  0
   -0.2680   -0.7367    0.2062 H   0  0  0  0  0  0  0  0  0  0  0  0
   -1.2212    1.1806   -0.0314 C   0  0  0  0  0  0  0  0  0  0  0  0
   -1.2513    0.9680   -1.1020 H   0  0  0  0  0  0  0  0  0  0  0  0
   -2.1776    1.6199    0.2555 H   0  0  0  0  0  0  0  0  0  0  0  0
   -0.0991    2.1990    0.2239 C   0  0  0  0  0  0  0  0  0  0  0  0
    0.5527    2.2518   -0.6486 H   0  0  0  0  0  0  0  0  0  0  0  0
   -0.5398    3.1819    0.4008 H   0  0  0  0  0  0  0  0  0  0  0  0
    0.7392    1.7959    1.4422 C   0  0  0  0  0  0  0  0  0  0  0  0
    0.0989    1.7311    2.3225 H   0  0  0  0  0  0  0  0  0  0  0  0
    1.2011    0.8250    1.2605 H   0  0  0  0  0  0  0  0  0  0  0  0
    1.8301    2.8364    1.6881 C   0  0  0  0  0  0  0  0  0  0  0  0
    2.4819    2.8894    0.8175 H   0  0  0  0  0  0  0  0  0  0  0  0
    1.3714    3.8100    1.8521 H   0  0  0  0  0  0  0  0  0  0  0  0
    2.6381    2.4928    2.8639 N   0  0  0  0  0  0  0  0  0  0  0  0
    3.3554    3.1921    2.9879 H   0  0  0  0  0  0  0  0  0  0  0  0
    2.0436    2.4735    3.6803 H   0  0  0  0  0  0  0  0  0  0  0  0
   -0.5564    0.0727    2.1744 C   0  0  0  0  0  0  0  0  0  0  0  0
    0.6169   -0.1288    2.4805 O   0  0  0  0  0  0  0  0  0  0  0  0
   -1.4759    0.4743    3.0595 N   0  0  0  0  0  0  0  0  0  0  0  0
   -2.4132    0.6318    2.7275 H   0  0  0  0  0  0  0  0  0  0  0  0
   -1.1971    0.7118    4.4750 C   0  0  0  0  0  0  0  0  0  0  0  0
   -0.3779    1.4272    4.5748 H   0  0  0  0  0  0  0  0  0  0  0  0
   -2.0826    1.1064    4.9754 H   0  0  0  0  0  0  0  0  0  0  0  0
   -0.8992   -0.2240    4.9525 H   0  0  0  0  0  0  0  0  0  0  0  0
  5  6  2  0  0  0  0
  5  7  1  0  0  0  0
  2  3  1  0  0  0  0
  2  4  1  0  0  0  0
  2  5  1  0  0  0  0
  1  2  1  0  0  0  0
 26 27  2  0  0  0  0
 26 28  1  0  0  0  0
 23 24  1  0  0  0  0
 23 25  1  0  0  0  0
 20 21  1  0  0  0  0
 20 22  1  0  0  0  0
 20 23  1  0  0  0  0
 17 18  1  0  0  0  0
 17 19  1  0  0  0  0
 17 20  1  0  0  0  0
 14 15  1  0  0  0  0
 14 16  1  0  0  0  0
 14 17  1  0  0  0  0
 11 12  1  0  0  0  0
 11 13  1  0  0  0  0
 11 14  1  0  0  0  0
  9 10  1  0  0  0  0
  9 11  1  0  0  0  0
  9 26  1  0  0  0  0
  7  8  1  0  0  0  0
  7  9  1  0  0  0  0
 30 31  1  0  0  0  0
 30 32  1  0  0  0  0
 30 33  1  0  0  0  0
 28 29  1  0  0  0  0
 28 30  1  0  0  0  0
M  END
$$$$
default_name
  -OEChem-02102213163D

 33 32  0     1  0  0  0  0  0999 V2000
   -3.8420   -3.6918    1.5562 H   0  0  0  0  0  0  0  0  0  0  0  0
   -3.8430   -2.7008    1.1032 C   0  0  0  0  0  0  0  0  0  0  0  0
   -4.5510   -2.0608    1.6242 H   0  0  0  0  0  0  0  0  0  0  0  0
   -4.1140   -2.7798    0.0522 H   0  0  0  0  0  0  0  0  0  0  0  0
   -2.4570   -2.1098    1.2172 C   0  0  0  0  0  0  0  0  0  0  0  0
   -1.5600   -2.7438    1.7572 O   0  0  0  0  0  0  0  0  0  0  0  0
   -2.2870   -0.8898    0.7102 N   0  0  0  0  0  0  0  0  0  0  0  0
   -3.0820   -0.4218    0.2992 H   0  0  0  0  0  0  0  0  0  0  0  0
   -1.0240   -0.1468    0.7262 C   0  0  1  0  0  0  0  0  0  0  0  0
   -0.2680   -0.7367    0.2062 H   0  0  0  0  0  0  0  0  0  0  0  0
   -1.2212    1.1806   -0.0314 C   0  0  0  0  0  0  0  0  0  0  0  0
   -1.2513    0.9680   -1.1020 H   0  0  0  0  0  0  0  0  0  0  0  0
   -2.1776    1.6199    0.2555 H   0  0  0  0  0  0  0  0  0  0  0  0
   -0.0991    2.1990    0.2239 C   0  0  0  0  0  0  0  0  0  0  0  0
    0.3877    2.4512   -0.7186 H   0  0  0  0  0  0  0  0  0  0  0  0
   -0.5277    3.1041    0.6581 H   0  0  0  0  0  0  0  0  0  0  0  0
    0.9506    1.6277    1.1838 C   0  0  0  0  0  0  0  0  0  0  0  0
    0.4768    1.3631    2.1296 H   0  0  0  0  0  0  0  0  0  0  0  0
    1.3989    0.7365    0.7437 H   0  0  0  0  0  0  0  0  0  0  0  0
    2.0397    2.6677    1.4395 C   0  0  0  0  0  0  0  0  0  0  0  0
    2.5268    2.9198    0.4989 H   0  0  0  0  0  0  0  0  0  0  0  0
    1.5913    3.5651    1.8625 H   0  0  0  0  0  0  0  0  0  0  0  0
    3.0505    2.1609    2.3748 N   0  0  0  0  0  0  0  0  0  0  0  0
    3.7597    2.8666    2.5095 H   0  0  0  0  0  0  0  0  0  0  0  0
    2.6094    1.9554    3.2600 H   0  0  0  0  0  0  0  0  0  0  0  0
   -0.5564    0.0727    2.1744 C   0  0  0  0  0  0  0  0  0  0  0  0
    0.6169   -0.1288    2.4805 O   0  0  0  0  0  0  0  0  0  0  0  0
   -1.4759    0.4743    3.0595 N   0  0  0  0  0  0  0  0  0  0  0  0
   -2.4132    0.6318    2.7275 H   0  0  0  0  0  0  0  0  0  0  0  0
   -1.1971    0.7118    4.4750 C   0  0  0  0  0  0  0  0  0  0  0  0
   -0.3779    1.4272    4.5748 H   0  0  0  0  0  0  0  0  0  0  0  0
   -2.0826    1.1064    4.9754 H   0  0  0  0  0  0  0  0  0  0  0  0
   -0.8992   -0.2240    4.9525 H   0  0  0  0  0  0  0  0  0  0  0  0
  5  6  2  0  0  0  0
  5  7  1  0  0  0  0
  2  3  1  0  0  0  0
  2  4  1  0  0  0  0
  2  5  1  0  0  0  0
  1  2  1  0  0  0  0
 26 27  2  0  0  0  0
 26 28  1  0  0  0  0
 23 24  1  0  0  0  0
 23 25  1  0  0  0  0
 20 21  1  0  0  0  0
 20 22  1  0  0  0  0
 20 23  1  0  0  0  0
 17 18  1  0  0  0  0
 17 19  1  0  0  0  0
 17 20  1  0  0  0  0
 14 15  1  0  0  0  0
 14 16  1  0  0  0  0
 14 17  1  0  0  0  0
 11 12  1  0  0  0  0
 11 13  1  0  0  0  0
 11 14  1  0  0  0  0
  9 10  1  0  0  0  0
  9 11  1  0  0  0  0
  9 26  1  0  0  0  0
  7  8  1  0  0  0  0
  7  9  1  0  0  0  0
 30 31  1  0  0  0  0
 30 32  1  0  0  0  0
 30 33  1  0  0  0  0
 28 29  1  0  0  0  0
 28 30  1  0  0  0  0
M  END
$$$$
default_name
  -OEChem-02102213163D

 33 32  0     1  0  0  0  0  0999 V2000
   -3.8420   -3.6918    1.5562 H   0  0  0  0  0  0  0  0  0  0  0  0
   -3.8430   -2.7008    1.1032 C   0  0  0  0  0  0  0  0  0  0  0  0
   -4.5510   -2.0608    1.6242 H   0  0  0  0  0  0  0  0  0  0  0  0
   -4.1140   -2.7798    0.0522 H   0  0  0  0  0  0  0  0  0  0  0  0
   -2.4570   -2.1098    1.2172 C   0  0  0  0  0  0  0  0  0  0  0  0
   -1.5600   -2.7438    1.7572 O   0  0  0  0  0  0  0  0  0  0  0  0
   -2.2870   -0.8898    0.7102 N   0  0  0  0  0  0  0  0  0  0  0  0
   -3.0820   -0.4218    0.2992 H   0  0  0  0  0  0  0  0  0  0  0  0
   -1.0240   -0.1468    0.7262 C   0  0  1  0  0  0  0  0  0  0  0  0
   -0.2680   -0.7367    0.2062 H   0  0  0  0  0  0  0  0  0  0  0  0
   -1.2212    1.1806   -0.0314 C   0  0  0  0  0  0  0  0  0  0  0  0
   -1.2513    0.9680   -1.1020 H   0  0  0  0  0  0  0  0  0  0  0  0
   -2.1776    1.6199    0.2555 H   0  0  0  0  0  0  0  0  0  0  0  0
   -0.0991    2.1990    0.2239 C   0  0  0  0  0  0  0  0  0  0  0  0
    0.2077    2.6499   -0.7203 H   0  0  0  0  0  0  0  0  0  0  0  0
   -0.4686    2.9809    0.8899 H   0  0  0  0  0  0  0  0  0  0  0  0
    1.1177    1.5233    0.8662 C   0  0  0  0  0  0  0  0  0  0  0  0
    0.8246    1.0603    1.8089 H   0  0  0  0  0  0  0  0  0  0  0  0
    1.5052    0.7573    0.1938 H   0  0  0  0  0  0  0  0  0  0  0  0
    2.2068    2.5608    1.1315 C   0  0  0  0  0  0  0  0  0  0  0  0
    2.5143    3.0113    0.1891 H   0  0  0  0  0  0  0  0  0  0  0  0
    1.8161    3.3360    1.7886 H   0  0  0  0  0  0  0  0  0  0  0  0
    3.3793    1.9506    1.7690 N   0  0  0  0  0  0  0  0  0  0  0  0
    4.0821    2.6600    1.9165 H   0  0  0  0  0  0  0  0  0  0  0  0
    3.1061    1.5588    2.6591 H   0  0  0  0  0  0  0  0  0  0  0  0
   -0.5564    0.0727    2.1744 C   0  0  0  0  0  0  0  0  0  0  0  0
    0.6169   -0.1288    2.4805 O   0  0  0  0  0  0  0  0  0  0  0  0
   -1.4759    0.4743    3.0595 N   0  0  0  0  0  0  0  0  0  0  0  0
   -2.4132    0.6318    2.7275 H   0  0  0  0  0  0  0  0  0  0  0  0
   -1.1971    0.7118    4.4750 C   0  0  0  0  0  0  0  0  0  0  0  0
   -0.3779    1.4272    4.5748 H   0  0  0  0  0  0  0  0  0  0  0  0
   -2.0826    1.1064    4.9754 H   0  0  0  0  0  0  0  0  0  0  0  0
   -0.8992   -0.2240    4.9525 H   0  0  0  0  0  0  0  0  0  0  0  0
  5  6  2  0  0  0  0
  5  7  1  0  0  0  0
  2  3  1  0  0  0  0
  2  4  1  0  0  0  0
  2  5  1  0  0  0  0
  1  2  1  0  0  0  0
 26 27  2  0  0  0  0
 26 28  1  0  0  0  0
 23 24  1  0  0  0  0
 23 25  1  0  0  0  0
 20 21  1  0  0  0  0
 20 22  1  0  0  0  0
 20 23  1  0  0  0  0
 17 18  1  0  0  0  0
 17 19  1  0  0  0  0
 17 20  1  0  0  0  0
 14 15  1  0  0  0  0
 14 16  1  0  0  0  0
 14 17  1  0  0  0  0
 11 12  1  0  0  0  0
 11 13  1  0  0  0  0
 11 14  1  0  0  0  0
  9 10  1  0  0  0  0
  9 11  1  0  0  0  0
  9 26  1  0  0  0  0
  7  8  1  0  0  0  0
  7  9  1  0  0  0  0
 30 31  1  0  0  0  0
 30 32  1  0  0  0  0
 30 33  1  0  0  0  0
 28 29  1  0  0  0  0
 28 30  1  0  0  0  0
M  END
$$$$
default_name
  -OEChem-02102213163D

 33 32  0     1  0  0  0  0  0999 V2000
   -3.8420   -3.6918    1.5562 H   0  0  0  0  0  0  0  0  0  0  0  0
   -3.8430   -2.7008    1.1032 C   0  0  0  0  0  0  0  0  0  0  0  0
   -4.5510   -2.0608    1.6242 H   0  0  0  0  0  0  0  0  0  0  0  0
   -4.1140   -2.7798    0.0522 H   0  0  0  0  0  0  0  0  0  0  0  0
   -2.4570   -2.1098    1.2172 C   0  0  0  0  0  0  0  0  0  0  0  0
   -1.5600   -2.7438    1.7572 O   0  0  0  0  0  0  0  0  0  0  0  0
   -2.2870   -0.8898    0.7102 N   0  0  0  0  0  0  0  0  0  0  0  0
   -3.0820   -0.4218    0.2992 H   0  0  0  0  0  0  0  0  0  0  0  0
   -1.0240   -0.1468    0.7262 C   0  0  1  0  0  0  0  0  0  0  0  0
   -0.2680   -0.7367    0.2062 H   0  0  0  0  0  0  0  0  0  0  0  0
   -1.2212    1.1806   -0.0314 C   0  0  0  0  0  0  0  0  0  0  0  0
   -1.2513    0.9680   -1.1020 H   0  0  0  0  0  0  0  0  0  0  0  0
   -2.1776    1.6199    0.2555 H   0  0  0  0  0  0  0  0  0  0  0  0
   -0.0991    2.1990    0.2239 C   0  0  0  0  0  0  0  0  0  0  0  0
    0.0251    2.8344   -0.6535 H   0  0  0  0  0  0  0  0  0  0  0  0
   -0.3665    2.8206    1.0804 H   0  0  0  0  0  0  0  0  0  0  0  0
    1.2291    1.4896    0.5109 C   0  0  0  0  0  0  0  0  0  0  0  0
    1.1185    0.8434    1.3823 H   0  0  0  0  0  0  0  0  0  0  0  0
    1.5126    0.8858   -0.3516 H   0  0  0  0  0  0  0  0  0  0  0  0
    2.3200    2.5229    0.7852 C   0  0  0  0  0  0  0  0  0  0  0  0
    2.4451    3.1576   -0.0906 H   0  0  0  0  0  0  0  0  0  0  0  0
    2.0303    3.1384    1.6353 H   0  0  0  0  0  0  0  0  0  0  0  0
    3.6019    1.8760    1.0876 N   0  0  0  0  0  0  0  0  0  0  0  0
    4.3007    2.5863    1.2493 H   0  0  0  0  0  0  0  0  0  0  0  0
    3.4999    1.3106    1.9184 H   0  0  0  0  0  0  0  0  0  0  0  0
   -0.5564    0.0727    2.1744 C   0  0  0  0  0  0  0  0  0  0  0  0
    0.6169   -0.1288    2.4805 O   0  0  0  0  0  0  0  0  0  0  0  0
   -1.4759    0.4743    3.0595 N   0  0  0  0  0  0  0  0  0  0  0  0
   -2.4132    0.6318    2.7275 H   0  0  0  0  0  0  0  0  0  0  0  0
   -1.1971    0.7118    4.4750 C   0  0  0  0  0  0  0  0  0  0  0  0
   -0.3779    1.4272    4.5748 H   0  0  0  0  0  0  0  0  0  0  0  0
   -2.0826    1.1064    4.9754 H   0  0  0  0  0  0  0  0  0  0  0  0
   -0.8992   -0.2240    4.9525 H   0  0  0  0  0  0  0  0  0  0  0  0
  5  6  2  0  0  0  0
  5  7  1  0  0  0  0
  2  3  1  0  0  0  0
  2  4  1  0  0  0  0
  2  5  1  0  0  0  0
  1  2  1  0  0  0  0
 26 27  2  0  0  0  0
 26 28  1  0  0  0  0
 23 24  1  0  0  0  0
 23 25  1  0  0  0  0
 20 21  1  0  0  0  0
 20 22  1  0  0  0  0
 20 23  1  0  0  0  0
 17 18  1  0  0  0  0
 17 19  1  0  0  0  0
 17 20  1  0  0  0  0
 14 15  1  0  0  0  0
 14 16  1  0  0  0  0
 14 17  1  0  0  0  0
 11 12  1  0  0  0  0
 11 13  1  0  0  0  0
 11 14  1  0  0  0  0
  9 10  1  0  0  0  0
  9 11  1  0  0  0  0
  9 26  1  0  0  0  0
  7  8  1  0  0  0  0
  7  9  1  0  0  0  0
 30 31  1  0  0  0  0
 30 32  1  0  0  0  0
 30 33  1  0  0  0  0
 28 29  1  0  0  0  0
 28 30  1  0  0  0  0
M  END
$$$$
default_name
  -OEChem-02102213163D

 33 32  0     1  0  0  0  0  0999 V2000
   -3.8420   -3.6918    1.5562 H   0  0  0  0  0  0  0  0  0  0  0  0
   -3.8430   -2.7008    1.1032 C   0  0  0  0  0  0  0  0  0  0  0  0
   -4.5510   -2.0608    1.6242 H   0  0  0  0  0  0  0  0  0  0  0  0
   -4.1140   -2.7798    0.0522 H   0  0  0  0  0  0  0  0  0  0  0  0
   -2.4570   -2.1098    1.2172 C   0  0  0  0  0  0  0  0  0  0  0  0
   -1.5600   -2.7438    1.7572 O   0  0  0  0  0  0  0  0  0  0  0  0
   -2.2870   -0.8898    0.7102 N   0  0  0  0  0  0  0  0  0  0  0  0
   -3.0820   -0.4218    0.2992 H   0  0  0  0  0  0  0  0  0  0  0  0
   -1.0240   -0.1468    0.7262 C   0  0  1  0  0  0  0  0  0  0  0  0
   -0.2680   -0.7367    0.2062 H   0  0  0  0  0  0  0  0  0  0  0  0
   -1.2212    1.1806   -0.0314 C   0  0  0  0  0  0  0  0  0  0  0  0
   -1.2513    0.9680   -1.1020 H   0  0  0  0  0  0  0  0  0  0  0  0
   -2.1776    1.6199    0.2555 H   0  0  0  0  0  0  0  0  0  0  0  0
   -0.0991    2.1990    0.2239 C   0  0  0  0  0  0  0  0  0  0  0  0
   -0.1479    2.9922   -0.5227 H   0  0  0  0  0  0  0  0  0  0  0  0
   -0.2282    2.6341    1.2166 H   0  0  0  0  0  0  0  0  0  0  0  0
    1.2772    1.5290    0.1424 C   0  0  0  0  0  0  0  0  0  0  0  0
    1.3386    0.7272    0.8788 H   0  0  0  0  0  0  0  0  0  0  0  0
    1.4207    1.1134   -0.8554 H   0  0  0  0  0  0  0  0  0  0  0  0
    2.3716    2.5566    0.4240 C   0  0  0  0  0  0  0  0  0  0  0  0
    2.3240    3.3489   -0.3213 H   0  0  0  0  0  0  0  0  0  0  0  0
    2.2195    2.9856    1.4131 H   0  0  0  0  0  0  0  0  0  0  0  0
    3.7034    1.9423    0.3772 N   0  0  0  0  0  0  0  0  0  0  0  0
    4.4006    2.6507    0.5535 H   0  0  0  0  0  0  0  0  0  0  0  0
    3.7638    1.2278    1.0886 H   0  0  0  0  0  0  0  0  0  0  0  0
   -0.5564    0.0727    2.1744 C   0  0  0  0  0  0  0  0  0  0  0  0
    0.6169   -0.1288    2.4805 O   0  0  0  0  0  0  0  0  0  0  0  0
   -1.4759    0.4743    3.0595 N   0  0  0  0  0  0  0  0  0  0  0  0
   -2.4132    0.6318    2.7275 H   0  0  0  0  0  0  0  0  0  0  0  0
   -1.1971    0.7118    4.4750 C   0  0  0  0  0  0  0  0  0  0  0  0
   -0.3779    1.4272    4.5748 H   0  0  0  0  0  0  0  0  0  0  0  0
   -2.0826    1.1064    4.9754 H   0  0  0  0  0  0  0  0  0  0  0  0
   -0.8992   -0.2240    4.9525 H   0  0  0  0  0  0  0  0  0  0  0  0
  5  6  2  0  0  0  0
  5  7  1  0  0  0  0
  2  3  1  0  0  0  0
  2  4  1  0  0  0  0
  2  5  1  0  0  0  0
  1  2  1  0  0  0  0
 26 27  2  0  0  0  0
 26 28  1  0  0  0  0
 23 24  1  0  0  0  0
 23 25  1  0  0  0  0
 20 21  1  0  0  0  0
 20 22  1  0  0  0  0
 20 23  1  0  0  0  0
 17 18  1  0  0  0  0
 17 19  1  0  0  0  0
 17 20  1  0  0  0  0
 14 15  1  0  0  0  0
 14 16  1  0  0  0  0
 14 17  1  0  0  0  0
 11 12  1  0  0  0  0
 11 13  1  0  0  0  0
 11 14  1  0  0  0  0
  9 10  1  0  0  0  0
  9 11  1  0  0  0  0
  9 26  1  0  0  0  0
  7  8  1  0  0  0  0
  7  9  1  0  0  0  0
 30 31  1  0  0  0  0
 30 32  1  0  0  0  0
 30 33  1  0  0  0  0
 28 29  1  0  0  0  0
 28 30  1  0  0  0  0
M  END
$$$$
default_name
  -OEChem-02102213163D

 33 32  0     1  0  0  0  0  0999 V2000
   -3.8420   -3.6918    1.5562 H   0  0  0  0  0  0  0  0  0  0  0  0
   -3.8430   -2.7008    1.1032 C   0  0  0  0  0  0  0  0  0  0  0  0
   -4.5510   -2.0608    1.6242 H   0  0  0  0  0  0  0  0  0  0  0  0
   -4.1140   -2.7798    0.0522 H   0  0  0  0  0  0  0  0  0  0  0  0
   -2.4570   -2.1098    1.2172 C   0  0  0  0  0  0  0  0  0  0  0  0
   -1.5600   -2.7438    1.7572 O   0  0  0  0  0  0  0  0  0  0  0  0
   -2.2870   -0.8898    0.7102 N   0  0  0  0  0  0  0  0  0  0  0  0
   -3.0820   -0.4218    0.2992 H   0  0  0  0  0  0  0  0  0  0  0  0
   -1.0240   -0.1468    0.7262 C   0  0  1  0  0  0  0  0  0  0  0  0
   -0.2680   -0.7367    0.2062 H   0  0  0  0  0  0  0  0  0  0  0  0
   -1.2212    1.1806   -0.0314 C   0  0  0  0  0  0  0  0  0  0  0  0
   -1.2513    0.9680   -1.1020 H   0  0  0  0  0  0  0  0  0  0  0  0
   -2.1776    1.6199    0.2555 H   0  0  0  0  0  0  0  0  0  0  0  0
   -0.0991    2.1990    0.2239 C   0  0  0  0  0  0  0  0  0  0  0  0
   -0.2993    3.1124   -0.3369 H   0  0  0  0  0  0  0  0  0  0  0  0
   -0.0633    2.4342    1.2891 H   0  0  0  0  0  0  0  0  0  0  0  0
    1.2587    1.6387   -0.2145 C   0  0  0  0  0  0  0  0  0  0  0  0
    1.4698    0.7195    0.3328 H   0  0  0  0  0  0  0  0  0  0  0  0
    1.2357    1.4245   -1.2833 H   0  0  0  0  0  0  0  0  0  0  0  0
    2.3579    2.6597    0.0727 C   0  0  0  0  0  0  0  0  0  0  0  0
    2.1592    3.5721   -0.4872 H   0  0  0  0  0  0  0  0  0  0  0  0
    2.3707    2.8882    1.1372 H   0  0  0  0  0  0  0  0  0  0  0  0
    3.6766    2.1450   -0.3139 N   0  0  0  0  0  0  0  0  0  0  0  0
    4.3750    2.8487   -0.1236 H   0  0  0  0  0  0  0  0  0  0  0  0
    3.8801    1.3159    0.2261 H   0  0  0  0  0  0  0  0  0  0  0  0
   -0.5564    0.0727    2.1744 C   0  0  0  0  0  0  0  0  0  0  0  0
    0.6169   -0.1288    2.4805 O   0  0  0  0  0  0  0  0  0  0  0  0
   -1.4759    0.4743    3.0595 N   0  0  0  0  0  0  0  0  0  0  0  0
   -2.4132    0.6318    2.7275 H   0  0  0  0  0  0  0  0  0  0  0  0
   -1.1971    0.7118    4.4750 C   0  0  0  0  0  0  0  0  0  0  0  0
   -0.3779    1.4272    4.5748 H   0  0  0  0  0  0  0  0  0  0  0  0
   -2.0826    1.1064    4.9754 H   0  0  0  0  0  0  0  0  0  0  0  0
   -0.8992   -0.2240    4.9525 H   0  0  0  0  0  0  0  0  0  0  0  0
  5  6  2  0  0  0  0
  5  7  1  0  0  0  0
  2  3  1  0  0  0  0
  2  4  1  0  0  0  0
  2  5  1  0  0  0  0
  1  2  1  0  0  0  0
 26 27  2  0  0  0  0
 26 28  1  0  0  0  0
 23 24  1  0  0  0  0
 23 25  1  0  0  0  0
 20 21  1  0  0  0  0
 20 22  1  0  0  0  0
 20 23  1  0  0  0  0
 17 18  1  0  0  0  0
 17 19  1  0  0  0  0
 17 20  1  0  0  0  0
 14 15  1  0  0  0  0
 14 16  1  0  0  0  0
 14 17  1  0  0  0  0
 11 12  1  0  0  0  0
 11 13  1  0  0  0  0
 11 14  1  0  0  0  0
  9 10  1  0  0  0  0
  9 11  1  0  0  0  0
  9 26  1  0  0  0  0
  7  8  1  0  0  0  0
  7  9  1  0  0  0  0
 30 31  1  0  0  0  0
 30 32  1  0  0  0  0
 30 33  1  0  0  0  0
 28 29  1  0  0  0  0
 28 30  1  0  0  0  0
M  END
$$$$
default_name
  -OEChem-02102213163D

 33 32  0     1  0  0  0  0  0999 V2000
   -3.8420   -3.6918    1.5562 H   0  0  0  0  0  0  0  0  0  0  0  0
   -3.8430   -2.7008    1.1032 C   0  0  0  0  0  0  0  0  0  0  0  0
   -4.5510   -2.0608    1.6242 H   0  0  0  0  0  0  0  0  0  0  0  0
   -4.1140   -2.7798    0.0522 H   0  0  0  0  0  0  0  0  0  0  0  0
   -2.4570   -2.1098    1.2172 C   0  0  0  0  0  0  0  0  0  0  0  0
   -1.5600   -2.7438    1.7572 O   0  0  0  0  0  0  0  0  0  0  0  0
   -2.2870   -0.8898    0.7102 N   0  0  0  0  0  0  0  0  0  0  0  0
   -3.0820   -0.4218    0.2992 H   0  0  0  0  0  0  0  0  0  0  0  0
   -1.0240   -0.1468    0.7262 C   0  0  1  0  0  0  0  0  0  0  0  0
   -0.2680   -0.7367    0.2062 H   0  0  0  0  0  0  0  0  0  0  0  0
   -1.2212    1.1806   -0.0314 C   0  0  0  0  0  0  0  0  0  0  0  0
   -1.2513    0.9680   -1.1020 H   0  0  0  0  0  0  0  0  0  0  0  0
   -2.1776    1.6199    0.2555 H   0  0  0  0  0  0  0  0  0  0  0  0
   -0.0991    2.1990    0.2239 C   0  0  0  0  0  0  0  0  0  0  0  0
   -0.4188    3.1870   -0.1088 H   0  0  0  0  0  0  0  0  0  0  0  0
    0.1170    2.2345    1.2932 H   0  0  0  0  0  0  0  0  0  0  0  0
    1.1750    1.8114   -0.5352 C   0  0  0  0  0  0  0  0  0  0  0  0
    1.5032    0.8209   -0.2186 H   0  0  0  0  0  0  0  0  0  0  0  0
    0.9702    1.7978   -1.6061 H   0  0  0  0  0  0  0  0  0  0  0  0
    2.2801    2.8250   -0.2448 C   0  0  0  0  0  0  0  0  0  0  0  0
    1.9619    3.8119   -0.5771 H   0  0  0  0  0  0  0  0  0  0  0  0
    2.4736    2.8528    0.8263 H   0  0  0  0  0  0  0  0  0  0  0  0
    3.5236    2.4702   -0.9385 N   0  0  0  0  0  0  0  0  0  0  0  0
    4.2256    3.1668   -0.7359 H   0  0  0  0  0  0  0  0  0  0  0  0
    3.8406    1.5691   -0.6103 H   0  0  0  0  0  0  0  0  0  0  0  0
   -0.5564    0.0727    2.1744 C   0  0  0  0  0  0  0  0  0  0  0  0
    0.6169   -0.1288    2.4805 O   0  0  0  0  0  0  0  0  0  0  0  0
   -1.4759    0.4743    3.0595 N   0  0  0  0  0  0  0  0  0  0  0  0
   -2.4132    0.6318    2.7275 H   0  0  0  0  0  0  0  0  0  0  0  0
   -1.1971    0.7118    4.4750 C   0  0  0  0  0  0  0  0  0  0  0  0
   -0.3779    1.4272    4.5748 H   0  0  0  0  0  0  0  0  0  0  0  0
   -2.0826    1.1064    4.9754 H   0  0  0  0  0  0  0  0  0  0  0  0
   -0.8992   -0.2240    4.9525 H   0  0  0  0  0  0  0  0  0  0  0  0
  5  6  2  0  0  0  0
  5  7  1  0  0  0  0
  2  3  1  0  0  0  0
  2  4  1  0  0  0  0
  2  5  1  0  0  0  0
  1  2  1  0  0  0  0
 26 27  2  0  0  0  0
 26 28  1  0  0  0  0
 23 24  1  0  0  0  0
 23 25  1  0  0  0  0
 20 21  1  0  0  0  0
 20 22  1  0  0  0  0
 20 23  1  0  0  0  0
 17 18  1  0  0  0  0
 17 19  1  0  0  0  0
 17 20  1  0  0  0  0
 14 15  1  0  0  0  0
 14 16  1  0  0  0  0
 14 17  1  0  0  0  0
 11 12  1  0  0  0  0
 11 13  1  0  0  0  0
 11 14  1  0  0  0  0
  9 10  1  0  0  0  0
  9 11  1  0  0  0  0
  9 26  1  0  0  0  0
  7  8  1  0  0  0  0
  7  9  1  0  0  0  0
 30 31  1  0  0  0  0
 30 32  1  0  0  0  0
 30 33  1  0  0  0  0
 28 29  1  0  0  0  0
 28 30  1  0  0  0  0
M  END
$$$$
default_name
  -OEChem-02102213163D

 33 32  0     1  0  0  0  0  0999 V2000
   -3.8420   -3.6918    1.5562 H   0  0  0  0  0  0  0  0  0  0  0  0
   -3.8430   -2.7008    1.1032 C   0  0  0  0  0  0  0  0  0  0  0  0
   -4.5510   -2.0608    1.6242 H   0  0  0  0  0  0  0  0  0  0  0  0
   -4.1140   -2.7798    0.0522 H   0  0  0  0  0  0  0  0  0  0  0  0
   -2.4570   -2.1098    1.2172 C   0  0  0  0  0  0  0  0  0  0  0  0
   -1.5600   -2.7438    1.7572 O   0  0  0  0  0  0  0  0  0  0  0  0
   -2.2870   -0.8898    0.7102 N   0  0  0  0  0  0  0  0  0  0  0  0
   -3.0820   -0.4218    0.2992 H   0  0  0  0  0  0  0  0  0  0  0  0
   -1.0240   -0.1468    0.7262 C   0  0  1  0  0  0  0  0  0  0  0  0
   -0.2680   -0.7367    0.2062 H   0  0  0  0  0  0  0  0  0  0  0  0
   -1.2212    1.1806   -0.0314 C   0  0  0  0  0  0  0  0  0  0  0  0
   -1.2513    0.9680   -1.1020 H   0  0  0  0  0  0  0  0  0  0  0  0
   -2.1776    1.6199    0.2555 H   0  0  0  0  0  0  0  0  0  0  0  0
   -0.0991    2.1990    0.2239 C   0  0  0  0  0  0  0  0  0  0  0  0
   -0.4983    3.2107    0.1461 H   0  0  0  0  0  0  0  0  0  0  0  0
    0.3004    2.0486    1.2284 H   0  0  0  0  0  0  0  0  0  0  0  0
    1.0317    2.0352   -0.7981 C   0  0  0  0  0  0  0  0  0  0  0  0
    1.4365    1.0245   -0.7378 H   0  0  0  0  0  0  0  0  0  0  0  0
    0.6424    2.2081   -1.8018 H   0  0  0  0  0  0  0  0  0  0  0  0
    2.1434    3.0414   -0.5068 C   0  0  0  0  0  0  0  0  0  0  0  0
    1.7457    4.0520   -0.5847 H   0  0  0  0  0  0  0  0  0  0  0  0
    2.5211    2.8817    0.5017 H   0  0  0  0  0  0  0  0  0  0  0  0
    3.2546    2.8959   -1.4541 N   0  0  0  0  0  0  0  0  0  0  0  0
    3.9625    3.5833   -1.2415 H   0  0  0  0  0  0  0  0  0  0  0  0
    3.6481    1.9700   -1.3635 H   0  0  0  0  0  0  0  0  0  0  0  0
   -0.5564    0.0727    2.1744 C   0  0  0  0  0  0  0  0  0  0  0  0
    0.6169   -0.1288    2.4805 O   0  0  0  0  0  0  0  0  0  0  0  0
   -1.4759    0.4743    3.0595 N   0  0  0  0  0  0  0  0  0  0  0  0
   -2.4132    0.6318    2.7275 H   0  0  0  0  0  0  0  0  0  0  0  0
   -1.1971    0.7118    4.4750 C   0  0  0  0  0  0  0  0  0  0  0  0
   -0.3779    1.4272    4.5748 H   0  0  0  0  0  0  0  0  0  0  0  0
   -2.0826    1.1064    4.9754 H   0  0  0  0  0  0  0  0  0  0  0  0
   -0.8992   -0.2240    4.9525 H   0  0  0  0  0  0  0  0  0  0  0  0
  5  6  2  0  0  0  0
  5  7  1  0  0  0  0
  2  3  1  0  0  0  0
  2  4  1  0  0  0  0
  2  5  1  0  0  0  0
  1  2  1  0  0  0  0
 26 27  2  0  0  0  0
 26 28  1  0  0  0  0
 23 24  1  0  0  0  0
 23 25  1  0  0  0  0
 20 21  1  0  0  0  0
 20 22  1  0  0  0  0
 20 23  1  0  0  0  0
 17 18  1  0  0  0  0
 17 19  1  0  0  0  0
 17 20  1  0  0  0  0
 14 15  1  0  0  0  0
 14 16  1  0  0  0  0
 14 17  1  0  0  0  0
 11 12  1  0  0  0  0
 11 13  1  0  0  0  0
 11 14  1  0  0  0  0
  9 10  1  0  0  0  0
  9 11  1  0  0  0  0
  9 26  1  0  0  0  0
  7  8  1  0  0  0  0
  7  9  1  0  0  0  0
 30 31  1  0  0  0  0
 30 32  1  0  0  0  0
 30 33  1  0  0  0  0
 28 29  1  0  0  0  0
 28 30  1  0  0  0  0
M  END
$$$$
default_name
  -OEChem-02102213163D

 33 32  0     1  0  0  0  0  0999 V2000
   -3.8420   -3.6918    1.5562 H   0  0  0  0  0  0  0  0  0  0  0  0
   -3.8430   -2.7008    1.1032 C   0  0  0  0  0  0  0  0  0  0  0  0
   -4.5510   -2.0608    1.6242 H   0  0  0  0  0  0  0  0  0  0  0  0
   -4.1140   -2.7798    0.0522 H   0  0  0  0  0  0  0  0  0  0  0  0
   -2.4570   -2.1098    1.2172 C   0  0  0  0  0  0  0  0  0  0  0  0
   -1.5600   -2.7438    1.7572 O   0  0  0  0  0  0  0  0  0  0  0  0
   -2.2870   -0.8898    0.7102 N   0  0  0  0  0  0  0  0  0  0  0  0
   -3.0820   -0.4218    0.2992 H   0  0  0  0  0  0  0  0  0  0  0  0
   -1.0240   -0.1468    0.7262 C   0  0  1  0  0  0  0  0  0  0  0  0
   -0.2680   -0.7367    0.2062 H   0  0  0  0  0  0  0  0  0  0  0  0
   -1.2212    1.1806   -0.0314 C   0  0  0  0  0  0  0  0  0  0  0  0
   -1.2513    0.9680   -1.1020 H   0  0  0  0  0  0  0  0  0  0  0  0
   -2.1776    1.6199    0.2555 H   0  0  0  0  0  0  0  0  0  0  0  0
   -0.0991    2.1990    0.2239 C   0  0  0  0  0  0  0  0  0  0  0  0
   -0.5324    3.1820    0.4105 H   0  0  0  0  0  0  0  0  0  0  0  0
    0.4745    1.8892    1.0993 H   0  0  0  0  0  0  0  0  0  0  0  0
    0.8385    2.2949   -0.9851 C   0  0  0  0  0  0  0  0  0  0  0  0
    1.2743    1.3164   -1.1894 H   0  0  0  0  0  0  0  0  0  0  0  0
    0.2745    2.6273   -1.8571 H   0  0  0  0  0  0  0  0  0  0  0  0
    1.9570    3.2940   -0.6956 C   0  0  0  0  0  0  0  0  0  0  0  0
    1.5252    4.2761   -0.5095 H   0  0  0  0  0  0  0  0  0  0  0  0
    2.5102    2.9731    0.1855 H   0  0  0  0  0  0  0  0  0  0  0  0
    2.8880    3.3929   -1.8256 N   0  0  0  0  0  0  0  0  0  0  0  0
    3.6038    4.0699   -1.6060 H   0  0  0  0  0  0  0  0  0  0  0  0
    3.3157    2.4913   -1.9823 H   0  0  0  0  0  0  0  0  0  0  0  0
   -0.5564    0.0727    2.1744 C   0  0  0  0  0  0  0  0  0  0  0  0
    0.6169   -0.1288    2.4805 O   0  0  0  0  0  0  0  0  0  0  0  0
   -1.4759    0.4743    3.0595 N   0  0  0  0  0  0  0  0  0  0  0  0
   -2.4132    0.6318    2.7275 H   0  0  0  0  0  0  0  0  0  0  0  0
   -1.1971    0.7118    4.4750 C   0  0  0  0  0  0  0  0  0  0  0  0
   -0.3779    1.4272    4.5748 H   0  0  0  0  0  0  0  0  0  0  0  0
   -2.0826    1.1064    4.9754 H   0  0  0  0  0  0  0  0  0  0  0  0
   -0.8992   -0.2240    4.9525 H   0  0  0  0  0  0  0  0  0  0  0  0
  5  6  2  0  0  0  0
  5  7  1  0  0  0  0
  2  3  1  0  0  0  0
  2  4  1  0  0  0  0
  2  5  1  0  0  0  0
  1  2  1  0  0  0  0
 26 27  2  0  0  0  0
 26 28  1  0  0  0  0
 23 24  1  0  0  0  0
 23 25  1  0  0  0  0
 20 21  1  0  0  0  0
 20 22  1  0  0  0  0
 20 23  1  0  0  0  0
 17 18  1  0  0  0  0
 17 19  1  0  0  0  0
 17 20  1  0  0  0  0
 14 15  1  0  0  0  0
 14 16  1  0  0  0  0
 14 17  1  0  0  0  0
 11 12  1  0  0  0  0
 11 13  1  0  0  0  0
 11 14  1  0  0  0  0
  9 10  1  0  0  0  0
  9 11  1  0  0  0  0
  9 26  1  0  0  0  0
  7  8  1  0  0  0  0
  7  9  1  0  0  0  0
 30 31  1  0  0  0  0
 30 32  1  0  0  0  0
 30 33  1  0  0  0  0
 28 29  1  0  0  0  0
 28 30  1  0  0  0  0
M  END
$$$$
default_name
  -OEChem-02102213163D

 33 32  0     1  0  0  0  0  0999 V2000
   -3.8420   -3.6918    1.5562 H   0  0  0  0  0  0  0  0  0  0  0  0
   -3.8430   -2.7008    1.1032 C   0  0  0  0  0  0  0  0  0  0  0  0
   -4.5510   -2.0608    1.6242 H   0  0  0  0  0  0  0  0  0  0  0  0
   -4.1140   -2.7798    0.0522 H   0  0  0  0  0  0  0  0  0  0  0  0
   -2.4570   -2.1098    1.2172 C   0  0  0  0  0  0  0  0  0  0  0  0
   -1.5600   -2.7438    1.7572 O   0  0  0  0  0  0  0  0  0  0  0  0
   -2.2870   -0.8898    0.7102 N   0  0  0  0  0  0  0  0  0  0  0  0
   -3.0820   -0.4218    0.2992 H   0  0  0  0  0  0  0  0  0  0  0  0
   -1.0240   -0.1468    0.7262 C   0  0  1  0  0  0  0  0  0  0  0  0
   -0.2680   -0.7367    0.2062 H   0  0  0  0  0  0  0  0  0  0  0  0
   -1.2212    1.1806   -0.0314 C   0  0  0  0  0  0  0  0  0  0  0  0
   -1.2513    0.9680   -1.1020 H   0  0  0  0  0  0  0  0  0  0  0  0
   -2.1776    1.6199    0.2555 H   0  0  0  0  0  0  0  0  0  0  0  0
   -0.0991    2.1990    0.2239 C   0  0  0  0  0  0  0  0  0  0  0  0
   -0.5188    3.1029    0.6663 H   0  0  0  0  0  0  0  0  0  0  0  0
    0.6274    1.7671    0.9145 H   0  0  0  0  0  0  0  0  0  0  0  0
    0.6087    2.5728   -1.0835 C   0  0  0  0  0  0  0  0  0  0  0  0
    1.0276    1.6768   -1.5425 H   0  0  0  0  0  0  0  0  0  0  0  0
   -0.1083    3.0268   -1.7681 H   0  0  0  0  0  0  0  0  0  0  0  0
    1.7338    3.5658   -0.7983 C   0  0  0  0  0  0  0  0  0  0  0  0
    1.3155    4.4689   -0.3568 H   0  0  0  0  0  0  0  0  0  0  0  0
    2.4414    3.1206   -0.1008 H   0  0  0  0  0  0  0  0  0  0  0  0
    2.4488    3.9274   -2.0276 N   0  0  0  0  0  0  0  0  0  0  0  0
    3.1739    4.5934   -1.8046 H   0  0  0  0  0  0  0  0  0  0  0  0
    2.8661    3.0975   -2.4245 H   0  0  0  0  0  0  0  0  0  0  0  0
   -0.5564    0.0727    2.1744 C   0  0  0  0  0  0  0  0  0  0  0  0
    0.6169   -0.1288    2.4805 O   0  0  0  0  0  0  0  0  0  0  0  0
   -1.4759    0.4743    3.0595 N   0  0  0  0  0  0  0  0  0  0  0  0
   -2.4132    0.6318    2.7275 H   0  0  0  0  0  0  0  0  0  0  0  0
   -1.1971    0.7118    4.4750 C   0  0  0  0  0  0  0  0  0  0  0  0
   -0.3779    1.4272    4.5748 H   0  0  0  0  0  0  0  0  0  0  0  0
   -2.0826    1.1064    4.9754 H   0  0  0  0  0  0  0  0  0  0  0  0
   -0.8992   -0.2240    4.9525 H   0  0  0  0  0  0  0  0  0  0  0  0
  5  6  2  0  0  0  0
  5  7  1  0  0  0  0
  2  3  1  0  0  0  0
  2  4  1  0  0  0  0
  2  5  1  0  0  0  0
  1  2  1  0  0  0  0
 26 27  2  0  0  0  0
 26 28  1  0  0  0  0
 23 24  1  0  0  0  0
 23 25  1  0  0  0  0
 20 21  1  0  0  0  0
 20 22  1  0  0  0  0
 20 23  1  0  0  0  0
 17 18  1  0  0  0  0
 17 19  1  0  0  0  0
 17 20  1  0  0  0  0
 14 15  1  0  0  0  0
 14 16  1  0  0  0  0
 14 17  1  0  0  0  0
 11 12  1  0  0  0  0
 11 13  1  0  0  0  0
 11 14  1  0  0  0  0
  9 10  1  0  0  0  0
  9 11  1  0  0  0  0
  9 26  1  0  0  0  0
  7  8  1  0  0  0  0
  7  9  1  0  0  0  0
 30 31  1  0  0  0  0
 30 32  1  0  0  0  0
 30 33  1  0  0  0  0
 28 29  1  0  0  0  0
 28 30  1  0  0  0  0
M  END
$$$$
default_name
  -OEChem-02102213163D

 33 32  0     1  0  0  0  0  0999 V2000
   -3.8420   -3.6918    1.5562 H   0  0  0  0  0  0  0  0  0  0  0  0
   -3.8430   -2.7008    1.1032 C   0  0  0  0  0  0  0  0  0  0  0  0
   -4.5510   -2.0608    1.6242 H   0  0  0  0  0  0  0  0  0  0  0  0
   -4.1140   -2.7798    0.0522 H   0  0  0  0  0  0  0  0  0  0  0  0
   -2.4570   -2.1098    1.2172 C   0  0  0  0  0  0  0  0  0  0  0  0
   -1.5600   -2.7438    1.7572 O   0  0  0  0  0  0  0  0  0  0  0  0
   -2.2870   -0.8898    0.7102 N   0  0  0  0  0  0  0  0  0  0  0  0
   -3.0820   -0.4218    0.2992 H   0  0  0  0  0  0  0  0  0  0  0  0
   -1.0240   -0.1468    0.7262 C   0  0  1  0  0  0  0  0  0  0  0  0
   -0.2680   -0.7367    0.2062 H   0  0  0  0  0  0  0  0  0  0  0  0
   -1.2212    1.1806   -0.0314 C   0  0  0  0  0  0  0  0  0  0  0  0
   -1.2513    0.9680   -1.1020 H   0  0  0  0  0  0  0  0  0  0  0  0
   -2.1776    1.6199    0.2555 H   0  0  0  0  0  0  0  0  0  0  0  0
   -0.0991    2.1990    0.2239 C   0  0  0  0  0  0  0  0  0  0  0  0
   -0.4584    2.9787    0.8961 H   0  0  0  0  0  0  0  0  0  0  0  0
    0.7486    1.6906    0.6868 H   0  0  0  0  0  0  0  0  0  0  0  0
    0.3579    2.8499   -1.0866 C   0  0  0  0  0  0  0  0  0  0  0  0
    0.7132    2.0810   -1.7733 H   0  0  0  0  0  0  0  0  0  0  0  0
   -0.4800    3.3794   -1.5411 H   0  0  0  0  0  0  0  0  0  0  0  0
    1.4888    3.8380   -0.8078 C   0  0  0  0  0  0  0  0  0  0  0  0
    1.1309    4.6172   -0.1369 H   0  0  0  0  0  0  0  0  0  0  0  0
    2.3195    3.3143   -0.3377 H   0  0  0  0  0  0  0  0  0  0  0  0
    1.9670    4.4630   -2.0464 N   0  0  0  0  0  0  0  0  0  0  0  0
    2.7021    5.1180   -1.8238 H   0  0  0  0  0  0  0  0  0  0  0  0
    2.3299    3.7473   -2.6600 H   0  0  0  0  0  0  0  0  0  0  0  0
   -0.5564    0.0727    2.1744 C   0  0  0  0  0  0  0  0  0  0  0  0
    0.6169   -0.1288    2.4805 O   0  0  0  0  0  0  0  0  0  0  0  0
   -1.4759    0.4743    3.0595 N   0  0  0  0  0  0  0  0  0  0  0  0
   -2.4132    0.6318    2.7275 H   0  0  0  0  0  0  0  0  0  0  0  0
   -1.1971    0.7118    4.4750 C   0  0  0  0  0  0  0  0  0  0  0  0
   -0.3779    1.4272    4.5748 H   0  0  0  0  0  0  0  0  0  0  0  0
   -2.0826    1.1064    4.9754 H   0  0  0  0  0  0  0  0  0  0  0  0
   -0.8992   -0.2240    4.9525 H   0  0  0  0  0  0  0  0  0  0  0  0
  5  6  2  0  0  0  0
  5  7  1  0  0  0  0
  2  3  1  0  0  0  0
  2  4  1  0  0  0  0
  2  5  1  0  0  0  0
  1  2  1  0  0  0  0
 26 27  2  0  0  0  0
 26 28  1  0  0  0  0
 23 24  1  0  0  0  0
 23 25  1  0  0  0  0
 20 21  1  0  0  0  0
 20 22  1  0  0  0  0
 20 23  1  0  0  0  0
 17 18  1  0  0  0  0
 17 19  1  0  0  0  0
 17 20  1  0  0  0  0
 14 15  1  0  0  0  0
 14 16  1  0  0  0  0
 14 17  1  0  0  0  0
 11 12  1  0  0  0  0
 11 13  1  0  0  0  0
 11 14  1  0  0  0  0
  9 10  1  0  0  0  0
  9 11  1  0  0  0  0
  9 26  1  0  0  0  0
  7  8  1  0  0  0  0
  7  9  1  0  0  0  0
 30 31  1  0  0  0  0
 30 32  1  0  0  0  0
 30 33  1  0  0  0  0
 28 29  1  0  0  0  0
 28 30  1  0  0  0  0
M  END
$$$$
default_name
  -OEChem-02102213163D

 33 32  0     1  0  0  0  0  0999 V2000
   -3.8420   -3.6918    1.5562 H   0  0  0  0  0  0  0  0  0  0  0  0
   -3.8430   -2.7008    1.1032 C   0  0  0  0  0  0  0  0  0  0  0  0
   -4.5510   -2.0608    1.6242 H   0  0  0  0  0  0  0  0  0  0  0  0
   -4.1140   -2.7798    0.0522 H   0  0  0  0  0  0  0  0  0  0  0  0
   -2.4570   -2.1098    1.2172 C   0  0  0  0  0  0  0  0  0  0  0  0
   -1.5600   -2.7438    1.7572 O   0  0  0  0  0  0  0  0  0  0  0  0
   -2.2870   -0.8898    0.7102 N   0  0  0  0  0  0  0  0  0  0  0  0
   -3.0820   -0.4218    0.2992 H   0  0  0  0  0  0  0  0  0  0  0  0
   -1.0240   -0.1468    0.7262 C   0  0  1  0  0  0  0  0  0  0  0  0
   -0.2680   -0.7367    0.2062 H   0  0  0  0  0  0  0  0  0  0  0  0
   -1.2212    1.1806   -0.0314 C   0  0  0  0  0  0  0  0  0  0  0  0
   -1.2513    0.9680   -1.1020 H   0  0  0  0  0  0  0  0  0  0  0  0
   -2.1776    1.6199    0.2555 H   0  0  0  0  0  0  0  0  0  0  0  0
   -0.0991    2.1990    0.2239 C   0  0  0  0  0  0  0  0  0  0  0  0
   -0.3552    2.8179    1.0843 H   0  0  0  0  0  0  0  0  0  0  0  0
    0.8299    1.6650    0.4315 H   0  0  0  0  0  0  0  0  0  0  0  0
    0.1032    3.1074   -0.9942 C   0  0  0  0  0  0  0  0  0  0  0  0
    0.3526    2.5015   -1.8658 H   0  0  0  0  0  0  0  0  0  0  0  0
   -0.8153    3.6611   -1.1913 H   0  0  0  0  0  0  0  0  0  0  0  0
    1.2389    4.0923   -0.7236 C   0  0  0  0  0  0  0  0  0  0  0  0
    0.9838    4.7110    0.1353 H   0  0  0  0  0  0  0  0  0  0  0  0
    2.1529    3.5408   -0.5090 H   0  0  0  0  0  0  0  0  0  0  0  0
    1.4753    4.9631   -1.8807 N   0  0  0  0  0  0  0  0  0  0  0  0
    2.2204    5.6082   -1.6623 H   0  0  0  0  0  0  0  0  0  0  0  0
    1.7436    4.3964   -2.6726 H   0  0  0  0  0  0  0  0  0  0  0  0
   -0.5564    0.0727    2.1744 C   0  0  0  0  0  0  0  0  0  0  0  0
    0.6169   -0.1288    2.4805 O   0  0  0  0  0  0  0  0  0  0  0  0
   -1.4759    0.4743    3.0595 N   0  0  0  0  0  0  0  0  0  0  0  0
   -2.4132    0.6318    2.7275 H   0  0  0  0  0  0  0  0  0  0  0  0
   -1.1971    0.7118    4.4750 C   0  0  0  0  0  0  0  0  0  0  0  0
   -0.3779    1.4272    4.5748 H   0  0  0  0  0  0  0  0  0  0  0  0
   -2.0826    1.1064    4.9754 H   0  0  0  0  0  0  0  0  0  0  0  0
   -0.8992   -0.2240    4.9525 H   0  0  0  0  0  0  0  0  0  0  0  0
  5  6  2  0  0  0  0
  5  7  1  0  0  0  0
  2  3  1  0  0  0  0
  2  4  1  0  0  0  0
  2  5  1  0  0  0  0
  1  2  1  0  0  0  0
 26 27  2  0  0  0  0
 26 28  1  0  0  0  0
 23 24  1  0  0  0  0
 23 25  1  0  0  0  0
 20 21  1  0  0  0  0
 20 22  1  0  0  0  0
 20 23  1  0  0  0  0
 17 18  1  0  0  0  0
 17 19  1  0  0  0  0
 17 20  1  0  0  0  0
 14 15  1  0  0  0  0
 14 16  1  0  0  0  0
 14 17  1  0  0  0  0
 11 12  1  0  0  0  0
 11 13  1  0  0  0  0
 11 14  1  0  0  0  0
  9 10  1  0  0  0  0
  9 11  1  0  0  0  0
  9 26  1  0  0  0  0
  7  8  1  0  0  0  0
  7  9  1  0  0  0  0
 30 31  1  0  0  0  0
 30 32  1  0  0  0  0
 30 33  1  0  0  0  0
 28 29  1  0  0  0  0
 28 30  1  0  0  0  0
M  END
$$$$
default_name
  -OEChem-02102213163D

 33 32  0     1  0  0  0  0  0999 V2000
   -3.8420   -3.6918    1.5562 H   0  0  0  0  0  0  0  0  0  0  0  0
   -3.8430   -2.7008    1.1032 C   0  0  0  0  0  0  0  0  0  0  0  0
   -4.5510   -2.0608    1.6242 H   0  0  0  0  0  0  0  0  0  0  0  0
   -4.1140   -2.7798    0.0522 H   0  0  0  0  0  0  0  0  0  0  0  0
   -2.4570   -2.1098    1.2172 C   0  0  0  0  0  0  0  0  0  0  0  0
   -1.5600   -2.7438    1.7572 O   0  0  0  0  0  0  0  0  0  0  0  0
   -2.2870   -0.8898    0.7102 N   0  0  0  0  0  0  0  0  0  0  0  0
   -3.0820   -0.4218    0.2992 H   0  0  0  0  0  0  0  0  0  0  0  0
   -1.0240   -0.1468    0.7262 C   0  0  1  0  0  0  0  0  0  0  0  0
   -0.2680   -0.7367    0.2062 H   0  0  0  0  0  0  0  0  0  0  0  0
   -1.2212    1.1806   -0.0314 C   0  0  0  0  0  0  0  0  0  0  0  0
   -1.2513    0.9680   -1.1020 H   0  0  0  0  0  0  0  0  0  0  0  0
   -2.1776    1.6199    0.2555 H   0  0  0  0  0  0  0  0  0  0  0  0
   -0.0991    2.1990    0.2239 C   0  0  0  0  0  0  0  0  0  0  0  0
   -0.2164    2.6314    1.2179 H   0  0  0  0  0  0  0  0  0  0  0  0
    0.8658    1.6920    0.1662 H   0  0  0  0  0  0  0  0  0  0  0  0
   -0.1381    3.3277   -0.8126 C   0  0  0  0  0  0  0  0  0  0  0  0
   -0.0297    2.9097   -1.8139 H   0  0  0  0  0  0  0  0  0  0  0  0
   -1.0912    3.8527   -0.7427 H   0  0  0  0  0  0  0  0  0  0  0  0
    1.0010    4.3112   -0.5512 C   0  0  0  0  0  0  0  0  0  0  0  0
    0.8845    4.7438    0.4411 H   0  0  0  0  0  0  0  0  0  0  0  0
    1.9527    3.7849   -0.6031 H   0  0  0  0  0  0  0  0  0  0  0  0
    1.0073    5.3938   -1.5418 N   0  0  0  0  0  0  0  0  0  0  0  0
    1.7619    6.0304   -1.3310 H   0  0  0  0  0  0  0  0  0  0  0  0
    1.1473    5.0005   -2.4616 H   0  0  0  0  0  0  0  0  0  0  0  0
   -0.5564    0.0727    2.1744 C   0  0  0  0  0  0  0  0  0  0  0  0
    0.6169   -0.1288    2.4805 O   0  0  0  0  0  0  0  0  0  0  0  0
   -1.4759    0.4743    3.0595 N   0  0  0  0  0  0  0  0  0  0  0  0
   -2.4132    0.6318    2.7275 H   0  0  0  0  0  0  0  0  0  0  0  0
   -1.1971    0.7118    4.4750 C   0  0  0  0  0  0  0  0  0  0  0  0
   -0.3779    1.4272    4.5748 H   0  0  0  0  0  0  0  0  0  0  0  0
   -2.0826    1.1064    4.9754 H   0  0  0  0  0  0  0  0  0  0  0  0
   -0.8992   -0.2240    4.9525 H   0  0  0  0  0  0  0  0  0  0  0  0
  5  6  2  0  0  0  0
  5  7  1  0  0  0  0
  2  3  1  0  0  0  0
  2  4  1  0  0  0  0
  2  5  1  0  0  0  0
  1  2  1  0  0  0  0
 26 27  2  0  0  0  0
 26 28  1  0  0  0  0
 23 24  1  0  0  0  0
 23 25  1  0  0  0  0
 20 21  1  0  0  0  0
 20 22  1  0  0  0  0
 20 23  1  0  0  0  0
 17 18  1  0  0  0  0
 17 19  1  0  0  0  0
 17 20  1  0  0  0  0
 14 15  1  0  0  0  0
 14 16  1  0  0  0  0
 14 17  1  0  0  0  0
 11 12  1  0  0  0  0
 11 13  1  0  0  0  0
 11 14  1  0  0  0  0
  9 10  1  0  0  0  0
  9 11  1  0  0  0  0
  9 26  1  0  0  0  0
  7  8  1  0  0  0  0
  7  9  1  0  0  0  0
 30 31  1  0  0  0  0
 30 32  1  0  0  0  0
 30 33  1  0  0  0  0
 28 29  1  0  0  0  0
 28 30  1  0  0  0  0
M  END
$$$$
