
  -OEChem-03222214063D

 33 32  0     1  0  0  0  0  0999 V2000
   -2.9248   -4.8269    0.5768 H   0  0  0  0  0  0  0  0  0  0  0  0
   -2.9238   -3.8214    0.1457 C   0  0  0  0  0  0  0  0  0  0  0  0
   -3.7148   -3.2350    0.6193 H   0  0  0  0  0  0  0  0  0  0  0  0
   -3.1267   -3.8985   -0.9253 H   0  0  0  0  0  0  0  0  0  0  0  0
   -1.5786   -3.1579    0.3737 C   0  0  0  0  0  0  0  0  0  0  0  0
   -0.7184   -3.7384    1.0103 O   0  0  0  0  0  0  0  0  0  0  0  0
   -1.3422   -1.8979   -0.1414 N   0  0  0  0  0  0  0  0  0  0  0  0
   -2.0690   -1.5024   -0.7302 H   0  0  0  0  0  0  0  0  0  0  0  0
   -0.0473   -1.1957   -0.0673 C   0  0  1  0  0  0  0  0  0  0  0  0
    0.7139   -1.8122   -0.5587 H   0  0  0  0  0  0  0  0  0  0  0  0
   -0.2060    0.1149   -0.8626 C   0  0  0  0  0  0  0  0  0  0  0  0
   -0.4877   -0.1268   -1.8928 H   0  0  0  0  0  0  0  0  0  0  0  0
   -1.0175    0.7042   -0.4225 H   0  0  0  0  0  0  0  0  0  0  0  0
    1.0693    0.9716   -0.8849 C   0  0  0  0  0  0  0  0  0  0  0  0
    1.3577    1.2473    0.1347 H   0  0  0  0  0  0  0  0  0  0  0  0
    1.8917    0.3968   -1.3241 H   0  0  0  0  0  0  0  0  0  0  0  0
    0.8360    2.2529   -1.6926 C   0  0  0  0  0  0  0  0  0  0  0  0
    0.5770    1.9942   -2.7242 H   0  0  0  0  0  0  0  0  0  0  0  0
   -0.0008    2.8140   -1.2638 H   0  0  0  0  0  0  0  0  0  0  0  0
    2.0837    3.1308   -1.6865 C   0  0  0  0  0  0  0  0  0  0  0  0
    2.3418    3.4075   -0.6581 H   0  0  0  0  0  0  0  0  0  0  0  0
    2.9315    2.5835   -2.1137 H   0  0  0  0  0  0  0  0  0  0  0  0
    1.8096    4.3362   -2.4755 N   0  0  0  0  0  0  0  0  0  0  0  0
    2.6096    4.9691   -2.4709 H   0  0  0  0  0  0  0  0  0  0  0  0
    1.5418    4.0965   -3.4297 H   0  0  0  0  0  0  0  0  0  0  0  0
    0.4455   -0.9502    1.3793 C   0  0  0  0  0  0  0  0  0  0  0  0
    1.6419   -1.0003    1.6354 O   0  0  0  0  0  0  0  0  0  0  0  0
   -0.4308   -0.4801    2.3412 N   0  0  0  0  0  0  0  0  0  0  0  0
   -1.4181   -0.5401    2.1172 H   0  0  0  0  0  0  0  0  0  0  0  0
   -0.0369   -0.2541    3.7258 C   0  0  0  0  0  0  0  0  0  0  0  0
    0.7709    0.4832    3.7794 H   0  0  0  0  0  0  0  0  0  0  0  0
   -0.8857    0.1233    4.3038 H   0  0  0  0  0  0  0  0  0  0  0  0
    0.3073   -1.1882    4.1821 H   0  0  0  0  0  0  0  0  0  0  0  0
  1  2  1  0  0  0  0
  2  3  1  0  0  0  0
  2  4  1  0  0  0  0
  2  5  1  0  0  0  0
  5  6  2  0  0  0  0
  5  7  1  0  0  0  0
  7  8  1  0  0  0  0
  7  9  1  0  0  0  0
  9 10  1  0  0  0  0
  9 11  1  0  0  0  0
  9 26  1  0  0  0  0
 11 12  1  0  0  0  0
 11 13  1  0  0  0  0
 11 14  1  0  0  0  0
 14 15  1  0  0  0  0
 14 16  1  0  0  0  0
 14 17  1  0  0  0  0
 17 18  1  0  0  0  0
 17 19  1  0  0  0  0
 17 20  1  0  0  0  0
 20 21  1  0  0  0  0
 20 22  1  0  0  0  0
 20 23  1  0  0  0  0
 23 24  1  0  0  0  0
 23 25  1  0  0  0  0
 26 27  2  0  0  0  0
 26 28  1  0  0  0  0
 28 29  1  0  0  0  0
 28 30  1  0  0  0  0
 30 31  1  0  0  0  0
 30 32  1  0  0  0  0
 30 33  1  0  0  0  0
M  END
$$$$

  -OEChem-03222214063D

 33 32  0     1  0  0  0  0  0999 V2000
   -2.9483   -4.7971    0.5959 H   0  0  0  0  0  0  0  0  0  0  0  0
   -2.9329   -3.7934    0.1614 C   0  0  0  0  0  0  0  0  0  0  0  0
   -3.7048   -3.1895    0.6442 H   0  0  0  0  0  0  0  0  0  0  0  0
   -3.1526   -3.8706   -0.9061 H   0  0  0  0  0  0  0  0  0  0  0  0
   -1.5712   -3.1566    0.3678 C   0  0  0  0  0  0  0  0  0  0  0  0
   -0.7112   -3.7560    0.9868 O   0  0  0  0  0  0  0  0  0  0  0  0
   -1.3210   -1.8977   -0.1440 N   0  0  0  0  0  0  0  0  0  0  0  0
   -2.0531   -1.4812   -0.7113 H   0  0  0  0  0  0  0  0  0  0  0  0
   -0.0212   -1.2047   -0.0623 C   0  0  1  0  0  0  0  0  0  0  0  0
    0.7415   -1.8218   -0.5504 H   0  0  0  0  0  0  0  0  0  0  0  0
   -0.1773    0.1081   -0.8573 C   0  0  0  0  0  0  0  0  0  0  0  0
   -0.4719   -0.1215   -1.8865 H   0  0  0  0  0  0  0  0  0  0  0  0
   -0.9867    0.6878   -0.4005 H   0  0  0  0  0  0  0  0  0  0  0  0
    1.0909    0.9789   -0.8898 C   0  0  0  0  0  0  0  0  0  0  0  0
    1.5319    1.0571    0.1081 H   0  0  0  0  0  0  0  0  0  0  0  0
    1.8352    0.5188   -1.5482 H   0  0  0  0  0  0  0  0  0  0  0  0
    0.7551    2.3968   -1.3664 C   0  0  0  0  0  0  0  0  0  0  0  0
    0.3283    2.3525   -2.3736 H   0  0  0  0  0  0  0  0  0  0  0  0
    0.0096    2.8450   -0.7012 H   0  0  0  0  0  0  0  0  0  0  0  0
    2.0029    3.2747   -1.3796 C   0  0  0  0  0  0  0  0  0  0  0  0
    2.4250    3.3404   -0.3705 H   0  0  0  0  0  0  0  0  0  0  0  0
    2.7630    2.8396   -2.0380 H   0  0  0  0  0  0  0  0  0  0  0  0
    1.6280    4.6111   -1.8530 N   0  0  0  0  0  0  0  0  0  0  0  0
    2.4288    5.2430   -1.8434 H   0  0  0  0  0  0  0  0  0  0  0  0
    1.2106    4.5673   -2.7823 H   0  0  0  0  0  0  0  0  0  0  0  0
    0.4546   -0.9702    1.3919 C   0  0  0  0  0  0  0  0  0  0  0  0
    1.6437   -1.0526    1.6720 O   0  0  0  0  0  0  0  0  0  0  0  0
   -0.4325   -0.4983    2.3428 N   0  0  0  0  0  0  0  0  0  0  0  0
   -1.4159   -0.5316    2.0973 H   0  0  0  0  0  0  0  0  0  0  0  0
   -0.0618   -0.2895    3.7362 C   0  0  0  0  0  0  0  0  0  0  0  0
    0.7526    0.4387    3.8113 H   0  0  0  0  0  0  0  0  0  0  0  0
   -0.9173    0.0912    4.3021 H   0  0  0  0  0  0  0  0  0  0  0  0
    0.2642   -1.2315    4.1896 H   0  0  0  0  0  0  0  0  0  0  0  0
  1  2  1  0  0  0  0
  2  3  1  0  0  0  0
  2  4  1  0  0  0  0
  2  5  1  0  0  0  0
  5  6  2  0  0  0  0
  5  7  1  0  0  0  0
  7  8  1  0  0  0  0
  7  9  1  0  0  0  0
  9 10  1  0  0  0  0
  9 11  1  0  0  0  0
  9 26  1  0  0  0  0
 11 12  1  0  0  0  0
 11 13  1  0  0  0  0
 11 14  1  0  0  0  0
 14 15  1  0  0  0  0
 14 16  1  0  0  0  0
 14 17  1  0  0  0  0
 17 18  1  0  0  0  0
 17 19  1  0  0  0  0
 17 20  1  0  0  0  0
 20 21  1  0  0  0  0
 20 22  1  0  0  0  0
 20 23  1  0  0  0  0
 23 24  1  0  0  0  0
 23 25  1  0  0  0  0
 26 27  2  0  0  0  0
 26 28  1  0  0  0  0
 28 29  1  0  0  0  0
 28 30  1  0  0  0  0
 30 31  1  0  0  0  0
 30 32  1  0  0  0  0
 30 33  1  0  0  0  0
M  END
$$$$

  -OEChem-03222214063D

 33 32  0     1  0  0  0  0  0999 V2000
   -2.9684   -4.7845    0.5966 H   0  0  0  0  0  0  0  0  0  0  0  0
   -2.9431   -3.7827    0.1578 C   0  0  0  0  0  0  0  0  0  0  0  0
   -3.7154   -3.1728    0.6325 H   0  0  0  0  0  0  0  0  0  0  0  0
   -3.1549   -3.8627   -0.9112 H   0  0  0  0  0  0  0  0  0  0  0  0
   -1.5788   -3.1540    0.3726 C   0  0  0  0  0  0  0  0  0  0  0  0
   -0.7273   -3.7588    0.9977 O   0  0  0  0  0  0  0  0  0  0  0  0
   -1.3162   -1.8984   -0.1411 N   0  0  0  0  0  0  0  0  0  0  0  0
   -2.0423   -1.4785   -0.7133 H   0  0  0  0  0  0  0  0  0  0  0  0
   -0.0104   -1.2160   -0.0590 C   0  0  1  0  0  0  0  0  0  0  0  0
    0.7496   -1.8354   -0.5484 H   0  0  0  0  0  0  0  0  0  0  0  0
   -0.1657    0.1004   -0.8499 C   0  0  0  0  0  0  0  0  0  0  0  0
   -0.4736   -0.1211   -1.8769 H   0  0  0  0  0  0  0  0  0  0  0  0
   -0.9741    0.6722   -0.3818 H   0  0  0  0  0  0  0  0  0  0  0  0
    1.1000    0.9800   -0.8954 C   0  0  0  0  0  0  0  0  0  0  0  0
    1.7011    0.8535    0.0084 H   0  0  0  0  0  0  0  0  0  0  0  0
    1.7219    0.6787   -1.7450 H   0  0  0  0  0  0  0  0  0  0  0  0
    0.7253    2.4630   -1.0016 C   0  0  0  0  0  0  0  0  0  0  0  0
    0.1438    2.6283   -1.9141 H   0  0  0  0  0  0  0  0  0  0  0  0
    0.1050    2.7507   -0.1464 H   0  0  0  0  0  0  0  0  0  0  0  0
    1.9733    3.3403   -1.0251 C   0  0  0  0  0  0  0  0  0  0  0  0
    2.5417    3.2077   -0.0975 H   0  0  0  0  0  0  0  0  0  0  0  0
    2.6193    3.0567   -1.8635 H   0  0  0  0  0  0  0  0  0  0  0  0
    1.5538    4.7390   -1.1609 N   0  0  0  0  0  0  0  0  0  0  0  0
    2.3564    5.3684   -1.1388 H   0  0  0  0  0  0  0  0  0  0  0  0
    1.0066    4.8768   -2.0102 H   0  0  0  0  0  0  0  0  0  0  0  0
    0.4616   -0.9844    1.3978 C   0  0  0  0  0  0  0  0  0  0  0  0
    1.6463   -1.0941    1.6878 O   0  0  0  0  0  0  0  0  0  0  0  0
   -0.4243   -0.5041    2.3456 N   0  0  0  0  0  0  0  0  0  0  0  0
   -1.4068   -0.5209    2.0950 H   0  0  0  0  0  0  0  0  0  0  0  0
   -0.0555   -0.2968    3.7399 C   0  0  0  0  0  0  0  0  0  0  0  0
    0.7642    0.4253    3.8162 H   0  0  0  0  0  0  0  0  0  0  0  0
   -0.9092    0.0909    4.3037 H   0  0  0  0  0  0  0  0  0  0  0  0
    0.2631   -1.2406    4.1950 H   0  0  0  0  0  0  0  0  0  0  0  0
  1  2  1  0  0  0  0
  2  3  1  0  0  0  0
  2  4  1  0  0  0  0
  2  5  1  0  0  0  0
  5  6  2  0  0  0  0
  5  7  1  0  0  0  0
  7  8  1  0  0  0  0
  7  9  1  0  0  0  0
  9 10  1  0  0  0  0
  9 11  1  0  0  0  0
  9 26  1  0  0  0  0
 11 12  1  0  0  0  0
 11 13  1  0  0  0  0
 11 14  1  0  0  0  0
 14 15  1  0  0  0  0
 14 16  1  0  0  0  0
 14 17  1  0  0  0  0
 17 18  1  0  0  0  0
 17 19  1  0  0  0  0
 17 20  1  0  0  0  0
 20 21  1  0  0  0  0
 20 22  1  0  0  0  0
 20 23  1  0  0  0  0
 23 24  1  0  0  0  0
 23 25  1  0  0  0  0
 26 27  2  0  0  0  0
 26 28  1  0  0  0  0
 28 29  1  0  0  0  0
 28 30  1  0  0  0  0
 30 31  1  0  0  0  0
 30 32  1  0  0  0  0
 30 33  1  0  0  0  0
M  END
$$$$

  -OEChem-03222214063D

 33 32  0     1  0  0  0  0  0999 V2000
   -2.9616   -4.7897    0.6183 H   0  0  0  0  0  0  0  0  0  0  0  0
   -2.9391   -3.7913    0.1721 C   0  0  0  0  0  0  0  0  0  0  0  0
   -3.7104   -3.1779    0.6440 H   0  0  0  0  0  0  0  0  0  0  0  0
   -3.1539   -3.8792   -0.8955 H   0  0  0  0  0  0  0  0  0  0  0  0
   -1.5748   -3.1606    0.3774 C   0  0  0  0  0  0  0  0  0  0  0  0
   -0.7175   -3.7648    0.9952 O   0  0  0  0  0  0  0  0  0  0  0  0
   -1.3176   -1.9069   -0.1429 N   0  0  0  0  0  0  0  0  0  0  0  0
   -2.0476   -1.4912   -0.7132 H   0  0  0  0  0  0  0  0  0  0  0  0
   -0.0129   -1.2220   -0.0699 C   0  0  1  0  0  0  0  0  0  0  0  0
    0.7466   -1.8377   -0.5644 H   0  0  0  0  0  0  0  0  0  0  0  0
   -0.1791    0.0973   -0.8529 C   0  0  0  0  0  0  0  0  0  0  0  0
   -0.4875   -0.1267   -1.8793 H   0  0  0  0  0  0  0  0  0  0  0  0
   -0.9926    0.6640   -0.3869 H   0  0  0  0  0  0  0  0  0  0  0  0
    1.0866    0.9791   -0.9050 C   0  0  0  0  0  0  0  0  0  0  0  0
    1.8311    0.6506   -0.1755 H   0  0  0  0  0  0  0  0  0  0  0  0
    1.5479    0.8851   -1.8936 H   0  0  0  0  0  0  0  0  0  0  0  0
    0.7453    2.4478   -0.6257 C   0  0  0  0  0  0  0  0  0  0  0  0
    0.0419    2.8094   -1.3827 H   0  0  0  0  0  0  0  0  0  0  0  0
    0.2658    2.5364    0.3551 H   0  0  0  0  0  0  0  0  0  0  0  0
    2.0027    3.3116   -0.6418 C   0  0  0  0  0  0  0  0  0  0  0  0
    2.6888    2.9874    0.1491 H   0  0  0  0  0  0  0  0  0  0  0  0
    2.5188    3.2096   -1.6028 H   0  0  0  0  0  0  0  0  0  0  0  0
    1.6107    4.7081   -0.4262 N   0  0  0  0  0  0  0  0  0  0  0  0
    2.4277    5.3174   -0.3824 H   0  0  0  0  0  0  0  0  0  0  0  0
    0.9604    5.0220   -1.1461 H   0  0  0  0  0  0  0  0  0  0  0  0
    0.4638   -0.9844    1.3850 C   0  0  0  0  0  0  0  0  0  0  0  0
    1.6475   -1.1022    1.6755 O   0  0  0  0  0  0  0  0  0  0  0  0
   -0.4197   -0.5020    2.3342 N   0  0  0  0  0  0  0  0  0  0  0  0
   -1.4020   -0.5040    2.0827 H   0  0  0  0  0  0  0  0  0  0  0  0
   -0.0464   -0.2767    3.7243 C   0  0  0  0  0  0  0  0  0  0  0  0
    0.7724    0.4477    3.7882 H   0  0  0  0  0  0  0  0  0  0  0  0
   -0.8988    0.1168    4.2860 H   0  0  0  0  0  0  0  0  0  0  0  0
    0.2746   -1.2144    4.1901 H   0  0  0  0  0  0  0  0  0  0  0  0
  1  2  1  0  0  0  0
  2  3  1  0  0  0  0
  2  4  1  0  0  0  0
  2  5  1  0  0  0  0
  5  6  2  0  0  0  0
  5  7  1  0  0  0  0
  7  8  1  0  0  0  0
  7  9  1  0  0  0  0
  9 10  1  0  0  0  0
  9 11  1  0  0  0  0
  9 26  1  0  0  0  0
 11 12  1  0  0  0  0
 11 13  1  0  0  0  0
 11 14  1  0  0  0  0
 14 15  1  0  0  0  0
 14 16  1  0  0  0  0
 14 17  1  0  0  0  0
 17 18  1  0  0  0  0
 17 19  1  0  0  0  0
 17 20  1  0  0  0  0
 20 21  1  0  0  0  0
 20 22  1  0  0  0  0
 20 23  1  0  0  0  0
 23 24  1  0  0  0  0
 23 25  1  0  0  0  0
 26 27  2  0  0  0  0
 26 28  1  0  0  0  0
 28 29  1  0  0  0  0
 28 30  1  0  0  0  0
 30 31  1  0  0  0  0
 30 32  1  0  0  0  0
 30 33  1  0  0  0  0
M  END
$$$$

  -OEChem-03222214063D

 33 32  0     1  0  0  0  0  0999 V2000
   -2.9413   -4.8118    0.6316 H   0  0  0  0  0  0  0  0  0  0  0  0
   -2.9307   -3.8138    0.1841 C   0  0  0  0  0  0  0  0  0  0  0  0
   -3.7036   -3.2066    0.6612 H   0  0  0  0  0  0  0  0  0  0  0  0
   -3.1529   -3.9064   -0.8816 H   0  0  0  0  0  0  0  0  0  0  0  0
   -1.5708   -3.1692    0.3781 C   0  0  0  0  0  0  0  0  0  0  0  0
   -0.7038   -3.7617    0.9936 O   0  0  0  0  0  0  0  0  0  0  0  0
   -1.3274   -1.9153   -0.1488 N   0  0  0  0  0  0  0  0  0  0  0  0
   -2.0648   -1.5062   -0.7141 H   0  0  0  0  0  0  0  0  0  0  0  0
   -0.0281   -1.2192   -0.0846 C   0  0  1  0  0  0  0  0  0  0  0  0
    0.7325   -1.8315   -0.5820 H   0  0  0  0  0  0  0  0  0  0  0  0
   -0.2044    0.0989   -0.8656 C   0  0  0  0  0  0  0  0  0  0  0  0
   -0.4961   -0.1394   -1.8937 H   0  0  0  0  0  0  0  0  0  0  0  0
   -1.0290    0.6661   -0.4200 H   0  0  0  0  0  0  0  0  0  0  0  0
    1.0644    0.9759   -0.9137 C   0  0  0  0  0  0  0  0  0  0  0  0
    1.9051    0.4840   -0.4155 H   0  0  0  0  0  0  0  0  0  0  0  0
    1.3574    1.1180   -1.9591 H   0  0  0  0  0  0  0  0  0  0  0  0
    0.8122    2.3473   -0.2748 C   0  0  0  0  0  0  0  0  0  0  0  0
    0.0349    2.8747   -0.8369 H   0  0  0  0  0  0  0  0  0  0  0  0
    0.4588    2.2152    0.7535 H   0  0  0  0  0  0  0  0  0  0  0  0
    2.0870    3.1849   -0.2552 C   0  0  0  0  0  0  0  0  0  0  0  0
    2.8442    2.6966    0.3687 H   0  0  0  0  0  0  0  0  0  0  0  0
    2.4925    3.2815   -1.2683 H   0  0  0  0  0  0  0  0  0  0  0  0
    1.7656    4.5094    0.2866 N   0  0  0  0  0  0  0  0  0  0  0  0
    2.6022    5.0872    0.3690 H   0  0  0  0  0  0  0  0  0  0  0  0
    1.0555    4.9745   -0.2779 H   0  0  0  0  0  0  0  0  0  0  0  0
    0.4622   -0.9670    1.3635 C   0  0  0  0  0  0  0  0  0  0  0  0
    1.6518   -1.0613    1.6380 O   0  0  0  0  0  0  0  0  0  0  0  0
   -0.4135   -0.4854    2.3203 N   0  0  0  0  0  0  0  0  0  0  0  0
   -1.3995   -0.5015    2.0843 H   0  0  0  0  0  0  0  0  0  0  0  0
   -0.0200   -0.2322    3.7003 C   0  0  0  0  0  0  0  0  0  0  0  0
    0.7903    0.5036    3.7387 H   0  0  0  0  0  0  0  0  0  0  0  0
   -0.8676    0.1594    4.2705 H   0  0  0  0  0  0  0  0  0  0  0  0
    0.3217   -1.1577    4.1755 H   0  0  0  0  0  0  0  0  0  0  0  0
  1  2  1  0  0  0  0
  2  3  1  0  0  0  0
  2  4  1  0  0  0  0
  2  5  1  0  0  0  0
  5  6  2  0  0  0  0
  5  7  1  0  0  0  0
  7  8  1  0  0  0  0
  7  9  1  0  0  0  0
  9 10  1  0  0  0  0
  9 11  1  0  0  0  0
  9 26  1  0  0  0  0
 11 12  1  0  0  0  0
 11 13  1  0  0  0  0
 11 14  1  0  0  0  0
 14 15  1  0  0  0  0
 14 16  1  0  0  0  0
 14 17  1  0  0  0  0
 17 18  1  0  0  0  0
 17 19  1  0  0  0  0
 17 20  1  0  0  0  0
 20 21  1  0  0  0  0
 20 22  1  0  0  0  0
 20 23  1  0  0  0  0
 23 24  1  0  0  0  0
 23 25  1  0  0  0  0
 26 27  2  0  0  0  0
 26 28  1  0  0  0  0
 28 29  1  0  0  0  0
 28 30  1  0  0  0  0
 30 31  1  0  0  0  0
 30 32  1  0  0  0  0
 30 33  1  0  0  0  0
M  END
$$$$

  -OEChem-03222214063D

 33 32  0     1  0  0  0  0  0999 V2000
   -2.9229   -4.8349    0.6140 H   0  0  0  0  0  0  0  0  0  0  0  0
   -2.9208   -3.8356    0.1690 C   0  0  0  0  0  0  0  0  0  0  0  0
   -3.7013   -3.2377    0.6451 H   0  0  0  0  0  0  0  0  0  0  0  0
   -3.1393   -3.9260   -0.8977 H   0  0  0  0  0  0  0  0  0  0  0  0
   -1.5678   -3.1783    0.3684 C   0  0  0  0  0  0  0  0  0  0  0  0
   -0.6933   -3.7673    0.9768 O   0  0  0  0  0  0  0  0  0  0  0  0
   -1.3409   -1.9157   -0.1445 N   0  0  0  0  0  0  0  0  0  0  0  0
   -2.0846   -1.5088   -0.7030 H   0  0  0  0  0  0  0  0  0  0  0  0
   -0.0485   -1.2082   -0.0807 C   0  0  1  0  0  0  0  0  0  0  0  0
    0.7110   -1.8172   -0.5835 H   0  0  0  0  0  0  0  0  0  0  0  0
   -0.2261    0.1077   -0.8654 C   0  0  0  0  0  0  0  0  0  0  0  0
   -0.4953   -0.1457   -1.8961 H   0  0  0  0  0  0  0  0  0  0  0  0
   -1.0589    0.6803   -0.4433 H   0  0  0  0  0  0  0  0  0  0  0  0
    1.0410    0.9835   -0.9044 C   0  0  0  0  0  0  0  0  0  0  0  0
    1.9270    0.3905   -0.6533 H   0  0  0  0  0  0  0  0  0  0  0  0
    1.1820    1.3545   -1.9251 H   0  0  0  0  0  0  0  0  0  0  0  0
    0.9212    2.1905    0.0371 C   0  0  0  0  0  0  0  0  0  0  0  0
    0.1033    2.8350   -0.3007 H   0  0  0  0  0  0  0  0  0  0  0  0
    0.6893    1.8557    1.0529 H   0  0  0  0  0  0  0  0  0  0  0  0
    2.2219    2.9860    0.0675 C   0  0  0  0  0  0  0  0  0  0  0  0
    3.0202    2.3759    0.5055 H   0  0  0  0  0  0  0  0  0  0  0  0
    2.5221    3.2591   -0.9501 H   0  0  0  0  0  0  0  0  0  0  0  0
    2.0116    4.1958    0.8698 N   0  0  0  0  0  0  0  0  0  0  0  0
    2.8759    4.7283    0.9669 H   0  0  0  0  0  0  0  0  0  0  0  0
    1.2696    4.7730    0.4756 H   0  0  0  0  0  0  0  0  0  0  0  0
    0.4580   -0.9648    1.3616 C   0  0  0  0  0  0  0  0  0  0  0  0
    1.6554   -1.0280    1.6100 O   0  0  0  0  0  0  0  0  0  0  0  0
   -0.4096   -0.5009    2.3342 N   0  0  0  0  0  0  0  0  0  0  0  0
   -1.3990   -0.5243    2.1136 H   0  0  0  0  0  0  0  0  0  0  0  0
    0.0073   -0.2157    3.7010 C   0  0  0  0  0  0  0  0  0  0  0  0
    0.7973    0.5428    3.7103 H   0  0  0  0  0  0  0  0  0  0  0  0
   -0.8381    0.1614    4.2838 H   0  0  0  0  0  0  0  0  0  0  0  0
    0.3846   -1.1238    4.1827 H   0  0  0  0  0  0  0  0  0  0  0  0
  1  2  1  0  0  0  0
  2  3  1  0  0  0  0
  2  4  1  0  0  0  0
  2  5  1  0  0  0  0
  5  6  2  0  0  0  0
  5  7  1  0  0  0  0
  7  8  1  0  0  0  0
  7  9  1  0  0  0  0
  9 10  1  0  0  0  0
  9 11  1  0  0  0  0
  9 26  1  0  0  0  0
 11 12  1  0  0  0  0
 11 13  1  0  0  0  0
 11 14  1  0  0  0  0
 14 15  1  0  0  0  0
 14 16  1  0  0  0  0
 14 17  1  0  0  0  0
 17 18  1  0  0  0  0
 17 19  1  0  0  0  0
 17 20  1  0  0  0  0
 20 21  1  0  0  0  0
 20 22  1  0  0  0  0
 20 23  1  0  0  0  0
 23 24  1  0  0  0  0
 23 25  1  0  0  0  0
 26 27  2  0  0  0  0
 26 28  1  0  0  0  0
 28 29  1  0  0  0  0
 28 30  1  0  0  0  0
 30 31  1  0  0  0  0
 30 32  1  0  0  0  0
 30 33  1  0  0  0  0
M  END
$$$$

  -OEChem-03222214063D

 33 32  0     1  0  0  0  0  0999 V2000
   -2.9774   -4.8155    0.5548 H   0  0  0  0  0  0  0  0  0  0  0  0
   -2.9562   -3.8052    0.1360 C   0  0  0  0  0  0  0  0  0  0  0  0
   -3.7177   -3.2018    0.6355 H   0  0  0  0  0  0  0  0  0  0  0  0
   -3.1865   -3.8617   -0.9305 H   0  0  0  0  0  0  0  0  0  0  0  0
   -1.5863   -3.1852    0.3395 C   0  0  0  0  0  0  0  0  0  0  0  0
   -0.7201   -3.8104    0.9233 O   0  0  0  0  0  0  0  0  0  0  0  0
   -1.3367   -1.9124   -0.1359 N   0  0  0  0  0  0  0  0  0  0  0  0
   -2.0789   -1.4684   -0.6676 H   0  0  0  0  0  0  0  0  0  0  0  0
   -0.0378   -1.2208   -0.0342 C   0  0  1  0  0  0  0  0  0  0  0  0
    0.7213   -1.8400   -0.5255 H   0  0  0  0  0  0  0  0  0  0  0  0
   -0.1799    0.0896   -0.8407 C   0  0  0  0  0  0  0  0  0  0  0  0
   -0.4211   -0.1819   -1.8737 H   0  0  0  0  0  0  0  0  0  0  0  0
   -1.0219    0.6715   -0.4512 H   0  0  0  0  0  0  0  0  0  0  0  0
    1.0745    0.9842   -0.8726 C   0  0  0  0  0  0  0  0  0  0  0  0
    1.9721    0.3565   -0.8485 H   0  0  0  0  0  0  0  0  0  0  0  0
    1.0843    1.5332   -1.8200 H   0  0  0  0  0  0  0  0  0  0  0  0
    1.1205    2.0071    0.2763 C   0  0  0  0  0  0  0  0  0  0  0  0
    0.2528    2.6701    0.2005 H   0  0  0  0  0  0  0  0  0  0  0  0
    1.0777    1.5141    1.2490 H   0  0  0  0  0  0  0  0  0  0  0  0
    2.4001    2.8352    0.2123 C   0  0  0  0  0  0  0  0  0  0  0  0
    3.2687    2.1905    0.3874 H   0  0  0  0  0  0  0  0  0  0  0  0
    2.5071    3.2890   -0.7790 H   0  0  0  0  0  0  0  0  0  0  0  0
    2.3347    3.8826    1.2372 N   0  0  0  0  0  0  0  0  0  0  0  0
    3.1945    4.4305    1.2616 H   0  0  0  0  0  0  0  0  0  0  0  0
    1.5224    4.4824    1.0991 H   0  0  0  0  0  0  0  0  0  0  0  0
    0.4494   -1.0206    1.4186 C   0  0  0  0  0  0  0  0  0  0  0  0
    1.6410   -1.1223    1.6813 O   0  0  0  0  0  0  0  0  0  0  0  0
   -0.4248   -0.5728    2.3930 N   0  0  0  0  0  0  0  0  0  0  0  0
   -1.4102   -0.5618    2.1555 H   0  0  0  0  0  0  0  0  0  0  0  0
   -0.0237   -0.3421    3.7745 C   0  0  0  0  0  0  0  0  0  0  0  0
    0.7724    0.4085    3.8213 H   0  0  0  0  0  0  0  0  0  0  0  0
   -0.8737    0.0204    4.3603 H   0  0  0  0  0  0  0  0  0  0  0  0
    0.3401   -1.2710    4.2263 H   0  0  0  0  0  0  0  0  0  0  0  0
  1  2  1  0  0  0  0
  2  3  1  0  0  0  0
  2  4  1  0  0  0  0
  2  5  1  0  0  0  0
  5  6  2  0  0  0  0
  5  7  1  0  0  0  0
  7  8  1  0  0  0  0
  7  9  1  0  0  0  0
  9 10  1  0  0  0  0
  9 11  1  0  0  0  0
  9 26  1  0  0  0  0
 11 12  1  0  0  0  0
 11 13  1  0  0  0  0
 11 14  1  0  0  0  0
 14 15  1  0  0  0  0
 14 16  1  0  0  0  0
 14 17  1  0  0  0  0
 17 18  1  0  0  0  0
 17 19  1  0  0  0  0
 17 20  1  0  0  0  0
 20 21  1  0  0  0  0
 20 22  1  0  0  0  0
 20 23  1  0  0  0  0
 23 24  1  0  0  0  0
 23 25  1  0  0  0  0
 26 27  2  0  0  0  0
 26 28  1  0  0  0  0
 28 29  1  0  0  0  0
 28 30  1  0  0  0  0
 30 31  1  0  0  0  0
 30 32  1  0  0  0  0
 30 33  1  0  0  0  0
M  END
$$$$

  -OEChem-03222214063D

 33 32  0     1  0  0  0  0  0999 V2000
   -3.1451   -4.7219    0.4864 H   0  0  0  0  0  0  0  0  0  0  0  0
   -3.0515   -3.7135    0.0729 C   0  0  0  0  0  0  0  0  0  0  0  0
   -3.8094   -3.0741    0.5317 H   0  0  0  0  0  0  0  0  0  0  0  0
   -3.2248   -3.7591   -1.0050 H   0  0  0  0  0  0  0  0  0  0  0  0
   -1.6663   -3.1615    0.3538 C   0  0  0  0  0  0  0  0  0  0  0  0
   -0.8673   -3.8308    0.9819 O   0  0  0  0  0  0  0  0  0  0  0  0
   -1.3249   -1.9062   -0.1125 N   0  0  0  0  0  0  0  0  0  0  0  0
   -2.0106   -1.4346   -0.6939 H   0  0  0  0  0  0  0  0  0  0  0  0
    0.0092   -1.2912    0.0333 C   0  0  1  0  0  0  0  0  0  0  0  0
    0.7539   -1.9447   -0.4349 H   0  0  0  0  0  0  0  0  0  0  0  0
   -0.0635    0.0224   -0.7818 C   0  0  0  0  0  0  0  0  0  0  0  0
   -0.3094   -0.2461   -1.8145 H   0  0  0  0  0  0  0  0  0  0  0  0
   -0.8902    0.6295   -0.3983 H   0  0  0  0  0  0  0  0  0  0  0  0
    1.1956    0.9128   -0.8310 C   0  0  0  0  0  0  0  0  0  0  0  0
    2.0670    0.2925   -1.0673 H   0  0  0  0  0  0  0  0  0  0  0  0
    1.0629    1.6198   -1.6565 H   0  0  0  0  0  0  0  0  0  0  0  0
    1.4823    1.7162    0.4503 C   0  0  0  0  0  0  0  0  0  0  0  0
    0.5621    2.1991    0.7936 H   0  0  0  0  0  0  0  0  0  0  0  0
    1.8439    1.0681    1.2496 H   0  0  0  0  0  0  0  0  0  0  0  0
    2.5448    2.7812    0.1880 C   0  0  0  0  0  0  0  0  0  0  0  0
    3.4867    2.3028   -0.1035 H   0  0  0  0  0  0  0  0  0  0  0  0
    2.2289    3.4371   -0.6306 H   0  0  0  0  0  0  0  0  0  0  0  0
    2.7390    3.5685    1.4099 N   0  0  0  0  0  0  0  0  0  0  0  0
    3.4574    4.2810    1.2828 H   0  0  0  0  0  0  0  0  0  0  0  0
    1.8629    3.9831    1.7253 H   0  0  0  0  0  0  0  0  0  0  0  0
    0.4440   -1.1232    1.5063 C   0  0  0  0  0  0  0  0  0  0  0  0
    1.5922   -1.3871    1.8393 O   0  0  0  0  0  0  0  0  0  0  0  0
   -0.4411   -0.6255    2.4460 N   0  0  0  0  0  0  0  0  0  0  0  0
   -1.4083   -0.5318    2.1571 H   0  0  0  0  0  0  0  0  0  0  0  0
   -0.1083   -0.5104    3.8599 C   0  0  0  0  0  0  0  0  0  0  0  0
    0.7674    0.1335    3.9954 H   0  0  0  0  0  0  0  0  0  0  0  0
   -0.9456   -0.0738    4.4124 H   0  0  0  0  0  0  0  0  0  0  0  0
    0.1112   -1.4970    4.2818 H   0  0  0  0  0  0  0  0  0  0  0  0
  1  2  1  0  0  0  0
  2  3  1  0  0  0  0
  2  4  1  0  0  0  0
  2  5  1  0  0  0  0
  5  6  2  0  0  0  0
  5  7  1  0  0  0  0
  7  8  1  0  0  0  0
  7  9  1  0  0  0  0
  9 10  1  0  0  0  0
  9 11  1  0  0  0  0
  9 26  1  0  0  0  0
 11 12  1  0  0  0  0
 11 13  1  0  0  0  0
 11 14  1  0  0  0  0
 14 15  1  0  0  0  0
 14 16  1  0  0  0  0
 14 17  1  0  0  0  0
 17 18  1  0  0  0  0
 17 19  1  0  0  0  0
 17 20  1  0  0  0  0
 20 21  1  0  0  0  0
 20 22  1  0  0  0  0
 20 23  1  0  0  0  0
 23 24  1  0  0  0  0
 23 25  1  0  0  0  0
 26 27  2  0  0  0  0
 26 28  1  0  0  0  0
 28 29  1  0  0  0  0
 28 30  1  0  0  0  0
 30 31  1  0  0  0  0
 30 32  1  0  0  0  0
 30 33  1  0  0  0  0
M  END
$$$$

  -OEChem-03222214063D

 33 32  0     1  0  0  0  0  0999 V2000
   -3.2373   -4.6543    0.5163 H   0  0  0  0  0  0  0  0  0  0  0  0
   -3.1069   -3.6514    0.0997 C   0  0  0  0  0  0  0  0  0  0  0  0
   -3.8394   -2.9827    0.5580 H   0  0  0  0  0  0  0  0  0  0  0  0
   -3.2835   -3.6936   -0.9778 H   0  0  0  0  0  0  0  0  0  0  0  0
   -1.7014   -3.1516    0.3772 C   0  0  0  0  0  0  0  0  0  0  0  0
   -0.9310   -3.8461    1.0134 O   0  0  0  0  0  0  0  0  0  0  0  0
   -1.3099   -1.9167   -0.1047 N   0  0  0  0  0  0  0  0  0  0  0  0
   -1.9772   -1.4255   -0.6911 H   0  0  0  0  0  0  0  0  0  0  0  0
    0.0437   -1.3445    0.0449 C   0  0  1  0  0  0  0  0  0  0  0  0
    0.7779   -2.0191   -0.4092 H   0  0  0  0  0  0  0  0  0  0  0  0
   -0.0024   -0.0329   -0.7795 C   0  0  0  0  0  0  0  0  0  0  0  0
   -0.2786   -0.2949   -1.8063 H   0  0  0  0  0  0  0  0  0  0  0  0
   -0.8070    0.5900   -0.3749 H   0  0  0  0  0  0  0  0  0  0  0  0
    1.2577    0.8565   -0.8636 C   0  0  0  0  0  0  0  0  0  0  0  0
    2.0569    0.2900   -1.3533 H   0  0  0  0  0  0  0  0  0  0  0  0
    1.0109    1.7006   -1.5158 H   0  0  0  0  0  0  0  0  0  0  0  0
    1.8001    1.4071    0.4643 C   0  0  0  0  0  0  0  0  0  0  0  0
    0.9686    1.7112    1.1079 H   0  0  0  0  0  0  0  0  0  0  0  0
    2.3798    0.6402    0.9823 H   0  0  0  0  0  0  0  0  0  0  0  0
    2.7126    2.6076    0.2215 C   0  0  0  0  0  0  0  0  0  0  0  0
    3.5572    2.3143   -0.4118 H   0  0  0  0  0  0  0  0  0  0  0  0
    2.1603    3.4013   -0.2929 H   0  0  0  0  0  0  0  0  0  0  0  0
    3.2030    3.0973    1.5132 N   0  0  0  0  0  0  0  0  0  0  0  0
    3.7877    3.9252    1.4015 H   0  0  0  0  0  0  0  0  0  0  0  0
    2.4332    3.2741    2.1580 H   0  0  0  0  0  0  0  0  0  0  0  0
    0.4437   -1.1777    1.5299 C   0  0  0  0  0  0  0  0  0  0  0  0
    1.5516   -1.5256    1.9160 O   0  0  0  0  0  0  0  0  0  0  0  0
   -0.4531   -0.6403    2.4366 N   0  0  0  0  0  0  0  0  0  0  0  0
   -1.4039   -0.5103    2.1103 H   0  0  0  0  0  0  0  0  0  0  0  0
   -0.1813   -0.5704    3.8662 C   0  0  0  0  0  0  0  0  0  0  0  0
    0.7254    0.0145    4.0541 H   0  0  0  0  0  0  0  0  0  0  0  0
   -1.0152   -0.0909    4.3873 H   0  0  0  0  0  0  0  0  0  0  0  0
   -0.0442   -1.5757    4.2783 H   0  0  0  0  0  0  0  0  0  0  0  0
  1  2  1  0  0  0  0
  2  3  1  0  0  0  0
  2  4  1  0  0  0  0
  2  5  1  0  0  0  0
  5  6  2  0  0  0  0
  5  7  1  0  0  0  0
  7  8  1  0  0  0  0
  7  9  1  0  0  0  0
  9 10  1  0  0  0  0
  9 11  1  0  0  0  0
  9 26  1  0  0  0  0
 11 12  1  0  0  0  0
 11 13  1  0  0  0  0
 11 14  1  0  0  0  0
 14 15  1  0  0  0  0
 14 16  1  0  0  0  0
 14 17  1  0  0  0  0
 17 18  1  0  0  0  0
 17 19  1  0  0  0  0
 17 20  1  0  0  0  0
 20 21  1  0  0  0  0
 20 22  1  0  0  0  0
 20 23  1  0  0  0  0
 23 24  1  0  0  0  0
 23 25  1  0  0  0  0
 26 27  2  0  0  0  0
 26 28  1  0  0  0  0
 28 29  1  0  0  0  0
 28 30  1  0  0  0  0
 30 31  1  0  0  0  0
 30 32  1  0  0  0  0
 30 33  1  0  0  0  0
M  END
$$$$

  -OEChem-03222214063D

 33 32  0     1  0  0  0  0  0999 V2000
   -3.2584   -4.6559    0.5286 H   0  0  0  0  0  0  0  0  0  0  0  0
   -3.1174   -3.6563    0.1071 C   0  0  0  0  0  0  0  0  0  0  0  0
   -3.8544   -2.9815    0.5487 H   0  0  0  0  0  0  0  0  0  0  0  0
   -3.2776   -3.7061   -0.9726 H   0  0  0  0  0  0  0  0  0  0  0  0
   -1.7145   -3.1590    0.4021 C   0  0  0  0  0  0  0  0  0  0  0  0
   -0.9571   -3.8509    1.0562 O   0  0  0  0  0  0  0  0  0  0  0  0
   -1.3113   -1.9309   -0.0879 N   0  0  0  0  0  0  0  0  0  0  0  0
   -1.9655   -1.4518   -0.6985 H   0  0  0  0  0  0  0  0  0  0  0  0
    0.0461   -1.3647    0.0593 C   0  0  1  0  0  0  0  0  0  0  0  0
    0.7836   -2.0383   -0.3910 H   0  0  0  0  0  0  0  0  0  0  0  0
   -0.0102   -0.0514   -0.7651 C   0  0  0  0  0  0  0  0  0  0  0  0
   -0.3154   -0.3051   -1.7858 H   0  0  0  0  0  0  0  0  0  0  0  0
   -0.8058    0.5639   -0.3319 H   0  0  0  0  0  0  0  0  0  0  0  0
    1.2315    0.8638   -0.8801 C   0  0  0  0  0  0  0  0  0  0  0  0
    1.9236    0.4060   -1.5947 H   0  0  0  0  0  0  0  0  0  0  0  0
    0.8961    1.8103   -1.3166 H   0  0  0  0  0  0  0  0  0  0  0  0
    2.0249    1.1656    0.3966 C   0  0  0  0  0  0  0  0  0  0  0  0
    1.3404    1.4057    1.2160 H   0  0  0  0  0  0  0  0  0  0  0  0
    2.6203    0.2926    0.6765 H   0  0  0  0  0  0  0  0  0  0  0  0
    2.9695    2.3456    0.1772 C   0  0  0  0  0  0  0  0  0  0  0  0
    3.6422    2.1400   -0.6630 H   0  0  0  0  0  0  0  0  0  0  0  0
    2.3925    3.2460   -0.0607 H   0  0  0  0  0  0  0  0  0  0  0  0
    3.7499    2.5583    1.3991 N   0  0  0  0  0  0  0  0  0  0  0  0
    4.3279    3.3956    1.3342 H   0  0  0  0  0  0  0  0  0  0  0  0
    3.1477    2.5877    2.2219 H   0  0  0  0  0  0  0  0  0  0  0  0
    0.4241   -1.1959    1.5525 C   0  0  0  0  0  0  0  0  0  0  0  0
    1.5163   -1.5604    1.9663 O   0  0  0  0  0  0  0  0  0  0  0  0
   -0.4859   -0.6507    2.4421 N   0  0  0  0  0  0  0  0  0  0  0  0
   -1.4293   -0.5206    2.0948 H   0  0  0  0  0  0  0  0  0  0  0  0
   -0.2574   -0.6228    3.8811 C   0  0  0  0  0  0  0  0  0  0  0  0
    0.6568   -0.0662    4.1136 H   0  0  0  0  0  0  0  0  0  0  0  0
   -1.0954   -0.1356    4.3882 H   0  0  0  0  0  0  0  0  0  0  0  0
   -0.1581   -1.6413    4.2715 H   0  0  0  0  0  0  0  0  0  0  0  0
  1  2  1  0  0  0  0
  2  3  1  0  0  0  0
  2  4  1  0  0  0  0
  2  5  1  0  0  0  0
  5  6  2  0  0  0  0
  5  7  1  0  0  0  0
  7  8  1  0  0  0  0
  7  9  1  0  0  0  0
  9 10  1  0  0  0  0
  9 11  1  0  0  0  0
  9 26  1  0  0  0  0
 11 12  1  0  0  0  0
 11 13  1  0  0  0  0
 11 14  1  0  0  0  0
 14 15  1  0  0  0  0
 14 16  1  0  0  0  0
 14 17  1  0  0  0  0
 17 18  1  0  0  0  0
 17 19  1  0  0  0  0
 17 20  1  0  0  0  0
 20 21  1  0  0  0  0
 20 22  1  0  0  0  0
 20 23  1  0  0  0  0
 23 24  1  0  0  0  0
 23 25  1  0  0  0  0
 26 27  2  0  0  0  0
 26 28  1  0  0  0  0
 28 29  1  0  0  0  0
 28 30  1  0  0  0  0
 30 31  1  0  0  0  0
 30 32  1  0  0  0  0
 30 33  1  0  0  0  0
M  END
$$$$

  -OEChem-03222214063D

 33 32  0     1  0  0  0  0  0999 V2000
   -3.2456   -4.6790    0.5442 H   0  0  0  0  0  0  0  0  0  0  0  0
   -3.1081   -3.6815    0.1173 C   0  0  0  0  0  0  0  0  0  0  0  0
   -3.8491   -3.0072    0.5532 H   0  0  0  0  0  0  0  0  0  0  0  0
   -3.2647   -3.7383   -0.9625 H   0  0  0  0  0  0  0  0  0  0  0  0
   -1.7085   -3.1764    0.4129 C   0  0  0  0  0  0  0  0  0  0  0  0
   -0.9504   -3.8606    1.0742 O   0  0  0  0  0  0  0  0  0  0  0  0
   -1.3096   -1.9503   -0.0859 N   0  0  0  0  0  0  0  0  0  0  0  0
   -1.9620   -1.4822   -0.7070 H   0  0  0  0  0  0  0  0  0  0  0  0
    0.0428   -1.3730    0.0658 C   0  0  1  0  0  0  0  0  0  0  0  0
    0.7932   -2.0375   -0.3765 H   0  0  0  0  0  0  0  0  0  0  0  0
   -0.0277   -0.0551   -0.7523 C   0  0  0  0  0  0  0  0  0  0  0  0
   -0.3434   -0.3023   -1.7716 H   0  0  0  0  0  0  0  0  0  0  0  0
   -0.8262    0.5471   -0.3056 H   0  0  0  0  0  0  0  0  0  0  0  0
    1.1986    0.8840   -0.8732 C   0  0  0  0  0  0  0  0  0  0  0  0
    1.7560    0.5775   -1.7648 H   0  0  0  0  0  0  0  0  0  0  0  0
    0.8248    1.8964   -1.0599 H   0  0  0  0  0  0  0  0  0  0  0  0
    2.2035    0.9370    0.2814 C   0  0  0  0  0  0  0  0  0  0  0  0
    1.6860    1.1482    1.2219 H   0  0  0  0  0  0  0  0  0  0  0  0
    2.7162   -0.0261    0.3649 H   0  0  0  0  0  0  0  0  0  0  0  0
    3.2447    2.0275    0.0392 C   0  0  0  0  0  0  0  0  0  0  0  0
    3.7332    1.8783   -0.9301 H   0  0  0  0  0  0  0  0  0  0  0  0
    2.7589    3.0094    0.0287 H   0  0  0  0  0  0  0  0  0  0  0  0
    4.2434    1.9696    1.1094 N   0  0  0  0  0  0  0  0  0  0  0  0
    4.8797    2.7652    1.0727 H   0  0  0  0  0  0  0  0  0  0  0  0
    3.7988    1.8933    2.0249 H   0  0  0  0  0  0  0  0  0  0  0  0
    0.3928   -1.1934    1.5661 C   0  0  0  0  0  0  0  0  0  0  0  0
    1.4792   -1.5421    2.0082 O   0  0  0  0  0  0  0  0  0  0  0  0
   -0.5399   -0.6496    2.4327 N   0  0  0  0  0  0  0  0  0  0  0  0
   -1.4768   -0.5297    2.0644 H   0  0  0  0  0  0  0  0  0  0  0  0
   -0.3410   -0.6022    3.8756 C   0  0  0  0  0  0  0  0  0  0  0  0
    0.5538   -0.0203    4.1197 H   0  0  0  0  0  0  0  0  0  0  0  0
   -1.2011   -0.1316    4.3610 H   0  0  0  0  0  0  0  0  0  0  0  0
   -0.2242   -1.6139    4.2786 H   0  0  0  0  0  0  0  0  0  0  0  0
  1  2  1  0  0  0  0
  2  3  1  0  0  0  0
  2  4  1  0  0  0  0
  2  5  1  0  0  0  0
  5  6  2  0  0  0  0
  5  7  1  0  0  0  0
  7  8  1  0  0  0  0
  7  9  1  0  0  0  0
  9 10  1  0  0  0  0
  9 11  1  0  0  0  0
  9 26  1  0  0  0  0
 11 12  1  0  0  0  0
 11 13  1  0  0  0  0
 11 14  1  0  0  0  0
 14 15  1  0  0  0  0
 14 16  1  0  0  0  0
 14 17  1  0  0  0  0
 17 18  1  0  0  0  0
 17 19  1  0  0  0  0
 17 20  1  0  0  0  0
 20 21  1  0  0  0  0
 20 22  1  0  0  0  0
 20 23  1  0  0  0  0
 23 24  1  0  0  0  0
 23 25  1  0  0  0  0
 26 27  2  0  0  0  0
 26 28  1  0  0  0  0
 28 29  1  0  0  0  0
 28 30  1  0  0  0  0
 30 31  1  0  0  0  0
 30 32  1  0  0  0  0
 30 33  1  0  0  0  0
M  END
$$$$

  -OEChem-03222214063D

 33 32  0     1  0  0  0  0  0999 V2000
   -3.2180   -4.7041    0.5548 H   0  0  0  0  0  0  0  0  0  0  0  0
   -3.0883   -3.7105    0.1161 C   0  0  0  0  0  0  0  0  0  0  0  0
   -3.8442   -3.0414    0.5334 H   0  0  0  0  0  0  0  0  0  0  0  0
   -3.2303   -3.7837   -0.9647 H   0  0  0  0  0  0  0  0  0  0  0  0
   -1.6995   -3.1821    0.4232 C   0  0  0  0  0  0  0  0  0  0  0  0
   -0.9412   -3.8480    1.1028 O   0  0  0  0  0  0  0  0  0  0  0  0
   -1.3107   -1.9557   -0.0837 N   0  0  0  0  0  0  0  0  0  0  0  0
   -1.9621   -1.5021   -0.7164 H   0  0  0  0  0  0  0  0  0  0  0  0
    0.0348   -1.3628    0.0727 C   0  0  1  0  0  0  0  0  0  0  0  0
    0.7950   -2.0209   -0.3625 H   0  0  0  0  0  0  0  0  0  0  0  0
   -0.0447   -0.0455   -0.7457 C   0  0  0  0  0  0  0  0  0  0  0  0
   -0.3487   -0.3007   -1.7665 H   0  0  0  0  0  0  0  0  0  0  0  0
   -0.8562    0.5476   -0.3105 H   0  0  0  0  0  0  0  0  0  0  0  0
    1.1742    0.9071   -0.8612 C   0  0  0  0  0  0  0  0  0  0  0  0
    1.5776    0.7882   -1.8726 H   0  0  0  0  0  0  0  0  0  0  0  0
    0.8114    1.9371   -0.7814 H   0  0  0  0  0  0  0  0  0  0  0  0
    2.3445    0.7260    0.1102 C   0  0  0  0  0  0  0  0  0  0  0  0
    2.0088    0.9024    1.1359 H   0  0  0  0  0  0  0  0  0  0  0  0
    2.7337   -0.2945    0.0330 H   0  0  0  0  0  0  0  0  0  0  0  0
    3.4678    1.7118   -0.2030 C   0  0  0  0  0  0  0  0  0  0  0  0
    3.7760    1.6206   -1.2503 H   0  0  0  0  0  0  0  0  0  0  0  0
    3.1179    2.7369   -0.0382 H   0  0  0  0  0  0  0  0  0  0  0  0
    4.6044    1.4172    0.6730 N   0  0  0  0  0  0  0  0  0  0  0  0
    5.3207    2.1401    0.6148 H   0  0  0  0  0  0  0  0  0  0  0  0
    4.2985    1.2761    1.6369 H   0  0  0  0  0  0  0  0  0  0  0  0
    0.3739   -1.1661    1.5738 C   0  0  0  0  0  0  0  0  0  0  0  0
    1.4597   -1.5029    2.0275 O   0  0  0  0  0  0  0  0  0  0  0  0
   -0.5696   -0.6243    2.4301 N   0  0  0  0  0  0  0  0  0  0  0  0
   -1.5059   -0.5213    2.0553 H   0  0  0  0  0  0  0  0  0  0  0  0
   -0.3835   -0.5737    3.8746 C   0  0  0  0  0  0  0  0  0  0  0  0
    0.5113    0.0054    4.1259 H   0  0  0  0  0  0  0  0  0  0  0  0
   -1.2462   -0.0989    4.3511 H   0  0  0  0  0  0  0  0  0  0  0  0
   -0.2738   -1.5851    4.2803 H   0  0  0  0  0  0  0  0  0  0  0  0
  1  2  1  0  0  0  0
  2  3  1  0  0  0  0
  2  4  1  0  0  0  0
  2  5  1  0  0  0  0
  5  6  2  0  0  0  0
  5  7  1  0  0  0  0
  7  8  1  0  0  0  0
  7  9  1  0  0  0  0
  9 10  1  0  0  0  0
  9 11  1  0  0  0  0
  9 26  1  0  0  0  0
 11 12  1  0  0  0  0
 11 13  1  0  0  0  0
 11 14  1  0  0  0  0
 14 15  1  0  0  0  0
 14 16  1  0  0  0  0
 14 17  1  0  0  0  0
 17 18  1  0  0  0  0
 17 19  1  0  0  0  0
 17 20  1  0  0  0  0
 20 21  1  0  0  0  0
 20 22  1  0  0  0  0
 20 23  1  0  0  0  0
 23 24  1  0  0  0  0
 23 25  1  0  0  0  0
 26 27  2  0  0  0  0
 26 28  1  0  0  0  0
 28 29  1  0  0  0  0
 28 30  1  0  0  0  0
 30 31  1  0  0  0  0
 30 32  1  0  0  0  0
 30 33  1  0  0  0  0
M  END
$$$$

  -OEChem-03222214063D

 33 32  0     1  0  0  0  0  0999 V2000
   -3.1902   -4.7175    0.5588 H   0  0  0  0  0  0  0  0  0  0  0  0
   -3.0688   -3.7249    0.1157 C   0  0  0  0  0  0  0  0  0  0  0  0
   -3.8370   -3.0626    0.5214 H   0  0  0  0  0  0  0  0  0  0  0  0
   -3.1987   -3.8060   -0.9660 H   0  0  0  0  0  0  0  0  0  0  0  0
   -1.6898   -3.1780    0.4334 C   0  0  0  0  0  0  0  0  0  0  0  0
   -0.9317   -3.8290    1.1275 O   0  0  0  0  0  0  0  0  0  0  0  0
   -1.3092   -1.9525   -0.0812 N   0  0  0  0  0  0  0  0  0  0  0  0
   -1.9555   -1.5168   -0.7315 H   0  0  0  0  0  0  0  0  0  0  0  0
    0.0307   -1.3485    0.0774 C   0  0  1  0  0  0  0  0  0  0  0  0
    0.7952   -2.0044   -0.3536 H   0  0  0  0  0  0  0  0  0  0  0  0
   -0.0546   -0.0307   -0.7374 C   0  0  0  0  0  0  0  0  0  0  0  0
   -0.3332   -0.3004   -1.7618 H   0  0  0  0  0  0  0  0  0  0  0  0
   -0.8820    0.5588   -0.3280 H   0  0  0  0  0  0  0  0  0  0  0  0
    1.1635    0.9239   -0.8417 C   0  0  0  0  0  0  0  0  0  0  0  0
    1.3949    1.0354   -1.9064 H   0  0  0  0  0  0  0  0  0  0  0  0
    0.8600    1.9107   -0.4766 H   0  0  0  0  0  0  0  0  0  0  0  0
    2.4572    0.5295   -0.1192 C   0  0  0  0  0  0  0  0  0  0  0  0
    2.3231    0.6252    0.9606 H   0  0  0  0  0  0  0  0  0  0  0  0
    2.7163   -0.5080   -0.3542 H   0  0  0  0  0  0  0  0  0  0  0  0
    3.6117    1.4378   -0.5347 C   0  0  0  0  0  0  0  0  0  0  0  0
    3.7390    1.4224   -1.6227 H   0  0  0  0  0  0  0  0  0  0  0  0
    3.4012    2.4688   -0.2302 H   0  0  0  0  0  0  0  0  0  0  0  0
    4.8349    0.9571    0.1123 N   0  0  0  0  0  0  0  0  0  0  0  0
    5.6055    1.6136   -0.0087 H   0  0  0  0  0  0  0  0  0  0  0  0
    4.6724    0.7573    1.1007 H   0  0  0  0  0  0  0  0  0  0  0  0
    0.3691   -1.1347    1.5761 C   0  0  0  0  0  0  0  0  0  0  0  0
    1.4536   -1.4690    2.0349 O   0  0  0  0  0  0  0  0  0  0  0  0
   -0.5785   -0.5913    2.4267 N   0  0  0  0  0  0  0  0  0  0  0  0
   -1.5140   -0.4939    2.0484 H   0  0  0  0  0  0  0  0  0  0  0  0
   -0.3988   -0.5368    3.8719 C   0  0  0  0  0  0  0  0  0  0  0  0
    0.4964    0.0409    4.1248 H   0  0  0  0  0  0  0  0  0  0  0  0
   -1.2623   -0.0581    4.3432 H   0  0  0  0  0  0  0  0  0  0  0  0
   -0.2934   -1.5472    4.2813 H   0  0  0  0  0  0  0  0  0  0  0  0
  1  2  1  0  0  0  0
  2  3  1  0  0  0  0
  2  4  1  0  0  0  0
  2  5  1  0  0  0  0
  5  6  2  0  0  0  0
  5  7  1  0  0  0  0
  7  8  1  0  0  0  0
  7  9  1  0  0  0  0
  9 10  1  0  0  0  0
  9 11  1  0  0  0  0
  9 26  1  0  0  0  0
 11 12  1  0  0  0  0
 11 13  1  0  0  0  0
 11 14  1  0  0  0  0
 14 15  1  0  0  0  0
 14 16  1  0  0  0  0
 14 17  1  0  0  0  0
 17 18  1  0  0  0  0
 17 19  1  0  0  0  0
 17 20  1  0  0  0  0
 20 21  1  0  0  0  0
 20 22  1  0  0  0  0
 20 23  1  0  0  0  0
 23 24  1  0  0  0  0
 23 25  1  0  0  0  0
 26 27  2  0  0  0  0
 26 28  1  0  0  0  0
 28 29  1  0  0  0  0
 28 30  1  0  0  0  0
 30 31  1  0  0  0  0
 30 32  1  0  0  0  0
 30 33  1  0  0  0  0
M  END
$$$$

  -OEChem-03222214063D

 33 32  0     1  0  0  0  0  0999 V2000
   -3.1823   -4.7078    0.5855 H   0  0  0  0  0  0  0  0  0  0  0  0
   -3.0655   -3.7148    0.1417 C   0  0  0  0  0  0  0  0  0  0  0  0
   -3.8262   -3.0511    0.5596 H   0  0  0  0  0  0  0  0  0  0  0  0
   -3.2120   -3.7944   -0.9382 H   0  0  0  0  0  0  0  0  0  0  0  0
   -1.6812   -3.1704    0.4405 C   0  0  0  0  0  0  0  0  0  0  0  0
   -0.9195   -3.8163    1.1356 O   0  0  0  0  0  0  0  0  0  0  0  0
   -1.3034   -1.9490   -0.0857 N   0  0  0  0  0  0  0  0  0  0  0  0
   -1.9541   -1.5161   -0.7335 H   0  0  0  0  0  0  0  0  0  0  0  0
    0.0365   -1.3435    0.0619 C   0  0  1  0  0  0  0  0  0  0  0  0
    0.7990   -1.9983   -0.3736 H   0  0  0  0  0  0  0  0  0  0  0  0
   -0.0573   -0.0198   -0.7385 C   0  0  0  0  0  0  0  0  0  0  0  0
   -0.3203   -0.2931   -1.7660 H   0  0  0  0  0  0  0  0  0  0  0  0
   -0.8908    0.5691   -0.3407 H   0  0  0  0  0  0  0  0  0  0  0  0
    1.1674    0.9230   -0.8365 C   0  0  0  0  0  0  0  0  0  0  0  0
    1.2235    1.2879   -1.8676 H   0  0  0  0  0  0  0  0  0  0  0  0
    0.9807    1.7931   -0.1979 H   0  0  0  0  0  0  0  0  0  0  0  0
    2.5333    0.3467   -0.4388 C   0  0  0  0  0  0  0  0  0  0  0  0
    2.5947    0.2321    0.6439 H   0  0  0  0  0  0  0  0  0  0  0  0
    2.6745   -0.6334   -0.9056 H   0  0  0  0  0  0  0  0  0  0  0  0
    3.6626    1.2757   -0.8756 C   0  0  0  0  0  0  0  0  0  0  0  0
    3.6184    1.4506   -1.9562 H   0  0  0  0  0  0  0  0  0  0  0  0
    3.5658    2.2419   -0.3685 H   0  0  0  0  0  0  0  0  0  0  0  0
    4.9388    0.6465   -0.5266 N   0  0  0  0  0  0  0  0  0  0  0  0
    5.7222    1.2794   -0.6851 H   0  0  0  0  0  0  0  0  0  0  0  0
    4.9278    0.3117    0.4384 H   0  0  0  0  0  0  0  0  0  0  0  0
    0.3828   -1.1170    1.5572 C   0  0  0  0  0  0  0  0  0  0  0  0
    1.4681   -1.4465    2.0168 O   0  0  0  0  0  0  0  0  0  0  0  0
   -0.5625   -0.5668    2.4060 N   0  0  0  0  0  0  0  0  0  0  0  0
   -1.4995   -0.4761    2.0296 H   0  0  0  0  0  0  0  0  0  0  0  0
   -0.3798   -0.5030    3.8506 C   0  0  0  0  0  0  0  0  0  0  0  0
    0.5100    0.0850    4.0989 H   0  0  0  0  0  0  0  0  0  0  0  0
   -1.2472   -0.0309    4.3215 H   0  0  0  0  0  0  0  0  0  0  0  0
   -0.2634   -1.5101    4.2653 H   0  0  0  0  0  0  0  0  0  0  0  0
  1  2  1  0  0  0  0
  2  3  1  0  0  0  0
  2  4  1  0  0  0  0
  2  5  1  0  0  0  0
  5  6  2  0  0  0  0
  5  7  1  0  0  0  0
  7  8  1  0  0  0  0
  7  9  1  0  0  0  0
  9 10  1  0  0  0  0
  9 11  1  0  0  0  0
  9 26  1  0  0  0  0
 11 12  1  0  0  0  0
 11 13  1  0  0  0  0
 11 14  1  0  0  0  0
 14 15  1  0  0  0  0
 14 16  1  0  0  0  0
 14 17  1  0  0  0  0
 17 18  1  0  0  0  0
 17 19  1  0  0  0  0
 17 20  1  0  0  0  0
 20 21  1  0  0  0  0
 20 22  1  0  0  0  0
 20 23  1  0  0  0  0
 23 24  1  0  0  0  0
 23 25  1  0  0  0  0
 26 27  2  0  0  0  0
 26 28  1  0  0  0  0
 28 29  1  0  0  0  0
 28 30  1  0  0  0  0
 30 31  1  0  0  0  0
 30 32  1  0  0  0  0
 30 33  1  0  0  0  0
M  END
$$$$

  -OEChem-03222214063D

 33 32  0     1  0  0  0  0  0999 V2000
   -3.1507   -4.7086    0.6796 H   0  0  0  0  0  0  0  0  0  0  0  0
   -3.0383   -3.7437    0.1767 C   0  0  0  0  0  0  0  0  0  0  0  0
   -3.8118   -3.0646    0.5428 H   0  0  0  0  0  0  0  0  0  0  0  0
   -3.1690   -3.8911   -0.8980 H   0  0  0  0  0  0  0  0  0  0  0  0
   -1.6635   -3.1668    0.4584 C   0  0  0  0  0  0  0  0  0  0  0  0
   -0.8840   -3.7867    1.1577 O   0  0  0  0  0  0  0  0  0  0  0  0
   -1.3105   -1.9490   -0.0926 N   0  0  0  0  0  0  0  0  0  0  0  0
   -1.9710   -1.5436   -0.7485 H   0  0  0  0  0  0  0  0  0  0  0  0
    0.0275   -1.3315    0.0146 C   0  0  1  0  0  0  0  0  0  0  0  0
    0.7844   -1.9798   -0.4399 H   0  0  0  0  0  0  0  0  0  0  0  0
   -0.0921   -0.0008   -0.7657 C   0  0  0  0  0  0  0  0  0  0  0  0
   -0.3749   -0.2597   -1.7916 H   0  0  0  0  0  0  0  0  0  0  0  0
   -0.9119    0.5901   -0.3436 H   0  0  0  0  0  0  0  0  0  0  0  0
    1.1466    0.9166   -0.8680 C   0  0  0  0  0  0  0  0  0  0  0  0
    1.0561    1.5178   -1.7787 H   0  0  0  0  0  0  0  0  0  0  0  0
    1.1285    1.6073   -0.0181 H   0  0  0  0  0  0  0  0  0  0  0  0
    2.5096    0.2064   -0.8576 C   0  0  0  0  0  0  0  0  0  0  0  0
    2.6952   -0.2832    0.0964 H   0  0  0  0  0  0  0  0  0  0  0  0
    2.5245   -0.5587   -1.6404 H   0  0  0  0  0  0  0  0  0  0  0  0
    3.6381    1.2020   -1.1066 C   0  0  0  0  0  0  0  0  0  0  0  0
    3.4759    1.7340   -2.0507 H   0  0  0  0  0  0  0  0  0  0  0  0
    3.6665    1.9408   -0.2980 H   0  0  0  0  0  0  0  0  0  0  0  0
    4.9017    0.4624   -1.1620 N   0  0  0  0  0  0  0  0  0  0  0  0
    5.6975    1.0936   -1.2501 H   0  0  0  0  0  0  0  0  0  0  0  0
    5.0040   -0.1402   -0.3438 H   0  0  0  0  0  0  0  0  0  0  0  0
    0.4110   -1.0827    1.4995 C   0  0  0  0  0  0  0  0  0  0  0  0
    1.5255   -1.3471    1.9301 O   0  0  0  0  0  0  0  0  0  0  0  0
   -0.5188   -0.5289    2.3635 N   0  0  0  0  0  0  0  0  0  0  0  0
   -1.4708   -0.4764    2.0187 H   0  0  0  0  0  0  0  0  0  0  0  0
   -0.2859   -0.3974    3.7964 C   0  0  0  0  0  0  0  0  0  0  0  0
    0.6145    0.1965    3.9863 H   0  0  0  0  0  0  0  0  0  0  0  0
   -1.1340    0.1027    4.2734 H   0  0  0  0  0  0  0  0  0  0  0  0
   -0.1601   -1.3842    4.2542 H   0  0  0  0  0  0  0  0  0  0  0  0
  1  2  1  0  0  0  0
  2  3  1  0  0  0  0
  2  4  1  0  0  0  0
  2  5  1  0  0  0  0
  5  6  2  0  0  0  0
  5  7  1  0  0  0  0
  7  8  1  0  0  0  0
  7  9  1  0  0  0  0
  9 10  1  0  0  0  0
  9 11  1  0  0  0  0
  9 26  1  0  0  0  0
 11 12  1  0  0  0  0
 11 13  1  0  0  0  0
 11 14  1  0  0  0  0
 14 15  1  0  0  0  0
 14 16  1  0  0  0  0
 14 17  1  0  0  0  0
 17 18  1  0  0  0  0
 17 19  1  0  0  0  0
 17 20  1  0  0  0  0
 20 21  1  0  0  0  0
 20 22  1  0  0  0  0
 20 23  1  0  0  0  0
 23 24  1  0  0  0  0
 23 25  1  0  0  0  0
 26 27  2  0  0  0  0
 26 28  1  0  0  0  0
 28 29  1  0  0  0  0
 28 30  1  0  0  0  0
 30 31  1  0  0  0  0
 30 32  1  0  0  0  0
 30 33  1  0  0  0  0
M  END
$$$$

  -OEChem-03222214063D

 33 32  0     1  0  0  0  0  0999 V2000
   -3.0297   -4.8004    0.6380 H   0  0  0  0  0  0  0  0  0  0  0  0
   -2.9831   -3.8119    0.1720 C   0  0  0  0  0  0  0  0  0  0  0  0
   -3.7759   -3.1880    0.5913 H   0  0  0  0  0  0  0  0  0  0  0  0
   -3.1445   -3.9233   -0.9029 H   0  0  0  0  0  0  0  0  0  0  0  0
   -1.6294   -3.1774    0.4311 C   0  0  0  0  0  0  0  0  0  0  0  0
   -0.8117   -3.7605    1.1188 O   0  0  0  0  0  0  0  0  0  0  0  0
   -1.3398   -1.9420   -0.1164 N   0  0  0  0  0  0  0  0  0  0  0  0
   -2.0271   -1.5614   -0.7597 H   0  0  0  0  0  0  0  0  0  0  0  0
   -0.0210   -1.2827   -0.0433 C   0  0  1  0  0  0  0  0  0  0  0  0
    0.7276   -1.9208   -0.5248 H   0  0  0  0  0  0  0  0  0  0  0  0
   -0.1641    0.0476   -0.8148 C   0  0  0  0  0  0  0  0  0  0  0  0
   -0.4605   -0.1929   -1.8410 H   0  0  0  0  0  0  0  0  0  0  0  0
   -0.9723    0.6378   -0.3701 H   0  0  0  0  0  0  0  0  0  0  0  0
    1.0921    0.9382   -0.8935 C   0  0  0  0  0  0  0  0  0  0  0  0
    0.9191    1.7237   -1.6365 H   0  0  0  0  0  0  0  0  0  0  0  0
    1.2319    1.4285    0.0759 H   0  0  0  0  0  0  0  0  0  0  0  0
    2.3847    0.1810   -1.2419 C   0  0  0  0  0  0  0  0  0  0  0  0
    2.6081   -0.5857   -0.4980 H   0  0  0  0  0  0  0  0  0  0  0  0
    2.2624   -0.3168   -2.2093 H   0  0  0  0  0  0  0  0  0  0  0  0
    3.5670    1.1416   -1.3126 C   0  0  0  0  0  0  0  0  0  0  0  0
    3.3724    1.9300   -2.0479 H   0  0  0  0  0  0  0  0  0  0  0  0
    3.7203    1.6146   -0.3362 H   0  0  0  0  0  0  0  0  0  0  0  0
    4.7587    0.3811   -1.6984 N   0  0  0  0  0  0  0  0  0  0  0  0
    5.5867    0.9758   -1.7117 H   0  0  0  0  0  0  0  0  0  0  0  0
    4.8951   -0.4150   -1.0737 H   0  0  0  0  0  0  0  0  0  0  0  0
    0.4339   -1.0245    1.4172 C   0  0  0  0  0  0  0  0  0  0  0  0
    1.6085   -1.1327    1.7447 O   0  0  0  0  0  0  0  0  0  0  0  0
   -0.4654   -0.5041    2.3314 N   0  0  0  0  0  0  0  0  0  0  0  0
   -1.4436   -0.5446    2.0666 H   0  0  0  0  0  0  0  0  0  0  0  0
   -0.1263   -0.2722    3.7297 C   0  0  0  0  0  0  0  0  0  0  0  0
    0.7126    0.4273    3.8096 H   0  0  0  0  0  0  0  0  0  0  0  0
   -0.9821    0.1554    4.2606 H   0  0  0  0  0  0  0  0  0  0  0  0
    0.1517   -1.2129    4.2167 H   0  0  0  0  0  0  0  0  0  0  0  0
  1  2  1  0  0  0  0
  2  3  1  0  0  0  0
  2  4  1  0  0  0  0
  2  5  1  0  0  0  0
  5  6  2  0  0  0  0
  5  7  1  0  0  0  0
  7  8  1  0  0  0  0
  7  9  1  0  0  0  0
  9 10  1  0  0  0  0
  9 11  1  0  0  0  0
  9 26  1  0  0  0  0
 11 12  1  0  0  0  0
 11 13  1  0  0  0  0
 11 14  1  0  0  0  0
 14 15  1  0  0  0  0
 14 16  1  0  0  0  0
 14 17  1  0  0  0  0
 17 18  1  0  0  0  0
 17 19  1  0  0  0  0
 17 20  1  0  0  0  0
 20 21  1  0  0  0  0
 20 22  1  0  0  0  0
 20 23  1  0  0  0  0
 23 24  1  0  0  0  0
 23 25  1  0  0  0  0
 26 27  2  0  0  0  0
 26 28  1  0  0  0  0
 28 29  1  0  0  0  0
 28 30  1  0  0  0  0
 30 31  1  0  0  0  0
 30 32  1  0  0  0  0
 30 33  1  0  0  0  0
M  END
$$$$

  -OEChem-03222214063D

 33 32  0     1  0  0  0  0  0999 V2000
   -2.9512   -4.8410    0.5865 H   0  0  0  0  0  0  0  0  0  0  0  0
   -2.9377   -3.8441    0.1363 C   0  0  0  0  0  0  0  0  0  0  0  0
   -3.7441   -3.2501    0.5727 H   0  0  0  0  0  0  0  0  0  0  0  0
   -3.1061   -3.9426   -0.9389 H   0  0  0  0  0  0  0  0  0  0  0  0
   -1.6011   -3.1743    0.3939 C   0  0  0  0  0  0  0  0  0  0  0  0
   -0.7597   -3.7431    1.0653 O   0  0  0  0  0  0  0  0  0  0  0  0
   -1.3536   -1.9205   -0.1312 N   0  0  0  0  0  0  0  0  0  0  0  0
   -2.0593   -1.5437   -0.7566 H   0  0  0  0  0  0  0  0  0  0  0  0
   -0.0517   -1.2308   -0.0586 C   0  0  1  0  0  0  0  0  0  0  0  0
    0.6967   -1.8621   -0.5487 H   0  0  0  0  0  0  0  0  0  0  0  0
   -0.2031    0.0901   -0.8432 C   0  0  0  0  0  0  0  0  0  0  0  0
   -0.4994   -0.1435   -1.8711 H   0  0  0  0  0  0  0  0  0  0  0  0
   -1.0093    0.6786   -0.3928 H   0  0  0  0  0  0  0  0  0  0  0  0
    1.0602    0.9693   -0.8909 C   0  0  0  0  0  0  0  0  0  0  0  0
    0.8289    1.8768   -1.4582 H   0  0  0  0  0  0  0  0  0  0  0  0
    1.3359    1.2813    0.1219 H   0  0  0  0  0  0  0  0  0  0  0  0
    2.2515    0.2588   -1.5495 C   0  0  0  0  0  0  0  0  0  0  0  0
    2.5282   -0.6298   -0.9748 H   0  0  0  0  0  0  0  0  0  0  0  0
    1.9762   -0.0614   -2.5597 H   0  0  0  0  0  0  0  0  0  0  0  0
    3.4593    1.1870   -1.6221 C   0  0  0  0  0  0  0  0  0  0  0  0
    3.2097    2.0904   -2.1893 H   0  0  0  0  0  0  0  0  0  0  0  0
    3.7576    1.4891   -0.6119 H   0  0  0  0  0  0  0  0  0  0  0  0
    4.5557    0.4707   -2.2799 N   0  0  0  0  0  0  0  0  0  0  0  0
    5.3970    1.0452   -2.3223 H   0  0  0  0  0  0  0  0  0  0  0  0
    4.7450   -0.4119   -1.8035 H   0  0  0  0  0  0  0  0  0  0  0  0
    0.4413   -0.9784    1.3869 C   0  0  0  0  0  0  0  0  0  0  0  0
    1.6361   -1.0269    1.6511 O   0  0  0  0  0  0  0  0  0  0  0  0
   -0.4377   -0.4914    2.3380 N   0  0  0  0  0  0  0  0  0  0  0  0
   -1.4240   -0.5665    2.1137 H   0  0  0  0  0  0  0  0  0  0  0  0
   -0.0494   -0.2474    3.7212 C   0  0  0  0  0  0  0  0  0  0  0  0
    0.7654    0.4829    3.7685 H   0  0  0  0  0  0  0  0  0  0  0  0
   -0.8977    0.1477    4.2881 H   0  0  0  0  0  0  0  0  0  0  0  0
    0.2832   -1.1774    4.1944 H   0  0  0  0  0  0  0  0  0  0  0  0
  1  2  1  0  0  0  0
  2  3  1  0  0  0  0
  2  4  1  0  0  0  0
  2  5  1  0  0  0  0
  5  6  2  0  0  0  0
  5  7  1  0  0  0  0
  7  8  1  0  0  0  0
  7  9  1  0  0  0  0
  9 10  1  0  0  0  0
  9 11  1  0  0  0  0
  9 26  1  0  0  0  0
 11 12  1  0  0  0  0
 11 13  1  0  0  0  0
 11 14  1  0  0  0  0
 14 15  1  0  0  0  0
 14 16  1  0  0  0  0
 14 17  1  0  0  0  0
 17 18  1  0  0  0  0
 17 19  1  0  0  0  0
 17 20  1  0  0  0  0
 20 21  1  0  0  0  0
 20 22  1  0  0  0  0
 20 23  1  0  0  0  0
 23 24  1  0  0  0  0
 23 25  1  0  0  0  0
 26 27  2  0  0  0  0
 26 28  1  0  0  0  0
 28 29  1  0  0  0  0
 28 30  1  0  0  0  0
 30 31  1  0  0  0  0
 30 32  1  0  0  0  0
 30 33  1  0  0  0  0
M  END
$$$$

  -OEChem-03222214063D

 33 32  0     1  0  0  0  0  0999 V2000
   -2.9066   -4.8499    0.5702 H   0  0  0  0  0  0  0  0  0  0  0  0
   -2.9056   -3.8487    0.1298 C   0  0  0  0  0  0  0  0  0  0  0  0
   -3.7175   -3.2681    0.5742 H   0  0  0  0  0  0  0  0  0  0  0  0
   -3.0757   -3.9390   -0.9458 H   0  0  0  0  0  0  0  0  0  0  0  0
   -1.5759   -3.1658    0.3893 C   0  0  0  0  0  0  0  0  0  0  0  0
   -0.7284   -3.7284    1.0582 O   0  0  0  0  0  0  0  0  0  0  0  0
   -1.3423   -1.9074   -0.1316 N   0  0  0  0  0  0  0  0  0  0  0  0
   -2.0522   -1.5380   -0.7568 H   0  0  0  0  0  0  0  0  0  0  0  0
   -0.0473   -1.2039   -0.0614 C   0  0  1  0  0  0  0  0  0  0  0  0
    0.7106   -1.8237   -0.5524 H   0  0  0  0  0  0  0  0  0  0  0  0
   -0.2161    0.1092   -0.8563 C   0  0  0  0  0  0  0  0  0  0  0  0
   -0.5284   -0.1221   -1.8801 H   0  0  0  0  0  0  0  0  0  0  0  0
   -1.0190    0.6913   -0.3922 H   0  0  0  0  0  0  0  0  0  0  0  0
    1.0411    0.9965   -0.9043 C   0  0  0  0  0  0  0  0  0  0  0  0
    0.7479    1.9898   -1.2600 H   0  0  0  0  0  0  0  0  0  0  0  0
    1.4696    1.1285    0.0936 H   0  0  0  0  0  0  0  0  0  0  0  0
    2.0940    0.4290   -1.8640 C   0  0  0  0  0  0  0  0  0  0  0  0
    2.3892   -0.5742   -1.5415 H   0  0  0  0  0  0  0  0  0  0  0  0
    1.6735    0.3517   -2.8721 H   0  0  0  0  0  0  0  0  0  0  0  0
    3.3293    1.3227   -1.8955 C   0  0  0  0  0  0  0  0  0  0  0  0
    3.0542    2.3356   -2.2093 H   0  0  0  0  0  0  0  0  0  0  0  0
    3.7712    1.3840   -0.8946 H   0  0  0  0  0  0  0  0  0  0  0  0
    4.2933    0.7503   -2.8397 N   0  0  0  0  0  0  0  0  0  0  0  0
    5.1416    1.3144   -2.8853 H   0  0  0  0  0  0  0  0  0  0  0  0
    4.5142   -0.2140   -2.5895 H   0  0  0  0  0  0  0  0  0  0  0  0
    0.4463   -0.9531    1.3838 C   0  0  0  0  0  0  0  0  0  0  0  0
    1.6420   -1.0043    1.6444 O   0  0  0  0  0  0  0  0  0  0  0  0
   -0.4336   -0.4802    2.3407 N   0  0  0  0  0  0  0  0  0  0  0  0
   -1.4199   -0.5636    2.1190 H   0  0  0  0  0  0  0  0  0  0  0  0
   -0.0435   -0.2538    3.7261 C   0  0  0  0  0  0  0  0  0  0  0  0
    0.7693    0.4781    3.7811 H   0  0  0  0  0  0  0  0  0  0  0  0
   -0.8919    0.1310    4.2998 H   0  0  0  0  0  0  0  0  0  0  0  0
    0.2919   -1.1896    4.1854 H   0  0  0  0  0  0  0  0  0  0  0  0
  1  2  1  0  0  0  0
  2  3  1  0  0  0  0
  2  4  1  0  0  0  0
  2  5  1  0  0  0  0
  5  6  2  0  0  0  0
  5  7  1  0  0  0  0
  7  8  1  0  0  0  0
  7  9  1  0  0  0  0
  9 10  1  0  0  0  0
  9 11  1  0  0  0  0
  9 26  1  0  0  0  0
 11 12  1  0  0  0  0
 11 13  1  0  0  0  0
 11 14  1  0  0  0  0
 14 15  1  0  0  0  0
 14 16  1  0  0  0  0
 14 17  1  0  0  0  0
 17 18  1  0  0  0  0
 17 19  1  0  0  0  0
 17 20  1  0  0  0  0
 20 21  1  0  0  0  0
 20 22  1  0  0  0  0
 20 23  1  0  0  0  0
 23 24  1  0  0  0  0
 23 25  1  0  0  0  0
 26 27  2  0  0  0  0
 26 28  1  0  0  0  0
 28 29  1  0  0  0  0
 28 30  1  0  0  0  0
 30 31  1  0  0  0  0
 30 32  1  0  0  0  0
 30 33  1  0  0  0  0
M  END
$$$$

  -OEChem-03222214063D

 33 32  0     1  0  0  0  0  0999 V2000
   -2.8815   -4.8429    0.5755 H   0  0  0  0  0  0  0  0  0  0  0  0
   -2.8861   -3.8393    0.1403 C   0  0  0  0  0  0  0  0  0  0  0  0
   -3.6914   -3.2605    0.5990 H   0  0  0  0  0  0  0  0  0  0  0  0
   -3.0711   -3.9238   -0.9333 H   0  0  0  0  0  0  0  0  0  0  0  0
   -1.5528   -3.1586    0.3868 C   0  0  0  0  0  0  0  0  0  0  0  0
   -0.7003   -3.7227    1.0479 O   0  0  0  0  0  0  0  0  0  0  0  0
   -1.3226   -1.8996   -0.1341 N   0  0  0  0  0  0  0  0  0  0  0  0
   -2.0346   -1.5308   -0.7575 H   0  0  0  0  0  0  0  0  0  0  0  0
   -0.0312   -1.1900   -0.0602 C   0  0  1  0  0  0  0  0  0  0  0  0
    0.7376   -1.7988   -0.5485 H   0  0  0  0  0  0  0  0  0  0  0  0
   -0.2111    0.1192   -0.8587 C   0  0  0  0  0  0  0  0  0  0  0  0
   -0.5370   -0.1110   -1.8783 H   0  0  0  0  0  0  0  0  0  0  0  0
   -1.0132    0.6948   -0.3846 H   0  0  0  0  0  0  0  0  0  0  0  0
    1.0400    1.0165   -0.9077 C   0  0  0  0  0  0  0  0  0  0  0  0
    0.7150    2.0570   -1.0128 H   0  0  0  0  0  0  0  0  0  0  0  0
    1.6211    0.9565    0.0158 H   0  0  0  0  0  0  0  0  0  0  0  0
    1.9185    0.6653   -2.1136 C   0  0  0  0  0  0  0  0  0  0  0  0
    2.2082   -0.3893   -2.0619 H   0  0  0  0  0  0  0  0  0  0  0  0
    1.3560    0.8184   -3.0405 H   0  0  0  0  0  0  0  0  0  0  0  0
    3.1744    1.5308   -2.1350 C   0  0  0  0  0  0  0  0  0  0  0  0
    2.8998    2.5907   -2.1739 H   0  0  0  0  0  0  0  0  0  0  0  0
    3.7601    1.3640   -1.2238 H   0  0  0  0  0  0  0  0  0  0  0  0
    3.9655    1.1754   -3.3168 N   0  0  0  0  0  0  0  0  0  0  0  0
    4.8139    1.7388   -3.3732 H   0  0  0  0  0  0  0  0  0  0  0  0
    4.1922    0.1807   -3.3150 H   0  0  0  0  0  0  0  0  0  0  0  0
    0.4446   -0.9419    1.3925 C   0  0  0  0  0  0  0  0  0  0  0  0
    1.6345   -1.0131    1.6739 O   0  0  0  0  0  0  0  0  0  0  0  0
   -0.4469   -0.4761    2.3424 N   0  0  0  0  0  0  0  0  0  0  0  0
   -1.4302   -0.5464    2.1036 H   0  0  0  0  0  0  0  0  0  0  0  0
   -0.0773   -0.2800    3.7382 C   0  0  0  0  0  0  0  0  0  0  0  0
    0.7392    0.4450    3.8204 H   0  0  0  0  0  0  0  0  0  0  0  0
   -0.9321    0.0986    4.3064 H   0  0  0  0  0  0  0  0  0  0  0  0
    0.2455   -1.2269    4.1839 H   0  0  0  0  0  0  0  0  0  0  0  0
  1  2  1  0  0  0  0
  2  3  1  0  0  0  0
  2  4  1  0  0  0  0
  2  5  1  0  0  0  0
  5  6  2  0  0  0  0
  5  7  1  0  0  0  0
  7  8  1  0  0  0  0
  7  9  1  0  0  0  0
  9 10  1  0  0  0  0
  9 11  1  0  0  0  0
  9 26  1  0  0  0  0
 11 12  1  0  0  0  0
 11 13  1  0  0  0  0
 11 14  1  0  0  0  0
 14 15  1  0  0  0  0
 14 16  1  0  0  0  0
 14 17  1  0  0  0  0
 17 18  1  0  0  0  0
 17 19  1  0  0  0  0
 17 20  1  0  0  0  0
 20 21  1  0  0  0  0
 20 22  1  0  0  0  0
 20 23  1  0  0  0  0
 23 24  1  0  0  0  0
 23 25  1  0  0  0  0
 26 27  2  0  0  0  0
 26 28  1  0  0  0  0
 28 29  1  0  0  0  0
 28 30  1  0  0  0  0
 30 31  1  0  0  0  0
 30 32  1  0  0  0  0
 30 33  1  0  0  0  0
M  END
$$$$

  -OEChem-03222214063D

 33 32  0     1  0  0  0  0  0999 V2000
   -2.8914   -4.8344    0.5737 H   0  0  0  0  0  0  0  0  0  0  0  0
   -2.8907   -3.8302    0.1401 C   0  0  0  0  0  0  0  0  0  0  0  0
   -3.6936   -3.2485    0.5989 H   0  0  0  0  0  0  0  0  0  0  0  0
   -3.0750   -3.9122   -0.9337 H   0  0  0  0  0  0  0  0  0  0  0  0
   -1.5543   -3.1564    0.3891 C   0  0  0  0  0  0  0  0  0  0  0  0
   -0.7052   -3.7262    1.0494 O   0  0  0  0  0  0  0  0  0  0  0  0
   -1.3156   -1.8996   -0.1335 N   0  0  0  0  0  0  0  0  0  0  0  0
   -2.0268   -1.5247   -0.7540 H   0  0  0  0  0  0  0  0  0  0  0  0
   -0.0213   -1.1947   -0.0559 C   0  0  1  0  0  0  0  0  0  0  0  0
    0.7493   -1.8026   -0.5431 H   0  0  0  0  0  0  0  0  0  0  0  0
   -0.1988    0.1171   -0.8495 C   0  0  0  0  0  0  0  0  0  0  0  0
   -0.5263   -0.1157   -1.8684 H   0  0  0  0  0  0  0  0  0  0  0  0
   -1.0021    0.6929   -0.3776 H   0  0  0  0  0  0  0  0  0  0  0  0
    1.0552    1.0145   -0.8975 C   0  0  0  0  0  0  0  0  0  0  0  0
    0.7527    2.0509   -0.7142 H   0  0  0  0  0  0  0  0  0  0  0  0
    1.7763    0.7481   -0.1209 H   0  0  0  0  0  0  0  0  0  0  0  0
    1.7316    0.9374   -2.2709 C   0  0  0  0  0  0  0  0  0  0  0  0
    2.0027   -0.1012   -2.4867 H   0  0  0  0  0  0  0  0  0  0  0  0
    1.0368    1.2763   -3.0464 H   0  0  0  0  0  0  0  0  0  0  0  0
    2.9865    1.8043   -2.3050 C   0  0  0  0  0  0  0  0  0  0  0  0
    2.7301    2.8454   -2.0794 H   0  0  0  0  0  0  0  0  0  0  0  0
    3.7021    1.4589   -1.5501 H   0  0  0  0  0  0  0  0  0  0  0  0
    3.5791    1.7143   -3.6430 N   0  0  0  0  0  0  0  0  0  0  0  0
    4.4165    2.2927   -3.7136 H   0  0  0  0  0  0  0  0  0  0  0  0
    3.7877    0.7452   -3.8840 H   0  0  0  0  0  0  0  0  0  0  0  0
    0.4447   -0.9474    1.4009 C   0  0  0  0  0  0  0  0  0  0  0  0
    1.6299   -1.0344    1.6965 O   0  0  0  0  0  0  0  0  0  0  0  0
   -0.4523   -0.4772    2.3436 N   0  0  0  0  0  0  0  0  0  0  0  0
   -1.4336   -0.5329    2.0931 H   0  0  0  0  0  0  0  0  0  0  0  0
   -0.0964   -0.2884    3.7439 C   0  0  0  0  0  0  0  0  0  0  0  0
    0.7214    0.4337    3.8377 H   0  0  0  0  0  0  0  0  0  0  0  0
   -0.9559    0.0900    4.3051 H   0  0  0  0  0  0  0  0  0  0  0  0
    0.2190   -1.2382    4.1887 H   0  0  0  0  0  0  0  0  0  0  0  0
  1  2  1  0  0  0  0
  2  3  1  0  0  0  0
  2  4  1  0  0  0  0
  2  5  1  0  0  0  0
  5  6  2  0  0  0  0
  5  7  1  0  0  0  0
  7  8  1  0  0  0  0
  7  9  1  0  0  0  0
  9 10  1  0  0  0  0
  9 11  1  0  0  0  0
  9 26  1  0  0  0  0
 11 12  1  0  0  0  0
 11 13  1  0  0  0  0
 11 14  1  0  0  0  0
 14 15  1  0  0  0  0
 14 16  1  0  0  0  0
 14 17  1  0  0  0  0
 17 18  1  0  0  0  0
 17 19  1  0  0  0  0
 17 20  1  0  0  0  0
 20 21  1  0  0  0  0
 20 22  1  0  0  0  0
 20 23  1  0  0  0  0
 23 24  1  0  0  0  0
 23 25  1  0  0  0  0
 26 27  2  0  0  0  0
 26 28  1  0  0  0  0
 28 29  1  0  0  0  0
 28 30  1  0  0  0  0
 30 31  1  0  0  0  0
 30 32  1  0  0  0  0
 30 33  1  0  0  0  0
M  END
$$$$

  -OEChem-03222214063D

 33 32  0     1  0  0  0  0  0999 V2000
   -2.9075   -4.8323    0.5848 H   0  0  0  0  0  0  0  0  0  0  0  0
   -2.9041   -3.8296    0.1477 C   0  0  0  0  0  0  0  0  0  0  0  0
   -3.7026   -3.2430    0.6078 H   0  0  0  0  0  0  0  0  0  0  0  0
   -3.0936   -3.9149   -0.9250 H   0  0  0  0  0  0  0  0  0  0  0  0
   -1.5638   -3.1602    0.3880 C   0  0  0  0  0  0  0  0  0  0  0  0
   -0.7127   -3.7318    1.0441 O   0  0  0  0  0  0  0  0  0  0  0  0
   -1.3226   -1.9055   -0.1384 N   0  0  0  0  0  0  0  0  0  0  0  0
   -2.0378   -1.5253   -0.7510 H   0  0  0  0  0  0  0  0  0  0  0  0
   -0.0264   -1.2039   -0.0646 C   0  0  1  0  0  0  0  0  0  0  0  0
    0.7417   -1.8129   -0.5546 H   0  0  0  0  0  0  0  0  0  0  0  0
   -0.2000    0.1133   -0.8479 C   0  0  0  0  0  0  0  0  0  0  0  0
   -0.5154   -0.1271   -1.8689 H   0  0  0  0  0  0  0  0  0  0  0  0
   -1.0070    0.6951   -0.3903 H   0  0  0  0  0  0  0  0  0  0  0  0
    1.0648    0.9961   -0.8887 C   0  0  0  0  0  0  0  0  0  0  0  0
    0.8481    1.9573   -0.4108 H   0  0  0  0  0  0  0  0  0  0  0  0
    1.8862    0.5324   -0.3353 H   0  0  0  0  0  0  0  0  0  0  0  0
    1.5303    1.2303   -2.3304 C   0  0  0  0  0  0  0  0  0  0  0  0
    1.7486    0.2688   -2.8065 H   0  0  0  0  0  0  0  0  0  0  0  0
    0.7332    1.7193   -2.9002 H   0  0  0  0  0  0  0  0  0  0  0  0
    2.7799    2.1052   -2.3600 C   0  0  0  0  0  0  0  0  0  0  0  0
    2.5743    3.0694   -1.8822 H   0  0  0  0  0  0  0  0  0  0  0  0
    3.5927    1.6191   -1.8089 H   0  0  0  0  0  0  0  0  0  0  0  0
    3.1701    2.3127   -3.7578 N   0  0  0  0  0  0  0  0  0  0  0  0
    3.9937    2.9109   -3.8243 H   0  0  0  0  0  0  0  0  0  0  0  0
    3.3316    1.4215   -4.2267 H   0  0  0  0  0  0  0  0  0  0  0  0
    0.4445   -0.9525    1.3901 C   0  0  0  0  0  0  0  0  0  0  0  0
    1.6315   -1.0310    1.6807 O   0  0  0  0  0  0  0  0  0  0  0  0
   -0.4492   -0.4765    2.3329 N   0  0  0  0  0  0  0  0  0  0  0  0
   -1.4315   -0.5346    2.0870 H   0  0  0  0  0  0  0  0  0  0  0  0
   -0.0867   -0.2720    3.7294 C   0  0  0  0  0  0  0  0  0  0  0  0
    0.7297    0.4531    3.8114 H   0  0  0  0  0  0  0  0  0  0  0  0
   -0.9442    0.1103    4.2909 H   0  0  0  0  0  0  0  0  0  0  0  0
    0.2334   -1.2162    4.1827 H   0  0  0  0  0  0  0  0  0  0  0  0
  1  2  1  0  0  0  0
  2  3  1  0  0  0  0
  2  4  1  0  0  0  0
  2  5  1  0  0  0  0
  5  6  2  0  0  0  0
  5  7  1  0  0  0  0
  7  8  1  0  0  0  0
  7  9  1  0  0  0  0
  9 10  1  0  0  0  0
  9 11  1  0  0  0  0
  9 26  1  0  0  0  0
 11 12  1  0  0  0  0
 11 13  1  0  0  0  0
 11 14  1  0  0  0  0
 14 15  1  0  0  0  0
 14 16  1  0  0  0  0
 14 17  1  0  0  0  0
 17 18  1  0  0  0  0
 17 19  1  0  0  0  0
 17 20  1  0  0  0  0
 20 21  1  0  0  0  0
 20 22  1  0  0  0  0
 20 23  1  0  0  0  0
 23 24  1  0  0  0  0
 23 25  1  0  0  0  0
 26 27  2  0  0  0  0
 26 28  1  0  0  0  0
 28 29  1  0  0  0  0
 28 30  1  0  0  0  0
 30 31  1  0  0  0  0
 30 32  1  0  0  0  0
 30 33  1  0  0  0  0
M  END
$$$$

  -OEChem-03222214063D

 33 32  0     1  0  0  0  0  0999 V2000
   -2.9138   -4.8376    0.6087 H   0  0  0  0  0  0  0  0  0  0  0  0
   -2.9141   -3.8387    0.1628 C   0  0  0  0  0  0  0  0  0  0  0  0
   -3.7075   -3.2475    0.6260 H   0  0  0  0  0  0  0  0  0  0  0  0
   -3.1146   -3.9320   -0.9071 H   0  0  0  0  0  0  0  0  0  0  0  0
   -1.5706   -3.1688    0.3832 C   0  0  0  0  0  0  0  0  0  0  0  0
   -0.7104   -3.7389    1.0291 O   0  0  0  0  0  0  0  0  0  0  0  0
   -1.3376   -1.9135   -0.1456 N   0  0  0  0  0  0  0  0  0  0  0  0
   -2.0625   -1.5307   -0.7450 H   0  0  0  0  0  0  0  0  0  0  0  0
   -0.0439   -1.2071   -0.0813 C   0  0  1  0  0  0  0  0  0  0  0  0
    0.7200   -1.8160   -0.5778 H   0  0  0  0  0  0  0  0  0  0  0  0
   -0.2173    0.1137   -0.8564 C   0  0  0  0  0  0  0  0  0  0  0  0
   -0.5147   -0.1341   -1.8809 H   0  0  0  0  0  0  0  0  0  0  0  0
   -1.0287    0.7015   -0.4143 H   0  0  0  0  0  0  0  0  0  0  0  0
    1.0592    0.9774   -0.8864 C   0  0  0  0  0  0  0  0  0  0  0  0
    0.9645    1.7956   -0.1645 H   0  0  0  0  0  0  0  0  0  0  0  0
    1.9285    0.3784   -0.5957 H   0  0  0  0  0  0  0  0  0  0  0  0
    1.3240    1.5302   -2.2915 C   0  0  0  0  0  0  0  0  0  0  0  0
    1.4546    0.7019   -2.9954 H   0  0  0  0  0  0  0  0  0  0  0  0
    0.4649    2.1239   -2.6208 H   0  0  0  0  0  0  0  0  0  0  0  0
    2.5740    2.4052   -2.3008 C   0  0  0  0  0  0  0  0  0  0  0  0
    2.4505    3.2433   -1.6057 H   0  0  0  0  0  0  0  0  0  0  0  0
    3.4442    1.8221   -1.9786 H   0  0  0  0  0  0  0  0  0  0  0  0
    2.7786    2.9100   -3.6623 N   0  0  0  0  0  0  0  0  0  0  0  0
    3.5942    3.5211   -3.7091 H   0  0  0  0  0  0  0  0  0  0  0  0
    2.8632    2.1414   -4.3273 H   0  0  0  0  0  0  0  0  0  0  0  0
    0.4434   -0.9492    1.3659 C   0  0  0  0  0  0  0  0  0  0  0  0
    1.6370   -0.9984    1.6349 O   0  0  0  0  0  0  0  0  0  0  0  0
   -0.4419   -0.4739    2.3169 N   0  0  0  0  0  0  0  0  0  0  0  0
   -1.4270   -0.5507    2.0880 H   0  0  0  0  0  0  0  0  0  0  0  0
   -0.0605   -0.2440    3.7043 C   0  0  0  0  0  0  0  0  0  0  0  0
    0.7508    0.4892    3.7629 H   0  0  0  0  0  0  0  0  0  0  0  0
   -0.9128    0.1405    4.2723 H   0  0  0  0  0  0  0  0  0  0  0  0
    0.2742   -1.1784    4.1673 H   0  0  0  0  0  0  0  0  0  0  0  0
  1  2  1  0  0  0  0
  2  3  1  0  0  0  0
  2  4  1  0  0  0  0
  2  5  1  0  0  0  0
  5  6  2  0  0  0  0
  5  7  1  0  0  0  0
  7  8  1  0  0  0  0
  7  9  1  0  0  0  0
  9 10  1  0  0  0  0
  9 11  1  0  0  0  0
  9 26  1  0  0  0  0
 11 12  1  0  0  0  0
 11 13  1  0  0  0  0
 11 14  1  0  0  0  0
 14 15  1  0  0  0  0
 14 16  1  0  0  0  0
 14 17  1  0  0  0  0
 17 18  1  0  0  0  0
 17 19  1  0  0  0  0
 17 20  1  0  0  0  0
 20 21  1  0  0  0  0
 20 22  1  0  0  0  0
 20 23  1  0  0  0  0
 23 24  1  0  0  0  0
 23 25  1  0  0  0  0
 26 27  2  0  0  0  0
 26 28  1  0  0  0  0
 28 29  1  0  0  0  0
 28 30  1  0  0  0  0
 30 31  1  0  0  0  0
 30 32  1  0  0  0  0
 30 33  1  0  0  0  0
M  END
$$$$

  -OEChem-03222214063D

 33 32  0     1  0  0  0  0  0999 V2000
   -2.9085   -4.8482    0.6065 H   0  0  0  0  0  0  0  0  0  0  0  0
   -2.9161   -3.8491    0.1611 C   0  0  0  0  0  0  0  0  0  0  0  0
   -3.7140   -3.2640    0.6245 H   0  0  0  0  0  0  0  0  0  0  0  0
   -3.1156   -3.9437   -0.9090 H   0  0  0  0  0  0  0  0  0  0  0  0
   -1.5774   -3.1703    0.3818 C   0  0  0  0  0  0  0  0  0  0  0  0
   -0.7127   -3.7349    1.0265 O   0  0  0  0  0  0  0  0  0  0  0  0
   -1.3534   -1.9132   -0.1460 N   0  0  0  0  0  0  0  0  0  0  0  0
   -2.0818   -1.5333   -0.7430 H   0  0  0  0  0  0  0  0  0  0  0  0
   -0.0622   -1.2029   -0.0874 C   0  0  1  0  0  0  0  0  0  0  0  0
    0.6984   -1.8136   -0.5872 H   0  0  0  0  0  0  0  0  0  0  0  0
   -0.2343    0.1158   -0.8646 C   0  0  0  0  0  0  0  0  0  0  0  0
   -0.5185   -0.1350   -1.8920 H   0  0  0  0  0  0  0  0  0  0  0  0
   -1.0469    0.7082   -0.4313 H   0  0  0  0  0  0  0  0  0  0  0  0
    1.0480    0.9660   -0.8873 C   0  0  0  0  0  0  0  0  0  0  0  0
    1.0790    1.6093   -0.0013 H   0  0  0  0  0  0  0  0  0  0  0  0
    1.9261    0.3116   -0.8546 H   0  0  0  0  0  0  0  0  0  0  0  0
    1.1298    1.8095   -2.1645 C   0  0  0  0  0  0  0  0  0  0  0  0
    1.1506    1.1535   -3.0406 H   0  0  0  0  0  0  0  0  0  0  0  0
    0.2436    2.4484   -2.2398 H   0  0  0  0  0  0  0  0  0  0  0  0
    2.3810    2.6829   -2.1546 C   0  0  0  0  0  0  0  0  0  0  0  0
    2.3625    3.3548   -1.2892 H   0  0  0  0  0  0  0  0  0  0  0  0
    3.2768    2.0565   -2.0788 H   0  0  0  0  0  0  0  0  0  0  0  0
    2.4142    3.4647   -3.3945 N   0  0  0  0  0  0  0  0  0  0  0  0
    3.2237    4.0851   -3.4163 H   0  0  0  0  0  0  0  0  0  0  0  0
    2.4035    2.8543   -4.2113 H   0  0  0  0  0  0  0  0  0  0  0  0
    0.4408   -0.9421    1.3531 C   0  0  0  0  0  0  0  0  0  0  0  0
    1.6398   -0.9726    1.6005 O   0  0  0  0  0  0  0  0  0  0  0  0
   -0.4340   -0.4688    2.3148 N   0  0  0  0  0  0  0  0  0  0  0  0
   -1.4220   -0.5533    2.1014 H   0  0  0  0  0  0  0  0  0  0  0  0
   -0.0324   -0.2208    3.6934 C   0  0  0  0  0  0  0  0  0  0  0  0
    0.7725    0.5207    3.7314 H   0  0  0  0  0  0  0  0  0  0  0  0
   -0.8790    0.1614    4.2713 H   0  0  0  0  0  0  0  0  0  0  0  0
    0.3188   -1.1469    4.1605 H   0  0  0  0  0  0  0  0  0  0  0  0
  1  2  1  0  0  0  0
  2  3  1  0  0  0  0
  2  4  1  0  0  0  0
  2  5  1  0  0  0  0
  5  6  2  0  0  0  0
  5  7  1  0  0  0  0
  7  8  1  0  0  0  0
  7  9  1  0  0  0  0
  9 10  1  0  0  0  0
  9 11  1  0  0  0  0
  9 26  1  0  0  0  0
 11 12  1  0  0  0  0
 11 13  1  0  0  0  0
 11 14  1  0  0  0  0
 14 15  1  0  0  0  0
 14 16  1  0  0  0  0
 14 17  1  0  0  0  0
 17 18  1  0  0  0  0
 17 19  1  0  0  0  0
 17 20  1  0  0  0  0
 20 21  1  0  0  0  0
 20 22  1  0  0  0  0
 20 23  1  0  0  0  0
 23 24  1  0  0  0  0
 23 25  1  0  0  0  0
 26 27  2  0  0  0  0
 26 28  1  0  0  0  0
 28 29  1  0  0  0  0
 28 30  1  0  0  0  0
 30 31  1  0  0  0  0
 30 32  1  0  0  0  0
 30 33  1  0  0  0  0
M  END
$$$$

  -OEChem-03222214063D

 33 32  0     1  0  0  0  0  0999 V2000
   -2.9019   -4.8494    0.5929 H   0  0  0  0  0  0  0  0  0  0  0  0
   -2.9145   -3.8460    0.1573 C   0  0  0  0  0  0  0  0  0  0  0  0
   -3.7117   -3.2670    0.6296 H   0  0  0  0  0  0  0  0  0  0  0  0
   -3.1185   -3.9317   -0.9126 H   0  0  0  0  0  0  0  0  0  0  0  0
   -1.5769   -3.1650    0.3788 C   0  0  0  0  0  0  0  0  0  0  0  0
   -0.7080   -3.7324    1.0155 O   0  0  0  0  0  0  0  0  0  0  0  0
   -1.3555   -1.9051   -0.1435 N   0  0  0  0  0  0  0  0  0  0  0  0
   -2.0865   -1.5212   -0.7346 H   0  0  0  0  0  0  0  0  0  0  0  0
   -0.0652   -1.1934   -0.0814 C   0  0  1  0  0  0  0  0  0  0  0  0
    0.6957   -1.8061   -0.5778 H   0  0  0  0  0  0  0  0  0  0  0  0
   -0.2331    0.1194   -0.8696 C   0  0  0  0  0  0  0  0  0  0  0  0
   -0.5113   -0.1301   -1.8989 H   0  0  0  0  0  0  0  0  0  0  0  0
   -1.0454    0.7131   -0.4373 H   0  0  0  0  0  0  0  0  0  0  0  0
    1.0480    0.9671   -0.8884 C   0  0  0  0  0  0  0  0  0  0  0  0
    1.2016    1.4293    0.0929 H   0  0  0  0  0  0  0  0  0  0  0  0
    1.9108    0.3249   -1.0963 H   0  0  0  0  0  0  0  0  0  0  0  0
    0.9636    2.0547   -1.9643 C   0  0  0  0  0  0  0  0  0  0  0  0
    0.8550    1.5913   -2.9502 H   0  0  0  0  0  0  0  0  0  0  0  0
    0.0844    2.6825   -1.7857 H   0  0  0  0  0  0  0  0  0  0  0  0
    2.2157    2.9262   -1.9471 C   0  0  0  0  0  0  0  0  0  0  0  0
    2.3256    3.4038   -0.9670 H   0  0  0  0  0  0  0  0  0  0  0  0
    3.1050    2.3119   -2.1269 H   0  0  0  0  0  0  0  0  0  0  0  0
    2.0883    3.9485   -2.9905 N   0  0  0  0  0  0  0  0  0  0  0  0
    2.8946    4.5735   -2.9929 H   0  0  0  0  0  0  0  0  0  0  0  0
    1.9581    3.5213   -3.9072 H   0  0  0  0  0  0  0  0  0  0  0  0
    0.4399   -0.9368    1.3589 C   0  0  0  0  0  0  0  0  0  0  0  0
    1.6398   -0.9659    1.6022 O   0  0  0  0  0  0  0  0  0  0  0  0
   -0.4325   -0.4681    2.3249 N   0  0  0  0  0  0  0  0  0  0  0  0
   -1.4210   -0.5439    2.1110 H   0  0  0  0  0  0  0  0  0  0  0  0
   -0.0286   -0.2291    3.7044 C   0  0  0  0  0  0  0  0  0  0  0  0
    0.7772    0.5112    3.7455 H   0  0  0  0  0  0  0  0  0  0  0  0
   -0.8743    0.1501    4.2855 H   0  0  0  0  0  0  0  0  0  0  0  0
    0.3219   -1.1584    4.1656 H   0  0  0  0  0  0  0  0  0  0  0  0
  1  2  1  0  0  0  0
  2  3  1  0  0  0  0
  2  4  1  0  0  0  0
  2  5  1  0  0  0  0
  5  6  2  0  0  0  0
  5  7  1  0  0  0  0
  7  8  1  0  0  0  0
  7  9  1  0  0  0  0
  9 10  1  0  0  0  0
  9 11  1  0  0  0  0
  9 26  1  0  0  0  0
 11 12  1  0  0  0  0
 11 13  1  0  0  0  0
 11 14  1  0  0  0  0
 14 15  1  0  0  0  0
 14 16  1  0  0  0  0
 14 17  1  0  0  0  0
 17 18  1  0  0  0  0
 17 19  1  0  0  0  0
 17 20  1  0  0  0  0
 20 21  1  0  0  0  0
 20 22  1  0  0  0  0
 20 23  1  0  0  0  0
 23 24  1  0  0  0  0
 23 25  1  0  0  0  0
 26 27  2  0  0  0  0
 26 28  1  0  0  0  0
 28 29  1  0  0  0  0
 28 30  1  0  0  0  0
 30 31  1  0  0  0  0
 30 32  1  0  0  0  0
 30 33  1  0  0  0  0
M  END
$$$$

  -OEChem-03222214063D

 33 32  0     1  0  0  0  0  0999 V2000
   -2.8852   -4.8702    0.5903 H   0  0  0  0  0  0  0  0  0  0  0  0
   -2.9093   -3.8670    0.1549 C   0  0  0  0  0  0  0  0  0  0  0  0
   -3.7126   -3.2973    0.6282 H   0  0  0  0  0  0  0  0  0  0  0  0
   -3.1140   -3.9554   -0.9147 H   0  0  0  0  0  0  0  0  0  0  0  0
   -1.5791   -3.1710    0.3749 C   0  0  0  0  0  0  0  0  0  0  0  0
   -0.7012   -3.7306    1.0061 O   0  0  0  0  0  0  0  0  0  0  0  0
   -1.3732   -1.9075   -0.1447 N   0  0  0  0  0  0  0  0  0  0  0  0
   -2.1124   -1.5278   -0.7282 H   0  0  0  0  0  0  0  0  0  0  0  0
   -0.0892   -1.1843   -0.0880 C   0  0  1  0  0  0  0  0  0  0  0  0
    0.6652   -1.7995   -0.5913 H   0  0  0  0  0  0  0  0  0  0  0  0
   -0.2620    0.1266   -0.8776 C   0  0  0  0  0  0  0  0  0  0  0  0
   -0.7788   -0.0848   -1.8194 H   0  0  0  0  0  0  0  0  0  0  0  0
   -0.8840    0.8214   -0.3032 H   0  0  0  0  0  0  0  0  0  0  0  0
    1.0845    0.7880   -1.2040 C   0  0  0  0  0  0  0  0  0  0  0  0
    1.6213    1.0174   -0.2776 H   0  0  0  0  0  0  0  0  0  0  0  0
    1.7024    0.0984   -1.7888 H   0  0  0  0  0  0  0  0  0  0  0  0
    0.8702    2.0860   -1.9894 C   0  0  0  0  0  0  0  0  0  0  0  0
    0.3635    1.8642   -2.9341 H   0  0  0  0  0  0  0  0  0  0  0  0
    0.2332    2.7658   -1.4140 H   0  0  0  0  0  0  0  0  0  0  0  0
    2.2040    2.7702   -2.2740 C   0  0  0  0  0  0  0  0  0  0  0  0
    2.7039    3.0213   -1.3317 H   0  0  0  0  0  0  0  0  0  0  0  0
    2.8603    2.0977   -2.8376 H   0  0  0  0  0  0  0  0  0  0  0  0
    1.9479    3.9900   -3.0462 N   0  0  0  0  0  0  0  0  0  0  0  0
    2.8134    4.4988   -3.2276 H   0  0  0  0  0  0  0  0  0  0  0  0
    1.4623    3.7768   -3.9171 H   0  0  0  0  0  0  0  0  0  0  0  0
    0.4352   -0.9204    1.3432 C   0  0  0  0  0  0  0  0  0  0  0  0
    1.6384   -0.9449    1.5691 O   0  0  0  0  0  0  0  0  0  0  0  0
   -0.4255   -0.4581    2.3224 N   0  0  0  0  0  0  0  0  0  0  0  0
   -1.4170   -0.5414    2.1250 H   0  0  0  0  0  0  0  0  0  0  0  0
    0.0001   -0.2089    3.6938 C   0  0  0  0  0  0  0  0  0  0  0  0
    0.8036    0.5349    3.7172 H   0  0  0  0  0  0  0  0  0  0  0  0
   -0.8373    0.1708    4.2868 H   0  0  0  0  0  0  0  0  0  0  0  0
    0.3627   -1.1337    4.1547 H   0  0  0  0  0  0  0  0  0  0  0  0
  1  2  1  0  0  0  0
  2  3  1  0  0  0  0
  2  4  1  0  0  0  0
  2  5  1  0  0  0  0
  5  6  2  0  0  0  0
  5  7  1  0  0  0  0
  7  8  1  0  0  0  0
  7  9  1  0  0  0  0
  9 10  1  0  0  0  0
  9 11  1  0  0  0  0
  9 26  1  0  0  0  0
 11 12  1  0  0  0  0
 11 13  1  0  0  0  0
 11 14  1  0  0  0  0
 14 15  1  0  0  0  0
 14 16  1  0  0  0  0
 14 17  1  0  0  0  0
 17 18  1  0  0  0  0
 17 19  1  0  0  0  0
 17 20  1  0  0  0  0
 20 21  1  0  0  0  0
 20 22  1  0  0  0  0
 20 23  1  0  0  0  0
 23 24  1  0  0  0  0
 23 25  1  0  0  0  0
 26 27  2  0  0  0  0
 26 28  1  0  0  0  0
 28 29  1  0  0  0  0
 28 30  1  0  0  0  0
 30 31  1  0  0  0  0
 30 32  1  0  0  0  0
 30 33  1  0  0  0  0
M  END
$$$$

  -OEChem-03222214063D

 33 32  0     1  0  0  0  0  0999 V2000
   -2.9025   -4.8465    0.5948 H   0  0  0  0  0  0  0  0  0  0  0  0
   -2.9145   -3.8430    0.1596 C   0  0  0  0  0  0  0  0  0  0  0  0
   -3.7062   -3.2618    0.6382 H   0  0  0  0  0  0  0  0  0  0  0  0
   -3.1268   -3.9268   -0.9090 H   0  0  0  0  0  0  0  0  0  0  0  0
   -1.5730   -3.1672    0.3725 C   0  0  0  0  0  0  0  0  0  0  0  0
   -0.7004   -3.7392    0.9998 O   0  0  0  0  0  0  0  0  0  0  0  0
   -1.3535   -1.9063   -0.1472 N   0  0  0  0  0  0  0  0  0  0  0  0
   -2.0921   -1.5151   -0.7238 H   0  0  0  0  0  0  0  0  0  0  0  0
   -0.0658   -1.1906   -0.0825 C   0  0  1  0  0  0  0  0  0  0  0  0
    0.6910   -1.8063   -0.5815 H   0  0  0  0  0  0  0  0  0  0  0  0
   -0.2366    0.1188   -0.8757 C   0  0  0  0  0  0  0  0  0  0  0  0
   -0.7605   -0.0822   -1.8157 H   0  0  0  0  0  0  0  0  0  0  0  0
   -0.8569    0.8059   -0.2898 H   0  0  0  0  0  0  0  0  0  0  0  0
    1.1054    0.7903   -1.2069 C   0  0  0  0  0  0  0  0  0  0  0  0
    1.7528    0.7999   -0.3246 H   0  0  0  0  0  0  0  0  0  0  0  0
    1.6178    0.2220   -1.9904 H   0  0  0  0  0  0  0  0  0  0  0  0
    0.8836    2.2385   -1.6564 C   0  0  0  0  0  0  0  0  0  0  0  0
    0.2541    2.2509   -2.5520 H   0  0  0  0  0  0  0  0  0  0  0  0
    0.3651    2.7965   -0.8697 H   0  0  0  0  0  0  0  0  0  0  0  0
    2.2141    2.9210   -1.9582 C   0  0  0  0  0  0  0  0  0  0  0  0
    2.8361    2.9429   -1.0561 H   0  0  0  0  0  0  0  0  0  0  0  0
    2.7561    2.3650   -2.7313 H   0  0  0  0  0  0  0  0  0  0  0  0
    1.9439    4.2879   -2.4152 N   0  0  0  0  0  0  0  0  0  0  0  0
    2.8113    4.7950   -2.5921 H   0  0  0  0  0  0  0  0  0  0  0  0
    1.3478    4.2867   -3.2424 H   0  0  0  0  0  0  0  0  0  0  0  0
    0.4428   -0.9307    1.3560 C   0  0  0  0  0  0  0  0  0  0  0  0
    1.6409   -0.9815    1.6029 O   0  0  0  0  0  0  0  0  0  0  0  0
   -0.4268   -0.4635    2.3256 N   0  0  0  0  0  0  0  0  0  0  0  0
   -1.4161   -0.5254    2.1107 H   0  0  0  0  0  0  0  0  0  0  0  0
   -0.0204   -0.2303    3.7057 C   0  0  0  0  0  0  0  0  0  0  0  0
    0.7885    0.5066    3.7493 H   0  0  0  0  0  0  0  0  0  0  0  0
   -0.8640    0.1508    4.2889 H   0  0  0  0  0  0  0  0  0  0  0  0
    0.3272   -1.1624    4.1637 H   0  0  0  0  0  0  0  0  0  0  0  0
  1  2  1  0  0  0  0
  2  3  1  0  0  0  0
  2  4  1  0  0  0  0
  2  5  1  0  0  0  0
  5  6  2  0  0  0  0
  5  7  1  0  0  0  0
  7  8  1  0  0  0  0
  7  9  1  0  0  0  0
  9 10  1  0  0  0  0
  9 11  1  0  0  0  0
  9 26  1  0  0  0  0
 11 12  1  0  0  0  0
 11 13  1  0  0  0  0
 11 14  1  0  0  0  0
 14 15  1  0  0  0  0
 14 16  1  0  0  0  0
 14 17  1  0  0  0  0
 17 18  1  0  0  0  0
 17 19  1  0  0  0  0
 17 20  1  0  0  0  0
 20 21  1  0  0  0  0
 20 22  1  0  0  0  0
 20 23  1  0  0  0  0
 23 24  1  0  0  0  0
 23 25  1  0  0  0  0
 26 27  2  0  0  0  0
 26 28  1  0  0  0  0
 28 29  1  0  0  0  0
 28 30  1  0  0  0  0
 30 31  1  0  0  0  0
 30 32  1  0  0  0  0
 30 33  1  0  0  0  0
M  END
$$$$

  -OEChem-03222214063D

 33 32  0     1  0  0  0  0  0999 V2000
   -2.9143   -4.8351    0.6099 H   0  0  0  0  0  0  0  0  0  0  0  0
   -2.9200   -3.8332    0.1710 C   0  0  0  0  0  0  0  0  0  0  0  0
   -3.7025   -3.2426    0.6533 H   0  0  0  0  0  0  0  0  0  0  0  0
   -3.1409   -3.9189   -0.8956 H   0  0  0  0  0  0  0  0  0  0  0  0
   -1.5706   -3.1693    0.3712 C   0  0  0  0  0  0  0  0  0  0  0  0
   -0.6986   -3.7472    0.9938 O   0  0  0  0  0  0  0  0  0  0  0  0
   -1.3448   -1.9102   -0.1505 N   0  0  0  0  0  0  0  0  0  0  0  0
   -2.0845   -1.5126   -0.7214 H   0  0  0  0  0  0  0  0  0  0  0  0
   -0.0548   -1.1983   -0.0839 C   0  0  1  0  0  0  0  0  0  0  0  0
    0.7028   -1.8144   -0.5815 H   0  0  0  0  0  0  0  0  0  0  0  0
   -0.2244    0.1124   -0.8759 C   0  0  0  0  0  0  0  0  0  0  0  0
   -0.7539   -0.0816   -1.8143 H   0  0  0  0  0  0  0  0  0  0  0  0
   -0.8455    0.7923   -0.2830 H   0  0  0  0  0  0  0  0  0  0  0  0
    1.1154    0.7913   -1.2124 C   0  0  0  0  0  0  0  0  0  0  0  0
    1.8595    0.5757   -0.4396 H   0  0  0  0  0  0  0  0  0  0  0  0
    1.4996    0.3941   -2.1577 H   0  0  0  0  0  0  0  0  0  0  0  0
    0.9463    2.3127   -1.2985 C   0  0  0  0  0  0  0  0  0  0  0  0
    0.2196    2.5546   -2.0806 H   0  0  0  0  0  0  0  0  0  0  0  0
    0.5633    2.6983   -0.3477 H   0  0  0  0  0  0  0  0  0  0  0  0
    2.2764    2.9915   -1.6102 C   0  0  0  0  0  0  0  0  0  0  0  0
    2.9958    2.7897   -0.8085 H   0  0  0  0  0  0  0  0  0  0  0  0
    2.6903    2.5983   -2.5454 H   0  0  0  0  0  0  0  0  0  0  0  0
    2.0473    4.4352   -1.7274 N   0  0  0  0  0  0  0  0  0  0  0  0
    2.9206    4.9345   -1.8961 H   0  0  0  0  0  0  0  0  0  0  0  0
    1.3637    4.6408   -2.4554 H   0  0  0  0  0  0  0  0  0  0  0  0
    0.4469   -0.9391    1.3578 C   0  0  0  0  0  0  0  0  0  0  0  0
    1.6419   -1.0049    1.6160 O   0  0  0  0  0  0  0  0  0  0  0  0
   -0.4263   -0.4683    2.3225 N   0  0  0  0  0  0  0  0  0  0  0  0
   -1.4144   -0.5186    2.0997 H   0  0  0  0  0  0  0  0  0  0  0  0
   -0.0280   -0.2371    3.7052 C   0  0  0  0  0  0  0  0  0  0  0  0
    0.7840    0.4963    3.7534 H   0  0  0  0  0  0  0  0  0  0  0  0
   -0.8735    0.1478    4.2832 H   0  0  0  0  0  0  0  0  0  0  0  0
    0.3122   -1.1708    4.1656 H   0  0  0  0  0  0  0  0  0  0  0  0
  1  2  1  0  0  0  0
  2  3  1  0  0  0  0
  2  4  1  0  0  0  0
  2  5  1  0  0  0  0
  5  6  2  0  0  0  0
  5  7  1  0  0  0  0
  7  8  1  0  0  0  0
  7  9  1  0  0  0  0
  9 10  1  0  0  0  0
  9 11  1  0  0  0  0
  9 26  1  0  0  0  0
 11 12  1  0  0  0  0
 11 13  1  0  0  0  0
 11 14  1  0  0  0  0
 14 15  1  0  0  0  0
 14 16  1  0  0  0  0
 14 17  1  0  0  0  0
 17 18  1  0  0  0  0
 17 19  1  0  0  0  0
 17 20  1  0  0  0  0
 20 21  1  0  0  0  0
 20 22  1  0  0  0  0
 20 23  1  0  0  0  0
 23 24  1  0  0  0  0
 23 25  1  0  0  0  0
 26 27  2  0  0  0  0
 26 28  1  0  0  0  0
 28 29  1  0  0  0  0
 28 30  1  0  0  0  0
 30 31  1  0  0  0  0
 30 32  1  0  0  0  0
 30 33  1  0  0  0  0
M  END
$$$$

  -OEChem-03222214063D

 33 32  0     1  0  0  0  0  0999 V2000
   -2.9143   -4.8412    0.6171 H   0  0  0  0  0  0  0  0  0  0  0  0
   -2.9203   -3.8412    0.1739 C   0  0  0  0  0  0  0  0  0  0  0  0
   -3.7049   -3.2499    0.6519 H   0  0  0  0  0  0  0  0  0  0  0  0
   -3.1382   -3.9314   -0.8929 H   0  0  0  0  0  0  0  0  0  0  0  0
   -1.5724   -3.1744    0.3737 C   0  0  0  0  0  0  0  0  0  0  0  0
   -0.6988   -3.7503    0.9959 O   0  0  0  0  0  0  0  0  0  0  0  0
   -1.3492   -1.9163   -0.1514 N   0  0  0  0  0  0  0  0  0  0  0  0
   -2.0914   -1.5204   -0.7199 H   0  0  0  0  0  0  0  0  0  0  0  0
   -0.0597   -1.2032   -0.0902 C   0  0  1  0  0  0  0  0  0  0  0  0
    0.6955   -1.8194   -0.5913 H   0  0  0  0  0  0  0  0  0  0  0  0
   -0.2329    0.1104   -0.8764 C   0  0  0  0  0  0  0  0  0  0  0  0
   -0.7605   -0.0874   -1.8152 H   0  0  0  0  0  0  0  0  0  0  0  0
   -0.8617    0.7870   -0.2877 H   0  0  0  0  0  0  0  0  0  0  0  0
    1.1075    0.7905   -1.2170 C   0  0  0  0  0  0  0  0  0  0  0  0
    1.9212    0.3602   -0.6248 H   0  0  0  0  0  0  0  0  0  0  0  0
    1.3467    0.6137   -2.2709 H   0  0  0  0  0  0  0  0  0  0  0  0
    1.0453    2.2969   -0.9366 C   0  0  0  0  0  0  0  0  0  0  0  0
    0.2620    2.7503   -1.5523 H   0  0  0  0  0  0  0  0  0  0  0  0
    0.7925    2.4672    0.1154 H   0  0  0  0  0  0  0  0  0  0  0  0
    2.3839    2.9635   -1.2392 C   0  0  0  0  0  0  0  0  0  0  0  0
    3.1600    2.5587   -0.5794 H   0  0  0  0  0  0  0  0  0  0  0  0
    2.6797    2.7639   -2.2751 H   0  0  0  0  0  0  0  0  0  0  0  0
    2.2452    4.4078   -1.0252 N   0  0  0  0  0  0  0  0  0  0  0  0
    3.1324    4.8893   -1.1721 H   0  0  0  0  0  0  0  0  0  0  0  0
    1.5150    4.7992   -1.6194 H   0  0  0  0  0  0  0  0  0  0  0  0
    0.4500   -0.9382    1.3472 C   0  0  0  0  0  0  0  0  0  0  0  0
    1.6469   -0.9981    1.5975 O   0  0  0  0  0  0  0  0  0  0  0  0
   -0.4188   -0.4647    2.3143 N   0  0  0  0  0  0  0  0  0  0  0  0
   -1.4083   -0.5160    2.0977 H   0  0  0  0  0  0  0  0  0  0  0  0
   -0.0100   -0.2143    3.6903 C   0  0  0  0  0  0  0  0  0  0  0  0
    0.7990    0.5231    3.7215 H   0  0  0  0  0  0  0  0  0  0  0  0
   -0.8518    0.1742    4.2709 H   0  0  0  0  0  0  0  0  0  0  0  0
    0.3389   -1.1404    4.1590 H   0  0  0  0  0  0  0  0  0  0  0  0
  1  2  1  0  0  0  0
  2  3  1  0  0  0  0
  2  4  1  0  0  0  0
  2  5  1  0  0  0  0
  5  6  2  0  0  0  0
  5  7  1  0  0  0  0
  7  8  1  0  0  0  0
  7  9  1  0  0  0  0
  9 10  1  0  0  0  0
  9 11  1  0  0  0  0
  9 26  1  0  0  0  0
 11 12  1  0  0  0  0
 11 13  1  0  0  0  0
 11 14  1  0  0  0  0
 14 15  1  0  0  0  0
 14 16  1  0  0  0  0
 14 17  1  0  0  0  0
 17 18  1  0  0  0  0
 17 19  1  0  0  0  0
 17 20  1  0  0  0  0
 20 21  1  0  0  0  0
 20 22  1  0  0  0  0
 20 23  1  0  0  0  0
 23 24  1  0  0  0  0
 23 25  1  0  0  0  0
 26 27  2  0  0  0  0
 26 28  1  0  0  0  0
 28 29  1  0  0  0  0
 28 30  1  0  0  0  0
 30 31  1  0  0  0  0
 30 32  1  0  0  0  0
 30 33  1  0  0  0  0
M  END
$$$$

  -OEChem-03222214063D

 33 32  0     1  0  0  0  0  0999 V2000
   -2.8981   -4.8588    0.6264 H   0  0  0  0  0  0  0  0  0  0  0  0
   -2.9122   -3.8651    0.1693 C   0  0  0  0  0  0  0  0  0  0  0  0
   -3.7077   -3.2761    0.6322 H   0  0  0  0  0  0  0  0  0  0  0  0
   -3.1202   -3.9732   -0.8978 H   0  0  0  0  0  0  0  0  0  0  0  0
   -1.5734   -3.1802    0.3706 C   0  0  0  0  0  0  0  0  0  0  0  0
   -0.6917   -3.7468    0.9899 O   0  0  0  0  0  0  0  0  0  0  0  0
   -1.3649   -1.9191   -0.1532 N   0  0  0  0  0  0  0  0  0  0  0  0
   -2.1142   -1.5269   -0.7150 H   0  0  0  0  0  0  0  0  0  0  0  0
   -0.0795   -1.1987   -0.1004 C   0  0  1  0  0  0  0  0  0  0  0  0
    0.6711   -1.8141   -0.6094 H   0  0  0  0  0  0  0  0  0  0  0  0
   -0.2570    0.1171   -0.8803 C   0  0  0  0  0  0  0  0  0  0  0  0
   -0.7727   -0.0941   -1.8226 H   0  0  0  0  0  0  0  0  0  0  0  0
   -0.8971    0.7963   -0.3070 H   0  0  0  0  0  0  0  0  0  0  0  0
    1.0861    0.7927   -1.2196 C   0  0  0  0  0  0  0  0  0  0  0  0
    1.9262    0.1868   -0.8641 H   0  0  0  0  0  0  0  0  0  0  0  0
    1.1840    0.8729   -2.3074 H   0  0  0  0  0  0  0  0  0  0  0  0
    1.1695    2.1927   -0.5990 C   0  0  0  0  0  0  0  0  0  0  0  0
    0.3765    2.8237   -1.0130 H   0  0  0  0  0  0  0  0  0  0  0  0
    1.0208    2.1261    0.4842 H   0  0  0  0  0  0  0  0  0  0  0  0
    2.5284    2.8291   -0.8745 C   0  0  0  0  0  0  0  0  0  0  0  0
    3.3178    2.2468   -0.3853 H   0  0  0  0  0  0  0  0  0  0  0  0
    2.7297    2.8376   -1.9515 H   0  0  0  0  0  0  0  0  0  0  0  0
    2.5195    4.2011   -0.3557 N   0  0  0  0  0  0  0  0  0  0  0  0
    3.4284    4.6475   -0.4780 H   0  0  0  0  0  0  0  0  0  0  0  0
    1.7800    4.7533   -0.7886 H   0  0  0  0  0  0  0  0  0  0  0  0
    0.4511   -0.9290    1.3277 C   0  0  0  0  0  0  0  0  0  0  0  0
    1.6542   -0.9625    1.5519 O   0  0  0  0  0  0  0  0  0  0  0  0
   -0.4054   -0.4598    2.3076 N   0  0  0  0  0  0  0  0  0  0  0  0
   -1.3982   -0.5270    2.1122 H   0  0  0  0  0  0  0  0  0  0  0  0
    0.0291   -0.1670    3.6673 C   0  0  0  0  0  0  0  0  0  0  0  0
    0.8213    0.5894    3.6620 H   0  0  0  0  0  0  0  0  0  0  0  0
   -0.8082    0.2163    4.2579 H   0  0  0  0  0  0  0  0  0  0  0  0
    0.4102   -1.0729    4.1505 H   0  0  0  0  0  0  0  0  0  0  0  0
  1  2  1  0  0  0  0
  2  3  1  0  0  0  0
  2  4  1  0  0  0  0
  2  5  1  0  0  0  0
  5  6  2  0  0  0  0
  5  7  1  0  0  0  0
  7  8  1  0  0  0  0
  7  9  1  0  0  0  0
  9 10  1  0  0  0  0
  9 11  1  0  0  0  0
  9 26  1  0  0  0  0
 11 12  1  0  0  0  0
 11 13  1  0  0  0  0
 11 14  1  0  0  0  0
 14 15  1  0  0  0  0
 14 16  1  0  0  0  0
 14 17  1  0  0  0  0
 17 18  1  0  0  0  0
 17 19  1  0  0  0  0
 17 20  1  0  0  0  0
 20 21  1  0  0  0  0
 20 22  1  0  0  0  0
 20 23  1  0  0  0  0
 23 24  1  0  0  0  0
 23 25  1  0  0  0  0
 26 27  2  0  0  0  0
 26 28  1  0  0  0  0
 28 29  1  0  0  0  0
 28 30  1  0  0  0  0
 30 31  1  0  0  0  0
 30 32  1  0  0  0  0
 30 33  1  0  0  0  0
M  END
$$$$

  -OEChem-03222214063D

 33 32  0     1  0  0  0  0  0999 V2000
   -2.9054   -4.8551    0.6108 H   0  0  0  0  0  0  0  0  0  0  0  0
   -2.9166   -3.8588    0.1597 C   0  0  0  0  0  0  0  0  0  0  0  0
   -3.7088   -3.2702    0.6281 H   0  0  0  0  0  0  0  0  0  0  0  0
   -3.1270   -3.9590   -0.9078 H   0  0  0  0  0  0  0  0  0  0  0  0
   -1.5750   -3.1801    0.3626 C   0  0  0  0  0  0  0  0  0  0  0  0
   -0.6925   -3.7556    0.9723 O   0  0  0  0  0  0  0  0  0  0  0  0
   -1.3646   -1.9148   -0.1500 N   0  0  0  0  0  0  0  0  0  0  0  0
   -2.1140   -1.5161   -0.7070 H   0  0  0  0  0  0  0  0  0  0  0  0
   -0.0788   -1.1949   -0.0898 C   0  0  1  0  0  0  0  0  0  0  0  0
    0.6705   -1.8130   -0.5972 H   0  0  0  0  0  0  0  0  0  0  0  0
   -0.2524    0.1170   -0.8790 C   0  0  0  0  0  0  0  0  0  0  0  0
   -0.7495   -0.1154   -1.8264 H   0  0  0  0  0  0  0  0  0  0  0  0
   -0.9063    0.8027   -0.3294 H   0  0  0  0  0  0  0  0  0  0  0  0
    1.0874    0.7987   -1.2148 C   0  0  0  0  0  0  0  0  0  0  0  0
    1.9155    0.0891   -1.1097 H   0  0  0  0  0  0  0  0  0  0  0  0
    1.0682    1.1251   -2.2598 H   0  0  0  0  0  0  0  0  0  0  0  0
    1.3308    2.0242   -0.3225 C   0  0  0  0  0  0  0  0  0  0  0  0
    0.5498    2.7685   -0.5074 H   0  0  0  0  0  0  0  0  0  0  0  0
    1.2807    1.7389    0.7330 H   0  0  0  0  0  0  0  0  0  0  0  0
    2.6985    2.6386   -0.6034 C   0  0  0  0  0  0  0  0  0  0  0  0
    3.4878    1.9354   -0.3143 H   0  0  0  0  0  0  0  0  0  0  0  0
    2.8051    2.8494   -1.6731 H   0  0  0  0  0  0  0  0  0  0  0  0
    2.8232    3.8812    0.1658 N   0  0  0  0  0  0  0  0  0  0  0  0
    3.7435    4.3024    0.0404 H   0  0  0  0  0  0  0  0  0  0  0  0
    2.0834    4.5395   -0.0757 H   0  0  0  0  0  0  0  0  0  0  0  0
    0.4559   -0.9339    1.3370 C   0  0  0  0  0  0  0  0  0  0  0  0
    1.6596   -0.9794    1.5557 O   0  0  0  0  0  0  0  0  0  0  0  0
   -0.3955   -0.4703    2.3239 N   0  0  0  0  0  0  0  0  0  0  0  0
   -1.3892   -0.5253    2.1300 H   0  0  0  0  0  0  0  0  0  0  0  0
    0.0455   -0.1847    3.6830 C   0  0  0  0  0  0  0  0  0  0  0  0
    0.8401    0.5689    3.6775 H   0  0  0  0  0  0  0  0  0  0  0  0
   -0.7883    0.1994    4.2780 H   0  0  0  0  0  0  0  0  0  0  0  0
    0.4249   -1.0940    4.1609 H   0  0  0  0  0  0  0  0  0  0  0  0
  1  2  1  0  0  0  0
  2  3  1  0  0  0  0
  2  4  1  0  0  0  0
  2  5  1  0  0  0  0
  5  6  2  0  0  0  0
  5  7  1  0  0  0  0
  7  8  1  0  0  0  0
  7  9  1  0  0  0  0
  9 10  1  0  0  0  0
  9 11  1  0  0  0  0
  9 26  1  0  0  0  0
 11 12  1  0  0  0  0
 11 13  1  0  0  0  0
 11 14  1  0  0  0  0
 14 15  1  0  0  0  0
 14 16  1  0  0  0  0
 14 17  1  0  0  0  0
 17 18  1  0  0  0  0
 17 19  1  0  0  0  0
 17 20  1  0  0  0  0
 20 21  1  0  0  0  0
 20 22  1  0  0  0  0
 20 23  1  0  0  0  0
 23 24  1  0  0  0  0
 23 25  1  0  0  0  0
 26 27  2  0  0  0  0
 26 28  1  0  0  0  0
 28 29  1  0  0  0  0
 28 30  1  0  0  0  0
 30 31  1  0  0  0  0
 30 32  1  0  0  0  0
 30 33  1  0  0  0  0
M  END
$$$$

  -OEChem-03222214063D

 33 32  0     1  0  0  0  0  0999 V2000
   -2.9719   -4.8094    0.5820 H   0  0  0  0  0  0  0  0  0  0  0  0
   -2.9526   -3.8048    0.1495 C   0  0  0  0  0  0  0  0  0  0  0  0
   -3.7239   -3.1999    0.6321 H   0  0  0  0  0  0  0  0  0  0  0  0
   -3.1699   -3.8785   -0.9187 H   0  0  0  0  0  0  0  0  0  0  0  0
   -1.5894   -3.1729    0.3602 C   0  0  0  0  0  0  0  0  0  0  0  0
   -0.7285   -3.7826    0.9673 O   0  0  0  0  0  0  0  0  0  0  0  0
   -1.3390   -1.9090   -0.1383 N   0  0  0  0  0  0  0  0  0  0  0  0
   -2.0737   -1.4825   -0.6940 H   0  0  0  0  0  0  0  0  0  0  0  0
   -0.0396   -1.2167   -0.0451 C   0  0  1  0  0  0  0  0  0  0  0  0
    0.7136   -1.8453   -0.5335 H   0  0  0  0  0  0  0  0  0  0  0  0
   -0.1872    0.0904   -0.8549 C   0  0  0  0  0  0  0  0  0  0  0  0
   -0.6692   -0.1573   -1.8064 H   0  0  0  0  0  0  0  0  0  0  0  0
   -0.8496    0.7837   -0.3261 H   0  0  0  0  0  0  0  0  0  0  0  0
    1.1406    0.7931   -1.1943 C   0  0  0  0  0  0  0  0  0  0  0  0
    1.9283    0.0460   -1.3405 H   0  0  0  0  0  0  0  0  0  0  0  0
    1.0158    1.3284   -2.1412 H   0  0  0  0  0  0  0  0  0  0  0  0
    1.5751    1.8068   -0.1231 C   0  0  0  0  0  0  0  0  0  0  0  0
    0.7963    2.5676   -0.0105 H   0  0  0  0  0  0  0  0  0  0  0  0
    1.7090    1.3212    0.8455 H   0  0  0  0  0  0  0  0  0  0  0  0
    2.8876    2.4791   -0.5161 C   0  0  0  0  0  0  0  0  0  0  0  0
    3.6948    1.7381   -0.5306 H   0  0  0  0  0  0  0  0  0  0  0  0
    2.8047    2.9120   -1.5191 H   0  0  0  0  0  0  0  0  0  0  0  0
    3.1892    3.5329    0.4582 N   0  0  0  0  0  0  0  0  0  0  0  0
    4.0785    3.9864    0.2502 H   0  0  0  0  0  0  0  0  0  0  0  0
    2.4332    4.2146    0.5101 H   0  0  0  0  0  0  0  0  0  0  0  0
    0.4505   -0.9865    1.4020 C   0  0  0  0  0  0  0  0  0  0  0  0
    1.6331   -1.1363    1.6795 O   0  0  0  0  0  0  0  0  0  0  0  0
   -0.4218   -0.5169    2.3676 N   0  0  0  0  0  0  0  0  0  0  0  0
   -1.4070   -0.5139    2.1281 H   0  0  0  0  0  0  0  0  0  0  0  0
   -0.0305   -0.3174    3.7570 C   0  0  0  0  0  0  0  0  0  0  0  0
    0.7975    0.3966    3.8226 H   0  0  0  0  0  0  0  0  0  0  0  0
   -0.8718    0.0772    4.3345 H   0  0  0  0  0  0  0  0  0  0  0  0
    0.2855   -1.2655    4.2048 H   0  0  0  0  0  0  0  0  0  0  0  0
  1  2  1  0  0  0  0
  2  3  1  0  0  0  0
  2  4  1  0  0  0  0
  2  5  1  0  0  0  0
  5  6  2  0  0  0  0
  5  7  1  0  0  0  0
  7  8  1  0  0  0  0
  7  9  1  0  0  0  0
  9 10  1  0  0  0  0
  9 11  1  0  0  0  0
  9 26  1  0  0  0  0
 11 12  1  0  0  0  0
 11 13  1  0  0  0  0
 11 14  1  0  0  0  0
 14 15  1  0  0  0  0
 14 16  1  0  0  0  0
 14 17  1  0  0  0  0
 17 18  1  0  0  0  0
 17 19  1  0  0  0  0
 17 20  1  0  0  0  0
 20 21  1  0  0  0  0
 20 22  1  0  0  0  0
 20 23  1  0  0  0  0
 23 24  1  0  0  0  0
 23 25  1  0  0  0  0
 26 27  2  0  0  0  0
 26 28  1  0  0  0  0
 28 29  1  0  0  0  0
 28 30  1  0  0  0  0
 30 31  1  0  0  0  0
 30 32  1  0  0  0  0
 30 33  1  0  0  0  0
M  END
$$$$

  -OEChem-03222214063D

 33 32  0     1  0  0  0  0  0999 V2000
   -3.1147   -4.7161    0.5927 H   0  0  0  0  0  0  0  0  0  0  0  0
   -3.0281   -3.7236    0.1410 C   0  0  0  0  0  0  0  0  0  0  0  0
   -3.7904   -3.0725    0.5751 H   0  0  0  0  0  0  0  0  0  0  0  0
   -3.2011   -3.8118   -0.9342 H   0  0  0  0  0  0  0  0  0  0  0  0
   -1.6469   -3.1513    0.3994 C   0  0  0  0  0  0  0  0  0  0  0  0
   -0.8423   -3.7911    1.0505 O   0  0  0  0  0  0  0  0  0  0  0  0
   -1.3157   -1.9130   -0.1168 N   0  0  0  0  0  0  0  0  0  0  0  0
   -2.0074   -1.4690   -0.7123 H   0  0  0  0  0  0  0  0  0  0  0  0
    0.0142   -1.2826    0.0008 C   0  0  1  0  0  0  0  0  0  0  0  0
    0.7595   -1.9424   -0.4575 H   0  0  0  0  0  0  0  0  0  0  0  0
   -0.0808    0.0186   -0.8299 C   0  0  0  0  0  0  0  0  0  0  0  0
   -0.5688   -0.2243   -1.7796 H   0  0  0  0  0  0  0  0  0  0  0  0
   -0.7243    0.7349   -0.3086 H   0  0  0  0  0  0  0  0  0  0  0  0
    1.2505    0.7073   -1.1869 C   0  0  0  0  0  0  0  0  0  0  0  0
    1.9510   -0.0338   -1.5864 H   0  0  0  0  0  0  0  0  0  0  0  0
    1.0435    1.4267   -1.9862 H   0  0  0  0  0  0  0  0  0  0  0  0
    1.9145    1.4576   -0.0224 C   0  0  0  0  0  0  0  0  0  0  0  0
    1.1654    2.0524    0.5094 H   0  0  0  0  0  0  0  0  0  0  0  0
    2.3561    0.7531    0.6845 H   0  0  0  0  0  0  0  0  0  0  0  0
    3.0193    2.3783   -0.5353 C   0  0  0  0  0  0  0  0  0  0  0  0
    3.7935    1.7883   -1.0387 H   0  0  0  0  0  0  0  0  0  0  0  0
    2.6094    3.0910   -1.2592 H   0  0  0  0  0  0  0  0  0  0  0  0
    3.6002    3.0995    0.6010 N   0  0  0  0  0  0  0  0  0  0  0  0
    4.3326    3.7419    0.3003 H   0  0  0  0  0  0  0  0  0  0  0  0
    2.8819    3.5850    1.1373 H   0  0  0  0  0  0  0  0  0  0  0  0
    0.4497   -1.0541    1.4676 C   0  0  0  0  0  0  0  0  0  0  0  0
    1.5845   -1.3356    1.8280 O   0  0  0  0  0  0  0  0  0  0  0  0
   -0.4416   -0.5262    2.3854 N   0  0  0  0  0  0  0  0  0  0  0  0
   -1.4076   -0.4541    2.0866 H   0  0  0  0  0  0  0  0  0  0  0  0
   -0.1326   -0.4070    3.8048 C   0  0  0  0  0  0  0  0  0  0  0  0
    0.7694    0.1966    3.9521 H   0  0  0  0  0  0  0  0  0  0  0  0
   -0.9594    0.0767    4.3333 H   0  0  0  0  0  0  0  0  0  0  0  0
    0.0310   -1.3969    4.2440 H   0  0  0  0  0  0  0  0  0  0  0  0
  1  2  1  0  0  0  0
  2  3  1  0  0  0  0
  2  4  1  0  0  0  0
  2  5  1  0  0  0  0
  5  6  2  0  0  0  0
  5  7  1  0  0  0  0
  7  8  1  0  0  0  0
  7  9  1  0  0  0  0
  9 10  1  0  0  0  0
  9 11  1  0  0  0  0
  9 26  1  0  0  0  0
 11 12  1  0  0  0  0
 11 13  1  0  0  0  0
 11 14  1  0  0  0  0
 14 15  1  0  0  0  0
 14 16  1  0  0  0  0
 14 17  1  0  0  0  0
 17 18  1  0  0  0  0
 17 19  1  0  0  0  0
 17 20  1  0  0  0  0
 20 21  1  0  0  0  0
 20 22  1  0  0  0  0
 20 23  1  0  0  0  0
 23 24  1  0  0  0  0
 23 25  1  0  0  0  0
 26 27  2  0  0  0  0
 26 28  1  0  0  0  0
 28 29  1  0  0  0  0
 28 30  1  0  0  0  0
 30 31  1  0  0  0  0
 30 32  1  0  0  0  0
 30 33  1  0  0  0  0
M  END
$$$$

  -OEChem-03222214063D

 33 32  0     1  0  0  0  0  0999 V2000
   -3.1623   -4.6871    0.6341 H   0  0  0  0  0  0  0  0  0  0  0  0
   -3.0592   -3.6988    0.1769 C   0  0  0  0  0  0  0  0  0  0  0  0
   -3.8068   -3.0308    0.6109 H   0  0  0  0  0  0  0  0  0  0  0  0
   -3.2382   -3.7891   -0.8972 H   0  0  0  0  0  0  0  0  0  0  0  0
   -1.6665   -3.1519    0.4278 C   0  0  0  0  0  0  0  0  0  0  0  0
   -0.8768   -3.7985    1.0904 O   0  0  0  0  0  0  0  0  0  0  0  0
   -1.3089   -1.9293   -0.1086 N   0  0  0  0  0  0  0  0  0  0  0  0
   -1.9903   -1.4824   -0.7139 H   0  0  0  0  0  0  0  0  0  0  0  0
    0.0322   -1.3204    0.0037 C   0  0  1  0  0  0  0  0  0  0  0  0
    0.7741   -1.9911   -0.4436 H   0  0  0  0  0  0  0  0  0  0  0  0
   -0.0521   -0.0211   -0.8339 C   0  0  0  0  0  0  0  0  0  0  0  0
   -0.5654   -0.2505   -1.7737 H   0  0  0  0  0  0  0  0  0  0  0  0
   -0.6724    0.7016   -0.2935 H   0  0  0  0  0  0  0  0  0  0  0  0
    1.2727    0.6688   -1.2168 C   0  0  0  0  0  0  0  0  0  0  0  0
    1.8576   -0.0088   -1.8476 H   0  0  0  0  0  0  0  0  0  0  0  0
    1.0198    1.5436   -1.8251 H   0  0  0  0  0  0  0  0  0  0  0  0
    2.1527    1.1230   -0.0450 C   0  0  0  0  0  0  0  0  0  0  0  0
    1.5312    1.5617    0.7422 H   0  0  0  0  0  0  0  0  0  0  0  0
    2.6867    0.2648    0.3706 H   0  0  0  0  0  0  0  0  0  0  0  0
    3.1802    2.1537   -0.5075 C   0  0  0  0  0  0  0  0  0  0  0  0
    3.7932    1.7381   -1.3152 H   0  0  0  0  0  0  0  0  0  0  0  0
    2.6697    3.0442   -0.8901 H   0  0  0  0  0  0  0  0  0  0  0  0
    4.0326    2.5147    0.6285 N   0  0  0  0  0  0  0  0  0  0  0  0
    4.6806    3.2640    0.3878 H   0  0  0  0  0  0  0  0  0  0  0  0
    3.4747    2.7578    1.4470 H   0  0  0  0  0  0  0  0  0  0  0  0
    0.4429   -1.0826    1.4786 C   0  0  0  0  0  0  0  0  0  0  0  0
    1.5586   -1.3870    1.8771 O   0  0  0  0  0  0  0  0  0  0  0  0
   -0.4609   -0.5284    2.3688 N   0  0  0  0  0  0  0  0  0  0  0  0
   -1.4186   -0.4490    2.0456 H   0  0  0  0  0  0  0  0  0  0  0  0
   -0.1903   -0.4169    3.7966 C   0  0  0  0  0  0  0  0  0  0  0  0
    0.7159    0.1730    3.9700 H   0  0  0  0  0  0  0  0  0  0  0  0
   -1.0243    0.0775    4.3033 H   0  0  0  0  0  0  0  0  0  0  0  0
   -0.0531   -1.4101    4.2371 H   0  0  0  0  0  0  0  0  0  0  0  0
  1  2  1  0  0  0  0
  2  3  1  0  0  0  0
  2  4  1  0  0  0  0
  2  5  1  0  0  0  0
  5  6  2  0  0  0  0
  5  7  1  0  0  0  0
  7  8  1  0  0  0  0
  7  9  1  0  0  0  0
  9 10  1  0  0  0  0
  9 11  1  0  0  0  0
  9 26  1  0  0  0  0
 11 12  1  0  0  0  0
 11 13  1  0  0  0  0
 11 14  1  0  0  0  0
 14 15  1  0  0  0  0
 14 16  1  0  0  0  0
 14 17  1  0  0  0  0
 17 18  1  0  0  0  0
 17 19  1  0  0  0  0
 17 20  1  0  0  0  0
 20 21  1  0  0  0  0
 20 22  1  0  0  0  0
 20 23  1  0  0  0  0
 23 24  1  0  0  0  0
 23 25  1  0  0  0  0
 26 27  2  0  0  0  0
 26 28  1  0  0  0  0
 28 29  1  0  0  0  0
 28 30  1  0  0  0  0
 30 31  1  0  0  0  0
 30 32  1  0  0  0  0
 30 33  1  0  0  0  0
M  END
$$$$

  -OEChem-03222214063D

 33 32  0     1  0  0  0  0  0999 V2000
   -3.1581   -4.7047    0.6452 H   0  0  0  0  0  0  0  0  0  0  0  0
   -3.0559   -3.7163    0.1880 C   0  0  0  0  0  0  0  0  0  0  0  0
   -3.8059   -3.0501    0.6206 H   0  0  0  0  0  0  0  0  0  0  0  0
   -3.2331   -3.8075   -0.8863 H   0  0  0  0  0  0  0  0  0  0  0  0
   -1.6650   -3.1658    0.4415 C   0  0  0  0  0  0  0  0  0  0  0  0
   -0.8787   -3.8060    1.1143 O   0  0  0  0  0  0  0  0  0  0  0  0
   -1.3088   -1.9445   -0.0992 N   0  0  0  0  0  0  0  0  0  0  0  0
   -1.9850   -1.5102   -0.7194 H   0  0  0  0  0  0  0  0  0  0  0  0
    0.0305   -1.3301    0.0120 C   0  0  1  0  0  0  0  0  0  0  0  0
    0.7801   -1.9927   -0.4349 H   0  0  0  0  0  0  0  0  0  0  0  0
   -0.0678   -0.0246   -0.8182 C   0  0  0  0  0  0  0  0  0  0  0  0
   -0.6025   -0.2401   -1.7493 H   0  0  0  0  0  0  0  0  0  0  0  0
   -0.6790    0.6861   -0.2520 H   0  0  0  0  0  0  0  0  0  0  0  0
    1.2388    0.6949   -1.2180 C   0  0  0  0  0  0  0  0  0  0  0  0
    1.6930    0.1428   -2.0478 H   0  0  0  0  0  0  0  0  0  0  0  0
    0.9676    1.6859   -1.5967 H   0  0  0  0  0  0  0  0  0  0  0  0
    2.3041    0.8552   -0.1288 C   0  0  0  0  0  0  0  0  0  0  0  0
    1.8461    1.2277    0.7927 H   0  0  0  0  0  0  0  0  0  0  0  0
    2.7669   -0.1148    0.0759 H   0  0  0  0  0  0  0  0  0  0  0  0
    3.3893    1.8325   -0.5748 C   0  0  0  0  0  0  0  0  0  0  0  0
    3.8137    1.5165   -1.5342 H   0  0  0  0  0  0  0  0  0  0  0  0
    2.9587    2.8315   -0.7042 H   0  0  0  0  0  0  0  0  0  0  0  0
    4.4406    1.8649    0.4450 N   0  0  0  0  0  0  0  0  0  0  0  0
    5.1183    2.6042    0.2625 H   0  0  0  0  0  0  0  0  0  0  0  0
    4.0436    1.9498    1.3814 H   0  0  0  0  0  0  0  0  0  0  0  0
    0.4230   -1.0908    1.4937 C   0  0  0  0  0  0  0  0  0  0  0  0
    1.5371   -1.3782    1.9094 O   0  0  0  0  0  0  0  0  0  0  0  0
   -0.4961   -0.5405    2.3709 N   0  0  0  0  0  0  0  0  0  0  0  0
   -1.4500   -0.4725    2.0342 H   0  0  0  0  0  0  0  0  0  0  0  0
   -0.2485   -0.4289    3.8029 C   0  0  0  0  0  0  0  0  0  0  0  0
    0.6416    0.1804    3.9919 H   0  0  0  0  0  0  0  0  0  0  0  0
   -1.1011    0.0441    4.2990 H   0  0  0  0  0  0  0  0  0  0  0  0
   -0.0962   -1.4206    4.2420 H   0  0  0  0  0  0  0  0  0  0  0  0
  1  2  1  0  0  0  0
  2  3  1  0  0  0  0
  2  4  1  0  0  0  0
  2  5  1  0  0  0  0
  5  6  2  0  0  0  0
  5  7  1  0  0  0  0
  7  8  1  0  0  0  0
  7  9  1  0  0  0  0
  9 10  1  0  0  0  0
  9 11  1  0  0  0  0
  9 26  1  0  0  0  0
 11 12  1  0  0  0  0
 11 13  1  0  0  0  0
 11 14  1  0  0  0  0
 14 15  1  0  0  0  0
 14 16  1  0  0  0  0
 14 17  1  0  0  0  0
 17 18  1  0  0  0  0
 17 19  1  0  0  0  0
 17 20  1  0  0  0  0
 20 21  1  0  0  0  0
 20 22  1  0  0  0  0
 20 23  1  0  0  0  0
 23 24  1  0  0  0  0
 23 25  1  0  0  0  0
 26 27  2  0  0  0  0
 26 28  1  0  0  0  0
 28 29  1  0  0  0  0
 28 30  1  0  0  0  0
 30 31  1  0  0  0  0
 30 32  1  0  0  0  0
 30 33  1  0  0  0  0
M  END
$$$$

  -OEChem-03222214063D

 33 32  0     1  0  0  0  0  0999 V2000
   -3.1303   -4.7366    0.6259 H   0  0  0  0  0  0  0  0  0  0  0  0
   -3.0393   -3.7441    0.1749 C   0  0  0  0  0  0  0  0  0  0  0  0
   -3.8084   -3.0940    0.5986 H   0  0  0  0  0  0  0  0  0  0  0  0
   -3.1980   -3.8332   -0.9025 H   0  0  0  0  0  0  0  0  0  0  0  0
   -1.6619   -3.1705    0.4510 C   0  0  0  0  0  0  0  0  0  0  0  0
   -0.8760   -3.7979    1.1361 O   0  0  0  0  0  0  0  0  0  0  0  0
   -1.3147   -1.9461   -0.0884 N   0  0  0  0  0  0  0  0  0  0  0  0
   -1.9877   -1.5237   -0.7202 H   0  0  0  0  0  0  0  0  0  0  0  0
    0.0188   -1.3204    0.0279 C   0  0  1  0  0  0  0  0  0  0  0  0
    0.7743   -1.9779   -0.4163 H   0  0  0  0  0  0  0  0  0  0  0  0
   -0.0870   -0.0144   -0.8013 C   0  0  0  0  0  0  0  0  0  0  0  0
   -0.6272   -0.2286   -1.7296 H   0  0  0  0  0  0  0  0  0  0  0  0
   -0.7017    0.6877   -0.2282 H   0  0  0  0  0  0  0  0  0  0  0  0
    1.2095    0.7274   -1.2034 C   0  0  0  0  0  0  0  0  0  0  0  0
    1.5235    0.3367   -2.1772 H   0  0  0  0  0  0  0  0  0  0  0  0
    0.9667    1.7861   -1.3420 H   0  0  0  0  0  0  0  0  0  0  0  0
    2.4120    0.6104   -0.2624 C   0  0  0  0  0  0  0  0  0  0  0  0
    2.1317    0.9430    0.7416 H   0  0  0  0  0  0  0  0  0  0  0  0
    2.7398   -0.4328   -0.2099 H   0  0  0  0  0  0  0  0  0  0  0  0
    3.5731    1.4698   -0.7562 C   0  0  0  0  0  0  0  0  0  0  0  0
    3.8218    1.2166   -1.7927 H   0  0  0  0  0  0  0  0  0  0  0  0
    3.2921    2.5280   -0.7215 H   0  0  0  0  0  0  0  0  0  0  0  0
    4.7326    1.2247    0.1049 N   0  0  0  0  0  0  0  0  0  0  0  0
    5.4837    1.8888   -0.0785 H   0  0  0  0  0  0  0  0  0  0  0  0
    4.4662    1.2305    1.0906 H   0  0  0  0  0  0  0  0  0  0  0  0
    0.4023   -1.0787    1.5124 C   0  0  0  0  0  0  0  0  0  0  0  0
    1.5180   -1.3508    1.9349 O   0  0  0  0  0  0  0  0  0  0  0  0
   -0.5271   -0.5369    2.3841 N   0  0  0  0  0  0  0  0  0  0  0  0
   -1.4800   -0.4826    2.0419 H   0  0  0  0  0  0  0  0  0  0  0  0
   -0.2925   -0.4328    3.8190 C   0  0  0  0  0  0  0  0  0  0  0  0
    0.5890    0.1851    4.0196 H   0  0  0  0  0  0  0  0  0  0  0  0
   -1.1545    0.0273    4.3114 H   0  0  0  0  0  0  0  0  0  0  0  0
   -0.1327   -1.4257    4.2529 H   0  0  0  0  0  0  0  0  0  0  0  0
  1  2  1  0  0  0  0
  2  3  1  0  0  0  0
  2  4  1  0  0  0  0
  2  5  1  0  0  0  0
  5  6  2  0  0  0  0
  5  7  1  0  0  0  0
  7  8  1  0  0  0  0
  7  9  1  0  0  0  0
  9 10  1  0  0  0  0
  9 11  1  0  0  0  0
  9 26  1  0  0  0  0
 11 12  1  0  0  0  0
 11 13  1  0  0  0  0
 11 14  1  0  0  0  0
 14 15  1  0  0  0  0
 14 16  1  0  0  0  0
 14 17  1  0  0  0  0
 17 18  1  0  0  0  0
 17 19  1  0  0  0  0
 17 20  1  0  0  0  0
 20 21  1  0  0  0  0
 20 22  1  0  0  0  0
 20 23  1  0  0  0  0
 23 24  1  0  0  0  0
 23 25  1  0  0  0  0
 26 27  2  0  0  0  0
 26 28  1  0  0  0  0
 28 29  1  0  0  0  0
 28 30  1  0  0  0  0
 30 31  1  0  0  0  0
 30 32  1  0  0  0  0
 30 33  1  0  0  0  0
M  END
$$$$

  -OEChem-03222214063D

 33 32  0     1  0  0  0  0  0999 V2000
   -3.1305   -4.7523    0.6046 H   0  0  0  0  0  0  0  0  0  0  0  0
   -3.0418   -3.7556    0.1626 C   0  0  0  0  0  0  0  0  0  0  0  0
   -3.8143   -3.1118    0.5895 H   0  0  0  0  0  0  0  0  0  0  0  0
   -3.1965   -3.8361   -0.9160 H   0  0  0  0  0  0  0  0  0  0  0  0
   -1.6683   -3.1783    0.4493 C   0  0  0  0  0  0  0  0  0  0  0  0
   -0.8860   -3.8025    1.1415 O   0  0  0  0  0  0  0  0  0  0  0  0
   -1.3210   -1.9525   -0.0868 N   0  0  0  0  0  0  0  0  0  0  0  0
   -1.9920   -1.5306   -0.7212 H   0  0  0  0  0  0  0  0  0  0  0  0
    0.0090   -1.3215    0.0409 C   0  0  1  0  0  0  0  0  0  0  0  0
    0.7640   -1.9825   -0.3980 H   0  0  0  0  0  0  0  0  0  0  0  0
   -0.0901   -0.0144   -0.7870 C   0  0  0  0  0  0  0  0  0  0  0  0
   -0.6174   -0.2354   -1.7212 H   0  0  0  0  0  0  0  0  0  0  0  0
   -0.7199    0.6831   -0.2249 H   0  0  0  0  0  0  0  0  0  0  0  0
    1.2043    0.7404   -1.1805 C   0  0  0  0  0  0  0  0  0  0  0  0
    1.3723    0.5589   -2.2474 H   0  0  0  0  0  0  0  0  0  0  0  0
    1.0272    1.8145   -1.0612 H   0  0  0  0  0  0  0  0  0  0  0  0
    2.5006    0.3707   -0.4502 C   0  0  0  0  0  0  0  0  0  0  0  0
    2.4102    0.6180    0.6107 H   0  0  0  0  0  0  0  0  0  0  0  0
    2.6953   -0.7020   -0.5470 H   0  0  0  0  0  0  0  0  0  0  0  0
    3.6847    1.1445   -1.0244 C   0  0  0  0  0  0  0  0  0  0  0  0
    3.7604    0.9825   -2.1055 H   0  0  0  0  0  0  0  0  0  0  0  0
    3.5471    2.2172   -0.8487 H   0  0  0  0  0  0  0  0  0  0  0  0
    4.9069    0.6752   -0.3675 N   0  0  0  0  0  0  0  0  0  0  0  0
    5.7052    1.2660   -0.5965 H   0  0  0  0  0  0  0  0  0  0  0  0
    4.7762    0.6084    0.6431 H   0  0  0  0  0  0  0  0  0  0  0  0
    0.3888   -1.0740    1.5248 C   0  0  0  0  0  0  0  0  0  0  0  0
    1.5062   -1.3367    1.9490 O   0  0  0  0  0  0  0  0  0  0  0  0
   -0.5451   -0.5333    2.3920 N   0  0  0  0  0  0  0  0  0  0  0  0
   -1.4977   -0.4875    2.0480 H   0  0  0  0  0  0  0  0  0  0  0  0
   -0.3150   -0.4224    3.8268 C   0  0  0  0  0  0  0  0  0  0  0  0
    0.5564    0.2097    4.0277 H   0  0  0  0  0  0  0  0  0  0  0  0
   -1.1853    0.0248    4.3163 H   0  0  0  0  0  0  0  0  0  0  0  0
   -0.1408   -1.4119    4.2629 H   0  0  0  0  0  0  0  0  0  0  0  0
  1  2  1  0  0  0  0
  2  3  1  0  0  0  0
  2  4  1  0  0  0  0
  2  5  1  0  0  0  0
  5  6  2  0  0  0  0
  5  7  1  0  0  0  0
  7  8  1  0  0  0  0
  7  9  1  0  0  0  0
  9 10  1  0  0  0  0
  9 11  1  0  0  0  0
  9 26  1  0  0  0  0
 11 12  1  0  0  0  0
 11 13  1  0  0  0  0
 11 14  1  0  0  0  0
 14 15  1  0  0  0  0
 14 16  1  0  0  0  0
 14 17  1  0  0  0  0
 17 18  1  0  0  0  0
 17 19  1  0  0  0  0
 17 20  1  0  0  0  0
 20 21  1  0  0  0  0
 20 22  1  0  0  0  0
 20 23  1  0  0  0  0
 23 24  1  0  0  0  0
 23 25  1  0  0  0  0
 26 27  2  0  0  0  0
 26 28  1  0  0  0  0
 28 29  1  0  0  0  0
 28 30  1  0  0  0  0
 30 31  1  0  0  0  0
 30 32  1  0  0  0  0
 30 33  1  0  0  0  0
M  END
$$$$

  -OEChem-03222214063D

 33 32  0     1  0  0  0  0  0999 V2000
   -3.1422   -4.7483    0.6258 H   0  0  0  0  0  0  0  0  0  0  0  0
   -3.0502   -3.7584    0.1695 C   0  0  0  0  0  0  0  0  0  0  0  0
   -3.8293   -3.1097    0.5768 H   0  0  0  0  0  0  0  0  0  0  0  0
   -3.1917   -3.8556   -0.9096 H   0  0  0  0  0  0  0  0  0  0  0  0
   -1.6811   -3.1742    0.4635 C   0  0  0  0  0  0  0  0  0  0  0  0
   -0.9058   -3.7875    1.1732 O   0  0  0  0  0  0  0  0  0  0  0  0
   -1.3303   -1.9536   -0.0823 N   0  0  0  0  0  0  0  0  0  0  0  0
   -1.9908   -1.5454   -0.7363 H   0  0  0  0  0  0  0  0  0  0  0  0
    0.0027   -1.3286    0.0409 C   0  0  1  0  0  0  0  0  0  0  0  0
    0.7506   -1.9973   -0.3974 H   0  0  0  0  0  0  0  0  0  0  0  0
   -0.0903   -0.0155   -0.7774 C   0  0  0  0  0  0  0  0  0  0  0  0
   -0.6054   -0.2464   -1.7158 H   0  0  0  0  0  0  0  0  0  0  0  0
   -0.7305    0.6839   -0.2295 H   0  0  0  0  0  0  0  0  0  0  0  0
    1.2070    0.7355   -1.1725 C   0  0  0  0  0  0  0  0  0  0  0  0
    1.2192    0.8211   -2.2644 H   0  0  0  0  0  0  0  0  0  0  0  0
    1.1468    1.7533   -0.7726 H   0  0  0  0  0  0  0  0  0  0  0  0
    2.5468    0.1319   -0.7289 C   0  0  0  0  0  0  0  0  0  0  0  0
    2.6354    0.1789    0.3577 H   0  0  0  0  0  0  0  0  0  0  0  0
    2.6114   -0.9143   -1.0430 H   0  0  0  0  0  0  0  0  0  0  0  0
    3.7169    0.9031   -1.3332 C   0  0  0  0  0  0  0  0  0  0  0  0
    3.6381    0.9246   -2.4258 H   0  0  0  0  0  0  0  0  0  0  0  0
    3.7084    1.9365   -0.9695 H   0  0  0  0  0  0  0  0  0  0  0  0
    4.9603    0.2362   -0.9390 N   0  0  0  0  0  0  0  0  0  0  0  0
    5.7785    0.7786   -1.2135 H   0  0  0  0  0  0  0  0  0  0  0  0
    4.9681    0.0429    0.0639 H   0  0  0  0  0  0  0  0  0  0  0  0
    0.3879   -1.0712    1.5212 C   0  0  0  0  0  0  0  0  0  0  0  0
    1.5060   -1.3307    1.9449 O   0  0  0  0  0  0  0  0  0  0  0  0
   -0.5421   -0.5187    2.3852 N   0  0  0  0  0  0  0  0  0  0  0  0
   -1.4956   -0.4761    2.0428 H   0  0  0  0  0  0  0  0  0  0  0  0
   -0.3084   -0.3954    3.8185 C   0  0  0  0  0  0  0  0  0  0  0  0
    0.5750    0.2224    4.0118 H   0  0  0  0  0  0  0  0  0  0  0  0
   -1.1695    0.0746    4.3028 H   0  0  0  0  0  0  0  0  0  0  0  0
   -0.1529   -1.3830    4.2659 H   0  0  0  0  0  0  0  0  0  0  0  0
  1  2  1  0  0  0  0
  2  3  1  0  0  0  0
  2  4  1  0  0  0  0
  2  5  1  0  0  0  0
  5  6  2  0  0  0  0
  5  7  1  0  0  0  0
  7  8  1  0  0  0  0
  7  9  1  0  0  0  0
  9 10  1  0  0  0  0
  9 11  1  0  0  0  0
  9 26  1  0  0  0  0
 11 12  1  0  0  0  0
 11 13  1  0  0  0  0
 11 14  1  0  0  0  0
 14 15  1  0  0  0  0
 14 16  1  0  0  0  0
 14 17  1  0  0  0  0
 17 18  1  0  0  0  0
 17 19  1  0  0  0  0
 17 20  1  0  0  0  0
 20 21  1  0  0  0  0
 20 22  1  0  0  0  0
 20 23  1  0  0  0  0
 23 24  1  0  0  0  0
 23 25  1  0  0  0  0
 26 27  2  0  0  0  0
 26 28  1  0  0  0  0
 28 29  1  0  0  0  0
 28 30  1  0  0  0  0
 30 31  1  0  0  0  0
 30 32  1  0  0  0  0
 30 33  1  0  0  0  0
M  END
$$$$

  -OEChem-03222214063D

 33 32  0     1  0  0  0  0  0999 V2000
   -3.1423   -4.7498    0.6679 H   0  0  0  0  0  0  0  0  0  0  0  0
   -3.0539   -3.7652    0.2000 C   0  0  0  0  0  0  0  0  0  0  0  0
   -3.8241   -3.1094    0.6127 H   0  0  0  0  0  0  0  0  0  0  0  0
   -3.2123   -3.8731   -0.8756 H   0  0  0  0  0  0  0  0  0  0  0  0
   -1.6788   -3.1822    0.4666 C   0  0  0  0  0  0  0  0  0  0  0  0
   -0.8927   -3.7901    1.1691 O   0  0  0  0  0  0  0  0  0  0  0  0
   -1.3370   -1.9647   -0.0912 N   0  0  0  0  0  0  0  0  0  0  0  0
   -2.0069   -1.5606   -0.7382 H   0  0  0  0  0  0  0  0  0  0  0  0
   -0.0036   -1.3372    0.0102 C   0  0  1  0  0  0  0  0  0  0  0  0
    0.7396   -2.0040   -0.4390 H   0  0  0  0  0  0  0  0  0  0  0  0
   -0.1047   -0.0134   -0.7866 C   0  0  0  0  0  0  0  0  0  0  0  0
   -0.6168   -0.2449   -1.7266 H   0  0  0  0  0  0  0  0  0  0  0  0
   -0.7450    0.6867   -0.2399 H   0  0  0  0  0  0  0  0  0  0  0  0
    1.1969    0.7232   -1.1854 C   0  0  0  0  0  0  0  0  0  0  0  0
    1.0811    1.0936   -2.2095 H   0  0  0  0  0  0  0  0  0  0  0  0
    1.2973    1.5984   -0.5346 H   0  0  0  0  0  0  0  0  0  0  0  0
    2.5069   -0.0724   -1.0867 C   0  0  0  0  0  0  0  0  0  0  0  0
    2.7144   -0.3501   -0.0536 H   0  0  0  0  0  0  0  0  0  0  0  0
    2.4258   -0.9879   -1.6812 H   0  0  0  0  0  0  0  0  0  0  0  0
    3.6810    0.7544   -1.6022 C   0  0  0  0  0  0  0  0  0  0  0  0
    3.4968    1.0788   -2.6323 H   0  0  0  0  0  0  0  0  0  0  0  0
    3.8089    1.6476   -0.9804 H   0  0  0  0  0  0  0  0  0  0  0  0
    4.8867   -0.0762   -1.5494 N   0  0  0  0  0  0  0  0  0  0  0  0
    5.7178    0.4597   -1.7972 H   0  0  0  0  0  0  0  0  0  0  0  0
    4.9909   -0.5052   -0.6283 H   0  0  0  0  0  0  0  0  0  0  0  0
    0.4028   -1.0694    1.4839 C   0  0  0  0  0  0  0  0  0  0  0  0
    1.5405   -1.2749    1.8843 O   0  0  0  0  0  0  0  0  0  0  0  0
   -0.5181   -0.5128    2.3551 N   0  0  0  0  0  0  0  0  0  0  0  0
   -1.4802   -0.4970    2.0351 H   0  0  0  0  0  0  0  0  0  0  0  0
   -0.2507   -0.3280    3.7756 C   0  0  0  0  0  0  0  0  0  0  0  0
    0.6197    0.3205    3.9207 H   0  0  0  0  0  0  0  0  0  0  0  0
   -1.1118    0.1369    4.2647 H   0  0  0  0  0  0  0  0  0  0  0  0
   -0.0560   -1.2926    4.2563 H   0  0  0  0  0  0  0  0  0  0  0  0
  1  2  1  0  0  0  0
  2  3  1  0  0  0  0
  2  4  1  0  0  0  0
  2  5  1  0  0  0  0
  5  6  2  0  0  0  0
  5  7  1  0  0  0  0
  7  8  1  0  0  0  0
  7  9  1  0  0  0  0
  9 10  1  0  0  0  0
  9 11  1  0  0  0  0
  9 26  1  0  0  0  0
 11 12  1  0  0  0  0
 11 13  1  0  0  0  0
 11 14  1  0  0  0  0
 14 15  1  0  0  0  0
 14 16  1  0  0  0  0
 14 17  1  0  0  0  0
 17 18  1  0  0  0  0
 17 19  1  0  0  0  0
 17 20  1  0  0  0  0
 20 21  1  0  0  0  0
 20 22  1  0  0  0  0
 20 23  1  0  0  0  0
 23 24  1  0  0  0  0
 23 25  1  0  0  0  0
 26 27  2  0  0  0  0
 26 28  1  0  0  0  0
 28 29  1  0  0  0  0
 28 30  1  0  0  0  0
 30 31  1  0  0  0  0
 30 32  1  0  0  0  0
 30 33  1  0  0  0  0
M  END
$$$$

  -OEChem-03222214063D

 33 32  0     1  0  0  0  0  0999 V2000
   -3.0756   -4.8073    0.6374 H   0  0  0  0  0  0  0  0  0  0  0  0
   -3.0220   -3.8196    0.1704 C   0  0  0  0  0  0  0  0  0  0  0  0
   -3.8166   -3.1928    0.5821 H   0  0  0  0  0  0  0  0  0  0  0  0
   -3.1749   -3.9322   -0.9056 H   0  0  0  0  0  0  0  0  0  0  0  0
   -1.6692   -3.1880    0.4405 C   0  0  0  0  0  0  0  0  0  0  0  0
   -0.8619   -3.7684    1.1428 O   0  0  0  0  0  0  0  0  0  0  0  0
   -1.3699   -1.9556   -0.1082 N   0  0  0  0  0  0  0  0  0  0  0  0
   -2.0488   -1.5750   -0.7603 H   0  0  0  0  0  0  0  0  0  0  0  0
   -0.0477   -1.3043   -0.0264 C   0  0  1  0  0  0  0  0  0  0  0  0
    0.6846   -1.9667   -0.4982 H   0  0  0  0  0  0  0  0  0  0  0  0
   -0.1568    0.0259   -0.8059 C   0  0  0  0  0  0  0  0  0  0  0  0
   -0.6686   -0.1923   -1.7490 H   0  0  0  0  0  0  0  0  0  0  0  0
   -0.7894    0.7266   -0.2508 H   0  0  0  0  0  0  0  0  0  0  0  0
    1.1616    0.7374   -1.1844 C   0  0  0  0  0  0  0  0  0  0  0  0
    0.9841    1.3499   -2.0748 H   0  0  0  0  0  0  0  0  0  0  0  0
    1.4214    1.4176   -0.3661 H   0  0  0  0  0  0  0  0  0  0  0  0
    2.3735   -0.1774   -1.4252 C   0  0  0  0  0  0  0  0  0  0  0  0
    2.6358   -0.7237   -0.5172 H   0  0  0  0  0  0  0  0  0  0  0  0
    2.1289   -0.9078   -2.2034 H   0  0  0  0  0  0  0  0  0  0  0  0
    3.5865    0.6377   -1.8630 C   0  0  0  0  0  0  0  0  0  0  0  0
    3.3531    1.2112   -2.7669 H   0  0  0  0  0  0  0  0  0  0  0  0
    3.8656    1.3434   -1.0727 H   0  0  0  0  0  0  0  0  0  0  0  0
    4.6925   -0.2859   -2.1294 N   0  0  0  0  0  0  0  0  0  0  0  0
    5.5449    0.2189   -2.3704 H   0  0  0  0  0  0  0  0  0  0  0  0
    4.8495   -0.9010   -1.3294 H   0  0  0  0  0  0  0  0  0  0  0  0
    0.4165   -1.0365    1.4283 C   0  0  0  0  0  0  0  0  0  0  0  0
    1.5956   -1.1301    1.7429 O   0  0  0  0  0  0  0  0  0  0  0  0
   -0.4746   -0.5029    2.3428 N   0  0  0  0  0  0  0  0  0  0  0  0
   -1.4553   -0.5520    2.0888 H   0  0  0  0  0  0  0  0  0  0  0  0
   -0.1221   -0.2451    3.7333 C   0  0  0  0  0  0  0  0  0  0  0  0
    0.7162    0.4569    3.7930 H   0  0  0  0  0  0  0  0  0  0  0  0
   -0.9736    0.1906    4.2643 H   0  0  0  0  0  0  0  0  0  0  0  0
    0.1623   -1.1762    4.2346 H   0  0  0  0  0  0  0  0  0  0  0  0
  1  2  1  0  0  0  0
  2  3  1  0  0  0  0
  2  4  1  0  0  0  0
  2  5  1  0  0  0  0
  5  6  2  0  0  0  0
  5  7  1  0  0  0  0
  7  8  1  0  0  0  0
  7  9  1  0  0  0  0
  9 10  1  0  0  0  0
  9 11  1  0  0  0  0
  9 26  1  0  0  0  0
 11 12  1  0  0  0  0
 11 13  1  0  0  0  0
 11 14  1  0  0  0  0
 14 15  1  0  0  0  0
 14 16  1  0  0  0  0
 14 17  1  0  0  0  0
 17 18  1  0  0  0  0
 17 19  1  0  0  0  0
 17 20  1  0  0  0  0
 20 21  1  0  0  0  0
 20 22  1  0  0  0  0
 20 23  1  0  0  0  0
 23 24  1  0  0  0  0
 23 25  1  0  0  0  0
 26 27  2  0  0  0  0
 26 28  1  0  0  0  0
 28 29  1  0  0  0  0
 28 30  1  0  0  0  0
 30 31  1  0  0  0  0
 30 32  1  0  0  0  0
 30 33  1  0  0  0  0
M  END
$$$$

  -OEChem-03222214063D

 33 32  0     1  0  0  0  0  0999 V2000
   -3.0144   -4.8476    0.5758 H   0  0  0  0  0  0  0  0  0  0  0  0
   -2.9893   -3.8521    0.1233 C   0  0  0  0  0  0  0  0  0  0  0  0
   -3.8003   -3.2534    0.5449 H   0  0  0  0  0  0  0  0  0  0  0  0
   -3.1401   -3.9531   -0.9542 H   0  0  0  0  0  0  0  0  0  0  0  0
   -1.6544   -3.1869    0.4012 C   0  0  0  0  0  0  0  0  0  0  0  0
   -0.8296   -3.7533    1.0951 O   0  0  0  0  0  0  0  0  0  0  0  0
   -1.3912   -1.9372   -0.1257 N   0  0  0  0  0  0  0  0  0  0  0  0
   -2.0810   -1.5641   -0.7707 H   0  0  0  0  0  0  0  0  0  0  0  0
   -0.0828   -1.2611   -0.0439 C   0  0  1  0  0  0  0  0  0  0  0  0
    0.6443   -1.9201   -0.5270 H   0  0  0  0  0  0  0  0  0  0  0  0
   -0.1966    0.0645   -0.8265 C   0  0  0  0  0  0  0  0  0  0  0  0
   -0.7026   -0.1455   -1.7745 H   0  0  0  0  0  0  0  0  0  0  0  0
   -0.8255    0.7661   -0.2687 H   0  0  0  0  0  0  0  0  0  0  0  0
    1.1375    0.7563   -1.1726 C   0  0  0  0  0  0  0  0  0  0  0  0
    0.9360    1.5459   -1.9042 H   0  0  0  0  0  0  0  0  0  0  0  0
    1.5264    1.2374   -0.2687 H   0  0  0  0  0  0  0  0  0  0  0  0
    2.2222   -0.1830   -1.7220 C   0  0  0  0  0  0  0  0  0  0  0  0
    2.5384   -0.8910   -0.9504 H   0  0  0  0  0  0  0  0  0  0  0  0
    1.8216   -0.7519   -2.5673 H   0  0  0  0  0  0  0  0  0  0  0  0
    3.4431    0.6097   -2.1774 C   0  0  0  0  0  0  0  0  0  0  0  0
    3.1594    1.3363   -2.9469 H   0  0  0  0  0  0  0  0  0  0  0  0
    3.8685    1.1583   -1.3295 H   0  0  0  0  0  0  0  0  0  0  0  0
    4.4289   -0.3308   -2.7174 N   0  0  0  0  0  0  0  0  0  0  0  0
    5.2814    0.1514   -3.0011 H   0  0  0  0  0  0  0  0  0  0  0  0
    4.6370   -1.0643   -2.0385 H   0  0  0  0  0  0  0  0  0  0  0  0
    0.4248   -0.9980    1.3934 C   0  0  0  0  0  0  0  0  0  0  0  0
    1.6238   -1.0306    1.6398 O   0  0  0  0  0  0  0  0  0  0  0  0
   -0.4410   -0.4918    2.3466 N   0  0  0  0  0  0  0  0  0  0  0  0
   -1.4305   -0.5798    2.1411 H   0  0  0  0  0  0  0  0  0  0  0  0
   -0.0311   -0.2153    3.7176 C   0  0  0  0  0  0  0  0  0  0  0  0
    0.7825    0.5174    3.7343 H   0  0  0  0  0  0  0  0  0  0  0  0
   -0.8709    0.1908    4.2892 H   0  0  0  0  0  0  0  0  0  0  0  0
    0.3115   -1.1334    4.2064 H   0  0  0  0  0  0  0  0  0  0  0  0
  1  2  1  0  0  0  0
  2  3  1  0  0  0  0
  2  4  1  0  0  0  0
  2  5  1  0  0  0  0
  5  6  2  0  0  0  0
  5  7  1  0  0  0  0
  7  8  1  0  0  0  0
  7  9  1  0  0  0  0
  9 10  1  0  0  0  0
  9 11  1  0  0  0  0
  9 26  1  0  0  0  0
 11 12  1  0  0  0  0
 11 13  1  0  0  0  0
 11 14  1  0  0  0  0
 14 15  1  0  0  0  0
 14 16  1  0  0  0  0
 14 17  1  0  0  0  0
 17 18  1  0  0  0  0
 17 19  1  0  0  0  0
 17 20  1  0  0  0  0
 20 21  1  0  0  0  0
 20 22  1  0  0  0  0
 20 23  1  0  0  0  0
 23 24  1  0  0  0  0
 23 25  1  0  0  0  0
 26 27  2  0  0  0  0
 26 28  1  0  0  0  0
 28 29  1  0  0  0  0
 28 30  1  0  0  0  0
 30 31  1  0  0  0  0
 30 32  1  0  0  0  0
 30 33  1  0  0  0  0
M  END
$$$$

  -OEChem-03222214063D

 33 32  0     1  0  0  0  0  0999 V2000
   -2.9756   -4.8558    0.5664 H   0  0  0  0  0  0  0  0  0  0  0  0
   -2.9650   -3.8583    0.1177 C   0  0  0  0  0  0  0  0  0  0  0  0
   -3.7788   -3.2703    0.5486 H   0  0  0  0  0  0  0  0  0  0  0  0
   -3.1240   -3.9570   -0.9588 H   0  0  0  0  0  0  0  0  0  0  0  0
   -1.6343   -3.1807    0.3865 C   0  0  0  0  0  0  0  0  0  0  0  0
   -0.7952   -3.7449    1.0647 O   0  0  0  0  0  0  0  0  0  0  0  0
   -1.3886   -1.9245   -0.1335 N   0  0  0  0  0  0  0  0  0  0  0  0
   -2.0888   -1.5519   -0.7677 H   0  0  0  0  0  0  0  0  0  0  0  0
   -0.0865   -1.2361   -0.0572 C   0  0  1  0  0  0  0  0  0  0  0  0
    0.6454   -1.8853   -0.5457 H   0  0  0  0  0  0  0  0  0  0  0  0
   -0.2152    0.0867   -0.8420 C   0  0  0  0  0  0  0  0  0  0  0  0
   -0.7347   -0.1113   -1.7853 H   0  0  0  0  0  0  0  0  0  0  0  0
   -0.8323    0.7861   -0.2683 H   0  0  0  0  0  0  0  0  0  0  0  0
    1.1232    0.7691   -1.1807 C   0  0  0  0  0  0  0  0  0  0  0  0
    0.9054    1.6983   -1.7173 H   0  0  0  0  0  0  0  0  0  0  0  0
    1.6416    1.0402   -0.2548 H   0  0  0  0  0  0  0  0  0  0  0  0
    2.0513   -0.0986   -2.0435 C   0  0  0  0  0  0  0  0  0  0  0  0
    2.3779   -0.9782   -1.4815 H   0  0  0  0  0  0  0  0  0  0  0  0
    1.5144   -0.4405   -2.9342 H   0  0  0  0  0  0  0  0  0  0  0  0
    3.2853    0.6910   -2.4684 C   0  0  0  0  0  0  0  0  0  0  0  0
    2.9890    1.5802   -3.0359 H   0  0  0  0  0  0  0  0  0  0  0  0
    3.8405    1.0206   -1.5829 H   0  0  0  0  0  0  0  0  0  0  0  0
    4.1268   -0.1749   -3.2998 N   0  0  0  0  0  0  0  0  0  0  0  0
    4.9773    0.3076   -3.5896 H   0  0  0  0  0  0  0  0  0  0  0  0
    4.3521   -1.0403   -2.8077 H   0  0  0  0  0  0  0  0  0  0  0  0
    0.4320   -0.9774    1.3764 C   0  0  0  0  0  0  0  0  0  0  0  0
    1.6342   -1.0050    1.6076 O   0  0  0  0  0  0  0  0  0  0  0  0
   -0.4275   -0.4860    2.3429 N   0  0  0  0  0  0  0  0  0  0  0  0
   -1.4186   -0.5741    2.1454 H   0  0  0  0  0  0  0  0  0  0  0  0
   -0.0063   -0.2159    3.7118 C   0  0  0  0  0  0  0  0  0  0  0  0
    0.8017    0.5232    3.7253 H   0  0  0  0  0  0  0  0  0  0  0  0
   -0.8437    0.1796    4.2945 H   0  0  0  0  0  0  0  0  0  0  0  0
    0.3480   -1.1347    4.1910 H   0  0  0  0  0  0  0  0  0  0  0  0
  1  2  1  0  0  0  0
  2  3  1  0  0  0  0
  2  4  1  0  0  0  0
  2  5  1  0  0  0  0
  5  6  2  0  0  0  0
  5  7  1  0  0  0  0
  7  8  1  0  0  0  0
  7  9  1  0  0  0  0
  9 10  1  0  0  0  0
  9 11  1  0  0  0  0
  9 26  1  0  0  0  0
 11 12  1  0  0  0  0
 11 13  1  0  0  0  0
 11 14  1  0  0  0  0
 14 15  1  0  0  0  0
 14 16  1  0  0  0  0
 14 17  1  0  0  0  0
 17 18  1  0  0  0  0
 17 19  1  0  0  0  0
 17 20  1  0  0  0  0
 20 21  1  0  0  0  0
 20 22  1  0  0  0  0
 20 23  1  0  0  0  0
 23 24  1  0  0  0  0
 23 25  1  0  0  0  0
 26 27  2  0  0  0  0
 26 28  1  0  0  0  0
 28 29  1  0  0  0  0
 28 30  1  0  0  0  0
 30 31  1  0  0  0  0
 30 32  1  0  0  0  0
 30 33  1  0  0  0  0
M  END
$$$$

  -OEChem-03222214063D

 33 32  0     1  0  0  0  0  0999 V2000
   -2.9130   -4.8669    0.5707 H   0  0  0  0  0  0  0  0  0  0  0  0
   -2.9199   -3.8666    0.1281 C   0  0  0  0  0  0  0  0  0  0  0  0
   -3.7331   -3.2899    0.5753 H   0  0  0  0  0  0  0  0  0  0  0  0
   -3.0954   -3.9605   -0.9462 H   0  0  0  0  0  0  0  0  0  0  0  0
   -1.5929   -3.1752    0.3803 C   0  0  0  0  0  0  0  0  0  0  0  0
   -0.7388   -3.7305    1.0470 O   0  0  0  0  0  0  0  0  0  0  0  0
   -1.3692   -1.9151   -0.1402 N   0  0  0  0  0  0  0  0  0  0  0  0
   -2.0849   -1.5476   -0.7598 H   0  0  0  0  0  0  0  0  0  0  0  0
   -0.0772   -1.2062   -0.0767 C   0  0  1  0  0  0  0  0  0  0  0  0
    0.6698   -1.8330   -0.5736 H   0  0  0  0  0  0  0  0  0  0  0  0
   -0.2413    0.1136   -0.8595 C   0  0  0  0  0  0  0  0  0  0  0  0
   -0.7834   -0.0760   -1.7919 H   0  0  0  0  0  0  0  0  0  0  0  0
   -0.8487    0.8026   -0.2635 H   0  0  0  0  0  0  0  0  0  0  0  0
    1.0910    0.8020   -1.2041 C   0  0  0  0  0  0  0  0  0  0  0  0
    0.8772    1.8306   -1.5123 H   0  0  0  0  0  0  0  0  0  0  0  0
    1.7341    0.8554   -0.3200 H   0  0  0  0  0  0  0  0  0  0  0  0
    1.8304    0.0948   -2.3480 C   0  0  0  0  0  0  0  0  0  0  0  0
    2.0677   -0.9343   -2.0640 H   0  0  0  0  0  0  0  0  0  0  0  0
    1.1921    0.0624   -3.2369 H   0  0  0  0  0  0  0  0  0  0  0  0
    3.1261    0.8270   -2.6825 C   0  0  0  0  0  0  0  0  0  0  0  0
    2.9107    1.8616   -2.9719 H   0  0  0  0  0  0  0  0  0  0  0  0
    3.7817    0.8478   -1.8046 H   0  0  0  0  0  0  0  0  0  0  0  0
    3.7843    0.1258   -3.7886 N   0  0  0  0  0  0  0  0  0  0  0  0
    4.6581    0.5847   -4.0457 H   0  0  0  0  0  0  0  0  0  0  0  0
    3.9468   -0.8533   -3.5516 H   0  0  0  0  0  0  0  0  0  0  0  0
    0.4409   -0.9464    1.3576 C   0  0  0  0  0  0  0  0  0  0  0  0
    1.6423   -0.9772    1.5921 O   0  0  0  0  0  0  0  0  0  0  0  0
   -0.4228   -0.4732    2.3292 N   0  0  0  0  0  0  0  0  0  0  0  0
   -1.4130   -0.5685    2.1303 H   0  0  0  0  0  0  0  0  0  0  0  0
   -0.0040   -0.2261    3.7030 C   0  0  0  0  0  0  0  0  0  0  0  0
    0.8043    0.5122    3.7307 H   0  0  0  0  0  0  0  0  0  0  0  0
   -0.8422    0.1598    4.2906 H   0  0  0  0  0  0  0  0  0  0  0  0
    0.3499   -1.1529    4.1667 H   0  0  0  0  0  0  0  0  0  0  0  0
  1  2  1  0  0  0  0
  2  3  1  0  0  0  0
  2  4  1  0  0  0  0
  2  5  1  0  0  0  0
  5  6  2  0  0  0  0
  5  7  1  0  0  0  0
  7  8  1  0  0  0  0
  7  9  1  0  0  0  0
  9 10  1  0  0  0  0
  9 11  1  0  0  0  0
  9 26  1  0  0  0  0
 11 12  1  0  0  0  0
 11 13  1  0  0  0  0
 11 14  1  0  0  0  0
 14 15  1  0  0  0  0
 14 16  1  0  0  0  0
 14 17  1  0  0  0  0
 17 18  1  0  0  0  0
 17 19  1  0  0  0  0
 17 20  1  0  0  0  0
 20 21  1  0  0  0  0
 20 22  1  0  0  0  0
 20 23  1  0  0  0  0
 23 24  1  0  0  0  0
 23 25  1  0  0  0  0
 26 27  2  0  0  0  0
 26 28  1  0  0  0  0
 28 29  1  0  0  0  0
 28 30  1  0  0  0  0
 30 31  1  0  0  0  0
 30 32  1  0  0  0  0
 30 33  1  0  0  0  0
M  END
$$$$

  -OEChem-03222214063D

 33 32  0     1  0  0  0  0  0999 V2000
   -2.8686   -4.8711    0.5626 H   0  0  0  0  0  0  0  0  0  0  0  0
   -2.8855   -3.8700    0.1222 C   0  0  0  0  0  0  0  0  0  0  0  0
   -3.7011   -3.3005    0.5741 H   0  0  0  0  0  0  0  0  0  0  0  0
   -3.0647   -3.9632   -0.9516 H   0  0  0  0  0  0  0  0  0  0  0  0
   -1.5630   -3.1686    0.3698 C   0  0  0  0  0  0  0  0  0  0  0  0
   -0.6989   -3.7218    1.0253 O   0  0  0  0  0  0  0  0  0  0  0  0
   -1.3537   -1.9041   -0.1460 N   0  0  0  0  0  0  0  0  0  0  0  0
   -2.0781   -1.5385   -0.7566 H   0  0  0  0  0  0  0  0  0  0  0  0
   -0.0689   -1.1817   -0.0845 C   0  0  1  0  0  0  0  0  0  0  0  0
    0.6886   -1.7893   -0.5917 H   0  0  0  0  0  0  0  0  0  0  0  0
   -0.2542    0.1375   -0.8615 C   0  0  0  0  0  0  0  0  0  0  0  0
   -0.8107   -0.0457   -1.7866 H   0  0  0  0  0  0  0  0  0  0  0  0
   -0.8569    0.8183   -0.2513 H   0  0  0  0  0  0  0  0  0  0  0  0
    1.0771    0.8300   -1.2030 C   0  0  0  0  0  0  0  0  0  0  0  0
    0.9041    1.9099   -1.2564 H   0  0  0  0  0  0  0  0  0  0  0  0
    1.8227    0.6601   -0.4209 H   0  0  0  0  0  0  0  0  0  0  0  0
    1.6162    0.3583   -2.5587 C   0  0  0  0  0  0  0  0  0  0  0  0
    1.7541   -0.7274   -2.5426 H   0  0  0  0  0  0  0  0  0  0  0  0
    0.8966    0.5969   -3.3489 H   0  0  0  0  0  0  0  0  0  0  0  0
    2.9495    1.0303   -2.8706 C   0  0  0  0  0  0  0  0  0  0  0  0
    2.8260    2.1188   -2.8911 H   0  0  0  0  0  0  0  0  0  0  0  0
    3.6833    0.7855   -2.0943 H   0  0  0  0  0  0  0  0  0  0  0  0
    3.4166    0.5549   -4.1762 N   0  0  0  0  0  0  0  0  0  0  0  0
    4.3030    0.9913   -4.4298 H   0  0  0  0  0  0  0  0  0  0  0  0
    3.4987   -0.4619   -4.1847 H   0  0  0  0  0  0  0  0  0  0  0  0
    0.4437   -0.9268    1.3538 C   0  0  0  0  0  0  0  0  0  0  0  0
    1.6434   -0.9615    1.5965 O   0  0  0  0  0  0  0  0  0  0  0  0
   -0.4272   -0.4695    2.3268 N   0  0  0  0  0  0  0  0  0  0  0  0
   -1.4160   -0.5660    2.1218 H   0  0  0  0  0  0  0  0  0  0  0  0
   -0.0167   -0.2374    3.7058 C   0  0  0  0  0  0  0  0  0  0  0  0
    0.7881    0.5042    3.7471 H   0  0  0  0  0  0  0  0  0  0  0  0
   -0.8599    0.1373    4.2935 H   0  0  0  0  0  0  0  0  0  0  0  0
    0.3387   -1.1684    4.1601 H   0  0  0  0  0  0  0  0  0  0  0  0
  1  2  1  0  0  0  0
  2  3  1  0  0  0  0
  2  4  1  0  0  0  0
  2  5  1  0  0  0  0
  5  6  2  0  0  0  0
  5  7  1  0  0  0  0
  7  8  1  0  0  0  0
  7  9  1  0  0  0  0
  9 10  1  0  0  0  0
  9 11  1  0  0  0  0
  9 26  1  0  0  0  0
 11 12  1  0  0  0  0
 11 13  1  0  0  0  0
 11 14  1  0  0  0  0
 14 15  1  0  0  0  0
 14 16  1  0  0  0  0
 14 17  1  0  0  0  0
 17 18  1  0  0  0  0
 17 19  1  0  0  0  0
 17 20  1  0  0  0  0
 20 21  1  0  0  0  0
 20 22  1  0  0  0  0
 20 23  1  0  0  0  0
 23 24  1  0  0  0  0
 23 25  1  0  0  0  0
 26 27  2  0  0  0  0
 26 28  1  0  0  0  0
 28 29  1  0  0  0  0
 28 30  1  0  0  0  0
 30 31  1  0  0  0  0
 30 32  1  0  0  0  0
 30 33  1  0  0  0  0
M  END
$$$$

  -OEChem-03222214063D

 33 32  0     1  0  0  0  0  0999 V2000
   -2.8751   -4.8687    0.5740 H   0  0  0  0  0  0  0  0  0  0  0  0
   -2.8928   -3.8676    0.1338 C   0  0  0  0  0  0  0  0  0  0  0  0
   -3.7028   -3.2959    0.5927 H   0  0  0  0  0  0  0  0  0  0  0  0
   -3.0807   -3.9590   -0.9387 H   0  0  0  0  0  0  0  0  0  0  0  0
   -1.5659   -3.1711    0.3704 C   0  0  0  0  0  0  0  0  0  0  0  0
   -0.6977   -3.7275    1.0177 O   0  0  0  0  0  0  0  0  0  0  0  0
   -1.3566   -1.9073   -0.1472 N   0  0  0  0  0  0  0  0  0  0  0  0
   -2.0845   -1.5384   -0.7518 H   0  0  0  0  0  0  0  0  0  0  0  0
   -0.0718   -1.1852   -0.0871 C   0  0  1  0  0  0  0  0  0  0  0  0
    0.6851   -1.7915   -0.5969 H   0  0  0  0  0  0  0  0  0  0  0  0
   -0.2550    0.1353   -0.8603 C   0  0  0  0  0  0  0  0  0  0  0  0
   -0.8134   -0.0511   -1.7839 H   0  0  0  0  0  0  0  0  0  0  0  0
   -0.8580    0.8179   -0.2522 H   0  0  0  0  0  0  0  0  0  0  0  0
    1.0819    0.8224   -1.1992 C   0  0  0  0  0  0  0  0  0  0  0  0
    0.9925    1.8918   -0.9813 H   0  0  0  0  0  0  0  0  0  0  0  0
    1.8953    0.4324   -0.5800 H   0  0  0  0  0  0  0  0  0  0  0  0
    1.4355    0.6513   -2.6807 C   0  0  0  0  0  0  0  0  0  0  0  0
    1.4963   -0.4148   -2.9225 H   0  0  0  0  0  0  0  0  0  0  0  0
    0.6523    1.0970   -3.3027 H   0  0  0  0  0  0  0  0  0  0  0  0
    2.7700    1.3201   -2.9956 C   0  0  0  0  0  0  0  0  0  0  0  0
    2.7182    2.3894   -2.7620 H   0  0  0  0  0  0  0  0  0  0  0  0
    3.5659    0.8770   -2.3864 H   0  0  0  0  0  0  0  0  0  0  0  0
    3.0601    1.1326   -4.4202 N   0  0  0  0  0  0  0  0  0  0  0  0
    3.9368    1.5854   -4.6790 H   0  0  0  0  0  0  0  0  0  0  0  0
    3.0805    0.1414   -4.6597 H   0  0  0  0  0  0  0  0  0  0  0  0
    0.4406   -0.9287    1.3509 C   0  0  0  0  0  0  0  0  0  0  0  0
    1.6400   -0.9604    1.5948 O   0  0  0  0  0  0  0  0  0  0  0  0
   -0.4314   -0.4702    2.3221 N   0  0  0  0  0  0  0  0  0  0  0  0
   -1.4200   -0.5654    2.1155 H   0  0  0  0  0  0  0  0  0  0  0  0
   -0.0227   -0.2354    3.7010 C   0  0  0  0  0  0  0  0  0  0  0  0
    0.7812    0.5071    3.7417 H   0  0  0  0  0  0  0  0  0  0  0  0
   -0.8668    0.1396    4.2876 H   0  0  0  0  0  0  0  0  0  0  0  0
    0.3329   -1.1657    4.1566 H   0  0  0  0  0  0  0  0  0  0  0  0
  1  2  1  0  0  0  0
  2  3  1  0  0  0  0
  2  4  1  0  0  0  0
  2  5  1  0  0  0  0
  5  6  2  0  0  0  0
  5  7  1  0  0  0  0
  7  8  1  0  0  0  0
  7  9  1  0  0  0  0
  9 10  1  0  0  0  0
  9 11  1  0  0  0  0
  9 26  1  0  0  0  0
 11 12  1  0  0  0  0
 11 13  1  0  0  0  0
 11 14  1  0  0  0  0
 14 15  1  0  0  0  0
 14 16  1  0  0  0  0
 14 17  1  0  0  0  0
 17 18  1  0  0  0  0
 17 19  1  0  0  0  0
 17 20  1  0  0  0  0
 20 21  1  0  0  0  0
 20 22  1  0  0  0  0
 20 23  1  0  0  0  0
 23 24  1  0  0  0  0
 23 25  1  0  0  0  0
 26 27  2  0  0  0  0
 26 28  1  0  0  0  0
 28 29  1  0  0  0  0
 28 30  1  0  0  0  0
 30 31  1  0  0  0  0
 30 32  1  0  0  0  0
 30 33  1  0  0  0  0
M  END
$$$$

  -OEChem-03222214063D

 33 32  0     1  0  0  0  0  0999 V2000
   -2.8911   -4.8724    0.5915 H   0  0  0  0  0  0  0  0  0  0  0  0
   -2.9090   -3.8731    0.1469 C   0  0  0  0  0  0  0  0  0  0  0  0
   -3.7136   -3.2968    0.6099 H   0  0  0  0  0  0  0  0  0  0  0  0
   -3.1064   -3.9695   -0.9234 H   0  0  0  0  0  0  0  0  0  0  0  0
   -1.5784   -3.1789    0.3703 C   0  0  0  0  0  0  0  0  0  0  0  0
   -0.7062   -3.7349    1.0126 O   0  0  0  0  0  0  0  0  0  0  0  0
   -1.3705   -1.9157   -0.1491 N   0  0  0  0  0  0  0  0  0  0  0  0
   -2.1030   -1.5429   -0.7455 H   0  0  0  0  0  0  0  0  0  0  0  0
   -0.0854   -1.1941   -0.0921 C   0  0  1  0  0  0  0  0  0  0  0  0
    0.6674   -1.8046   -0.6035 H   0  0  0  0  0  0  0  0  0  0  0  0
   -0.2609    0.1285   -0.8620 C   0  0  0  0  0  0  0  0  0  0  0  0
   -0.8052   -0.0716   -1.7910 H   0  0  0  0  0  0  0  0  0  0  0  0
   -0.8743    0.8171   -0.2716 H   0  0  0  0  0  0  0  0  0  0  0  0
    1.0836    0.8054   -1.1963 C   0  0  0  0  0  0  0  0  0  0  0  0
    1.1175    1.7885   -0.7148 H   0  0  0  0  0  0  0  0  0  0  0  0
    1.9205    0.2200   -0.8012 H   0  0  0  0  0  0  0  0  0  0  0  0
    1.2684    0.9683   -2.7094 C   0  0  0  0  0  0  0  0  0  0  0  0
    1.2420   -0.0150   -3.1900 H   0  0  0  0  0  0  0  0  0  0  0  0
    0.4502    1.5701   -3.1190 H   0  0  0  0  0  0  0  0  0  0  0  0
    2.5978    1.6492   -3.0200 C   0  0  0  0  0  0  0  0  0  0  0  0
    2.6299    2.6398   -2.5528 H   0  0  0  0  0  0  0  0  0  0  0  0
    3.4270    1.0565   -2.6173 H   0  0  0  0  0  0  0  0  0  0  0  0
    2.7275    1.7778   -4.4747 N   0  0  0  0  0  0  0  0  0  0  0  0
    3.5932    2.2557   -4.7255 H   0  0  0  0  0  0  0  0  0  0  0  0
    2.6731    0.8656   -4.9277 H   0  0  0  0  0  0  0  0  0  0  0  0
    0.4362   -0.9329    1.3412 C   0  0  0  0  0  0  0  0  0  0  0  0
    1.6387   -0.9480    1.5708 O   0  0  0  0  0  0  0  0  0  0  0  0
   -0.4293   -0.4710    2.3167 N   0  0  0  0  0  0  0  0  0  0  0  0
   -1.4194   -0.5687    2.1186 H   0  0  0  0  0  0  0  0  0  0  0  0
   -0.0097   -0.2172    3.6890 C   0  0  0  0  0  0  0  0  0  0  0  0
    0.7893    0.5314    3.7140 H   0  0  0  0  0  0  0  0  0  0  0  0
   -0.8515    0.1589    4.2781 H   0  0  0  0  0  0  0  0  0  0  0  0
    0.3565   -1.1392    4.1530 H   0  0  0  0  0  0  0  0  0  0  0  0
  1  2  1  0  0  0  0
  2  3  1  0  0  0  0
  2  4  1  0  0  0  0
  2  5  1  0  0  0  0
  5  6  2  0  0  0  0
  5  7  1  0  0  0  0
  7  8  1  0  0  0  0
  7  9  1  0  0  0  0
  9 10  1  0  0  0  0
  9 11  1  0  0  0  0
  9 26  1  0  0  0  0
 11 12  1  0  0  0  0
 11 13  1  0  0  0  0
 11 14  1  0  0  0  0
 14 15  1  0  0  0  0
 14 16  1  0  0  0  0
 14 17  1  0  0  0  0
 17 18  1  0  0  0  0
 17 19  1  0  0  0  0
 17 20  1  0  0  0  0
 20 21  1  0  0  0  0
 20 22  1  0  0  0  0
 20 23  1  0  0  0  0
 23 24  1  0  0  0  0
 23 25  1  0  0  0  0
 26 27  2  0  0  0  0
 26 28  1  0  0  0  0
 28 29  1  0  0  0  0
 28 30  1  0  0  0  0
 30 31  1  0  0  0  0
 30 32  1  0  0  0  0
 30 33  1  0  0  0  0
M  END
$$$$

  -OEChem-03222214063D

 33 32  0     1  0  0  0  0  0999 V2000
   -2.8935   -4.8807    0.6041 H   0  0  0  0  0  0  0  0  0  0  0  0
   -2.9177   -3.8816    0.1594 C   0  0  0  0  0  0  0  0  0  0  0  0
   -3.7220   -3.3082    0.6264 H   0  0  0  0  0  0  0  0  0  0  0  0
   -3.1196   -3.9788   -0.9100 H   0  0  0  0  0  0  0  0  0  0  0  0
   -1.5883   -3.1833    0.3751 C   0  0  0  0  0  0  0  0  0  0  0  0
   -0.7099   -3.7371    1.0108 O   0  0  0  0  0  0  0  0  0  0  0  0
   -1.3871   -1.9201   -0.1469 N   0  0  0  0  0  0  0  0  0  0  0  0
   -2.1283   -1.5443   -0.7307 H   0  0  0  0  0  0  0  0  0  0  0  0
   -0.1035   -1.1958   -0.0977 C   0  0  1  0  0  0  0  0  0  0  0  0
    0.6440   -1.8120   -0.6101 H   0  0  0  0  0  0  0  0  0  0  0  0
   -0.2747    0.1249   -0.8703 C   0  0  0  0  0  0  0  0  0  0  0  0
   -0.8022   -0.0927   -1.8050 H   0  0  0  0  0  0  0  0  0  0  0  0
   -0.8968    0.8221   -0.2994 H   0  0  0  0  0  0  0  0  0  0  0  0
    1.0756    0.7889   -1.2017 C   0  0  0  0  0  0  0  0  0  0  0  0
    1.2470    1.6212   -0.5106 H   0  0  0  0  0  0  0  0  0  0  0  0
    1.8942    0.0744   -1.0613 H   0  0  0  0  0  0  0  0  0  0  0  0
    1.1186    1.2856   -2.6515 C   0  0  0  0  0  0  0  0  0  0  0  0
    0.9945    0.4397   -3.3351 H   0  0  0  0  0  0  0  0  0  0  0  0
    0.2960    1.9872   -2.8248 H   0  0  0  0  0  0  0  0  0  0  0  0
    2.4448    1.9824   -2.9410 C   0  0  0  0  0  0  0  0  0  0  0  0
    2.5715    2.8404   -2.2713 H   0  0  0  0  0  0  0  0  0  0  0  0
    3.2778    1.2916   -2.7686 H   0  0  0  0  0  0  0  0  0  0  0  0
    2.4425    2.4330   -4.3361 N   0  0  0  0  0  0  0  0  0  0  0  0
    3.3040    2.9302   -4.5628 H   0  0  0  0  0  0  0  0  0  0  0  0
    2.2985    1.6494   -4.9726 H   0  0  0  0  0  0  0  0  0  0  0  0
    0.4322   -0.9285    1.3283 C   0  0  0  0  0  0  0  0  0  0  0  0
    1.6385   -0.9254    1.5384 O   0  0  0  0  0  0  0  0  0  0  0  0
   -0.4242   -0.4653    2.3112 N   0  0  0  0  0  0  0  0  0  0  0  0
   -1.4158   -0.5745    2.1274 H   0  0  0  0  0  0  0  0  0  0  0  0
    0.0104   -0.1984    3.6763 C   0  0  0  0  0  0  0  0  0  0  0  0
    0.8078    0.5523    3.6859 H   0  0  0  0  0  0  0  0  0  0  0  0
   -0.8254    0.1806    4.2719 H   0  0  0  0  0  0  0  0  0  0  0  0
    0.3838   -1.1157    4.1438 H   0  0  0  0  0  0  0  0  0  0  0  0
  1  2  1  0  0  0  0
  2  3  1  0  0  0  0
  2  4  1  0  0  0  0
  2  5  1  0  0  0  0
  5  6  2  0  0  0  0
  5  7  1  0  0  0  0
  7  8  1  0  0  0  0
  7  9  1  0  0  0  0
  9 10  1  0  0  0  0
  9 11  1  0  0  0  0
  9 26  1  0  0  0  0
 11 12  1  0  0  0  0
 11 13  1  0  0  0  0
 11 14  1  0  0  0  0
 14 15  1  0  0  0  0
 14 16  1  0  0  0  0
 14 17  1  0  0  0  0
 17 18  1  0  0  0  0
 17 19  1  0  0  0  0
 17 20  1  0  0  0  0
 20 21  1  0  0  0  0
 20 22  1  0  0  0  0
 20 23  1  0  0  0  0
 23 24  1  0  0  0  0
 23 25  1  0  0  0  0
 26 27  2  0  0  0  0
 26 28  1  0  0  0  0
 28 29  1  0  0  0  0
 28 30  1  0  0  0  0
 30 31  1  0  0  0  0
 30 32  1  0  0  0  0
 30 33  1  0  0  0  0
M  END
$$$$

  -OEChem-03222214063D

 33 32  0     1  0  0  0  0  0999 V2000
   -2.8942   -4.8812    0.6078 H   0  0  0  0  0  0  0  0  0  0  0  0
   -2.9185   -3.8838    0.1591 C   0  0  0  0  0  0  0  0  0  0  0  0
   -3.7234   -3.3089    0.6231 H   0  0  0  0  0  0  0  0  0  0  0  0
   -3.1204   -3.9850   -0.9099 H   0  0  0  0  0  0  0  0  0  0  0  0
   -1.5899   -3.1835    0.3732 C   0  0  0  0  0  0  0  0  0  0  0  0
   -0.7110   -3.7348    1.0104 O   0  0  0  0  0  0  0  0  0  0  0  0
   -1.3903   -1.9202   -0.1487 N   0  0  0  0  0  0  0  0  0  0  0  0
   -2.1311   -1.5452   -0.7333 H   0  0  0  0  0  0  0  0  0  0  0  0
   -0.1072   -1.1957   -0.0989 C   0  0  1  0  0  0  0  0  0  0  0  0
    0.6402   -1.8136   -0.6088 H   0  0  0  0  0  0  0  0  0  0  0  0
   -0.2779    0.1235   -0.8735 C   0  0  0  0  0  0  0  0  0  0  0  0
   -0.7945   -0.0996   -1.8128 H   0  0  0  0  0  0  0  0  0  0  0  0
   -0.9042    0.8235   -0.3104 H   0  0  0  0  0  0  0  0  0  0  0  0
    1.0737    0.7811   -1.2003 C   0  0  0  0  0  0  0  0  0  0  0  0
    1.3775    1.4232   -0.3662 H   0  0  0  0  0  0  0  0  0  0  0  0
    1.8436    0.0117   -1.3226 H   0  0  0  0  0  0  0  0  0  0  0  0
    0.9949    1.5918   -2.4988 C   0  0  0  0  0  0  0  0  0  0  0  0
    0.7485    0.9289   -3.3345 H   0  0  0  0  0  0  0  0  0  0  0  0
    0.2025    2.3431   -2.4161 H   0  0  0  0  0  0  0  0  0  0  0  0
    2.3220    2.2906   -2.7779 C   0  0  0  0  0  0  0  0  0  0  0  0
    2.5641    2.9749   -1.9571 H   0  0  0  0  0  0  0  0  0  0  0  0
    3.1280    1.5520   -2.8535 H   0  0  0  0  0  0  0  0  0  0  0  0
    2.2013    3.0380   -4.0335 N   0  0  0  0  0  0  0  0  0  0  0  0
    3.0600    3.5482   -4.2412 H   0  0  0  0  0  0  0  0  0  0  0  0
    1.9513    2.4193   -4.8047 H   0  0  0  0  0  0  0  0  0  0  0  0
    0.4319   -0.9265    1.3248 C   0  0  0  0  0  0  0  0  0  0  0  0
    1.6391   -0.9169    1.5289 O   0  0  0  0  0  0  0  0  0  0  0  0
   -0.4217   -0.4624    2.3095 N   0  0  0  0  0  0  0  0  0  0  0  0
   -1.4141   -0.5711    2.1297 H   0  0  0  0  0  0  0  0  0  0  0  0
    0.0194   -0.1848    3.6702 C   0  0  0  0  0  0  0  0  0  0  0  0
    0.8105    0.5725    3.6701 H   0  0  0  0  0  0  0  0  0  0  0  0
   -0.8156    0.1909    4.2691 H   0  0  0  0  0  0  0  0  0  0  0  0
    0.4036   -1.0961    4.1405 H   0  0  0  0  0  0  0  0  0  0  0  0
  1  2  1  0  0  0  0
  2  3  1  0  0  0  0
  2  4  1  0  0  0  0
  2  5  1  0  0  0  0
  5  6  2  0  0  0  0
  5  7  1  0  0  0  0
  7  8  1  0  0  0  0
  7  9  1  0  0  0  0
  9 10  1  0  0  0  0
  9 11  1  0  0  0  0
  9 26  1  0  0  0  0
 11 12  1  0  0  0  0
 11 13  1  0  0  0  0
 11 14  1  0  0  0  0
 14 15  1  0  0  0  0
 14 16  1  0  0  0  0
 14 17  1  0  0  0  0
 17 18  1  0  0  0  0
 17 19  1  0  0  0  0
 17 20  1  0  0  0  0
 20 21  1  0  0  0  0
 20 22  1  0  0  0  0
 20 23  1  0  0  0  0
 23 24  1  0  0  0  0
 23 25  1  0  0  0  0
 26 27  2  0  0  0  0
 26 28  1  0  0  0  0
 28 29  1  0  0  0  0
 28 30  1  0  0  0  0
 30 31  1  0  0  0  0
 30 32  1  0  0  0  0
 30 33  1  0  0  0  0
M  END
$$$$

  -OEChem-03222214063D

 33 32  0     1  0  0  0  0  0999 V2000
   -2.8839   -4.8830    0.6010 H   0  0  0  0  0  0  0  0  0  0  0  0
   -2.9122   -3.8829    0.1588 C   0  0  0  0  0  0  0  0  0  0  0  0
   -3.7191   -3.3142    0.6271 H   0  0  0  0  0  0  0  0  0  0  0  0
   -3.1141   -3.9786   -0.9108 H   0  0  0  0  0  0  0  0  0  0  0  0
   -1.5857   -3.1792    0.3760 C   0  0  0  0  0  0  0  0  0  0  0  0
   -0.7063   -3.7306    1.0125 O   0  0  0  0  0  0  0  0  0  0  0  0
   -1.3867   -1.9157   -0.1465 N   0  0  0  0  0  0  0  0  0  0  0  0
   -2.1286   -1.5415   -0.7305 H   0  0  0  0  0  0  0  0  0  0  0  0
   -0.1044   -1.1887   -0.0970 C   0  0  1  0  0  0  0  0  0  0  0  0
    0.6458   -1.8047   -0.6058 H   0  0  0  0  0  0  0  0  0  0  0  0
   -0.2780    0.1266   -0.8776 C   0  0  0  0  0  0  0  0  0  0  0  0
   -0.7922   -0.0925   -1.8192 H   0  0  0  0  0  0  0  0  0  0  0  0
   -0.9025    0.8252   -0.3109 H   0  0  0  0  0  0  0  0  0  0  0  0
    1.0723    0.7826   -1.2032 C   0  0  0  0  0  0  0  0  0  0  0  0
    1.4970    1.2205   -0.2933 H   0  0  0  0  0  0  0  0  0  0  0  0
    1.7738    0.0251   -1.5689 H   0  0  0  0  0  0  0  0  0  0  0  0
    0.9083    1.8657   -2.2748 C   0  0  0  0  0  0  0  0  0  0  0  0
    0.5320    1.4166   -3.1995 H   0  0  0  0  0  0  0  0  0  0  0  0
    0.1791    2.6100   -1.9378 H   0  0  0  0  0  0  0  0  0  0  0  0
    2.2409    2.5562   -2.5499 C   0  0  0  0  0  0  0  0  0  0  0  0
    2.6117    3.0320   -1.6350 H   0  0  0  0  0  0  0  0  0  0  0  0
    2.9854    1.8213   -2.8758 H   0  0  0  0  0  0  0  0  0  0  0  0
    2.0383    3.5667   -3.5930 N   0  0  0  0  0  0  0  0  0  0  0  0
    2.9001    4.0795   -3.7805 H   0  0  0  0  0  0  0  0  0  0  0  0
    1.6748    3.1437   -4.4467 H   0  0  0  0  0  0  0  0  0  0  0  0
    0.4320   -0.9185    1.3279 C   0  0  0  0  0  0  0  0  0  0  0  0
    1.6385   -0.9201    1.5366 O   0  0  0  0  0  0  0  0  0  0  0  0
   -0.4220   -0.4554    2.3129 N   0  0  0  0  0  0  0  0  0  0  0  0
   -1.4146   -0.5557    2.1294 H   0  0  0  0  0  0  0  0  0  0  0  0
    0.0160   -0.1891    3.6771 C   0  0  0  0  0  0  0  0  0  0  0  0
    0.8116    0.5634    3.6852 H   0  0  0  0  0  0  0  0  0  0  0  0
   -0.8188    0.1871    4.2757 H   0  0  0  0  0  0  0  0  0  0  0  0
    0.3928   -1.1061    4.1423 H   0  0  0  0  0  0  0  0  0  0  0  0
  1  2  1  0  0  0  0
  2  3  1  0  0  0  0
  2  4  1  0  0  0  0
  2  5  1  0  0  0  0
  5  6  2  0  0  0  0
  5  7  1  0  0  0  0
  7  8  1  0  0  0  0
  7  9  1  0  0  0  0
  9 10  1  0  0  0  0
  9 11  1  0  0  0  0
  9 26  1  0  0  0  0
 11 12  1  0  0  0  0
 11 13  1  0  0  0  0
 11 14  1  0  0  0  0
 14 15  1  0  0  0  0
 14 16  1  0  0  0  0
 14 17  1  0  0  0  0
 17 18  1  0  0  0  0
 17 19  1  0  0  0  0
 17 20  1  0  0  0  0
 20 21  1  0  0  0  0
 20 22  1  0  0  0  0
 20 23  1  0  0  0  0
 23 24  1  0  0  0  0
 23 25  1  0  0  0  0
 26 27  2  0  0  0  0
 26 28  1  0  0  0  0
 28 29  1  0  0  0  0
 28 30  1  0  0  0  0
 30 31  1  0  0  0  0
 30 32  1  0  0  0  0
 30 33  1  0  0  0  0
M  END
$$$$

  -OEChem-03222214063D

 33 32  0     1  0  0  0  0  0999 V2000
   -2.8658   -4.9006    0.6032 H   0  0  0  0  0  0  0  0  0  0  0  0
   -2.9053   -3.9010    0.1608 C   0  0  0  0  0  0  0  0  0  0  0  0
   -3.7134   -3.3389    0.6351 H   0  0  0  0  0  0  0  0  0  0  0  0
   -3.1140   -3.9986   -0.9075 H   0  0  0  0  0  0  0  0  0  0  0  0
   -1.5830   -3.1862    0.3687 C   0  0  0  0  0  0  0  0  0  0  0  0
   -0.6915   -3.7320    0.9931 O   0  0  0  0  0  0  0  0  0  0  0  0
   -1.4029   -1.9169   -0.1460 N   0  0  0  0  0  0  0  0  0  0  0  0
   -2.1561   -1.5447   -0.7162 H   0  0  0  0  0  0  0  0  0  0  0  0
   -0.1284   -1.1756   -0.1014 C   0  0  1  0  0  0  0  0  0  0  0  0
    0.6185   -1.7923   -0.6144 H   0  0  0  0  0  0  0  0  0  0  0  0
   -0.3030    0.1424   -0.8808 C   0  0  0  0  0  0  0  0  0  0  0  0
   -1.0311   -0.0005   -1.6858 H   0  0  0  0  0  0  0  0  0  0  0  0
   -0.6929    0.9210   -0.2164 H   0  0  0  0  0  0  0  0  0  0  0  0
    1.0182    0.6006   -1.5131 C   0  0  0  0  0  0  0  0  0  0  0  0
    1.7691    0.7487   -0.7292 H   0  0  0  0  0  0  0  0  0  0  0  0
    1.3905   -0.1719   -2.1943 H   0  0  0  0  0  0  0  0  0  0  0  0
    0.8212    1.9114   -2.2823 C   0  0  0  0  0  0  0  0  0  0  0  0
    0.0945    1.7600   -3.0867 H   0  0  0  0  0  0  0  0  0  0  0  0
    0.4260    2.6790   -1.6087 H   0  0  0  0  0  0  0  0  0  0  0  0
    2.1423    2.3965   -2.8720 C   0  0  0  0  0  0  0  0  0  0  0  0
    2.8632    2.5861   -2.0687 H   0  0  0  0  0  0  0  0  0  0  0  0
    2.5637    1.6310   -3.5328 H   0  0  0  0  0  0  0  0  0  0  0  0
    1.8937    3.6305   -3.6241 N   0  0  0  0  0  0  0  0  0  0  0  0
    2.7611    4.0136   -4.0005 H   0  0  0  0  0  0  0  0  0  0  0  0
    1.2117    3.4766   -4.3663 H   0  0  0  0  0  0  0  0  0  0  0  0
    0.4235   -0.9056    1.3172 C   0  0  0  0  0  0  0  0  0  0  0  0
    1.6327   -0.8870    1.5075 O   0  0  0  0  0  0  0  0  0  0  0  0
   -0.4233   -0.4572    2.3152 N   0  0  0  0  0  0  0  0  0  0  0  0
   -1.4167   -0.5752    2.1467 H   0  0  0  0  0  0  0  0  0  0  0  0
    0.0305   -0.1870    3.6734 C   0  0  0  0  0  0  0  0  0  0  0  0
    0.8136    0.5784    3.6715 H   0  0  0  0  0  0  0  0  0  0  0  0
   -0.8015    0.1738    4.2853 H   0  0  0  0  0  0  0  0  0  0  0  0
    0.4296   -1.0983    4.1310 H   0  0  0  0  0  0  0  0  0  0  0  0
  1  2  1  0  0  0  0
  2  3  1  0  0  0  0
  2  4  1  0  0  0  0
  2  5  1  0  0  0  0
  5  6  2  0  0  0  0
  5  7  1  0  0  0  0
  7  8  1  0  0  0  0
  7  9  1  0  0  0  0
  9 10  1  0  0  0  0
  9 11  1  0  0  0  0
  9 26  1  0  0  0  0
 11 12  1  0  0  0  0
 11 13  1  0  0  0  0
 11 14  1  0  0  0  0
 14 15  1  0  0  0  0
 14 16  1  0  0  0  0
 14 17  1  0  0  0  0
 17 18  1  0  0  0  0
 17 19  1  0  0  0  0
 17 20  1  0  0  0  0
 20 21  1  0  0  0  0
 20 22  1  0  0  0  0
 20 23  1  0  0  0  0
 23 24  1  0  0  0  0
 23 25  1  0  0  0  0
 26 27  2  0  0  0  0
 26 28  1  0  0  0  0
 28 29  1  0  0  0  0
 28 30  1  0  0  0  0
 30 31  1  0  0  0  0
 30 32  1  0  0  0  0
 30 33  1  0  0  0  0
M  END
$$$$

  -OEChem-03222214063D

 33 32  0     1  0  0  0  0  0999 V2000
   -2.8584   -4.8964    0.5989 H   0  0  0  0  0  0  0  0  0  0  0  0
   -2.8985   -3.8947    0.1612 C   0  0  0  0  0  0  0  0  0  0  0  0
   -3.7022   -3.3327    0.6428 H   0  0  0  0  0  0  0  0  0  0  0  0
   -3.1145   -3.9869   -0.9060 H   0  0  0  0  0  0  0  0  0  0  0  0
   -1.5735   -3.1838    0.3642 C   0  0  0  0  0  0  0  0  0  0  0  0
   -0.6794   -3.7350    0.9800 O   0  0  0  0  0  0  0  0  0  0  0  0
   -1.3926   -1.9135   -0.1481 N   0  0  0  0  0  0  0  0  0  0  0  0
   -2.1469   -1.5375   -0.7145 H   0  0  0  0  0  0  0  0  0  0  0  0
   -0.1189   -1.1713   -0.0991 C   0  0  1  0  0  0  0  0  0  0  0  0
    0.6314   -1.7840   -0.6119 H   0  0  0  0  0  0  0  0  0  0  0  0
   -0.2967    0.1451   -0.8807 C   0  0  0  0  0  0  0  0  0  0  0  0
   -1.0294    0.0143   -1.6835 H   0  0  0  0  0  0  0  0  0  0  0  0
   -0.6825    0.9164   -0.2054 H   0  0  0  0  0  0  0  0  0  0  0  0
    1.0243    0.6077   -1.5120 C   0  0  0  0  0  0  0  0  0  0  0  0
    1.8342    0.5219   -0.7796 H   0  0  0  0  0  0  0  0  0  0  0  0
    1.2725   -0.0361   -2.3623 H   0  0  0  0  0  0  0  0  0  0  0  0
    0.9273    2.0700   -1.9611 C   0  0  0  0  0  0  0  0  0  0  0  0
    0.1265    2.1730   -2.7003 H   0  0  0  0  0  0  0  0  0  0  0  0
    0.6811    2.7057   -1.1041 H   0  0  0  0  0  0  0  0  0  0  0  0
    2.2468    2.5388   -2.5677 C   0  0  0  0  0  0  0  0  0  0  0  0
    3.0436    2.4812   -1.8175 H   0  0  0  0  0  0  0  0  0  0  0  0
    2.5251    1.8944   -3.4089 H   0  0  0  0  0  0  0  0  0  0  0  0
    2.0880    3.9231   -3.0249 N   0  0  0  0  0  0  0  0  0  0  0  0
    2.9629    4.2902   -3.3996 H   0  0  0  0  0  0  0  0  0  0  0  0
    1.3377    3.9996   -3.7110 H   0  0  0  0  0  0  0  0  0  0  0  0
    0.4253   -0.9051    1.3236 C   0  0  0  0  0  0  0  0  0  0  0  0
    1.6328   -0.8989    1.5252 O   0  0  0  0  0  0  0  0  0  0  0  0
   -0.4273   -0.4600    2.3180 N   0  0  0  0  0  0  0  0  0  0  0  0
   -1.4202   -0.5627    2.1376 H   0  0  0  0  0  0  0  0  0  0  0  0
    0.0166   -0.1978    3.6811 C   0  0  0  0  0  0  0  0  0  0  0  0
    0.8087    0.5584    3.6885 H   0  0  0  0  0  0  0  0  0  0  0  0
   -0.8169    0.1720    4.2856 H   0  0  0  0  0  0  0  0  0  0  0  0
    0.4008   -1.1147    4.1402 H   0  0  0  0  0  0  0  0  0  0  0  0
  1  2  1  0  0  0  0
  2  3  1  0  0  0  0
  2  4  1  0  0  0  0
  2  5  1  0  0  0  0
  5  6  2  0  0  0  0
  5  7  1  0  0  0  0
  7  8  1  0  0  0  0
  7  9  1  0  0  0  0
  9 10  1  0  0  0  0
  9 11  1  0  0  0  0
  9 26  1  0  0  0  0
 11 12  1  0  0  0  0
 11 13  1  0  0  0  0
 11 14  1  0  0  0  0
 14 15  1  0  0  0  0
 14 16  1  0  0  0  0
 14 17  1  0  0  0  0
 17 18  1  0  0  0  0
 17 19  1  0  0  0  0
 17 20  1  0  0  0  0
 20 21  1  0  0  0  0
 20 22  1  0  0  0  0
 20 23  1  0  0  0  0
 23 24  1  0  0  0  0
 23 25  1  0  0  0  0
 26 27  2  0  0  0  0
 26 28  1  0  0  0  0
 28 29  1  0  0  0  0
 28 30  1  0  0  0  0
 30 31  1  0  0  0  0
 30 32  1  0  0  0  0
 30 33  1  0  0  0  0
M  END
$$$$

  -OEChem-03222214063D

 33 32  0     1  0  0  0  0  0999 V2000
   -2.8674   -4.8902    0.6001 H   0  0  0  0  0  0  0  0  0  0  0  0
   -2.9027   -3.8888    0.1613 C   0  0  0  0  0  0  0  0  0  0  0  0
   -3.7033   -3.3227    0.6433 H   0  0  0  0  0  0  0  0  0  0  0  0
   -3.1197   -3.9809   -0.9057 H   0  0  0  0  0  0  0  0  0  0  0  0
   -1.5738   -3.1844    0.3624 C   0  0  0  0  0  0  0  0  0  0  0  0
   -0.6817   -3.7400    0.9770 O   0  0  0  0  0  0  0  0  0  0  0  0
   -1.3873   -1.9152   -0.1502 N   0  0  0  0  0  0  0  0  0  0  0  0
   -2.1409   -1.5352   -0.7146 H   0  0  0  0  0  0  0  0  0  0  0  0
   -0.1120   -1.1762   -0.0976 C   0  0  1  0  0  0  0  0  0  0  0  0
    0.6377   -1.7916   -0.6079 H   0  0  0  0  0  0  0  0  0  0  0  0
   -0.2858    0.1395   -0.8823 C   0  0  0  0  0  0  0  0  0  0  0  0
   -1.0195    0.0135   -1.6850 H   0  0  0  0  0  0  0  0  0  0  0  0
   -0.6750    0.9062   -0.2033 H   0  0  0  0  0  0  0  0  0  0  0  0
    1.0355    0.6080   -1.5152 C   0  0  0  0  0  0  0  0  0  0  0  0
    1.8803    0.2908   -0.8943 H   0  0  0  0  0  0  0  0  0  0  0  0
    1.1565    0.1460   -2.5005 H   0  0  0  0  0  0  0  0  0  0  0  0
    1.0759    2.1365   -1.6272 C   0  0  0  0  0  0  0  0  0  0  0  0
    0.2414    2.4791   -2.2473 H   0  0  0  0  0  0  0  0  0  0  0  0
    0.9668    2.5840   -0.6336 H   0  0  0  0  0  0  0  0  0  0  0  0
    2.3936    2.6018   -2.2407 C   0  0  0  0  0  0  0  0  0  0  0  0
    3.2297    2.3109   -1.5945 H   0  0  0  0  0  0  0  0  0  0  0  0
    2.5413    2.1325   -3.2197 H   0  0  0  0  0  0  0  0  0  0  0  0
    2.3541    4.0607   -2.3846 N   0  0  0  0  0  0  0  0  0  0  0  0
    3.2341    4.4187   -2.7561 H   0  0  0  0  0  0  0  0  0  0  0  0
    1.5684    4.3515   -2.9655 H   0  0  0  0  0  0  0  0  0  0  0  0
    0.4288   -0.9095    1.3267 C   0  0  0  0  0  0  0  0  0  0  0  0
    1.6355   -0.9082    1.5325 O   0  0  0  0  0  0  0  0  0  0  0  0
   -0.4255   -0.4611    2.3183 N   0  0  0  0  0  0  0  0  0  0  0  0
   -1.4183   -0.5601    2.1353 H   0  0  0  0  0  0  0  0  0  0  0  0
    0.0153   -0.1948    3.6816 C   0  0  0  0  0  0  0  0  0  0  0  0
    0.8096    0.5591    3.6883 H   0  0  0  0  0  0  0  0  0  0  0  0
   -0.8186    0.1800    4.2824 H   0  0  0  0  0  0  0  0  0  0  0  0
    0.3955   -1.1108    4.1458 H   0  0  0  0  0  0  0  0  0  0  0  0
  1  2  1  0  0  0  0
  2  3  1  0  0  0  0
  2  4  1  0  0  0  0
  2  5  1  0  0  0  0
  5  6  2  0  0  0  0
  5  7  1  0  0  0  0
  7  8  1  0  0  0  0
  7  9  1  0  0  0  0
  9 10  1  0  0  0  0
  9 11  1  0  0  0  0
  9 26  1  0  0  0  0
 11 12  1  0  0  0  0
 11 13  1  0  0  0  0
 11 14  1  0  0  0  0
 14 15  1  0  0  0  0
 14 16  1  0  0  0  0
 14 17  1  0  0  0  0
 17 18  1  0  0  0  0
 17 19  1  0  0  0  0
 17 20  1  0  0  0  0
 20 21  1  0  0  0  0
 20 22  1  0  0  0  0
 20 23  1  0  0  0  0
 23 24  1  0  0  0  0
 23 25  1  0  0  0  0
 26 27  2  0  0  0  0
 26 28  1  0  0  0  0
 28 29  1  0  0  0  0
 28 30  1  0  0  0  0
 30 31  1  0  0  0  0
 30 32  1  0  0  0  0
 30 33  1  0  0  0  0
M  END
$$$$

  -OEChem-03222214063D

 33 32  0     1  0  0  0  0  0999 V2000
   -2.8777   -4.8911    0.5895 H   0  0  0  0  0  0  0  0  0  0  0  0
   -2.9102   -3.8892    0.1521 C   0  0  0  0  0  0  0  0  0  0  0  0
   -3.7142   -3.3233    0.6285 H   0  0  0  0  0  0  0  0  0  0  0  0
   -3.1194   -3.9805   -0.9164 H   0  0  0  0  0  0  0  0  0  0  0  0
   -1.5828   -3.1854    0.3637 C   0  0  0  0  0  0  0  0  0  0  0  0
   -0.6958   -3.7403    0.9862 O   0  0  0  0  0  0  0  0  0  0  0  0
   -1.3919   -1.9178   -0.1504 N   0  0  0  0  0  0  0  0  0  0  0  0
   -2.1412   -1.5390   -0.7212 H   0  0  0  0  0  0  0  0  0  0  0  0
   -0.1142   -1.1835   -0.0979 C   0  0  1  0  0  0  0  0  0  0  0  0
    0.6300   -1.8058   -0.6080 H   0  0  0  0  0  0  0  0  0  0  0  0
   -0.2833    0.1318   -0.8839 C   0  0  0  0  0  0  0  0  0  0  0  0
   -1.0130   -0.0012   -1.6891 H   0  0  0  0  0  0  0  0  0  0  0  0
   -0.6835    0.8986   -0.2116 H   0  0  0  0  0  0  0  0  0  0  0  0
    1.0378    0.6036   -1.5203 C   0  0  0  0  0  0  0  0  0  0  0  0
    1.8853    0.0724   -1.0735 H   0  0  0  0  0  0  0  0  0  0  0  0
    1.0326    0.3734   -2.5909 H   0  0  0  0  0  0  0  0  0  0  0  0
    1.2459    2.1065   -1.2995 C   0  0  0  0  0  0  0  0  0  0  0  0
    0.4220    2.6599   -1.7612 H   0  0  0  0  0  0  0  0  0  0  0  0
    1.2450    2.3267   -0.2265 H   0  0  0  0  0  0  0  0  0  0  0  0
    2.5707    2.5670   -1.8996 C   0  0  0  0  0  0  0  0  0  0  0  0
    3.4040    2.0712   -1.3888 H   0  0  0  0  0  0  0  0  0  0  0  0
    2.6169    2.3021   -2.9617 H   0  0  0  0  0  0  0  0  0  0  0  0
    2.6756    4.0209   -1.7396 N   0  0  0  0  0  0  0  0  0  0  0  0
    3.5677    4.3679   -2.0916 H   0  0  0  0  0  0  0  0  0  0  0  0
    1.8950    4.4975   -2.1902 H   0  0  0  0  0  0  0  0  0  0  0  0
    0.4351   -0.9121    1.3213 C   0  0  0  0  0  0  0  0  0  0  0  0
    1.6434   -0.9089    1.5168 O   0  0  0  0  0  0  0  0  0  0  0  0
   -0.4110   -0.4560    2.3163 N   0  0  0  0  0  0  0  0  0  0  0  0
   -1.4054   -0.5554    2.1428 H   0  0  0  0  0  0  0  0  0  0  0  0
    0.0426   -0.1692    3.6713 C   0  0  0  0  0  0  0  0  0  0  0  0
    0.8341    0.5875    3.6596 H   0  0  0  0  0  0  0  0  0  0  0  0
   -0.7866    0.2106    4.2756 H   0  0  0  0  0  0  0  0  0  0  0  0
    0.4312   -1.0774    4.1439 H   0  0  0  0  0  0  0  0  0  0  0  0
  1  2  1  0  0  0  0
  2  3  1  0  0  0  0
  2  4  1  0  0  0  0
  2  5  1  0  0  0  0
  5  6  2  0  0  0  0
  5  7  1  0  0  0  0
  7  8  1  0  0  0  0
  7  9  1  0  0  0  0
  9 10  1  0  0  0  0
  9 11  1  0  0  0  0
  9 26  1  0  0  0  0
 11 12  1  0  0  0  0
 11 13  1  0  0  0  0
 11 14  1  0  0  0  0
 14 15  1  0  0  0  0
 14 16  1  0  0  0  0
 14 17  1  0  0  0  0
 17 18  1  0  0  0  0
 17 19  1  0  0  0  0
 17 20  1  0  0  0  0
 20 21  1  0  0  0  0
 20 22  1  0  0  0  0
 20 23  1  0  0  0  0
 23 24  1  0  0  0  0
 23 25  1  0  0  0  0
 26 27  2  0  0  0  0
 26 28  1  0  0  0  0
 28 29  1  0  0  0  0
 28 30  1  0  0  0  0
 30 31  1  0  0  0  0
 30 32  1  0  0  0  0
 30 33  1  0  0  0  0
M  END
$$$$

  -OEChem-03222214063D

 33 32  0     1  0  0  0  0  0999 V2000
   -2.8827   -4.8881    0.6099 H   0  0  0  0  0  0  0  0  0  0  0  0
   -2.9120   -3.8928    0.1572 C   0  0  0  0  0  0  0  0  0  0  0  0
   -3.7163   -3.3183    0.6229 H   0  0  0  0  0  0  0  0  0  0  0  0
   -3.1181   -3.9993   -0.9104 H   0  0  0  0  0  0  0  0  0  0  0  0
   -1.5836   -3.1888    0.3615 C   0  0  0  0  0  0  0  0  0  0  0  0
   -0.6927   -3.7447    0.9776 O   0  0  0  0  0  0  0  0  0  0  0  0
   -1.3942   -1.9209   -0.1530 N   0  0  0  0  0  0  0  0  0  0  0  0
   -2.1492   -1.5364   -0.7124 H   0  0  0  0  0  0  0  0  0  0  0  0
   -0.1159   -1.1868   -0.1026 C   0  0  1  0  0  0  0  0  0  0  0  0
    0.6240   -1.8136   -0.6125 H   0  0  0  0  0  0  0  0  0  0  0  0
   -0.2825    0.1301   -0.8873 C   0  0  0  0  0  0  0  0  0  0  0  0
   -1.0017   -0.0224   -1.6985 H   0  0  0  0  0  0  0  0  0  0  0  0
   -0.7012    0.9007   -0.2307 H   0  0  0  0  0  0  0  0  0  0  0  0
    1.0365    0.6069   -1.5272 C   0  0  0  0  0  0  0  0  0  0  0  0
    1.8473   -0.0984   -1.3143 H   0  0  0  0  0  0  0  0  0  0  0  0
    0.9168    0.6494   -2.6147 H   0  0  0  0  0  0  0  0  0  0  0  0
    1.4327    1.9924   -1.0013 C   0  0  0  0  0  0  0  0  0  0  0  0
    0.6545    2.7174   -1.2600 H   0  0  0  0  0  0  0  0  0  0  0  0
    1.5198    1.9624    0.0902 H   0  0  0  0  0  0  0  0  0  0  0  0
    2.7654    2.4397   -1.5952 C   0  0  0  0  0  0  0  0  0  0  0  0
    3.5643    1.7646   -1.2674 H   0  0  0  0  0  0  0  0  0  0  0  0
    2.7206    2.4075   -2.6894 H   0  0  0  0  0  0  0  0  0  0  0  0
    3.0467    3.8072   -1.1459 N   0  0  0  0  0  0  0  0  0  0  0  0
    3.9518    4.1300   -1.4877 H   0  0  0  0  0  0  0  0  0  0  0  0
    2.3022    4.4464   -1.4222 H   0  0  0  0  0  0  0  0  0  0  0  0
    0.4413   -0.9127    1.3120 C   0  0  0  0  0  0  0  0  0  0  0  0
    1.6508   -0.9086    1.4998 O   0  0  0  0  0  0  0  0  0  0  0  0
   -0.3996   -0.4544    2.3101 N   0  0  0  0  0  0  0  0  0  0  0  0
   -1.3950   -0.5511    2.1422 H   0  0  0  0  0  0  0  0  0  0  0  0
    0.0629   -0.1533    3.6587 C   0  0  0  0  0  0  0  0  0  0  0  0
    0.8460    0.6119    3.6332 H   0  0  0  0  0  0  0  0  0  0  0  0
   -0.7649    0.2219    4.2676 H   0  0  0  0  0  0  0  0  0  0  0  0
    0.4652   -1.0539    4.1341 H   0  0  0  0  0  0  0  0  0  0  0  0
  1  2  1  0  0  0  0
  2  3  1  0  0  0  0
  2  4  1  0  0  0  0
  2  5  1  0  0  0  0
  5  6  2  0  0  0  0
  5  7  1  0  0  0  0
  7  8  1  0  0  0  0
  7  9  1  0  0  0  0
  9 10  1  0  0  0  0
  9 11  1  0  0  0  0
  9 26  1  0  0  0  0
 11 12  1  0  0  0  0
 11 13  1  0  0  0  0
 11 14  1  0  0  0  0
 14 15  1  0  0  0  0
 14 16  1  0  0  0  0
 14 17  1  0  0  0  0
 17 18  1  0  0  0  0
 17 19  1  0  0  0  0
 17 20  1  0  0  0  0
 20 21  1  0  0  0  0
 20 22  1  0  0  0  0
 20 23  1  0  0  0  0
 23 24  1  0  0  0  0
 23 25  1  0  0  0  0
 26 27  2  0  0  0  0
 26 28  1  0  0  0  0
 28 29  1  0  0  0  0
 28 30  1  0  0  0  0
 30 31  1  0  0  0  0
 30 32  1  0  0  0  0
 30 33  1  0  0  0  0
M  END
$$$$

  -OEChem-03222214063D

 33 32  0     1  0  0  0  0  0999 V2000
   -2.9033   -4.8641    0.6168 H   0  0  0  0  0  0  0  0  0  0  0  0
   -2.9208   -3.8663    0.1690 C   0  0  0  0  0  0  0  0  0  0  0  0
   -3.7104   -3.2810    0.6463 H   0  0  0  0  0  0  0  0  0  0  0  0
   -3.1412   -3.9644   -0.8967 H   0  0  0  0  0  0  0  0  0  0  0  0
   -1.5793   -3.1838    0.3619 C   0  0  0  0  0  0  0  0  0  0  0  0
   -0.6949   -3.7505    0.9773 O   0  0  0  0  0  0  0  0  0  0  0  0
   -1.3761   -1.9184   -0.1535 N   0  0  0  0  0  0  0  0  0  0  0  0
   -2.1291   -1.5239   -0.7084 H   0  0  0  0  0  0  0  0  0  0  0  0
   -0.0938   -1.1914   -0.0960 C   0  0  1  0  0  0  0  0  0  0  0  0
    0.6489   -1.8224   -0.5967 H   0  0  0  0  0  0  0  0  0  0  0  0
   -0.2553    0.1223   -0.8902 C   0  0  0  0  0  0  0  0  0  0  0  0
   -0.9616   -0.0516   -1.7083 H   0  0  0  0  0  0  0  0  0  0  0  0
   -0.6902    0.9006   -0.2537 H   0  0  0  0  0  0  0  0  0  0  0  0
    1.0594    0.6061   -1.5316 C   0  0  0  0  0  0  0  0  0  0  0  0
    1.7937   -0.2051   -1.5748 H   0  0  0  0  0  0  0  0  0  0  0  0
    0.8577    0.9189   -2.5613 H   0  0  0  0  0  0  0  0  0  0  0  0
    1.6455    1.7982   -0.7631 C   0  0  0  0  0  0  0  0  0  0  0  0
    0.9300    2.6267   -0.7749 H   0  0  0  0  0  0  0  0  0  0  0  0
    1.8226    1.5205    0.2809 H   0  0  0  0  0  0  0  0  0  0  0  0
    2.9613    2.2540   -1.3870 C   0  0  0  0  0  0  0  0  0  0  0  0
    3.7121    1.4612   -1.2933 H   0  0  0  0  0  0  0  0  0  0  0  0
    2.8195    2.4647   -2.4526 H   0  0  0  0  0  0  0  0  0  0  0  0
    3.4176    3.4640   -0.6953 N   0  0  0  0  0  0  0  0  0  0  0  0
    4.3143    3.7839   -1.0608 H   0  0  0  0  0  0  0  0  0  0  0  0
    2.7169    4.2028   -0.7435 H   0  0  0  0  0  0  0  0  0  0  0  0
    0.4478   -0.9210    1.3252 C   0  0  0  0  0  0  0  0  0  0  0  0
    1.6528   -0.9566    1.5362 O   0  0  0  0  0  0  0  0  0  0  0  0
   -0.4006   -0.4577    2.3149 N   0  0  0  0  0  0  0  0  0  0  0  0
   -1.3948   -0.5409    2.1326 H   0  0  0  0  0  0  0  0  0  0  0  0
    0.0460   -0.1912    3.6763 C   0  0  0  0  0  0  0  0  0  0  0  0
    0.8530    0.5493    3.6771 H   0  0  0  0  0  0  0  0  0  0  0  0
   -0.7809    0.2009    4.2759 H   0  0  0  0  0  0  0  0  0  0  0  0
    0.4116   -1.1109    4.1453 H   0  0  0  0  0  0  0  0  0  0  0  0
  1  2  1  0  0  0  0
  2  3  1  0  0  0  0
  2  4  1  0  0  0  0
  2  5  1  0  0  0  0
  5  6  2  0  0  0  0
  5  7  1  0  0  0  0
  7  8  1  0  0  0  0
  7  9  1  0  0  0  0
  9 10  1  0  0  0  0
  9 11  1  0  0  0  0
  9 26  1  0  0  0  0
 11 12  1  0  0  0  0
 11 13  1  0  0  0  0
 11 14  1  0  0  0  0
 14 15  1  0  0  0  0
 14 16  1  0  0  0  0
 14 17  1  0  0  0  0
 17 18  1  0  0  0  0
 17 19  1  0  0  0  0
 17 20  1  0  0  0  0
 20 21  1  0  0  0  0
 20 22  1  0  0  0  0
 20 23  1  0  0  0  0
 23 24  1  0  0  0  0
 23 25  1  0  0  0  0
 26 27  2  0  0  0  0
 26 28  1  0  0  0  0
 28 29  1  0  0  0  0
 28 30  1  0  0  0  0
 30 31  1  0  0  0  0
 30 32  1  0  0  0  0
 30 33  1  0  0  0  0
M  END
$$$$

  -OEChem-03222214063D

 33 32  0     1  0  0  0  0  0999 V2000
   -2.9441   -4.8193    0.6290 H   0  0  0  0  0  0  0  0  0  0  0  0
   -2.9374   -3.8192    0.1856 C   0  0  0  0  0  0  0  0  0  0  0  0
   -3.7095   -3.2156    0.6685 H   0  0  0  0  0  0  0  0  0  0  0  0
   -3.1634   -3.9063   -0.8799 H   0  0  0  0  0  0  0  0  0  0  0  0
   -1.5783   -3.1729    0.3782 C   0  0  0  0  0  0  0  0  0  0  0  0
   -0.7107   -3.7641    0.9940 O   0  0  0  0  0  0  0  0  0  0  0  0
   -1.3411   -1.9153   -0.1425 N   0  0  0  0  0  0  0  0  0  0  0  0
   -2.0814   -1.5065   -0.7040 H   0  0  0  0  0  0  0  0  0  0  0  0
   -0.0468   -1.2100   -0.0677 C   0  0  1  0  0  0  0  0  0  0  0  0
    0.7044   -1.8435   -0.5520 H   0  0  0  0  0  0  0  0  0  0  0  0
   -0.2011    0.1000   -0.8747 C   0  0  0  0  0  0  0  0  0  0  0  0
   -0.9040   -0.0820   -1.6943 H   0  0  0  0  0  0  0  0  0  0  0  0
   -0.6379    0.8839   -0.2470 H   0  0  0  0  0  0  0  0  0  0  0  0
    1.1031    0.5975   -1.5242 C   0  0  0  0  0  0  0  0  0  0  0  0
    1.7281   -0.2520   -1.8193 H   0  0  0  0  0  0  0  0  0  0  0  0
    0.8446    1.1455   -2.4365 H   0  0  0  0  0  0  0  0  0  0  0  0
    1.8960    1.5407   -0.6084 C   0  0  0  0  0  0  0  0  0  0  0  0
    1.2644    2.3872   -0.3214 H   0  0  0  0  0  0  0  0  0  0  0  0
    2.1987    1.0225    0.3046 H   0  0  0  0  0  0  0  0  0  0  0  0
    3.1444    2.0569   -1.3190 C   0  0  0  0  0  0  0  0  0  0  0  0
    3.8160    1.2213   -1.5462 H   0  0  0  0  0  0  0  0  0  0  0  0
    2.8674    2.5381   -2.2633 H   0  0  0  0  0  0  0  0  0  0  0  0
    3.8215    3.0224   -0.4479 N   0  0  0  0  0  0  0  0  0  0  0  0
    4.6685    3.3860   -0.8836 H   0  0  0  0  0  0  0  0  0  0  0  0
    3.1942    3.7788   -0.1770 H   0  0  0  0  0  0  0  0  0  0  0  0
    0.4477   -0.9521    1.3739 C   0  0  0  0  0  0  0  0  0  0  0  0
    1.6294   -1.0922    1.6576 O   0  0  0  0  0  0  0  0  0  0  0  0
   -0.4286   -0.4746    2.3322 N   0  0  0  0  0  0  0  0  0  0  0  0
   -1.4136   -0.4901    2.0918 H   0  0  0  0  0  0  0  0  0  0  0  0
   -0.0458   -0.2827    3.7250 C   0  0  0  0  0  0  0  0  0  0  0  0
    0.7884    0.4230    3.7987 H   0  0  0  0  0  0  0  0  0  0  0  0
   -0.8875    0.1184    4.2975 H   0  0  0  0  0  0  0  0  0  0  0  0
    0.2576   -1.2352    4.1724 H   0  0  0  0  0  0  0  0  0  0  0  0
  1  2  1  0  0  0  0
  2  3  1  0  0  0  0
  2  4  1  0  0  0  0
  2  5  1  0  0  0  0
  5  6  2  0  0  0  0
  5  7  1  0  0  0  0
  7  8  1  0  0  0  0
  7  9  1  0  0  0  0
  9 10  1  0  0  0  0
  9 11  1  0  0  0  0
  9 26  1  0  0  0  0
 11 12  1  0  0  0  0
 11 13  1  0  0  0  0
 11 14  1  0  0  0  0
 14 15  1  0  0  0  0
 14 16  1  0  0  0  0
 14 17  1  0  0  0  0
 17 18  1  0  0  0  0
 17 19  1  0  0  0  0
 17 20  1  0  0  0  0
 20 21  1  0  0  0  0
 20 22  1  0  0  0  0
 20 23  1  0  0  0  0
 23 24  1  0  0  0  0
 23 25  1  0  0  0  0
 26 27  2  0  0  0  0
 26 28  1  0  0  0  0
 28 29  1  0  0  0  0
 28 30  1  0  0  0  0
 30 31  1  0  0  0  0
 30 32  1  0  0  0  0
 30 33  1  0  0  0  0
M  END
$$$$

  -OEChem-03222214063D

 33 32  0     1  0  0  0  0  0999 V2000
   -3.0249   -4.7714    0.6615 H   0  0  0  0  0  0  0  0  0  0  0  0
   -2.9821   -3.7821    0.1964 C   0  0  0  0  0  0  0  0  0  0  0  0
   -3.7589   -3.1526    0.6369 H   0  0  0  0  0  0  0  0  0  0  0  0
   -3.1709   -3.8901   -0.8743 H   0  0  0  0  0  0  0  0  0  0  0  0
   -1.6173   -3.1590    0.4233 C   0  0  0  0  0  0  0  0  0  0  0  0
   -0.7846   -3.7576    1.0785 O   0  0  0  0  0  0  0  0  0  0  0  0
   -1.3320   -1.9215   -0.1221 N   0  0  0  0  0  0  0  0  0  0  0  0
   -2.0432   -1.5137   -0.7207 H   0  0  0  0  0  0  0  0  0  0  0  0
   -0.0164   -1.2546   -0.0438 C   0  0  1  0  0  0  0  0  0  0  0  0
    0.7304   -1.9077   -0.5089 H   0  0  0  0  0  0  0  0  0  0  0  0
   -0.1376    0.0506   -0.8662 C   0  0  0  0  0  0  0  0  0  0  0  0
   -0.8513   -0.1159   -1.6798 H   0  0  0  0  0  0  0  0  0  0  0  0
   -0.5473    0.8491   -0.2388 H   0  0  0  0  0  0  0  0  0  0  0  0
    1.1676    0.5283   -1.5292 C   0  0  0  0  0  0  0  0  0  0  0  0
    1.6453   -0.3064   -2.0528 H   0  0  0  0  0  0  0  0  0  0  0  0
    0.9005    1.2771   -2.2824 H   0  0  0  0  0  0  0  0  0  0  0  0
    2.1678    1.1608   -0.5523 C   0  0  0  0  0  0  0  0  0  0  0  0
    1.6515    1.8707    0.1013 H   0  0  0  0  0  0  0  0  0  0  0  0
    2.6196    0.3874    0.0729 H   0  0  0  0  0  0  0  0  0  0  0  0
    3.2786    1.8851   -1.3096 C   0  0  0  0  0  0  0  0  0  0  0  0
    3.8147    1.1799   -1.9547 H   0  0  0  0  0  0  0  0  0  0  0  0
    2.8507    2.6691   -1.9439 H   0  0  0  0  0  0  0  0  0  0  0  0
    4.2039    2.4770   -0.3392 N   0  0  0  0  0  0  0  0  0  0  0  0
    4.9377    3.0133   -0.8010 H   0  0  0  0  0  0  0  0  0  0  0  0
    3.7069    3.0458    0.3458 H   0  0  0  0  0  0  0  0  0  0  0  0
    0.4434   -0.9890    1.4106 C   0  0  0  0  0  0  0  0  0  0  0  0
    1.6009   -1.1904    1.7499 O   0  0  0  0  0  0  0  0  0  0  0  0
   -0.4482   -0.4691    2.3329 N   0  0  0  0  0  0  0  0  0  0  0  0
   -1.4240   -0.4611    2.0579 H   0  0  0  0  0  0  0  0  0  0  0  0
   -0.1149   -0.3001    3.7415 C   0  0  0  0  0  0  0  0  0  0  0  0
    0.7580    0.3520    3.8532 H   0  0  0  0  0  0  0  0  0  0  0  0
   -0.9539    0.1535    4.2777 H   0  0  0  0  0  0  0  0  0  0  0  0
    0.1088   -1.2695    4.1994 H   0  0  0  0  0  0  0  0  0  0  0  0
  1  2  1  0  0  0  0
  2  3  1  0  0  0  0
  2  4  1  0  0  0  0
  2  5  1  0  0  0  0
  5  6  2  0  0  0  0
  5  7  1  0  0  0  0
  7  8  1  0  0  0  0
  7  9  1  0  0  0  0
  9 10  1  0  0  0  0
  9 11  1  0  0  0  0
  9 26  1  0  0  0  0
 11 12  1  0  0  0  0
 11 13  1  0  0  0  0
 11 14  1  0  0  0  0
 14 15  1  0  0  0  0
 14 16  1  0  0  0  0
 14 17  1  0  0  0  0
 17 18  1  0  0  0  0
 17 19  1  0  0  0  0
 17 20  1  0  0  0  0
 20 21  1  0  0  0  0
 20 22  1  0  0  0  0
 20 23  1  0  0  0  0
 23 24  1  0  0  0  0
 23 25  1  0  0  0  0
 26 27  2  0  0  0  0
 26 28  1  0  0  0  0
 28 29  1  0  0  0  0
 28 30  1  0  0  0  0
 30 31  1  0  0  0  0
 30 32  1  0  0  0  0
 30 33  1  0  0  0  0
M  END
$$$$

  -OEChem-03222214063D

 33 32  0     1  0  0  0  0  0999 V2000
   -3.0449   -4.7626    0.6919 H   0  0  0  0  0  0  0  0  0  0  0  0
   -2.9946   -3.7760    0.2223 C   0  0  0  0  0  0  0  0  0  0  0  0
   -3.7703   -3.1404    0.6559 H   0  0  0  0  0  0  0  0  0  0  0  0
   -3.1789   -3.8882   -0.8487 H   0  0  0  0  0  0  0  0  0  0  0  0
   -1.6275   -3.1588    0.4517 C   0  0  0  0  0  0  0  0  0  0  0  0
   -0.8042   -3.7523    1.1230 O   0  0  0  0  0  0  0  0  0  0  0  0
   -1.3303   -1.9315   -0.1103 N   0  0  0  0  0  0  0  0  0  0  0  0
   -2.0339   -1.5316   -0.7230 H   0  0  0  0  0  0  0  0  0  0  0  0
   -0.0092   -1.2739   -0.0424 C   0  0  1  0  0  0  0  0  0  0  0  0
    0.7366   -1.9321   -0.5021 H   0  0  0  0  0  0  0  0  0  0  0  0
   -0.1283    0.0270   -0.8733 C   0  0  0  0  0  0  0  0  0  0  0  0
   -0.8606   -0.1261   -1.6730 H   0  0  0  0  0  0  0  0  0  0  0  0
   -0.5130    0.8294   -0.2352 H   0  0  0  0  0  0  0  0  0  0  0  0
    1.1678    0.5042   -1.5547 C   0  0  0  0  0  0  0  0  0  0  0  0
    1.4968   -0.2532   -2.2740 H   0  0  0  0  0  0  0  0  0  0  0  0
    0.9297    1.4116   -2.1199 H   0  0  0  0  0  0  0  0  0  0  0  0
    2.3239    0.8082   -0.5952 C   0  0  0  0  0  0  0  0  0  0  0  0
    1.9555    1.3691    0.2696 H   0  0  0  0  0  0  0  0  0  0  0  0
    2.7592   -0.1298   -0.2383 H   0  0  0  0  0  0  0  0  0  0  0  0
    3.4114    1.6202   -1.2944 C   0  0  0  0  0  0  0  0  0  0  0  0
    3.7553    1.0972   -2.1938 H   0  0  0  0  0  0  0  0  0  0  0  0
    3.0112    2.5939   -1.5979 H   0  0  0  0  0  0  0  0  0  0  0  0
    4.5314    1.8025   -0.3675 N   0  0  0  0  0  0  0  0  0  0  0  0
    5.2307    2.4407   -0.7450 H   0  0  0  0  0  0  0  0  0  0  0  0
    4.2055    2.1116    0.5487 H   0  0  0  0  0  0  0  0  0  0  0  0
    0.4403   -0.9978    1.4155 C   0  0  0  0  0  0  0  0  0  0  0  0
    1.5951   -1.1880    1.7701 O   0  0  0  0  0  0  0  0  0  0  0  0
   -0.4579   -0.4627    2.3224 N   0  0  0  0  0  0  0  0  0  0  0  0
   -1.4314   -0.4651    2.0390 H   0  0  0  0  0  0  0  0  0  0  0  0
   -0.1409   -0.2930    3.7348 C   0  0  0  0  0  0  0  0  0  0  0  0
    0.7307    0.3588    3.8567 H   0  0  0  0  0  0  0  0  0  0  0  0
   -0.9863    0.1606    4.2608 H   0  0  0  0  0  0  0  0  0  0  0  0
    0.0772   -1.2624    4.1957 H   0  0  0  0  0  0  0  0  0  0  0  0
  1  2  1  0  0  0  0
  2  3  1  0  0  0  0
  2  4  1  0  0  0  0
  2  5  1  0  0  0  0
  5  6  2  0  0  0  0
  5  7  1  0  0  0  0
  7  8  1  0  0  0  0
  7  9  1  0  0  0  0
  9 10  1  0  0  0  0
  9 11  1  0  0  0  0
  9 26  1  0  0  0  0
 11 12  1  0  0  0  0
 11 13  1  0  0  0  0
 11 14  1  0  0  0  0
 14 15  1  0  0  0  0
 14 16  1  0  0  0  0
 14 17  1  0  0  0  0
 17 18  1  0  0  0  0
 17 19  1  0  0  0  0
 17 20  1  0  0  0  0
 20 21  1  0  0  0  0
 20 22  1  0  0  0  0
 20 23  1  0  0  0  0
 23 24  1  0  0  0  0
 23 25  1  0  0  0  0
 26 27  2  0  0  0  0
 26 28  1  0  0  0  0
 28 29  1  0  0  0  0
 28 30  1  0  0  0  0
 30 31  1  0  0  0  0
 30 32  1  0  0  0  0
 30 33  1  0  0  0  0
M  END
$$$$

  -OEChem-03222214063D

 33 32  0     1  0  0  0  0  0999 V2000
   -3.0304   -4.7846    0.6814 H   0  0  0  0  0  0  0  0  0  0  0  0
   -2.9872   -3.7937    0.2200 C   0  0  0  0  0  0  0  0  0  0  0  0
   -3.7649   -3.1661    0.6614 H   0  0  0  0  0  0  0  0  0  0  0  0
   -3.1743   -3.8978   -0.8514 H   0  0  0  0  0  0  0  0  0  0  0  0
   -1.6232   -3.1709    0.4511 C   0  0  0  0  0  0  0  0  0  0  0  0
   -0.7977   -3.7616    1.1224 O   0  0  0  0  0  0  0  0  0  0  0  0
   -1.3330   -1.9397   -0.1058 N   0  0  0  0  0  0  0  0  0  0  0  0
   -2.0360   -1.5443   -0.7221 H   0  0  0  0  0  0  0  0  0  0  0  0
   -0.0157   -1.2752   -0.0324 C   0  0  1  0  0  0  0  0  0  0  0  0
    0.7324   -1.9287   -0.4945 H   0  0  0  0  0  0  0  0  0  0  0  0
   -0.1419    0.0310   -0.8569 C   0  0  0  0  0  0  0  0  0  0  0  0
   -0.8860   -0.1090   -1.6478 H   0  0  0  0  0  0  0  0  0  0  0  0
   -0.5189    0.8214   -0.1995 H   0  0  0  0  0  0  0  0  0  0  0  0
    1.1416    0.5401   -1.5450 C   0  0  0  0  0  0  0  0  0  0  0  0
    1.3284   -0.0784   -2.4294 H   0  0  0  0  0  0  0  0  0  0  0  0
    0.9565    1.5616   -1.8928 H   0  0  0  0  0  0  0  0  0  0  0  0
    2.4084    0.5254   -0.6831 C   0  0  0  0  0  0  0  0  0  0  0  0
    2.2090    1.0096    0.2780 H   0  0  0  0  0  0  0  0  0  0  0  0
    2.7149   -0.5084   -0.4942 H   0  0  0  0  0  0  0  0  0  0  0  0
    3.5500    1.2603   -1.3806 C   0  0  0  0  0  0  0  0  0  0  0  0
    3.7128    0.8477   -2.3823 H   0  0  0  0  0  0  0  0  0  0  0  0
    3.2992    2.3216   -1.4851 H   0  0  0  0  0  0  0  0  0  0  0  0
    4.7646    1.1045   -0.5766 N   0  0  0  0  0  0  0  0  0  0  0  0
    5.5187    1.6994   -0.9173 H   0  0  0  0  0  0  0  0  0  0  0  0
    4.5756    1.2766    0.4118 H   0  0  0  0  0  0  0  0  0  0  0  0
    0.4260   -1.0042    1.4301 C   0  0  0  0  0  0  0  0  0  0  0  0
    1.5827   -1.1773    1.7886 O   0  0  0  0  0  0  0  0  0  0  0  0
   -0.4808   -0.4789    2.3347 N   0  0  0  0  0  0  0  0  0  0  0  0
   -1.4530   -0.4877    2.0468 H   0  0  0  0  0  0  0  0  0  0  0  0
   -0.1710   -0.3038    3.7481 C   0  0  0  0  0  0  0  0  0  0  0  0
    0.6849    0.3678    3.8725 H   0  0  0  0  0  0  0  0  0  0  0  0
   -1.0275    0.1296    4.2730 H   0  0  0  0  0  0  0  0  0  0  0  0
    0.0682   -1.2682    4.2088 H   0  0  0  0  0  0  0  0  0  0  0  0
  1  2  1  0  0  0  0
  2  3  1  0  0  0  0
  2  4  1  0  0  0  0
  2  5  1  0  0  0  0
  5  6  2  0  0  0  0
  5  7  1  0  0  0  0
  7  8  1  0  0  0  0
  7  9  1  0  0  0  0
  9 10  1  0  0  0  0
  9 11  1  0  0  0  0
  9 26  1  0  0  0  0
 11 12  1  0  0  0  0
 11 13  1  0  0  0  0
 11 14  1  0  0  0  0
 14 15  1  0  0  0  0
 14 16  1  0  0  0  0
 14 17  1  0  0  0  0
 17 18  1  0  0  0  0
 17 19  1  0  0  0  0
 17 20  1  0  0  0  0
 20 21  1  0  0  0  0
 20 22  1  0  0  0  0
 20 23  1  0  0  0  0
 23 24  1  0  0  0  0
 23 25  1  0  0  0  0
 26 27  2  0  0  0  0
 26 28  1  0  0  0  0
 28 29  1  0  0  0  0
 28 30  1  0  0  0  0
 30 31  1  0  0  0  0
 30 32  1  0  0  0  0
 30 33  1  0  0  0  0
M  END
$$$$

  -OEChem-03222214063D

 33 32  0     1  0  0  0  0  0999 V2000
   -3.0477   -4.7999    0.6507 H   0  0  0  0  0  0  0  0  0  0  0  0
   -2.9979   -3.8096    0.1888 C   0  0  0  0  0  0  0  0  0  0  0  0
   -3.7889   -3.1849    0.6104 H   0  0  0  0  0  0  0  0  0  0  0  0
   -3.1592   -3.9165   -0.8865 H   0  0  0  0  0  0  0  0  0  0  0  0
   -1.6427   -3.1796    0.4513 C   0  0  0  0  0  0  0  0  0  0  0  0
   -0.8296   -3.7664    1.1410 O   0  0  0  0  0  0  0  0  0  0  0  0
   -1.3474   -1.9454   -0.0963 N   0  0  0  0  0  0  0  0  0  0  0  0
   -2.0386   -1.5550   -0.7290 H   0  0  0  0  0  0  0  0  0  0  0  0
   -0.0305   -1.2817   -0.0080 C   0  0  1  0  0  0  0  0  0  0  0  0
    0.7119   -1.9430   -0.4667 H   0  0  0  0  0  0  0  0  0  0  0  0
   -0.1446    0.0265   -0.8333 C   0  0  0  0  0  0  0  0  0  0  0  0
   -0.8887   -0.1072   -1.6253 H   0  0  0  0  0  0  0  0  0  0  0  0
   -0.5258    0.8109   -0.1709 H   0  0  0  0  0  0  0  0  0  0  0  0
    1.1358    0.5593   -1.5175 C   0  0  0  0  0  0  0  0  0  0  0  0
    1.1827    0.1233   -2.5210 H   0  0  0  0  0  0  0  0  0  0  0  0
    1.0352    1.6430   -1.6385 H   0  0  0  0  0  0  0  0  0  0  0  0
    2.4688    0.2512   -0.8242 C   0  0  0  0  0  0  0  0  0  0  0  0
    2.4492    0.6387    0.1985 H   0  0  0  0  0  0  0  0  0  0  0  0
    2.6344   -0.8298   -0.7838 H   0  0  0  0  0  0  0  0  0  0  0  0
    3.6310    0.9013   -1.5695 C   0  0  0  0  0  0  0  0  0  0  0  0
    3.6280    0.5968   -2.6220 H   0  0  0  0  0  0  0  0  0  0  0  0
    3.5345    1.9918   -1.5286 H   0  0  0  0  0  0  0  0  0  0  0  0
    4.8818    0.4787   -0.9348 N   0  0  0  0  0  0  0  0  0  0  0  0
    5.6800    0.9995   -1.2961 H   0  0  0  0  0  0  0  0  0  0  0  0
    4.8210    0.5559    0.0817 H   0  0  0  0  0  0  0  0  0  0  0  0
    0.4099   -1.0140    1.4547 C   0  0  0  0  0  0  0  0  0  0  0  0
    1.5685   -1.1811    1.8104 O   0  0  0  0  0  0  0  0  0  0  0  0
   -0.4978   -0.4902    2.3587 N   0  0  0  0  0  0  0  0  0  0  0  0
   -1.4705   -0.5064    2.0726 H   0  0  0  0  0  0  0  0  0  0  0  0
   -0.1865   -0.3071    3.7706 C   0  0  0  0  0  0  0  0  0  0  0  0
    0.6717    0.3625    3.8904 H   0  0  0  0  0  0  0  0  0  0  0  0
   -1.0413    0.1327    4.2928 H   0  0  0  0  0  0  0  0  0  0  0  0
    0.0497   -1.2694    4.2373 H   0  0  0  0  0  0  0  0  0  0  0  0
  1  2  1  0  0  0  0
  2  3  1  0  0  0  0
  2  4  1  0  0  0  0
  2  5  1  0  0  0  0
  5  6  2  0  0  0  0
  5  7  1  0  0  0  0
  7  8  1  0  0  0  0
  7  9  1  0  0  0  0
  9 10  1  0  0  0  0
  9 11  1  0  0  0  0
  9 26  1  0  0  0  0
 11 12  1  0  0  0  0
 11 13  1  0  0  0  0
 11 14  1  0  0  0  0
 14 15  1  0  0  0  0
 14 16  1  0  0  0  0
 14 17  1  0  0  0  0
 17 18  1  0  0  0  0
 17 19  1  0  0  0  0
 17 20  1  0  0  0  0
 20 21  1  0  0  0  0
 20 22  1  0  0  0  0
 20 23  1  0  0  0  0
 23 24  1  0  0  0  0
 23 25  1  0  0  0  0
 26 27  2  0  0  0  0
 26 28  1  0  0  0  0
 28 29  1  0  0  0  0
 28 30  1  0  0  0  0
 30 31  1  0  0  0  0
 30 32  1  0  0  0  0
 30 33  1  0  0  0  0
M  END
$$$$

  -OEChem-03222214063D

 33 32  0     1  0  0  0  0  0999 V2000
   -3.0968   -4.7925    0.6505 H   0  0  0  0  0  0  0  0  0  0  0  0
   -3.0318   -3.8049    0.1847 C   0  0  0  0  0  0  0  0  0  0  0  0
   -3.8257   -3.1726    0.5890 H   0  0  0  0  0  0  0  0  0  0  0  0
   -3.1746   -3.9156   -0.8928 H   0  0  0  0  0  0  0  0  0  0  0  0
   -1.6774   -3.1827    0.4682 C   0  0  0  0  0  0  0  0  0  0  0  0
   -0.8824   -3.7678    1.1802 O   0  0  0  0  0  0  0  0  0  0  0  0
   -1.3636   -1.9556   -0.0848 N   0  0  0  0  0  0  0  0  0  0  0  0
   -2.0368   -1.5718   -0.7405 H   0  0  0  0  0  0  0  0  0  0  0  0
   -0.0392   -1.3079    0.0097 C   0  0  1  0  0  0  0  0  0  0  0  0
    0.6927   -1.9863   -0.4385 H   0  0  0  0  0  0  0  0  0  0  0  0
   -0.1324    0.0022   -0.8162 C   0  0  0  0  0  0  0  0  0  0  0  0
   -0.8749   -0.1310   -1.6099 H   0  0  0  0  0  0  0  0  0  0  0  0
   -0.5177    0.7883   -0.1582 H   0  0  0  0  0  0  0  0  0  0  0  0
    1.1471    0.5407   -1.5044 C   0  0  0  0  0  0  0  0  0  0  0  0
    1.0520    0.3451   -2.5779 H   0  0  0  0  0  0  0  0  0  0  0  0
    1.1701    1.6281   -1.3761 H   0  0  0  0  0  0  0  0  0  0  0  0
    2.4963   -0.0372   -1.0540 C   0  0  0  0  0  0  0  0  0  0  0  0
    2.6413    0.1475    0.0127 H   0  0  0  0  0  0  0  0  0  0  0  0
    2.5267   -1.1164   -1.2306 H   0  0  0  0  0  0  0  0  0  0  0  0
    3.6449    0.6174   -1.8166 C   0  0  0  0  0  0  0  0  0  0  0  0
    3.4972    0.5074   -2.8965 H   0  0  0  0  0  0  0  0  0  0  0  0
    3.6841    1.6874   -1.5839 H   0  0  0  0  0  0  0  0  0  0  0  0
    4.8948   -0.0346   -1.4176 N   0  0  0  0  0  0  0  0  0  0  0  0
    5.7067    0.4450   -1.8050 H   0  0  0  0  0  0  0  0  0  0  0  0
    4.9608   -0.1047   -0.4006 H   0  0  0  0  0  0  0  0  0  0  0  0
    0.3982   -1.0347    1.4718 C   0  0  0  0  0  0  0  0  0  0  0  0
    1.5561   -1.2020    1.8301 O   0  0  0  0  0  0  0  0  0  0  0  0
   -0.5071   -0.4927    2.3677 N   0  0  0  0  0  0  0  0  0  0  0  0
   -1.4794   -0.5075    2.0802 H   0  0  0  0  0  0  0  0  0  0  0  0
   -0.1978   -0.2945    3.7781 C   0  0  0  0  0  0  0  0  0  0  0  0
    0.6668    0.3679    3.8918 H   0  0  0  0  0  0  0  0  0  0  0  0
   -1.0497    0.1606    4.2921 H   0  0  0  0  0  0  0  0  0  0  0  0
    0.0275   -1.2528    4.2580 H   0  0  0  0  0  0  0  0  0  0  0  0
  1  2  1  0  0  0  0
  2  3  1  0  0  0  0
  2  4  1  0  0  0  0
  2  5  1  0  0  0  0
  5  6  2  0  0  0  0
  5  7  1  0  0  0  0
  7  8  1  0  0  0  0
  7  9  1  0  0  0  0
  9 10  1  0  0  0  0
  9 11  1  0  0  0  0
  9 26  1  0  0  0  0
 11 12  1  0  0  0  0
 11 13  1  0  0  0  0
 11 14  1  0  0  0  0
 14 15  1  0  0  0  0
 14 16  1  0  0  0  0
 14 17  1  0  0  0  0
 17 18  1  0  0  0  0
 17 19  1  0  0  0  0
 17 20  1  0  0  0  0
 20 21  1  0  0  0  0
 20 22  1  0  0  0  0
 20 23  1  0  0  0  0
 23 24  1  0  0  0  0
 23 25  1  0  0  0  0
 26 27  2  0  0  0  0
 26 28  1  0  0  0  0
 28 29  1  0  0  0  0
 28 30  1  0  0  0  0
 30 31  1  0  0  0  0
 30 32  1  0  0  0  0
 30 33  1  0  0  0  0
M  END
$$$$

  -OEChem-03222214063D

 33 32  0     1  0  0  0  0  0999 V2000
   -3.1136   -4.7968    0.6814 H   0  0  0  0  0  0  0  0  0  0  0  0
   -3.0505   -3.8131    0.2071 C   0  0  0  0  0  0  0  0  0  0  0  0
   -3.8399   -3.1760    0.6130 H   0  0  0  0  0  0  0  0  0  0  0  0
   -3.2029   -3.9326   -0.8682 H   0  0  0  0  0  0  0  0  0  0  0  0
   -1.6925   -3.1913    0.4743 C   0  0  0  0  0  0  0  0  0  0  0  0
   -0.8930   -3.7723    1.1847 O   0  0  0  0  0  0  0  0  0  0  0  0
   -1.3807   -1.9670   -0.0861 N   0  0  0  0  0  0  0  0  0  0  0  0
   -2.0572   -1.5849   -0.7396 H   0  0  0  0  0  0  0  0  0  0  0  0
   -0.0538   -1.3230   -0.0035 C   0  0  1  0  0  0  0  0  0  0  0  0
    0.6706   -2.0075   -0.4538 H   0  0  0  0  0  0  0  0  0  0  0  0
   -0.1387   -0.0034   -0.8148 C   0  0  0  0  0  0  0  0  0  0  0  0
   -0.8742   -0.1444   -1.6137 H   0  0  0  0  0  0  0  0  0  0  0  0
   -0.5340    0.7844   -0.1647 H   0  0  0  0  0  0  0  0  0  0  0  0
    1.1413    0.5300   -1.5079 C   0  0  0  0  0  0  0  0  0  0  0  0
    0.9315    0.6332   -2.5779 H   0  0  0  0  0  0  0  0  0  0  0  0
    1.3339    1.5360   -1.1197 H   0  0  0  0  0  0  0  0  0  0  0  0
    2.4309   -0.2894   -1.3511 C   0  0  0  0  0  0  0  0  0  0  0  0
    2.6892   -0.3931   -0.2959 H   0  0  0  0  0  0  0  0  0  0  0  0
    2.2908   -1.2884   -1.7758 H   0  0  0  0  0  0  0  0  0  0  0  0
    3.5938    0.3915   -2.0661 C   0  0  0  0  0  0  0  0  0  0  0  0
    3.3511    0.5506   -3.1224 H   0  0  0  0  0  0  0  0  0  0  0  0
    3.7918    1.3677   -1.6099 H   0  0  0  0  0  0  0  0  0  0  0  0
    4.7730   -0.4701   -1.9497 N   0  0  0  0  0  0  0  0  0  0  0  0
    5.6023   -0.0186   -2.3340 H   0  0  0  0  0  0  0  0  0  0  0  0
    4.9255   -0.7469   -0.9783 H   0  0  0  0  0  0  0  0  0  0  0  0
    0.3988   -1.0444    1.4528 C   0  0  0  0  0  0  0  0  0  0  0  0
    1.5679   -1.1724    1.7901 O   0  0  0  0  0  0  0  0  0  0  0  0
   -0.4976   -0.4958    2.3535 N   0  0  0  0  0  0  0  0  0  0  0  0
   -1.4748   -0.5287    2.0842 H   0  0  0  0  0  0  0  0  0  0  0  0
   -0.1642   -0.2540    3.7515 C   0  0  0  0  0  0  0  0  0  0  0  0
    0.6913    0.4251    3.8300 H   0  0  0  0  0  0  0  0  0  0  0  0
   -1.0133    0.2018    4.2693 H   0  0  0  0  0  0  0  0  0  0  0  0
    0.0860   -1.1949    4.2530 H   0  0  0  0  0  0  0  0  0  0  0  0
  1  2  1  0  0  0  0
  2  3  1  0  0  0  0
  2  4  1  0  0  0  0
  2  5  1  0  0  0  0
  5  6  2  0  0  0  0
  5  7  1  0  0  0  0
  7  8  1  0  0  0  0
  7  9  1  0  0  0  0
  9 10  1  0  0  0  0
  9 11  1  0  0  0  0
  9 26  1  0  0  0  0
 11 12  1  0  0  0  0
 11 13  1  0  0  0  0
 11 14  1  0  0  0  0
 14 15  1  0  0  0  0
 14 16  1  0  0  0  0
 14 17  1  0  0  0  0
 17 18  1  0  0  0  0
 17 19  1  0  0  0  0
 17 20  1  0  0  0  0
 20 21  1  0  0  0  0
 20 22  1  0  0  0  0
 20 23  1  0  0  0  0
 23 24  1  0  0  0  0
 23 25  1  0  0  0  0
 26 27  2  0  0  0  0
 26 28  1  0  0  0  0
 28 29  1  0  0  0  0
 28 30  1  0  0  0  0
 30 31  1  0  0  0  0
 30 32  1  0  0  0  0
 30 33  1  0  0  0  0
M  END
$$$$

  -OEChem-03222214063D

 33 32  0     1  0  0  0  0  0999 V2000
   -3.0900   -4.8315    0.6497 H   0  0  0  0  0  0  0  0  0  0  0  0
   -3.0455   -3.8410    0.1877 C   0  0  0  0  0  0  0  0  0  0  0  0
   -3.8438   -3.2223    0.6044 H   0  0  0  0  0  0  0  0  0  0  0  0
   -3.2002   -3.9494   -0.8886 H   0  0  0  0  0  0  0  0  0  0  0  0
   -1.6971   -3.1997    0.4574 C   0  0  0  0  0  0  0  0  0  0  0  0
   -0.8870   -3.7693    1.1656 O   0  0  0  0  0  0  0  0  0  0  0  0
   -1.4063   -1.9670   -0.0945 N   0  0  0  0  0  0  0  0  0  0  0  0
   -2.0883   -1.5924   -0.7466 H   0  0  0  0  0  0  0  0  0  0  0  0
   -0.0859   -1.3113   -0.0206 C   0  0  1  0  0  0  0  0  0  0  0  0
    0.6290   -1.9982   -0.4812 H   0  0  0  0  0  0  0  0  0  0  0  0
   -0.1694    0.0125   -0.8214 C   0  0  0  0  0  0  0  0  0  0  0  0
   -0.8904   -0.1401   -1.6311 H   0  0  0  0  0  0  0  0  0  0  0  0
   -0.5790    0.8020   -0.1827 H   0  0  0  0  0  0  0  0  0  0  0  0
    1.1189    0.5347   -1.5035 C   0  0  0  0  0  0  0  0  0  0  0  0
    0.8555    0.9205   -2.4940 H   0  0  0  0  0  0  0  0  0  0  0  0
    1.4816    1.3825   -0.9125 H   0  0  0  0  0  0  0  0  0  0  0  0
    2.2855   -0.4552   -1.6451 C   0  0  0  0  0  0  0  0  0  0  0  0
    2.6084   -0.8091   -0.6627 H   0  0  0  0  0  0  0  0  0  0  0  0
    1.9635   -1.3193   -2.2350 H   0  0  0  0  0  0  0  0  0  0  0  0
    3.4733    0.2068   -2.3361 C   0  0  0  0  0  0  0  0  0  0  0  0
    3.1746    0.5942   -3.3165 H   0  0  0  0  0  0  0  0  0  0  0  0
    3.8354    1.0466   -1.7325 H   0  0  0  0  0  0  0  0  0  0  0  0
    4.5307   -0.7945   -2.4958 N   0  0  0  0  0  0  0  0  0  0  0  0
    5.3716   -0.3834   -2.8999 H   0  0  0  0  0  0  0  0  0  0  0  0
    4.7392   -1.2456   -1.6036 H   0  0  0  0  0  0  0  0  0  0  0  0
    0.4057   -1.0311    1.4202 C   0  0  0  0  0  0  0  0  0  0  0  0
    1.5971   -1.0862    1.6953 O   0  0  0  0  0  0  0  0  0  0  0  0
   -0.4685   -0.4934    2.3484 N   0  0  0  0  0  0  0  0  0  0  0  0
   -1.4551   -0.5636    2.1232 H   0  0  0  0  0  0  0  0  0  0  0  0
   -0.0816   -0.2081    3.7241 C   0  0  0  0  0  0  0  0  0  0  0  0
    0.7489    0.5052    3.7489 H   0  0  0  0  0  0  0  0  0  0  0  0
   -0.9235    0.2256    4.2717 H   0  0  0  0  0  0  0  0  0  0  0  0
    0.2284   -1.1275    4.2319 H   0  0  0  0  0  0  0  0  0  0  0  0
  1  2  1  0  0  0  0
  2  3  1  0  0  0  0
  2  4  1  0  0  0  0
  2  5  1  0  0  0  0
  5  6  2  0  0  0  0
  5  7  1  0  0  0  0
  7  8  1  0  0  0  0
  7  9  1  0  0  0  0
  9 10  1  0  0  0  0
  9 11  1  0  0  0  0
  9 26  1  0  0  0  0
 11 12  1  0  0  0  0
 11 13  1  0  0  0  0
 11 14  1  0  0  0  0
 14 15  1  0  0  0  0
 14 16  1  0  0  0  0
 14 17  1  0  0  0  0
 17 18  1  0  0  0  0
 17 19  1  0  0  0  0
 17 20  1  0  0  0  0
 20 21  1  0  0  0  0
 20 22  1  0  0  0  0
 20 23  1  0  0  0  0
 23 24  1  0  0  0  0
 23 25  1  0  0  0  0
 26 27  2  0  0  0  0
 26 28  1  0  0  0  0
 28 29  1  0  0  0  0
 28 30  1  0  0  0  0
 30 31  1  0  0  0  0
 30 32  1  0  0  0  0
 30 33  1  0  0  0  0
M  END
$$$$

  -OEChem-03222214063D

 33 32  0     1  0  0  0  0  0999 V2000
   -3.0482   -4.8597    0.6041 H   0  0  0  0  0  0  0  0  0  0  0  0
   -3.0221   -3.8681    0.1431 C   0  0  0  0  0  0  0  0  0  0  0  0
   -3.8366   -3.2673    0.5545 H   0  0  0  0  0  0  0  0  0  0  0  0
   -3.1661   -3.9783   -0.9344 H   0  0  0  0  0  0  0  0  0  0  0  0
   -1.6897   -3.1986    0.4237 C   0  0  0  0  0  0  0  0  0  0  0  0
   -0.8677   -3.7580    1.1267 O   0  0  0  0  0  0  0  0  0  0  0  0
   -1.4257   -1.9514   -0.1086 N   0  0  0  0  0  0  0  0  0  0  0  0
   -2.1121   -1.5834   -0.7602 H   0  0  0  0  0  0  0  0  0  0  0  0
   -0.1146   -1.2792   -0.0291 C   0  0  1  0  0  0  0  0  0  0  0  0
    0.5952   -1.9657   -0.4966 H   0  0  0  0  0  0  0  0  0  0  0  0
   -0.1942    0.0459   -0.8249 C   0  0  0  0  0  0  0  0  0  0  0  0
   -0.9021   -0.1051   -1.6462 H   0  0  0  0  0  0  0  0  0  0  0  0
   -0.6091    0.8357   -0.1898 H   0  0  0  0  0  0  0  0  0  0  0  0
    1.1113    0.5536   -1.4798 C   0  0  0  0  0  0  0  0  0  0  0  0
    0.8455    1.1713   -2.3440 H   0  0  0  0  0  0  0  0  0  0  0  0
    1.6171    1.2036   -0.7577 H   0  0  0  0  0  0  0  0  0  0  0  0
    2.1173   -0.5239   -1.9132 C   0  0  0  0  0  0  0  0  0  0  0  0
    2.5066   -1.0502   -1.0362 H   0  0  0  0  0  0  0  0  0  0  0  0
    1.6194   -1.2512   -2.5627 H   0  0  0  0  0  0  0  0  0  0  0  0
    3.2916    0.0974   -2.6627 C   0  0  0  0  0  0  0  0  0  0  0  0
    2.9342    0.6451   -3.5417 H   0  0  0  0  0  0  0  0  0  0  0  0
    3.8186    0.8036   -2.0112 H   0  0  0  0  0  0  0  0  0  0  0  0
    4.1951   -0.9791   -3.0785 N   0  0  0  0  0  0  0  0  0  0  0  0
    5.0247   -0.6070   -3.5402 H   0  0  0  0  0  0  0  0  0  0  0  0
    4.4546   -1.5615   -2.2810 H   0  0  0  0  0  0  0  0  0  0  0  0
    0.4065   -1.0066    1.4002 C   0  0  0  0  0  0  0  0  0  0  0  0
    1.6099   -1.0191    1.6256 O   0  0  0  0  0  0  0  0  0  0  0  0
   -0.4497   -0.4903    2.3567 N   0  0  0  0  0  0  0  0  0  0  0  0
   -1.4413   -0.5881    2.1655 H   0  0  0  0  0  0  0  0  0  0  0  0
   -0.0251   -0.1905    3.7181 C   0  0  0  0  0  0  0  0  0  0  0  0
    0.7869    0.5442    3.7139 H   0  0  0  0  0  0  0  0  0  0  0  0
   -0.8596    0.2236    4.2919 H   0  0  0  0  0  0  0  0  0  0  0  0
    0.3247   -1.0998    4.2181 H   0  0  0  0  0  0  0  0  0  0  0  0
  1  2  1  0  0  0  0
  2  3  1  0  0  0  0
  2  4  1  0  0  0  0
  2  5  1  0  0  0  0
  5  6  2  0  0  0  0
  5  7  1  0  0  0  0
  7  8  1  0  0  0  0
  7  9  1  0  0  0  0
  9 10  1  0  0  0  0
  9 11  1  0  0  0  0
  9 26  1  0  0  0  0
 11 12  1  0  0  0  0
 11 13  1  0  0  0  0
 11 14  1  0  0  0  0
 14 15  1  0  0  0  0
 14 16  1  0  0  0  0
 14 17  1  0  0  0  0
 17 18  1  0  0  0  0
 17 19  1  0  0  0  0
 17 20  1  0  0  0  0
 20 21  1  0  0  0  0
 20 22  1  0  0  0  0
 20 23  1  0  0  0  0
 23 24  1  0  0  0  0
 23 25  1  0  0  0  0
 26 27  2  0  0  0  0
 26 28  1  0  0  0  0
 28 29  1  0  0  0  0
 28 30  1  0  0  0  0
 30 31  1  0  0  0  0
 30 32  1  0  0  0  0
 30 33  1  0  0  0  0
M  END
$$$$

  -OEChem-03222214063D

 33 32  0     1  0  0  0  0  0999 V2000
   -3.0257   -4.8628    0.5741 H   0  0  0  0  0  0  0  0  0  0  0  0
   -3.0030   -3.8708    0.1141 C   0  0  0  0  0  0  0  0  0  0  0  0
   -3.8271   -3.2772    0.5167 H   0  0  0  0  0  0  0  0  0  0  0  0
   -3.1339   -3.9822   -0.9648 H   0  0  0  0  0  0  0  0  0  0  0  0
   -1.6797   -3.1895    0.4085 C   0  0  0  0  0  0  0  0  0  0  0  0
   -0.8557   -3.7460    1.1113 O   0  0  0  0  0  0  0  0  0  0  0  0
   -1.4248   -1.9367   -0.1151 N   0  0  0  0  0  0  0  0  0  0  0  0
   -2.1117   -1.5719   -0.7680 H   0  0  0  0  0  0  0  0  0  0  0  0
   -0.1183   -1.2567   -0.0320 C   0  0  1  0  0  0  0  0  0  0  0  0
    0.5967   -1.9364   -0.5003 H   0  0  0  0  0  0  0  0  0  0  0  0
   -0.2001    0.0669   -0.8276 C   0  0  0  0  0  0  0  0  0  0  0  0
   -0.9068   -0.0746   -1.6518 H   0  0  0  0  0  0  0  0  0  0  0  0
   -0.6060    0.8582   -0.1885 H   0  0  0  0  0  0  0  0  0  0  0  0
    1.1175    0.5559   -1.4647 C   0  0  0  0  0  0  0  0  0  0  0  0
    0.8766    1.3611   -2.1668 H   0  0  0  0  0  0  0  0  0  0  0  0
    1.7458    0.9851   -0.6767 H   0  0  0  0  0  0  0  0  0  0  0  0
    1.9347   -0.5236   -2.1912 C   0  0  0  0  0  0  0  0  0  0  0  0
    2.3615   -1.2244   -1.4675 H   0  0  0  0  0  0  0  0  0  0  0  0
    1.2842   -1.0816   -2.8725 H   0  0  0  0  0  0  0  0  0  0  0  0
    3.0774    0.1032   -2.9844 C   0  0  0  0  0  0  0  0  0  0  0  0
    2.6844    0.8193   -3.7145 H   0  0  0  0  0  0  0  0  0  0  0  0
    3.7515    0.6409   -2.3078 H   0  0  0  0  0  0  0  0  0  0  0  0
    3.8013   -0.9667   -3.6770 N   0  0  0  0  0  0  0  0  0  0  0  0
    4.5962   -0.5967   -4.1979 H   0  0  0  0  0  0  0  0  0  0  0  0
    4.1029   -1.6856   -3.0181 H   0  0  0  0  0  0  0  0  0  0  0  0
    0.4083   -0.9882    1.3950 C   0  0  0  0  0  0  0  0  0  0  0  0
    1.6140   -0.9911    1.6086 O   0  0  0  0  0  0  0  0  0  0  0  0
   -0.4439   -0.4827    2.3604 N   0  0  0  0  0  0  0  0  0  0  0  0
   -1.4364   -0.5858    2.1767 H   0  0  0  0  0  0  0  0  0  0  0  0
   -0.0092   -0.1907    3.7203 C   0  0  0  0  0  0  0  0  0  0  0  0
    0.7938    0.5540    3.7142 H   0  0  0  0  0  0  0  0  0  0  0  0
   -0.8425    0.2071    4.3070 H   0  0  0  0  0  0  0  0  0  0  0  0
    0.3571   -1.1004    4.2079 H   0  0  0  0  0  0  0  0  0  0  0  0
  1  2  1  0  0  0  0
  2  3  1  0  0  0  0
  2  4  1  0  0  0  0
  2  5  1  0  0  0  0
  5  6  2  0  0  0  0
  5  7  1  0  0  0  0
  7  8  1  0  0  0  0
  7  9  1  0  0  0  0
  9 10  1  0  0  0  0
  9 11  1  0  0  0  0
  9 26  1  0  0  0  0
 11 12  1  0  0  0  0
 11 13  1  0  0  0  0
 11 14  1  0  0  0  0
 14 15  1  0  0  0  0
 14 16  1  0  0  0  0
 14 17  1  0  0  0  0
 17 18  1  0  0  0  0
 17 19  1  0  0  0  0
 17 20  1  0  0  0  0
 20 21  1  0  0  0  0
 20 22  1  0  0  0  0
 20 23  1  0  0  0  0
 23 24  1  0  0  0  0
 23 25  1  0  0  0  0
 26 27  2  0  0  0  0
 26 28  1  0  0  0  0
 28 29  1  0  0  0  0
 28 30  1  0  0  0  0
 30 31  1  0  0  0  0
 30 32  1  0  0  0  0
 30 33  1  0  0  0  0
M  END
$$$$

  -OEChem-03222214063D

 33 32  0     1  0  0  0  0  0999 V2000
   -2.9900   -4.8656    0.5787 H   0  0  0  0  0  0  0  0  0  0  0  0
   -2.9795   -3.8721    0.1210 C   0  0  0  0  0  0  0  0  0  0  0  0
   -3.7999   -3.2836    0.5385 H   0  0  0  0  0  0  0  0  0  0  0  0
   -3.1276   -3.9808   -0.9562 H   0  0  0  0  0  0  0  0  0  0  0  0
   -1.6550   -3.1855    0.3962 C   0  0  0  0  0  0  0  0  0  0  0  0
   -0.8165   -3.7401    1.0833 O   0  0  0  0  0  0  0  0  0  0  0  0
   -1.4158   -1.9292   -0.1257 N   0  0  0  0  0  0  0  0  0  0  0  0
   -2.1157   -1.5634   -0.7638 H   0  0  0  0  0  0  0  0  0  0  0  0
   -0.1154   -1.2373   -0.0538 C   0  0  1  0  0  0  0  0  0  0  0  0
    0.6098   -1.9004   -0.5307 H   0  0  0  0  0  0  0  0  0  0  0  0
   -0.2216    0.0868   -0.8429 C   0  0  0  0  0  0  0  0  0  0  0  0
   -0.9453   -0.0381   -1.6549 H   0  0  0  0  0  0  0  0  0  0  0  0
   -0.6068    0.8734   -0.1856 H   0  0  0  0  0  0  0  0  0  0  0  0
    1.0971    0.5624   -1.4801 C   0  0  0  0  0  0  0  0  0  0  0  0
    0.9046    1.5137   -1.9871 H   0  0  0  0  0  0  0  0  0  0  0  0
    1.8300    0.7540   -0.6889 H   0  0  0  0  0  0  0  0  0  0  0  0
    1.6980   -0.4283   -2.4898 C   0  0  0  0  0  0  0  0  0  0  0  0
    2.0498   -1.3297   -1.9810 H   0  0  0  0  0  0  0  0  0  0  0  0
    0.9344   -0.7216   -3.2173 H   0  0  0  0  0  0  0  0  0  0  0  0
    2.8775    0.2031   -3.2229 C   0  0  0  0  0  0  0  0  0  0  0  0
    2.5564    1.1119   -3.7439 H   0  0  0  0  0  0  0  0  0  0  0  0
    3.6588    0.4795   -2.5057 H   0  0  0  0  0  0  0  0  0  0  0  0
    3.3971   -0.7690   -4.1892 N   0  0  0  0  0  0  0  0  0  0  0  0
    4.1957   -0.3907   -4.6987 H   0  0  0  0  0  0  0  0  0  0  0  0
    3.6449   -1.6438   -3.7258 H   0  0  0  0  0  0  0  0  0  0  0  0
    0.4176   -0.9706    1.3717 C   0  0  0  0  0  0  0  0  0  0  0  0
    1.6244   -0.9700    1.5793 O   0  0  0  0  0  0  0  0  0  0  0  0
   -0.4322   -0.4776    2.3457 N   0  0  0  0  0  0  0  0  0  0  0  0
   -1.4249   -0.5862    2.1668 H   0  0  0  0  0  0  0  0  0  0  0  0
    0.0084   -0.1948    3.7058 C   0  0  0  0  0  0  0  0  0  0  0  0
    0.8071    0.5543    3.7021 H   0  0  0  0  0  0  0  0  0  0  0  0
   -0.8237    0.1930    4.3008 H   0  0  0  0  0  0  0  0  0  0  0  0
    0.3826   -1.1068    4.1827 H   0  0  0  0  0  0  0  0  0  0  0  0
  1  2  1  0  0  0  0
  2  3  1  0  0  0  0
  2  4  1  0  0  0  0
  2  5  1  0  0  0  0
  5  6  2  0  0  0  0
  5  7  1  0  0  0  0
  7  8  1  0  0  0  0
  7  9  1  0  0  0  0
  9 10  1  0  0  0  0
  9 11  1  0  0  0  0
  9 26  1  0  0  0  0
 11 12  1  0  0  0  0
 11 13  1  0  0  0  0
 11 14  1  0  0  0  0
 14 15  1  0  0  0  0
 14 16  1  0  0  0  0
 14 17  1  0  0  0  0
 17 18  1  0  0  0  0
 17 19  1  0  0  0  0
 17 20  1  0  0  0  0
 20 21  1  0  0  0  0
 20 22  1  0  0  0  0
 20 23  1  0  0  0  0
 23 24  1  0  0  0  0
 23 25  1  0  0  0  0
 26 27  2  0  0  0  0
 26 28  1  0  0  0  0
 28 29  1  0  0  0  0
 28 30  1  0  0  0  0
 30 31  1  0  0  0  0
 30 32  1  0  0  0  0
 30 33  1  0  0  0  0
M  END
$$$$

  -OEChem-03222214063D

 33 32  0     1  0  0  0  0  0999 V2000
   -2.9065   -4.8901    0.5598 H   0  0  0  0  0  0  0  0  0  0  0  0
   -2.9254   -3.8899    0.1173 C   0  0  0  0  0  0  0  0  0  0  0  0
   -3.7452   -3.3231    0.5651 H   0  0  0  0  0  0  0  0  0  0  0  0
   -3.0997   -3.9853   -0.9572 H   0  0  0  0  0  0  0  0  0  0  0  0
   -1.6065   -3.1832    0.3689 C   0  0  0  0  0  0  0  0  0  0  0  0
   -0.7415   -3.7328    1.0265 O   0  0  0  0  0  0  0  0  0  0  0  0
   -1.4011   -1.9164   -0.1421 N   0  0  0  0  0  0  0  0  0  0  0  0
   -2.1220   -1.5549   -0.7593 H   0  0  0  0  0  0  0  0  0  0  0  0
   -0.1138   -1.1987   -0.0860 C   0  0  1  0  0  0  0  0  0  0  0  0
    0.6255   -1.8291   -0.5894 H   0  0  0  0  0  0  0  0  0  0  0  0
   -0.2681    0.1305   -0.8564 C   0  0  0  0  0  0  0  0  0  0  0  0
   -1.0155    0.0201   -1.6487 H   0  0  0  0  0  0  0  0  0  0  0  0
   -0.6354    0.9029   -0.1725 H   0  0  0  0  0  0  0  0  0  0  0  0
    1.0436    0.6095   -1.5000 C   0  0  0  0  0  0  0  0  0  0  0  0
    0.9250    1.6600   -1.7852 H   0  0  0  0  0  0  0  0  0  0  0  0
    1.8572    0.5587   -0.7685 H   0  0  0  0  0  0  0  0  0  0  0  0
    1.4129   -0.1993   -2.7528 C   0  0  0  0  0  0  0  0  0  0  0  0
    1.5557   -1.2531   -2.4981 H   0  0  0  0  0  0  0  0  0  0  0  0
    0.6004   -0.1362   -3.4840 H   0  0  0  0  0  0  0  0  0  0  0  0
    2.6962    0.3386   -3.3784 C   0  0  0  0  0  0  0  0  0  0  0  0
    2.5683    1.3917   -3.6527 H   0  0  0  0  0  0  0  0  0  0  0  0
    3.5204    0.2720   -2.6593 H   0  0  0  0  0  0  0  0  0  0  0  0
    3.0007   -0.4552   -4.5727 N   0  0  0  0  0  0  0  0  0  0  0  0
    3.8502   -0.1218   -5.0283 H   0  0  0  0  0  0  0  0  0  0  0  0
    3.0803   -1.4453   -4.3403 H   0  0  0  0  0  0  0  0  0  0  0  0
    0.4323   -0.9418    1.3373 C   0  0  0  0  0  0  0  0  0  0  0  0
    1.6406   -0.9307    1.5349 O   0  0  0  0  0  0  0  0  0  0  0  0
   -0.4155   -0.4802    2.3283 N   0  0  0  0  0  0  0  0  0  0  0  0
   -1.4085   -0.5963    2.1557 H   0  0  0  0  0  0  0  0  0  0  0  0
    0.0334   -0.2054    3.6874 C   0  0  0  0  0  0  0  0  0  0  0  0
    0.8243    0.5521    3.6842 H   0  0  0  0  0  0  0  0  0  0  0  0
   -0.7980    0.1686    4.2922 H   0  0  0  0  0  0  0  0  0  0  0  0
    0.4208   -1.1175    4.1533 H   0  0  0  0  0  0  0  0  0  0  0  0
  1  2  1  0  0  0  0
  2  3  1  0  0  0  0
  2  4  1  0  0  0  0
  2  5  1  0  0  0  0
  5  6  2  0  0  0  0
  5  7  1  0  0  0  0
  7  8  1  0  0  0  0
  7  9  1  0  0  0  0
  9 10  1  0  0  0  0
  9 11  1  0  0  0  0
  9 26  1  0  0  0  0
 11 12  1  0  0  0  0
 11 13  1  0  0  0  0
 11 14  1  0  0  0  0
 14 15  1  0  0  0  0
 14 16  1  0  0  0  0
 14 17  1  0  0  0  0
 17 18  1  0  0  0  0
 17 19  1  0  0  0  0
 17 20  1  0  0  0  0
 20 21  1  0  0  0  0
 20 22  1  0  0  0  0
 20 23  1  0  0  0  0
 23 24  1  0  0  0  0
 23 25  1  0  0  0  0
 26 27  2  0  0  0  0
 26 28  1  0  0  0  0
 28 29  1  0  0  0  0
 28 30  1  0  0  0  0
 30 31  1  0  0  0  0
 30 32  1  0  0  0  0
 30 33  1  0  0  0  0
M  END
$$$$

  -OEChem-03222214063D

 33 32  0     1  0  0  0  0  0999 V2000
   -2.8612   -4.8933    0.5525 H   0  0  0  0  0  0  0  0  0  0  0  0
   -2.8926   -3.8931    0.1107 C   0  0  0  0  0  0  0  0  0  0  0  0
   -3.7092   -3.3312    0.5702 H   0  0  0  0  0  0  0  0  0  0  0  0
   -3.0813   -3.9888   -0.9612 H   0  0  0  0  0  0  0  0  0  0  0  0
   -1.5746   -3.1787    0.3437 C   0  0  0  0  0  0  0  0  0  0  0  0
   -0.6901   -3.7300    0.9735 O   0  0  0  0  0  0  0  0  0  0  0  0
   -1.3913   -1.9036   -0.1549 N   0  0  0  0  0  0  0  0  0  0  0  0
   -2.1303   -1.5371   -0.7473 H   0  0  0  0  0  0  0  0  0  0  0  0
   -0.1148   -1.1669   -0.0996 C   0  0  1  0  0  0  0  0  0  0  0  0
    0.6315   -1.7768   -0.6207 H   0  0  0  0  0  0  0  0  0  0  0  0
   -0.2896    0.1627   -0.8612 C   0  0  0  0  0  0  0  0  0  0  0  0
   -1.0459    0.0590   -1.6462 H   0  0  0  0  0  0  0  0  0  0  0  0
   -0.6516    0.9276   -0.1658 H   0  0  0  0  0  0  0  0  0  0  0  0
    1.0275    0.6401   -1.4959 C   0  0  0  0  0  0  0  0  0  0  0  0
    1.0127    1.7337   -1.5493 H   0  0  0  0  0  0  0  0  0  0  0  0
    1.8819    0.3556   -0.8724 H   0  0  0  0  0  0  0  0  0  0  0  0
    1.1951    0.0871   -2.9168 C   0  0  0  0  0  0  0  0  0  0  0  0
    1.1774   -1.0070   -2.8908 H   0  0  0  0  0  0  0  0  0  0  0  0
    0.3651    0.4250   -3.5461 H   0  0  0  0  0  0  0  0  0  0  0  0
    2.5119    0.5556   -3.5280 C   0  0  0  0  0  0  0  0  0  0  0  0
    2.5391    1.6502   -3.5682 H   0  0  0  0  0  0  0  0  0  0  0  0
    3.3534    0.2167   -2.9132 H   0  0  0  0  0  0  0  0  0  0  0  0
    2.6190    0.0024   -4.8814 N   0  0  0  0  0  0  0  0  0  0  0  0
    3.4810    0.3056   -5.3350 H   0  0  0  0  0  0  0  0  0  0  0  0
    2.5583   -1.0157   -4.8642 H   0  0  0  0  0  0  0  0  0  0  0  0
    0.4324   -0.9190    1.3252 C   0  0  0  0  0  0  0  0  0  0  0  0
    1.6407   -0.8987    1.5214 O   0  0  0  0  0  0  0  0  0  0  0  0
   -0.4192   -0.4823    2.3243 N   0  0  0  0  0  0  0  0  0  0  0  0
   -1.4110   -0.6061    2.1511 H   0  0  0  0  0  0  0  0  0  0  0  0
    0.0279   -0.2240    3.6869 C   0  0  0  0  0  0  0  0  0  0  0  0
    0.8114    0.5410    3.6954 H   0  0  0  0  0  0  0  0  0  0  0  0
   -0.8071    0.1328    4.2973 H   0  0  0  0  0  0  0  0  0  0  0  0
    0.4242   -1.1395    4.1386 H   0  0  0  0  0  0  0  0  0  0  0  0
  1  2  1  0  0  0  0
  2  3  1  0  0  0  0
  2  4  1  0  0  0  0
  2  5  1  0  0  0  0
  5  6  2  0  0  0  0
  5  7  1  0  0  0  0
  7  8  1  0  0  0  0
  7  9  1  0  0  0  0
  9 10  1  0  0  0  0
  9 11  1  0  0  0  0
  9 26  1  0  0  0  0
 11 12  1  0  0  0  0
 11 13  1  0  0  0  0
 11 14  1  0  0  0  0
 14 15  1  0  0  0  0
 14 16  1  0  0  0  0
 14 17  1  0  0  0  0
 17 18  1  0  0  0  0
 17 19  1  0  0  0  0
 17 20  1  0  0  0  0
 20 21  1  0  0  0  0
 20 22  1  0  0  0  0
 20 23  1  0  0  0  0
 23 24  1  0  0  0  0
 23 25  1  0  0  0  0
 26 27  2  0  0  0  0
 26 28  1  0  0  0  0
 28 29  1  0  0  0  0
 28 30  1  0  0  0  0
 30 31  1  0  0  0  0
 30 32  1  0  0  0  0
 30 33  1  0  0  0  0
M  END
$$$$

  -OEChem-03222214063D

 33 32  0     1  0  0  0  0  0999 V2000
   -2.8727   -4.8998    0.5559 H   0  0  0  0  0  0  0  0  0  0  0  0
   -2.9065   -3.8983    0.1173 C   0  0  0  0  0  0  0  0  0  0  0  0
   -3.7220   -3.3386    0.5817 H   0  0  0  0  0  0  0  0  0  0  0  0
   -3.0996   -3.9913   -0.9541 H   0  0  0  0  0  0  0  0  0  0  0  0
   -1.5877   -3.1839    0.3474 C   0  0  0  0  0  0  0  0  0  0  0  0
   -0.7031   -3.7340    0.9779 O   0  0  0  0  0  0  0  0  0  0  0  0
   -1.4031   -1.9092   -0.1519 N   0  0  0  0  0  0  0  0  0  0  0  0
   -2.1451   -1.5377   -0.7372 H   0  0  0  0  0  0  0  0  0  0  0  0
   -0.1260   -1.1735   -0.0980 C   0  0  1  0  0  0  0  0  0  0  0  0
    0.6167   -1.7867   -0.6216 H   0  0  0  0  0  0  0  0  0  0  0  0
   -0.2982    0.1553   -0.8610 C   0  0  0  0  0  0  0  0  0  0  0  0
   -1.0558    0.0452   -1.6436 H   0  0  0  0  0  0  0  0  0  0  0  0
   -0.6637    0.9227   -0.1703 H   0  0  0  0  0  0  0  0  0  0  0  0
    1.0217    0.6310   -1.4962 C   0  0  0  0  0  0  0  0  0  0  0  0
    1.1343    1.7036   -1.3058 H   0  0  0  0  0  0  0  0  0  0  0  0
    1.8796    0.1299   -1.0345 H   0  0  0  0  0  0  0  0  0  0  0  0
    1.0299    0.3999   -3.0119 C   0  0  0  0  0  0  0  0  0  0  0  0
    0.8910   -0.6659   -3.2199 H   0  0  0  0  0  0  0  0  0  0  0  0
    0.2031    0.9475   -3.4762 H   0  0  0  0  0  0  0  0  0  0  0  0
    2.3476    0.8686   -3.6208 C   0  0  0  0  0  0  0  0  0  0  0  0
    2.4891    1.9384   -3.4308 H   0  0  0  0  0  0  0  0  0  0  0  0
    3.1856    0.3287   -3.1655 H   0  0  0  0  0  0  0  0  0  0  0  0
    2.3089    0.6177   -5.0647 N   0  0  0  0  0  0  0  0  0  0  0  0
    3.1639    0.9423   -5.5168 H   0  0  0  0  0  0  0  0  0  0  0  0
    2.1497   -0.3708   -5.2588 H   0  0  0  0  0  0  0  0  0  0  0  0
    0.4284   -0.9219    1.3230 C   0  0  0  0  0  0  0  0  0  0  0  0
    1.6379   -0.8945    1.5103 O   0  0  0  0  0  0  0  0  0  0  0  0
   -0.4177   -0.4819    2.3250 N   0  0  0  0  0  0  0  0  0  0  0  0
   -1.4105   -0.6078    2.1589 H   0  0  0  0  0  0  0  0  0  0  0  0
    0.0391   -0.2117    3.6822 C   0  0  0  0  0  0  0  0  0  0  0  0
    0.8204    0.5557    3.6788 H   0  0  0  0  0  0  0  0  0  0  0  0
   -0.7921    0.1471    4.2966 H   0  0  0  0  0  0  0  0  0  0  0  0
    0.4420   -1.1224    4.1377 H   0  0  0  0  0  0  0  0  0  0  0  0
  1  2  1  0  0  0  0
  2  3  1  0  0  0  0
  2  4  1  0  0  0  0
  2  5  1  0  0  0  0
  5  6  2  0  0  0  0
  5  7  1  0  0  0  0
  7  8  1  0  0  0  0
  7  9  1  0  0  0  0
  9 10  1  0  0  0  0
  9 11  1  0  0  0  0
  9 26  1  0  0  0  0
 11 12  1  0  0  0  0
 11 13  1  0  0  0  0
 11 14  1  0  0  0  0
 14 15  1  0  0  0  0
 14 16  1  0  0  0  0
 14 17  1  0  0  0  0
 17 18  1  0  0  0  0
 17 19  1  0  0  0  0
 17 20  1  0  0  0  0
 20 21  1  0  0  0  0
 20 22  1  0  0  0  0
 20 23  1  0  0  0  0
 23 24  1  0  0  0  0
 23 25  1  0  0  0  0
 26 27  2  0  0  0  0
 26 28  1  0  0  0  0
 28 29  1  0  0  0  0
 28 30  1  0  0  0  0
 30 31  1  0  0  0  0
 30 32  1  0  0  0  0
 30 33  1  0  0  0  0
M  END
$$$$

  -OEChem-03222214063D

 33 32  0     1  0  0  0  0  0999 V2000
   -2.8917   -4.9023    0.5763 H   0  0  0  0  0  0  0  0  0  0  0  0
   -2.9235   -3.9026    0.1335 C   0  0  0  0  0  0  0  0  0  0  0  0
   -3.7366   -3.3385    0.5967 H   0  0  0  0  0  0  0  0  0  0  0  0
   -3.1186   -3.9998   -0.9372 H   0  0  0  0  0  0  0  0  0  0  0  0
   -1.6026   -3.1907    0.3587 C   0  0  0  0  0  0  0  0  0  0  0  0
   -0.7175   -3.7415    0.9878 O   0  0  0  0  0  0  0  0  0  0  0  0
   -1.4158   -1.9183   -0.1454 N   0  0  0  0  0  0  0  0  0  0  0  0
   -2.1591   -1.5454   -0.7281 H   0  0  0  0  0  0  0  0  0  0  0  0
   -0.1372   -1.1852   -0.0943 C   0  0  1  0  0  0  0  0  0  0  0  0
    0.5995   -1.8078   -0.6143 H   0  0  0  0  0  0  0  0  0  0  0  0
   -0.2995    0.1417   -0.8629 C   0  0  0  0  0  0  0  0  0  0  0  0
   -1.0474    0.0119   -1.6520 H   0  0  0  0  0  0  0  0  0  0  0  0
   -0.6801    0.9173   -0.1897 H   0  0  0  0  0  0  0  0  0  0  0  0
    1.0235    0.6139   -1.4992 C   0  0  0  0  0  0  0  0  0  0  0  0
    1.2854    1.5915   -1.0807 H   0  0  0  0  0  0  0  0  0  0  0  0
    1.8420   -0.0702   -1.2503 H   0  0  0  0  0  0  0  0  0  0  0  0
    0.9063    0.7313   -3.0235 C   0  0  0  0  0  0  0  0  0  0  0  0
    0.6549   -0.2462   -3.4476 H   0  0  0  0  0  0  0  0  0  0  0  0
    0.1030    1.4303   -3.2794 H   0  0  0  0  0  0  0  0  0  0  0  0
    2.2158    1.2264   -3.6310 C   0  0  0  0  0  0  0  0  0  0  0  0
    2.4673    2.2132   -3.2264 H   0  0  0  0  0  0  0  0  0  0  0  0
    3.0314    0.5389   -3.3805 H   0  0  0  0  0  0  0  0  0  0  0  0
    2.0535    1.3084   -5.0859 N   0  0  0  0  0  0  0  0  0  0  0  0
    2.9005    1.6624   -5.5308 H   0  0  0  0  0  0  0  0  0  0  0  0
    1.7908    0.4033   -5.4756 H   0  0  0  0  0  0  0  0  0  0  0  0
    0.4234   -0.9263    1.3222 C   0  0  0  0  0  0  0  0  0  0  0  0
    1.6342   -0.8919    1.4997 O   0  0  0  0  0  0  0  0  0  0  0  0
   -0.4174   -0.4789    2.3254 N   0  0  0  0  0  0  0  0  0  0  0  0
   -1.4111   -0.6073    2.1665 H   0  0  0  0  0  0  0  0  0  0  0  0
    0.0465   -0.1955    3.6774 C   0  0  0  0  0  0  0  0  0  0  0  0
    0.8245    0.5749    3.6622 H   0  0  0  0  0  0  0  0  0  0  0  0
   -0.7823    0.1654    4.2938 H   0  0  0  0  0  0  0  0  0  0  0  0
    0.4556   -1.1006    4.1384 H   0  0  0  0  0  0  0  0  0  0  0  0
  1  2  1  0  0  0  0
  2  3  1  0  0  0  0
  2  4  1  0  0  0  0
  2  5  1  0  0  0  0
  5  6  2  0  0  0  0
  5  7  1  0  0  0  0
  7  8  1  0  0  0  0
  7  9  1  0  0  0  0
  9 10  1  0  0  0  0
  9 11  1  0  0  0  0
  9 26  1  0  0  0  0
 11 12  1  0  0  0  0
 11 13  1  0  0  0  0
 11 14  1  0  0  0  0
 14 15  1  0  0  0  0
 14 16  1  0  0  0  0
 14 17  1  0  0  0  0
 17 18  1  0  0  0  0
 17 19  1  0  0  0  0
 17 20  1  0  0  0  0
 20 21  1  0  0  0  0
 20 22  1  0  0  0  0
 20 23  1  0  0  0  0
 23 24  1  0  0  0  0
 23 25  1  0  0  0  0
 26 27  2  0  0  0  0
 26 28  1  0  0  0  0
 28 29  1  0  0  0  0
 28 30  1  0  0  0  0
 30 31  1  0  0  0  0
 30 32  1  0  0  0  0
 30 33  1  0  0  0  0
M  END
$$$$

  -OEChem-03222214063D

 33 32  0     1  0  0  0  0  0999 V2000
   -2.8997   -4.9013    0.5999 H   0  0  0  0  0  0  0  0  0  0  0  0
   -2.9315   -3.9030    0.1541 C   0  0  0  0  0  0  0  0  0  0  0  0
   -3.7397   -3.3350    0.6209 H   0  0  0  0  0  0  0  0  0  0  0  0
   -3.1333   -4.0030   -0.9150 H   0  0  0  0  0  0  0  0  0  0  0  0
   -1.6073   -3.1948    0.3688 C   0  0  0  0  0  0  0  0  0  0  0  0
   -0.7206   -3.7457    0.9955 O   0  0  0  0  0  0  0  0  0  0  0  0
   -1.4193   -1.9254   -0.1424 N   0  0  0  0  0  0  0  0  0  0  0  0
   -2.1651   -1.5513   -0.7211 H   0  0  0  0  0  0  0  0  0  0  0  0
   -0.1400   -1.1934   -0.0951 C   0  0  1  0  0  0  0  0  0  0  0  0
    0.5951   -1.8234   -0.6081 H   0  0  0  0  0  0  0  0  0  0  0  0
   -0.2971    0.1311   -0.8694 C   0  0  0  0  0  0  0  0  0  0  0  0
   -1.0319   -0.0213   -1.6669 H   0  0  0  0  0  0  0  0  0  0  0  0
   -0.6929    0.9150   -0.2149 H   0  0  0  0  0  0  0  0  0  0  0  0
    1.0255    0.5999   -1.5073 C   0  0  0  0  0  0  0  0  0  0  0  0
    1.4433    1.4134   -0.9046 H   0  0  0  0  0  0  0  0  0  0  0  0
    1.7619   -0.2105   -1.5096 H   0  0  0  0  0  0  0  0  0  0  0  0
    0.8165    1.0676   -2.9526 C   0  0  0  0  0  0  0  0  0  0  0  0
    0.4460    0.2350   -3.5592 H   0  0  0  0  0  0  0  0  0  0  0  0
    0.0675    1.8662   -2.9764 H   0  0  0  0  0  0  0  0  0  0  0  0
    2.1224    1.5870   -3.5465 C   0  0  0  0  0  0  0  0  0  0  0  0
    2.4898    2.4358   -2.9589 H   0  0  0  0  0  0  0  0  0  0  0  0
    2.8863    0.8017   -3.5227 H   0  0  0  0  0  0  0  0  0  0  0  0
    1.8713    2.0062   -4.9289 N   0  0  0  0  0  0  0  0  0  0  0  0
    2.7148    2.3895   -5.3560 H   0  0  0  0  0  0  0  0  0  0  0  0
    1.5028    1.2342   -5.4838 H   0  0  0  0  0  0  0  0  0  0  0  0
    0.4211   -0.9270    1.3192 C   0  0  0  0  0  0  0  0  0  0  0  0
    1.6322   -0.8930    1.4952 O   0  0  0  0  0  0  0  0  0  0  0  0
   -0.4188   -0.4729    2.3203 N   0  0  0  0  0  0  0  0  0  0  0  0
   -1.4127   -0.6012    2.1627 H   0  0  0  0  0  0  0  0  0  0  0  0
    0.0463   -0.1842    3.6707 C   0  0  0  0  0  0  0  0  0  0  0  0
    0.8265    0.5839    3.6513 H   0  0  0  0  0  0  0  0  0  0  0  0
   -0.7812    0.1816    4.2858 H   0  0  0  0  0  0  0  0  0  0  0  0
    0.4530   -1.0882    4.1359 H   0  0  0  0  0  0  0  0  0  0  0  0
  1  2  1  0  0  0  0
  2  3  1  0  0  0  0
  2  4  1  0  0  0  0
  2  5  1  0  0  0  0
  5  6  2  0  0  0  0
  5  7  1  0  0  0  0
  7  8  1  0  0  0  0
  7  9  1  0  0  0  0
  9 10  1  0  0  0  0
  9 11  1  0  0  0  0
  9 26  1  0  0  0  0
 11 12  1  0  0  0  0
 11 13  1  0  0  0  0
 11 14  1  0  0  0  0
 14 15  1  0  0  0  0
 14 16  1  0  0  0  0
 14 17  1  0  0  0  0
 17 18  1  0  0  0  0
 17 19  1  0  0  0  0
 17 20  1  0  0  0  0
 20 21  1  0  0  0  0
 20 22  1  0  0  0  0
 20 23  1  0  0  0  0
 23 24  1  0  0  0  0
 23 25  1  0  0  0  0
 26 27  2  0  0  0  0
 26 28  1  0  0  0  0
 28 29  1  0  0  0  0
 28 30  1  0  0  0  0
 30 31  1  0  0  0  0
 30 32  1  0  0  0  0
 30 33  1  0  0  0  0
M  END
$$$$

  -OEChem-03222214063D

 33 32  0     1  0  0  0  0  0999 V2000
   -2.8955   -4.9027    0.6082 H   0  0  0  0  0  0  0  0  0  0  0  0
   -2.9285   -3.9052    0.1606 C   0  0  0  0  0  0  0  0  0  0  0  0
   -3.7365   -3.3371    0.6274 H   0  0  0  0  0  0  0  0  0  0  0  0
   -3.1326   -4.0075   -0.9078 H   0  0  0  0  0  0  0  0  0  0  0  0
   -1.6041   -3.1952    0.3715 C   0  0  0  0  0  0  0  0  0  0  0  0
   -0.7164   -3.7439    0.9987 O   0  0  0  0  0  0  0  0  0  0  0  0
   -1.4168   -1.9270   -0.1431 N   0  0  0  0  0  0  0  0  0  0  0  0
   -2.1657   -1.5524   -0.7177 H   0  0  0  0  0  0  0  0  0  0  0  0
   -0.1382   -1.1930   -0.0983 C   0  0  1  0  0  0  0  0  0  0  0  0
    0.5993   -1.8215   -0.6090 H   0  0  0  0  0  0  0  0  0  0  0  0
   -0.2990    0.1295   -0.8741 C   0  0  0  0  0  0  0  0  0  0  0  0
   -1.0257   -0.0309   -1.6772 H   0  0  0  0  0  0  0  0  0  0  0  0
   -0.6996    0.9161   -0.2258 H   0  0  0  0  0  0  0  0  0  0  0  0
    1.0230    0.5928   -1.5107 C   0  0  0  0  0  0  0  0  0  0  0  0
    1.5795    1.1989   -0.7872 H   0  0  0  0  0  0  0  0  0  0  0  0
    1.6463   -0.2708   -1.7651 H   0  0  0  0  0  0  0  0  0  0  0  0
    0.7667    1.3906   -2.7945 C   0  0  0  0  0  0  0  0  0  0  0  0
    0.2674    0.7536   -3.5317 H   0  0  0  0  0  0  0  0  0  0  0  0
    0.1079    2.2374   -2.5752 H   0  0  0  0  0  0  0  0  0  0  0  0
    2.0768    1.9120   -3.3772 C   0  0  0  0  0  0  0  0  0  0  0  0
    2.5704    2.5730   -2.6560 H   0  0  0  0  0  0  0  0  0  0  0  0
    2.7533    1.0768   -3.5907 H   0  0  0  0  0  0  0  0  0  0  0  0
    1.7792    2.6486   -4.6096 N   0  0  0  0  0  0  0  0  0  0  0  0
    2.6276    3.0436   -5.0158 H   0  0  0  0  0  0  0  0  0  0  0  0
    1.2964    2.0547   -5.2834 H   0  0  0  0  0  0  0  0  0  0  0  0
    0.4231   -0.9214    1.3149 C   0  0  0  0  0  0  0  0  0  0  0  0
    1.6342   -0.8831    1.4901 O   0  0  0  0  0  0  0  0  0  0  0  0
   -0.4172   -0.4654    2.3145 N   0  0  0  0  0  0  0  0  0  0  0  0
   -1.4111   -0.5933    2.1563 H   0  0  0  0  0  0  0  0  0  0  0  0
    0.0463   -0.1754    3.6653 C   0  0  0  0  0  0  0  0  0  0  0  0
    0.8248    0.5945    3.6473 H   0  0  0  0  0  0  0  0  0  0  0  0
   -0.7825    0.1886    4.2797 H   0  0  0  0  0  0  0  0  0  0  0  0
    0.4545   -1.0787    4.1309 H   0  0  0  0  0  0  0  0  0  0  0  0
  1  2  1  0  0  0  0
  2  3  1  0  0  0  0
  2  4  1  0  0  0  0
  2  5  1  0  0  0  0
  5  6  2  0  0  0  0
  5  7  1  0  0  0  0
  7  8  1  0  0  0  0
  7  9  1  0  0  0  0
  9 10  1  0  0  0  0
  9 11  1  0  0  0  0
  9 26  1  0  0  0  0
 11 12  1  0  0  0  0
 11 13  1  0  0  0  0
 11 14  1  0  0  0  0
 14 15  1  0  0  0  0
 14 16  1  0  0  0  0
 14 17  1  0  0  0  0
 17 18  1  0  0  0  0
 17 19  1  0  0  0  0
 17 20  1  0  0  0  0
 20 21  1  0  0  0  0
 20 22  1  0  0  0  0
 20 23  1  0  0  0  0
 23 24  1  0  0  0  0
 23 25  1  0  0  0  0
 26 27  2  0  0  0  0
 26 28  1  0  0  0  0
 28 29  1  0  0  0  0
 28 30  1  0  0  0  0
 30 31  1  0  0  0  0
 30 32  1  0  0  0  0
 30 33  1  0  0  0  0
M  END
$$$$

  -OEChem-03222214063D

 33 32  0     1  0  0  0  0  0999 V2000
   -2.8801   -4.9004    0.6071 H   0  0  0  0  0  0  0  0  0  0  0  0
   -2.9161   -3.9029    0.1598 C   0  0  0  0  0  0  0  0  0  0  0  0
   -3.7251   -3.3368    0.6273 H   0  0  0  0  0  0  0  0  0  0  0  0
   -3.1200   -4.0049   -0.9088 H   0  0  0  0  0  0  0  0  0  0  0  0
   -1.5938   -3.1897    0.3700 C   0  0  0  0  0  0  0  0  0  0  0  0
   -0.7035   -3.7364    0.9953 O   0  0  0  0  0  0  0  0  0  0  0  0
   -1.4112   -1.9210   -0.1446 N   0  0  0  0  0  0  0  0  0  0  0  0
   -2.1620   -1.5482   -0.7178 H   0  0  0  0  0  0  0  0  0  0  0  0
   -0.1348   -1.1839   -0.1008 C   0  0  1  0  0  0  0  0  0  0  0  0
    0.6072   -1.8063   -0.6130 H   0  0  0  0  0  0  0  0  0  0  0  0
   -0.3032    0.1359   -0.8782 C   0  0  0  0  0  0  0  0  0  0  0  0
   -1.0282   -0.0196   -1.6839 H   0  0  0  0  0  0  0  0  0  0  0  0
   -0.6996    0.9208   -0.2249 H   0  0  0  0  0  0  0  0  0  0  0  0
    1.0185    0.5930   -1.5120 C   0  0  0  0  0  0  0  0  0  0  0  0
    1.6852    0.9737   -0.7304 H   0  0  0  0  0  0  0  0  0  0  0  0
    1.5165   -0.2553   -1.9933 H   0  0  0  0  0  0  0  0  0  0  0  0
    0.7661    1.6768   -2.5653 C   0  0  0  0  0  0  0  0  0  0  0  0
    0.1441    1.2720   -3.3701 H   0  0  0  0  0  0  0  0  0  0  0  0
    0.2281    2.5145   -2.1093 H   0  0  0  0  0  0  0  0  0  0  0  0
    2.0835    2.1829   -3.1446 C   0  0  0  0  0  0  0  0  0  0  0  0
    2.6992    2.6179   -2.3492 H   0  0  0  0  0  0  0  0  0  0  0  0
    2.6424    1.3533   -3.5917 H   0  0  0  0  0  0  0  0  0  0  0  0
    1.7870    3.1977   -4.1605 N   0  0  0  0  0  0  0  0  0  0  0  0
    2.6443    3.5897   -4.5503 H   0  0  0  0  0  0  0  0  0  0  0  0
    1.1937    2.8166   -4.8971 H   0  0  0  0  0  0  0  0  0  0  0  0
    0.4233   -0.9137    1.3141 C   0  0  0  0  0  0  0  0  0  0  0  0
    1.6337   -0.8824    1.4945 O   0  0  0  0  0  0  0  0  0  0  0  0
   -0.4195   -0.4617    2.3134 N   0  0  0  0  0  0  0  0  0  0  0  0
   -1.4133   -0.5856    2.1517 H   0  0  0  0  0  0  0  0  0  0  0  0
    0.0421   -0.1760    3.6656 C   0  0  0  0  0  0  0  0  0  0  0  0
    0.8185    0.5961    3.6505 H   0  0  0  0  0  0  0  0  0  0  0  0
   -0.7880    0.1833    4.2810 H   0  0  0  0  0  0  0  0  0  0  0  0
    0.4528   -1.0800    4.1276 H   0  0  0  0  0  0  0  0  0  0  0  0
  1  2  1  0  0  0  0
  2  3  1  0  0  0  0
  2  4  1  0  0  0  0
  2  5  1  0  0  0  0
  5  6  2  0  0  0  0
  5  7  1  0  0  0  0
  7  8  1  0  0  0  0
  7  9  1  0  0  0  0
  9 10  1  0  0  0  0
  9 11  1  0  0  0  0
  9 26  1  0  0  0  0
 11 12  1  0  0  0  0
 11 13  1  0  0  0  0
 11 14  1  0  0  0  0
 14 15  1  0  0  0  0
 14 16  1  0  0  0  0
 14 17  1  0  0  0  0
 17 18  1  0  0  0  0
 17 19  1  0  0  0  0
 17 20  1  0  0  0  0
 20 21  1  0  0  0  0
 20 22  1  0  0  0  0
 20 23  1  0  0  0  0
 23 24  1  0  0  0  0
 23 25  1  0  0  0  0
 26 27  2  0  0  0  0
 26 28  1  0  0  0  0
 28 29  1  0  0  0  0
 28 30  1  0  0  0  0
 30 31  1  0  0  0  0
 30 32  1  0  0  0  0
 30 33  1  0  0  0  0
M  END
$$$$

  -OEChem-03222214063D

 33 32  0     1  0  0  0  0  0999 V2000
   -2.8506   -4.9236    0.5911 H   0  0  0  0  0  0  0  0  0  0  0  0
   -2.9022   -3.9225    0.1532 C   0  0  0  0  0  0  0  0  0  0  0  0
   -3.7175   -3.3727    0.6288 H   0  0  0  0  0  0  0  0  0  0  0  0
   -3.1090   -4.0173   -0.9156 H   0  0  0  0  0  0  0  0  0  0  0  0
   -1.5895   -3.1919    0.3658 C   0  0  0  0  0  0  0  0  0  0  0  0
   -0.6884   -3.7327    0.9806 O   0  0  0  0  0  0  0  0  0  0  0  0
   -1.4268   -1.9162   -0.1384 N   0  0  0  0  0  0  0  0  0  0  0  0
   -2.1856   -1.5495   -0.7047 H   0  0  0  0  0  0  0  0  0  0  0  0
   -0.1580   -1.1649   -0.1008 C   0  0  1  0  0  0  0  0  0  0  0  0
    0.5867   -1.7811   -0.6176 H   0  0  0  0  0  0  0  0  0  0  0  0
   -0.3324    0.1600   -0.8738 C   0  0  0  0  0  0  0  0  0  0  0  0
   -1.2368    0.1200   -1.4892 H   0  0  0  0  0  0  0  0  0  0  0  0
   -0.4516    0.9933   -0.1727 H   0  0  0  0  0  0  0  0  0  0  0  0
    0.8640    0.4222   -1.7974 C   0  0  0  0  0  0  0  0  0  0  0  0
    1.7807    0.4694   -1.1986 H   0  0  0  0  0  0  0  0  0  0  0  0
    0.9681   -0.4017   -2.5114 H   0  0  0  0  0  0  0  0  0  0  0  0
    0.6818    1.7390   -2.5603 C   0  0  0  0  0  0  0  0  0  0  0  0
   -0.2167    1.6817   -3.1830 H   0  0  0  0  0  0  0  0  0  0  0  0
    0.5500    2.5624   -1.8505 H   0  0  0  0  0  0  0  0  0  0  0  0
    1.8949    2.0266   -3.4401 C   0  0  0  0  0  0  0  0  0  0  0  0
    2.7929    2.1203   -2.8190 H   0  0  0  0  0  0  0  0  0  0  0  0
    2.0534    1.2028   -4.1448 H   0  0  0  0  0  0  0  0  0  0  0  0
    1.6586    3.2762   -4.1700 N   0  0  0  0  0  0  0  0  0  0  0  0
    2.4645    3.5268   -4.7430 H   0  0  0  0  0  0  0  0  0  0  0  0
    0.8133    3.2166   -4.7369 H   0  0  0  0  0  0  0  0  0  0  0  0
    0.4126   -0.9014    1.3109 C   0  0  0  0  0  0  0  0  0  0  0  0
    1.6247   -0.8536    1.4750 O   0  0  0  0  0  0  0  0  0  0  0  0
   -0.4226   -0.4681    2.3251 N   0  0  0  0  0  0  0  0  0  0  0  0
   -1.4167   -0.6046    2.1760 H   0  0  0  0  0  0  0  0  0  0  0  0
    0.0527   -0.1867    3.6738 C   0  0  0  0  0  0  0  0  0  0  0  0
    0.8238    0.5904    3.6549 H   0  0  0  0  0  0  0  0  0  0  0  0
   -0.7727    0.1642    4.3003 H   0  0  0  0  0  0  0  0  0  0  0  0
    0.4744   -1.0903    4.1262 H   0  0  0  0  0  0  0  0  0  0  0  0
  1  2  1  0  0  0  0
  2  3  1  0  0  0  0
  2  4  1  0  0  0  0
  2  5  1  0  0  0  0
  5  6  2  0  0  0  0
  5  7  1  0  0  0  0
  7  8  1  0  0  0  0
  7  9  1  0  0  0  0
  9 10  1  0  0  0  0
  9 11  1  0  0  0  0
  9 26  1  0  0  0  0
 11 12  1  0  0  0  0
 11 13  1  0  0  0  0
 11 14  1  0  0  0  0
 14 15  1  0  0  0  0
 14 16  1  0  0  0  0
 14 17  1  0  0  0  0
 17 18  1  0  0  0  0
 17 19  1  0  0  0  0
 17 20  1  0  0  0  0
 20 21  1  0  0  0  0
 20 22  1  0  0  0  0
 20 23  1  0  0  0  0
 23 24  1  0  0  0  0
 23 25  1  0  0  0  0
 26 27  2  0  0  0  0
 26 28  1  0  0  0  0
 28 29  1  0  0  0  0
 28 30  1  0  0  0  0
 30 31  1  0  0  0  0
 30 32  1  0  0  0  0
 30 33  1  0  0  0  0
M  END
$$$$

  -OEChem-03222214063D

 33 32  0     1  0  0  0  0  0999 V2000
   -2.8499   -4.9138    0.5924 H   0  0  0  0  0  0  0  0  0  0  0  0
   -2.8984   -3.9133    0.1528 C   0  0  0  0  0  0  0  0  0  0  0  0
   -3.7101   -3.3586    0.6293 H   0  0  0  0  0  0  0  0  0  0  0  0
   -3.1077   -4.0093   -0.9153 H   0  0  0  0  0  0  0  0  0  0  0  0
   -1.5818   -3.1887    0.3606 C   0  0  0  0  0  0  0  0  0  0  0  0
   -0.6809   -3.7334    0.9724 O   0  0  0  0  0  0  0  0  0  0  0  0
   -1.4159   -1.9132   -0.1431 N   0  0  0  0  0  0  0  0  0  0  0  0
   -2.1760   -1.5412   -0.7044 H   0  0  0  0  0  0  0  0  0  0  0  0
   -0.1469   -1.1625   -0.1003 C   0  0  1  0  0  0  0  0  0  0  0  0
    0.5993   -1.7781   -0.6152 H   0  0  0  0  0  0  0  0  0  0  0  0
   -0.3223    0.1597   -0.8775 C   0  0  0  0  0  0  0  0  0  0  0  0
   -1.2277    0.1301   -1.4920 H   0  0  0  0  0  0  0  0  0  0  0  0
   -0.4386    0.9871   -0.1686 H   0  0  0  0  0  0  0  0  0  0  0  0
    0.8759    0.4251   -1.7989 C   0  0  0  0  0  0  0  0  0  0  0  0
    1.8062    0.2352   -1.2512 H   0  0  0  0  0  0  0  0  0  0  0  0
    0.8433   -0.2571   -2.6548 H   0  0  0  0  0  0  0  0  0  0  0  0
    0.8774    1.8813   -2.2771 C   0  0  0  0  0  0  0  0  0  0  0  0
   -0.0440    2.0843   -2.8320 H   0  0  0  0  0  0  0  0  0  0  0  0
    0.9089    2.5553   -1.4146 H   0  0  0  0  0  0  0  0  0  0  0  0
    2.0827    2.1581   -3.1709 C   0  0  0  0  0  0  0  0  0  0  0  0
    3.0098    1.9952   -2.6097 H   0  0  0  0  0  0  0  0  0  0  0  0
    2.0809    1.4770   -4.0291 H   0  0  0  0  0  0  0  0  0  0  0  0
    2.0128    3.5485   -3.6314 N   0  0  0  0  0  0  0  0  0  0  0  0
    2.8194    3.7876   -4.2085 H   0  0  0  0  0  0  0  0  0  0  0  0
    1.1417    3.7271   -4.1302 H   0  0  0  0  0  0  0  0  0  0  0  0
    0.4165   -0.8997    1.3143 C   0  0  0  0  0  0  0  0  0  0  0  0
    1.6274   -0.8579    1.4874 O   0  0  0  0  0  0  0  0  0  0  0  0
   -0.4249   -0.4663    2.3232 N   0  0  0  0  0  0  0  0  0  0  0  0
   -1.4184   -0.5953    2.1643 H   0  0  0  0  0  0  0  0  0  0  0  0
    0.0403   -0.1922    3.6767 C   0  0  0  0  0  0  0  0  0  0  0  0
    0.8128    0.5839    3.6674 H   0  0  0  0  0  0  0  0  0  0  0  0
   -0.7896    0.1565    4.2985 H   0  0  0  0  0  0  0  0  0  0  0  0
    0.4568   -1.0990    4.1278 H   0  0  0  0  0  0  0  0  0  0  0  0
  1  2  1  0  0  0  0
  2  3  1  0  0  0  0
  2  4  1  0  0  0  0
  2  5  1  0  0  0  0
  5  6  2  0  0  0  0
  5  7  1  0  0  0  0
  7  8  1  0  0  0  0
  7  9  1  0  0  0  0
  9 10  1  0  0  0  0
  9 11  1  0  0  0  0
  9 26  1  0  0  0  0
 11 12  1  0  0  0  0
 11 13  1  0  0  0  0
 11 14  1  0  0  0  0
 14 15  1  0  0  0  0
 14 16  1  0  0  0  0
 14 17  1  0  0  0  0
 17 18  1  0  0  0  0
 17 19  1  0  0  0  0
 17 20  1  0  0  0  0
 20 21  1  0  0  0  0
 20 22  1  0  0  0  0
 20 23  1  0  0  0  0
 23 24  1  0  0  0  0
 23 25  1  0  0  0  0
 26 27  2  0  0  0  0
 26 28  1  0  0  0  0
 28 29  1  0  0  0  0
 28 30  1  0  0  0  0
 30 31  1  0  0  0  0
 30 32  1  0  0  0  0
 30 33  1  0  0  0  0
M  END
$$$$

  -OEChem-03222214063D

 33 32  0     1  0  0  0  0  0999 V2000
   -2.8527   -4.9175    0.5760 H   0  0  0  0  0  0  0  0  0  0  0  0
   -2.9001   -3.9144    0.1425 C   0  0  0  0  0  0  0  0  0  0  0  0
   -3.7140   -3.3636    0.6197 H   0  0  0  0  0  0  0  0  0  0  0  0
   -3.1056   -4.0040   -0.9268 H   0  0  0  0  0  0  0  0  0  0  0  0
   -1.5846   -3.1903    0.3590 C   0  0  0  0  0  0  0  0  0  0  0  0
   -0.6874   -3.7362    0.9750 O   0  0  0  0  0  0  0  0  0  0  0  0
   -1.4148   -1.9149   -0.1437 N   0  0  0  0  0  0  0  0  0  0  0  0
   -2.1706   -1.5437   -0.7110 H   0  0  0  0  0  0  0  0  0  0  0  0
   -0.1444   -1.1668   -0.0971 C   0  0  1  0  0  0  0  0  0  0  0  0
    0.5991   -1.7871   -0.6107 H   0  0  0  0  0  0  0  0  0  0  0  0
   -0.3158    0.1555   -0.8769 C   0  0  0  0  0  0  0  0  0  0  0  0
   -1.2212    0.1315   -1.4916 H   0  0  0  0  0  0  0  0  0  0  0  0
   -0.4359    0.9774   -0.1623 H   0  0  0  0  0  0  0  0  0  0  0  0
    0.8829    0.4295   -1.8002 C   0  0  0  0  0  0  0  0  0  0  0  0
    1.7933    0.0092   -1.3580 H   0  0  0  0  0  0  0  0  0  0  0  0
    0.7240   -0.0581   -2.7677 H   0  0  0  0  0  0  0  0  0  0  0  0
    1.1020    1.9359   -1.9818 C   0  0  0  0  0  0  0  0  0  0  0  0
    0.2051    2.3852   -2.4199 H   0  0  0  0  0  0  0  0  0  0  0  0
    1.2759    2.4058   -1.0078 H   0  0  0  0  0  0  0  0  0  0  0  0
    2.3018    2.2044   -2.8859 C   0  0  0  0  0  0  0  0  0  0  0  0
    3.2125    1.8042   -2.4262 H   0  0  0  0  0  0  0  0  0  0  0  0
    2.1635    1.7093   -3.8535 H   0  0  0  0  0  0  0  0  0  0  0  0
    2.4309    3.6525   -3.0767 N   0  0  0  0  0  0  0  0  0  0  0  0
    3.2464    3.8789   -3.6462 H   0  0  0  0  0  0  0  0  0  0  0  0
    1.5823    4.0475   -3.4810 H   0  0  0  0  0  0  0  0  0  0  0  0
    0.4193   -0.9037    1.3176 C   0  0  0  0  0  0  0  0  0  0  0  0
    1.6304   -0.8669    1.4909 O   0  0  0  0  0  0  0  0  0  0  0  0
   -0.4209   -0.4675    2.3264 N   0  0  0  0  0  0  0  0  0  0  0  0
   -1.4151   -0.5917    2.1684 H   0  0  0  0  0  0  0  0  0  0  0  0
    0.0463   -0.1802    3.6766 C   0  0  0  0  0  0  0  0  0  0  0  0
    0.8259    0.5886    3.6576 H   0  0  0  0  0  0  0  0  0  0  0  0
   -0.7804    0.1847    4.2933 H   0  0  0  0  0  0  0  0  0  0  0  0
    0.4542   -1.0847    4.1399 H   0  0  0  0  0  0  0  0  0  0  0  0
  1  2  1  0  0  0  0
  2  3  1  0  0  0  0
  2  4  1  0  0  0  0
  2  5  1  0  0  0  0
  5  6  2  0  0  0  0
  5  7  1  0  0  0  0
  7  8  1  0  0  0  0
  7  9  1  0  0  0  0
  9 10  1  0  0  0  0
  9 11  1  0  0  0  0
  9 26  1  0  0  0  0
 11 12  1  0  0  0  0
 11 13  1  0  0  0  0
 11 14  1  0  0  0  0
 14 15  1  0  0  0  0
 14 16  1  0  0  0  0
 14 17  1  0  0  0  0
 17 18  1  0  0  0  0
 17 19  1  0  0  0  0
 17 20  1  0  0  0  0
 20 21  1  0  0  0  0
 20 22  1  0  0  0  0
 20 23  1  0  0  0  0
 23 24  1  0  0  0  0
 23 25  1  0  0  0  0
 26 27  2  0  0  0  0
 26 28  1  0  0  0  0
 28 29  1  0  0  0  0
 28 30  1  0  0  0  0
 30 31  1  0  0  0  0
 30 32  1  0  0  0  0
 30 33  1  0  0  0  0
M  END
$$$$

  -OEChem-03222214063D

 33 32  0     1  0  0  0  0  0999 V2000
   -2.8744   -4.9034    0.5963 H   0  0  0  0  0  0  0  0  0  0  0  0
   -2.9109   -3.9038    0.1536 C   0  0  0  0  0  0  0  0  0  0  0  0
   -3.7174   -3.3389    0.6269 H   0  0  0  0  0  0  0  0  0  0  0  0
   -3.1195   -4.0009   -0.9145 H   0  0  0  0  0  0  0  0  0  0  0  0
   -1.5871   -3.1924    0.3620 C   0  0  0  0  0  0  0  0  0  0  0  0
   -0.6939   -3.7431    0.9796 O   0  0  0  0  0  0  0  0  0  0  0  0
   -1.4070   -1.9210   -0.1470 N   0  0  0  0  0  0  0  0  0  0  0  0
   -2.1623   -1.5431   -0.7105 H   0  0  0  0  0  0  0  0  0  0  0  0
   -0.1327   -1.1795   -0.0982 C   0  0  1  0  0  0  0  0  0  0  0  0
    0.6071   -1.8113   -0.6026 H   0  0  0  0  0  0  0  0  0  0  0  0
   -0.2945    0.1409   -0.8855 C   0  0  0  0  0  0  0  0  0  0  0  0
   -1.1968    0.1096   -1.5042 H   0  0  0  0  0  0  0  0  0  0  0  0
   -0.4290    0.9650   -0.1758 H   0  0  0  0  0  0  0  0  0  0  0  0
    0.9028    0.4243   -1.8135 C   0  0  0  0  0  0  0  0  0  0  0  0
    1.7559   -0.2052   -1.5378 H   0  0  0  0  0  0  0  0  0  0  0  0
    0.6325    0.1832   -2.8469 H   0  0  0  0  0  0  0  0  0  0  0  0
    1.3461    1.8882   -1.7035 C   0  0  0  0  0  0  0  0  0  0  0  0
    0.5134    2.5424   -1.9809 H   0  0  0  0  0  0  0  0  0  0  0  0
    1.6249    2.1137   -0.6685 H   0  0  0  0  0  0  0  0  0  0  0  0
    2.5390    2.1670   -2.6134 C   0  0  0  0  0  0  0  0  0  0  0  0
    3.3959    1.5591   -2.3016 H   0  0  0  0  0  0  0  0  0  0  0  0
    2.2930    1.9033   -3.6478 H   0  0  0  0  0  0  0  0  0  0  0  0
    2.8756    3.5916   -2.5256 N   0  0  0  0  0  0  0  0  0  0  0  0
    3.6905    3.8152   -3.0968 H   0  0  0  0  0  0  0  0  0  0  0  0
    2.0791    4.1747   -2.7809 H   0  0  0  0  0  0  0  0  0  0  0  0
    0.4259   -0.9106    1.3169 C   0  0  0  0  0  0  0  0  0  0  0  0
    1.6361   -0.8851    1.4967 O   0  0  0  0  0  0  0  0  0  0  0  0
   -0.4161   -0.4635    2.3193 N   0  0  0  0  0  0  0  0  0  0  0  0
   -1.4107   -0.5763    2.1552 H   0  0  0  0  0  0  0  0  0  0  0  0
    0.0461   -0.1756    3.6709 C   0  0  0  0  0  0  0  0  0  0  0  0
    0.8297    0.5892    3.6541 H   0  0  0  0  0  0  0  0  0  0  0  0
   -0.7818    0.1945    4.2828 H   0  0  0  0  0  0  0  0  0  0  0  0
    0.4476   -1.0810    4.1381 H   0  0  0  0  0  0  0  0  0  0  0  0
  1  2  1  0  0  0  0
  2  3  1  0  0  0  0
  2  4  1  0  0  0  0
  2  5  1  0  0  0  0
  5  6  2  0  0  0  0
  5  7  1  0  0  0  0
  7  8  1  0  0  0  0
  7  9  1  0  0  0  0
  9 10  1  0  0  0  0
  9 11  1  0  0  0  0
  9 26  1  0  0  0  0
 11 12  1  0  0  0  0
 11 13  1  0  0  0  0
 11 14  1  0  0  0  0
 14 15  1  0  0  0  0
 14 16  1  0  0  0  0
 14 17  1  0  0  0  0
 17 18  1  0  0  0  0
 17 19  1  0  0  0  0
 17 20  1  0  0  0  0
 20 21  1  0  0  0  0
 20 22  1  0  0  0  0
 20 23  1  0  0  0  0
 23 24  1  0  0  0  0
 23 25  1  0  0  0  0
 26 27  2  0  0  0  0
 26 28  1  0  0  0  0
 28 29  1  0  0  0  0
 28 30  1  0  0  0  0
 30 31  1  0  0  0  0
 30 32  1  0  0  0  0
 30 33  1  0  0  0  0
M  END
$$$$

  -OEChem-03222214063D

 33 32  0     1  0  0  0  0  0999 V2000
   -2.8912   -4.8990    0.5981 H   0  0  0  0  0  0  0  0  0  0  0  0
   -2.9205   -3.8999    0.1539 C   0  0  0  0  0  0  0  0  0  0  0  0
   -3.7262   -3.3304    0.6231 H   0  0  0  0  0  0  0  0  0  0  0  0
   -3.1249   -3.9975   -0.9150 H   0  0  0  0  0  0  0  0  0  0  0  0
   -1.5941   -3.1945    0.3667 C   0  0  0  0  0  0  0  0  0  0  0  0
   -0.7087   -3.7448    0.9955 O   0  0  0  0  0  0  0  0  0  0  0  0
   -1.4053   -1.9269   -0.1485 N   0  0  0  0  0  0  0  0  0  0  0  0
   -2.1533   -1.5539   -0.7248 H   0  0  0  0  0  0  0  0  0  0  0  0
   -0.1269   -1.1916   -0.1019 C   0  0  1  0  0  0  0  0  0  0  0  0
    0.6094   -1.8296   -0.6022 H   0  0  0  0  0  0  0  0  0  0  0  0
   -0.2851    0.1299   -0.8895 C   0  0  0  0  0  0  0  0  0  0  0  0
   -1.1833    0.0795   -1.5134 H   0  0  0  0  0  0  0  0  0  0  0  0
   -0.4399    0.9592   -0.1904 H   0  0  0  0  0  0  0  0  0  0  0  0
    0.9059    0.4217   -1.8256 C   0  0  0  0  0  0  0  0  0  0  0  0
    1.6517   -0.3783   -1.7762 H   0  0  0  0  0  0  0  0  0  0  0  0
    0.5488    0.4720   -2.8596 H   0  0  0  0  0  0  0  0  0  0  0  0
    1.5799    1.7477   -1.4515 C   0  0  0  0  0  0  0  0  0  0  0  0
    0.8555    2.5635   -1.5402 H   0  0  0  0  0  0  0  0  0  0  0  0
    1.9200    1.7075   -0.4107 H   0  0  0  0  0  0  0  0  0  0  0  0
    2.7754    2.0283   -2.3574 C   0  0  0  0  0  0  0  0  0  0  0  0
    3.5388    1.2544   -2.2187 H   0  0  0  0  0  0  0  0  0  0  0  0
    2.4641    2.0143   -3.4078 H   0  0  0  0  0  0  0  0  0  0  0  0
    3.3252    3.3438   -2.0145 N   0  0  0  0  0  0  0  0  0  0  0  0
    4.1470    3.5611   -2.5780 H   0  0  0  0  0  0  0  0  0  0  0  0
    2.6180    4.0729   -2.1013 H   0  0  0  0  0  0  0  0  0  0  0  0
    0.4357   -0.9155    1.3101 C   0  0  0  0  0  0  0  0  0  0  0  0
    1.6465   -0.8935    1.4863 O   0  0  0  0  0  0  0  0  0  0  0  0
   -0.4005   -0.4570    2.3121 N   0  0  0  0  0  0  0  0  0  0  0  0
   -1.3958   -0.5737    2.1561 H   0  0  0  0  0  0  0  0  0  0  0  0
    0.0705   -0.1556    3.6578 C   0  0  0  0  0  0  0  0  0  0  0  0
    0.8595    0.6037    3.6275 H   0  0  0  0  0  0  0  0  0  0  0  0
   -0.7514    0.2277    4.2698 H   0  0  0  0  0  0  0  0  0  0  0  0
    0.4680   -1.0581    4.1339 H   0  0  0  0  0  0  0  0  0  0  0  0
  1  2  1  0  0  0  0
  2  3  1  0  0  0  0
  2  4  1  0  0  0  0
  2  5  1  0  0  0  0
  5  6  2  0  0  0  0
  5  7  1  0  0  0  0
  7  8  1  0  0  0  0
  7  9  1  0  0  0  0
  9 10  1  0  0  0  0
  9 11  1  0  0  0  0
  9 26  1  0  0  0  0
 11 12  1  0  0  0  0
 11 13  1  0  0  0  0
 11 14  1  0  0  0  0
 14 15  1  0  0  0  0
 14 16  1  0  0  0  0
 14 17  1  0  0  0  0
 17 18  1  0  0  0  0
 17 19  1  0  0  0  0
 17 20  1  0  0  0  0
 20 21  1  0  0  0  0
 20 22  1  0  0  0  0
 20 23  1  0  0  0  0
 23 24  1  0  0  0  0
 23 25  1  0  0  0  0
 26 27  2  0  0  0  0
 26 28  1  0  0  0  0
 28 29  1  0  0  0  0
 28 30  1  0  0  0  0
 30 31  1  0  0  0  0
 30 32  1  0  0  0  0
 30 33  1  0  0  0  0
M  END
$$$$

  -OEChem-03222214063D

 33 32  0     1  0  0  0  0  0999 V2000
   -2.8908   -4.8856    0.6175 H   0  0  0  0  0  0  0  0  0  0  0  0
   -2.9159   -3.8891    0.1672 C   0  0  0  0  0  0  0  0  0  0  0  0
   -3.7166   -3.3118    0.6354 H   0  0  0  0  0  0  0  0  0  0  0  0
   -3.1250   -3.9921   -0.9002 H   0  0  0  0  0  0  0  0  0  0  0  0
   -1.5844   -3.1904    0.3706 C   0  0  0  0  0  0  0  0  0  0  0  0
   -0.6978   -3.7465    0.9923 O   0  0  0  0  0  0  0  0  0  0  0  0
   -1.3909   -1.9246   -0.1478 N   0  0  0  0  0  0  0  0  0  0  0  0
   -2.1420   -1.5451   -0.7157 H   0  0  0  0  0  0  0  0  0  0  0  0
   -0.1101   -1.1921   -0.1026 C   0  0  1  0  0  0  0  0  0  0  0  0
    0.6306   -1.8274   -0.6000 H   0  0  0  0  0  0  0  0  0  0  0  0
   -0.2707    0.1318   -0.8880 C   0  0  0  0  0  0  0  0  0  0  0  0
   -1.1644    0.0636   -1.5164 H   0  0  0  0  0  0  0  0  0  0  0  0
   -0.4386    0.9672   -0.1994 H   0  0  0  0  0  0  0  0  0  0  0  0
    0.9128    0.4293   -1.8295 C   0  0  0  0  0  0  0  0  0  0  0  0
    1.5027   -0.4721   -2.0234 H   0  0  0  0  0  0  0  0  0  0  0  0
    0.5185    0.7713   -2.7922 H   0  0  0  0  0  0  0  0  0  0  0  0
    1.8123    1.5307   -1.2541 C   0  0  0  0  0  0  0  0  0  0  0  0
    1.2281    2.4461   -1.1157 H   0  0  0  0  0  0  0  0  0  0  0  0
    2.1955    1.2226   -0.2754 H   0  0  0  0  0  0  0  0  0  0  0  0
    2.9879    1.8151   -2.1847 C   0  0  0  0  0  0  0  0  0  0  0  0
    3.6185    0.9233   -2.2723 H   0  0  0  0  0  0  0  0  0  0  0  0
    2.6222    2.0734   -3.1846 H   0  0  0  0  0  0  0  0  0  0  0  0
    3.7669    2.9288   -1.6346 N   0  0  0  0  0  0  0  0  0  0  0  0
    4.5735    3.1435   -2.2203 H   0  0  0  0  0  0  0  0  0  0  0  0
    3.1841    3.7537   -1.4951 H   0  0  0  0  0  0  0  0  0  0  0  0
    0.4415   -0.9196    1.3146 C   0  0  0  0  0  0  0  0  0  0  0  0
    1.6491   -0.9246    1.5110 O   0  0  0  0  0  0  0  0  0  0  0  0
   -0.4033   -0.4597    2.3090 N   0  0  0  0  0  0  0  0  0  0  0  0
   -1.3977   -0.5613    2.1377 H   0  0  0  0  0  0  0  0  0  0  0  0
    0.0526   -0.1760    3.6636 C   0  0  0  0  0  0  0  0  0  0  0  0
    0.8485    0.5762    3.6505 H   0  0  0  0  0  0  0  0  0  0  0  0
   -0.7739    0.2094    4.2680 H   0  0  0  0  0  0  0  0  0  0  0  0
    0.4360   -1.0865    4.1360 H   0  0  0  0  0  0  0  0  0  0  0  0
  1  2  1  0  0  0  0
  2  3  1  0  0  0  0
  2  4  1  0  0  0  0
  2  5  1  0  0  0  0
  5  6  2  0  0  0  0
  5  7  1  0  0  0  0
  7  8  1  0  0  0  0
  7  9  1  0  0  0  0
  9 10  1  0  0  0  0
  9 11  1  0  0  0  0
  9 26  1  0  0  0  0
 11 12  1  0  0  0  0
 11 13  1  0  0  0  0
 11 14  1  0  0  0  0
 14 15  1  0  0  0  0
 14 16  1  0  0  0  0
 14 17  1  0  0  0  0
 17 18  1  0  0  0  0
 17 19  1  0  0  0  0
 17 20  1  0  0  0  0
 20 21  1  0  0  0  0
 20 22  1  0  0  0  0
 20 23  1  0  0  0  0
 23 24  1  0  0  0  0
 23 25  1  0  0  0  0
 26 27  2  0  0  0  0
 26 28  1  0  0  0  0
 28 29  1  0  0  0  0
 28 30  1  0  0  0  0
 30 31  1  0  0  0  0
 30 32  1  0  0  0  0
 30 33  1  0  0  0  0
M  END
$$$$

  -OEChem-03222214063D

 33 32  0     1  0  0  0  0  0999 V2000
   -2.9058   -4.8591    0.6300 H   0  0  0  0  0  0  0  0  0  0  0  0
   -2.9168   -3.8623    0.1794 C   0  0  0  0  0  0  0  0  0  0  0  0
   -3.7117   -3.2751    0.6451 H   0  0  0  0  0  0  0  0  0  0  0  0
   -3.1234   -3.9626   -0.8888 H   0  0  0  0  0  0  0  0  0  0  0  0
   -1.5775   -3.1803    0.3875 C   0  0  0  0  0  0  0  0  0  0  0  0
   -0.7036   -3.7439    1.0203 O   0  0  0  0  0  0  0  0  0  0  0  0
   -1.3655   -1.9212   -0.1402 N   0  0  0  0  0  0  0  0  0  0  0  0
   -2.1061   -1.5418   -0.7216 H   0  0  0  0  0  0  0  0  0  0  0  0
   -0.0787   -1.1995   -0.0889 C   0  0  1  0  0  0  0  0  0  0  0  0
    0.6706   -1.8310   -0.5785 H   0  0  0  0  0  0  0  0  0  0  0  0
   -0.2387    0.1222   -0.8798 C   0  0  0  0  0  0  0  0  0  0  0  0
   -1.1327    0.0519   -1.5077 H   0  0  0  0  0  0  0  0  0  0  0  0
   -0.4008    0.9626   -0.1961 H   0  0  0  0  0  0  0  0  0  0  0  0
    0.9410    0.4185   -1.8236 C   0  0  0  0  0  0  0  0  0  0  0  0
    1.3538   -0.5104   -2.2304 H   0  0  0  0  0  0  0  0  0  0  0  0
    0.5637    1.0033   -2.6690 H   0  0  0  0  0  0  0  0  0  0  0  0
    2.0430    1.2325   -1.1331 C   0  0  0  0  0  0  0  0  0  0  0  0
    1.6196    2.1559   -0.7254 H   0  0  0  0  0  0  0  0  0  0  0  0
    2.4658    0.6597   -0.3026 H   0  0  0  0  0  0  0  0  0  0  0  0
    3.1575    1.5774   -2.1178 C   0  0  0  0  0  0  0  0  0  0  0  0
    3.6195    0.6588   -2.4963 H   0  0  0  0  0  0  0  0  0  0  0  0
    2.7477    2.1289   -2.9713 H   0  0  0  0  0  0  0  0  0  0  0  0
    4.1612    2.3943   -1.4291 N   0  0  0  0  0  0  0  0  0  0  0  0
    4.9195    2.6615   -2.0562 H   0  0  0  0  0  0  0  0  0  0  0  0
    3.7366    3.2134   -0.9951 H   0  0  0  0  0  0  0  0  0  0  0  0
    0.4402   -0.9300    1.3429 C   0  0  0  0  0  0  0  0  0  0  0  0
    1.6371   -0.9888    1.5879 O   0  0  0  0  0  0  0  0  0  0  0  0
   -0.4249   -0.4607    2.3156 N   0  0  0  0  0  0  0  0  0  0  0  0
   -1.4151   -0.5360    2.1103 H   0  0  0  0  0  0  0  0  0  0  0  0
   -0.0080   -0.2171    3.6907 C   0  0  0  0  0  0  0  0  0  0  0  0
    0.8055    0.5156    3.7205 H   0  0  0  0  0  0  0  0  0  0  0  0
   -0.8450    0.1747    4.2764 H   0  0  0  0  0  0  0  0  0  0  0  0
    0.3380   -1.1464    4.1553 H   0  0  0  0  0  0  0  0  0  0  0  0
  1  2  1  0  0  0  0
  2  3  1  0  0  0  0
  2  4  1  0  0  0  0
  2  5  1  0  0  0  0
  5  6  2  0  0  0  0
  5  7  1  0  0  0  0
  7  8  1  0  0  0  0
  7  9  1  0  0  0  0
  9 10  1  0  0  0  0
  9 11  1  0  0  0  0
  9 26  1  0  0  0  0
 11 12  1  0  0  0  0
 11 13  1  0  0  0  0
 11 14  1  0  0  0  0
 14 15  1  0  0  0  0
 14 16  1  0  0  0  0
 14 17  1  0  0  0  0
 17 18  1  0  0  0  0
 17 19  1  0  0  0  0
 17 20  1  0  0  0  0
 20 21  1  0  0  0  0
 20 22  1  0  0  0  0
 20 23  1  0  0  0  0
 23 24  1  0  0  0  0
 23 25  1  0  0  0  0
 26 27  2  0  0  0  0
 26 28  1  0  0  0  0
 28 29  1  0  0  0  0
 28 30  1  0  0  0  0
 30 31  1  0  0  0  0
 30 32  1  0  0  0  0
 30 33  1  0  0  0  0
M  END
$$$$

  -OEChem-03222214063D

 33 32  0     1  0  0  0  0  0999 V2000
   -2.9332   -4.8380    0.6583 H   0  0  0  0  0  0  0  0  0  0  0  0
   -2.9316   -3.8452    0.1991 C   0  0  0  0  0  0  0  0  0  0  0  0
   -3.7277   -3.2480    0.6499 H   0  0  0  0  0  0  0  0  0  0  0  0
   -3.1262   -3.9539   -0.8706 H   0  0  0  0  0  0  0  0  0  0  0  0
   -1.5895   -3.1722    0.4183 C   0  0  0  0  0  0  0  0  0  0  0  0
   -0.7322   -3.7349    1.0738 O   0  0  0  0  0  0  0  0  0  0  0  0
   -1.3551   -1.9247   -0.1276 N   0  0  0  0  0  0  0  0  0  0  0  0
   -2.0791   -1.5529   -0.7342 H   0  0  0  0  0  0  0  0  0  0  0  0
   -0.0581   -1.2202   -0.0787 C   0  0  1  0  0  0  0  0  0  0  0  0
    0.6925   -1.8574   -0.5598 H   0  0  0  0  0  0  0  0  0  0  0  0
   -0.2062    0.0974   -0.8779 C   0  0  0  0  0  0  0  0  0  0  0  0
   -1.1074    0.0448   -1.4971 H   0  0  0  0  0  0  0  0  0  0  0  0
   -0.3417    0.9431   -0.1948 H   0  0  0  0  0  0  0  0  0  0  0  0
    0.9705    0.3791   -1.8273 C   0  0  0  0  0  0  0  0  0  0  0  0
    1.1972   -0.5143   -2.4189 H   0  0  0  0  0  0  0  0  0  0  0  0
    0.6582    1.1632   -2.5249 H   0  0  0  0  0  0  0  0  0  0  0  0
    2.2333    0.8534   -1.0976 C   0  0  0  0  0  0  0  0  0  0  0  0
    1.9827    1.6654   -0.4077 H   0  0  0  0  0  0  0  0  0  0  0  0
    2.6556    0.0302   -0.5140 H   0  0  0  0  0  0  0  0  0  0  0  0
    3.2801    1.3418   -2.0963 C   0  0  0  0  0  0  0  0  0  0  0  0
    3.5319    0.5397   -2.7989 H   0  0  0  0  0  0  0  0  0  0  0  0
    2.8827    2.1855   -2.6711 H   0  0  0  0  0  0  0  0  0  0  0  0
    4.4797    1.7554   -1.3630 N   0  0  0  0  0  0  0  0  0  0  0  0
    5.1812    2.1532   -1.9867 H   0  0  0  0  0  0  0  0  0  0  0  0
    4.2473    2.4023   -0.6094 H   0  0  0  0  0  0  0  0  0  0  0  0
    0.4390   -0.9435    1.3615 C   0  0  0  0  0  0  0  0  0  0  0  0
    1.6276   -1.0205    1.6387 O   0  0  0  0  0  0  0  0  0  0  0  0
   -0.4407   -0.4524    2.3105 N   0  0  0  0  0  0  0  0  0  0  0  0
   -1.4266   -0.5193    2.0825 H   0  0  0  0  0  0  0  0  0  0  0  0
   -0.0563   -0.2224    3.6974 C   0  0  0  0  0  0  0  0  0  0  0  0
    0.7685    0.4958    3.7529 H   0  0  0  0  0  0  0  0  0  0  0  0
   -0.9016    0.1810    4.2629 H   0  0  0  0  0  0  0  0  0  0  0  0
    0.2607   -1.1599    4.1662 H   0  0  0  0  0  0  0  0  0  0  0  0
  1  2  1  0  0  0  0
  2  3  1  0  0  0  0
  2  4  1  0  0  0  0
  2  5  1  0  0  0  0
  5  6  2  0  0  0  0
  5  7  1  0  0  0  0
  7  8  1  0  0  0  0
  7  9  1  0  0  0  0
  9 10  1  0  0  0  0
  9 11  1  0  0  0  0
  9 26  1  0  0  0  0
 11 12  1  0  0  0  0
 11 13  1  0  0  0  0
 11 14  1  0  0  0  0
 14 15  1  0  0  0  0
 14 16  1  0  0  0  0
 14 17  1  0  0  0  0
 17 18  1  0  0  0  0
 17 19  1  0  0  0  0
 17 20  1  0  0  0  0
 20 21  1  0  0  0  0
 20 22  1  0  0  0  0
 20 23  1  0  0  0  0
 23 24  1  0  0  0  0
 23 25  1  0  0  0  0
 26 27  2  0  0  0  0
 26 28  1  0  0  0  0
 28 29  1  0  0  0  0
 28 30  1  0  0  0  0
 30 31  1  0  0  0  0
 30 32  1  0  0  0  0
 30 33  1  0  0  0  0
M  END
$$$$

  -OEChem-03222214063D

 33 32  0     1  0  0  0  0  0999 V2000
   -2.9418   -4.8422    0.6755 H   0  0  0  0  0  0  0  0  0  0  0  0
   -2.9385   -3.8534    0.2078 C   0  0  0  0  0  0  0  0  0  0  0  0
   -3.7389   -3.2539    0.6481 H   0  0  0  0  0  0  0  0  0  0  0  0
   -3.1251   -3.9714   -0.8623 H   0  0  0  0  0  0  0  0  0  0  0  0
   -1.5990   -3.1762    0.4302 C   0  0  0  0  0  0  0  0  0  0  0  0
   -0.7452   -3.7330    1.0953 O   0  0  0  0  0  0  0  0  0  0  0  0
   -1.3632   -1.9314   -0.1216 N   0  0  0  0  0  0  0  0  0  0  0  0
   -2.0825   -1.5667   -0.7380 H   0  0  0  0  0  0  0  0  0  0  0  0
   -0.0633   -1.2315   -0.0785 C   0  0  1  0  0  0  0  0  0  0  0  0
    0.6809   -1.8746   -0.5614 H   0  0  0  0  0  0  0  0  0  0  0  0
   -0.2066    0.0847   -0.8823 C   0  0  0  0  0  0  0  0  0  0  0  0
   -1.1168    0.0491   -1.4894 H   0  0  0  0  0  0  0  0  0  0  0  0
   -0.3184    0.9281   -0.1924 H   0  0  0  0  0  0  0  0  0  0  0  0
    0.9637    0.3703   -1.8396 C   0  0  0  0  0  0  0  0  0  0  0  0
    1.0207   -0.4247   -2.5906 H   0  0  0  0  0  0  0  0  0  0  0  0
    0.7498    1.3065   -2.3657 H   0  0  0  0  0  0  0  0  0  0  0  0
    2.3211    0.4927   -1.1357 C   0  0  0  0  0  0  0  0  0  0  0  0
    2.2334    1.1578   -0.2706 H   0  0  0  0  0  0  0  0  0  0  0  0
    2.6430   -0.4901   -0.7776 H   0  0  0  0  0  0  0  0  0  0  0  0
    3.3774    1.0437   -2.0899 C   0  0  0  0  0  0  0  0  0  0  0  0
    3.4320    0.4250   -2.9925 H   0  0  0  0  0  0  0  0  0  0  0  0
    3.1115    2.0631   -2.3906 H   0  0  0  0  0  0  0  0  0  0  0  0
    4.6738    1.0406   -1.4073 N   0  0  0  0  0  0  0  0  0  0  0  0
    5.3901    1.5099   -1.9602 H   0  0  0  0  0  0  0  0  0  0  0  0
    4.6000    1.4494   -0.4751 H   0  0  0  0  0  0  0  0  0  0  0  0
    0.4382   -0.9515    1.3608 C   0  0  0  0  0  0  0  0  0  0  0  0
    1.6293   -1.0099    1.6335 O   0  0  0  0  0  0  0  0  0  0  0  0
   -0.4392   -0.4541    2.3086 N   0  0  0  0  0  0  0  0  0  0  0  0
   -1.4257   -0.5311    2.0864 H   0  0  0  0  0  0  0  0  0  0  0  0
   -0.0494   -0.2073    3.6911 C   0  0  0  0  0  0  0  0  0  0  0  0
    0.7739    0.5136    3.7342 H   0  0  0  0  0  0  0  0  0  0  0  0
   -0.8932    0.2005    4.2555 H   0  0  0  0  0  0  0  0  0  0  0  0
    0.2723   -1.1386    4.1692 H   0  0  0  0  0  0  0  0  0  0  0  0
  1  2  1  0  0  0  0
  2  3  1  0  0  0  0
  2  4  1  0  0  0  0
  2  5  1  0  0  0  0
  5  6  2  0  0  0  0
  5  7  1  0  0  0  0
  7  8  1  0  0  0  0
  7  9  1  0  0  0  0
  9 10  1  0  0  0  0
  9 11  1  0  0  0  0
  9 26  1  0  0  0  0
 11 12  1  0  0  0  0
 11 13  1  0  0  0  0
 11 14  1  0  0  0  0
 14 15  1  0  0  0  0
 14 16  1  0  0  0  0
 14 17  1  0  0  0  0
 17 18  1  0  0  0  0
 17 19  1  0  0  0  0
 17 20  1  0  0  0  0
 20 21  1  0  0  0  0
 20 22  1  0  0  0  0
 20 23  1  0  0  0  0
 23 24  1  0  0  0  0
 23 25  1  0  0  0  0
 26 27  2  0  0  0  0
 26 28  1  0  0  0  0
 28 29  1  0  0  0  0
 28 30  1  0  0  0  0
 30 31  1  0  0  0  0
 30 32  1  0  0  0  0
 30 33  1  0  0  0  0
M  END
$$$$

  -OEChem-03222214063D

 33 32  0     1  0  0  0  0  0999 V2000
   -2.9675   -4.8485    0.6606 H   0  0  0  0  0  0  0  0  0  0  0  0
   -2.9589   -3.8561    0.2005 C   0  0  0  0  0  0  0  0  0  0  0  0
   -3.7606   -3.2578    0.6401 H   0  0  0  0  0  0  0  0  0  0  0  0
   -3.1393   -3.9658   -0.8716 H   0  0  0  0  0  0  0  0  0  0  0  0
   -1.6195   -3.1835    0.4370 C   0  0  0  0  0  0  0  0  0  0  0  0
   -0.7753   -3.7417    1.1132 O   0  0  0  0  0  0  0  0  0  0  0  0
   -1.3750   -1.9388   -0.1111 N   0  0  0  0  0  0  0  0  0  0  0  0
   -2.0866   -1.5722   -0.7354 H   0  0  0  0  0  0  0  0  0  0  0  0
   -0.0722   -1.2455   -0.0581 C   0  0  1  0  0  0  0  0  0  0  0  0
    0.6611   -1.9038   -0.5350 H   0  0  0  0  0  0  0  0  0  0  0  0
   -0.1998    0.0676   -0.8721 C   0  0  0  0  0  0  0  0  0  0  0  0
   -1.1140    0.0465   -1.4738 H   0  0  0  0  0  0  0  0  0  0  0  0
   -0.3014    0.9062   -0.1745 H   0  0  0  0  0  0  0  0  0  0  0  0
    0.9682    0.3760   -1.8310 C   0  0  0  0  0  0  0  0  0  0  0  0
    0.8746   -0.2673   -2.7124 H   0  0  0  0  0  0  0  0  0  0  0  0
    0.8687    1.4132   -2.1682 H   0  0  0  0  0  0  0  0  0  0  0  0
    2.3687    0.1692   -1.2360 C   0  0  0  0  0  0  0  0  0  0  0  0
    2.4436    0.6961   -0.2796 H   0  0  0  0  0  0  0  0  0  0  0  0
    2.5525   -0.8941   -1.0548 H   0  0  0  0  0  0  0  0  0  0  0  0
    3.4418    0.7007   -2.1818 C   0  0  0  0  0  0  0  0  0  0  0  0
    3.3379    0.2415   -3.1711 H   0  0  0  0  0  0  0  0  0  0  0  0
    3.3337    1.7849   -2.2950 H   0  0  0  0  0  0  0  0  0  0  0  0
    4.7564    0.3787   -1.6215 N   0  0  0  0  0  0  0  0  0  0  0  0
    5.5067    0.8262   -2.1465 H   0  0  0  0  0  0  0  0  0  0  0  0
    4.8028    0.6231   -0.6312 H   0  0  0  0  0  0  0  0  0  0  0  0
    0.4274   -0.9677    1.3816 C   0  0  0  0  0  0  0  0  0  0  0  0
    1.6189   -1.0255    1.6534 O   0  0  0  0  0  0  0  0  0  0  0  0
   -0.4503   -0.4658    2.3268 N   0  0  0  0  0  0  0  0  0  0  0  0
   -1.4366   -0.5451    2.1038 H   0  0  0  0  0  0  0  0  0  0  0  0
   -0.0631   -0.2198    3.7103 C   0  0  0  0  0  0  0  0  0  0  0  0
    0.7588    0.5025    3.7563 H   0  0  0  0  0  0  0  0  0  0  0  0
   -0.9089    0.1856    4.2735 H   0  0  0  0  0  0  0  0  0  0  0  0
    0.2593   -1.1509    4.1882 H   0  0  0  0  0  0  0  0  0  0  0  0
  1  2  1  0  0  0  0
  2  3  1  0  0  0  0
  2  4  1  0  0  0  0
  2  5  1  0  0  0  0
  5  6  2  0  0  0  0
  5  7  1  0  0  0  0
  7  8  1  0  0  0  0
  7  9  1  0  0  0  0
  9 10  1  0  0  0  0
  9 11  1  0  0  0  0
  9 26  1  0  0  0  0
 11 12  1  0  0  0  0
 11 13  1  0  0  0  0
 11 14  1  0  0  0  0
 14 15  1  0  0  0  0
 14 16  1  0  0  0  0
 14 17  1  0  0  0  0
 17 18  1  0  0  0  0
 17 19  1  0  0  0  0
 17 20  1  0  0  0  0
 20 21  1  0  0  0  0
 20 22  1  0  0  0  0
 20 23  1  0  0  0  0
 23 24  1  0  0  0  0
 23 25  1  0  0  0  0
 26 27  2  0  0  0  0
 26 28  1  0  0  0  0
 28 29  1  0  0  0  0
 28 30  1  0  0  0  0
 30 31  1  0  0  0  0
 30 32  1  0  0  0  0
 30 33  1  0  0  0  0
M  END
$$$$

  -OEChem-03222214063D

 33 32  0     1  0  0  0  0  0999 V2000
   -3.0299   -4.8396    0.6735 H   0  0  0  0  0  0  0  0  0  0  0  0
   -3.0039   -3.8503    0.2072 C   0  0  0  0  0  0  0  0  0  0  0  0
   -3.8049   -3.2405    0.6316 H   0  0  0  0  0  0  0  0  0  0  0  0
   -3.1699   -3.9647   -0.8667 H   0  0  0  0  0  0  0  0  0  0  0  0
   -1.6608   -3.1909    0.4585 C   0  0  0  0  0  0  0  0  0  0  0  0
   -0.8340   -3.7528    1.1532 O   0  0  0  0  0  0  0  0  0  0  0  0
   -1.3936   -1.9533   -0.0953 N   0  0  0  0  0  0  0  0  0  0  0  0
   -2.0898   -1.5863   -0.7366 H   0  0  0  0  0  0  0  0  0  0  0  0
   -0.0813   -1.2792   -0.0342 C   0  0  1  0  0  0  0  0  0  0  0  0
    0.6390   -1.9601   -0.4946 H   0  0  0  0  0  0  0  0  0  0  0  0
   -0.1820    0.0319   -0.8597 C   0  0  0  0  0  0  0  0  0  0  0  0
   -1.0988    0.0246   -1.4577 H   0  0  0  0  0  0  0  0  0  0  0  0
   -0.2765    0.8683   -0.1589 H   0  0  0  0  0  0  0  0  0  0  0  0
    0.9828    0.3558   -1.8241 C   0  0  0  0  0  0  0  0  0  0  0  0
    0.7455   -0.0786   -2.8009 H   0  0  0  0  0  0  0  0  0  0  0  0
    1.0241    1.4424   -1.9532 H   0  0  0  0  0  0  0  0  0  0  0  0
    2.3723   -0.1588   -1.4175 C   0  0  0  0  0  0  0  0  0  0  0  0
    2.5947    0.1509   -0.3924 H   0  0  0  0  0  0  0  0  0  0  0  0
    2.4046   -1.2510   -1.4640 H   0  0  0  0  0  0  0  0  0  0  0  0
    3.4489    0.4000   -2.3431 C   0  0  0  0  0  0  0  0  0  0  0  0
    3.2142    0.1632   -3.3868 H   0  0  0  0  0  0  0  0  0  0  0  0
    3.4979    1.4898   -2.2424 H   0  0  0  0  0  0  0  0  0  0  0  0
    4.7331   -0.2003   -1.9734 N   0  0  0  0  0  0  0  0  0  0  0  0
    5.5058    0.2293   -2.4809 H   0  0  0  0  0  0  0  0  0  0  0  0
    4.8828   -0.1483   -0.9645 H   0  0  0  0  0  0  0  0  0  0  0  0
    0.4136   -0.9976    1.4060 C   0  0  0  0  0  0  0  0  0  0  0  0
    1.6035   -1.0642    1.6835 O   0  0  0  0  0  0  0  0  0  0  0  0
   -0.4628   -0.4753    2.3409 N   0  0  0  0  0  0  0  0  0  0  0  0
   -1.4488   -0.5463    2.1139 H   0  0  0  0  0  0  0  0  0  0  0  0
   -0.0792   -0.2173    3.7228 C   0  0  0  0  0  0  0  0  0  0  0  0
    0.7503    0.4964    3.7638 H   0  0  0  0  0  0  0  0  0  0  0  0
   -0.9230    0.2042    4.2771 H   0  0  0  0  0  0  0  0  0  0  0  0
    0.2308   -1.1461    4.2131 H   0  0  0  0  0  0  0  0  0  0  0  0
  1  2  1  0  0  0  0
  2  3  1  0  0  0  0
  2  4  1  0  0  0  0
  2  5  1  0  0  0  0
  5  6  2  0  0  0  0
  5  7  1  0  0  0  0
  7  8  1  0  0  0  0
  7  9  1  0  0  0  0
  9 10  1  0  0  0  0
  9 11  1  0  0  0  0
  9 26  1  0  0  0  0
 11 12  1  0  0  0  0
 11 13  1  0  0  0  0
 11 14  1  0  0  0  0
 14 15  1  0  0  0  0
 14 16  1  0  0  0  0
 14 17  1  0  0  0  0
 17 18  1  0  0  0  0
 17 19  1  0  0  0  0
 17 20  1  0  0  0  0
 20 21  1  0  0  0  0
 20 22  1  0  0  0  0
 20 23  1  0  0  0  0
 23 24  1  0  0  0  0
 23 25  1  0  0  0  0
 26 27  2  0  0  0  0
 26 28  1  0  0  0  0
 28 29  1  0  0  0  0
 28 30  1  0  0  0  0
 30 31  1  0  0  0  0
 30 32  1  0  0  0  0
 30 33  1  0  0  0  0
M  END
$$$$

  -OEChem-03222214063D

 33 32  0     1  0  0  0  0  0999 V2000
   -3.0700   -4.8389    0.6935 H   0  0  0  0  0  0  0  0  0  0  0  0
   -3.0357   -3.8530    0.2206 C   0  0  0  0  0  0  0  0  0  0  0  0
   -3.8365   -3.2361    0.6353 H   0  0  0  0  0  0  0  0  0  0  0  0
   -3.1951   -3.9741   -0.8536 H   0  0  0  0  0  0  0  0  0  0  0  0
   -1.6909   -3.1987    0.4762 C   0  0  0  0  0  0  0  0  0  0  0  0
   -0.8712   -3.7594    1.1802 O   0  0  0  0  0  0  0  0  0  0  0  0
   -1.4140   -1.9664   -0.0842 N   0  0  0  0  0  0  0  0  0  0  0  0
   -2.1019   -1.6035   -0.7369 H   0  0  0  0  0  0  0  0  0  0  0  0
   -0.0953   -1.3043   -0.0264 C   0  0  1  0  0  0  0  0  0  0  0  0
    0.6167   -1.9985   -0.4783 H   0  0  0  0  0  0  0  0  0  0  0  0
   -0.1796    0.0107   -0.8499 C   0  0  0  0  0  0  0  0  0  0  0  0
   -1.0977    0.0068   -1.4460 H   0  0  0  0  0  0  0  0  0  0  0  0
   -0.2751    0.8471   -0.1489 H   0  0  0  0  0  0  0  0  0  0  0  0
    0.9805    0.3419   -1.8226 C   0  0  0  0  0  0  0  0  0  0  0  0
    0.6251    0.1759   -2.8451 H   0  0  0  0  0  0  0  0  0  0  0  0
    1.2013    1.4104   -1.7279 H   0  0  0  0  0  0  0  0  0  0  0  0
    2.2869   -0.4494   -1.6549 C   0  0  0  0  0  0  0  0  0  0  0  0
    2.6178   -0.4084   -0.6137 H   0  0  0  0  0  0  0  0  0  0  0  0
    2.1282   -1.4969   -1.9291 H   0  0  0  0  0  0  0  0  0  0  0  0
    3.3889    0.1251   -2.5395 C   0  0  0  0  0  0  0  0  0  0  0  0
    3.0654    0.1447   -3.5859 H   0  0  0  0  0  0  0  0  0  0  0  0
    3.6167    1.1521   -2.2330 H   0  0  0  0  0  0  0  0  0  0  0  0
    4.5773   -0.7204   -2.4003 N   0  0  0  0  0  0  0  0  0  0  0  0
    5.3739   -0.3271   -2.9004 H   0  0  0  0  0  0  0  0  0  0  0  0
    4.8028   -0.8708   -1.4156 H   0  0  0  0  0  0  0  0  0  0  0  0
    0.4060   -1.0186    1.4107 C   0  0  0  0  0  0  0  0  0  0  0  0
    1.5993   -1.0717    1.6769 O   0  0  0  0  0  0  0  0  0  0  0  0
   -0.4631   -0.4826    2.3447 N   0  0  0  0  0  0  0  0  0  0  0  0
   -1.4509   -0.5570    2.1266 H   0  0  0  0  0  0  0  0  0  0  0  0
   -0.0685   -0.1962    3.7181 C   0  0  0  0  0  0  0  0  0  0  0  0
    0.7624    0.5169    3.7378 H   0  0  0  0  0  0  0  0  0  0  0  0
   -0.9074    0.2387    4.2695 H   0  0  0  0  0  0  0  0  0  0  0  0
    0.2435   -1.1150    4.2257 H   0  0  0  0  0  0  0  0  0  0  0  0
  1  2  1  0  0  0  0
  2  3  1  0  0  0  0
  2  4  1  0  0  0  0
  2  5  1  0  0  0  0
  5  6  2  0  0  0  0
  5  7  1  0  0  0  0
  7  8  1  0  0  0  0
  7  9  1  0  0  0  0
  9 10  1  0  0  0  0
  9 11  1  0  0  0  0
  9 26  1  0  0  0  0
 11 12  1  0  0  0  0
 11 13  1  0  0  0  0
 11 14  1  0  0  0  0
 14 15  1  0  0  0  0
 14 16  1  0  0  0  0
 14 17  1  0  0  0  0
 17 18  1  0  0  0  0
 17 19  1  0  0  0  0
 17 20  1  0  0  0  0
 20 21  1  0  0  0  0
 20 22  1  0  0  0  0
 20 23  1  0  0  0  0
 23 24  1  0  0  0  0
 23 25  1  0  0  0  0
 26 27  2  0  0  0  0
 26 28  1  0  0  0  0
 28 29  1  0  0  0  0
 28 30  1  0  0  0  0
 30 31  1  0  0  0  0
 30 32  1  0  0  0  0
 30 33  1  0  0  0  0
M  END
$$$$

  -OEChem-03222214063D

 33 32  0     1  0  0  0  0  0999 V2000
   -3.0771   -4.8594    0.6748 H   0  0  0  0  0  0  0  0  0  0  0  0
   -3.0477   -3.8713    0.2067 C   0  0  0  0  0  0  0  0  0  0  0  0
   -3.8550   -3.2623    0.6204 H   0  0  0  0  0  0  0  0  0  0  0  0
   -3.2014   -3.9887   -0.8686 H   0  0  0  0  0  0  0  0  0  0  0  0
   -1.7087   -3.2084    0.4716 C   0  0  0  0  0  0  0  0  0  0  0  0
   -0.8897   -3.7631    1.1816 O   0  0  0  0  0  0  0  0  0  0  0  0
   -1.4370   -1.9720   -0.0824 N   0  0  0  0  0  0  0  0  0  0  0  0
   -2.1221   -1.6128   -0.7399 H   0  0  0  0  0  0  0  0  0  0  0  0
   -0.1200   -1.3076   -0.0219 C   0  0  1  0  0  0  0  0  0  0  0  0
    0.5852   -2.0093   -0.4717 H   0  0  0  0  0  0  0  0  0  0  0  0
   -0.1903    0.0123   -0.8390 C   0  0  0  0  0  0  0  0  0  0  0  0
   -1.0968   -0.0088   -1.4523 H   0  0  0  0  0  0  0  0  0  0  0  0
   -0.3127    0.8514   -0.1457 H   0  0  0  0  0  0  0  0  0  0  0  0
    0.9765    0.3476   -1.8039 C   0  0  0  0  0  0  0  0  0  0  0  0
    0.5644    0.4822   -2.8095 H   0  0  0  0  0  0  0  0  0  0  0  0
    1.3912    1.3133   -1.4952 H   0  0  0  0  0  0  0  0  0  0  0  0
    2.1357   -0.6571   -1.8899 C   0  0  0  0  0  0  0  0  0  0  0  0
    2.5477   -0.8412   -0.8928 H   0  0  0  0  0  0  0  0  0  0  0  0
    1.7724   -1.6059   -2.2977 H   0  0  0  0  0  0  0  0  0  0  0  0
    3.2486   -0.1270   -2.7889 C   0  0  0  0  0  0  0  0  0  0  0  0
    2.8560    0.0994   -3.7864 H   0  0  0  0  0  0  0  0  0  0  0  0
    3.6623    0.7955   -2.3667 H   0  0  0  0  0  0  0  0  0  0  0  0
    4.2911   -1.1522   -2.8835 N   0  0  0  0  0  0  0  0  0  0  0  0
    5.0924   -0.8180   -3.4179 H   0  0  0  0  0  0  0  0  0  0  0  0
    4.5781   -1.4635   -1.9543 H   0  0  0  0  0  0  0  0  0  0  0  0
    0.3997   -1.0211    1.4062 C   0  0  0  0  0  0  0  0  0  0  0  0
    1.6015   -1.0393    1.6385 O   0  0  0  0  0  0  0  0  0  0  0  0
   -0.4568   -0.4872    2.3527 N   0  0  0  0  0  0  0  0  0  0  0  0
   -1.4481   -0.5822    2.1589 H   0  0  0  0  0  0  0  0  0  0  0  0
   -0.0353   -0.1723    3.7117 C   0  0  0  0  0  0  0  0  0  0  0  0
    0.7874    0.5505    3.7008 H   0  0  0  0  0  0  0  0  0  0  0  0
   -0.8669    0.2625    4.2740 H   0  0  0  0  0  0  0  0  0  0  0  0
    0.2983   -1.0789    4.2272 H   0  0  0  0  0  0  0  0  0  0  0  0
  1  2  1  0  0  0  0
  2  3  1  0  0  0  0
  2  4  1  0  0  0  0
  2  5  1  0  0  0  0
  5  6  2  0  0  0  0
  5  7  1  0  0  0  0
  7  8  1  0  0  0  0
  7  9  1  0  0  0  0
  9 10  1  0  0  0  0
  9 11  1  0  0  0  0
  9 26  1  0  0  0  0
 11 12  1  0  0  0  0
 11 13  1  0  0  0  0
 11 14  1  0  0  0  0
 14 15  1  0  0  0  0
 14 16  1  0  0  0  0
 14 17  1  0  0  0  0
 17 18  1  0  0  0  0
 17 19  1  0  0  0  0
 17 20  1  0  0  0  0
 20 21  1  0  0  0  0
 20 22  1  0  0  0  0
 20 23  1  0  0  0  0
 23 24  1  0  0  0  0
 23 25  1  0  0  0  0
 26 27  2  0  0  0  0
 26 28  1  0  0  0  0
 28 29  1  0  0  0  0
 28 30  1  0  0  0  0
 30 31  1  0  0  0  0
 30 32  1  0  0  0  0
 30 33  1  0  0  0  0
M  END
$$$$

  -OEChem-03222214063D

 33 32  0     1  0  0  0  0  0999 V2000
   -3.0685   -4.8684    0.6482 H   0  0  0  0  0  0  0  0  0  0  0  0
   -3.0394   -3.8822    0.1758 C   0  0  0  0  0  0  0  0  0  0  0  0
   -3.8607   -3.2792    0.5703 H   0  0  0  0  0  0  0  0  0  0  0  0
   -3.1706   -4.0062   -0.9018 H   0  0  0  0  0  0  0  0  0  0  0  0
   -1.7127   -3.2047    0.4636 C   0  0  0  0  0  0  0  0  0  0  0  0
   -0.8988   -3.7512    1.1857 O   0  0  0  0  0  0  0  0  0  0  0  0
   -1.4460   -1.9643   -0.0828 N   0  0  0  0  0  0  0  0  0  0  0  0
   -2.1242   -1.6123   -0.7513 H   0  0  0  0  0  0  0  0  0  0  0  0
   -0.1331   -1.2935   -0.0112 C   0  0  1  0  0  0  0  0  0  0  0  0
    0.5732   -1.9982   -0.4532 H   0  0  0  0  0  0  0  0  0  0  0  0
   -0.1926    0.0249   -0.8305 C   0  0  0  0  0  0  0  0  0  0  0  0
   -1.0812   -0.0189   -1.4683 H   0  0  0  0  0  0  0  0  0  0  0  0
   -0.3444    0.8715   -0.1523 H   0  0  0  0  0  0  0  0  0  0  0  0
    0.9883    0.3553   -1.7780 C   0  0  0  0  0  0  0  0  0  0  0  0
    0.5791    0.7636   -2.7082 H   0  0  0  0  0  0  0  0  0  0  0  0
    1.5748    1.1514   -1.3066 H   0  0  0  0  0  0  0  0  0  0  0  0
    1.9590   -0.7855   -2.1182 C   0  0  0  0  0  0  0  0  0  0  0  0
    2.4509   -1.1426   -1.2074 H   0  0  0  0  0  0  0  0  0  0  0  0
    1.4065   -1.6181   -2.5660 H   0  0  0  0  0  0  0  0  0  0  0  0
    3.0299   -0.3123   -3.0966 C   0  0  0  0  0  0  0  0  0  0  0  0
    2.5647    0.0798   -4.0077 H   0  0  0  0  0  0  0  0  0  0  0  0
    3.6218    0.4906   -2.6432 H   0  0  0  0  0  0  0  0  0  0  0  0
    3.8907   -1.4514   -3.4269 N   0  0  0  0  0  0  0  0  0  0  0  0
    4.6520   -1.1729   -4.0457 H   0  0  0  0  0  0  0  0  0  0  0  0
    4.2538   -1.8895   -2.5793 H   0  0  0  0  0  0  0  0  0  0  0  0
    0.3910   -1.0048    1.4134 C   0  0  0  0  0  0  0  0  0  0  0  0
    1.5961   -1.0085    1.6296 O   0  0  0  0  0  0  0  0  0  0  0  0
   -0.4605   -0.4755    2.3671 N   0  0  0  0  0  0  0  0  0  0  0  0
   -1.4529   -0.5779    2.1826 H   0  0  0  0  0  0  0  0  0  0  0  0
   -0.0288   -0.1693    3.7250 C   0  0  0  0  0  0  0  0  0  0  0  0
    0.7832    0.5654    3.7133 H   0  0  0  0  0  0  0  0  0  0  0  0
   -0.8601    0.2470    4.3018 H   0  0  0  0  0  0  0  0  0  0  0  0
    0.3237   -1.0766    4.2267 H   0  0  0  0  0  0  0  0  0  0  0  0
  1  2  1  0  0  0  0
  2  3  1  0  0  0  0
  2  4  1  0  0  0  0
  2  5  1  0  0  0  0
  5  6  2  0  0  0  0
  5  7  1  0  0  0  0
  7  8  1  0  0  0  0
  7  9  1  0  0  0  0
  9 10  1  0  0  0  0
  9 11  1  0  0  0  0
  9 26  1  0  0  0  0
 11 12  1  0  0  0  0
 11 13  1  0  0  0  0
 11 14  1  0  0  0  0
 14 15  1  0  0  0  0
 14 16  1  0  0  0  0
 14 17  1  0  0  0  0
 17 18  1  0  0  0  0
 17 19  1  0  0  0  0
 17 20  1  0  0  0  0
 20 21  1  0  0  0  0
 20 22  1  0  0  0  0
 20 23  1  0  0  0  0
 23 24  1  0  0  0  0
 23 25  1  0  0  0  0
 26 27  2  0  0  0  0
 26 28  1  0  0  0  0
 28 29  1  0  0  0  0
 28 30  1  0  0  0  0
 30 31  1  0  0  0  0
 30 32  1  0  0  0  0
 30 33  1  0  0  0  0
M  END
$$$$

  -OEChem-03222214063D

 33 32  0     1  0  0  0  0  0999 V2000
   -3.0542   -4.8696    0.6100 H   0  0  0  0  0  0  0  0  0  0  0  0
   -3.0219   -3.8831    0.1387 C   0  0  0  0  0  0  0  0  0  0  0  0
   -3.8528   -3.2841    0.5191 H   0  0  0  0  0  0  0  0  0  0  0  0
   -3.1331   -4.0067   -0.9413 H   0  0  0  0  0  0  0  0  0  0  0  0
   -1.7037   -3.1996    0.4500 C   0  0  0  0  0  0  0  0  0  0  0  0
   -0.8956   -3.7460    1.1789 O   0  0  0  0  0  0  0  0  0  0  0  0
   -1.4362   -1.9558   -0.0883 N   0  0  0  0  0  0  0  0  0  0  0  0
   -2.1056   -1.6070   -0.7675 H   0  0  0  0  0  0  0  0  0  0  0  0
   -0.1244   -1.2847   -0.0048 C   0  0  1  0  0  0  0  0  0  0  0  0
    0.5885   -1.9840   -0.4443 H   0  0  0  0  0  0  0  0  0  0  0  0
   -0.1796    0.0382   -0.8147 C   0  0  0  0  0  0  0  0  0  0  0  0
   -1.0605   -0.0034   -1.4630 H   0  0  0  0  0  0  0  0  0  0  0  0
   -0.3339    0.8840   -0.1362 H   0  0  0  0  0  0  0  0  0  0  0  0
    1.0129    0.3576   -1.7459 C   0  0  0  0  0  0  0  0  0  0  0  0
    0.6513    1.0044   -2.5522 H   0  0  0  0  0  0  0  0  0  0  0  0
    1.7441    0.9343   -1.1691 H   0  0  0  0  0  0  0  0  0  0  0  0
    1.7519   -0.8454   -2.3514 C   0  0  0  0  0  0  0  0  0  0  0  0
    2.2978   -1.3829   -1.5696 H   0  0  0  0  0  0  0  0  0  0  0  0
    1.0291   -1.5304   -2.8065 H   0  0  0  0  0  0  0  0  0  0  0  0
    2.7502   -0.3911   -3.4115 C   0  0  0  0  0  0  0  0  0  0  0  0
    2.2360    0.1653   -4.2029 H   0  0  0  0  0  0  0  0  0  0  0  0
    3.4993    0.2700   -2.9615 H   0  0  0  0  0  0  0  0  0  0  0  0
    3.3958   -1.5792   -3.9765 N   0  0  0  0  0  0  0  0  0  0  0  0
    4.0986   -1.3232   -4.6697 H   0  0  0  0  0  0  0  0  0  0  0  0
    3.8059   -2.1543   -3.2397 H   0  0  0  0  0  0  0  0  0  0  0  0
    0.3921   -1.0031    1.4234 C   0  0  0  0  0  0  0  0  0  0  0  0
    1.5968   -1.0003    1.6422 O   0  0  0  0  0  0  0  0  0  0  0  0
   -0.4648   -0.4792    2.3749 N   0  0  0  0  0  0  0  0  0  0  0  0
   -1.4565   -0.5841    2.1876 H   0  0  0  0  0  0  0  0  0  0  0  0
   -0.0368   -0.1563    3.7300 C   0  0  0  0  0  0  0  0  0  0  0  0
    0.7681    0.5861    3.7109 H   0  0  0  0  0  0  0  0  0  0  0  0
   -0.8725    0.2578    4.3021 H   0  0  0  0  0  0  0  0  0  0  0  0
    0.3243   -1.0550    4.2412 H   0  0  0  0  0  0  0  0  0  0  0  0
  1  2  1  0  0  0  0
  2  3  1  0  0  0  0
  2  4  1  0  0  0  0
  2  5  1  0  0  0  0
  5  6  2  0  0  0  0
  5  7  1  0  0  0  0
  7  8  1  0  0  0  0
  7  9  1  0  0  0  0
  9 10  1  0  0  0  0
  9 11  1  0  0  0  0
  9 26  1  0  0  0  0
 11 12  1  0  0  0  0
 11 13  1  0  0  0  0
 11 14  1  0  0  0  0
 14 15  1  0  0  0  0
 14 16  1  0  0  0  0
 14 17  1  0  0  0  0
 17 18  1  0  0  0  0
 17 19  1  0  0  0  0
 17 20  1  0  0  0  0
 20 21  1  0  0  0  0
 20 22  1  0  0  0  0
 20 23  1  0  0  0  0
 23 24  1  0  0  0  0
 23 25  1  0  0  0  0
 26 27  2  0  0  0  0
 26 28  1  0  0  0  0
 28 29  1  0  0  0  0
 28 30  1  0  0  0  0
 30 31  1  0  0  0  0
 30 32  1  0  0  0  0
 30 33  1  0  0  0  0
M  END
$$$$

  -OEChem-03222214063D

 33 32  0     1  0  0  0  0  0999 V2000
   -3.0317   -4.8654    0.5929 H   0  0  0  0  0  0  0  0  0  0  0  0
   -3.0015   -3.8796    0.1198 C   0  0  0  0  0  0  0  0  0  0  0  0
   -3.8369   -3.2838    0.4948 H   0  0  0  0  0  0  0  0  0  0  0  0
   -3.1074   -4.0058   -0.9604 H   0  0  0  0  0  0  0  0  0  0  0  0
   -1.6873   -3.1900    0.4355 C   0  0  0  0  0  0  0  0  0  0  0  0
   -0.8767   -3.7359    1.1622 O   0  0  0  0  0  0  0  0  0  0  0  0
   -1.4248   -1.9432   -0.0985 N   0  0  0  0  0  0  0  0  0  0  0  0
   -2.0960   -1.5945   -0.7758 H   0  0  0  0  0  0  0  0  0  0  0  0
   -0.1158   -1.2674   -0.0146 C   0  0  1  0  0  0  0  0  0  0  0  0
    0.6071   -1.9539   -0.4579 H   0  0  0  0  0  0  0  0  0  0  0  0
   -0.1782    0.0571   -0.8177 C   0  0  0  0  0  0  0  0  0  0  0  0
   -1.0611    0.0290   -1.4641 H   0  0  0  0  0  0  0  0  0  0  0  0
   -0.3174    0.9011   -0.1336 H   0  0  0  0  0  0  0  0  0  0  0  0
    1.0234    0.3537   -1.7386 C   0  0  0  0  0  0  0  0  0  0  0  0
    0.7484    1.1867   -2.3942 H   0  0  0  0  0  0  0  0  0  0  0  0
    1.8620    0.6878   -1.1179 H   0  0  0  0  0  0  0  0  0  0  0  0
    1.5040   -0.8304   -2.5935 C   0  0  0  0  0  0  0  0  0  0  0  0
    2.0194   -1.5666   -1.9699 H   0  0  0  0  0  0  0  0  0  0  0  0
    0.6437   -1.3168   -3.0648 H   0  0  0  0  0  0  0  0  0  0  0  0
    2.4702   -0.3588   -3.6756 C   0  0  0  0  0  0  0  0  0  0  0  0
    1.9862    0.3853   -4.3179 H   0  0  0  0  0  0  0  0  0  0  0  0
    3.3484    0.1076   -3.2150 H   0  0  0  0  0  0  0  0  0  0  0  0
    2.8727   -1.5203   -4.4739 N   0  0  0  0  0  0  0  0  0  0  0  0
    3.5362   -1.2551   -5.2018 H   0  0  0  0  0  0  0  0  0  0  0  0
    3.2612   -2.2531   -3.8793 H   0  0  0  0  0  0  0  0  0  0  0  0
    0.3990   -0.9901    1.4152 C   0  0  0  0  0  0  0  0  0  0  0  0
    1.6036   -0.9851    1.6342 O   0  0  0  0  0  0  0  0  0  0  0  0
   -0.4595   -0.4738    2.3693 N   0  0  0  0  0  0  0  0  0  0  0  0
   -1.4507   -0.5809    2.1806 H   0  0  0  0  0  0  0  0  0  0  0  0
   -0.0334   -0.1592    3.7269 C   0  0  0  0  0  0  0  0  0  0  0  0
    0.7626    0.5926    3.7146 H   0  0  0  0  0  0  0  0  0  0  0  0
   -0.8733    0.2386    4.3043 H   0  0  0  0  0  0  0  0  0  0  0  0
    0.3397   -1.0587    4.2277 H   0  0  0  0  0  0  0  0  0  0  0  0
  1  2  1  0  0  0  0
  2  3  1  0  0  0  0
  2  4  1  0  0  0  0
  2  5  1  0  0  0  0
  5  6  2  0  0  0  0
  5  7  1  0  0  0  0
  7  8  1  0  0  0  0
  7  9  1  0  0  0  0
  9 10  1  0  0  0  0
  9 11  1  0  0  0  0
  9 26  1  0  0  0  0
 11 12  1  0  0  0  0
 11 13  1  0  0  0  0
 11 14  1  0  0  0  0
 14 15  1  0  0  0  0
 14 16  1  0  0  0  0
 14 17  1  0  0  0  0
 17 18  1  0  0  0  0
 17 19  1  0  0  0  0
 17 20  1  0  0  0  0
 20 21  1  0  0  0  0
 20 22  1  0  0  0  0
 20 23  1  0  0  0  0
 23 24  1  0  0  0  0
 23 25  1  0  0  0  0
 26 27  2  0  0  0  0
 26 28  1  0  0  0  0
 28 29  1  0  0  0  0
 28 30  1  0  0  0  0
 30 31  1  0  0  0  0
 30 32  1  0  0  0  0
 30 33  1  0  0  0  0
M  END
$$$$

  -OEChem-03222214063D

 33 32  0     1  0  0  0  0  0999 V2000
   -2.9788   -4.8841    0.5896 H   0  0  0  0  0  0  0  0  0  0  0  0
   -2.9777   -3.8887    0.1362 C   0  0  0  0  0  0  0  0  0  0  0  0
   -3.8020   -3.3089    0.5586 H   0  0  0  0  0  0  0  0  0  0  0  0
   -3.1277   -3.9943   -0.9410 H   0  0  0  0  0  0  0  0  0  0  0  0
   -1.6578   -3.1927    0.4109 C   0  0  0  0  0  0  0  0  0  0  0  0
   -0.8164   -3.7418    1.0989 O   0  0  0  0  0  0  0  0  0  0  0  0
   -1.4239   -1.9372   -0.1156 N   0  0  0  0  0  0  0  0  0  0  0  0
   -2.1212   -1.5828   -0.7632 H   0  0  0  0  0  0  0  0  0  0  0  0
   -0.1234   -1.2432   -0.0518 C   0  0  1  0  0  0  0  0  0  0  0  0
    0.6090   -1.9049   -0.5190 H   0  0  0  0  0  0  0  0  0  0  0  0
   -0.2217    0.0871   -0.8373 C   0  0  0  0  0  0  0  0  0  0  0  0
   -1.1222    0.0770   -1.4596 H   0  0  0  0  0  0  0  0  0  0  0  0
   -0.3312    0.9220   -0.1368 H   0  0  0  0  0  0  0  0  0  0  0  0
    0.9721    0.3716   -1.7659 C   0  0  0  0  0  0  0  0  0  0  0  0
    0.8078    1.3428   -2.2442 H   0  0  0  0  0  0  0  0  0  0  0  0
    1.8819    0.4516   -1.1606 H   0  0  0  0  0  0  0  0  0  0  0  0
    1.1851   -0.6934   -2.8549 C   0  0  0  0  0  0  0  0  0  0  0  0
    1.4952   -1.6445   -2.4149 H   0  0  0  0  0  0  0  0  0  0  0  0
    0.2466   -0.8584   -3.3940 H   0  0  0  0  0  0  0  0  0  0  0  0
    2.2588   -0.2434   -3.8410 C   0  0  0  0  0  0  0  0  0  0  0  0
    1.9669    0.7019   -4.3120 H   0  0  0  0  0  0  0  0  0  0  0  0
    3.2070   -0.0832   -3.3153 H   0  0  0  0  0  0  0  0  0  0  0  0
    2.4158   -1.2832   -4.8625 N   0  0  0  0  0  0  0  0  0  0  0  0
    3.1298   -1.0248   -5.5439 H   0  0  0  0  0  0  0  0  0  0  0  0
    2.6335   -2.1835   -4.4343 H   0  0  0  0  0  0  0  0  0  0  0  0
    0.4120   -0.9748    1.3724 C   0  0  0  0  0  0  0  0  0  0  0  0
    1.6198   -0.9572    1.5721 O   0  0  0  0  0  0  0  0  0  0  0  0
   -0.4381   -0.4821    2.3462 N   0  0  0  0  0  0  0  0  0  0  0  0
   -1.4309   -0.5936    2.1698 H   0  0  0  0  0  0  0  0  0  0  0  0
    0.0049   -0.1724    3.6993 C   0  0  0  0  0  0  0  0  0  0  0  0
    0.7961    0.5844    3.6793 H   0  0  0  0  0  0  0  0  0  0  0  0
   -0.8288    0.2173    4.2909 H   0  0  0  0  0  0  0  0  0  0  0  0
    0.3896   -1.0725    4.1903 H   0  0  0  0  0  0  0  0  0  0  0  0
  1  2  1  0  0  0  0
  2  3  1  0  0  0  0
  2  4  1  0  0  0  0
  2  5  1  0  0  0  0
  5  6  2  0  0  0  0
  5  7  1  0  0  0  0
  7  8  1  0  0  0  0
  7  9  1  0  0  0  0
  9 10  1  0  0  0  0
  9 11  1  0  0  0  0
  9 26  1  0  0  0  0
 11 12  1  0  0  0  0
 11 13  1  0  0  0  0
 11 14  1  0  0  0  0
 14 15  1  0  0  0  0
 14 16  1  0  0  0  0
 14 17  1  0  0  0  0
 17 18  1  0  0  0  0
 17 19  1  0  0  0  0
 17 20  1  0  0  0  0
 20 21  1  0  0  0  0
 20 22  1  0  0  0  0
 20 23  1  0  0  0  0
 23 24  1  0  0  0  0
 23 25  1  0  0  0  0
 26 27  2  0  0  0  0
 26 28  1  0  0  0  0
 28 29  1  0  0  0  0
 28 30  1  0  0  0  0
 30 31  1  0  0  0  0
 30 32  1  0  0  0  0
 30 33  1  0  0  0  0
M  END
$$$$

  -OEChem-03222214063D

 33 32  0     1  0  0  0  0  0999 V2000
   -2.8928   -4.9047    0.5418 H   0  0  0  0  0  0  0  0  0  0  0  0
   -2.9212   -3.9034    0.1025 C   0  0  0  0  0  0  0  0  0  0  0  0
   -3.7471   -3.3460    0.5505 H   0  0  0  0  0  0  0  0  0  0  0  0
   -3.0929   -3.9971   -0.9726 H   0  0  0  0  0  0  0  0  0  0  0  0
   -1.6095   -3.1850    0.3585 C   0  0  0  0  0  0  0  0  0  0  0  0
   -0.7366   -3.7326    1.0074 O   0  0  0  0  0  0  0  0  0  0  0  0
   -1.4174   -1.9120   -0.1422 N   0  0  0  0  0  0  0  0  0  0  0  0
   -2.1441   -1.5517   -0.7533 H   0  0  0  0  0  0  0  0  0  0  0  0
   -0.1349   -1.1854   -0.0875 C   0  0  1  0  0  0  0  0  0  0  0  0
    0.6068   -1.8129   -0.5921 H   0  0  0  0  0  0  0  0  0  0  0  0
   -0.2820    0.1504   -0.8514 C   0  0  0  0  0  0  0  0  0  0  0  0
   -1.1954    0.1480   -1.4549 H   0  0  0  0  0  0  0  0  0  0  0  0
   -0.3773    0.9729   -0.1342 H   0  0  0  0  0  0  0  0  0  0  0  0
    0.9114    0.4313   -1.7772 C   0  0  0  0  0  0  0  0  0  0  0  0
    0.8832    1.4856   -2.0716 H   0  0  0  0  0  0  0  0  0  0  0  0
    1.8473    0.2666   -1.2316 H   0  0  0  0  0  0  0  0  0  0  0  0
    0.8788   -0.4350   -3.0453 C   0  0  0  0  0  0  0  0  0  0  0  0
    0.9138   -1.4961   -2.7821 H   0  0  0  0  0  0  0  0  0  0  0  0
   -0.0539   -0.2536   -3.5892 H   0  0  0  0  0  0  0  0  0  0  0  0
    2.0610   -0.1060   -3.9519 C   0  0  0  0  0  0  0  0  0  0  0  0
    2.0325    0.9516   -4.2373 H   0  0  0  0  0  0  0  0  0  0  0  0
    3.0032   -0.2909   -3.4237 H   0  0  0  0  0  0  0  0  0  0  0  0
    1.9789   -0.9497   -5.1480 N   0  0  0  0  0  0  0  0  0  0  0  0
    2.7424   -0.7471   -5.7936 H   0  0  0  0  0  0  0  0  0  0  0  0
    1.9704   -1.9384   -4.8966 H   0  0  0  0  0  0  0  0  0  0  0  0
    0.4225   -0.9352    1.3317 C   0  0  0  0  0  0  0  0  0  0  0  0
    1.6334   -0.8972    1.5083 O   0  0  0  0  0  0  0  0  0  0  0  0
   -0.4187   -0.4876    2.3347 N   0  0  0  0  0  0  0  0  0  0  0  0
   -1.4123   -0.6168    2.1748 H   0  0  0  0  0  0  0  0  0  0  0  0
    0.0441   -0.2071    3.6879 C   0  0  0  0  0  0  0  0  0  0  0  0
    0.8249    0.5608    3.6752 H   0  0  0  0  0  0  0  0  0  0  0  0
   -0.7844    0.1556    4.3035 H   0  0  0  0  0  0  0  0  0  0  0  0
    0.4496   -1.1142    4.1483 H   0  0  0  0  0  0  0  0  0  0  0  0
  1  2  1  0  0  0  0
  2  3  1  0  0  0  0
  2  4  1  0  0  0  0
  2  5  1  0  0  0  0
  5  6  2  0  0  0  0
  5  7  1  0  0  0  0
  7  8  1  0  0  0  0
  7  9  1  0  0  0  0
  9 10  1  0  0  0  0
  9 11  1  0  0  0  0
  9 26  1  0  0  0  0
 11 12  1  0  0  0  0
 11 13  1  0  0  0  0
 11 14  1  0  0  0  0
 14 15  1  0  0  0  0
 14 16  1  0  0  0  0
 14 17  1  0  0  0  0
 17 18  1  0  0  0  0
 17 19  1  0  0  0  0
 17 20  1  0  0  0  0
 20 21  1  0  0  0  0
 20 22  1  0  0  0  0
 20 23  1  0  0  0  0
 23 24  1  0  0  0  0
 23 25  1  0  0  0  0
 26 27  2  0  0  0  0
 26 28  1  0  0  0  0
 28 29  1  0  0  0  0
 28 30  1  0  0  0  0
 30 31  1  0  0  0  0
 30 32  1  0  0  0  0
 30 33  1  0  0  0  0
M  END
$$$$

  -OEChem-03222214063D

 33 32  0     1  0  0  0  0  0999 V2000
   -2.8736   -4.9077    0.5168 H   0  0  0  0  0  0  0  0  0  0  0  0
   -2.9084   -3.9041    0.0832 C   0  0  0  0  0  0  0  0  0  0  0  0
   -3.7337   -3.3528    0.5399 H   0  0  0  0  0  0  0  0  0  0  0  0
   -3.0867   -3.9923   -0.9913 H   0  0  0  0  0  0  0  0  0  0  0  0
   -1.5981   -3.1817    0.3352 C   0  0  0  0  0  0  0  0  0  0  0  0
   -0.7173   -3.7306    0.9722 O   0  0  0  0  0  0  0  0  0  0  0  0
   -1.4173   -1.9018   -0.1519 N   0  0  0  0  0  0  0  0  0  0  0  0
   -2.1497   -1.5390   -0.7546 H   0  0  0  0  0  0  0  0  0  0  0  0
   -0.1399   -1.1666   -0.0953 C   0  0  1  0  0  0  0  0  0  0  0  0
    0.5995   -1.7834   -0.6189 H   0  0  0  0  0  0  0  0  0  0  0  0
   -0.3015    0.1719   -0.8493 C   0  0  0  0  0  0  0  0  0  0  0  0
   -1.2225    0.1792   -1.4412 H   0  0  0  0  0  0  0  0  0  0  0  0
   -0.3879    0.9873   -0.1229 H   0  0  0  0  0  0  0  0  0  0  0  0
    0.8957    0.4519   -1.7712 C   0  0  0  0  0  0  0  0  0  0  0  0
    1.0188    1.5361   -1.8633 H   0  0  0  0  0  0  0  0  0  0  0  0
    1.8181    0.0567   -1.3312 H   0  0  0  0  0  0  0  0  0  0  0  0
    0.6686   -0.1311   -3.1712 C   0  0  0  0  0  0  0  0  0  0  0  0
    0.5073   -1.2114   -3.0977 H   0  0  0  0  0  0  0  0  0  0  0  0
   -0.2256    0.3155   -3.6187 H   0  0  0  0  0  0  0  0  0  0  0  0
    1.8704    0.1424   -4.0702 C   0  0  0  0  0  0  0  0  0  0  0  0
    2.0271    1.2225   -4.1683 H   0  0  0  0  0  0  0  0  0  0  0  0
    2.7750   -0.2939   -3.6319 H   0  0  0  0  0  0  0  0  0  0  0  0
    1.6120   -0.4482   -5.3870 N   0  0  0  0  0  0  0  0  0  0  0  0
    2.3819   -0.2629   -6.0303 H   0  0  0  0  0  0  0  0  0  0  0  0
    1.4394   -1.4505   -5.3092 H   0  0  0  0  0  0  0  0  0  0  0  0
    0.4258   -0.9267    1.3223 C   0  0  0  0  0  0  0  0  0  0  0  0
    1.6375   -0.8784    1.4907 O   0  0  0  0  0  0  0  0  0  0  0  0
   -0.4132   -0.4955    2.3340 N   0  0  0  0  0  0  0  0  0  0  0  0
   -1.4064   -0.6321    2.1790 H   0  0  0  0  0  0  0  0  0  0  0  0
    0.0552   -0.2157    3.6851 C   0  0  0  0  0  0  0  0  0  0  0  0
    0.8235    0.5644    3.6709 H   0  0  0  0  0  0  0  0  0  0  0  0
   -0.7745    0.1306    4.3083 H   0  0  0  0  0  0  0  0  0  0  0  0
    0.4777   -1.1189    4.1376 H   0  0  0  0  0  0  0  0  0  0  0  0
  1  2  1  0  0  0  0
  2  3  1  0  0  0  0
  2  4  1  0  0  0  0
  2  5  1  0  0  0  0
  5  6  2  0  0  0  0
  5  7  1  0  0  0  0
  7  8  1  0  0  0  0
  7  9  1  0  0  0  0
  9 10  1  0  0  0  0
  9 11  1  0  0  0  0
  9 26  1  0  0  0  0
 11 12  1  0  0  0  0
 11 13  1  0  0  0  0
 11 14  1  0  0  0  0
 14 15  1  0  0  0  0
 14 16  1  0  0  0  0
 14 17  1  0  0  0  0
 17 18  1  0  0  0  0
 17 19  1  0  0  0  0
 17 20  1  0  0  0  0
 20 21  1  0  0  0  0
 20 22  1  0  0  0  0
 20 23  1  0  0  0  0
 23 24  1  0  0  0  0
 23 25  1  0  0  0  0
 26 27  2  0  0  0  0
 26 28  1  0  0  0  0
 28 29  1  0  0  0  0
 28 30  1  0  0  0  0
 30 31  1  0  0  0  0
 30 32  1  0  0  0  0
 30 33  1  0  0  0  0
M  END
$$$$

  -OEChem-03222214063D

 33 32  0     1  0  0  0  0  0999 V2000
   -2.8891   -4.9069    0.5534 H   0  0  0  0  0  0  0  0  0  0  0  0
   -2.9250   -3.9047    0.1168 C   0  0  0  0  0  0  0  0  0  0  0  0
   -3.7419   -3.3484    0.5823 H   0  0  0  0  0  0  0  0  0  0  0  0
   -3.1177   -3.9964   -0.9547 H   0  0  0  0  0  0  0  0  0  0  0  0
   -1.6082   -3.1874    0.3488 C   0  0  0  0  0  0  0  0  0  0  0  0
   -0.7217   -3.7384    0.9758 O   0  0  0  0  0  0  0  0  0  0  0  0
   -1.4273   -1.9095   -0.1436 N   0  0  0  0  0  0  0  0  0  0  0  0
   -2.1685   -1.5388   -0.7307 H   0  0  0  0  0  0  0  0  0  0  0  0
   -0.1499   -1.1739   -0.0898 C   0  0  1  0  0  0  0  0  0  0  0  0
    0.5852   -1.7998   -0.6077 H   0  0  0  0  0  0  0  0  0  0  0  0
   -0.3059    0.1584   -0.8568 C   0  0  0  0  0  0  0  0  0  0  0  0
   -1.2274    0.1549   -1.4480 H   0  0  0  0  0  0  0  0  0  0  0  0
   -0.3997    0.9798   -0.1382 H   0  0  0  0  0  0  0  0  0  0  0  0
    0.8934    0.4399   -1.7814 C   0  0  0  0  0  0  0  0  0  0  0  0
    1.1769    1.4918   -1.6691 H   0  0  0  0  0  0  0  0  0  0  0  0
    1.7640   -0.1576   -1.4888 H   0  0  0  0  0  0  0  0  0  0  0  0
    0.5394    0.1897   -3.2522 C   0  0  0  0  0  0  0  0  0  0  0  0
    0.2326   -0.8532   -3.3817 H   0  0  0  0  0  0  0  0  0  0  0  0
   -0.2988    0.8300   -3.5465 H   0  0  0  0  0  0  0  0  0  0  0  0
    1.7355    0.4838   -4.1525 C   0  0  0  0  0  0  0  0  0  0  0  0
    2.0401    1.5303   -4.0405 H   0  0  0  0  0  0  0  0  0  0  0  0
    2.5843   -0.1489   -3.8700 H   0  0  0  0  0  0  0  0  0  0  0  0
    1.3499    0.2212   -5.5423 N   0  0  0  0  0  0  0  0  0  0  0  0
    2.1138    0.4382   -6.1830 H   0  0  0  0  0  0  0  0  0  0  0  0
    1.0423   -0.7440   -5.6597 H   0  0  0  0  0  0  0  0  0  0  0  0
    0.4170   -0.9270    1.3257 C   0  0  0  0  0  0  0  0  0  0  0  0
    1.6288   -0.8815    1.4928 O   0  0  0  0  0  0  0  0  0  0  0  0
   -0.4196   -0.4909    2.3374 N   0  0  0  0  0  0  0  0  0  0  0  0
   -1.4136   -0.6258    2.1848 H   0  0  0  0  0  0  0  0  0  0  0  0
    0.0532   -0.2146    3.6880 C   0  0  0  0  0  0  0  0  0  0  0  0
    0.8309    0.5564    3.6727 H   0  0  0  0  0  0  0  0  0  0  0  0
   -0.7713    0.1422    4.3123 H   0  0  0  0  0  0  0  0  0  0  0  0
    0.4658   -1.1222    4.1408 H   0  0  0  0  0  0  0  0  0  0  0  0
  1  2  1  0  0  0  0
  2  3  1  0  0  0  0
  2  4  1  0  0  0  0
  2  5  1  0  0  0  0
  5  6  2  0  0  0  0
  5  7  1  0  0  0  0
  7  8  1  0  0  0  0
  7  9  1  0  0  0  0
  9 10  1  0  0  0  0
  9 11  1  0  0  0  0
  9 26  1  0  0  0  0
 11 12  1  0  0  0  0
 11 13  1  0  0  0  0
 11 14  1  0  0  0  0
 14 15  1  0  0  0  0
 14 16  1  0  0  0  0
 14 17  1  0  0  0  0
 17 18  1  0  0  0  0
 17 19  1  0  0  0  0
 17 20  1  0  0  0  0
 20 21  1  0  0  0  0
 20 22  1  0  0  0  0
 20 23  1  0  0  0  0
 23 24  1  0  0  0  0
 23 25  1  0  0  0  0
 26 27  2  0  0  0  0
 26 28  1  0  0  0  0
 28 29  1  0  0  0  0
 28 30  1  0  0  0  0
 30 31  1  0  0  0  0
 30 32  1  0  0  0  0
 30 33  1  0  0  0  0
M  END
$$$$

  -OEChem-03222214063D

 33 32  0     1  0  0  0  0  0999 V2000
   -2.9053   -4.9077    0.5843 H   0  0  0  0  0  0  0  0  0  0  0  0
   -2.9372   -3.9073    0.1437 C   0  0  0  0  0  0  0  0  0  0  0  0
   -3.7489   -3.3437    0.6096 H   0  0  0  0  0  0  0  0  0  0  0  0
   -3.1340   -4.0017   -0.9268 H   0  0  0  0  0  0  0  0  0  0  0  0
   -1.6158   -3.1966    0.3683 C   0  0  0  0  0  0  0  0  0  0  0  0
   -0.7313   -3.7465    0.9991 O   0  0  0  0  0  0  0  0  0  0  0  0
   -1.4291   -1.9242   -0.1355 N   0  0  0  0  0  0  0  0  0  0  0  0
   -2.1705   -1.5534   -0.7221 H   0  0  0  0  0  0  0  0  0  0  0  0
   -0.1496   -1.1918   -0.0857 C   0  0  1  0  0  0  0  0  0  0  0  0
    0.5826   -1.8291   -0.5931 H   0  0  0  0  0  0  0  0  0  0  0  0
   -0.2985    0.1383   -0.8602 C   0  0  0  0  0  0  0  0  0  0  0  0
   -1.2161    0.1139   -1.4568 H   0  0  0  0  0  0  0  0  0  0  0  0
   -0.4108    0.9682   -0.1543 H   0  0  0  0  0  0  0  0  0  0  0  0
    0.8975    0.4254   -1.7912 C   0  0  0  0  0  0  0  0  0  0  0  0
    1.3620    1.3677   -1.4814 H   0  0  0  0  0  0  0  0  0  0  0  0
    1.6649   -0.3504   -1.7025 H   0  0  0  0  0  0  0  0  0  0  0  0
    0.4558    0.5405   -3.2549 C   0  0  0  0  0  0  0  0  0  0  0  0
   -0.0001   -0.4020   -3.5748 H   0  0  0  0  0  0  0  0  0  0  0  0
   -0.2942    1.3323   -3.3543 H   0  0  0  0  0  0  0  0  0  0  0  0
    1.6458    0.8608   -4.1545 C   0  0  0  0  0  0  0  0  0  0  0  0
    2.0960    1.8137   -3.8541 H   0  0  0  0  0  0  0  0  0  0  0  0
    2.4092    0.0801   -4.0617 H   0  0  0  0  0  0  0  0  0  0  0  0
    1.1746    0.9445   -5.5404 N   0  0  0  0  0  0  0  0  0  0  0  0
    1.9330    1.2042   -6.1716 H   0  0  0  0  0  0  0  0  0  0  0  0
    0.7425    0.0684   -5.8335 H   0  0  0  0  0  0  0  0  0  0  0  0
    0.4146   -0.9332    1.3286 C   0  0  0  0  0  0  0  0  0  0  0  0
    1.6262   -0.8896    1.4973 O   0  0  0  0  0  0  0  0  0  0  0  0
   -0.4224   -0.4852    2.3348 N   0  0  0  0  0  0  0  0  0  0  0  0
   -1.4166   -0.6175    2.1817 H   0  0  0  0  0  0  0  0  0  0  0  0
    0.0478   -0.2001    3.6842 C   0  0  0  0  0  0  0  0  0  0  0  0
    0.8279    0.5682    3.6647 H   0  0  0  0  0  0  0  0  0  0  0  0
   -0.7776    0.1639    4.3033 H   0  0  0  0  0  0  0  0  0  0  0  0
    0.4565   -1.1054    4.1452 H   0  0  0  0  0  0  0  0  0  0  0  0
  1  2  1  0  0  0  0
  2  3  1  0  0  0  0
  2  4  1  0  0  0  0
  2  5  1  0  0  0  0
  5  6  2  0  0  0  0
  5  7  1  0  0  0  0
  7  8  1  0  0  0  0
  7  9  1  0  0  0  0
  9 10  1  0  0  0  0
  9 11  1  0  0  0  0
  9 26  1  0  0  0  0
 11 12  1  0  0  0  0
 11 13  1  0  0  0  0
 11 14  1  0  0  0  0
 14 15  1  0  0  0  0
 14 16  1  0  0  0  0
 14 17  1  0  0  0  0
 17 18  1  0  0  0  0
 17 19  1  0  0  0  0
 17 20  1  0  0  0  0
 20 21  1  0  0  0  0
 20 22  1  0  0  0  0
 20 23  1  0  0  0  0
 23 24  1  0  0  0  0
 23 25  1  0  0  0  0
 26 27  2  0  0  0  0
 26 28  1  0  0  0  0
 28 29  1  0  0  0  0
 28 30  1  0  0  0  0
 30 31  1  0  0  0  0
 30 32  1  0  0  0  0
 30 33  1  0  0  0  0
M  END
$$$$

  -OEChem-03222214063D

 33 32  0     1  0  0  0  0  0999 V2000
   -2.9056   -4.9105    0.6087 H   0  0  0  0  0  0  0  0  0  0  0  0
   -2.9387   -3.9115    0.1645 C   0  0  0  0  0  0  0  0  0  0  0  0
   -3.7487   -3.3457    0.6308 H   0  0  0  0  0  0  0  0  0  0  0  0
   -3.1388   -4.0096   -0.9051 H   0  0  0  0  0  0  0  0  0  0  0  0
   -1.6166   -3.2004    0.3824 C   0  0  0  0  0  0  0  0  0  0  0  0
   -0.7309   -3.7477    1.0137 O   0  0  0  0  0  0  0  0  0  0  0  0
   -1.4305   -1.9314   -0.1302 N   0  0  0  0  0  0  0  0  0  0  0  0
   -2.1760   -1.5606   -0.7115 H   0  0  0  0  0  0  0  0  0  0  0  0
   -0.1503   -1.1997   -0.0872 C   0  0  1  0  0  0  0  0  0  0  0  0
    0.5825   -1.8403   -0.5888 H   0  0  0  0  0  0  0  0  0  0  0  0
   -0.2974    0.1285   -0.8665 C   0  0  0  0  0  0  0  0  0  0  0  0
   -1.2083    0.0808   -1.4721 H   0  0  0  0  0  0  0  0  0  0  0  0
   -0.4260    0.9676   -0.1743 H   0  0  0  0  0  0  0  0  0  0  0  0
    0.8958    0.4118   -1.8018 C   0  0  0  0  0  0  0  0  0  0  0  0
    1.5374    1.1694   -1.3391 H   0  0  0  0  0  0  0  0  0  0  0  0
    1.5056   -0.4861   -1.9425 H   0  0  0  0  0  0  0  0  0  0  0  0
    0.4256    0.8898   -3.1812 C   0  0  0  0  0  0  0  0  0  0  0  0
   -0.1712    0.1061   -3.6589 H   0  0  0  0  0  0  0  0  0  0  0  0
   -0.2062    1.7771   -3.0679 H   0  0  0  0  0  0  0  0  0  0  0  0
    1.6178    1.2333   -4.0698 C   0  0  0  0  0  0  0  0  0  0  0  0
    2.2079    2.0345   -3.6107 H   0  0  0  0  0  0  0  0  0  0  0  0
    2.2661    0.3576   -4.1858 H   0  0  0  0  0  0  0  0  0  0  0  0
    1.1178    1.6675   -5.3779 N   0  0  0  0  0  0  0  0  0  0  0  0
    1.8840    1.9494   -5.9896 H   0  0  0  0  0  0  0  0  0  0  0  0
    0.5538    0.9390   -5.8149 H   0  0  0  0  0  0  0  0  0  0  0  0
    0.4134   -0.9338    1.3262 C   0  0  0  0  0  0  0  0  0  0  0  0
    1.6250   -0.8933    1.4961 O   0  0  0  0  0  0  0  0  0  0  0  0
   -0.4236   -0.4796    2.3297 N   0  0  0  0  0  0  0  0  0  0  0  0
   -1.4176   -0.6127    2.1770 H   0  0  0  0  0  0  0  0  0  0  0  0
    0.0456   -0.1880    3.6782 C   0  0  0  0  0  0  0  0  0  0  0  0
    0.8265    0.5794    3.6551 H   0  0  0  0  0  0  0  0  0  0  0  0
   -0.7798    0.1806    4.2945 H   0  0  0  0  0  0  0  0  0  0  0  0
    0.4525   -1.0913    4.1447 H   0  0  0  0  0  0  0  0  0  0  0  0
  1  2  1  0  0  0  0
  2  3  1  0  0  0  0
  2  4  1  0  0  0  0
  2  5  1  0  0  0  0
  5  6  2  0  0  0  0
  5  7  1  0  0  0  0
  7  8  1  0  0  0  0
  7  9  1  0  0  0  0
  9 10  1  0  0  0  0
  9 11  1  0  0  0  0
  9 26  1  0  0  0  0
 11 12  1  0  0  0  0
 11 13  1  0  0  0  0
 11 14  1  0  0  0  0
 14 15  1  0  0  0  0
 14 16  1  0  0  0  0
 14 17  1  0  0  0  0
 17 18  1  0  0  0  0
 17 19  1  0  0  0  0
 17 20  1  0  0  0  0
 20 21  1  0  0  0  0
 20 22  1  0  0  0  0
 20 23  1  0  0  0  0
 23 24  1  0  0  0  0
 23 25  1  0  0  0  0
 26 27  2  0  0  0  0
 26 28  1  0  0  0  0
 28 29  1  0  0  0  0
 28 30  1  0  0  0  0
 30 31  1  0  0  0  0
 30 32  1  0  0  0  0
 30 33  1  0  0  0  0
M  END
$$$$

  -OEChem-03222214063D

 33 32  0     1  0  0  0  0  0999 V2000
   -2.8983   -4.9127    0.6144 H   0  0  0  0  0  0  0  0  0  0  0  0
   -2.9335   -3.9148    0.1676 C   0  0  0  0  0  0  0  0  0  0  0  0
   -3.7446   -3.3495    0.6330 H   0  0  0  0  0  0  0  0  0  0  0  0
   -3.1344   -4.0173   -0.9015 H   0  0  0  0  0  0  0  0  0  0  0  0
   -1.6119   -3.2008    0.3818 C   0  0  0  0  0  0  0  0  0  0  0  0
   -0.7228   -3.7473    1.0091 O   0  0  0  0  0  0  0  0  0  0  0  0
   -1.4285   -1.9321   -0.1326 N   0  0  0  0  0  0  0  0  0  0  0  0
   -2.1769   -1.5628   -0.7109 H   0  0  0  0  0  0  0  0  0  0  0  0
   -0.1503   -1.1963   -0.0934 C   0  0  1  0  0  0  0  0  0  0  0  0
    0.5872   -1.8306   -0.5963 H   0  0  0  0  0  0  0  0  0  0  0  0
   -0.3041    0.1312   -0.8705 C   0  0  0  0  0  0  0  0  0  0  0  0
   -1.2101    0.0746   -1.4825 H   0  0  0  0  0  0  0  0  0  0  0  0
   -0.4373    0.9736   -0.1829 H   0  0  0  0  0  0  0  0  0  0  0  0
    0.8884    0.4061   -1.8037 C   0  0  0  0  0  0  0  0  0  0  0  0
    1.6680    0.9365   -1.2458 H   0  0  0  0  0  0  0  0  0  0  0  0
    1.3193   -0.5345   -2.1618 H   0  0  0  0  0  0  0  0  0  0  0  0
    0.4524    1.2196   -3.0278 C   0  0  0  0  0  0  0  0  0  0  0  0
   -0.2755    0.6473   -3.6117 H   0  0  0  0  0  0  0  0  0  0  0  0
   -0.0288    2.1470   -2.6997 H   0  0  0  0  0  0  0  0  0  0  0  0
    1.6527    1.5611   -3.9056 C   0  0  0  0  0  0  0  0  0  0  0  0
    2.3742    2.1588   -3.3372 H   0  0  0  0  0  0  0  0  0  0  0  0
    2.1546    0.6435   -4.2324 H   0  0  0  0  0  0  0  0  0  0  0  0
    1.1805    2.3192   -5.0684 N   0  0  0  0  0  0  0  0  0  0  0  0
    1.9589    2.6033   -5.6635 H   0  0  0  0  0  0  0  0  0  0  0  0
    0.4933    1.7852   -5.5997 H   0  0  0  0  0  0  0  0  0  0  0  0
    0.4157   -0.9260    1.3182 C   0  0  0  0  0  0  0  0  0  0  0  0
    1.6275   -0.8819    1.4864 O   0  0  0  0  0  0  0  0  0  0  0  0
   -0.4210   -0.4724    2.3221 N   0  0  0  0  0  0  0  0  0  0  0  0
   -1.4153   -0.6019    2.1683 H   0  0  0  0  0  0  0  0  0  0  0  0
    0.0489   -0.1791    3.6700 C   0  0  0  0  0  0  0  0  0  0  0  0
    0.8215    0.5968    3.6471 H   0  0  0  0  0  0  0  0  0  0  0  0
   -0.7789    0.1781    4.2898 H   0  0  0  0  0  0  0  0  0  0  0  0
    0.4669   -1.0794    4.1325 H   0  0  0  0  0  0  0  0  0  0  0  0
  1  2  1  0  0  0  0
  2  3  1  0  0  0  0
  2  4  1  0  0  0  0
  2  5  1  0  0  0  0
  5  6  2  0  0  0  0
  5  7  1  0  0  0  0
  7  8  1  0  0  0  0
  7  9  1  0  0  0  0
  9 10  1  0  0  0  0
  9 11  1  0  0  0  0
  9 26  1  0  0  0  0
 11 12  1  0  0  0  0
 11 13  1  0  0  0  0
 11 14  1  0  0  0  0
 14 15  1  0  0  0  0
 14 16  1  0  0  0  0
 14 17  1  0  0  0  0
 17 18  1  0  0  0  0
 17 19  1  0  0  0  0
 17 20  1  0  0  0  0
 20 21  1  0  0  0  0
 20 22  1  0  0  0  0
 20 23  1  0  0  0  0
 23 24  1  0  0  0  0
 23 25  1  0  0  0  0
 26 27  2  0  0  0  0
 26 28  1  0  0  0  0
 28 29  1  0  0  0  0
 28 30  1  0  0  0  0
 30 31  1  0  0  0  0
 30 32  1  0  0  0  0
 30 33  1  0  0  0  0
M  END
$$$$

  -OEChem-03222214063D

 33 32  0     1  0  0  0  0  0999 V2000
   -2.8718   -4.9146    0.6106 H   0  0  0  0  0  0  0  0  0  0  0  0
   -2.9159   -3.9159    0.1666 C   0  0  0  0  0  0  0  0  0  0  0  0
   -3.7259   -3.3559    0.6398 H   0  0  0  0  0  0  0  0  0  0  0  0
   -3.1244   -4.0158   -0.9012 H   0  0  0  0  0  0  0  0  0  0  0  0
   -1.5969   -3.1953    0.3728 C   0  0  0  0  0  0  0  0  0  0  0  0
   -0.6999   -3.7395    0.9908 O   0  0  0  0  0  0  0  0  0  0  0  0
   -1.4253   -1.9232   -0.1373 N   0  0  0  0  0  0  0  0  0  0  0  0
   -2.1813   -1.5533   -0.7057 H   0  0  0  0  0  0  0  0  0  0  0  0
   -0.1523   -1.1791   -0.0998 C   0  0  1  0  0  0  0  0  0  0  0  0
    0.5900   -1.8029   -0.6097 H   0  0  0  0  0  0  0  0  0  0  0  0
   -0.3183    0.1468   -0.8739 C   0  0  0  0  0  0  0  0  0  0  0  0
   -1.2220    0.0936   -1.4898 H   0  0  0  0  0  0  0  0  0  0  0  0
   -0.4469    0.9865   -0.1823 H   0  0  0  0  0  0  0  0  0  0  0  0
    0.8757    0.4127   -1.8015 C   0  0  0  0  0  0  0  0  0  0  0  0
    1.7449    0.7025   -1.2005 H   0  0  0  0  0  0  0  0  0  0  0  0
    1.1350   -0.4994   -2.3495 H   0  0  0  0  0  0  0  0  0  0  0  0
    0.5387    1.5110   -2.8162 C   0  0  0  0  0  0  0  0  0  0  0  0
   -0.2956    1.1879   -3.4469 H   0  0  0  0  0  0  0  0  0  0  0  0
    0.2318    2.4192   -2.2871 H   0  0  0  0  0  0  0  0  0  0  0  0
    1.7474    1.8261   -3.6923 C   0  0  0  0  0  0  0  0  0  0  0  0
    2.5774    2.1802   -3.0704 H   0  0  0  0  0  0  0  0  0  0  0  0
    2.0779    0.9233   -4.2179 H   0  0  0  0  0  0  0  0  0  0  0  0
    1.3678    2.8623   -4.6578 N   0  0  0  0  0  0  0  0  0  0  0  0
    2.1605    3.1307   -5.2413 H   0  0  0  0  0  0  0  0  0  0  0  0
    0.5805    2.5596   -5.2306 H   0  0  0  0  0  0  0  0  0  0  0  0
    0.4146   -0.9124    1.3120 C   0  0  0  0  0  0  0  0  0  0  0  0
    1.6262   -0.8664    1.4797 O   0  0  0  0  0  0  0  0  0  0  0  0
   -0.4233   -0.4698    2.3198 N   0  0  0  0  0  0  0  0  0  0  0  0
   -1.4172   -0.6023    2.1661 H   0  0  0  0  0  0  0  0  0  0  0  0
    0.0470   -0.1867    3.6697 C   0  0  0  0  0  0  0  0  0  0  0  0
    0.8193    0.5896    3.6527 H   0  0  0  0  0  0  0  0  0  0  0  0
   -0.7806    0.1657    4.2926 H   0  0  0  0  0  0  0  0  0  0  0  0
    0.4657   -1.0903    4.1252 H   0  0  0  0  0  0  0  0  0  0  0  0
  1  2  1  0  0  0  0
  2  3  1  0  0  0  0
  2  4  1  0  0  0  0
  2  5  1  0  0  0  0
  5  6  2  0  0  0  0
  5  7  1  0  0  0  0
  7  8  1  0  0  0  0
  7  9  1  0  0  0  0
  9 10  1  0  0  0  0
  9 11  1  0  0  0  0
  9 26  1  0  0  0  0
 11 12  1  0  0  0  0
 11 13  1  0  0  0  0
 11 14  1  0  0  0  0
 14 15  1  0  0  0  0
 14 16  1  0  0  0  0
 14 17  1  0  0  0  0
 17 18  1  0  0  0  0
 17 19  1  0  0  0  0
 17 20  1  0  0  0  0
 20 21  1  0  0  0  0
 20 22  1  0  0  0  0
 20 23  1  0  0  0  0
 23 24  1  0  0  0  0
 23 25  1  0  0  0  0
 26 27  2  0  0  0  0
 26 28  1  0  0  0  0
 28 29  1  0  0  0  0
 28 30  1  0  0  0  0
 30 31  1  0  0  0  0
 30 32  1  0  0  0  0
 30 33  1  0  0  0  0
M  END
$$$$

  -OEChem-03222214063D

 33 32  0     1  0  0  0  0  0999 V2000
   -2.8558   -4.9184    0.5945 H   0  0  0  0  0  0  0  0  0  0  0  0
   -2.9036   -3.9175    0.1558 C   0  0  0  0  0  0  0  0  0  0  0  0
   -3.7181   -3.3645    0.6293 H   0  0  0  0  0  0  0  0  0  0  0  0
   -3.1086   -4.0131   -0.9131 H   0  0  0  0  0  0  0  0  0  0  0  0
   -1.5890   -3.1908    0.3697 C   0  0  0  0  0  0  0  0  0  0  0  0
   -0.6894   -3.7354    0.9833 O   0  0  0  0  0  0  0  0  0  0  0  0
   -1.4221   -1.9158   -0.1351 N   0  0  0  0  0  0  0  0  0  0  0  0
   -2.1757   -1.5520   -0.7100 H   0  0  0  0  0  0  0  0  0  0  0  0
   -0.1509   -1.1678   -0.0980 C   0  0  1  0  0  0  0  0  0  0  0  0
    0.6005   -1.7797   -0.6098 H   0  0  0  0  0  0  0  0  0  0  0  0
   -0.3264    0.1648   -0.8617 C   0  0  0  0  0  0  0  0  0  0  0  0
   -1.3506    0.2600   -1.2361 H   0  0  0  0  0  0  0  0  0  0  0  0
   -0.1508    1.0101   -0.1868 H   0  0  0  0  0  0  0  0  0  0  0  0
    0.6489    0.2562   -2.0419 C   0  0  0  0  0  0  0  0  0  0  0  0
    1.6765    0.1857   -1.6678 H   0  0  0  0  0  0  0  0  0  0  0  0
    0.4790   -0.5811   -2.7271 H   0  0  0  0  0  0  0  0  0  0  0  0
    0.4685    1.5793   -2.7941 C   0  0  0  0  0  0  0  0  0  0  0  0
   -0.5507    1.6414   -3.1885 H   0  0  0  0  0  0  0  0  0  0  0  0
    0.6169    2.4182   -2.1060 H   0  0  0  0  0  0  0  0  0  0  0  0
    1.4668    1.6910   -3.9429 C   0  0  0  0  0  0  0  0  0  0  0  0
    2.4907    1.6596   -3.5535 H   0  0  0  0  0  0  0  0  0  0  0  0
    1.3405    0.8511   -4.6350 H   0  0  0  0  0  0  0  0  0  0  0  0
    1.2353    2.9589   -4.6416 N   0  0  0  0  0  0  0  0  0  0  0  0
    1.9075    3.0928   -5.3972 H   0  0  0  0  0  0  0  0  0  0  0  0
    0.2789    3.0179   -4.9901 H   0  0  0  0  0  0  0  0  0  0  0  0
    0.4101   -0.9114    1.3189 C   0  0  0  0  0  0  0  0  0  0  0  0
    1.6211   -0.8654    1.4905 O   0  0  0  0  0  0  0  0  0  0  0  0
   -0.4305   -0.4792    2.3293 N   0  0  0  0  0  0  0  0  0  0  0  0
   -1.4241   -0.6124    2.1738 H   0  0  0  0  0  0  0  0  0  0  0  0
    0.0376   -0.2035    3.6818 C   0  0  0  0  0  0  0  0  0  0  0  0
    0.8126    0.5701    3.6698 H   0  0  0  0  0  0  0  0  0  0  0  0
   -0.7900    0.1495    4.3045 H   0  0  0  0  0  0  0  0  0  0  0  0
    0.4523   -1.1103    4.1345 H   0  0  0  0  0  0  0  0  0  0  0  0
  1  2  1  0  0  0  0
  2  3  1  0  0  0  0
  2  4  1  0  0  0  0
  2  5  1  0  0  0  0
  5  6  2  0  0  0  0
  5  7  1  0  0  0  0
  7  8  1  0  0  0  0
  7  9  1  0  0  0  0
  9 10  1  0  0  0  0
  9 11  1  0  0  0  0
  9 26  1  0  0  0  0
 11 12  1  0  0  0  0
 11 13  1  0  0  0  0
 11 14  1  0  0  0  0
 14 15  1  0  0  0  0
 14 16  1  0  0  0  0
 14 17  1  0  0  0  0
 17 18  1  0  0  0  0
 17 19  1  0  0  0  0
 17 20  1  0  0  0  0
 20 21  1  0  0  0  0
 20 22  1  0  0  0  0
 20 23  1  0  0  0  0
 23 24  1  0  0  0  0
 23 25  1  0  0  0  0
 26 27  2  0  0  0  0
 26 28  1  0  0  0  0
 28 29  1  0  0  0  0
 28 30  1  0  0  0  0
 30 31  1  0  0  0  0
 30 32  1  0  0  0  0
 30 33  1  0  0  0  0
M  END
$$$$

  -OEChem-03222214063D

 33 32  0     1  0  0  0  0  0999 V2000
   -2.8550   -4.9174    0.5825 H   0  0  0  0  0  0  0  0  0  0  0  0
   -2.9010   -3.9152    0.1466 C   0  0  0  0  0  0  0  0  0  0  0  0
   -3.7152   -3.3630    0.6219 H   0  0  0  0  0  0  0  0  0  0  0  0
   -3.1058   -4.0072   -0.9227 H   0  0  0  0  0  0  0  0  0  0  0  0
   -1.5851   -3.1911    0.3631 C   0  0  0  0  0  0  0  0  0  0  0  0
   -0.6886   -3.7371    0.9799 O   0  0  0  0  0  0  0  0  0  0  0  0
   -1.4147   -1.9156   -0.1396 N   0  0  0  0  0  0  0  0  0  0  0  0
   -2.1669   -1.5488   -0.7144 H   0  0  0  0  0  0  0  0  0  0  0  0
   -0.1435   -1.1675   -0.0967 C   0  0  1  0  0  0  0  0  0  0  0  0
    0.6086   -1.7803   -0.6065 H   0  0  0  0  0  0  0  0  0  0  0  0
   -0.3206    0.1644   -0.8629 C   0  0  0  0  0  0  0  0  0  0  0  0
   -1.3437    0.2698   -1.2366 H   0  0  0  0  0  0  0  0  0  0  0  0
   -0.1425    1.0026   -0.1796 H   0  0  0  0  0  0  0  0  0  0  0  0
    0.6563    0.2638   -2.0426 C   0  0  0  0  0  0  0  0  0  0  0  0
    1.6561   -0.0429   -1.7147 H   0  0  0  0  0  0  0  0  0  0  0  0
    0.3394   -0.4140   -2.8421 H   0  0  0  0  0  0  0  0  0  0  0  0
    0.7382    1.7029   -2.5641 C   0  0  0  0  0  0  0  0  0  0  0  0
   -0.2529    2.0306   -2.8933 H   0  0  0  0  0  0  0  0  0  0  0  0
    1.0655    2.3707   -1.7602 H   0  0  0  0  0  0  0  0  0  0  0  0
    1.7214    1.8011   -3.7272 C   0  0  0  0  0  0  0  0  0  0  0  0
    2.7236    1.5076   -3.3949 H   0  0  0  0  0  0  0  0  0  0  0  0
    1.4193    1.1243   -4.5342 H   0  0  0  0  0  0  0  0  0  0  0  0
    1.7395    3.1853   -4.2104 N   0  0  0  0  0  0  0  0  0  0  0  0
    2.4124    3.3035   -4.9680 H   0  0  0  0  0  0  0  0  0  0  0  0
    0.8091    3.4868   -4.4984 H   0  0  0  0  0  0  0  0  0  0  0  0
    0.4133   -0.9111    1.3224 C   0  0  0  0  0  0  0  0  0  0  0  0
    1.6237   -0.8681    1.4989 O   0  0  0  0  0  0  0  0  0  0  0  0
   -0.4306   -0.4791    2.3300 N   0  0  0  0  0  0  0  0  0  0  0  0
   -1.4238   -0.6095    2.1699 H   0  0  0  0  0  0  0  0  0  0  0  0
    0.0329   -0.2001    3.6834 C   0  0  0  0  0  0  0  0  0  0  0  0
    0.8125    0.5689    3.6715 H   0  0  0  0  0  0  0  0  0  0  0  0
   -0.7952    0.1607    4.3006 H   0  0  0  0  0  0  0  0  0  0  0  0
    0.4402   -1.1073    4.1418 H   0  0  0  0  0  0  0  0  0  0  0  0
  1  2  1  0  0  0  0
  2  3  1  0  0  0  0
  2  4  1  0  0  0  0
  2  5  1  0  0  0  0
  5  6  2  0  0  0  0
  5  7  1  0  0  0  0
  7  8  1  0  0  0  0
  7  9  1  0  0  0  0
  9 10  1  0  0  0  0
  9 11  1  0  0  0  0
  9 26  1  0  0  0  0
 11 12  1  0  0  0  0
 11 13  1  0  0  0  0
 11 14  1  0  0  0  0
 14 15  1  0  0  0  0
 14 16  1  0  0  0  0
 14 17  1  0  0  0  0
 17 18  1  0  0  0  0
 17 19  1  0  0  0  0
 17 20  1  0  0  0  0
 20 21  1  0  0  0  0
 20 22  1  0  0  0  0
 20 23  1  0  0  0  0
 23 24  1  0  0  0  0
 23 25  1  0  0  0  0
 26 27  2  0  0  0  0
 26 28  1  0  0  0  0
 28 29  1  0  0  0  0
 28 30  1  0  0  0  0
 30 31  1  0  0  0  0
 30 32  1  0  0  0  0
 30 33  1  0  0  0  0
M  END
$$$$

  -OEChem-03222214063D

 33 32  0     1  0  0  0  0  0999 V2000
   -2.8687   -4.9036    0.5976 H   0  0  0  0  0  0  0  0  0  0  0  0
   -2.9068   -3.9022    0.1592 C   0  0  0  0  0  0  0  0  0  0  0  0
   -3.7119   -3.3394    0.6375 H   0  0  0  0  0  0  0  0  0  0  0  0
   -3.1192   -3.9953   -0.9085 H   0  0  0  0  0  0  0  0  0  0  0  0
   -1.5823   -3.1916    0.3661 C   0  0  0  0  0  0  0  0  0  0  0  0
   -0.6905   -3.7424    0.9853 O   0  0  0  0  0  0  0  0  0  0  0  0
   -1.4012   -1.9204   -0.1436 N   0  0  0  0  0  0  0  0  0  0  0  0
   -2.1514   -1.5488   -0.7180 H   0  0  0  0  0  0  0  0  0  0  0  0
   -0.1263   -1.1791   -0.0963 C   0  0  1  0  0  0  0  0  0  0  0  0
    0.6242   -1.8012   -0.5963 H   0  0  0  0  0  0  0  0  0  0  0  0
   -0.2968    0.1501   -0.8707 C   0  0  0  0  0  0  0  0  0  0  0  0
   -1.3194    0.2616   -1.2441 H   0  0  0  0  0  0  0  0  0  0  0  0
   -0.1218    0.9841   -0.1815 H   0  0  0  0  0  0  0  0  0  0  0  0
    0.6794    0.2617   -2.0542 C   0  0  0  0  0  0  0  0  0  0  0  0
    1.6094   -0.2686   -1.8214 H   0  0  0  0  0  0  0  0  0  0  0  0
    0.2392   -0.2051   -2.9414 H   0  0  0  0  0  0  0  0  0  0  0  0
    1.0378    1.7264   -2.3328 C   0  0  0  0  0  0  0  0  0  0  0  0
    0.1253    2.2900   -2.5519 H   0  0  0  0  0  0  0  0  0  0  0  0
    1.5057    2.1695   -1.4472 H   0  0  0  0  0  0  0  0  0  0  0  0
    1.9989    1.8340   -3.5131 C   0  0  0  0  0  0  0  0  0  0  0  0
    2.9317    1.3063   -3.2849 H   0  0  0  0  0  0  0  0  0  0  0  0
    1.5555    1.3729   -4.4024 H   0  0  0  0  0  0  0  0  0  0  0  0
    2.2747    3.2513   -3.7669 N   0  0  0  0  0  0  0  0  0  0  0  0
    2.9350    3.3680   -4.5355 H   0  0  0  0  0  0  0  0  0  0  0  0
    1.4139    3.7685   -3.9434 H   0  0  0  0  0  0  0  0  0  0  0  0
    0.4201   -0.9178    1.3255 C   0  0  0  0  0  0  0  0  0  0  0  0
    1.6287   -0.8865    1.5151 O   0  0  0  0  0  0  0  0  0  0  0  0
   -0.4322   -0.4754    2.3212 N   0  0  0  0  0  0  0  0  0  0  0  0
   -1.4240   -0.5980    2.1484 H   0  0  0  0  0  0  0  0  0  0  0  0
    0.0149   -0.2010    3.6806 C   0  0  0  0  0  0  0  0  0  0  0  0
    0.8038    0.5586    3.6801 H   0  0  0  0  0  0  0  0  0  0  0  0
   -0.8185    0.1700    4.2845 H   0  0  0  0  0  0  0  0  0  0  0  0
    0.4037   -1.1129    4.1457 H   0  0  0  0  0  0  0  0  0  0  0  0
  1  2  1  0  0  0  0
  2  3  1  0  0  0  0
  2  4  1  0  0  0  0
  2  5  1  0  0  0  0
  5  6  2  0  0  0  0
  5  7  1  0  0  0  0
  7  8  1  0  0  0  0
  7  9  1  0  0  0  0
  9 10  1  0  0  0  0
  9 11  1  0  0  0  0
  9 26  1  0  0  0  0
 11 12  1  0  0  0  0
 11 13  1  0  0  0  0
 11 14  1  0  0  0  0
 14 15  1  0  0  0  0
 14 16  1  0  0  0  0
 14 17  1  0  0  0  0
 17 18  1  0  0  0  0
 17 19  1  0  0  0  0
 17 20  1  0  0  0  0
 20 21  1  0  0  0  0
 20 22  1  0  0  0  0
 20 23  1  0  0  0  0
 23 24  1  0  0  0  0
 23 25  1  0  0  0  0
 26 27  2  0  0  0  0
 26 28  1  0  0  0  0
 28 29  1  0  0  0  0
 28 30  1  0  0  0  0
 30 31  1  0  0  0  0
 30 32  1  0  0  0  0
 30 33  1  0  0  0  0
M  END
$$$$

  -OEChem-03222214063D

 33 32  0     1  0  0  0  0  0999 V2000
   -2.8866   -4.9032    0.5968 H   0  0  0  0  0  0  0  0  0  0  0  0
   -2.9177   -3.9026    0.1559 C   0  0  0  0  0  0  0  0  0  0  0  0
   -3.7275   -3.3376    0.6234 H   0  0  0  0  0  0  0  0  0  0  0  0
   -3.1173   -3.9970   -0.9142 H   0  0  0  0  0  0  0  0  0  0  0  0
   -1.5948   -3.1932    0.3771 C   0  0  0  0  0  0  0  0  0  0  0  0
   -0.7142   -3.7402    1.0154 O   0  0  0  0  0  0  0  0  0  0  0  0
   -1.4032   -1.9272   -0.1414 N   0  0  0  0  0  0  0  0  0  0  0  0
   -2.1400   -1.5653   -0.7389 H   0  0  0  0  0  0  0  0  0  0  0  0
   -0.1227   -1.1953   -0.0960 C   0  0  1  0  0  0  0  0  0  0  0  0
    0.6232   -1.8290   -0.5869 H   0  0  0  0  0  0  0  0  0  0  0  0
   -0.2856    0.1330   -0.8768 C   0  0  0  0  0  0  0  0  0  0  0  0
   -1.3087    0.2412   -1.2503 H   0  0  0  0  0  0  0  0  0  0  0  0
   -0.1208    0.9685   -0.1868 H   0  0  0  0  0  0  0  0  0  0  0  0
    0.6845    0.2562   -2.0691 C   0  0  0  0  0  0  0  0  0  0  0  0
    1.4922   -0.4784   -1.9870 H   0  0  0  0  0  0  0  0  0  0  0  0
    0.1468    0.0532   -3.0010 H   0  0  0  0  0  0  0  0  0  0  0  0
    1.3247    1.6494   -2.1139 C   0  0  0  0  0  0  0  0  0  0  0  0
    0.5406    2.4083   -2.2023 H   0  0  0  0  0  0  0  0  0  0  0  0
    1.8734    1.8351   -1.1840 H   0  0  0  0  0  0  0  0  0  0  0  0
    2.2848    1.7709   -3.2936 C   0  0  0  0  0  0  0  0  0  0  0  0
    3.0989    1.0449   -3.1895 H   0  0  0  0  0  0  0  0  0  0  0  0
    1.7582    1.5599   -4.2308 H   0  0  0  0  0  0  0  0  0  0  0  0
    2.8274    3.1325   -3.3175 N   0  0  0  0  0  0  0  0  0  0  0  0
    3.4882    3.2555   -4.0846 H   0  0  0  0  0  0  0  0  0  0  0  0
    2.0815    3.8261   -3.3625 H   0  0  0  0  0  0  0  0  0  0  0  0
    0.4249   -0.9265    1.3240 C   0  0  0  0  0  0  0  0  0  0  0  0
    1.6338   -0.9022    1.5128 O   0  0  0  0  0  0  0  0  0  0  0  0
   -0.4222   -0.4693    2.3176 N   0  0  0  0  0  0  0  0  0  0  0  0
   -1.4156   -0.5877    2.1502 H   0  0  0  0  0  0  0  0  0  0  0  0
    0.0336   -0.1779    3.6705 C   0  0  0  0  0  0  0  0  0  0  0  0
    0.8237    0.5801    3.6539 H   0  0  0  0  0  0  0  0  0  0  0  0
   -0.7949    0.2028    4.2751 H   0  0  0  0  0  0  0  0  0  0  0  0
    0.4245   -1.0842    4.1449 H   0  0  0  0  0  0  0  0  0  0  0  0
  1  2  1  0  0  0  0
  2  3  1  0  0  0  0
  2  4  1  0  0  0  0
  2  5  1  0  0  0  0
  5  6  2  0  0  0  0
  5  7  1  0  0  0  0
  7  8  1  0  0  0  0
  7  9  1  0  0  0  0
  9 10  1  0  0  0  0
  9 11  1  0  0  0  0
  9 26  1  0  0  0  0
 11 12  1  0  0  0  0
 11 13  1  0  0  0  0
 11 14  1  0  0  0  0
 14 15  1  0  0  0  0
 14 16  1  0  0  0  0
 14 17  1  0  0  0  0
 17 18  1  0  0  0  0
 17 19  1  0  0  0  0
 17 20  1  0  0  0  0
 20 21  1  0  0  0  0
 20 22  1  0  0  0  0
 20 23  1  0  0  0  0
 23 24  1  0  0  0  0
 23 25  1  0  0  0  0
 26 27  2  0  0  0  0
 26 28  1  0  0  0  0
 28 29  1  0  0  0  0
 28 30  1  0  0  0  0
 30 31  1  0  0  0  0
 30 32  1  0  0  0  0
 30 33  1  0  0  0  0
M  END
$$$$

  -OEChem-03222214063D

 33 32  0     1  0  0  0  0  0999 V2000
   -2.8882   -4.8946    0.6224 H   0  0  0  0  0  0  0  0  0  0  0  0
   -2.9157   -3.8983    0.1718 C   0  0  0  0  0  0  0  0  0  0  0  0
   -3.7202   -3.3241    0.6373 H   0  0  0  0  0  0  0  0  0  0  0  0
   -3.1208   -4.0023   -0.8963 H   0  0  0  0  0  0  0  0  0  0  0  0
   -1.5878   -3.1947    0.3803 C   0  0  0  0  0  0  0  0  0  0  0  0
   -0.7054   -3.7428    1.0152 O   0  0  0  0  0  0  0  0  0  0  0  0
   -1.3958   -1.9307   -0.1430 N   0  0  0  0  0  0  0  0  0  0  0  0
   -2.1381   -1.5653   -0.7314 H   0  0  0  0  0  0  0  0  0  0  0  0
   -0.1148   -1.1992   -0.1032 C   0  0  1  0  0  0  0  0  0  0  0  0
    0.6328   -1.8327   -0.5915 H   0  0  0  0  0  0  0  0  0  0  0  0
   -0.2774    0.1322   -0.8796 C   0  0  0  0  0  0  0  0  0  0  0  0
   -1.3010    0.2217   -1.2568 H   0  0  0  0  0  0  0  0  0  0  0  0
   -0.1321    0.9748   -0.1939 H   0  0  0  0  0  0  0  0  0  0  0  0
    0.6852    0.2640   -2.0790 C   0  0  0  0  0  0  0  0  0  0  0  0
    1.3070   -0.6295   -2.1908 H   0  0  0  0  0  0  0  0  0  0  0  0
    0.0982    0.3665   -2.9976 H   0  0  0  0  0  0  0  0  0  0  0  0
    1.5972    1.4869   -1.9213 C   0  0  0  0  0  0  0  0  0  0  0  0
    0.9864    2.3925   -1.8463 H   0  0  0  0  0  0  0  0  0  0  0  0
    2.1806    1.3935   -0.9986 H   0  0  0  0  0  0  0  0  0  0  0  0
    2.5499    1.6133   -3.1067 C   0  0  0  0  0  0  0  0  0  0  0  0
    3.1992    0.7322   -3.1610 H   0  0  0  0  0  0  0  0  0  0  0  0
    1.9809    1.6753   -4.0409 H   0  0  0  0  0  0  0  0  0  0  0  0
    3.3596    2.8226   -2.9309 N   0  0  0  0  0  0  0  0  0  0  0  0
    4.0221    2.9409   -3.6972 H   0  0  0  0  0  0  0  0  0  0  0  0
    2.7709    3.6483   -2.8248 H   0  0  0  0  0  0  0  0  0  0  0  0
    0.4303   -0.9286    1.3173 C   0  0  0  0  0  0  0  0  0  0  0  0
    1.6383   -0.9086    1.5109 O   0  0  0  0  0  0  0  0  0  0  0  0
   -0.4195   -0.4695    2.3079 N   0  0  0  0  0  0  0  0  0  0  0  0
   -1.4124   -0.5877    2.1370 H   0  0  0  0  0  0  0  0  0  0  0  0
    0.0316   -0.1816    3.6633 C   0  0  0  0  0  0  0  0  0  0  0  0
    0.8236    0.5746    3.6516 H   0  0  0  0  0  0  0  0  0  0  0  0
   -0.7985    0.1996    4.2654 H   0  0  0  0  0  0  0  0  0  0  0  0
    0.4186   -1.0896    4.1375 H   0  0  0  0  0  0  0  0  0  0  0  0
  1  2  1  0  0  0  0
  2  3  1  0  0  0  0
  2  4  1  0  0  0  0
  2  5  1  0  0  0  0
  5  6  2  0  0  0  0
  5  7  1  0  0  0  0
  7  8  1  0  0  0  0
  7  9  1  0  0  0  0
  9 10  1  0  0  0  0
  9 11  1  0  0  0  0
  9 26  1  0  0  0  0
 11 12  1  0  0  0  0
 11 13  1  0  0  0  0
 11 14  1  0  0  0  0
 14 15  1  0  0  0  0
 14 16  1  0  0  0  0
 14 17  1  0  0  0  0
 17 18  1  0  0  0  0
 17 19  1  0  0  0  0
 17 20  1  0  0  0  0
 20 21  1  0  0  0  0
 20 22  1  0  0  0  0
 20 23  1  0  0  0  0
 23 24  1  0  0  0  0
 23 25  1  0  0  0  0
 26 27  2  0  0  0  0
 26 28  1  0  0  0  0
 28 29  1  0  0  0  0
 28 30  1  0  0  0  0
 30 31  1  0  0  0  0
 30 32  1  0  0  0  0
 30 33  1  0  0  0  0
M  END
$$$$

  -OEChem-03222214063D

 33 32  0     1  0  0  0  0  0999 V2000
   -2.8700   -4.8990    0.6211 H   0  0  0  0  0  0  0  0  0  0  0  0
   -2.9029   -3.9043    0.1670 C   0  0  0  0  0  0  0  0  0  0  0  0
   -3.7127   -3.3342    0.6282 H   0  0  0  0  0  0  0  0  0  0  0  0
   -3.1033   -4.0131   -0.9016 H   0  0  0  0  0  0  0  0  0  0  0  0
   -1.5802   -3.1913    0.3773 C   0  0  0  0  0  0  0  0  0  0  0  0
   -0.6929   -3.7377    1.0067 O   0  0  0  0  0  0  0  0  0  0  0  0
   -1.3956   -1.9253   -0.1441 N   0  0  0  0  0  0  0  0  0  0  0  0
   -2.1416   -1.5621   -0.7292 H   0  0  0  0  0  0  0  0  0  0  0  0
   -0.1162   -1.1898   -0.1095 C   0  0  1  0  0  0  0  0  0  0  0  0
    0.6342   -1.8151   -0.6042 H   0  0  0  0  0  0  0  0  0  0  0  0
   -0.2833    0.1460   -0.8765 C   0  0  0  0  0  0  0  0  0  0  0  0
   -1.3064    0.2192   -1.2586 H   0  0  0  0  0  0  0  0  0  0  0  0
   -0.1501    0.9952   -0.1967 H   0  0  0  0  0  0  0  0  0  0  0  0
    0.6750    0.2755   -2.0769 C   0  0  0  0  0  0  0  0  0  0  0  0
    1.0719   -0.6991   -2.3784 H   0  0  0  0  0  0  0  0  0  0  0  0
    0.1139    0.6717   -2.9298 H   0  0  0  0  0  0  0  0  0  0  0  0
    1.8245    1.2413   -1.7638 C   0  0  0  0  0  0  0  0  0  0  0  0
    1.4202    2.2282   -1.5166 H   0  0  0  0  0  0  0  0  0  0  0  0
    2.3832    0.8769   -0.8947 H   0  0  0  0  0  0  0  0  0  0  0  0
    2.7711    1.3650   -2.9543 C   0  0  0  0  0  0  0  0  0  0  0  0
    3.2143    0.3894   -3.1833 H   0  0  0  0  0  0  0  0  0  0  0  0
    2.2199    1.7047   -3.8382 H   0  0  0  0  0  0  0  0  0  0  0  0
    3.8250    2.3273   -2.6193 N   0  0  0  0  0  0  0  0  0  0  0  0
    4.4810    2.4455   -3.3910 H   0  0  0  0  0  0  0  0  0  0  0  0
    3.4300    3.2226   -2.3328 H   0  0  0  0  0  0  0  0  0  0  0  0
    0.4340   -0.9222    1.3097 C   0  0  0  0  0  0  0  0  0  0  0  0
    1.6424   -0.8982    1.5001 O   0  0  0  0  0  0  0  0  0  0  0  0
   -0.4135   -0.4687    2.3047 N   0  0  0  0  0  0  0  0  0  0  0  0
   -1.4065   -0.5895    2.1374 H   0  0  0  0  0  0  0  0  0  0  0  0
    0.0424   -0.1799    3.6584 C   0  0  0  0  0  0  0  0  0  0  0  0
    0.8289    0.5820    3.6440 H   0  0  0  0  0  0  0  0  0  0  0  0
   -0.7871    0.1946    4.2656 H   0  0  0  0  0  0  0  0  0  0  0  0
    0.4385   -1.0860    4.1287 H   0  0  0  0  0  0  0  0  0  0  0  0
  1  2  1  0  0  0  0
  2  3  1  0  0  0  0
  2  4  1  0  0  0  0
  2  5  1  0  0  0  0
  5  6  2  0  0  0  0
  5  7  1  0  0  0  0
  7  8  1  0  0  0  0
  7  9  1  0  0  0  0
  9 10  1  0  0  0  0
  9 11  1  0  0  0  0
  9 26  1  0  0  0  0
 11 12  1  0  0  0  0
 11 13  1  0  0  0  0
 11 14  1  0  0  0  0
 14 15  1  0  0  0  0
 14 16  1  0  0  0  0
 14 17  1  0  0  0  0
 17 18  1  0  0  0  0
 17 19  1  0  0  0  0
 17 20  1  0  0  0  0
 20 21  1  0  0  0  0
 20 22  1  0  0  0  0
 20 23  1  0  0  0  0
 23 24  1  0  0  0  0
 23 25  1  0  0  0  0
 26 27  2  0  0  0  0
 26 28  1  0  0  0  0
 28 29  1  0  0  0  0
 28 30  1  0  0  0  0
 30 31  1  0  0  0  0
 30 32  1  0  0  0  0
 30 33  1  0  0  0  0
M  END
$$$$

  -OEChem-03222214063D

 33 32  0     1  0  0  0  0  0999 V2000
   -2.8573   -4.8928    0.6185 H   0  0  0  0  0  0  0  0  0  0  0  0
   -2.8895   -3.8974    0.1661 C   0  0  0  0  0  0  0  0  0  0  0  0
   -3.6998   -3.3279    0.6272 H   0  0  0  0  0  0  0  0  0  0  0  0
   -3.0891   -4.0043   -0.9029 H   0  0  0  0  0  0  0  0  0  0  0  0
   -1.5673   -3.1846    0.3786 C   0  0  0  0  0  0  0  0  0  0  0  0
   -0.6807   -3.7305    1.0094 O   0  0  0  0  0  0  0  0  0  0  0  0
   -1.3834   -1.9189   -0.1439 N   0  0  0  0  0  0  0  0  0  0  0  0
   -2.1285   -1.5582   -0.7314 H   0  0  0  0  0  0  0  0  0  0  0  0
   -0.1049   -1.1820   -0.1103 C   0  0  1  0  0  0  0  0  0  0  0  0
    0.6498   -1.7992   -0.6103 H   0  0  0  0  0  0  0  0  0  0  0  0
   -0.2780    0.1540   -0.8736 C   0  0  0  0  0  0  0  0  0  0  0  0
   -1.3012    0.2234   -1.2560 H   0  0  0  0  0  0  0  0  0  0  0  0
   -0.1408    1.0066   -0.1990 H   0  0  0  0  0  0  0  0  0  0  0  0
    0.6787    0.2756   -2.0720 C   0  0  0  0  0  0  0  0  0  0  0  0
    0.8533   -0.7031   -2.5314 H   0  0  0  0  0  0  0  0  0  0  0  0
    0.2059    0.9103   -2.8287 H   0  0  0  0  0  0  0  0  0  0  0  0
    2.0071    0.9248   -1.6643 C   0  0  0  0  0  0  0  0  0  0  0  0
    1.8186    1.9095   -1.2248 H   0  0  0  0  0  0  0  0  0  0  0  0
    2.5019    0.3070   -0.9074 H   0  0  0  0  0  0  0  0  0  0  0  0
    2.9291    1.0774   -2.8711 C   0  0  0  0  0  0  0  0  0  0  0  0
    3.1397    0.0955   -3.3094 H   0  0  0  0  0  0  0  0  0  0  0  0
    2.4458    1.6957   -3.6355 H   0  0  0  0  0  0  0  0  0  0  0  0
    4.1778    1.7072   -2.4330 N   0  0  0  0  0  0  0  0  0  0  0  0
    4.8133    1.8605   -3.2154 H   0  0  0  0  0  0  0  0  0  0  0  0
    3.9966    2.5760   -1.9306 H   0  0  0  0  0  0  0  0  0  0  0  0
    0.4378   -0.9166    1.3129 C   0  0  0  0  0  0  0  0  0  0  0  0
    1.6441   -0.9003    1.5160 O   0  0  0  0  0  0  0  0  0  0  0  0
   -0.4166   -0.4658    2.3036 N   0  0  0  0  0  0  0  0  0  0  0  0
   -1.4084   -0.5841    2.1277 H   0  0  0  0  0  0  0  0  0  0  0  0
    0.0286   -0.1915    3.6640 C   0  0  0  0  0  0  0  0  0  0  0  0
    0.8178    0.5677    3.6639 H   0  0  0  0  0  0  0  0  0  0  0  0
   -0.8051    0.1800    4.2673 H   0  0  0  0  0  0  0  0  0  0  0  0
    0.4175   -1.1032    4.1296 H   0  0  0  0  0  0  0  0  0  0  0  0
  1  2  1  0  0  0  0
  2  3  1  0  0  0  0
  2  4  1  0  0  0  0
  2  5  1  0  0  0  0
  5  6  2  0  0  0  0
  5  7  1  0  0  0  0
  7  8  1  0  0  0  0
  7  9  1  0  0  0  0
  9 10  1  0  0  0  0
  9 11  1  0  0  0  0
  9 26  1  0  0  0  0
 11 12  1  0  0  0  0
 11 13  1  0  0  0  0
 11 14  1  0  0  0  0
 14 15  1  0  0  0  0
 14 16  1  0  0  0  0
 14 17  1  0  0  0  0
 17 18  1  0  0  0  0
 17 19  1  0  0  0  0
 17 20  1  0  0  0  0
 20 21  1  0  0  0  0
 20 22  1  0  0  0  0
 20 23  1  0  0  0  0
 23 24  1  0  0  0  0
 23 25  1  0  0  0  0
 26 27  2  0  0  0  0
 26 28  1  0  0  0  0
 28 29  1  0  0  0  0
 28 30  1  0  0  0  0
 30 31  1  0  0  0  0
 30 32  1  0  0  0  0
 30 33  1  0  0  0  0
M  END
$$$$

  -OEChem-03222214063D

 33 32  0     1  0  0  0  0  0999 V2000
   -2.8607   -4.8904    0.6179 H   0  0  0  0  0  0  0  0  0  0  0  0
   -2.8910   -3.8960    0.1635 C   0  0  0  0  0  0  0  0  0  0  0  0
   -3.7087   -3.3285    0.6138 H   0  0  0  0  0  0  0  0  0  0  0  0
   -3.0773   -4.0058   -0.9075 H   0  0  0  0  0  0  0  0  0  0  0  0
   -1.5731   -3.1797    0.3914 C   0  0  0  0  0  0  0  0  0  0  0  0
   -0.6967   -3.7209    1.0402 O   0  0  0  0  0  0  0  0  0  0  0  0
   -1.3816   -1.9173   -0.1366 N   0  0  0  0  0  0  0  0  0  0  0  0
   -2.1162   -1.5647   -0.7422 H   0  0  0  0  0  0  0  0  0  0  0  0
   -0.0990   -1.1870   -0.1037 C   0  0  1  0  0  0  0  0  0  0  0  0
    0.6519   -1.8084   -0.6045 H   0  0  0  0  0  0  0  0  0  0  0  0
   -0.2659    0.1460   -0.8730 C   0  0  0  0  0  0  0  0  0  0  0  0
   -1.2899    0.2307   -1.2499 H   0  0  0  0  0  0  0  0  0  0  0  0
   -0.1083    0.9979   -0.2020 H   0  0  0  0  0  0  0  0  0  0  0  0
    0.6907    0.2588   -2.0701 C   0  0  0  0  0  0  0  0  0  0  0  0
    0.6583   -0.6606   -2.6645 H   0  0  0  0  0  0  0  0  0  0  0  0
    0.3463    1.0776   -2.7104 H   0  0  0  0  0  0  0  0  0  0  0  0
    2.1313    0.5521   -1.6303 C   0  0  0  0  0  0  0  0  0  0  0  0
    2.1500    1.4383   -0.9878 H   0  0  0  0  0  0  0  0  0  0  0  0
    2.5217   -0.2909   -1.0512 H   0  0  0  0  0  0  0  0  0  0  0  0
    3.0288    0.7871   -2.8425 C   0  0  0  0  0  0  0  0  0  0  0  0
    3.0018   -0.0840   -3.5064 H   0  0  0  0  0  0  0  0  0  0  0  0
    2.6734    1.6565   -3.4063 H   0  0  0  0  0  0  0  0  0  0  0  0
    4.3995    1.0150   -2.3774 N   0  0  0  0  0  0  0  0  0  0  0  0
    5.0222    1.2516   -3.1494 H   0  0  0  0  0  0  0  0  0  0  0  0
    4.4280    1.7287   -1.6490 H   0  0  0  0  0  0  0  0  0  0  0  0
    0.4397   -0.9198    1.3218 C   0  0  0  0  0  0  0  0  0  0  0  0
    1.6450   -0.9003    1.5309 O   0  0  0  0  0  0  0  0  0  0  0  0
   -0.4184   -0.4613    2.3058 N   0  0  0  0  0  0  0  0  0  0  0  0
   -1.4088   -0.5871    2.1266 H   0  0  0  0  0  0  0  0  0  0  0  0
    0.0191   -0.1867    3.6687 C   0  0  0  0  0  0  0  0  0  0  0  0
    0.8062    0.5747    3.6731 H   0  0  0  0  0  0  0  0  0  0  0  0
   -0.8186    0.1819    4.2680 H   0  0  0  0  0  0  0  0  0  0  0  0
    0.4078   -1.0976    4.1358 H   0  0  0  0  0  0  0  0  0  0  0  0
  1  2  1  0  0  0  0
  2  3  1  0  0  0  0
  2  4  1  0  0  0  0
  2  5  1  0  0  0  0
  5  6  2  0  0  0  0
  5  7  1  0  0  0  0
  7  8  1  0  0  0  0
  7  9  1  0  0  0  0
  9 10  1  0  0  0  0
  9 11  1  0  0  0  0
  9 26  1  0  0  0  0
 11 12  1  0  0  0  0
 11 13  1  0  0  0  0
 11 14  1  0  0  0  0
 14 15  1  0  0  0  0
 14 16  1  0  0  0  0
 14 17  1  0  0  0  0
 17 18  1  0  0  0  0
 17 19  1  0  0  0  0
 17 20  1  0  0  0  0
 20 21  1  0  0  0  0
 20 22  1  0  0  0  0
 20 23  1  0  0  0  0
 23 24  1  0  0  0  0
 23 25  1  0  0  0  0
 26 27  2  0  0  0  0
 26 28  1  0  0  0  0
 28 29  1  0  0  0  0
 28 30  1  0  0  0  0
 30 31  1  0  0  0  0
 30 32  1  0  0  0  0
 30 33  1  0  0  0  0
M  END
$$$$

  -OEChem-03222214063D

 33 32  0     1  0  0  0  0  0999 V2000
   -2.9071   -4.8881    0.6281 H   0  0  0  0  0  0  0  0  0  0  0  0
   -2.9223   -3.8963    0.1670 C   0  0  0  0  0  0  0  0  0  0  0  0
   -3.7439   -3.3204    0.5995 H   0  0  0  0  0  0  0  0  0  0  0  0
   -3.0905   -4.0116   -0.9065 H   0  0  0  0  0  0  0  0  0  0  0  0
   -1.6037   -3.1868    0.4125 C   0  0  0  0  0  0  0  0  0  0  0  0
   -0.7438   -3.7262    1.0845 O   0  0  0  0  0  0  0  0  0  0  0  0
   -1.3943   -1.9305   -0.1230 N   0  0  0  0  0  0  0  0  0  0  0  0
   -2.1134   -1.5824   -0.7495 H   0  0  0  0  0  0  0  0  0  0  0  0
   -0.1034   -1.2152   -0.0860 C   0  0  1  0  0  0  0  0  0  0  0  0
    0.6334   -1.8590   -0.5768 H   0  0  0  0  0  0  0  0  0  0  0  0
   -0.2483    0.1102   -0.8746 C   0  0  0  0  0  0  0  0  0  0  0  0
   -1.2721    0.2148   -1.2471 H   0  0  0  0  0  0  0  0  0  0  0  0
   -0.0705    0.9589   -0.2048 H   0  0  0  0  0  0  0  0  0  0  0  0
    0.7097    0.2301   -2.0723 C   0  0  0  0  0  0  0  0  0  0  0  0
    0.4947   -0.5684   -2.7904 H   0  0  0  0  0  0  0  0  0  0  0  0
    0.5166    1.1856   -2.5713 H   0  0  0  0  0  0  0  0  0  0  0  0
    2.1920    0.1640   -1.6720 C   0  0  0  0  0  0  0  0  0  0  0  0
    2.3864    0.8705   -0.8585 H   0  0  0  0  0  0  0  0  0  0  0  0
    2.4454   -0.8379   -1.3129 H   0  0  0  0  0  0  0  0  0  0  0  0
    3.0868    0.5047   -2.8607 C   0  0  0  0  0  0  0  0  0  0  0  0
    2.8633   -0.1575   -3.7044 H   0  0  0  0  0  0  0  0  0  0  0  0
    2.9059    1.5369   -3.1798 H   0  0  0  0  0  0  0  0  0  0  0  0
    4.4854    0.3385   -2.4572 N   0  0  0  0  0  0  0  0  0  0  0  0
    5.1249    0.6509   -3.1870 H   0  0  0  0  0  0  0  0  0  0  0  0
    4.6724    0.8162   -1.5748 H   0  0  0  0  0  0  0  0  0  0  0  0
    0.4356   -0.9405    1.3379 C   0  0  0  0  0  0  0  0  0  0  0  0
    1.6417   -0.9144    1.5435 O   0  0  0  0  0  0  0  0  0  0  0  0
   -0.4200   -0.4628    2.3149 N   0  0  0  0  0  0  0  0  0  0  0  0
   -1.4105   -0.5955    2.1410 H   0  0  0  0  0  0  0  0  0  0  0  0
    0.0196   -0.1717    3.6735 C   0  0  0  0  0  0  0  0  0  0  0  0
    0.8100    0.5863    3.6667 H   0  0  0  0  0  0  0  0  0  0  0  0
   -0.8160    0.2087    4.2684 H   0  0  0  0  0  0  0  0  0  0  0  0
    0.4044   -1.0781    4.1526 H   0  0  0  0  0  0  0  0  0  0  0  0
  1  2  1  0  0  0  0
  2  3  1  0  0  0  0
  2  4  1  0  0  0  0
  2  5  1  0  0  0  0
  5  6  2  0  0  0  0
  5  7  1  0  0  0  0
  7  8  1  0  0  0  0
  7  9  1  0  0  0  0
  9 10  1  0  0  0  0
  9 11  1  0  0  0  0
  9 26  1  0  0  0  0
 11 12  1  0  0  0  0
 11 13  1  0  0  0  0
 11 14  1  0  0  0  0
 14 15  1  0  0  0  0
 14 16  1  0  0  0  0
 14 17  1  0  0  0  0
 17 18  1  0  0  0  0
 17 19  1  0  0  0  0
 17 20  1  0  0  0  0
 20 21  1  0  0  0  0
 20 22  1  0  0  0  0
 20 23  1  0  0  0  0
 23 24  1  0  0  0  0
 23 25  1  0  0  0  0
 26 27  2  0  0  0  0
 26 28  1  0  0  0  0
 28 29  1  0  0  0  0
 28 30  1  0  0  0  0
 30 31  1  0  0  0  0
 30 32  1  0  0  0  0
 30 33  1  0  0  0  0
M  END
$$$$

  -OEChem-03222214063D

 33 32  0     1  0  0  0  0  0999 V2000
   -2.9761   -4.8803    0.6610 H   0  0  0  0  0  0  0  0  0  0  0  0
   -2.9743   -3.8902    0.1960 C   0  0  0  0  0  0  0  0  0  0  0  0
   -3.7959   -3.3038    0.6142 H   0  0  0  0  0  0  0  0  0  0  0  0
   -3.1285   -4.0085   -0.8793 H   0  0  0  0  0  0  0  0  0  0  0  0
   -1.6521   -3.1933    0.4575 C   0  0  0  0  0  0  0  0  0  0  0  0
   -0.8154   -3.7291    1.1611 O   0  0  0  0  0  0  0  0  0  0  0  0
   -1.4135   -1.9513   -0.0989 N   0  0  0  0  0  0  0  0  0  0  0  0
   -2.1118   -1.6108   -0.7526 H   0  0  0  0  0  0  0  0  0  0  0  0
   -0.1086   -1.2617   -0.0624 C   0  0  1  0  0  0  0  0  0  0  0  0
    0.6130   -1.9364   -0.5291 H   0  0  0  0  0  0  0  0  0  0  0  0
   -0.2242    0.0523   -0.8789 C   0  0  0  0  0  0  0  0  0  0  0  0
   -1.2488    0.1829   -1.2404 H   0  0  0  0  0  0  0  0  0  0  0  0
   -0.0221    0.8977   -0.2118 H   0  0  0  0  0  0  0  0  0  0  0  0
    0.7279    0.1808   -2.0854 C   0  0  0  0  0  0  0  0  0  0  0  0
    0.3469   -0.4397   -2.9034 H   0  0  0  0  0  0  0  0  0  0  0  0
    0.7043    1.2219   -2.4240 H   0  0  0  0  0  0  0  0  0  0  0  0
    2.1837   -0.2299   -1.8080 C   0  0  0  0  0  0  0  0  0  0  0  0
    2.5180    0.2105   -0.8630 H   0  0  0  0  0  0  0  0  0  0  0  0
    2.2649   -1.3173   -1.7249 H   0  0  0  0  0  0  0  0  0  0  0  0
    3.1032    0.2417   -2.9312 C   0  0  0  0  0  0  0  0  0  0  0  0
    2.7472   -0.1346   -3.8966 H   0  0  0  0  0  0  0  0  0  0  0  0
    3.1104    1.3364   -2.9733 H   0  0  0  0  0  0  0  0  0  0  0  0
    4.4531   -0.2634   -2.6684 N   0  0  0  0  0  0  0  0  0  0  0  0
    5.1267    0.1069   -3.3382 H   0  0  0  0  0  0  0  0  0  0  0  0
    4.7394   -0.0601   -1.7096 H   0  0  0  0  0  0  0  0  0  0  0  0
    0.4250   -0.9711    1.3604 C   0  0  0  0  0  0  0  0  0  0  0  0
    1.6304   -0.9661    1.5730 O   0  0  0  0  0  0  0  0  0  0  0  0
   -0.4267   -0.4576    2.3226 N   0  0  0  0  0  0  0  0  0  0  0  0
   -1.4188   -0.5720    2.1437 H   0  0  0  0  0  0  0  0  0  0  0  0
    0.0094   -0.1572    3.6805 C   0  0  0  0  0  0  0  0  0  0  0  0
    0.8177    0.5816    3.6695 H   0  0  0  0  0  0  0  0  0  0  0  0
   -0.8214    0.2515    4.2634 H   0  0  0  0  0  0  0  0  0  0  0  0
    0.3692   -1.0653    4.1756 H   0  0  0  0  0  0  0  0  0  0  0  0
  1  2  1  0  0  0  0
  2  3  1  0  0  0  0
  2  4  1  0  0  0  0
  2  5  1  0  0  0  0
  5  6  2  0  0  0  0
  5  7  1  0  0  0  0
  7  8  1  0  0  0  0
  7  9  1  0  0  0  0
  9 10  1  0  0  0  0
  9 11  1  0  0  0  0
  9 26  1  0  0  0  0
 11 12  1  0  0  0  0
 11 13  1  0  0  0  0
 11 14  1  0  0  0  0
 14 15  1  0  0  0  0
 14 16  1  0  0  0  0
 14 17  1  0  0  0  0
 17 18  1  0  0  0  0
 17 19  1  0  0  0  0
 17 20  1  0  0  0  0
 20 21  1  0  0  0  0
 20 22  1  0  0  0  0
 20 23  1  0  0  0  0
 23 24  1  0  0  0  0
 23 25  1  0  0  0  0
 26 27  2  0  0  0  0
 26 28  1  0  0  0  0
 28 29  1  0  0  0  0
 28 30  1  0  0  0  0
 30 31  1  0  0  0  0
 30 32  1  0  0  0  0
 30 33  1  0  0  0  0
M  END
$$$$

  -OEChem-03222214063D

 33 32  0     1  0  0  0  0  0999 V2000
   -3.0287   -4.8676    0.7055 H   0  0  0  0  0  0  0  0  0  0  0  0
   -3.0119   -3.8827    0.2302 C   0  0  0  0  0  0  0  0  0  0  0  0
   -3.8233   -3.2789    0.6431 H   0  0  0  0  0  0  0  0  0  0  0  0
   -3.1695   -4.0095   -0.8435 H   0  0  0  0  0  0  0  0  0  0  0  0
   -1.6788   -3.2044    0.4834 C   0  0  0  0  0  0  0  0  0  0  0  0
   -0.8504   -3.7451    1.1931 O   0  0  0  0  0  0  0  0  0  0  0  0
   -1.4232   -1.9707   -0.0835 N   0  0  0  0  0  0  0  0  0  0  0  0
   -2.1124   -1.6299   -0.7465 H   0  0  0  0  0  0  0  0  0  0  0  0
   -0.1110   -1.2964   -0.0453 C   0  0  1  0  0  0  0  0  0  0  0  0
    0.6058   -1.9866   -0.4939 H   0  0  0  0  0  0  0  0  0  0  0  0
   -0.2102    0.0174   -0.8692 C   0  0  0  0  0  0  0  0  0  0  0  0
   -1.2368    0.1660   -1.2188 H   0  0  0  0  0  0  0  0  0  0  0  0
    0.0060    0.8555   -0.1975 H   0  0  0  0  0  0  0  0  0  0  0  0
    0.7341    0.1665   -2.0846 C   0  0  0  0  0  0  0  0  0  0  0  0
    0.2205   -0.2202   -2.9709 H   0  0  0  0  0  0  0  0  0  0  0  0
    0.9034    1.2361   -2.2480 H   0  0  0  0  0  0  0  0  0  0  0  0
    2.0897   -0.5518   -1.9826 C   0  0  0  0  0  0  0  0  0  0  0  0
    2.5323   -0.3716   -0.9974 H   0  0  0  0  0  0  0  0  0  0  0  0
    1.9544   -1.6303   -2.1092 H   0  0  0  0  0  0  0  0  0  0  0  0
    3.0507   -0.0546   -3.0582 C   0  0  0  0  0  0  0  0  0  0  0  0
    2.6010   -0.1702   -4.0506 H   0  0  0  0  0  0  0  0  0  0  0  0
    3.2681    1.0080   -2.9028 H   0  0  0  0  0  0  0  0  0  0  0  0
    4.2842   -0.8410   -2.9750 N   0  0  0  0  0  0  0  0  0  0  0  0
    4.9915   -0.4931   -3.6216 H   0  0  0  0  0  0  0  0  0  0  0  0
    4.6411   -0.8589   -2.0184 H   0  0  0  0  0  0  0  0  0  0  0  0
    0.4152   -0.9994    1.3787 C   0  0  0  0  0  0  0  0  0  0  0  0
    1.6196   -1.0006    1.5982 O   0  0  0  0  0  0  0  0  0  0  0  0
   -0.4390   -0.4678    2.3286 N   0  0  0  0  0  0  0  0  0  0  0  0
   -1.4306   -0.5736    2.1423 H   0  0  0  0  0  0  0  0  0  0  0  0
   -0.0119   -0.1518    3.6856 C   0  0  0  0  0  0  0  0  0  0  0  0
    0.8072    0.5750    3.6716 H   0  0  0  0  0  0  0  0  0  0  0  0
   -0.8428    0.2785    4.2525 H   0  0  0  0  0  0  0  0  0  0  0  0
    0.3288   -1.0571    4.1988 H   0  0  0  0  0  0  0  0  0  0  0  0
  1  2  1  0  0  0  0
  2  3  1  0  0  0  0
  2  4  1  0  0  0  0
  2  5  1  0  0  0  0
  5  6  2  0  0  0  0
  5  7  1  0  0  0  0
  7  8  1  0  0  0  0
  7  9  1  0  0  0  0
  9 10  1  0  0  0  0
  9 11  1  0  0  0  0
  9 26  1  0  0  0  0
 11 12  1  0  0  0  0
 11 13  1  0  0  0  0
 11 14  1  0  0  0  0
 14 15  1  0  0  0  0
 14 16  1  0  0  0  0
 14 17  1  0  0  0  0
 17 18  1  0  0  0  0
 17 19  1  0  0  0  0
 17 20  1  0  0  0  0
 20 21  1  0  0  0  0
 20 22  1  0  0  0  0
 20 23  1  0  0  0  0
 23 24  1  0  0  0  0
 23 25  1  0  0  0  0
 26 27  2  0  0  0  0
 26 28  1  0  0  0  0
 28 29  1  0  0  0  0
 28 30  1  0  0  0  0
 30 31  1  0  0  0  0
 30 32  1  0  0  0  0
 30 33  1  0  0  0  0
M  END
$$$$

  -OEChem-03222214063D

 33 32  0     1  0  0  0  0  0999 V2000
   -3.0570   -4.8708    0.7059 H   0  0  0  0  0  0  0  0  0  0  0  0
   -3.0301   -3.8899    0.2227 C   0  0  0  0  0  0  0  0  0  0  0  0
   -3.8472   -3.2810    0.6169 H   0  0  0  0  0  0  0  0  0  0  0  0
   -3.1693   -4.0253   -0.8525 H   0  0  0  0  0  0  0  0  0  0  0  0
   -1.7000   -3.2118    0.4930 C   0  0  0  0  0  0  0  0  0  0  0  0
   -0.8821   -3.7522    1.2152 O   0  0  0  0  0  0  0  0  0  0  0  0
   -1.4348   -1.9787   -0.0714 N   0  0  0  0  0  0  0  0  0  0  0  0
   -2.1134   -1.6395   -0.7461 H   0  0  0  0  0  0  0  0  0  0  0  0
   -0.1195   -1.3101   -0.0210 C   0  0  1  0  0  0  0  0  0  0  0  0
    0.5964   -2.0098   -0.4548 H   0  0  0  0  0  0  0  0  0  0  0  0
   -0.2022    0.0069   -0.8460 C   0  0  0  0  0  0  0  0  0  0  0  0
   -1.2263    0.1544   -1.2032 H   0  0  0  0  0  0  0  0  0  0  0  0
    0.0010    0.8435   -0.1679 H   0  0  0  0  0  0  0  0  0  0  0  0
    0.7470    0.1766   -2.0589 C   0  0  0  0  0  0  0  0  0  0  0  0
    0.1549    0.0625   -2.9729 H   0  0  0  0  0  0  0  0  0  0  0  0
    1.1257    1.2042   -2.0471 H   0  0  0  0  0  0  0  0  0  0  0  0
    1.9372   -0.7900   -2.1564 C   0  0  0  0  0  0  0  0  0  0  0  0
    2.4752   -0.8127   -1.2027 H   0  0  0  0  0  0  0  0  0  0  0  0
    1.5785   -1.8003   -2.3782 H   0  0  0  0  0  0  0  0  0  0  0  0
    2.9018   -0.3602   -3.2580 C   0  0  0  0  0  0  0  0  0  0  0  0
    2.3736   -0.2792   -4.2144 H   0  0  0  0  0  0  0  0  0  0  0  0
    3.3292    0.6200   -3.0196 H   0  0  0  0  0  0  0  0  0  0  0  0
    3.9644   -1.3644   -3.3591 N   0  0  0  0  0  0  0  0  0  0  0  0
    4.6696   -1.0915   -4.0434 H   0  0  0  0  0  0  0  0  0  0  0  0
    4.3899   -1.5376   -2.4471 H   0  0  0  0  0  0  0  0  0  0  0  0
    0.4015   -1.0131    1.4044 C   0  0  0  0  0  0  0  0  0  0  0  0
    1.6062   -1.0124    1.6232 O   0  0  0  0  0  0  0  0  0  0  0  0
   -0.4528   -0.4758    2.3510 N   0  0  0  0  0  0  0  0  0  0  0  0
   -1.4448   -0.5786    2.1642 H   0  0  0  0  0  0  0  0  0  0  0  0
   -0.0246   -0.1441    3.7040 C   0  0  0  0  0  0  0  0  0  0  0  0
    0.7925    0.5846    3.6804 H   0  0  0  0  0  0  0  0  0  0  0  0
   -0.8554    0.2902    4.2679 H   0  0  0  0  0  0  0  0  0  0  0  0
    0.3196   -1.0428    4.2266 H   0  0  0  0  0  0  0  0  0  0  0  0
  1  2  1  0  0  0  0
  2  3  1  0  0  0  0
  2  4  1  0  0  0  0
  2  5  1  0  0  0  0
  5  6  2  0  0  0  0
  5  7  1  0  0  0  0
  7  8  1  0  0  0  0
  7  9  1  0  0  0  0
  9 10  1  0  0  0  0
  9 11  1  0  0  0  0
  9 26  1  0  0  0  0
 11 12  1  0  0  0  0
 11 13  1  0  0  0  0
 11 14  1  0  0  0  0
 14 15  1  0  0  0  0
 14 16  1  0  0  0  0
 14 17  1  0  0  0  0
 17 18  1  0  0  0  0
 17 19  1  0  0  0  0
 17 20  1  0  0  0  0
 20 21  1  0  0  0  0
 20 22  1  0  0  0  0
 20 23  1  0  0  0  0
 23 24  1  0  0  0  0
 23 25  1  0  0  0  0
 26 27  2  0  0  0  0
 26 28  1  0  0  0  0
 28 29  1  0  0  0  0
 28 30  1  0  0  0  0
 30 31  1  0  0  0  0
 30 32  1  0  0  0  0
 30 33  1  0  0  0  0
M  END
$$$$

  -OEChem-03222214063D

 33 32  0     1  0  0  0  0  0999 V2000
   -3.0603   -4.8689    0.6950 H   0  0  0  0  0  0  0  0  0  0  0  0
   -3.0221   -3.8948    0.1988 C   0  0  0  0  0  0  0  0  0  0  0  0
   -3.8552   -3.2850    0.5562 H   0  0  0  0  0  0  0  0  0  0  0  0
   -3.1242   -4.0462   -0.8785 H   0  0  0  0  0  0  0  0  0  0  0  0
   -1.7055   -3.2054    0.5038 C   0  0  0  0  0  0  0  0  0  0  0  0
   -0.9038   -3.7367    1.2505 O   0  0  0  0  0  0  0  0  0  0  0  0
   -1.4339   -1.9739   -0.0604 N   0  0  0  0  0  0  0  0  0  0  0  0
   -2.0968   -1.6455   -0.7557 H   0  0  0  0  0  0  0  0  0  0  0  0
   -0.1186   -1.3071    0.0039 C   0  0  1  0  0  0  0  0  0  0  0  0
    0.6021   -2.0110   -0.4141 H   0  0  0  0  0  0  0  0  0  0  0  0
   -0.1846    0.0108   -0.8224 C   0  0  0  0  0  0  0  0  0  0  0  0
   -1.2024    0.1386   -1.2042 H   0  0  0  0  0  0  0  0  0  0  0  0
   -0.0131    0.8562   -0.1465 H   0  0  0  0  0  0  0  0  0  0  0  0
    0.7783    0.1849   -2.0258 C   0  0  0  0  0  0  0  0  0  0  0  0
    0.1739    0.3676   -2.9206 H   0  0  0  0  0  0  0  0  0  0  0  0
    1.3721    1.0883   -1.8494 H   0  0  0  0  0  0  0  0  0  0  0  0
    1.7478   -0.9663   -2.3312 C   0  0  0  0  0  0  0  0  0  0  0  0
    2.3744   -1.1665   -1.4555 H   0  0  0  0  0  0  0  0  0  0  0  0
    1.1819   -1.8727   -2.5712 H   0  0  0  0  0  0  0  0  0  0  0  0
    2.6501   -0.6176   -3.5114 C   0  0  0  0  0  0  0  0  0  0  0  0
    2.0454   -0.3700   -4.3908 H   0  0  0  0  0  0  0  0  0  0  0  0
    3.2672    0.2538   -3.2656 H   0  0  0  0  0  0  0  0  0  0  0  0
    3.5010   -1.7748   -3.8011 N   0  0  0  0  0  0  0  0  0  0  0  0
    4.1524   -1.5744   -4.5598 H   0  0  0  0  0  0  0  0  0  0  0  0
    4.0005   -2.0780   -2.9639 H   0  0  0  0  0  0  0  0  0  0  0  0
    0.3883   -1.0070    1.4329 C   0  0  0  0  0  0  0  0  0  0  0  0
    1.5911   -1.0098    1.6618 O   0  0  0  0  0  0  0  0  0  0  0  0
   -0.4728   -0.4660    2.3710 N   0  0  0  0  0  0  0  0  0  0  0  0
   -1.4631   -0.5713    2.1777 H   0  0  0  0  0  0  0  0  0  0  0  0
   -0.0546   -0.1430    3.7291 C   0  0  0  0  0  0  0  0  0  0  0  0
    0.7543    0.5950    3.7157 H   0  0  0  0  0  0  0  0  0  0  0  0
   -0.8926    0.2762    4.2941 H   0  0  0  0  0  0  0  0  0  0  0  0
    0.2973   -1.0432    4.2440 H   0  0  0  0  0  0  0  0  0  0  0  0
  1  2  1  0  0  0  0
  2  3  1  0  0  0  0
  2  4  1  0  0  0  0
  2  5  1  0  0  0  0
  5  6  2  0  0  0  0
  5  7  1  0  0  0  0
  7  8  1  0  0  0  0
  7  9  1  0  0  0  0
  9 10  1  0  0  0  0
  9 11  1  0  0  0  0
  9 26  1  0  0  0  0
 11 12  1  0  0  0  0
 11 13  1  0  0  0  0
 11 14  1  0  0  0  0
 14 15  1  0  0  0  0
 14 16  1  0  0  0  0
 14 17  1  0  0  0  0
 17 18  1  0  0  0  0
 17 19  1  0  0  0  0
 17 20  1  0  0  0  0
 20 21  1  0  0  0  0
 20 22  1  0  0  0  0
 20 23  1  0  0  0  0
 23 24  1  0  0  0  0
 23 25  1  0  0  0  0
 26 27  2  0  0  0  0
 26 28  1  0  0  0  0
 28 29  1  0  0  0  0
 28 30  1  0  0  0  0
 30 31  1  0  0  0  0
 30 32  1  0  0  0  0
 30 33  1  0  0  0  0
M  END
$$$$

  -OEChem-03222214063D

 33 32  0     1  0  0  0  0  0999 V2000
   -3.0522   -4.8681    0.6803 H   0  0  0  0  0  0  0  0  0  0  0  0
   -3.0083   -3.8972    0.1785 C   0  0  0  0  0  0  0  0  0  0  0  0
   -3.8498   -3.2883    0.5170 H   0  0  0  0  0  0  0  0  0  0  0  0
   -3.0905   -4.0556   -0.8995 H   0  0  0  0  0  0  0  0  0  0  0  0
   -1.6994   -3.2015    0.5023 C   0  0  0  0  0  0  0  0  0  0  0  0
   -0.9068   -3.7288    1.2615 O   0  0  0  0  0  0  0  0  0  0  0  0
   -1.4223   -1.9707   -0.0608 N   0  0  0  0  0  0  0  0  0  0  0  0
   -2.0742   -1.6476   -0.7691 H   0  0  0  0  0  0  0  0  0  0  0  0
   -0.1073   -1.3041    0.0164 C   0  0  1  0  0  0  0  0  0  0  0  0
    0.6214   -2.0045   -0.3930 H   0  0  0  0  0  0  0  0  0  0  0  0
   -0.1606    0.0163   -0.8052 C   0  0  0  0  0  0  0  0  0  0  0  0
   -1.1713    0.1274   -1.2107 H   0  0  0  0  0  0  0  0  0  0  0  0
   -0.0133    0.8686   -0.1327 H   0  0  0  0  0  0  0  0  0  0  0  0
    0.8168    0.1842   -1.9957 C   0  0  0  0  0  0  0  0  0  0  0  0
    0.2675    0.6482   -2.8217 H   0  0  0  0  0  0  0  0  0  0  0  0
    1.5958    0.8911   -1.6903 H   0  0  0  0  0  0  0  0  0  0  0  0
    1.5216   -1.0792   -2.5129 C   0  0  0  0  0  0  0  0  0  0  0  0
    2.2016   -1.4679   -1.7479 H   0  0  0  0  0  0  0  0  0  0  0  0
    0.7772   -1.8486   -2.7434 H   0  0  0  0  0  0  0  0  0  0  0  0
    2.3298   -0.7731   -3.7705 C   0  0  0  0  0  0  0  0  0  0  0  0
    1.6801   -0.3513   -4.5453 H   0  0  0  0  0  0  0  0  0  0  0  0
    3.1109   -0.0391   -3.5435 H   0  0  0  0  0  0  0  0  0  0  0  0
    2.9308   -2.0204   -4.2508 N   0  0  0  0  0  0  0  0  0  0  0  0
    3.5070   -1.8592   -5.0767 H   0  0  0  0  0  0  0  0  0  0  0  0
    3.4729   -2.4715   -3.5129 H   0  0  0  0  0  0  0  0  0  0  0  0
    0.3842   -1.0029    1.4509 C   0  0  0  0  0  0  0  0  0  0  0  0
    1.5847   -1.0020    1.6916 O   0  0  0  0  0  0  0  0  0  0  0  0
   -0.4870   -0.4608    2.3790 N   0  0  0  0  0  0  0  0  0  0  0  0
   -1.4752   -0.5663    2.1747 H   0  0  0  0  0  0  0  0  0  0  0  0
   -0.0848   -0.1329    3.7408 C   0  0  0  0  0  0  0  0  0  0  0  0
    0.7209    0.6087    3.7349 H   0  0  0  0  0  0  0  0  0  0  0  0
   -0.9311    0.2838    4.2950 H   0  0  0  0  0  0  0  0  0  0  0  0
    0.2656   -1.0301    4.2620 H   0  0  0  0  0  0  0  0  0  0  0  0
  1  2  1  0  0  0  0
  2  3  1  0  0  0  0
  2  4  1  0  0  0  0
  2  5  1  0  0  0  0
  5  6  2  0  0  0  0
  5  7  1  0  0  0  0
  7  8  1  0  0  0  0
  7  9  1  0  0  0  0
  9 10  1  0  0  0  0
  9 11  1  0  0  0  0
  9 26  1  0  0  0  0
 11 12  1  0  0  0  0
 11 13  1  0  0  0  0
 11 14  1  0  0  0  0
 14 15  1  0  0  0  0
 14 16  1  0  0  0  0
 14 17  1  0  0  0  0
 17 18  1  0  0  0  0
 17 19  1  0  0  0  0
 17 20  1  0  0  0  0
 20 21  1  0  0  0  0
 20 22  1  0  0  0  0
 20 23  1  0  0  0  0
 23 24  1  0  0  0  0
 23 25  1  0  0  0  0
 26 27  2  0  0  0  0
 26 28  1  0  0  0  0
 28 29  1  0  0  0  0
 28 30  1  0  0  0  0
 30 31  1  0  0  0  0
 30 32  1  0  0  0  0
 30 33  1  0  0  0  0
M  END
$$$$

  -OEChem-03222214063D

 33 32  0     1  0  0  0  0  0999 V2000
   -3.0307   -4.8679    0.6512 H   0  0  0  0  0  0  0  0  0  0  0  0
   -2.9883   -3.8927    0.1576 C   0  0  0  0  0  0  0  0  0  0  0  0
   -3.8297   -3.2871    0.5023 H   0  0  0  0  0  0  0  0  0  0  0  0
   -3.0723   -4.0427   -0.9214 H   0  0  0  0  0  0  0  0  0  0  0  0
   -1.6799   -3.1981    0.4853 C   0  0  0  0  0  0  0  0  0  0  0  0
   -0.8851   -3.7299    1.2392 O   0  0  0  0  0  0  0  0  0  0  0  0
   -1.4052   -1.9642   -0.0721 N   0  0  0  0  0  0  0  0  0  0  0  0
   -2.0559   -1.6409   -0.7814 H   0  0  0  0  0  0  0  0  0  0  0  0
   -0.0937   -1.2922    0.0117 C   0  0  1  0  0  0  0  0  0  0  0  0
    0.6459   -1.9815   -0.3971 H   0  0  0  0  0  0  0  0  0  0  0  0
   -0.1459    0.0301   -0.8033 C   0  0  0  0  0  0  0  0  0  0  0  0
   -1.1517    0.1375   -1.2212 H   0  0  0  0  0  0  0  0  0  0  0  0
   -0.0020    0.8847   -0.1331 H   0  0  0  0  0  0  0  0  0  0  0  0
    0.8444    0.1790   -1.9815 C   0  0  0  0  0  0  0  0  0  0  0  0
    0.4040    0.8702   -2.7078 H   0  0  0  0  0  0  0  0  0  0  0  0
    1.7585    0.6468   -1.6003 H   0  0  0  0  0  0  0  0  0  0  0  0
    1.2532   -1.1202   -2.6954 C   0  0  0  0  0  0  0  0  0  0  0  0
    1.9183   -1.7109   -2.0584 H   0  0  0  0  0  0  0  0  0  0  0  0
    0.3607   -1.7157   -2.9134 H   0  0  0  0  0  0  0  0  0  0  0  0
    1.9835   -0.8161   -3.9999 C   0  0  0  0  0  0  0  0  0  0  0  0
    1.3501   -0.2087   -4.6559 H   0  0  0  0  0  0  0  0  0  0  0  0
    2.9003   -0.2525   -3.7933 H   0  0  0  0  0  0  0  0  0  0  0  0
    2.3047   -2.0864   -4.6569 N   0  0  0  0  0  0  0  0  0  0  0  0
    2.8155   -1.9337   -5.5265 H   0  0  0  0  0  0  0  0  0  0  0  0
    2.8296   -2.6980   -4.0308 H   0  0  0  0  0  0  0  0  0  0  0  0
    0.3878   -0.9956    1.4504 C   0  0  0  0  0  0  0  0  0  0  0  0
    1.5869   -0.9882    1.6973 O   0  0  0  0  0  0  0  0  0  0  0  0
   -0.4915   -0.4618    2.3758 N   0  0  0  0  0  0  0  0  0  0  0  0
   -1.4781   -0.5729    2.1663 H   0  0  0  0  0  0  0  0  0  0  0  0
   -0.0966   -0.1288    3.7387 C   0  0  0  0  0  0  0  0  0  0  0  0
    0.7060    0.6162    3.7344 H   0  0  0  0  0  0  0  0  0  0  0  0
   -0.9468    0.2860    4.2884 H   0  0  0  0  0  0  0  0  0  0  0  0
    0.2552   -1.0230    4.2640 H   0  0  0  0  0  0  0  0  0  0  0  0
  1  2  1  0  0  0  0
  2  3  1  0  0  0  0
  2  4  1  0  0  0  0
  2  5  1  0  0  0  0
  5  6  2  0  0  0  0
  5  7  1  0  0  0  0
  7  8  1  0  0  0  0
  7  9  1  0  0  0  0
  9 10  1  0  0  0  0
  9 11  1  0  0  0  0
  9 26  1  0  0  0  0
 11 12  1  0  0  0  0
 11 13  1  0  0  0  0
 11 14  1  0  0  0  0
 14 15  1  0  0  0  0
 14 16  1  0  0  0  0
 14 17  1  0  0  0  0
 17 18  1  0  0  0  0
 17 19  1  0  0  0  0
 17 20  1  0  0  0  0
 20 21  1  0  0  0  0
 20 22  1  0  0  0  0
 20 23  1  0  0  0  0
 23 24  1  0  0  0  0
 23 25  1  0  0  0  0
 26 27  2  0  0  0  0
 26 28  1  0  0  0  0
 28 29  1  0  0  0  0
 28 30  1  0  0  0  0
 30 31  1  0  0  0  0
 30 32  1  0  0  0  0
 30 33  1  0  0  0  0
M  END
$$$$

  -OEChem-03222214063D

 33 32  0     1  0  0  0  0  0999 V2000
   -3.0044   -4.8687    0.6397 H   0  0  0  0  0  0  0  0  0  0  0  0
   -2.9749   -3.8882    0.1557 C   0  0  0  0  0  0  0  0  0  0  0  0
   -3.8121   -3.2897    0.5224 H   0  0  0  0  0  0  0  0  0  0  0  0
   -3.0784   -4.0268   -0.9231 H   0  0  0  0  0  0  0  0  0  0  0  0
   -1.6628   -3.1927    0.4662 C   0  0  0  0  0  0  0  0  0  0  0  0
   -0.8543   -3.7272    1.2035 O   0  0  0  0  0  0  0  0  0  0  0  0
   -1.3997   -1.9546   -0.0871 N   0  0  0  0  0  0  0  0  0  0  0  0
   -2.0629   -1.6257   -0.7823 H   0  0  0  0  0  0  0  0  0  0  0  0
   -0.0918   -1.2751   -0.0121 C   0  0  1  0  0  0  0  0  0  0  0  0
    0.6560   -1.9482   -0.4354 H   0  0  0  0  0  0  0  0  0  0  0  0
   -0.1618    0.0489   -0.8176 C   0  0  0  0  0  0  0  0  0  0  0  0
   -1.1704    0.1646   -1.2263 H   0  0  0  0  0  0  0  0  0  0  0  0
   -0.0001    0.9011   -0.1480 H   0  0  0  0  0  0  0  0  0  0  0  0
    0.8274    0.1729   -1.9936 C   0  0  0  0  0  0  0  0  0  0  0  0
    0.5265    1.0345   -2.5988 H   0  0  0  0  0  0  0  0  0  0  0  0
    1.8233    0.3858   -1.5901 H   0  0  0  0  0  0  0  0  0  0  0  0
    0.9276   -1.0730   -2.8913 C   0  0  0  0  0  0  0  0  0  0  0  0
    1.4515   -1.8819   -2.3752 H   0  0  0  0  0  0  0  0  0  0  0  0
   -0.0783   -1.4223   -3.1456 H   0  0  0  0  0  0  0  0  0  0  0  0
    1.6862   -0.7518   -4.1751 C   0  0  0  0  0  0  0  0  0  0  0  0
    1.1855    0.0577   -4.7177 H   0  0  0  0  0  0  0  0  0  0  0  0
    2.7044   -0.4242   -3.9368 H   0  0  0  0  0  0  0  0  0  0  0  0
    1.7230   -1.9592   -5.0054 N   0  0  0  0  0  0  0  0  0  0  0  0
    2.2225   -1.7909   -5.8788 H   0  0  0  0  0  0  0  0  0  0  0  0
    2.1385   -2.7394   -4.4954 H   0  0  0  0  0  0  0  0  0  0  0  0
    0.3990   -0.9836    1.4243 C   0  0  0  0  0  0  0  0  0  0  0  0
    1.5998   -0.9729    1.6631 O   0  0  0  0  0  0  0  0  0  0  0  0
   -0.4765   -0.4605    2.3589 N   0  0  0  0  0  0  0  0  0  0  0  0
   -1.4639   -0.5738    2.1545 H   0  0  0  0  0  0  0  0  0  0  0  0
   -0.0748   -0.1413    3.7228 C   0  0  0  0  0  0  0  0  0  0  0  0
    0.7213    0.6108    3.7228 H   0  0  0  0  0  0  0  0  0  0  0  0
   -0.9247    0.2584    4.2837 H   0  0  0  0  0  0  0  0  0  0  0  0
    0.2883   -1.0394    4.2334 H   0  0  0  0  0  0  0  0  0  0  0  0
  1  2  1  0  0  0  0
  2  3  1  0  0  0  0
  2  4  1  0  0  0  0
  2  5  1  0  0  0  0
  5  6  2  0  0  0  0
  5  7  1  0  0  0  0
  7  8  1  0  0  0  0
  7  9  1  0  0  0  0
  9 10  1  0  0  0  0
  9 11  1  0  0  0  0
  9 26  1  0  0  0  0
 11 12  1  0  0  0  0
 11 13  1  0  0  0  0
 11 14  1  0  0  0  0
 14 15  1  0  0  0  0
 14 16  1  0  0  0  0
 14 17  1  0  0  0  0
 17 18  1  0  0  0  0
 17 19  1  0  0  0  0
 17 20  1  0  0  0  0
 20 21  1  0  0  0  0
 20 22  1  0  0  0  0
 20 23  1  0  0  0  0
 23 24  1  0  0  0  0
 23 25  1  0  0  0  0
 26 27  2  0  0  0  0
 26 28  1  0  0  0  0
 28 29  1  0  0  0  0
 28 30  1  0  0  0  0
 30 31  1  0  0  0  0
 30 32  1  0  0  0  0
 30 33  1  0  0  0  0
M  END
$$$$

  -OEChem-03222214063D

 33 32  0     1  0  0  0  0  0999 V2000
   -2.9376   -4.8974    0.5820 H   0  0  0  0  0  0  0  0  0  0  0  0
   -2.9443   -3.9015    0.1298 C   0  0  0  0  0  0  0  0  0  0  0  0
   -3.7790   -3.3322    0.5455 H   0  0  0  0  0  0  0  0  0  0  0  0
   -3.0840   -4.0075   -0.9486 H   0  0  0  0  0  0  0  0  0  0  0  0
   -1.6350   -3.1906    0.4165 C   0  0  0  0  0  0  0  0  0  0  0  0
   -0.7945   -3.7296    1.1135 O   0  0  0  0  0  0  0  0  0  0  0  0
   -1.4086   -1.9353   -0.1137 N   0  0  0  0  0  0  0  0  0  0  0  0
   -2.0986   -1.5980   -0.7782 H   0  0  0  0  0  0  0  0  0  0  0  0
   -0.1114   -1.2344   -0.0553 C   0  0  1  0  0  0  0  0  0  0  0  0
    0.6406   -1.8786   -0.5198 H   0  0  0  0  0  0  0  0  0  0  0  0
   -0.2248    0.1009   -0.8322 C   0  0  0  0  0  0  0  0  0  0  0  0
   -1.2434    0.2285   -1.2121 H   0  0  0  0  0  0  0  0  0  0  0  0
   -0.0368    0.9405   -0.1540 H   0  0  0  0  0  0  0  0  0  0  0  0
    0.7510    0.2159   -2.0147 C   0  0  0  0  0  0  0  0  0  0  0  0
    0.6153    1.1971   -2.4817 H   0  0  0  0  0  0  0  0  0  0  0  0
    1.7779    0.1686   -1.6355 H   0  0  0  0  0  0  0  0  0  0  0  0
    0.5512   -0.8804   -3.0748 C   0  0  0  0  0  0  0  0  0  0  0  0
    0.7714   -1.8679   -2.6607 H   0  0  0  0  0  0  0  0  0  0  0  0
   -0.4917   -0.8796   -3.4081 H   0  0  0  0  0  0  0  0  0  0  0  0
    1.4617   -0.6380   -4.2745 C   0  0  0  0  0  0  0  0  0  0  0  0
    1.2462    0.3395   -4.7199 H   0  0  0  0  0  0  0  0  0  0  0  0
    2.5105   -0.6437   -3.9570 H   0  0  0  0  0  0  0  0  0  0  0  0
    1.2247   -1.6984   -5.2585 N   0  0  0  0  0  0  0  0  0  0  0  0
    1.8043   -1.5667   -6.0876 H   0  0  0  0  0  0  0  0  0  0  0  0
    1.3854   -2.6184   -4.8480 H   0  0  0  0  0  0  0  0  0  0  0  0
    0.4127   -0.9671    1.3740 C   0  0  0  0  0  0  0  0  0  0  0  0
    1.6193   -0.9420    1.5802 O   0  0  0  0  0  0  0  0  0  0  0  0
   -0.4454   -0.4813    2.3443 N   0  0  0  0  0  0  0  0  0  0  0  0
   -1.4365   -0.6024    2.1639 H   0  0  0  0  0  0  0  0  0  0  0  0
   -0.0101   -0.1706    3.6998 C   0  0  0  0  0  0  0  0  0  0  0  0
    0.7768    0.5908    3.6844 H   0  0  0  0  0  0  0  0  0  0  0  0
   -0.8485    0.2138    4.2881 H   0  0  0  0  0  0  0  0  0  0  0  0
    0.3782   -1.0686    4.1915 H   0  0  0  0  0  0  0  0  0  0  0  0
  1  2  1  0  0  0  0
  2  3  1  0  0  0  0
  2  4  1  0  0  0  0
  2  5  1  0  0  0  0
  5  6  2  0  0  0  0
  5  7  1  0  0  0  0
  7  8  1  0  0  0  0
  7  9  1  0  0  0  0
  9 10  1  0  0  0  0
  9 11  1  0  0  0  0
  9 26  1  0  0  0  0
 11 12  1  0  0  0  0
 11 13  1  0  0  0  0
 11 14  1  0  0  0  0
 14 15  1  0  0  0  0
 14 16  1  0  0  0  0
 14 17  1  0  0  0  0
 17 18  1  0  0  0  0
 17 19  1  0  0  0  0
 17 20  1  0  0  0  0
 20 21  1  0  0  0  0
 20 22  1  0  0  0  0
 20 23  1  0  0  0  0
 23 24  1  0  0  0  0
 23 25  1  0  0  0  0
 26 27  2  0  0  0  0
 26 28  1  0  0  0  0
 28 29  1  0  0  0  0
 28 30  1  0  0  0  0
 30 31  1  0  0  0  0
 30 32  1  0  0  0  0
 30 33  1  0  0  0  0
M  END
$$$$

  -OEChem-03222214063D

 33 32  0     1  0  0  0  0  0999 V2000
   -2.8918   -4.8977    0.5273 H   0  0  0  0  0  0  0  0  0  0  0  0
   -2.9137   -3.8964    0.0879 C   0  0  0  0  0  0  0  0  0  0  0  0
   -3.7432   -3.3379    0.5279 H   0  0  0  0  0  0  0  0  0  0  0  0
   -3.0751   -3.9898   -0.9888 H   0  0  0  0  0  0  0  0  0  0  0  0
   -1.6038   -3.1796    0.3572 C   0  0  0  0  0  0  0  0  0  0  0  0
   -0.7387   -3.7282    1.0156 O   0  0  0  0  0  0  0  0  0  0  0  0
   -1.4042   -1.9079   -0.1437 N   0  0  0  0  0  0  0  0  0  0  0  0
   -2.1169   -1.5552   -0.7754 H   0  0  0  0  0  0  0  0  0  0  0  0
   -0.1189   -1.1859   -0.0835 C   0  0  1  0  0  0  0  0  0  0  0  0
    0.6316   -1.8082   -0.5833 H   0  0  0  0  0  0  0  0  0  0  0  0
   -0.2647    0.1560   -0.8397 C   0  0  0  0  0  0  0  0  0  0  0  0
   -1.2878    0.2918   -1.2050 H   0  0  0  0  0  0  0  0  0  0  0  0
   -0.0641    0.9851   -0.1521 H   0  0  0  0  0  0  0  0  0  0  0  0
    0.7153    0.2648   -2.0161 C   0  0  0  0  0  0  0  0  0  0  0  0
    0.7582    1.3096   -2.3411 H   0  0  0  0  0  0  0  0  0  0  0  0
    1.7219   -0.0209   -1.6901 H   0  0  0  0  0  0  0  0  0  0  0  0
    0.2701   -0.6041   -3.2006 C   0  0  0  0  0  0  0  0  0  0  0  0
    0.2220   -1.6544   -2.8972 H   0  0  0  0  0  0  0  0  0  0  0  0
   -0.7306   -0.3001   -3.5245 H   0  0  0  0  0  0  0  0  0  0  0  0
    1.2396   -0.4631   -4.3698 C   0  0  0  0  0  0  0  0  0  0  0  0
    1.2800    0.5809   -4.7000 H   0  0  0  0  0  0  0  0  0  0  0  0
    2.2479   -0.7615   -4.0616 H   0  0  0  0  0  0  0  0  0  0  0  0
    0.7721   -1.3172   -5.4658 N   0  0  0  0  0  0  0  0  0  0  0  0
    1.3760   -1.2295   -6.2836 H   0  0  0  0  0  0  0  0  0  0  0  0
    0.7073   -2.2904   -5.1671 H   0  0  0  0  0  0  0  0  0  0  0  0
    0.4220   -0.9426    1.3437 C   0  0  0  0  0  0  0  0  0  0  0  0
    1.6308   -0.9053    1.5340 O   0  0  0  0  0  0  0  0  0  0  0  0
   -0.4306   -0.4946    2.3367 N   0  0  0  0  0  0  0  0  0  0  0  0
   -1.4223   -0.6222    2.1642 H   0  0  0  0  0  0  0  0  0  0  0  0
    0.0152   -0.2158    3.6958 C   0  0  0  0  0  0  0  0  0  0  0  0
    0.7922    0.5559    3.6943 H   0  0  0  0  0  0  0  0  0  0  0  0
   -0.8223    0.1412    4.3024 H   0  0  0  0  0  0  0  0  0  0  0  0
    0.4195   -1.1223    4.1584 H   0  0  0  0  0  0  0  0  0  0  0  0
  1  2  1  0  0  0  0
  2  3  1  0  0  0  0
  2  4  1  0  0  0  0
  2  5  1  0  0  0  0
  5  6  2  0  0  0  0
  5  7  1  0  0  0  0
  7  8  1  0  0  0  0
  7  9  1  0  0  0  0
  9 10  1  0  0  0  0
  9 11  1  0  0  0  0
  9 26  1  0  0  0  0
 11 12  1  0  0  0  0
 11 13  1  0  0  0  0
 11 14  1  0  0  0  0
 14 15  1  0  0  0  0
 14 16  1  0  0  0  0
 14 17  1  0  0  0  0
 17 18  1  0  0  0  0
 17 19  1  0  0  0  0
 17 20  1  0  0  0  0
 20 21  1  0  0  0  0
 20 22  1  0  0  0  0
 20 23  1  0  0  0  0
 23 24  1  0  0  0  0
 23 25  1  0  0  0  0
 26 27  2  0  0  0  0
 26 28  1  0  0  0  0
 28 29  1  0  0  0  0
 28 30  1  0  0  0  0
 30 31  1  0  0  0  0
 30 32  1  0  0  0  0
 30 33  1  0  0  0  0
M  END
$$$$

  -OEChem-03222214063D

 33 32  0     1  0  0  0  0  0999 V2000
   -2.8969   -4.8956    0.5263 H   0  0  0  0  0  0  0  0  0  0  0  0
   -2.9200   -3.8927    0.0901 C   0  0  0  0  0  0  0  0  0  0  0  0
   -3.7449   -3.3333    0.5378 H   0  0  0  0  0  0  0  0  0  0  0  0
   -3.0893   -3.9825   -0.9857 H   0  0  0  0  0  0  0  0  0  0  0  0
   -1.6064   -3.1799    0.3520 C   0  0  0  0  0  0  0  0  0  0  0  0
   -0.7370   -3.7331    1.0008 O   0  0  0  0  0  0  0  0  0  0  0  0
   -1.4086   -1.9063   -0.1446 N   0  0  0  0  0  0  0  0  0  0  0  0
   -2.1286   -1.5453   -0.7632 H   0  0  0  0  0  0  0  0  0  0  0  0
   -0.1246   -1.1826   -0.0835 C   0  0  1  0  0  0  0  0  0  0  0  0
    0.6208   -1.8066   -0.5886 H   0  0  0  0  0  0  0  0  0  0  0  0
   -0.2768    0.1574   -0.8414 C   0  0  0  0  0  0  0  0  0  0  0  0
   -1.3031    0.2996   -1.1947 H   0  0  0  0  0  0  0  0  0  0  0  0
   -0.0697    0.9833   -0.1519 H   0  0  0  0  0  0  0  0  0  0  0  0
    0.7045    0.2672   -2.0187 C   0  0  0  0  0  0  0  0  0  0  0  0
    0.9335    1.3257   -2.1817 H   0  0  0  0  0  0  0  0  0  0  0  0
    1.6492   -0.2355   -1.7844 H   0  0  0  0  0  0  0  0  0  0  0  0
    0.0888   -0.2966   -3.3048 C   0  0  0  0  0  0  0  0  0  0  0  0
   -0.1693   -1.3499   -3.1554 H   0  0  0  0  0  0  0  0  0  0  0  0
   -0.8305    0.2473   -3.5463 H   0  0  0  0  0  0  0  0  0  0  0  0
    1.0651   -0.1738   -4.4705 C   0  0  0  0  0  0  0  0  0  0  0  0
    1.3125    0.8798   -4.6423 H   0  0  0  0  0  0  0  0  0  0  0  0
    1.9942   -0.7082   -4.2423 H   0  0  0  0  0  0  0  0  0  0  0  0
    0.4360   -0.7424   -5.6667 N   0  0  0  0  0  0  0  0  0  0  0  0
    1.0399   -0.6416   -6.4829 H   0  0  0  0  0  0  0  0  0  0  0  0
    0.1878   -1.7206   -5.5192 H   0  0  0  0  0  0  0  0  0  0  0  0
    0.4210   -0.9410    1.3420 C   0  0  0  0  0  0  0  0  0  0  0  0
    1.6304   -0.9029    1.5277 O   0  0  0  0  0  0  0  0  0  0  0  0
   -0.4284   -0.4963    2.3393 N   0  0  0  0  0  0  0  0  0  0  0  0
   -1.4207   -0.6229    2.1702 H   0  0  0  0  0  0  0  0  0  0  0  0
    0.0229   -0.2194    3.6969 C   0  0  0  0  0  0  0  0  0  0  0  0
    0.7999    0.5524    3.6931 H   0  0  0  0  0  0  0  0  0  0  0  0
   -0.8119    0.1367    4.3078 H   0  0  0  0  0  0  0  0  0  0  0  0
    0.4291   -1.1265    4.1567 H   0  0  0  0  0  0  0  0  0  0  0  0
  1  2  1  0  0  0  0
  2  3  1  0  0  0  0
  2  4  1  0  0  0  0
  2  5  1  0  0  0  0
  5  6  2  0  0  0  0
  5  7  1  0  0  0  0
  7  8  1  0  0  0  0
  7  9  1  0  0  0  0
  9 10  1  0  0  0  0
  9 11  1  0  0  0  0
  9 26  1  0  0  0  0
 11 12  1  0  0  0  0
 11 13  1  0  0  0  0
 11 14  1  0  0  0  0
 14 15  1  0  0  0  0
 14 16  1  0  0  0  0
 14 17  1  0  0  0  0
 17 18  1  0  0  0  0
 17 19  1  0  0  0  0
 17 20  1  0  0  0  0
 20 21  1  0  0  0  0
 20 22  1  0  0  0  0
 20 23  1  0  0  0  0
 23 24  1  0  0  0  0
 23 25  1  0  0  0  0
 26 27  2  0  0  0  0
 26 28  1  0  0  0  0
 28 29  1  0  0  0  0
 28 30  1  0  0  0  0
 30 31  1  0  0  0  0
 30 32  1  0  0  0  0
 30 33  1  0  0  0  0
M  END
$$$$

  -OEChem-03222214063D

 33 32  0     1  0  0  0  0  0999 V2000
   -2.9112   -4.8971    0.5637 H   0  0  0  0  0  0  0  0  0  0  0  0
   -2.9325   -3.8957    0.1240 C   0  0  0  0  0  0  0  0  0  0  0  0
   -3.7504   -3.3299    0.5765 H   0  0  0  0  0  0  0  0  0  0  0  0
   -3.1116   -3.9882   -0.9498 H   0  0  0  0  0  0  0  0  0  0  0  0
   -1.6129   -3.1891    0.3715 C   0  0  0  0  0  0  0  0  0  0  0  0
   -0.7420   -3.7417    1.0188 O   0  0  0  0  0  0  0  0  0  0  0  0
   -1.4122   -1.9196   -0.1346 N   0  0  0  0  0  0  0  0  0  0  0  0
   -2.1385   -1.5539   -0.7431 H   0  0  0  0  0  0  0  0  0  0  0  0
   -0.1278   -1.1965   -0.0779 C   0  0  1  0  0  0  0  0  0  0  0  0
    0.6155   -1.8300   -0.5731 H   0  0  0  0  0  0  0  0  0  0  0  0
   -0.2774    0.1388   -0.8472 C   0  0  0  0  0  0  0  0  0  0  0  0
   -1.3067    0.2757   -1.1945 H   0  0  0  0  0  0  0  0  0  0  0  0
   -0.0737    0.9688   -0.1613 H   0  0  0  0  0  0  0  0  0  0  0  0
    0.7011    0.2559   -2.0310 C   0  0  0  0  0  0  0  0  0  0  0  0
    1.1285    1.2644   -2.0259 H   0  0  0  0  0  0  0  0  0  0  0  0
    1.5368   -0.4441   -1.9293 H   0  0  0  0  0  0  0  0  0  0  0  0
   -0.0178    0.0444   -3.3685 C   0  0  0  0  0  0  0  0  0  0  0  0
   -0.4673   -0.9537   -3.3868 H   0  0  0  0  0  0  0  0  0  0  0  0
   -0.8205    0.7808   -3.4806 H   0  0  0  0  0  0  0  0  0  0  0  0
    0.9566    0.1842   -4.5341 C   0  0  0  0  0  0  0  0  0  0  0  0
    1.3973    1.1875   -4.5351 H   0  0  0  0  0  0  0  0  0  0  0  0
    1.7696   -0.5440   -4.4354 H   0  0  0  0  0  0  0  0  0  0  0  0
    0.2252   -0.0414   -5.7847 N   0  0  0  0  0  0  0  0  0  0  0  0
    0.8316    0.0920   -6.5944 H   0  0  0  0  0  0  0  0  0  0  0  0
   -0.1987   -0.9688   -5.7988 H   0  0  0  0  0  0  0  0  0  0  0  0
    0.4162   -0.9442    1.3463 C   0  0  0  0  0  0  0  0  0  0  0  0
    1.6255   -0.9084    1.5331 O   0  0  0  0  0  0  0  0  0  0  0  0
   -0.4326   -0.4912    2.3402 N   0  0  0  0  0  0  0  0  0  0  0  0
   -1.4252   -0.6172    2.1719 H   0  0  0  0  0  0  0  0  0  0  0  0
    0.0200   -0.2114    3.6968 C   0  0  0  0  0  0  0  0  0  0  0  0
    0.8028    0.5544    3.6904 H   0  0  0  0  0  0  0  0  0  0  0  0
   -0.8124    0.1536    4.3057 H   0  0  0  0  0  0  0  0  0  0  0  0
    0.4196   -1.1194    4.1606 H   0  0  0  0  0  0  0  0  0  0  0  0
  1  2  1  0  0  0  0
  2  3  1  0  0  0  0
  2  4  1  0  0  0  0
  2  5  1  0  0  0  0
  5  6  2  0  0  0  0
  5  7  1  0  0  0  0
  7  8  1  0  0  0  0
  7  9  1  0  0  0  0
  9 10  1  0  0  0  0
  9 11  1  0  0  0  0
  9 26  1  0  0  0  0
 11 12  1  0  0  0  0
 11 13  1  0  0  0  0
 11 14  1  0  0  0  0
 14 15  1  0  0  0  0
 14 16  1  0  0  0  0
 14 17  1  0  0  0  0
 17 18  1  0  0  0  0
 17 19  1  0  0  0  0
 17 20  1  0  0  0  0
 20 21  1  0  0  0  0
 20 22  1  0  0  0  0
 20 23  1  0  0  0  0
 23 24  1  0  0  0  0
 23 25  1  0  0  0  0
 26 27  2  0  0  0  0
 26 28  1  0  0  0  0
 28 29  1  0  0  0  0
 28 30  1  0  0  0  0
 30 31  1  0  0  0  0
 30 32  1  0  0  0  0
 30 33  1  0  0  0  0
M  END
$$$$

  -OEChem-03222214063D

 33 32  0     1  0  0  0  0  0999 V2000
   -2.9210   -4.9001    0.5985 H   0  0  0  0  0  0  0  0  0  0  0  0
   -2.9392   -3.9020    0.1514 C   0  0  0  0  0  0  0  0  0  0  0  0
   -3.7544   -3.3300    0.6009 H   0  0  0  0  0  0  0  0  0  0  0  0
   -3.1201   -4.0017   -0.9215 H   0  0  0  0  0  0  0  0  0  0  0  0
   -1.6166   -3.1983    0.3912 C   0  0  0  0  0  0  0  0  0  0  0  0
   -0.7458   -3.7492    1.0399 O   0  0  0  0  0  0  0  0  0  0  0  0
   -1.4121   -1.9340   -0.1262 N   0  0  0  0  0  0  0  0  0  0  0  0
   -2.1401   -1.5687   -0.7330 H   0  0  0  0  0  0  0  0  0  0  0  0
   -0.1260   -1.2129   -0.0753 C   0  0  1  0  0  0  0  0  0  0  0  0
    0.6180   -1.8529   -0.5601 H   0  0  0  0  0  0  0  0  0  0  0  0
   -0.2723    0.1199   -0.8522 C   0  0  0  0  0  0  0  0  0  0  0  0
   -1.3028    0.2367   -1.2034 H   0  0  0  0  0  0  0  0  0  0  0  0
   -0.0861    0.9607   -0.1746 H   0  0  0  0  0  0  0  0  0  0  0  0
    0.7018    0.2413   -2.0430 C   0  0  0  0  0  0  0  0  0  0  0  0
    1.3402    1.1172   -1.8841 H   0  0  0  0  0  0  0  0  0  0  0  0
    1.3633   -0.6279   -2.1105 H   0  0  0  0  0  0  0  0  0  0  0  0
   -0.0553    0.4044   -3.3667 C   0  0  0  0  0  0  0  0  0  0  0  0
   -0.6857   -0.4740   -3.5388 H   0  0  0  0  0  0  0  0  0  0  0  0
   -0.7051    1.2844   -3.3151 H   0  0  0  0  0  0  0  0  0  0  0  0
    0.9168    0.5682   -4.5314 C   0  0  0  0  0  0  0  0  0  0  0  0
    1.5377    1.4580   -4.3783 H   0  0  0  0  0  0  0  0  0  0  0  0
    1.5797   -0.3018   -4.5953 H   0  0  0  0  0  0  0  0  0  0  0  0
    0.1434    0.7051   -5.7693 N   0  0  0  0  0  0  0  0  0  0  0  0
    0.7549    0.8708   -6.5691 H   0  0  0  0  0  0  0  0  0  0  0  0
   -0.4451   -0.1128   -5.9259 H   0  0  0  0  0  0  0  0  0  0  0  0
    0.4153   -0.9496    1.3480 C   0  0  0  0  0  0  0  0  0  0  0  0
    1.6240   -0.9141    1.5379 O   0  0  0  0  0  0  0  0  0  0  0  0
   -0.4350   -0.4865    2.3360 N   0  0  0  0  0  0  0  0  0  0  0  0
   -1.4275   -0.6109    2.1665 H   0  0  0  0  0  0  0  0  0  0  0  0
    0.0152   -0.1949    3.6910 C   0  0  0  0  0  0  0  0  0  0  0  0
    0.7962    0.5729    3.6789 H   0  0  0  0  0  0  0  0  0  0  0  0
   -0.8189    0.1731    4.2959 H   0  0  0  0  0  0  0  0  0  0  0  0
    0.4162   -1.0984    4.1628 H   0  0  0  0  0  0  0  0  0  0  0  0
  1  2  1  0  0  0  0
  2  3  1  0  0  0  0
  2  4  1  0  0  0  0
  2  5  1  0  0  0  0
  5  6  2  0  0  0  0
  5  7  1  0  0  0  0
  7  8  1  0  0  0  0
  7  9  1  0  0  0  0
  9 10  1  0  0  0  0
  9 11  1  0  0  0  0
  9 26  1  0  0  0  0
 11 12  1  0  0  0  0
 11 13  1  0  0  0  0
 11 14  1  0  0  0  0
 14 15  1  0  0  0  0
 14 16  1  0  0  0  0
 14 17  1  0  0  0  0
 17 18  1  0  0  0  0
 17 19  1  0  0  0  0
 17 20  1  0  0  0  0
 20 21  1  0  0  0  0
 20 22  1  0  0  0  0
 20 23  1  0  0  0  0
 23 24  1  0  0  0  0
 23 25  1  0  0  0  0
 26 27  2  0  0  0  0
 26 28  1  0  0  0  0
 28 29  1  0  0  0  0
 28 30  1  0  0  0  0
 30 31  1  0  0  0  0
 30 32  1  0  0  0  0
 30 33  1  0  0  0  0
M  END
$$$$

  -OEChem-03222214063D

 33 32  0     1  0  0  0  0  0999 V2000
   -2.9132   -4.9036    0.6305 H   0  0  0  0  0  0  0  0  0  0  0  0
   -2.9375   -3.9080    0.1779 C   0  0  0  0  0  0  0  0  0  0  0  0
   -3.7482   -3.3345    0.6336 H   0  0  0  0  0  0  0  0  0  0  0  0
   -3.1301   -4.0137   -0.8924 H   0  0  0  0  0  0  0  0  0  0  0  0
   -1.6126   -3.2025    0.3994 C   0  0  0  0  0  0  0  0  0  0  0  0
   -0.7343   -3.7514    1.0395 O   0  0  0  0  0  0  0  0  0  0  0  0
   -1.4138   -1.9398   -0.1244 N   0  0  0  0  0  0  0  0  0  0  0  0
   -2.1485   -1.5757   -0.7235 H   0  0  0  0  0  0  0  0  0  0  0  0
   -0.1294   -1.2141   -0.0827 C   0  0  1  0  0  0  0  0  0  0  0  0
    0.6178   -1.8515   -0.5665 H   0  0  0  0  0  0  0  0  0  0  0  0
   -0.2774    0.1178   -0.8600 C   0  0  0  0  0  0  0  0  0  0  0  0
   -1.3067    0.2107   -1.2212 H   0  0  0  0  0  0  0  0  0  0  0  0
   -0.1089    0.9698   -0.1918 H   0  0  0  0  0  0  0  0  0  0  0  0
    0.6936    0.2328   -2.0528 C   0  0  0  0  0  0  0  0  0  0  0  0
    1.5188    0.8995   -1.7795 H   0  0  0  0  0  0  0  0  0  0  0  0
    1.1294   -0.7403   -2.2997 H   0  0  0  0  0  0  0  0  0  0  0  0
   -0.0237    0.7615   -3.3009 C   0  0  0  0  0  0  0  0  0  0  0  0
   -0.8127    0.0622   -3.5956 H   0  0  0  0  0  0  0  0  0  0  0  0
   -0.4909    1.7259   -3.0753 H   0  0  0  0  0  0  0  0  0  0  0  0
    0.9572    0.9375   -4.4566 C   0  0  0  0  0  0  0  0  0  0  0  0
    1.7375    1.6549   -4.1788 H   0  0  0  0  0  0  0  0  0  0  0  0
    1.4411   -0.0175   -4.6898 H   0  0  0  0  0  0  0  0  0  0  0  0
    0.2198    1.4284   -5.6249 N   0  0  0  0  0  0  0  0  0  0  0  0
    0.8476    1.6032   -6.4100 H   0  0  0  0  0  0  0  0  0  0  0  0
   -0.5210    0.7800   -5.8903 H   0  0  0  0  0  0  0  0  0  0  0  0
    0.4146   -0.9445    1.3384 C   0  0  0  0  0  0  0  0  0  0  0  0
    1.6236   -0.9076    1.5269 O   0  0  0  0  0  0  0  0  0  0  0  0
   -0.4353   -0.4809    2.3265 N   0  0  0  0  0  0  0  0  0  0  0  0
   -1.4278   -0.6037    2.1557 H   0  0  0  0  0  0  0  0  0  0  0  0
    0.0135   -0.1913    3.6825 C   0  0  0  0  0  0  0  0  0  0  0  0
    0.7953    0.5754    3.6724 H   0  0  0  0  0  0  0  0  0  0  0  0
   -0.8208    0.1767    4.2868 H   0  0  0  0  0  0  0  0  0  0  0  0
    0.4127   -1.0957    4.1536 H   0  0  0  0  0  0  0  0  0  0  0  0
  1  2  1  0  0  0  0
  2  3  1  0  0  0  0
  2  4  1  0  0  0  0
  2  5  1  0  0  0  0
  5  6  2  0  0  0  0
  5  7  1  0  0  0  0
  7  8  1  0  0  0  0
  7  9  1  0  0  0  0
  9 10  1  0  0  0  0
  9 11  1  0  0  0  0
  9 26  1  0  0  0  0
 11 12  1  0  0  0  0
 11 13  1  0  0  0  0
 11 14  1  0  0  0  0
 14 15  1  0  0  0  0
 14 16  1  0  0  0  0
 14 17  1  0  0  0  0
 17 18  1  0  0  0  0
 17 19  1  0  0  0  0
 17 20  1  0  0  0  0
 20 21  1  0  0  0  0
 20 22  1  0  0  0  0
 20 23  1  0  0  0  0
 23 24  1  0  0  0  0
 23 25  1  0  0  0  0
 26 27  2  0  0  0  0
 26 28  1  0  0  0  0
 28 29  1  0  0  0  0
 28 30  1  0  0  0  0
 30 31  1  0  0  0  0
 30 32  1  0  0  0  0
 30 33  1  0  0  0  0
M  END
$$$$

  -OEChem-03222214063D

 33 32  0     1  0  0  0  0  0999 V2000
   -2.8960   -4.9097    0.6285 H   0  0  0  0  0  0  0  0  0  0  0  0
   -2.9282   -3.9136    0.1776 C   0  0  0  0  0  0  0  0  0  0  0  0
   -3.7406   -3.3457    0.6370 H   0  0  0  0  0  0  0  0  0  0  0  0
   -3.1245   -4.0199   -0.8920 H   0  0  0  0  0  0  0  0  0  0  0  0
   -1.6075   -3.1996    0.3953 C   0  0  0  0  0  0  0  0  0  0  0  0
   -0.7224   -3.7441    1.0295 O   0  0  0  0  0  0  0  0  0  0  0  0
   -1.4205   -1.9343   -0.1261 N   0  0  0  0  0  0  0  0  0  0  0  0
   -2.1629   -1.5719   -0.7164 H   0  0  0  0  0  0  0  0  0  0  0  0
   -0.1399   -1.2017   -0.0914 C   0  0  1  0  0  0  0  0  0  0  0  0
    0.6090   -1.8299   -0.5858 H   0  0  0  0  0  0  0  0  0  0  0  0
   -0.2967    0.1313   -0.8625 C   0  0  0  0  0  0  0  0  0  0  0  0
   -1.3241    0.2143   -1.2311 H   0  0  0  0  0  0  0  0  0  0  0  0
   -0.1327    0.9871   -0.1980 H   0  0  0  0  0  0  0  0  0  0  0  0
    0.6728    0.2324   -2.0525 C   0  0  0  0  0  0  0  0  0  0  0  0
    1.6246    0.6526   -1.7098 H   0  0  0  0  0  0  0  0  0  0  0  0
    0.8759   -0.7623   -2.4627 H   0  0  0  0  0  0  0  0  0  0  0  0
    0.0751    1.0889   -3.1749 C   0  0  0  0  0  0  0  0  0  0  0  0
   -0.8382    0.6178   -3.5524 H   0  0  0  0  0  0  0  0  0  0  0  0
   -0.1896    2.0761   -2.7818 H   0  0  0  0  0  0  0  0  0  0  0  0
    1.0716    1.2555   -4.3181 C   0  0  0  0  0  0  0  0  0  0  0  0
    1.9783    1.7518   -3.9542 H   0  0  0  0  0  0  0  0  0  0  0  0
    1.3572    0.2754   -4.7160 H   0  0  0  0  0  0  0  0  0  0  0  0
    0.4456    2.0644   -5.3685 N   0  0  0  0  0  0  0  0  0  0  0  0
    1.0928    2.2335   -6.1388 H   0  0  0  0  0  0  0  0  0  0  0  0
   -0.4135    1.6298   -5.7043 H   0  0  0  0  0  0  0  0  0  0  0  0
    0.4134   -0.9336    1.3262 C   0  0  0  0  0  0  0  0  0  0  0  0
    1.6235   -0.8926    1.5058 O   0  0  0  0  0  0  0  0  0  0  0  0
   -0.4313   -0.4778    2.3225 N   0  0  0  0  0  0  0  0  0  0  0  0
   -1.4241   -0.6084    2.1606 H   0  0  0  0  0  0  0  0  0  0  0  0
    0.0270   -0.1899    3.6756 C   0  0  0  0  0  0  0  0  0  0  0  0
    0.8015    0.5841    3.6620 H   0  0  0  0  0  0  0  0  0  0  0  0
   -0.8055    0.1675    4.2890 H   0  0  0  0  0  0  0  0  0  0  0  0
    0.4387   -1.0926    4.1392 H   0  0  0  0  0  0  0  0  0  0  0  0
  1  2  1  0  0  0  0
  2  3  1  0  0  0  0
  2  4  1  0  0  0  0
  2  5  1  0  0  0  0
  5  6  2  0  0  0  0
  5  7  1  0  0  0  0
  7  8  1  0  0  0  0
  7  9  1  0  0  0  0
  9 10  1  0  0  0  0
  9 11  1  0  0  0  0
  9 26  1  0  0  0  0
 11 12  1  0  0  0  0
 11 13  1  0  0  0  0
 11 14  1  0  0  0  0
 14 15  1  0  0  0  0
 14 16  1  0  0  0  0
 14 17  1  0  0  0  0
 17 18  1  0  0  0  0
 17 19  1  0  0  0  0
 17 20  1  0  0  0  0
 20 21  1  0  0  0  0
 20 22  1  0  0  0  0
 20 23  1  0  0  0  0
 23 24  1  0  0  0  0
 23 25  1  0  0  0  0
 26 27  2  0  0  0  0
 26 28  1  0  0  0  0
 28 29  1  0  0  0  0
 28 30  1  0  0  0  0
 30 31  1  0  0  0  0
 30 32  1  0  0  0  0
 30 33  1  0  0  0  0
M  END
$$$$

  -OEChem-03222214063D

 33 32  0     1  0  0  0  0  0999 V2000
   -2.8706   -4.9139    0.6131 H   0  0  0  0  0  0  0  0  0  0  0  0
   -2.9136   -3.9152    0.1691 C   0  0  0  0  0  0  0  0  0  0  0  0
   -3.7263   -3.3561    0.6384 H   0  0  0  0  0  0  0  0  0  0  0  0
   -3.1172   -4.0149   -0.8996 H   0  0  0  0  0  0  0  0  0  0  0  0
   -1.5960   -3.1941    0.3810 C   0  0  0  0  0  0  0  0  0  0  0  0
   -0.7005   -3.7380    1.0013 O   0  0  0  0  0  0  0  0  0  0  0  0
   -1.4232   -1.9229   -0.1309 N   0  0  0  0  0  0  0  0  0  0  0  0
   -2.1742   -1.5594   -0.7097 H   0  0  0  0  0  0  0  0  0  0  0  0
   -0.1488   -1.1804   -0.0971 C   0  0  1  0  0  0  0  0  0  0  0  0
    0.6019   -1.7978   -0.6031 H   0  0  0  0  0  0  0  0  0  0  0  0
   -0.3175    0.1524   -0.8624 C   0  0  0  0  0  0  0  0  0  0  0  0
   -1.3430    0.2363   -1.2362 H   0  0  0  0  0  0  0  0  0  0  0  0
   -0.1500    1.0054   -0.1950 H   0  0  0  0  0  0  0  0  0  0  0  0
    0.6548    0.2442   -2.0463 C   0  0  0  0  0  0  0  0  0  0  0  0
    1.6692    0.4174   -1.6702 H   0  0  0  0  0  0  0  0  0  0  0  0
    0.6569   -0.7006   -2.6002 H   0  0  0  0  0  0  0  0  0  0  0  0
    0.2418    1.3690   -3.0017 C   0  0  0  0  0  0  0  0  0  0  0  0
   -0.7512    1.1588   -3.4117 H   0  0  0  0  0  0  0  0  0  0  0  0
    0.1888    2.3156   -2.4537 H   0  0  0  0  0  0  0  0  0  0  0  0
    1.2452    1.5061   -4.1430 C   0  0  0  0  0  0  0  0  0  0  0  0
    2.2371    1.7446   -3.7428 H   0  0  0  0  0  0  0  0  0  0  0  0
    1.3191    0.5628   -4.6954 H   0  0  0  0  0  0  0  0  0  0  0  0
    0.7942    2.5790   -5.0346 N   0  0  0  0  0  0  0  0  0  0  0  0
    1.4587    2.7320   -5.7934 H   0  0  0  0  0  0  0  0  0  0  0  0
   -0.1378    2.3858   -5.4001 H   0  0  0  0  0  0  0  0  0  0  0  0
    0.4110   -0.9192    1.3192 C   0  0  0  0  0  0  0  0  0  0  0  0
    1.6219   -0.8749    1.4927 O   0  0  0  0  0  0  0  0  0  0  0  0
   -0.4307   -0.4784    2.3246 N   0  0  0  0  0  0  0  0  0  0  0  0
   -1.4242   -0.6088    2.1663 H   0  0  0  0  0  0  0  0  0  0  0  0
    0.0351   -0.2006    3.6773 C   0  0  0  0  0  0  0  0  0  0  0  0
    0.8095    0.5737    3.6653 H   0  0  0  0  0  0  0  0  0  0  0  0
   -0.7936    0.1521    4.2984 H   0  0  0  0  0  0  0  0  0  0  0  0
    0.4500   -1.1066    4.1315 H   0  0  0  0  0  0  0  0  0  0  0  0
  1  2  1  0  0  0  0
  2  3  1  0  0  0  0
  2  4  1  0  0  0  0
  2  5  1  0  0  0  0
  5  6  2  0  0  0  0
  5  7  1  0  0  0  0
  7  8  1  0  0  0  0
  7  9  1  0  0  0  0
  9 10  1  0  0  0  0
  9 11  1  0  0  0  0
  9 26  1  0  0  0  0
 11 12  1  0  0  0  0
 11 13  1  0  0  0  0
 11 14  1  0  0  0  0
 14 15  1  0  0  0  0
 14 16  1  0  0  0  0
 14 17  1  0  0  0  0
 17 18  1  0  0  0  0
 17 19  1  0  0  0  0
 17 20  1  0  0  0  0
 20 21  1  0  0  0  0
 20 22  1  0  0  0  0
 20 23  1  0  0  0  0
 23 24  1  0  0  0  0
 23 25  1  0  0  0  0
 26 27  2  0  0  0  0
 26 28  1  0  0  0  0
 28 29  1  0  0  0  0
 28 30  1  0  0  0  0
 30 31  1  0  0  0  0
 30 32  1  0  0  0  0
 30 33  1  0  0  0  0
M  END
$$$$

  -OEChem-03222214063D

 33 32  0     1  0  0  0  0  0999 V2000
   -2.8709   -4.8967    0.6088 H   0  0  0  0  0  0  0  0  0  0  0  0
   -2.9052   -3.8974    0.1654 C   0  0  0  0  0  0  0  0  0  0  0  0
   -3.7109   -3.3306    0.6380 H   0  0  0  0  0  0  0  0  0  0  0  0
   -3.1134   -3.9946   -0.9027 H   0  0  0  0  0  0  0  0  0  0  0  0
   -1.5801   -3.1890    0.3738 C   0  0  0  0  0  0  0  0  0  0  0  0
   -0.6891   -3.7416    0.9927 O   0  0  0  0  0  0  0  0  0  0  0  0
   -1.3967   -1.9197   -0.1395 N   0  0  0  0  0  0  0  0  0  0  0  0
   -2.1426   -1.5524   -0.7223 H   0  0  0  0  0  0  0  0  0  0  0  0
   -0.1197   -1.1818   -0.0987 C   0  0  1  0  0  0  0  0  0  0  0  0
    0.6430   -1.7856   -0.6035 H   0  0  0  0  0  0  0  0  0  0  0  0
   -0.3008    0.1561   -0.8490 C   0  0  0  0  0  0  0  0  0  0  0  0
   -1.3630    0.3983   -0.9576 H   0  0  0  0  0  0  0  0  0  0  0  0
    0.1565    0.9681   -0.2720 H   0  0  0  0  0  0  0  0  0  0  0  0
    0.3746    0.1102   -2.2250 C   0  0  0  0  0  0  0  0  0  0  0  0
    1.4444   -0.0907   -2.0988 H   0  0  0  0  0  0  0  0  0  0  0  0
   -0.0552   -0.7036   -2.8185 H   0  0  0  0  0  0  0  0  0  0  0  0
    0.1902    1.4405   -2.9637 C   0  0  0  0  0  0  0  0  0  0  0  0
   -0.8774    1.6365   -3.1060 H   0  0  0  0  0  0  0  0  0  0  0  0
    0.6072    2.2566   -2.3641 H   0  0  0  0  0  0  0  0  0  0  0  0
    0.8869    1.4098   -4.3212 C   0  0  0  0  0  0  0  0  0  0  0  0
    1.9611    1.2403   -4.1865 H   0  0  0  0  0  0  0  0  0  0  0  0
    0.4876    0.5920   -4.9314 H   0  0  0  0  0  0  0  0  0  0  0  0
    0.6635    2.6949   -4.9906 N   0  0  0  0  0  0  0  0  0  0  0  0
    1.1412    2.7313   -5.8912 H   0  0  0  0  0  0  0  0  0  0  0  0
   -0.3322    2.8866   -5.0980 H   0  0  0  0  0  0  0  0  0  0  0  0
    0.4176   -0.9271    1.3284 C   0  0  0  0  0  0  0  0  0  0  0  0
    1.6253   -0.8970    1.5253 O   0  0  0  0  0  0  0  0  0  0  0  0
   -0.4389   -0.4854    2.3212 N   0  0  0  0  0  0  0  0  0  0  0  0
   -1.4303   -0.6036    2.1426 H   0  0  0  0  0  0  0  0  0  0  0  0
    0.0015   -0.2170    3.6843 C   0  0  0  0  0  0  0  0  0  0  0  0
    0.7878    0.5453    3.6910 H   0  0  0  0  0  0  0  0  0  0  0  0
   -0.8355    0.1478    4.2869 H   0  0  0  0  0  0  0  0  0  0  0  0
    0.3912   -1.1302    4.1463 H   0  0  0  0  0  0  0  0  0  0  0  0
  1  2  1  0  0  0  0
  2  3  1  0  0  0  0
  2  4  1  0  0  0  0
  2  5  1  0  0  0  0
  5  6  2  0  0  0  0
  5  7  1  0  0  0  0
  7  8  1  0  0  0  0
  7  9  1  0  0  0  0
  9 10  1  0  0  0  0
  9 11  1  0  0  0  0
  9 26  1  0  0  0  0
 11 12  1  0  0  0  0
 11 13  1  0  0  0  0
 11 14  1  0  0  0  0
 14 15  1  0  0  0  0
 14 16  1  0  0  0  0
 14 17  1  0  0  0  0
 17 18  1  0  0  0  0
 17 19  1  0  0  0  0
 17 20  1  0  0  0  0
 20 21  1  0  0  0  0
 20 22  1  0  0  0  0
 20 23  1  0  0  0  0
 23 24  1  0  0  0  0
 23 25  1  0  0  0  0
 26 27  2  0  0  0  0
 26 28  1  0  0  0  0
 28 29  1  0  0  0  0
 28 30  1  0  0  0  0
 30 31  1  0  0  0  0
 30 32  1  0  0  0  0
 30 33  1  0  0  0  0
M  END
$$$$

  -OEChem-03222214063D

 33 32  0     1  0  0  0  0  0999 V2000
   -2.8732   -4.8977    0.6013 H   0  0  0  0  0  0  0  0  0  0  0  0
   -2.9067   -3.8971    0.1603 C   0  0  0  0  0  0  0  0  0  0  0  0
   -3.7130   -3.3313    0.6329 H   0  0  0  0  0  0  0  0  0  0  0  0
   -3.1141   -3.9922   -0.9082 H   0  0  0  0  0  0  0  0  0  0  0  0
   -1.5814   -3.1892    0.3728 C   0  0  0  0  0  0  0  0  0  0  0  0
   -0.6960   -3.7401    1.0010 O   0  0  0  0  0  0  0  0  0  0  0  0
   -1.3919   -1.9219   -0.1435 N   0  0  0  0  0  0  0  0  0  0  0  0
   -2.1325   -1.5563   -0.7341 H   0  0  0  0  0  0  0  0  0  0  0  0
   -0.1130   -1.1873   -0.0983 C   0  0  1  0  0  0  0  0  0  0  0  0
    0.6495   -1.7960   -0.5967 H   0  0  0  0  0  0  0  0  0  0  0  0
   -0.2928    0.1497   -0.8528 C   0  0  0  0  0  0  0  0  0  0  0  0
   -1.3520    0.4038   -0.9607 H   0  0  0  0  0  0  0  0  0  0  0  0
    0.1698    0.9529   -0.2676 H   0  0  0  0  0  0  0  0  0  0  0  0
    0.3829    0.1147   -2.2306 C   0  0  0  0  0  0  0  0  0  0  0  0
    1.3851   -0.3181   -2.1376 H   0  0  0  0  0  0  0  0  0  0  0  0
   -0.1977   -0.5185   -2.9095 H   0  0  0  0  0  0  0  0  0  0  0  0
    0.5196    1.5291   -2.8058 C   0  0  0  0  0  0  0  0  0  0  0  0
   -0.4717    1.9840   -2.8987 H   0  0  0  0  0  0  0  0  0  0  0  0
    1.1147    2.1497   -2.1274 H   0  0  0  0  0  0  0  0  0  0  0  0
    1.1948    1.4941   -4.1736 C   0  0  0  0  0  0  0  0  0  0  0  0
    2.1991    1.0651   -4.0838 H   0  0  0  0  0  0  0  0  0  0  0  0
    0.6173    0.8676   -4.8623 H   0  0  0  0  0  0  0  0  0  0  0  0
    1.2806    2.8636   -4.6893 N   0  0  0  0  0  0  0  0  0  0  0  0
    1.7501    2.8899   -5.5943 H   0  0  0  0  0  0  0  0  0  0  0  0
    0.3588    3.2960   -4.7435 H   0  0  0  0  0  0  0  0  0  0  0  0
    0.4195   -0.9287    1.3300 C   0  0  0  0  0  0  0  0  0  0  0  0
    1.6265   -0.8992    1.5307 O   0  0  0  0  0  0  0  0  0  0  0  0
   -0.4392   -0.4809    2.3179 N   0  0  0  0  0  0  0  0  0  0  0  0
   -1.4301   -0.6004    2.1375 H   0  0  0  0  0  0  0  0  0  0  0  0
   -0.0015   -0.2090    3.6810 C   0  0  0  0  0  0  0  0  0  0  0  0
    0.7892    0.5487    3.6869 H   0  0  0  0  0  0  0  0  0  0  0  0
   -0.8380    0.1635    4.2796 H   0  0  0  0  0  0  0  0  0  0  0  0
    0.3821   -1.1222    4.1482 H   0  0  0  0  0  0  0  0  0  0  0  0
  1  2  1  0  0  0  0
  2  3  1  0  0  0  0
  2  4  1  0  0  0  0
  2  5  1  0  0  0  0
  5  6  2  0  0  0  0
  5  7  1  0  0  0  0
  7  8  1  0  0  0  0
  7  9  1  0  0  0  0
  9 10  1  0  0  0  0
  9 11  1  0  0  0  0
  9 26  1  0  0  0  0
 11 12  1  0  0  0  0
 11 13  1  0  0  0  0
 11 14  1  0  0  0  0
 14 15  1  0  0  0  0
 14 16  1  0  0  0  0
 14 17  1  0  0  0  0
 17 18  1  0  0  0  0
 17 19  1  0  0  0  0
 17 20  1  0  0  0  0
 20 21  1  0  0  0  0
 20 22  1  0  0  0  0
 20 23  1  0  0  0  0
 23 24  1  0  0  0  0
 23 25  1  0  0  0  0
 26 27  2  0  0  0  0
 26 28  1  0  0  0  0
 28 29  1  0  0  0  0
 28 30  1  0  0  0  0
 30 31  1  0  0  0  0
 30 32  1  0  0  0  0
 30 33  1  0  0  0  0
M  END
$$$$

  -OEChem-03222214063D

 33 32  0     1  0  0  0  0  0999 V2000
   -2.8846   -4.8902    0.6155 H   0  0  0  0  0  0  0  0  0  0  0  0
   -2.9114   -3.8914    0.1703 C   0  0  0  0  0  0  0  0  0  0  0  0
   -3.7145   -3.3188    0.6403 H   0  0  0  0  0  0  0  0  0  0  0  0
   -3.1181   -3.9897   -0.8980 H   0  0  0  0  0  0  0  0  0  0  0  0
   -1.5821   -3.1907    0.3813 C   0  0  0  0  0  0  0  0  0  0  0  0
   -0.7028   -3.7417    1.0181 O   0  0  0  0  0  0  0  0  0  0  0  0
   -1.3835   -1.9282   -0.1436 N   0  0  0  0  0  0  0  0  0  0  0  0
   -2.1208   -1.5619   -0.7381 H   0  0  0  0  0  0  0  0  0  0  0  0
   -0.1012   -1.1995   -0.0979 C   0  0  1  0  0  0  0  0  0  0  0  0
    0.6612   -1.8171   -0.5849 H   0  0  0  0  0  0  0  0  0  0  0  0
   -0.2758    0.1352   -0.8611 C   0  0  0  0  0  0  0  0  0  0  0  0
   -1.3331    0.3994   -0.9650 H   0  0  0  0  0  0  0  0  0  0  0  0
    0.1894    0.9319   -0.2693 H   0  0  0  0  0  0  0  0  0  0  0  0
    0.3971    0.1134   -2.2450 C   0  0  0  0  0  0  0  0  0  0  0  0
    1.2786   -0.5361   -2.2251 H   0  0  0  0  0  0  0  0  0  0  0  0
   -0.2999   -0.2914   -2.9859 H   0  0  0  0  0  0  0  0  0  0  0  0
    0.8633    1.5170   -2.6507 C   0  0  0  0  0  0  0  0  0  0  0  0
    0.0060    2.1977   -2.6615 H   0  0  0  0  0  0  0  0  0  0  0  0
    1.5861    1.8936   -1.9188 H   0  0  0  0  0  0  0  0  0  0  0  0
    1.5150    1.4964   -4.0303 C   0  0  0  0  0  0  0  0  0  0  0  0
    2.3937    0.8418   -4.0193 H   0  0  0  0  0  0  0  0  0  0  0  0
    0.8102    1.1079   -4.7737 H   0  0  0  0  0  0  0  0  0  0  0  0
    1.9138    2.8629   -4.3805 N   0  0  0  0  0  0  0  0  0  0  0  0
    2.3711    2.8940   -5.2917 H   0  0  0  0  0  0  0  0  0  0  0  0
    1.1176    3.4992   -4.3493 H   0  0  0  0  0  0  0  0  0  0  0  0
    0.4225   -0.9347    1.3327 C   0  0  0  0  0  0  0  0  0  0  0  0
    1.6279   -0.9144    1.5436 O   0  0  0  0  0  0  0  0  0  0  0  0
   -0.4414   -0.4765    2.3114 N   0  0  0  0  0  0  0  0  0  0  0  0
   -1.4314   -0.5927    2.1240 H   0  0  0  0  0  0  0  0  0  0  0  0
   -0.0125   -0.2045    3.6773 C   0  0  0  0  0  0  0  0  0  0  0  0
    0.7838    0.5473    3.6880 H   0  0  0  0  0  0  0  0  0  0  0  0
   -0.8513    0.1750    4.2686 H   0  0  0  0  0  0  0  0  0  0  0  0
    0.3612   -1.1195    4.1489 H   0  0  0  0  0  0  0  0  0  0  0  0
  1  2  1  0  0  0  0
  2  3  1  0  0  0  0
  2  4  1  0  0  0  0
  2  5  1  0  0  0  0
  5  6  2  0  0  0  0
  5  7  1  0  0  0  0
  7  8  1  0  0  0  0
  7  9  1  0  0  0  0
  9 10  1  0  0  0  0
  9 11  1  0  0  0  0
  9 26  1  0  0  0  0
 11 12  1  0  0  0  0
 11 13  1  0  0  0  0
 11 14  1  0  0  0  0
 14 15  1  0  0  0  0
 14 16  1  0  0  0  0
 14 17  1  0  0  0  0
 17 18  1  0  0  0  0
 17 19  1  0  0  0  0
 17 20  1  0  0  0  0
 20 21  1  0  0  0  0
 20 22  1  0  0  0  0
 20 23  1  0  0  0  0
 23 24  1  0  0  0  0
 23 25  1  0  0  0  0
 26 27  2  0  0  0  0
 26 28  1  0  0  0  0
 28 29  1  0  0  0  0
 28 30  1  0  0  0  0
 30 31  1  0  0  0  0
 30 32  1  0  0  0  0
 30 33  1  0  0  0  0
M  END
$$$$

  -OEChem-03222214063D

 33 32  0     1  0  0  0  0  0999 V2000
   -2.8946   -4.8902    0.6162 H   0  0  0  0  0  0  0  0  0  0  0  0
   -2.9157   -3.8928    0.1674 C   0  0  0  0  0  0  0  0  0  0  0  0
   -3.7234   -3.3177    0.6262 H   0  0  0  0  0  0  0  0  0  0  0  0
   -3.1103   -3.9944   -0.9030 H   0  0  0  0  0  0  0  0  0  0  0  0
   -1.5884   -3.1927    0.3905 C   0  0  0  0  0  0  0  0  0  0  0  0
   -0.7164   -3.7432    1.0374 O   0  0  0  0  0  0  0  0  0  0  0  0
   -1.3824   -1.9339   -0.1402 N   0  0  0  0  0  0  0  0  0  0  0  0
   -2.1111   -1.5743   -0.7489 H   0  0  0  0  0  0  0  0  0  0  0  0
   -0.0961   -1.2122   -0.0978 C   0  0  1  0  0  0  0  0  0  0  0  0
    0.6651   -1.8340   -0.5803 H   0  0  0  0  0  0  0  0  0  0  0  0
   -0.2684    0.1240   -0.8610 C   0  0  0  0  0  0  0  0  0  0  0  0
   -1.3267    0.3856   -0.9598 H   0  0  0  0  0  0  0  0  0  0  0  0
    0.1898    0.9215   -0.2646 H   0  0  0  0  0  0  0  0  0  0  0  0
    0.3951    0.1159   -2.2536 C   0  0  0  0  0  0  0  0  0  0  0  0
    1.0910   -0.7237   -2.3472 H   0  0  0  0  0  0  0  0  0  0  0  0
   -0.3757   -0.0103   -3.0208 H   0  0  0  0  0  0  0  0  0  0  0  0
    1.1817    1.4094   -2.4999 C   0  0  0  0  0  0  0  0  0  0  0  0
    0.5087    2.2687   -2.4152 H   0  0  0  0  0  0  0  0  0  0  0  0
    1.9643    1.5161   -1.7408 H   0  0  0  0  0  0  0  0  0  0  0  0
    1.8250    1.4012   -3.8837 C   0  0  0  0  0  0  0  0  0  0  0  0
    2.5232    0.5607   -3.9678 H   0  0  0  0  0  0  0  0  0  0  0  0
    1.0564    1.2839   -4.6554 H   0  0  0  0  0  0  0  0  0  0  0  0
    2.5401    2.6665   -4.0741 N   0  0  0  0  0  0  0  0  0  0  0  0
    2.9976    2.7015   -4.9850 H   0  0  0  0  0  0  0  0  0  0  0  0
    1.9181    3.4644   -3.9462 H   0  0  0  0  0  0  0  0  0  0  0  0
    0.4286   -0.9437    1.3319 C   0  0  0  0  0  0  0  0  0  0  0  0
    1.6338   -0.9267    1.5434 O   0  0  0  0  0  0  0  0  0  0  0  0
   -0.4333   -0.4760    2.3081 N   0  0  0  0  0  0  0  0  0  0  0  0
   -1.4243   -0.5843    2.1205 H   0  0  0  0  0  0  0  0  0  0  0  0
   -0.0025   -0.1889    3.6706 C   0  0  0  0  0  0  0  0  0  0  0  0
    0.7906    0.5661    3.6717 H   0  0  0  0  0  0  0  0  0  0  0  0
   -0.8413    0.1933    4.2599 H   0  0  0  0  0  0  0  0  0  0  0  0
    0.3757   -1.0976    4.1505 H   0  0  0  0  0  0  0  0  0  0  0  0
  1  2  1  0  0  0  0
  2  3  1  0  0  0  0
  2  4  1  0  0  0  0
  2  5  1  0  0  0  0
  5  6  2  0  0  0  0
  5  7  1  0  0  0  0
  7  8  1  0  0  0  0
  7  9  1  0  0  0  0
  9 10  1  0  0  0  0
  9 11  1  0  0  0  0
  9 26  1  0  0  0  0
 11 12  1  0  0  0  0
 11 13  1  0  0  0  0
 11 14  1  0  0  0  0
 14 15  1  0  0  0  0
 14 16  1  0  0  0  0
 14 17  1  0  0  0  0
 17 18  1  0  0  0  0
 17 19  1  0  0  0  0
 17 20  1  0  0  0  0
 20 21  1  0  0  0  0
 20 22  1  0  0  0  0
 20 23  1  0  0  0  0
 23 24  1  0  0  0  0
 23 25  1  0  0  0  0
 26 27  2  0  0  0  0
 26 28  1  0  0  0  0
 28 29  1  0  0  0  0
 28 30  1  0  0  0  0
 30 31  1  0  0  0  0
 30 32  1  0  0  0  0
 30 33  1  0  0  0  0
M  END
$$$$

  -OEChem-03222214063D

 33 32  0     1  0  0  0  0  0999 V2000
   -2.8866   -4.8878    0.6288 H   0  0  0  0  0  0  0  0  0  0  0  0
   -2.9077   -3.8933    0.1738 C   0  0  0  0  0  0  0  0  0  0  0  0
   -3.7133   -3.3143    0.6316 H   0  0  0  0  0  0  0  0  0  0  0  0
   -3.1058   -4.0015   -0.8952 H   0  0  0  0  0  0  0  0  0  0  0  0
   -1.5789   -3.1929    0.3878 C   0  0  0  0  0  0  0  0  0  0  0  0
   -0.7011   -3.7434    1.0268 O   0  0  0  0  0  0  0  0  0  0  0  0
   -1.3796   -1.9322   -0.1412 N   0  0  0  0  0  0  0  0  0  0  0  0
   -2.1145   -1.5717   -0.7417 H   0  0  0  0  0  0  0  0  0  0  0  0
   -0.0952   -1.2060   -0.1035 C   0  0  1  0  0  0  0  0  0  0  0  0
    0.6688   -1.8222   -0.5892 H   0  0  0  0  0  0  0  0  0  0  0  0
   -0.2694    0.1351   -0.8583 C   0  0  0  0  0  0  0  0  0  0  0  0
   -1.3318    0.3780   -0.9607 H   0  0  0  0  0  0  0  0  0  0  0  0
    0.1704    0.9424   -0.2607 H   0  0  0  0  0  0  0  0  0  0  0  0
    0.3895    0.1315   -2.2539 C   0  0  0  0  0  0  0  0  0  0  0  0
    0.8388   -0.8412   -2.4766 H   0  0  0  0  0  0  0  0  0  0  0  0
   -0.3829    0.3091   -3.0091 H   0  0  0  0  0  0  0  0  0  0  0  0
    1.4655    1.2186   -2.3679 C   0  0  0  0  0  0  0  0  0  0  0  0
    1.0182    2.2001   -2.1795 H   0  0  0  0  0  0  0  0  0  0  0  0
    2.2403    1.0483   -1.6122 H   0  0  0  0  0  0  0  0  0  0  0  0
    2.1058    1.2101   -3.7534 C   0  0  0  0  0  0  0  0  0  0  0  0
    2.5831    0.2416   -3.9399 H   0  0  0  0  0  0  0  0  0  0  0  0
    1.3414    1.3666   -4.5223 H   0  0  0  0  0  0  0  0  0  0  0  0
    3.1059    2.2800   -3.8136 N   0  0  0  0  0  0  0  0  0  0  0  0
    3.5661    2.3089   -4.7234 H   0  0  0  0  0  0  0  0  0  0  0  0
    2.6939    3.1838   -3.5828 H   0  0  0  0  0  0  0  0  0  0  0  0
    0.4311   -0.9411    1.3265 C   0  0  0  0  0  0  0  0  0  0  0  0
    1.6363   -0.9222    1.5377 O   0  0  0  0  0  0  0  0  0  0  0  0
   -0.4314   -0.4802    2.3054 N   0  0  0  0  0  0  0  0  0  0  0  0
   -1.4218   -0.5929    2.1184 H   0  0  0  0  0  0  0  0  0  0  0  0
   -0.0018   -0.1992    3.6694 C   0  0  0  0  0  0  0  0  0  0  0  0
    0.7907    0.5566    3.6746 H   0  0  0  0  0  0  0  0  0  0  0  0
   -0.8415    0.1794    4.2597 H   0  0  0  0  0  0  0  0  0  0  0  0
    0.3768   -1.1096    4.1459 H   0  0  0  0  0  0  0  0  0  0  0  0
  1  2  1  0  0  0  0
  2  3  1  0  0  0  0
  2  4  1  0  0  0  0
  2  5  1  0  0  0  0
  5  6  2  0  0  0  0
  5  7  1  0  0  0  0
  7  8  1  0  0  0  0
  7  9  1  0  0  0  0
  9 10  1  0  0  0  0
  9 11  1  0  0  0  0
  9 26  1  0  0  0  0
 11 12  1  0  0  0  0
 11 13  1  0  0  0  0
 11 14  1  0  0  0  0
 14 15  1  0  0  0  0
 14 16  1  0  0  0  0
 14 17  1  0  0  0  0
 17 18  1  0  0  0  0
 17 19  1  0  0  0  0
 17 20  1  0  0  0  0
 20 21  1  0  0  0  0
 20 22  1  0  0  0  0
 20 23  1  0  0  0  0
 23 24  1  0  0  0  0
 23 25  1  0  0  0  0
 26 27  2  0  0  0  0
 26 28  1  0  0  0  0
 28 29  1  0  0  0  0
 28 30  1  0  0  0  0
 30 31  1  0  0  0  0
 30 32  1  0  0  0  0
 30 33  1  0  0  0  0
M  END
$$$$

  -OEChem-03222214063D

 33 32  0     1  0  0  0  0  0999 V2000
   -2.8650   -4.8930    0.6165 H   0  0  0  0  0  0  0  0  0  0  0  0
   -2.8936   -3.8973    0.1642 C   0  0  0  0  0  0  0  0  0  0  0  0
   -3.7017   -3.3248    0.6256 H   0  0  0  0  0  0  0  0  0  0  0  0
   -3.0941   -4.0032   -0.9047 H   0  0  0  0  0  0  0  0  0  0  0  0
   -1.5688   -3.1892    0.3772 C   0  0  0  0  0  0  0  0  0  0  0  0
   -0.6867   -3.7360    1.0135 O   0  0  0  0  0  0  0  0  0  0  0  0
   -1.3802   -1.9245   -0.1459 N   0  0  0  0  0  0  0  0  0  0  0  0
   -2.1182   -1.5680   -0.7450 H   0  0  0  0  0  0  0  0  0  0  0  0
   -0.1001   -1.1906   -0.1115 C   0  0  1  0  0  0  0  0  0  0  0  0
    0.6656   -1.7962   -0.6090 H   0  0  0  0  0  0  0  0  0  0  0  0
   -0.2802    0.1536   -0.8560 C   0  0  0  0  0  0  0  0  0  0  0  0
   -1.3467    0.3741   -0.9664 H   0  0  0  0  0  0  0  0  0  0  0  0
    0.1421    0.9724   -0.2619 H   0  0  0  0  0  0  0  0  0  0  0  0
    0.3773    0.1452   -2.2491 C   0  0  0  0  0  0  0  0  0  0  0  0
    0.5623   -0.8783   -2.5916 H   0  0  0  0  0  0  0  0  0  0  0  0
   -0.3148    0.6034   -2.9632 H   0  0  0  0  0  0  0  0  0  0  0  0
    1.6819    0.9512   -2.2542 C   0  0  0  0  0  0  0  0  0  0  0  0
    1.4790    1.9859   -1.9592 H   0  0  0  0  0  0  0  0  0  0  0  0
    2.3788    0.5225   -1.5258 H   0  0  0  0  0  0  0  0  0  0  0  0
    2.3268    0.9354   -3.6373 C   0  0  0  0  0  0  0  0  0  0  0  0
    2.5542   -0.0948   -3.9333 H   0  0  0  0  0  0  0  0  0  0  0  0
    1.6391    1.3589   -4.3779 H   0  0  0  0  0  0  0  0  0  0  0  0
    3.5614    1.7236   -3.5869 N   0  0  0  0  0  0  0  0  0  0  0  0
    4.0233    1.7518   -4.4956 H   0  0  0  0  0  0  0  0  0  0  0  0
    3.3847    2.6646   -3.2356 H   0  0  0  0  0  0  0  0  0  0  0  0
    0.4346   -0.9295    1.3159 C   0  0  0  0  0  0  0  0  0  0  0  0
    1.6410   -0.9009    1.5186 O   0  0  0  0  0  0  0  0  0  0  0  0
   -0.4240   -0.4787    2.3031 N   0  0  0  0  0  0  0  0  0  0  0  0
   -1.4145   -0.6027    2.1243 H   0  0  0  0  0  0  0  0  0  0  0  0
    0.0144   -0.2038    3.6653 C   0  0  0  0  0  0  0  0  0  0  0  0
    0.8040    0.5552    3.6689 H   0  0  0  0  0  0  0  0  0  0  0  0
   -0.8221    0.1686    4.2641 H   0  0  0  0  0  0  0  0  0  0  0  0
    0.3996   -1.1157    4.1336 H   0  0  0  0  0  0  0  0  0  0  0  0
  1  2  1  0  0  0  0
  2  3  1  0  0  0  0
  2  4  1  0  0  0  0
  2  5  1  0  0  0  0
  5  6  2  0  0  0  0
  5  7  1  0  0  0  0
  7  8  1  0  0  0  0
  7  9  1  0  0  0  0
  9 10  1  0  0  0  0
  9 11  1  0  0  0  0
  9 26  1  0  0  0  0
 11 12  1  0  0  0  0
 11 13  1  0  0  0  0
 11 14  1  0  0  0  0
 14 15  1  0  0  0  0
 14 16  1  0  0  0  0
 14 17  1  0  0  0  0
 17 18  1  0  0  0  0
 17 19  1  0  0  0  0
 17 20  1  0  0  0  0
 20 21  1  0  0  0  0
 20 22  1  0  0  0  0
 20 23  1  0  0  0  0
 23 24  1  0  0  0  0
 23 25  1  0  0  0  0
 26 27  2  0  0  0  0
 26 28  1  0  0  0  0
 28 29  1  0  0  0  0
 28 30  1  0  0  0  0
 30 31  1  0  0  0  0
 30 32  1  0  0  0  0
 30 33  1  0  0  0  0
M  END
$$$$

  -OEChem-03222214063D

 33 32  0     1  0  0  0  0  0999 V2000
   -2.8486   -4.8946    0.6038 H   0  0  0  0  0  0  0  0  0  0  0  0
   -2.8818   -3.8982    0.1538 C   0  0  0  0  0  0  0  0  0  0  0  0
   -3.6923   -3.3305    0.6168 H   0  0  0  0  0  0  0  0  0  0  0  0
   -3.0814   -4.0027   -0.9152 H   0  0  0  0  0  0  0  0  0  0  0  0
   -1.5602   -3.1847    0.3685 C   0  0  0  0  0  0  0  0  0  0  0  0
   -0.6762   -3.7279    1.0053 O   0  0  0  0  0  0  0  0  0  0  0  0
   -1.3788   -1.9169   -0.1498 N   0  0  0  0  0  0  0  0  0  0  0  0
   -2.1179   -1.5644   -0.7500 H   0  0  0  0  0  0  0  0  0  0  0  0
   -0.1014   -1.1778   -0.1165 C   0  0  1  0  0  0  0  0  0  0  0  0
    0.6628   -1.7780   -0.6228 H   0  0  0  0  0  0  0  0  0  0  0  0
   -0.2851    0.1675   -0.8564 C   0  0  0  0  0  0  0  0  0  0  0  0
   -1.3524    0.3820   -0.9711 H   0  0  0  0  0  0  0  0  0  0  0  0
    0.1357    0.9907   -0.2675 H   0  0  0  0  0  0  0  0  0  0  0  0
    0.3743    0.1505   -2.2449 C   0  0  0  0  0  0  0  0  0  0  0  0
    0.3138   -0.8493   -2.6880 H   0  0  0  0  0  0  0  0  0  0  0  0
   -0.1769    0.8330   -2.9001 H   0  0  0  0  0  0  0  0  0  0  0  0
    1.8324    0.6218   -2.1739 C   0  0  0  0  0  0  0  0  0  0  0  0
    1.8759    1.6330   -1.7565 H   0  0  0  0  0  0  0  0  0  0  0  0
    2.4003   -0.0402   -1.5112 H   0  0  0  0  0  0  0  0  0  0  0  0
    2.4724    0.6186   -3.5593 C   0  0  0  0  0  0  0  0  0  0  0  0
    2.4395   -0.3897   -3.9867 H   0  0  0  0  0  0  0  0  0  0  0  0
    1.9223    1.2902   -4.2276 H   0  0  0  0  0  0  0  0  0  0  0  0
    3.8639    1.0609   -3.4336 N   0  0  0  0  0  0  0  0  0  0  0  0
    4.3243    1.1092   -4.3423 H   0  0  0  0  0  0  0  0  0  0  0  0
    3.9247    1.9532   -2.9430 H   0  0  0  0  0  0  0  0  0  0  0  0
    0.4382   -0.9201    1.3094 C   0  0  0  0  0  0  0  0  0  0  0  0
    1.6453   -0.8814    1.5063 O   0  0  0  0  0  0  0  0  0  0  0  0
   -0.4188   -0.4769    2.3012 N   0  0  0  0  0  0  0  0  0  0  0  0
   -1.4086   -0.6142    2.1282 H   0  0  0  0  0  0  0  0  0  0  0  0
    0.0240   -0.2087    3.6633 C   0  0  0  0  0  0  0  0  0  0  0  0
    0.8123    0.5515    3.6683 H   0  0  0  0  0  0  0  0  0  0  0  0
   -0.8108    0.1586    4.2674 H   0  0  0  0  0  0  0  0  0  0  0  0
    0.4127   -1.1227    4.1245 H   0  0  0  0  0  0  0  0  0  0  0  0
  1  2  1  0  0  0  0
  2  3  1  0  0  0  0
  2  4  1  0  0  0  0
  2  5  1  0  0  0  0
  5  6  2  0  0  0  0
  5  7  1  0  0  0  0
  7  8  1  0  0  0  0
  7  9  1  0  0  0  0
  9 10  1  0  0  0  0
  9 11  1  0  0  0  0
  9 26  1  0  0  0  0
 11 12  1  0  0  0  0
 11 13  1  0  0  0  0
 11 14  1  0  0  0  0
 14 15  1  0  0  0  0
 14 16  1  0  0  0  0
 14 17  1  0  0  0  0
 17 18  1  0  0  0  0
 17 19  1  0  0  0  0
 17 20  1  0  0  0  0
 20 21  1  0  0  0  0
 20 22  1  0  0  0  0
 20 23  1  0  0  0  0
 23 24  1  0  0  0  0
 23 25  1  0  0  0  0
 26 27  2  0  0  0  0
 26 28  1  0  0  0  0
 28 29  1  0  0  0  0
 28 30  1  0  0  0  0
 30 31  1  0  0  0  0
 30 32  1  0  0  0  0
 30 33  1  0  0  0  0
M  END
$$$$

  -OEChem-03222214063D

 33 32  0     1  0  0  0  0  0999 V2000
   -2.8635   -4.8949    0.5990 H   0  0  0  0  0  0  0  0  0  0  0  0
   -2.8886   -3.9010    0.1428 C   0  0  0  0  0  0  0  0  0  0  0  0
   -3.7096   -3.3319    0.5854 H   0  0  0  0  0  0  0  0  0  0  0  0
   -3.0661   -4.0120   -0.9295 H   0  0  0  0  0  0  0  0  0  0  0  0
   -1.5722   -3.1853    0.3807 C   0  0  0  0  0  0  0  0  0  0  0  0
   -0.7009   -3.7264    1.0363 O   0  0  0  0  0  0  0  0  0  0  0  0
   -1.3790   -1.9207   -0.1411 N   0  0  0  0  0  0  0  0  0  0  0  0
   -2.1062   -1.5708   -0.7570 H   0  0  0  0  0  0  0  0  0  0  0  0
   -0.0960   -1.1920   -0.1021 C   0  0  1  0  0  0  0  0  0  0  0  0
    0.6602   -1.8051   -0.6039 H   0  0  0  0  0  0  0  0  0  0  0  0
   -0.2677    0.1509   -0.8506 C   0  0  0  0  0  0  0  0  0  0  0  0
   -1.3317    0.3808   -0.9642 H   0  0  0  0  0  0  0  0  0  0  0  0
    0.1680    0.9683   -0.2650 H   0  0  0  0  0  0  0  0  0  0  0  0
    0.3944    0.1389   -2.2367 C   0  0  0  0  0  0  0  0  0  0  0  0
    0.1116   -0.7717   -2.7754 H   0  0  0  0  0  0  0  0  0  0  0  0
    0.0171    0.9929   -2.8088 H   0  0  0  0  0  0  0  0  0  0  0  0
    1.9237    0.2453   -2.1465 C   0  0  0  0  0  0  0  0  0  0  0  0
    2.1987    1.1436   -1.5845 H   0  0  0  0  0  0  0  0  0  0  0  0
    2.3304   -0.6199   -1.6134 H   0  0  0  0  0  0  0  0  0  0  0  0
    2.5426    0.3121   -3.5403 C   0  0  0  0  0  0  0  0  0  0  0  0
    2.2551   -0.5700   -4.1234 H   0  0  0  0  0  0  0  0  0  0  0  0
    2.1808    1.2020   -4.0671 H   0  0  0  0  0  0  0  0  0  0  0  0
    4.0007    0.3644   -3.4053 N   0  0  0  0  0  0  0  0  0  0  0  0
    4.4564    0.4668   -4.3117 H   0  0  0  0  0  0  0  0  0  0  0  0
    4.2853    1.1064   -2.7655 H   0  0  0  0  0  0  0  0  0  0  0  0
    0.4390   -0.9326    1.3252 C   0  0  0  0  0  0  0  0  0  0  0  0
    1.6455   -0.8934    1.5269 O   0  0  0  0  0  0  0  0  0  0  0  0
   -0.4214   -0.4783    2.3091 N   0  0  0  0  0  0  0  0  0  0  0  0
   -1.4111   -0.6127    2.1317 H   0  0  0  0  0  0  0  0  0  0  0  0
    0.0154   -0.1967    3.6707 C   0  0  0  0  0  0  0  0  0  0  0  0
    0.7963    0.5710    3.6721 H   0  0  0  0  0  0  0  0  0  0  0  0
   -0.8247    0.1669    4.2699 H   0  0  0  0  0  0  0  0  0  0  0  0
    0.4118   -1.1034    4.1398 H   0  0  0  0  0  0  0  0  0  0  0  0
  1  2  1  0  0  0  0
  2  3  1  0  0  0  0
  2  4  1  0  0  0  0
  2  5  1  0  0  0  0
  5  6  2  0  0  0  0
  5  7  1  0  0  0  0
  7  8  1  0  0  0  0
  7  9  1  0  0  0  0
  9 10  1  0  0  0  0
  9 11  1  0  0  0  0
  9 26  1  0  0  0  0
 11 12  1  0  0  0  0
 11 13  1  0  0  0  0
 11 14  1  0  0  0  0
 14 15  1  0  0  0  0
 14 16  1  0  0  0  0
 14 17  1  0  0  0  0
 17 18  1  0  0  0  0
 17 19  1  0  0  0  0
 17 20  1  0  0  0  0
 20 21  1  0  0  0  0
 20 22  1  0  0  0  0
 20 23  1  0  0  0  0
 23 24  1  0  0  0  0
 23 25  1  0  0  0  0
 26 27  2  0  0  0  0
 26 28  1  0  0  0  0
 28 29  1  0  0  0  0
 28 30  1  0  0  0  0
 30 31  1  0  0  0  0
 30 32  1  0  0  0  0
 30 33  1  0  0  0  0
M  END
$$$$

  -OEChem-03222214063D

 33 32  0     1  0  0  0  0  0999 V2000
   -2.9326   -4.8938    0.6413 H   0  0  0  0  0  0  0  0  0  0  0  0
   -2.9346   -3.9077    0.1676 C   0  0  0  0  0  0  0  0  0  0  0  0
   -3.7643   -3.3241    0.5737 H   0  0  0  0  0  0  0  0  0  0  0  0
   -3.0784   -4.0362   -0.9079 H   0  0  0  0  0  0  0  0  0  0  0  0
   -1.6205   -3.1977    0.4345 C   0  0  0  0  0  0  0  0  0  0  0  0
   -0.7780   -3.7285    1.1350 O   0  0  0  0  0  0  0  0  0  0  0  0
   -1.3973   -1.9494   -0.1136 N   0  0  0  0  0  0  0  0  0  0  0  0
   -2.0972   -1.6164   -0.7693 H   0  0  0  0  0  0  0  0  0  0  0  0
   -0.1006   -1.2455   -0.0755 C   0  0  1  0  0  0  0  0  0  0  0  0
    0.6411   -1.8937   -0.5492 H   0  0  0  0  0  0  0  0  0  0  0  0
   -0.2428    0.0826   -0.8593 C   0  0  0  0  0  0  0  0  0  0  0  0
   -1.3006    0.3415   -0.9699 H   0  0  0  0  0  0  0  0  0  0  0  0
    0.2170    0.8937   -0.2831 H   0  0  0  0  0  0  0  0  0  0  0  0
    0.4202    0.0741   -2.2478 C   0  0  0  0  0  0  0  0  0  0  0  0
   -0.0580   -0.6865   -2.8736 H   0  0  0  0  0  0  0  0  0  0  0  0
    0.2413    1.0481   -2.7150 H   0  0  0  0  0  0  0  0  0  0  0  0
    1.9349   -0.1891   -2.2029 C   0  0  0  0  0  0  0  0  0  0  0  0
    2.3996    0.4587   -1.4524 H   0  0  0  0  0  0  0  0  0  0  0  0
    2.1363   -1.2266   -1.9223 H   0  0  0  0  0  0  0  0  0  0  0  0
    2.5702    0.0813   -3.5639 C   0  0  0  0  0  0  0  0  0  0  0  0
    2.0754   -0.5168   -4.3370 H   0  0  0  0  0  0  0  0  0  0  0  0
    2.4572    1.1391   -3.8261 H   0  0  0  0  0  0  0  0  0  0  0  0
    3.9898   -0.2740   -3.4938 N   0  0  0  0  0  0  0  0  0  0  0  0
    4.4755   -0.0446   -4.3604 H   0  0  0  0  0  0  0  0  0  0  0  0
    4.4403    0.1693   -2.6924 H   0  0  0  0  0  0  0  0  0  0  0  0
    0.4301   -0.9606    1.3486 C   0  0  0  0  0  0  0  0  0  0  0  0
    1.6368   -0.9295    1.5521 O   0  0  0  0  0  0  0  0  0  0  0  0
   -0.4254   -0.4648    2.3165 N   0  0  0  0  0  0  0  0  0  0  0  0
   -1.4165   -0.5930    2.1423 H   0  0  0  0  0  0  0  0  0  0  0  0
    0.0140   -0.1492    3.6698 C   0  0  0  0  0  0  0  0  0  0  0  0
    0.8056    0.6072    3.6492 H   0  0  0  0  0  0  0  0  0  0  0  0
   -0.8214    0.2434    4.2571 H   0  0  0  0  0  0  0  0  0  0  0  0
    0.3977   -1.0468    4.1661 H   0  0  0  0  0  0  0  0  0  0  0  0
  1  2  1  0  0  0  0
  2  3  1  0  0  0  0
  2  4  1  0  0  0  0
  2  5  1  0  0  0  0
  5  6  2  0  0  0  0
  5  7  1  0  0  0  0
  7  8  1  0  0  0  0
  7  9  1  0  0  0  0
  9 10  1  0  0  0  0
  9 11  1  0  0  0  0
  9 26  1  0  0  0  0
 11 12  1  0  0  0  0
 11 13  1  0  0  0  0
 11 14  1  0  0  0  0
 14 15  1  0  0  0  0
 14 16  1  0  0  0  0
 14 17  1  0  0  0  0
 17 18  1  0  0  0  0
 17 19  1  0  0  0  0
 17 20  1  0  0  0  0
 20 21  1  0  0  0  0
 20 22  1  0  0  0  0
 20 23  1  0  0  0  0
 23 24  1  0  0  0  0
 23 25  1  0  0  0  0
 26 27  2  0  0  0  0
 26 28  1  0  0  0  0
 28 29  1  0  0  0  0
 28 30  1  0  0  0  0
 30 31  1  0  0  0  0
 30 32  1  0  0  0  0
 30 33  1  0  0  0  0
M  END
$$$$

  -OEChem-03222214063D

 33 32  0     1  0  0  0  0  0999 V2000
   -2.9911   -4.8756    0.7314 H   0  0  0  0  0  0  0  0  0  0  0  0
   -2.9735   -3.9062    0.2250 C   0  0  0  0  0  0  0  0  0  0  0  0
   -3.8016   -3.2990    0.5982 H   0  0  0  0  0  0  0  0  0  0  0  0
   -3.1024   -4.0689   -0.8478 H   0  0  0  0  0  0  0  0  0  0  0  0
   -1.6543   -3.2047    0.4885 C   0  0  0  0  0  0  0  0  0  0  0  0
   -0.8251   -3.7290    1.2097 O   0  0  0  0  0  0  0  0  0  0  0  0
   -1.4106   -1.9723   -0.0868 N   0  0  0  0  0  0  0  0  0  0  0  0
   -2.0969   -1.6501   -0.7620 H   0  0  0  0  0  0  0  0  0  0  0  0
   -0.1026   -1.2896   -0.0591 C   0  0  1  0  0  0  0  0  0  0  0  0
    0.6322   -1.9614   -0.5071 H   0  0  0  0  0  0  0  0  0  0  0  0
   -0.2255    0.0289   -0.8661 C   0  0  0  0  0  0  0  0  0  0  0  0
   -1.2769    0.3196   -0.9593 H   0  0  0  0  0  0  0  0  0  0  0  0
    0.2661    0.8269   -0.2978 H   0  0  0  0  0  0  0  0  0  0  0  0
    0.4241    0.0300   -2.2647 C   0  0  0  0  0  0  0  0  0  0  0  0
   -0.2189   -0.5251   -2.9554 H   0  0  0  0  0  0  0  0  0  0  0  0
    0.4633    1.0671   -2.6145 H   0  0  0  0  0  0  0  0  0  0  0  0
    1.8342   -0.5800   -2.3227 C   0  0  0  0  0  0  0  0  0  0  0  0
    2.4217   -0.2366   -1.4646 H   0  0  0  0  0  0  0  0  0  0  0  0
    1.7749   -1.6719   -2.2820 H   0  0  0  0  0  0  0  0  0  0  0  0
    2.5471   -0.1814   -3.6115 C   0  0  0  0  0  0  0  0  0  0  0  0
    1.9442   -0.4665   -4.4808 H   0  0  0  0  0  0  0  0  0  0  0  0
    2.6932    0.9041   -3.6381 H   0  0  0  0  0  0  0  0  0  0  0  0
    3.8410   -0.8675   -3.6563 N   0  0  0  0  0  0  0  0  0  0  0  0
    4.3826   -0.5878   -4.4738 H   0  0  0  0  0  0  0  0  0  0  0  0
    4.3688   -0.7097   -2.7967 H   0  0  0  0  0  0  0  0  0  0  0  0
    0.4229   -0.9850    1.3630 C   0  0  0  0  0  0  0  0  0  0  0  0
    1.6285   -0.9702    1.5750 O   0  0  0  0  0  0  0  0  0  0  0  0
   -0.4321   -0.4557    2.3134 N   0  0  0  0  0  0  0  0  0  0  0  0
   -1.4235   -0.5708    2.1316 H   0  0  0  0  0  0  0  0  0  0  0  0
   -0.0013   -0.1305    3.6670 C   0  0  0  0  0  0  0  0  0  0  0  0
    0.8019    0.6137    3.6457 H   0  0  0  0  0  0  0  0  0  0  0  0
   -0.8364    0.2817    4.2411 H   0  0  0  0  0  0  0  0  0  0  0  0
    0.3635   -1.0280    4.1775 H   0  0  0  0  0  0  0  0  0  0  0  0
  1  2  1  0  0  0  0
  2  3  1  0  0  0  0
  2  4  1  0  0  0  0
  2  5  1  0  0  0  0
  5  6  2  0  0  0  0
  5  7  1  0  0  0  0
  7  8  1  0  0  0  0
  7  9  1  0  0  0  0
  9 10  1  0  0  0  0
  9 11  1  0  0  0  0
  9 26  1  0  0  0  0
 11 12  1  0  0  0  0
 11 13  1  0  0  0  0
 11 14  1  0  0  0  0
 14 15  1  0  0  0  0
 14 16  1  0  0  0  0
 14 17  1  0  0  0  0
 17 18  1  0  0  0  0
 17 19  1  0  0  0  0
 17 20  1  0  0  0  0
 20 21  1  0  0  0  0
 20 22  1  0  0  0  0
 20 23  1  0  0  0  0
 23 24  1  0  0  0  0
 23 25  1  0  0  0  0
 26 27  2  0  0  0  0
 26 28  1  0  0  0  0
 28 29  1  0  0  0  0
 28 30  1  0  0  0  0
 30 31  1  0  0  0  0
 30 32  1  0  0  0  0
 30 33  1  0  0  0  0
M  END
$$$$

  -OEChem-03222214063D

 33 32  0     1  0  0  0  0  0999 V2000
   -3.0185   -4.8771    0.7365 H   0  0  0  0  0  0  0  0  0  0  0  0
   -2.9949   -3.9014    0.2428 C   0  0  0  0  0  0  0  0  0  0  0  0
   -3.8167   -3.2927    0.6273 H   0  0  0  0  0  0  0  0  0  0  0  0
   -3.1299   -4.0490   -0.8313 H   0  0  0  0  0  0  0  0  0  0  0  0
   -1.6694   -3.2135    0.5107 C   0  0  0  0  0  0  0  0  0  0  0  0
   -0.8531   -3.7410    1.2441 O   0  0  0  0  0  0  0  0  0  0  0  0
   -1.4066   -1.9878   -0.0705 N   0  0  0  0  0  0  0  0  0  0  0  0
   -2.0790   -1.6663   -0.7599 H   0  0  0  0  0  0  0  0  0  0  0  0
   -0.0935   -1.3159   -0.0292 C   0  0  1  0  0  0  0  0  0  0  0  0
    0.6462   -1.9960   -0.4549 H   0  0  0  0  0  0  0  0  0  0  0  0
   -0.2021    0.0036   -0.8416 C   0  0  0  0  0  0  0  0  0  0  0  0
   -1.2493    0.3105   -0.9277 H   0  0  0  0  0  0  0  0  0  0  0  0
    0.2985    0.7899   -0.2650 H   0  0  0  0  0  0  0  0  0  0  0  0
    0.4501    0.0351   -2.2426 C   0  0  0  0  0  0  0  0  0  0  0  0
   -0.3003   -0.2744   -2.9776 H   0  0  0  0  0  0  0  0  0  0  0  0
    0.7156    1.0738   -2.4672 H   0  0  0  0  0  0  0  0  0  0  0  0
    1.6853   -0.8580   -2.4364 C   0  0  0  0  0  0  0  0  0  0  0  0
    2.3719   -0.7283   -1.5932 H   0  0  0  0  0  0  0  0  0  0  0  0
    1.3828   -1.9093   -2.4793 H   0  0  0  0  0  0  0  0  0  0  0  0
    2.4114   -0.5064   -3.7314 C   0  0  0  0  0  0  0  0  0  0  0  0
    1.7225   -0.5741   -4.5806 H   0  0  0  0  0  0  0  0  0  0  0  0
    2.7911    0.5200   -3.6808 H   0  0  0  0  0  0  0  0  0  0  0  0
    3.5195   -1.4479   -3.9132 N   0  0  0  0  0  0  0  0  0  0  0  0
    4.0682   -1.2194   -4.7420 H   0  0  0  0  0  0  0  0  0  0  0  0
    4.1115   -1.4808   -3.0822 H   0  0  0  0  0  0  0  0  0  0  0  0
    0.4101   -1.0060    1.4000 C   0  0  0  0  0  0  0  0  0  0  0  0
    1.6123   -0.9998    1.6315 O   0  0  0  0  0  0  0  0  0  0  0  0
   -0.4562   -0.4633    2.3322 N   0  0  0  0  0  0  0  0  0  0  0  0
   -1.4454   -0.5740    2.1363 H   0  0  0  0  0  0  0  0  0  0  0  0
   -0.0443   -0.1240    3.6881 C   0  0  0  0  0  0  0  0  0  0  0  0
    0.7721    0.6055    3.6699 H   0  0  0  0  0  0  0  0  0  0  0  0
   -0.8823    0.3122    4.2396 H   0  0  0  0  0  0  0  0  0  0  0  0
    0.2951   -1.0195    4.2193 H   0  0  0  0  0  0  0  0  0  0  0  0
  1  2  1  0  0  0  0
  2  3  1  0  0  0  0
  2  4  1  0  0  0  0
  2  5  1  0  0  0  0
  5  6  2  0  0  0  0
  5  7  1  0  0  0  0
  7  8  1  0  0  0  0
  7  9  1  0  0  0  0
  9 10  1  0  0  0  0
  9 11  1  0  0  0  0
  9 26  1  0  0  0  0
 11 12  1  0  0  0  0
 11 13  1  0  0  0  0
 11 14  1  0  0  0  0
 14 15  1  0  0  0  0
 14 16  1  0  0  0  0
 14 17  1  0  0  0  0
 17 18  1  0  0  0  0
 17 19  1  0  0  0  0
 17 20  1  0  0  0  0
 20 21  1  0  0  0  0
 20 22  1  0  0  0  0
 20 23  1  0  0  0  0
 23 24  1  0  0  0  0
 23 25  1  0  0  0  0
 26 27  2  0  0  0  0
 26 28  1  0  0  0  0
 28 29  1  0  0  0  0
 28 30  1  0  0  0  0
 30 31  1  0  0  0  0
 30 32  1  0  0  0  0
 30 33  1  0  0  0  0
M  END
$$$$

  -OEChem-03222214063D

 33 32  0     1  0  0  0  0  0999 V2000
   -3.0363   -4.8637    0.7426 H   0  0  0  0  0  0  0  0  0  0  0  0
   -2.9877   -3.9045    0.2189 C   0  0  0  0  0  0  0  0  0  0  0  0
   -3.8270   -3.2844    0.5424 H   0  0  0  0  0  0  0  0  0  0  0  0
   -3.0690   -4.0872   -0.8553 H   0  0  0  0  0  0  0  0  0  0  0  0
   -1.6763   -3.2072    0.5282 C   0  0  0  0  0  0  0  0  0  0  0  0
   -0.8810   -3.7270    1.2897 O   0  0  0  0  0  0  0  0  0  0  0  0
   -1.4011   -1.9848   -0.0539 N   0  0  0  0  0  0  0  0  0  0  0  0
   -2.0529   -1.6761   -0.7687 H   0  0  0  0  0  0  0  0  0  0  0  0
   -0.0858   -1.3181    0.0035 C   0  0  1  0  0  0  0  0  0  0  0  0
    0.6602   -2.0029   -0.4030 H   0  0  0  0  0  0  0  0  0  0  0  0
   -0.1771    0.0017   -0.8134 C   0  0  0  0  0  0  0  0  0  0  0  0
   -1.2231    0.3106   -0.9089 H   0  0  0  0  0  0  0  0  0  0  0  0
    0.3148    0.7865   -0.2274 H   0  0  0  0  0  0  0  0  0  0  0  0
    0.4884    0.0482   -2.2113 C   0  0  0  0  0  0  0  0  0  0  0  0
   -0.3072    0.0158   -2.9630 H   0  0  0  0  0  0  0  0  0  0  0  0
    0.9911    1.0156   -2.3161 H   0  0  0  0  0  0  0  0  0  0  0  0
    1.4861   -1.0697   -2.5479 C   0  0  0  0  0  0  0  0  0  0  0  0
    2.2575   -1.1237   -1.7723 H   0  0  0  0  0  0  0  0  0  0  0  0
    0.9651   -2.0320   -2.5896 H   0  0  0  0  0  0  0  0  0  0  0  0
    2.1536   -0.8141   -3.8954 C   0  0  0  0  0  0  0  0  0  0  0  0
    1.3954   -0.7080   -4.6794 H   0  0  0  0  0  0  0  0  0  0  0  0
    2.7352    0.1137   -3.8556 H   0  0  0  0  0  0  0  0  0  0  0  0
    3.0290   -1.9492   -4.1998 N   0  0  0  0  0  0  0  0  0  0  0  0
    3.5331   -1.8049   -5.0745 H   0  0  0  0  0  0  0  0  0  0  0  0
    3.6771   -2.1270   -3.4315 H   0  0  0  0  0  0  0  0  0  0  0  0
    0.3977   -1.0059    1.4395 C   0  0  0  0  0  0  0  0  0  0  0  0
    1.5968   -1.0034    1.6870 O   0  0  0  0  0  0  0  0  0  0  0  0
   -0.4781   -0.4569    2.3591 N   0  0  0  0  0  0  0  0  0  0  0  0
   -1.4650   -0.5690    2.1524 H   0  0  0  0  0  0  0  0  0  0  0  0
   -0.0816   -0.1229    3.7210 C   0  0  0  0  0  0  0  0  0  0  0  0
    0.7242    0.6188    3.7149 H   0  0  0  0  0  0  0  0  0  0  0  0
   -0.9300    0.2958    4.2704 H   0  0  0  0  0  0  0  0  0  0  0  0
    0.2671   -1.0178    4.2475 H   0  0  0  0  0  0  0  0  0  0  0  0
  1  2  1  0  0  0  0
  2  3  1  0  0  0  0
  2  4  1  0  0  0  0
  2  5  1  0  0  0  0
  5  6  2  0  0  0  0
  5  7  1  0  0  0  0
  7  8  1  0  0  0  0
  7  9  1  0  0  0  0
  9 10  1  0  0  0  0
  9 11  1  0  0  0  0
  9 26  1  0  0  0  0
 11 12  1  0  0  0  0
 11 13  1  0  0  0  0
 11 14  1  0  0  0  0
 14 15  1  0  0  0  0
 14 16  1  0  0  0  0
 14 17  1  0  0  0  0
 17 18  1  0  0  0  0
 17 19  1  0  0  0  0
 17 20  1  0  0  0  0
 20 21  1  0  0  0  0
 20 22  1  0  0  0  0
 20 23  1  0  0  0  0
 23 24  1  0  0  0  0
 23 25  1  0  0  0  0
 26 27  2  0  0  0  0
 26 28  1  0  0  0  0
 28 29  1  0  0  0  0
 28 30  1  0  0  0  0
 30 31  1  0  0  0  0
 30 32  1  0  0  0  0
 30 33  1  0  0  0  0
M  END
$$$$

  -OEChem-03222214063D

 33 32  0     1  0  0  0  0  0999 V2000
   -3.0230   -4.8753    0.7158 H   0  0  0  0  0  0  0  0  0  0  0  0
   -2.9771   -3.9076    0.2082 C   0  0  0  0  0  0  0  0  0  0  0  0
   -3.8203   -3.2967    0.5388 H   0  0  0  0  0  0  0  0  0  0  0  0
   -3.0541   -4.0733   -0.8691 H   0  0  0  0  0  0  0  0  0  0  0  0
   -1.6702   -3.2094    0.5340 C   0  0  0  0  0  0  0  0  0  0  0  0
   -0.8879   -3.7246    1.3120 O   0  0  0  0  0  0  0  0  0  0  0  0
   -1.3860   -1.9895   -0.0493 N   0  0  0  0  0  0  0  0  0  0  0  0
   -2.0232   -1.6886   -0.7805 H   0  0  0  0  0  0  0  0  0  0  0  0
   -0.0708   -1.3236    0.0235 C   0  0  1  0  0  0  0  0  0  0  0  0
    0.6836   -2.0066   -0.3705 H   0  0  0  0  0  0  0  0  0  0  0  0
   -0.1489   -0.0024   -0.7930 C   0  0  0  0  0  0  0  0  0  0  0  0
   -1.1979    0.2881   -0.9115 H   0  0  0  0  0  0  0  0  0  0  0  0
    0.3156    0.7936   -0.2000 H   0  0  0  0  0  0  0  0  0  0  0  0
    0.5335    0.0463   -2.1840 C   0  0  0  0  0  0  0  0  0  0  0  0
   -0.2317    0.3076   -2.9226 H   0  0  0  0  0  0  0  0  0  0  0  0
    1.2638    0.8627   -2.1758 H   0  0  0  0  0  0  0  0  0  0  0  0
    1.2461   -1.2269   -2.6645 C   0  0  0  0  0  0  0  0  0  0  0  0
    2.0651   -1.4758   -1.9819 H   0  0  0  0  0  0  0  0  0  0  0  0
    0.5387   -2.0629   -2.6814 H   0  0  0  0  0  0  0  0  0  0  0  0
    1.8178   -1.0318   -4.0657 C   0  0  0  0  0  0  0  0  0  0  0  0
    1.0232   -0.7398   -4.7611 H   0  0  0  0  0  0  0  0  0  0  0  0
    2.5713   -0.2362   -4.0558 H   0  0  0  0  0  0  0  0  0  0  0  0
    2.4191   -2.2952   -4.5010 N   0  0  0  0  0  0  0  0  0  0  0  0
    2.8386   -2.2061   -5.4264 H   0  0  0  0  0  0  0  0  0  0  0  0
    3.1053   -2.6261   -3.8218 H   0  0  0  0  0  0  0  0  0  0  0  0
    0.3912   -1.0068    1.4655 C   0  0  0  0  0  0  0  0  0  0  0  0
    1.5862   -1.0064    1.7322 O   0  0  0  0  0  0  0  0  0  0  0  0
   -0.4981   -0.4539    2.3698 N   0  0  0  0  0  0  0  0  0  0  0  0
   -1.4821   -0.5617    2.1472 H   0  0  0  0  0  0  0  0  0  0  0  0
   -0.1221   -0.1063    3.7342 C   0  0  0  0  0  0  0  0  0  0  0  0
    0.6868    0.6319    3.7325 H   0  0  0  0  0  0  0  0  0  0  0  0
   -0.9773    0.3226    4.2648 H   0  0  0  0  0  0  0  0  0  0  0  0
    0.2136   -0.9964    4.2766 H   0  0  0  0  0  0  0  0  0  0  0  0
  1  2  1  0  0  0  0
  2  3  1  0  0  0  0
  2  4  1  0  0  0  0
  2  5  1  0  0  0  0
  5  6  2  0  0  0  0
  5  7  1  0  0  0  0
  7  8  1  0  0  0  0
  7  9  1  0  0  0  0
  9 10  1  0  0  0  0
  9 11  1  0  0  0  0
  9 26  1  0  0  0  0
 11 12  1  0  0  0  0
 11 13  1  0  0  0  0
 11 14  1  0  0  0  0
 14 15  1  0  0  0  0
 14 16  1  0  0  0  0
 14 17  1  0  0  0  0
 17 18  1  0  0  0  0
 17 19  1  0  0  0  0
 17 20  1  0  0  0  0
 20 21  1  0  0  0  0
 20 22  1  0  0  0  0
 20 23  1  0  0  0  0
 23 24  1  0  0  0  0
 23 25  1  0  0  0  0
 26 27  2  0  0  0  0
 26 28  1  0  0  0  0
 28 29  1  0  0  0  0
 28 30  1  0  0  0  0
 30 31  1  0  0  0  0
 30 32  1  0  0  0  0
 30 33  1  0  0  0  0
M  END
$$$$

  -OEChem-03222214063D

 33 32  0     1  0  0  0  0  0999 V2000
   -3.0048   -4.8746    0.7084 H   0  0  0  0  0  0  0  0  0  0  0  0
   -2.9577   -3.9095    0.1958 C   0  0  0  0  0  0  0  0  0  0  0  0
   -3.8062   -3.2998    0.5150 H   0  0  0  0  0  0  0  0  0  0  0  0
   -3.0246   -4.0817   -0.8813 H   0  0  0  0  0  0  0  0  0  0  0  0
   -1.6560   -3.2046    0.5288 C   0  0  0  0  0  0  0  0  0  0  0  0
   -0.8732   -3.7173    1.3080 O   0  0  0  0  0  0  0  0  0  0  0  0
   -1.3749   -1.9835   -0.0533 N   0  0  0  0  0  0  0  0  0  0  0  0
   -2.0122   -1.6834   -0.7848 H   0  0  0  0  0  0  0  0  0  0  0  0
   -0.0631   -1.3110    0.0249 C   0  0  1  0  0  0  0  0  0  0  0  0
    0.6987   -1.9882   -0.3651 H   0  0  0  0  0  0  0  0  0  0  0  0
   -0.1324    0.0080   -0.7934 C   0  0  0  0  0  0  0  0  0  0  0  0
   -1.1838    0.2756   -0.9393 H   0  0  0  0  0  0  0  0  0  0  0  0
    0.3053    0.8198   -0.2013 H   0  0  0  0  0  0  0  0  0  0  0  0
    0.5669    0.0383   -2.1749 C   0  0  0  0  0  0  0  0  0  0  0  0
   -0.0909    0.5663   -2.8732 H   0  0  0  0  0  0  0  0  0  0  0  0
    1.4807    0.6349   -2.0803 H   0  0  0  0  0  0  0  0  0  0  0  0
    0.9595   -1.3169   -2.7851 C   0  0  0  0  0  0  0  0  0  0  0  0
    1.7661   -1.7726   -2.2025 H   0  0  0  0  0  0  0  0  0  0  0  0
    0.0966   -1.9908   -2.7736 H   0  0  0  0  0  0  0  0  0  0  0  0
    1.4395   -1.1450   -4.2232 C   0  0  0  0  0  0  0  0  0  0  0  0
    0.6652   -0.6576   -4.8260 H   0  0  0  0  0  0  0  0  0  0  0  0
    2.3359   -0.5151   -4.2460 H   0  0  0  0  0  0  0  0  0  0  0  0
    1.7352   -2.4710   -4.7726 N   0  0  0  0  0  0  0  0  0  0  0  0
    2.0804   -2.4061   -5.7303 H   0  0  0  0  0  0  0  0  0  0  0  0
    2.3995   -2.9711   -4.1809 H   0  0  0  0  0  0  0  0  0  0  0  0
    0.3900   -0.9923    1.4689 C   0  0  0  0  0  0  0  0  0  0  0  0
    1.5838   -0.9851    1.7404 O   0  0  0  0  0  0  0  0  0  0  0  0
   -0.5065   -0.4441    2.3688 N   0  0  0  0  0  0  0  0  0  0  0  0
   -1.4886   -0.5593    2.1413 H   0  0  0  0  0  0  0  0  0  0  0  0
   -0.1398   -0.1062    3.7382 C   0  0  0  0  0  0  0  0  0  0  0  0
    0.6661    0.6352    3.7483 H   0  0  0  0  0  0  0  0  0  0  0  0
   -0.9999    0.3145    4.2673 H   0  0  0  0  0  0  0  0  0  0  0  0
    0.1966   -0.9996    4.2746 H   0  0  0  0  0  0  0  0  0  0  0  0
  1  2  1  0  0  0  0
  2  3  1  0  0  0  0
  2  4  1  0  0  0  0
  2  5  1  0  0  0  0
  5  6  2  0  0  0  0
  5  7  1  0  0  0  0
  7  8  1  0  0  0  0
  7  9  1  0  0  0  0
  9 10  1  0  0  0  0
  9 11  1  0  0  0  0
  9 26  1  0  0  0  0
 11 12  1  0  0  0  0
 11 13  1  0  0  0  0
 11 14  1  0  0  0  0
 14 15  1  0  0  0  0
 14 16  1  0  0  0  0
 14 17  1  0  0  0  0
 17 18  1  0  0  0  0
 17 19  1  0  0  0  0
 17 20  1  0  0  0  0
 20 21  1  0  0  0  0
 20 22  1  0  0  0  0
 20 23  1  0  0  0  0
 23 24  1  0  0  0  0
 23 25  1  0  0  0  0
 26 27  2  0  0  0  0
 26 28  1  0  0  0  0
 28 29  1  0  0  0  0
 28 30  1  0  0  0  0
 30 31  1  0  0  0  0
 30 32  1  0  0  0  0
 30 33  1  0  0  0  0
M  END
$$$$

  -OEChem-03222214063D

 33 32  0     1  0  0  0  0  0999 V2000
   -2.9834   -4.8761    0.6930 H   0  0  0  0  0  0  0  0  0  0  0  0
   -2.9452   -3.9062    0.1889 C   0  0  0  0  0  0  0  0  0  0  0  0
   -3.7907   -3.3013    0.5248 H   0  0  0  0  0  0  0  0  0  0  0  0
   -3.0250   -4.0682   -0.8888 H   0  0  0  0  0  0  0  0  0  0  0  0
   -1.6414   -3.2011    0.5121 C   0  0  0  0  0  0  0  0  0  0  0  0
   -0.8481   -3.7179    1.2780 O   0  0  0  0  0  0  0  0  0  0  0  0
   -1.3686   -1.9763   -0.0657 N   0  0  0  0  0  0  0  0  0  0  0  0
   -2.0146   -1.6718   -0.7880 H   0  0  0  0  0  0  0  0  0  0  0  0
   -0.0600   -1.2972    0.0086 C   0  0  1  0  0  0  0  0  0  0  0  0
    0.7082   -1.9629   -0.3906 H   0  0  0  0  0  0  0  0  0  0  0  0
   -0.1342    0.0220   -0.8045 C   0  0  0  0  0  0  0  0  0  0  0  0
   -1.1865    0.2816   -0.9584 H   0  0  0  0  0  0  0  0  0  0  0  0
    0.2995    0.8397   -0.2177 H   0  0  0  0  0  0  0  0  0  0  0  0
    0.5689    0.0283   -2.1805 C   0  0  0  0  0  0  0  0  0  0  0  0
    0.0671    0.7671   -2.8141 H   0  0  0  0  0  0  0  0  0  0  0  0
    1.6002    0.3691   -2.0378 H   0  0  0  0  0  0  0  0  0  0  0  0
    0.6210   -1.3247   -2.9112 C   0  0  0  0  0  0  0  0  0  0  0  0
    1.3164   -2.0046   -2.4113 H   0  0  0  0  0  0  0  0  0  0  0  0
   -0.3738   -1.7817   -2.9066 H   0  0  0  0  0  0  0  0  0  0  0  0
    1.0804   -1.1443   -4.3548 C   0  0  0  0  0  0  0  0  0  0  0  0
    0.4138   -0.4524   -4.8813 H   0  0  0  0  0  0  0  0  0  0  0  0
    2.0927   -0.7255   -4.3767 H   0  0  0  0  0  0  0  0  0  0  0  0
    1.0578   -2.4541   -5.0123 N   0  0  0  0  0  0  0  0  0  0  0  0
    1.3634   -2.3849   -5.9831 H   0  0  0  0  0  0  0  0  0  0  0  0
    1.6276   -3.1289   -4.5007 H   0  0  0  0  0  0  0  0  0  0  0  0
    0.3969   -0.9830    1.4522 C   0  0  0  0  0  0  0  0  0  0  0  0
    1.5915   -0.9725    1.7206 O   0  0  0  0  0  0  0  0  0  0  0  0
   -0.4995   -0.4438    2.3578 N   0  0  0  0  0  0  0  0  0  0  0  0
   -1.4818   -0.5592    2.1315 H   0  0  0  0  0  0  0  0  0  0  0  0
   -0.1310   -0.1132    3.7283 C   0  0  0  0  0  0  0  0  0  0  0  0
    0.6709    0.6325    3.7408 H   0  0  0  0  0  0  0  0  0  0  0  0
   -0.9922    0.2989    4.2628 H   0  0  0  0  0  0  0  0  0  0  0  0
    0.2117   -1.0085    4.2580 H   0  0  0  0  0  0  0  0  0  0  0  0
  1  2  1  0  0  0  0
  2  3  1  0  0  0  0
  2  4  1  0  0  0  0
  2  5  1  0  0  0  0
  5  6  2  0  0  0  0
  5  7  1  0  0  0  0
  7  8  1  0  0  0  0
  7  9  1  0  0  0  0
  9 10  1  0  0  0  0
  9 11  1  0  0  0  0
  9 26  1  0  0  0  0
 11 12  1  0  0  0  0
 11 13  1  0  0  0  0
 11 14  1  0  0  0  0
 14 15  1  0  0  0  0
 14 16  1  0  0  0  0
 14 17  1  0  0  0  0
 17 18  1  0  0  0  0
 17 19  1  0  0  0  0
 17 20  1  0  0  0  0
 20 21  1  0  0  0  0
 20 22  1  0  0  0  0
 20 23  1  0  0  0  0
 23 24  1  0  0  0  0
 23 25  1  0  0  0  0
 26 27  2  0  0  0  0
 26 28  1  0  0  0  0
 28 29  1  0  0  0  0
 28 30  1  0  0  0  0
 30 31  1  0  0  0  0
 30 32  1  0  0  0  0
 30 33  1  0  0  0  0
M  END
$$$$

  -OEChem-03222214063D

 33 32  0     1  0  0  0  0  0999 V2000
   -2.9549   -4.8823    0.6625 H   0  0  0  0  0  0  0  0  0  0  0  0
   -2.9342   -3.9051    0.1718 C   0  0  0  0  0  0  0  0  0  0  0  0
   -3.7766   -3.3113    0.5345 H   0  0  0  0  0  0  0  0  0  0  0  0
   -3.0370   -4.0523   -0.9060 H   0  0  0  0  0  0  0  0  0  0  0  0
   -1.6280   -3.1958    0.4768 C   0  0  0  0  0  0  0  0  0  0  0  0
   -0.8149   -3.7184    1.2176 O   0  0  0  0  0  0  0  0  0  0  0  0
   -1.3752   -1.9605   -0.0872 N   0  0  0  0  0  0  0  0  0  0  0  0
   -2.0348   -1.6519   -0.7954 H   0  0  0  0  0  0  0  0  0  0  0  0
   -0.0721   -1.2701   -0.0240 C   0  0  1  0  0  0  0  0  0  0  0  0
    0.6990   -1.9164   -0.4528 H   0  0  0  0  0  0  0  0  0  0  0  0
   -0.1720    0.0548   -0.8196 C   0  0  0  0  0  0  0  0  0  0  0  0
   -1.2257    0.3166   -0.9600 H   0  0  0  0  0  0  0  0  0  0  0  0
    0.2759    0.8690   -0.2386 H   0  0  0  0  0  0  0  0  0  0  0  0
    0.5214    0.0396   -2.1953 C   0  0  0  0  0  0  0  0  0  0  0  0
    0.2040    0.9284   -2.7507 H   0  0  0  0  0  0  0  0  0  0  0  0
    1.6032    0.1160   -2.0420 H   0  0  0  0  0  0  0  0  0  0  0  0
    0.2384   -1.2203   -3.0323 C   0  0  0  0  0  0  0  0  0  0  0  0
    0.7001   -2.1014   -2.5789 H   0  0  0  0  0  0  0  0  0  0  0  0
   -0.8421   -1.3895   -3.0813 H   0  0  0  0  0  0  0  0  0  0  0  0
    0.7841   -1.0614   -4.4478 C   0  0  0  0  0  0  0  0  0  0  0  0
    0.3358   -0.1853   -4.9291 H   0  0  0  0  0  0  0  0  0  0  0  0
    1.8698   -0.9156   -4.4187 H   0  0  0  0  0  0  0  0  0  0  0  0
    0.4542   -2.2708   -5.2076 N   0  0  0  0  0  0  0  0  0  0  0  0
    0.7846   -2.2021   -6.1705 H   0  0  0  0  0  0  0  0  0  0  0  0
    0.8345   -3.1017   -4.7534 H   0  0  0  0  0  0  0  0  0  0  0  0
    0.4078   -0.9707    1.4153 C   0  0  0  0  0  0  0  0  0  0  0  0
    1.6070   -0.9545    1.6620 O   0  0  0  0  0  0  0  0  0  0  0  0
   -0.4764   -0.4523    2.3443 N   0  0  0  0  0  0  0  0  0  0  0  0
   -1.4616   -0.5735    2.1343 H   0  0  0  0  0  0  0  0  0  0  0  0
   -0.0857   -0.1397    3.7129 C   0  0  0  0  0  0  0  0  0  0  0  0
    0.7083    0.6144    3.7224 H   0  0  0  0  0  0  0  0  0  0  0  0
   -0.9409    0.2542    4.2700 H   0  0  0  0  0  0  0  0  0  0  0  0
    0.2764   -1.0397    4.2211 H   0  0  0  0  0  0  0  0  0  0  0  0
  1  2  1  0  0  0  0
  2  3  1  0  0  0  0
  2  4  1  0  0  0  0
  2  5  1  0  0  0  0
  5  6  2  0  0  0  0
  5  7  1  0  0  0  0
  7  8  1  0  0  0  0
  7  9  1  0  0  0  0
  9 10  1  0  0  0  0
  9 11  1  0  0  0  0
  9 26  1  0  0  0  0
 11 12  1  0  0  0  0
 11 13  1  0  0  0  0
 11 14  1  0  0  0  0
 14 15  1  0  0  0  0
 14 16  1  0  0  0  0
 14 17  1  0  0  0  0
 17 18  1  0  0  0  0
 17 19  1  0  0  0  0
 17 20  1  0  0  0  0
 20 21  1  0  0  0  0
 20 22  1  0  0  0  0
 20 23  1  0  0  0  0
 23 24  1  0  0  0  0
 23 25  1  0  0  0  0
 26 27  2  0  0  0  0
 26 28  1  0  0  0  0
 28 29  1  0  0  0  0
 28 30  1  0  0  0  0
 30 31  1  0  0  0  0
 30 32  1  0  0  0  0
 30 33  1  0  0  0  0
M  END
$$$$

  -OEChem-03222214063D

 33 32  0     1  0  0  0  0  0999 V2000
   -2.9118   -4.8936    0.5785 H   0  0  0  0  0  0  0  0  0  0  0  0
   -2.9200   -3.8962    0.1295 C   0  0  0  0  0  0  0  0  0  0  0  0
   -3.7518   -3.3270    0.5514 H   0  0  0  0  0  0  0  0  0  0  0  0
   -3.0663   -3.9986   -0.9485 H   0  0  0  0  0  0  0  0  0  0  0  0
   -1.6089   -3.1868    0.4115 C   0  0  0  0  0  0  0  0  0  0  0  0
   -0.7660   -3.7274    1.1042 O   0  0  0  0  0  0  0  0  0  0  0  0
   -1.3832   -1.9324   -0.1209 N   0  0  0  0  0  0  0  0  0  0  0  0
   -2.0716   -1.5984   -0.7892 H   0  0  0  0  0  0  0  0  0  0  0  0
   -0.0887   -1.2261   -0.0615 C   0  0  1  0  0  0  0  0  0  0  0  0
    0.6770   -1.8517   -0.5327 H   0  0  0  0  0  0  0  0  0  0  0  0
   -0.2194    0.1097   -0.8297 C   0  0  0  0  0  0  0  0  0  0  0  0
   -1.2736    0.3784   -0.9516 H   0  0  0  0  0  0  0  0  0  0  0  0
    0.2450    0.9135   -0.2477 H   0  0  0  0  0  0  0  0  0  0  0  0
    0.4683    0.0826   -2.2036 C   0  0  0  0  0  0  0  0  0  0  0  0
    0.3513    1.0651   -2.6729 H   0  0  0  0  0  0  0  0  0  0  0  0
    1.5409   -0.0936   -2.0666 H   0  0  0  0  0  0  0  0  0  0  0  0
   -0.1129   -0.9960   -3.1315 C   0  0  0  0  0  0  0  0  0  0  0  0
    0.0597   -1.9922   -2.7140 H   0  0  0  0  0  0  0  0  0  0  0  0
   -1.1939   -0.8518   -3.2269 H   0  0  0  0  0  0  0  0  0  0  0  0
    0.5254   -0.9220   -4.5147 C   0  0  0  0  0  0  0  0  0  0  0  0
    0.3404    0.0607   -4.9626 H   0  0  0  0  0  0  0  0  0  0  0  0
    1.6094   -1.0624   -4.4376 H   0  0  0  0  0  0  0  0  0  0  0  0
   -0.0632   -1.9721   -5.3512 N   0  0  0  0  0  0  0  0  0  0  0  0
    0.3118   -1.9402   -6.2996 H   0  0  0  0  0  0  0  0  0  0  0  0
    0.0826   -2.8928   -4.9365 H   0  0  0  0  0  0  0  0  0  0  0  0
    0.4185   -0.9591    1.3743 C   0  0  0  0  0  0  0  0  0  0  0  0
    1.6220   -0.9369    1.5974 O   0  0  0  0  0  0  0  0  0  0  0  0
   -0.4530   -0.4781    2.3350 N   0  0  0  0  0  0  0  0  0  0  0  0
   -1.4411   -0.5974    2.1385 H   0  0  0  0  0  0  0  0  0  0  0  0
   -0.0395   -0.1884    3.7020 C   0  0  0  0  0  0  0  0  0  0  0  0
    0.7524    0.5679    3.7113 H   0  0  0  0  0  0  0  0  0  0  0  0
   -0.8860    0.1937    4.2802 H   0  0  0  0  0  0  0  0  0  0  0  0
    0.3332   -1.0960    4.1881 H   0  0  0  0  0  0  0  0  0  0  0  0
  1  2  1  0  0  0  0
  2  3  1  0  0  0  0
  2  4  1  0  0  0  0
  2  5  1  0  0  0  0
  5  6  2  0  0  0  0
  5  7  1  0  0  0  0
  7  8  1  0  0  0  0
  7  9  1  0  0  0  0
  9 10  1  0  0  0  0
  9 11  1  0  0  0  0
  9 26  1  0  0  0  0
 11 12  1  0  0  0  0
 11 13  1  0  0  0  0
 11 14  1  0  0  0  0
 14 15  1  0  0  0  0
 14 16  1  0  0  0  0
 14 17  1  0  0  0  0
 17 18  1  0  0  0  0
 17 19  1  0  0  0  0
 17 20  1  0  0  0  0
 20 21  1  0  0  0  0
 20 22  1  0  0  0  0
 20 23  1  0  0  0  0
 23 24  1  0  0  0  0
 23 25  1  0  0  0  0
 26 27  2  0  0  0  0
 26 28  1  0  0  0  0
 28 29  1  0  0  0  0
 28 30  1  0  0  0  0
 30 31  1  0  0  0  0
 30 32  1  0  0  0  0
 30 33  1  0  0  0  0
M  END
$$$$

  -OEChem-03222214063D

 33 32  0     1  0  0  0  0  0999 V2000
   -2.9103   -4.8871    0.5365 H   0  0  0  0  0  0  0  0  0  0  0  0
   -2.9192   -3.8857    0.0965 C   0  0  0  0  0  0  0  0  0  0  0  0
   -3.7482   -3.3194    0.5276 H   0  0  0  0  0  0  0  0  0  0  0  0
   -3.0709   -3.9782   -0.9817 H   0  0  0  0  0  0  0  0  0  0  0  0
   -1.6059   -3.1801    0.3784 C   0  0  0  0  0  0  0  0  0  0  0  0
   -0.7575   -3.7293    1.0576 O   0  0  0  0  0  0  0  0  0  0  0  0
   -1.3847   -1.9183   -0.1380 N   0  0  0  0  0  0  0  0  0  0  0  0
   -2.0814   -1.5709   -0.7908 H   0  0  0  0  0  0  0  0  0  0  0  0
   -0.0929   -1.2084   -0.0742 C   0  0  1  0  0  0  0  0  0  0  0  0
    0.6673   -1.8287   -0.5619 H   0  0  0  0  0  0  0  0  0  0  0  0
   -0.2382    0.1319   -0.8309 C   0  0  0  0  0  0  0  0  0  0  0  0
   -1.2909    0.4124   -0.9389 H   0  0  0  0  0  0  0  0  0  0  0  0
    0.2405    0.9261   -0.2469 H   0  0  0  0  0  0  0  0  0  0  0  0
    0.4510    0.0987   -2.2023 C   0  0  0  0  0  0  0  0  0  0  0  0
    0.5454    1.1259   -2.5703 H   0  0  0  0  0  0  0  0  0  0  0  0
    1.4628   -0.3102   -2.1064 H   0  0  0  0  0  0  0  0  0  0  0  0
   -0.3618   -0.7171   -3.2162 C   0  0  0  0  0  0  0  0  0  0  0  0
   -0.4432   -1.7545   -2.8768 H   0  0  0  0  0  0  0  0  0  0  0  0
   -1.3733   -0.3057   -3.2956 H   0  0  0  0  0  0  0  0  0  0  0  0
    0.3000   -0.6890   -4.5901 C   0  0  0  0  0  0  0  0  0  0  0  0
    0.3582    0.3418   -4.9570 H   0  0  0  0  0  0  0  0  0  0  0  0
    1.3196   -1.0855   -4.5265 H   0  0  0  0  0  0  0  0  0  0  0  0
   -0.5024   -1.5029   -5.5080 N   0  0  0  0  0  0  0  0  0  0  0  0
   -0.1241   -1.4690   -6.4550 H   0  0  0  0  0  0  0  0  0  0  0  0
   -0.5673   -2.4664   -5.1798 H   0  0  0  0  0  0  0  0  0  0  0  0
    0.4227   -0.9556    1.3608 C   0  0  0  0  0  0  0  0  0  0  0  0
    1.6277   -0.9314    1.5754 O   0  0  0  0  0  0  0  0  0  0  0  0
   -0.4441   -0.4885    2.3324 N   0  0  0  0  0  0  0  0  0  0  0  0
   -1.4334   -0.6074    2.1414 H   0  0  0  0  0  0  0  0  0  0  0  0
   -0.0212   -0.2050    3.6977 C   0  0  0  0  0  0  0  0  0  0  0  0
    0.7636    0.5588    3.7058 H   0  0  0  0  0  0  0  0  0  0  0  0
   -0.8662    0.1646    4.2861 H   0  0  0  0  0  0  0  0  0  0  0  0
    0.3650   -1.1122    4.1741 H   0  0  0  0  0  0  0  0  0  0  0  0
  1  2  1  0  0  0  0
  2  3  1  0  0  0  0
  2  4  1  0  0  0  0
  2  5  1  0  0  0  0
  5  6  2  0  0  0  0
  5  7  1  0  0  0  0
  7  8  1  0  0  0  0
  7  9  1  0  0  0  0
  9 10  1  0  0  0  0
  9 11  1  0  0  0  0
  9 26  1  0  0  0  0
 11 12  1  0  0  0  0
 11 13  1  0  0  0  0
 11 14  1  0  0  0  0
 14 15  1  0  0  0  0
 14 16  1  0  0  0  0
 14 17  1  0  0  0  0
 17 18  1  0  0  0  0
 17 19  1  0  0  0  0
 17 20  1  0  0  0  0
 20 21  1  0  0  0  0
 20 22  1  0  0  0  0
 20 23  1  0  0  0  0
 23 24  1  0  0  0  0
 23 25  1  0  0  0  0
 26 27  2  0  0  0  0
 26 28  1  0  0  0  0
 28 29  1  0  0  0  0
 28 30  1  0  0  0  0
 30 31  1  0  0  0  0
 30 32  1  0  0  0  0
 30 33  1  0  0  0  0
M  END
$$$$

  -OEChem-03222214063D

 33 32  0     1  0  0  0  0  0999 V2000
   -2.9181   -4.8807    0.5503 H   0  0  0  0  0  0  0  0  0  0  0  0
   -2.9242   -3.8798    0.1092 C   0  0  0  0  0  0  0  0  0  0  0  0
   -3.7440   -3.3068    0.5486 H   0  0  0  0  0  0  0  0  0  0  0  0
   -3.0873   -3.9722   -0.9673 H   0  0  0  0  0  0  0  0  0  0  0  0
   -1.6031   -3.1833    0.3763 C   0  0  0  0  0  0  0  0  0  0  0  0
   -0.7488   -3.7393    1.0424 O   0  0  0  0  0  0  0  0  0  0  0  0
   -1.3817   -1.9216   -0.1397 N   0  0  0  0  0  0  0  0  0  0  0  0
   -2.0887   -1.5624   -0.7744 H   0  0  0  0  0  0  0  0  0  0  0  0
   -0.0913   -1.2103   -0.0761 C   0  0  1  0  0  0  0  0  0  0  0  0
    0.6683   -1.8329   -0.5614 H   0  0  0  0  0  0  0  0  0  0  0  0
   -0.2459    0.1281   -0.8343 C   0  0  0  0  0  0  0  0  0  0  0  0
   -1.2978    0.4176   -0.9269 H   0  0  0  0  0  0  0  0  0  0  0  0
    0.2427    0.9172   -0.2514 H   0  0  0  0  0  0  0  0  0  0  0  0
    0.4395    0.1007   -2.2094 C   0  0  0  0  0  0  0  0  0  0  0  0
    0.7501    1.1205   -2.4609 H   0  0  0  0  0  0  0  0  0  0  0  0
    1.3444   -0.5158   -2.1851 H   0  0  0  0  0  0  0  0  0  0  0  0
   -0.5259   -0.3905   -3.2944 C   0  0  0  0  0  0  0  0  0  0  0  0
   -0.8526   -1.4082   -3.0590 H   0  0  0  0  0  0  0  0  0  0  0  0
   -1.4117    0.2526   -3.3237 H   0  0  0  0  0  0  0  0  0  0  0  0
    0.1476   -0.3781   -4.6630 C   0  0  0  0  0  0  0  0  0  0  0  0
    0.4529    0.6425   -4.9196 H   0  0  0  0  0  0  0  0  0  0  0  0
    1.0441   -1.0080   -4.6487 H   0  0  0  0  0  0  0  0  0  0  0  0
   -0.8062   -0.8804   -5.6564 N   0  0  0  0  0  0  0  0  0  0  0  0
   -0.4174   -0.8280   -6.5984 H   0  0  0  0  0  0  0  0  0  0  0  0
   -1.0950   -1.8336   -5.4373 H   0  0  0  0  0  0  0  0  0  0  0  0
    0.4233   -0.9568    1.3593 C   0  0  0  0  0  0  0  0  0  0  0  0
    1.6281   -0.9342    1.5749 O   0  0  0  0  0  0  0  0  0  0  0  0
   -0.4439   -0.4908    2.3310 N   0  0  0  0  0  0  0  0  0  0  0  0
   -1.4333   -0.6063    2.1391 H   0  0  0  0  0  0  0  0  0  0  0  0
   -0.0218   -0.2083    3.6966 C   0  0  0  0  0  0  0  0  0  0  0  0
    0.7645    0.5539    3.7053 H   0  0  0  0  0  0  0  0  0  0  0  0
   -0.8667    0.1628    4.2844 H   0  0  0  0  0  0  0  0  0  0  0  0
    0.3623   -1.1164    4.1731 H   0  0  0  0  0  0  0  0  0  0  0  0
  1  2  1  0  0  0  0
  2  3  1  0  0  0  0
  2  4  1  0  0  0  0
  2  5  1  0  0  0  0
  5  6  2  0  0  0  0
  5  7  1  0  0  0  0
  7  8  1  0  0  0  0
  7  9  1  0  0  0  0
  9 10  1  0  0  0  0
  9 11  1  0  0  0  0
  9 26  1  0  0  0  0
 11 12  1  0  0  0  0
 11 13  1  0  0  0  0
 11 14  1  0  0  0  0
 14 15  1  0  0  0  0
 14 16  1  0  0  0  0
 14 17  1  0  0  0  0
 17 18  1  0  0  0  0
 17 19  1  0  0  0  0
 17 20  1  0  0  0  0
 20 21  1  0  0  0  0
 20 22  1  0  0  0  0
 20 23  1  0  0  0  0
 23 24  1  0  0  0  0
 23 25  1  0  0  0  0
 26 27  2  0  0  0  0
 26 28  1  0  0  0  0
 28 29  1  0  0  0  0
 28 30  1  0  0  0  0
 30 31  1  0  0  0  0
 30 32  1  0  0  0  0
 30 33  1  0  0  0  0
M  END
$$$$

  -OEChem-03222214063D

 33 32  0     1  0  0  0  0  0999 V2000
   -2.9184   -4.8833    0.5905 H   0  0  0  0  0  0  0  0  0  0  0  0
   -2.9279   -3.8833    0.1470 C   0  0  0  0  0  0  0  0  0  0  0  0
   -3.7378   -3.3059    0.5990 H   0  0  0  0  0  0  0  0  0  0  0  0
   -3.1102   -3.9773   -0.9262 H   0  0  0  0  0  0  0  0  0  0  0  0
   -1.5990   -3.1923    0.3895 C   0  0  0  0  0  0  0  0  0  0  0  0
   -0.7375   -3.7493    1.0453 O   0  0  0  0  0  0  0  0  0  0  0  0
   -1.3798   -1.9334   -0.1347 N   0  0  0  0  0  0  0  0  0  0  0  0
   -2.0969   -1.5696   -0.7551 H   0  0  0  0  0  0  0  0  0  0  0  0
   -0.0909   -1.2185   -0.0761 C   0  0  1  0  0  0  0  0  0  0  0  0
    0.6707   -1.8442   -0.5527 H   0  0  0  0  0  0  0  0  0  0  0  0
   -0.2491    0.1163   -0.8422 C   0  0  0  0  0  0  0  0  0  0  0  0
   -1.3037    0.3995   -0.9269 H   0  0  0  0  0  0  0  0  0  0  0  0
    0.2348    0.9094   -0.2610 H   0  0  0  0  0  0  0  0  0  0  0  0
    0.4325    0.0971   -2.2234 C   0  0  0  0  0  0  0  0  0  0  0  0
    0.9697    1.0423   -2.3575 H   0  0  0  0  0  0  0  0  0  0  0  0
    1.1740   -0.7049   -2.2946 H   0  0  0  0  0  0  0  0  0  0  0  0
   -0.6028   -0.0314   -3.3463 C   0  0  0  0  0  0  0  0  0  0  0  0
   -1.1581   -0.9672   -3.2256 H   0  0  0  0  0  0  0  0  0  0  0  0
   -1.3162    0.7976   -3.2909 H   0  0  0  0  0  0  0  0  0  0  0  0
    0.0767   -0.0162   -4.7122 C   0  0  0  0  0  0  0  0  0  0  0  0
    0.6163    0.9273   -4.8513 H   0  0  0  0  0  0  0  0  0  0  0  0
    0.8007   -0.8356   -4.7833 H   0  0  0  0  0  0  0  0  0  0  0  0
   -0.9529   -0.1608   -5.7456 N   0  0  0  0  0  0  0  0  0  0  0  0
   -0.5490   -0.0922   -6.6800 H   0  0  0  0  0  0  0  0  0  0  0  0
   -1.4628   -1.0368   -5.6350 H   0  0  0  0  0  0  0  0  0  0  0  0
    0.4215   -0.9553    1.3587 C   0  0  0  0  0  0  0  0  0  0  0  0
    1.6258   -0.9347    1.5772 O   0  0  0  0  0  0  0  0  0  0  0  0
   -0.4472   -0.4857    2.3276 N   0  0  0  0  0  0  0  0  0  0  0  0
   -1.4364   -0.5974    2.1324 H   0  0  0  0  0  0  0  0  0  0  0  0
   -0.0290   -0.2084    3.6959 C   0  0  0  0  0  0  0  0  0  0  0  0
    0.7646    0.5461    3.7100 H   0  0  0  0  0  0  0  0  0  0  0  0
   -0.8731    0.1703    4.2800 H   0  0  0  0  0  0  0  0  0  0  0  0
    0.3435   -1.1209    4.1733 H   0  0  0  0  0  0  0  0  0  0  0  0
  1  2  1  0  0  0  0
  2  3  1  0  0  0  0
  2  4  1  0  0  0  0
  2  5  1  0  0  0  0
  5  6  2  0  0  0  0
  5  7  1  0  0  0  0
  7  8  1  0  0  0  0
  7  9  1  0  0  0  0
  9 10  1  0  0  0  0
  9 11  1  0  0  0  0
  9 26  1  0  0  0  0
 11 12  1  0  0  0  0
 11 13  1  0  0  0  0
 11 14  1  0  0  0  0
 14 15  1  0  0  0  0
 14 16  1  0  0  0  0
 14 17  1  0  0  0  0
 17 18  1  0  0  0  0
 17 19  1  0  0  0  0
 17 20  1  0  0  0  0
 20 21  1  0  0  0  0
 20 22  1  0  0  0  0
 20 23  1  0  0  0  0
 23 24  1  0  0  0  0
 23 25  1  0  0  0  0
 26 27  2  0  0  0  0
 26 28  1  0  0  0  0
 28 29  1  0  0  0  0
 28 30  1  0  0  0  0
 30 31  1  0  0  0  0
 30 32  1  0  0  0  0
 30 33  1  0  0  0  0
M  END
$$$$

  -OEChem-03222214063D

 33 32  0     1  0  0  0  0  0999 V2000
   -2.9137   -4.8974    0.6083 H   0  0  0  0  0  0  0  0  0  0  0  0
   -2.9286   -3.8988    0.1623 C   0  0  0  0  0  0  0  0  0  0  0  0
   -3.7430   -3.3253    0.6112 H   0  0  0  0  0  0  0  0  0  0  0  0
   -3.1079   -3.9970   -0.9110 H   0  0  0  0  0  0  0  0  0  0  0  0
   -1.6046   -3.1992    0.4053 C   0  0  0  0  0  0  0  0  0  0  0  0
   -0.7417   -3.7488    1.0654 O   0  0  0  0  0  0  0  0  0  0  0  0
   -1.3895   -1.9428   -0.1263 N   0  0  0  0  0  0  0  0  0  0  0  0
   -2.1087   -1.5839   -0.7471 H   0  0  0  0  0  0  0  0  0  0  0  0
   -0.1008   -1.2267   -0.0754 C   0  0  1  0  0  0  0  0  0  0  0  0
    0.6614   -1.8543   -0.5484 H   0  0  0  0  0  0  0  0  0  0  0  0
   -0.2574    0.1067   -0.8452 C   0  0  0  0  0  0  0  0  0  0  0  0
   -1.3163    0.3719   -0.9338 H   0  0  0  0  0  0  0  0  0  0  0  0
    0.2108    0.9120   -0.2676 H   0  0  0  0  0  0  0  0  0  0  0  0
    0.4206    0.0865   -2.2306 C   0  0  0  0  0  0  0  0  0  0  0  0
    1.1867    0.8690   -2.2599 H   0  0  0  0  0  0  0  0  0  0  0  0
    0.9261   -0.8668   -2.4133 H   0  0  0  0  0  0  0  0  0  0  0  0
   -0.5978    0.3353   -3.3492 C   0  0  0  0  0  0  0  0  0  0  0  0
   -1.3556   -0.4547   -3.3374 H   0  0  0  0  0  0  0  0  0  0  0  0
   -1.1022    1.2931   -3.1835 H   0  0  0  0  0  0  0  0  0  0  0  0
    0.0902    0.3611   -4.7110 C   0  0  0  0  0  0  0  0  0  0  0  0
    0.8360    1.1633   -4.7383 H   0  0  0  0  0  0  0  0  0  0  0  0
    0.6064   -0.5884   -4.8913 H   0  0  0  0  0  0  0  0  0  0  0  0
   -0.9255    0.5880   -5.7435 N   0  0  0  0  0  0  0  0  0  0  0  0
   -0.5003    0.6701   -6.6675 H   0  0  0  0  0  0  0  0  0  0  0  0
   -1.6311   -0.1479   -5.7329 H   0  0  0  0  0  0  0  0  0  0  0  0
    0.4172   -0.9553    1.3560 C   0  0  0  0  0  0  0  0  0  0  0  0
    1.6225   -0.9345    1.5686 O   0  0  0  0  0  0  0  0  0  0  0  0
   -0.4457   -0.4807    2.3277 N   0  0  0  0  0  0  0  0  0  0  0  0
   -1.4362   -0.5945    2.1404 H   0  0  0  0  0  0  0  0  0  0  0  0
   -0.0176   -0.1907    3.6904 C   0  0  0  0  0  0  0  0  0  0  0  0
    0.7746    0.5655    3.6916 H   0  0  0  0  0  0  0  0  0  0  0  0
   -0.8576    0.1913    4.2781 H   0  0  0  0  0  0  0  0  0  0  0  0
    0.3604   -1.0982    4.1726 H   0  0  0  0  0  0  0  0  0  0  0  0
  1  2  1  0  0  0  0
  2  3  1  0  0  0  0
  2  4  1  0  0  0  0
  2  5  1  0  0  0  0
  5  6  2  0  0  0  0
  5  7  1  0  0  0  0
  7  8  1  0  0  0  0
  7  9  1  0  0  0  0
  9 10  1  0  0  0  0
  9 11  1  0  0  0  0
  9 26  1  0  0  0  0
 11 12  1  0  0  0  0
 11 13  1  0  0  0  0
 11 14  1  0  0  0  0
 14 15  1  0  0  0  0
 14 16  1  0  0  0  0
 14 17  1  0  0  0  0
 17 18  1  0  0  0  0
 17 19  1  0  0  0  0
 17 20  1  0  0  0  0
 20 21  1  0  0  0  0
 20 22  1  0  0  0  0
 20 23  1  0  0  0  0
 23 24  1  0  0  0  0
 23 25  1  0  0  0  0
 26 27  2  0  0  0  0
 26 28  1  0  0  0  0
 28 29  1  0  0  0  0
 28 30  1  0  0  0  0
 30 31  1  0  0  0  0
 30 32  1  0  0  0  0
 30 33  1  0  0  0  0
M  END
$$$$

  -OEChem-03222214063D

 33 32  0     1  0  0  0  0  0999 V2000
   -2.8985   -4.8991    0.6363 H   0  0  0  0  0  0  0  0  0  0  0  0
   -2.9228   -3.9012    0.1889 C   0  0  0  0  0  0  0  0  0  0  0  0
   -3.7281   -3.3273    0.6533 H   0  0  0  0  0  0  0  0  0  0  0  0
   -3.1242   -4.0017   -0.8803 H   0  0  0  0  0  0  0  0  0  0  0  0
   -1.5944   -3.2005    0.4046 C   0  0  0  0  0  0  0  0  0  0  0  0
   -0.7164   -3.7509    1.0437 O   0  0  0  0  0  0  0  0  0  0  0  0
   -1.3914   -1.9414   -0.1267 N   0  0  0  0  0  0  0  0  0  0  0  0
   -2.1241   -1.5785   -0.7291 H   0  0  0  0  0  0  0  0  0  0  0  0
   -0.1068   -1.2162   -0.0849 C   0  0  1  0  0  0  0  0  0  0  0  0
    0.6585   -1.8360   -0.5644 H   0  0  0  0  0  0  0  0  0  0  0  0
   -0.2692    0.1186   -0.8505 C   0  0  0  0  0  0  0  0  0  0  0  0
   -1.3330    0.3587   -0.9482 H   0  0  0  0  0  0  0  0  0  0  0  0
    0.1805    0.9376   -0.2775 H   0  0  0  0  0  0  0  0  0  0  0  0
    0.4055    0.0900   -2.2359 C   0  0  0  0  0  0  0  0  0  0  0  0
    1.3502    0.6422   -2.1878 H   0  0  0  0  0  0  0  0  0  0  0  0
    0.6396   -0.9382   -2.5301 H   0  0  0  0  0  0  0  0  0  0  0  0
   -0.5072    0.6938   -3.3099 C   0  0  0  0  0  0  0  0  0  0  0  0
   -1.4288    0.1074   -3.3825 H   0  0  0  0  0  0  0  0  0  0  0  0
   -0.7768    1.7176   -3.0297 H   0  0  0  0  0  0  0  0  0  0  0  0
    0.1919    0.7129   -4.6666 C   0  0  0  0  0  0  0  0  0  0  0  0
    1.1034    1.3185   -4.6090 H   0  0  0  0  0  0  0  0  0  0  0  0
    0.4775   -0.3039   -4.9586 H   0  0  0  0  0  0  0  0  0  0  0  0
   -0.7248    1.2833   -5.6582 N   0  0  0  0  0  0  0  0  0  0  0  0
   -0.2786    1.3576   -6.5729 H   0  0  0  0  0  0  0  0  0  0  0  0
   -1.5864    0.7414   -5.7173 H   0  0  0  0  0  0  0  0  0  0  0  0
    0.4163   -0.9459    1.3449 C   0  0  0  0  0  0  0  0  0  0  0  0
    1.6220   -0.9221    1.5546 O   0  0  0  0  0  0  0  0  0  0  0  0
   -0.4463   -0.4806    2.3214 N   0  0  0  0  0  0  0  0  0  0  0  0
   -1.4367   -0.5939    2.1334 H   0  0  0  0  0  0  0  0  0  0  0  0
   -0.0182   -0.2045    3.6870 C   0  0  0  0  0  0  0  0  0  0  0  0
    0.7782    0.5471    3.6960 H   0  0  0  0  0  0  0  0  0  0  0  0
   -0.8573    0.1773    4.2763 H   0  0  0  0  0  0  0  0  0  0  0  0
    0.3546   -1.1179    4.1627 H   0  0  0  0  0  0  0  0  0  0  0  0
  1  2  1  0  0  0  0
  2  3  1  0  0  0  0
  2  4  1  0  0  0  0
  2  5  1  0  0  0  0
  5  6  2  0  0  0  0
  5  7  1  0  0  0  0
  7  8  1  0  0  0  0
  7  9  1  0  0  0  0
  9 10  1  0  0  0  0
  9 11  1  0  0  0  0
  9 26  1  0  0  0  0
 11 12  1  0  0  0  0
 11 13  1  0  0  0  0
 11 14  1  0  0  0  0
 14 15  1  0  0  0  0
 14 16  1  0  0  0  0
 14 17  1  0  0  0  0
 17 18  1  0  0  0  0
 17 19  1  0  0  0  0
 17 20  1  0  0  0  0
 20 21  1  0  0  0  0
 20 22  1  0  0  0  0
 20 23  1  0  0  0  0
 23 24  1  0  0  0  0
 23 25  1  0  0  0  0
 26 27  2  0  0  0  0
 26 28  1  0  0  0  0
 28 29  1  0  0  0  0
 28 30  1  0  0  0  0
 30 31  1  0  0  0  0
 30 32  1  0  0  0  0
 30 33  1  0  0  0  0
M  END
$$$$

  -OEChem-03222214063D

 33 32  0     1  0  0  0  0  0999 V2000
   -2.8853   -4.9036    0.6295 H   0  0  0  0  0  0  0  0  0  0  0  0
   -2.9168   -3.9051    0.1837 C   0  0  0  0  0  0  0  0  0  0  0  0
   -3.7224   -3.3358    0.6531 H   0  0  0  0  0  0  0  0  0  0  0  0
   -3.1231   -4.0047   -0.8846 H   0  0  0  0  0  0  0  0  0  0  0  0
   -1.5909   -3.1979    0.3936 C   0  0  0  0  0  0  0  0  0  0  0  0
   -0.7052   -3.7475    1.0226 O   0  0  0  0  0  0  0  0  0  0  0  0
   -1.4007   -1.9337   -0.1298 N   0  0  0  0  0  0  0  0  0  0  0  0
   -2.1423   -1.5699   -0.7203 H   0  0  0  0  0  0  0  0  0  0  0  0
   -0.1209   -1.2001   -0.0917 C   0  0  1  0  0  0  0  0  0  0  0  0
    0.6440   -1.8105   -0.5849 H   0  0  0  0  0  0  0  0  0  0  0  0
   -0.2912    0.1367   -0.8491 C   0  0  0  0  0  0  0  0  0  0  0  0
   -1.3570    0.3648   -0.9549 H   0  0  0  0  0  0  0  0  0  0  0  0
    0.1519    0.9605   -0.2780 H   0  0  0  0  0  0  0  0  0  0  0  0
    0.3843    0.0958   -2.2298 C   0  0  0  0  0  0  0  0  0  0  0  0
    1.4339    0.3929   -2.1298 H   0  0  0  0  0  0  0  0  0  0  0  0
    0.3618   -0.9245   -2.6276 H   0  0  0  0  0  0  0  0  0  0  0  0
   -0.3415    1.0080   -3.2252 C   0  0  0  0  0  0  0  0  0  0  0  0
   -1.3728    0.6653   -3.3573 H   0  0  0  0  0  0  0  0  0  0  0  0
   -0.3713    2.0296   -2.8319 H   0  0  0  0  0  0  0  0  0  0  0  0
    0.3708    1.0110   -4.5750 C   0  0  0  0  0  0  0  0  0  0  0  0
    1.3970    1.3762   -4.4552 H   0  0  0  0  0  0  0  0  0  0  0  0
    0.4174   -0.0061   -4.9798 H   0  0  0  0  0  0  0  0  0  0  0  0
   -0.3669    1.8855   -5.4917 N   0  0  0  0  0  0  0  0  0  0  0  0
    0.1009    1.9513   -6.3961 H   0  0  0  0  0  0  0  0  0  0  0  0
   -1.3310    1.5730   -5.6029 H   0  0  0  0  0  0  0  0  0  0  0  0
    0.4134   -0.9350    1.3345 C   0  0  0  0  0  0  0  0  0  0  0  0
    1.6209   -0.9067    1.5326 O   0  0  0  0  0  0  0  0  0  0  0  0
   -0.4421   -0.4814    2.3227 N   0  0  0  0  0  0  0  0  0  0  0  0
   -1.4336   -0.6020    2.1461 H   0  0  0  0  0  0  0  0  0  0  0  0
    0.0001   -0.2087    3.6845 C   0  0  0  0  0  0  0  0  0  0  0  0
    0.7921    0.5477    3.6879 H   0  0  0  0  0  0  0  0  0  0  0  0
   -0.8339    0.1653    4.2858 H   0  0  0  0  0  0  0  0  0  0  0  0
    0.3838   -1.1224    4.1506 H   0  0  0  0  0  0  0  0  0  0  0  0
  1  2  1  0  0  0  0
  2  3  1  0  0  0  0
  2  4  1  0  0  0  0
  2  5  1  0  0  0  0
  5  6  2  0  0  0  0
  5  7  1  0  0  0  0
  7  8  1  0  0  0  0
  7  9  1  0  0  0  0
  9 10  1  0  0  0  0
  9 11  1  0  0  0  0
  9 26  1  0  0  0  0
 11 12  1  0  0  0  0
 11 13  1  0  0  0  0
 11 14  1  0  0  0  0
 14 15  1  0  0  0  0
 14 16  1  0  0  0  0
 14 17  1  0  0  0  0
 17 18  1  0  0  0  0
 17 19  1  0  0  0  0
 17 20  1  0  0  0  0
 20 21  1  0  0  0  0
 20 22  1  0  0  0  0
 20 23  1  0  0  0  0
 23 24  1  0  0  0  0
 23 25  1  0  0  0  0
 26 27  2  0  0  0  0
 26 28  1  0  0  0  0
 28 29  1  0  0  0  0
 28 30  1  0  0  0  0
 30 31  1  0  0  0  0
 30 32  1  0  0  0  0
 30 33  1  0  0  0  0
M  END
$$$$

  -OEChem-03222214063D

 33 32  0     1  0  0  0  0  0999 V2000
   -2.8760   -4.9051    0.6077 H   0  0  0  0  0  0  0  0  0  0  0  0
   -2.9111   -3.9061    0.1637 C   0  0  0  0  0  0  0  0  0  0  0  0
   -3.7241   -3.3431    0.6284 H   0  0  0  0  0  0  0  0  0  0  0  0
   -3.1079   -4.0050   -0.9065 H   0  0  0  0  0  0  0  0  0  0  0  0
   -1.5914   -3.1912    0.3845 C   0  0  0  0  0  0  0  0  0  0  0  0
   -0.7036   -3.7394    1.0120 O   0  0  0  0  0  0  0  0  0  0  0  0
   -1.4074   -1.9231   -0.1312 N   0  0  0  0  0  0  0  0  0  0  0  0
   -2.1497   -1.5611   -0.7220 H   0  0  0  0  0  0  0  0  0  0  0  0
   -0.1288   -1.1879   -0.0944 C   0  0  1  0  0  0  0  0  0  0  0  0
    0.6322   -1.7943   -0.5987 H   0  0  0  0  0  0  0  0  0  0  0  0
   -0.3055    0.1501   -0.8458 C   0  0  0  0  0  0  0  0  0  0  0  0
   -1.3700    0.3821   -0.9543 H   0  0  0  0  0  0  0  0  0  0  0  0
    0.1436    0.9704   -0.2739 H   0  0  0  0  0  0  0  0  0  0  0  0
    0.3682    0.1007   -2.2236 C   0  0  0  0  0  0  0  0  0  0  0  0
    1.4559    0.1425   -2.0980 H   0  0  0  0  0  0  0  0  0  0  0  0
    0.1219   -0.8437   -2.7209 H   0  0  0  0  0  0  0  0  0  0  0  0
   -0.1088    1.2599   -3.1056 C   0  0  0  0  0  0  0  0  0  0  0  0
   -1.1887    1.1804   -3.2666 H   0  0  0  0  0  0  0  0  0  0  0  0
    0.0895    2.2117   -2.6016 H   0  0  0  0  0  0  0  0  0  0  0  0
    0.6086    1.2463   -4.4526 C   0  0  0  0  0  0  0  0  0  0  0  0
    1.6894    1.3471   -4.3017 H   0  0  0  0  0  0  0  0  0  0  0  0
    0.4245    0.2974   -4.9686 H   0  0  0  0  0  0  0  0  0  0  0  0
    0.1100    2.3640   -5.2596 N   0  0  0  0  0  0  0  0  0  0  0  0
    0.5932    2.4171   -6.1565 H   0  0  0  0  0  0  0  0  0  0  0  0
   -0.8989    2.3015   -5.3926 H   0  0  0  0  0  0  0  0  0  0  0  0
    0.4148   -0.9308    1.3297 C   0  0  0  0  0  0  0  0  0  0  0  0
    1.6235   -0.8974    1.5189 O   0  0  0  0  0  0  0  0  0  0  0  0
   -0.4353   -0.4848    2.3260 N   0  0  0  0  0  0  0  0  0  0  0  0
   -1.4279   -0.6066    2.1561 H   0  0  0  0  0  0  0  0  0  0  0  0
    0.0160   -0.2066    3.6835 C   0  0  0  0  0  0  0  0  0  0  0  0
    0.7972    0.5610    3.6783 H   0  0  0  0  0  0  0  0  0  0  0  0
   -0.8176    0.1555    4.2927 H   0  0  0  0  0  0  0  0  0  0  0  0
    0.4169   -1.1147    4.1462 H   0  0  0  0  0  0  0  0  0  0  0  0
  1  2  1  0  0  0  0
  2  3  1  0  0  0  0
  2  4  1  0  0  0  0
  2  5  1  0  0  0  0
  5  6  2  0  0  0  0
  5  7  1  0  0  0  0
  7  8  1  0  0  0  0
  7  9  1  0  0  0  0
  9 10  1  0  0  0  0
  9 11  1  0  0  0  0
  9 26  1  0  0  0  0
 11 12  1  0  0  0  0
 11 13  1  0  0  0  0
 11 14  1  0  0  0  0
 14 15  1  0  0  0  0
 14 16  1  0  0  0  0
 14 17  1  0  0  0  0
 17 18  1  0  0  0  0
 17 19  1  0  0  0  0
 17 20  1  0  0  0  0
 20 21  1  0  0  0  0
 20 22  1  0  0  0  0
 20 23  1  0  0  0  0
 23 24  1  0  0  0  0
 23 25  1  0  0  0  0
 26 27  2  0  0  0  0
 26 28  1  0  0  0  0
 28 29  1  0  0  0  0
 28 30  1  0  0  0  0
 30 31  1  0  0  0  0
 30 32  1  0  0  0  0
 30 33  1  0  0  0  0
M  END
$$$$

  -OEChem-03222214063D

 33 32  0     1  0  0  0  0  0999 V2000
   -2.8787   -4.8981    0.5975 H   0  0  0  0  0  0  0  0  0  0  0  0
   -2.9093   -3.8974    0.1570 C   0  0  0  0  0  0  0  0  0  0  0  0
   -3.7193   -3.3328    0.6245 H   0  0  0  0  0  0  0  0  0  0  0  0
   -3.1079   -3.9914   -0.9133 H   0  0  0  0  0  0  0  0  0  0  0  0
   -1.5858   -3.1897    0.3792 C   0  0  0  0  0  0  0  0  0  0  0  0
   -0.7033   -3.7424    1.0098 O   0  0  0  0  0  0  0  0  0  0  0  0
   -1.3914   -1.9245   -0.1405 N   0  0  0  0  0  0  0  0  0  0  0  0
   -2.1302   -1.5572   -0.7323 H   0  0  0  0  0  0  0  0  0  0  0  0
   -0.1099   -1.1946   -0.0968 C   0  0  1  0  0  0  0  0  0  0  0  0
    0.6573   -1.7927   -0.6013 H   0  0  0  0  0  0  0  0  0  0  0  0
   -0.2905    0.1449   -0.8369 C   0  0  0  0  0  0  0  0  0  0  0  0
   -1.3088    0.5240   -0.7011 H   0  0  0  0  0  0  0  0  0  0  0  0
    0.3929    0.8896   -0.4126 H   0  0  0  0  0  0  0  0  0  0  0  0
    0.0388   -0.0025   -2.3274 C   0  0  0  0  0  0  0  0  0  0  0  0
    1.0756   -0.3383   -2.4400 H   0  0  0  0  0  0  0  0  0  0  0  0
   -0.6127   -0.7592   -2.7767 H   0  0  0  0  0  0  0  0  0  0  0  0
   -0.1439    1.3333   -3.0556 C   0  0  0  0  0  0  0  0  0  0  0  0
   -1.1831    1.6646   -2.9626 H   0  0  0  0  0  0  0  0  0  0  0  0
    0.4958    2.0942   -2.5960 H   0  0  0  0  0  0  0  0  0  0  0  0
    0.2185    1.1992   -4.5318 C   0  0  0  0  0  0  0  0  0  0  0  0
    1.2645    0.8889   -4.6340 H   0  0  0  0  0  0  0  0  0  0  0  0
   -0.4104    0.4375   -5.0060 H   0  0  0  0  0  0  0  0  0  0  0  0
    0.0174    2.4969   -5.1832 N   0  0  0  0  0  0  0  0  0  0  0  0
    0.2748    2.4601   -6.1696 H   0  0  0  0  0  0  0  0  0  0  0  0
   -0.9418    2.8231   -5.0680 H   0  0  0  0  0  0  0  0  0  0  0  0
    0.4195   -0.9359    1.3325 C   0  0  0  0  0  0  0  0  0  0  0  0
    1.6260   -0.9135    1.5371 O   0  0  0  0  0  0  0  0  0  0  0  0
   -0.4394   -0.4832    2.3181 N   0  0  0  0  0  0  0  0  0  0  0  0
   -1.4309   -0.5930    2.1346 H   0  0  0  0  0  0  0  0  0  0  0  0
   -0.0027   -0.2053    3.6802 C   0  0  0  0  0  0  0  0  0  0  0  0
    0.7857    0.5547    3.6827 H   0  0  0  0  0  0  0  0  0  0  0  0
   -0.8401    0.1666    4.2778 H   0  0  0  0  0  0  0  0  0  0  0  0
    0.3840   -1.1157    4.1500 H   0  0  0  0  0  0  0  0  0  0  0  0
  1  2  1  0  0  0  0
  2  3  1  0  0  0  0
  2  4  1  0  0  0  0
  2  5  1  0  0  0  0
  5  6  2  0  0  0  0
  5  7  1  0  0  0  0
  7  8  1  0  0  0  0
  7  9  1  0  0  0  0
  9 10  1  0  0  0  0
  9 11  1  0  0  0  0
  9 26  1  0  0  0  0
 11 12  1  0  0  0  0
 11 13  1  0  0  0  0
 11 14  1  0  0  0  0
 14 15  1  0  0  0  0
 14 16  1  0  0  0  0
 14 17  1  0  0  0  0
 17 18  1  0  0  0  0
 17 19  1  0  0  0  0
 17 20  1  0  0  0  0
 20 21  1  0  0  0  0
 20 22  1  0  0  0  0
 20 23  1  0  0  0  0
 23 24  1  0  0  0  0
 23 25  1  0  0  0  0
 26 27  2  0  0  0  0
 26 28  1  0  0  0  0
 28 29  1  0  0  0  0
 28 30  1  0  0  0  0
 30 31  1  0  0  0  0
 30 32  1  0  0  0  0
 30 33  1  0  0  0  0
M  END
$$$$

  -OEChem-03222214063D

 33 32  0     1  0  0  0  0  0999 V2000
   -2.8842   -4.8942    0.6028 H   0  0  0  0  0  0  0  0  0  0  0  0
   -2.9106   -3.8938    0.1607 C   0  0  0  0  0  0  0  0  0  0  0  0
   -3.7184   -3.3251    0.6272 H   0  0  0  0  0  0  0  0  0  0  0  0
   -3.1101   -3.9893   -0.9093 H   0  0  0  0  0  0  0  0  0  0  0  0
   -1.5844   -3.1901    0.3813 C   0  0  0  0  0  0  0  0  0  0  0  0
   -0.7080   -3.7406    1.0223 O   0  0  0  0  0  0  0  0  0  0  0  0
   -1.3835   -1.9283   -0.1441 N   0  0  0  0  0  0  0  0  0  0  0  0
   -2.1168   -1.5636   -0.7443 H   0  0  0  0  0  0  0  0  0  0  0  0
   -0.1000   -1.2019   -0.0982 C   0  0  1  0  0  0  0  0  0  0  0  0
    0.6684   -1.8052   -0.5945 H   0  0  0  0  0  0  0  0  0  0  0  0
   -0.2805    0.1362   -0.8436 C   0  0  0  0  0  0  0  0  0  0  0  0
   -1.2934    0.5287   -0.7064 H   0  0  0  0  0  0  0  0  0  0  0  0
    0.4109    0.8700   -0.4132 H   0  0  0  0  0  0  0  0  0  0  0  0
    0.0475    0.0001   -2.3373 C   0  0  0  0  0  0  0  0  0  0  0  0
    0.9802   -0.5610   -2.4603 H   0  0  0  0  0  0  0  0  0  0  0  0
   -0.7497   -0.5561   -2.8405 H   0  0  0  0  0  0  0  0  0  0  0  0
    0.2227    1.3798   -2.9822 C   0  0  0  0  0  0  0  0  0  0  0  0
   -0.6988    1.9591   -2.8652 H   0  0  0  0  0  0  0  0  0  0  0  0
    1.0301    1.9236   -2.4802 H   0  0  0  0  0  0  0  0  0  0  0  0
    0.5568    1.2477   -4.4653 C   0  0  0  0  0  0  0  0  0  0  0  0
    1.4906    0.6880   -4.5898 H   0  0  0  0  0  0  0  0  0  0  0  0
   -0.2391    0.7014   -4.9836 H   0  0  0  0  0  0  0  0  0  0  0  0
    0.7010    2.5910   -5.0345 N   0  0  0  0  0  0  0  0  0  0  0  0
    0.9455    2.5505   -6.0241 H   0  0  0  0  0  0  0  0  0  0  0  0
   -0.1416    3.1466   -4.8890 H   0  0  0  0  0  0  0  0  0  0  0  0
    0.4225   -0.9378    1.3329 C   0  0  0  0  0  0  0  0  0  0  0  0
    1.6278   -0.9176    1.5447 O   0  0  0  0  0  0  0  0  0  0  0  0
   -0.4408   -0.4779    2.3114 N   0  0  0  0  0  0  0  0  0  0  0  0
   -1.4311   -0.5904    2.1235 H   0  0  0  0  0  0  0  0  0  0  0  0
   -0.0117   -0.2009    3.6763 C   0  0  0  0  0  0  0  0  0  0  0  0
    0.7797    0.5559    3.6839 H   0  0  0  0  0  0  0  0  0  0  0  0
   -0.8517    0.1746    4.2678 H   0  0  0  0  0  0  0  0  0  0  0  0
    0.3679   -1.1125    4.1497 H   0  0  0  0  0  0  0  0  0  0  0  0
  1  2  1  0  0  0  0
  2  3  1  0  0  0  0
  2  4  1  0  0  0  0
  2  5  1  0  0  0  0
  5  6  2  0  0  0  0
  5  7  1  0  0  0  0
  7  8  1  0  0  0  0
  7  9  1  0  0  0  0
  9 10  1  0  0  0  0
  9 11  1  0  0  0  0
  9 26  1  0  0  0  0
 11 12  1  0  0  0  0
 11 13  1  0  0  0  0
 11 14  1  0  0  0  0
 14 15  1  0  0  0  0
 14 16  1  0  0  0  0
 14 17  1  0  0  0  0
 17 18  1  0  0  0  0
 17 19  1  0  0  0  0
 17 20  1  0  0  0  0
 20 21  1  0  0  0  0
 20 22  1  0  0  0  0
 20 23  1  0  0  0  0
 23 24  1  0  0  0  0
 23 25  1  0  0  0  0
 26 27  2  0  0  0  0
 26 28  1  0  0  0  0
 28 29  1  0  0  0  0
 28 30  1  0  0  0  0
 30 31  1  0  0  0  0
 30 32  1  0  0  0  0
 30 33  1  0  0  0  0
M  END
$$$$

  -OEChem-03222214063D

 33 32  0     1  0  0  0  0  0999 V2000
   -2.8913   -4.8897    0.6124 H   0  0  0  0  0  0  0  0  0  0  0  0
   -2.9129   -3.8915    0.1654 C   0  0  0  0  0  0  0  0  0  0  0  0
   -3.7211   -3.3183    0.6260 H   0  0  0  0  0  0  0  0  0  0  0  0
   -3.1084   -3.9914   -0.9049 H   0  0  0  0  0  0  0  0  0  0  0  0
   -1.5853   -3.1913    0.3887 C   0  0  0  0  0  0  0  0  0  0  0  0
   -0.7146   -3.7410    1.0381 O   0  0  0  0  0  0  0  0  0  0  0  0
   -1.3771   -1.9333   -0.1434 N   0  0  0  0  0  0  0  0  0  0  0  0
   -2.1052   -1.5714   -0.7512 H   0  0  0  0  0  0  0  0  0  0  0  0
   -0.0909   -1.2116   -0.0979 C   0  0  1  0  0  0  0  0  0  0  0  0
    0.6785   -1.8199   -0.5857 H   0  0  0  0  0  0  0  0  0  0  0  0
   -0.2695    0.1251   -0.8485 C   0  0  0  0  0  0  0  0  0  0  0  0
   -1.2780    0.5270   -0.7071 H   0  0  0  0  0  0  0  0  0  0  0  0
    0.4261    0.8512   -0.4115 H   0  0  0  0  0  0  0  0  0  0  0  0
    0.0547    0.0018   -2.3480 C   0  0  0  0  0  0  0  0  0  0  0  0
    0.8234   -0.7621   -2.5055 H   0  0  0  0  0  0  0  0  0  0  0  0
   -0.8422   -0.3108   -2.8922 H   0  0  0  0  0  0  0  0  0  0  0  0
    0.5869    1.3278   -2.9056 C   0  0  0  0  0  0  0  0  0  0  0  0
   -0.1574    2.1152   -2.7489 H   0  0  0  0  0  0  0  0  0  0  0  0
    1.4999    1.6142   -2.3727 H   0  0  0  0  0  0  0  0  0  0  0  0
    0.8955    1.2082   -4.3953 C   0  0  0  0  0  0  0  0  0  0  0  0
    1.6556    0.4361   -4.5598 H   0  0  0  0  0  0  0  0  0  0  0  0
   -0.0075    0.9201   -4.9449 H   0  0  0  0  0  0  0  0  0  0  0  0
    1.3866    2.5028   -4.8766 N   0  0  0  0  0  0  0  0  0  0  0  0
    1.6195    2.4662   -5.8690 H   0  0  0  0  0  0  0  0  0  0  0  0
    0.7151    3.2464   -4.6862 H   0  0  0  0  0  0  0  0  0  0  0  0
    0.4252   -0.9428    1.3349 C   0  0  0  0  0  0  0  0  0  0  0  0
    1.6293   -0.9259    1.5528 O   0  0  0  0  0  0  0  0  0  0  0  0
   -0.4415   -0.4750    2.3067 N   0  0  0  0  0  0  0  0  0  0  0  0
   -1.4310   -0.5889    2.1157 H   0  0  0  0  0  0  0  0  0  0  0  0
   -0.0172   -0.1946    3.6724 C   0  0  0  0  0  0  0  0  0  0  0  0
    0.7778    0.5585    3.6806 H   0  0  0  0  0  0  0  0  0  0  0  0
   -0.8581    0.1871    4.2591 H   0  0  0  0  0  0  0  0  0  0  0  0
    0.3567   -1.1061    4.1505 H   0  0  0  0  0  0  0  0  0  0  0  0
  1  2  1  0  0  0  0
  2  3  1  0  0  0  0
  2  4  1  0  0  0  0
  2  5  1  0  0  0  0
  5  6  2  0  0  0  0
  5  7  1  0  0  0  0
  7  8  1  0  0  0  0
  7  9  1  0  0  0  0
  9 10  1  0  0  0  0
  9 11  1  0  0  0  0
  9 26  1  0  0  0  0
 11 12  1  0  0  0  0
 11 13  1  0  0  0  0
 11 14  1  0  0  0  0
 14 15  1  0  0  0  0
 14 16  1  0  0  0  0
 14 17  1  0  0  0  0
 17 18  1  0  0  0  0
 17 19  1  0  0  0  0
 17 20  1  0  0  0  0
 20 21  1  0  0  0  0
 20 22  1  0  0  0  0
 20 23  1  0  0  0  0
 23 24  1  0  0  0  0
 23 25  1  0  0  0  0
 26 27  2  0  0  0  0
 26 28  1  0  0  0  0
 28 29  1  0  0  0  0
 28 30  1  0  0  0  0
 30 31  1  0  0  0  0
 30 32  1  0  0  0  0
 30 33  1  0  0  0  0
M  END
$$$$

  -OEChem-03222214063D

 33 32  0     1  0  0  0  0  0999 V2000
   -2.8965   -4.8882    0.6116 H   0  0  0  0  0  0  0  0  0  0  0  0
   -2.9127   -3.8921    0.1599 C   0  0  0  0  0  0  0  0  0  0  0  0
   -3.7234   -3.3146    0.6106 H   0  0  0  0  0  0  0  0  0  0  0  0
   -3.0990   -3.9967   -0.9117 H   0  0  0  0  0  0  0  0  0  0  0  0
   -1.5863   -3.1927    0.3908 C   0  0  0  0  0  0  0  0  0  0  0  0
   -0.7194   -3.7419    1.0458 O   0  0  0  0  0  0  0  0  0  0  0  0
   -1.3759   -1.9355   -0.1422 N   0  0  0  0  0  0  0  0  0  0  0  0
   -2.1004   -1.5769   -0.7565 H   0  0  0  0  0  0  0  0  0  0  0  0
   -0.0881   -1.2170   -0.0986 C   0  0  1  0  0  0  0  0  0  0  0  0
    0.6814   -1.8250   -0.5868 H   0  0  0  0  0  0  0  0  0  0  0  0
   -0.2660    0.1227   -0.8448 C   0  0  0  0  0  0  0  0  0  0  0  0
   -1.2751    0.5214   -0.6987 H   0  0  0  0  0  0  0  0  0  0  0  0
    0.4249    0.8497   -0.4017 H   0  0  0  0  0  0  0  0  0  0  0  0
    0.0517    0.0100   -2.3493 C   0  0  0  0  0  0  0  0  0  0  0  0
    0.5920   -0.9187   -2.5595 H   0  0  0  0  0  0  0  0  0  0  0  0
   -0.8853   -0.0217   -2.9147 H   0  0  0  0  0  0  0  0  0  0  0  0
    0.9165    1.1840   -2.8256 C   0  0  0  0  0  0  0  0  0  0  0  0
    0.3970    2.1265   -2.6249 H   0  0  0  0  0  0  0  0  0  0  0  0
    1.8619    1.1938   -2.2723 H   0  0  0  0  0  0  0  0  0  0  0  0
    1.2124    1.0740   -4.3186 C   0  0  0  0  0  0  0  0  0  0  0  0
    1.7474    0.1406   -4.5272 H   0  0  0  0  0  0  0  0  0  0  0  0
    0.2766    1.0647   -4.8883 H   0  0  0  0  0  0  0  0  0  0  0  0
    2.0342    2.2203   -4.7173 N   0  0  0  0  0  0  0  0  0  0  0  0
    2.2662    2.1847   -5.7099 H   0  0  0  0  0  0  0  0  0  0  0  0
    1.5789    3.1014   -4.4793 H   0  0  0  0  0  0  0  0  0  0  0  0
    0.4296   -0.9491    1.3339 C   0  0  0  0  0  0  0  0  0  0  0  0
    1.6340   -0.9314    1.5506 O   0  0  0  0  0  0  0  0  0  0  0  0
   -0.4359   -0.4790    2.3056 N   0  0  0  0  0  0  0  0  0  0  0  0
   -1.4257   -0.5945    2.1167 H   0  0  0  0  0  0  0  0  0  0  0  0
   -0.0101   -0.1874    3.6686 C   0  0  0  0  0  0  0  0  0  0  0  0
    0.7798    0.5712    3.6700 H   0  0  0  0  0  0  0  0  0  0  0  0
   -0.8523    0.1925    4.2547 H   0  0  0  0  0  0  0  0  0  0  0  0
    0.3705   -1.0934    4.1518 H   0  0  0  0  0  0  0  0  0  0  0  0
  1  2  1  0  0  0  0
  2  3  1  0  0  0  0
  2  4  1  0  0  0  0
  2  5  1  0  0  0  0
  5  6  2  0  0  0  0
  5  7  1  0  0  0  0
  7  8  1  0  0  0  0
  7  9  1  0  0  0  0
  9 10  1  0  0  0  0
  9 11  1  0  0  0  0
  9 26  1  0  0  0  0
 11 12  1  0  0  0  0
 11 13  1  0  0  0  0
 11 14  1  0  0  0  0
 14 15  1  0  0  0  0
 14 16  1  0  0  0  0
 14 17  1  0  0  0  0
 17 18  1  0  0  0  0
 17 19  1  0  0  0  0
 17 20  1  0  0  0  0
 20 21  1  0  0  0  0
 20 22  1  0  0  0  0
 20 23  1  0  0  0  0
 23 24  1  0  0  0  0
 23 25  1  0  0  0  0
 26 27  2  0  0  0  0
 26 28  1  0  0  0  0
 28 29  1  0  0  0  0
 28 30  1  0  0  0  0
 30 31  1  0  0  0  0
 30 32  1  0  0  0  0
 30 33  1  0  0  0  0
M  END
$$$$

  -OEChem-03222214063D

 33 32  0     1  0  0  0  0  0999 V2000
   -2.8833   -4.8863    0.6139 H   0  0  0  0  0  0  0  0  0  0  0  0
   -2.9044   -3.8911    0.1603 C   0  0  0  0  0  0  0  0  0  0  0  0
   -3.7139   -3.3148    0.6143 H   0  0  0  0  0  0  0  0  0  0  0  0
   -3.0960   -3.9981   -0.9101 H   0  0  0  0  0  0  0  0  0  0  0  0
   -1.5783   -3.1887    0.3838 C   0  0  0  0  0  0  0  0  0  0  0  0
   -0.7044   -3.7391    1.0283 O   0  0  0  0  0  0  0  0  0  0  0  0
   -1.3755   -1.9283   -0.1443 N   0  0  0  0  0  0  0  0  0  0  0  0
   -2.1053   -1.5686   -0.7516 H   0  0  0  0  0  0  0  0  0  0  0  0
   -0.0898   -1.2051   -0.1033 C   0  0  1  0  0  0  0  0  0  0  0  0
    0.6814   -1.8064   -0.5978 H   0  0  0  0  0  0  0  0  0  0  0  0
   -0.2693    0.1380   -0.8423 C   0  0  0  0  0  0  0  0  0  0  0  0
   -1.2868    0.5163   -0.7005 H   0  0  0  0  0  0  0  0  0  0  0  0
    0.4029    0.8797   -0.3949 H   0  0  0  0  0  0  0  0  0  0  0  0
    0.0464    0.0256   -2.3477 C   0  0  0  0  0  0  0  0  0  0  0  0
    0.3089   -1.0033   -2.6150 H   0  0  0  0  0  0  0  0  0  0  0  0
   -0.8505    0.2894   -2.9177 H   0  0  0  0  0  0  0  0  0  0  0  0
    1.1934    0.9601   -2.7515 C   0  0  0  0  0  0  0  0  0  0  0  0
    0.9266    1.9945   -2.5118 H   0  0  0  0  0  0  0  0  0  0  0  0
    2.0936    0.7015   -2.1833 H   0  0  0  0  0  0  0  0  0  0  0  0
    1.4924    0.8467   -4.2436 C   0  0  0  0  0  0  0  0  0  0  0  0
    1.7771   -0.1818   -4.4923 H   0  0  0  0  0  0  0  0  0  0  0  0
    0.6013    1.1043   -4.8266 H   0  0  0  0  0  0  0  0  0  0  0  0
    2.5898    1.7612   -4.5711 N   0  0  0  0  0  0  0  0  0  0  0  0
    2.8244    1.7210   -5.5629 H   0  0  0  0  0  0  0  0  0  0  0  0
    2.3725    2.7157   -4.2846 H   0  0  0  0  0  0  0  0  0  0  0  0
    0.4317   -0.9432    1.3290 C   0  0  0  0  0  0  0  0  0  0  0  0
    1.6363   -0.9227    1.5435 O   0  0  0  0  0  0  0  0  0  0  0  0
   -0.4327   -0.4815    2.3060 N   0  0  0  0  0  0  0  0  0  0  0  0
   -1.4225   -0.5976    2.1182 H   0  0  0  0  0  0  0  0  0  0  0  0
   -0.0049   -0.2043    3.6713 C   0  0  0  0  0  0  0  0  0  0  0  0
    0.7879    0.5513    3.6791 H   0  0  0  0  0  0  0  0  0  0  0  0
   -0.8450    0.1732    4.2619 H   0  0  0  0  0  0  0  0  0  0  0  0
    0.3726   -1.1162    4.1458 H   0  0  0  0  0  0  0  0  0  0  0  0
  1  2  1  0  0  0  0
  2  3  1  0  0  0  0
  2  4  1  0  0  0  0
  2  5  1  0  0  0  0
  5  6  2  0  0  0  0
  5  7  1  0  0  0  0
  7  8  1  0  0  0  0
  7  9  1  0  0  0  0
  9 10  1  0  0  0  0
  9 11  1  0  0  0  0
  9 26  1  0  0  0  0
 11 12  1  0  0  0  0
 11 13  1  0  0  0  0
 11 14  1  0  0  0  0
 14 15  1  0  0  0  0
 14 16  1  0  0  0  0
 14 17  1  0  0  0  0
 17 18  1  0  0  0  0
 17 19  1  0  0  0  0
 17 20  1  0  0  0  0
 20 21  1  0  0  0  0
 20 22  1  0  0  0  0
 20 23  1  0  0  0  0
 23 24  1  0  0  0  0
 23 25  1  0  0  0  0
 26 27  2  0  0  0  0
 26 28  1  0  0  0  0
 28 29  1  0  0  0  0
 28 30  1  0  0  0  0
 30 31  1  0  0  0  0
 30 32  1  0  0  0  0
 30 33  1  0  0  0  0
M  END
$$$$

  -OEChem-03222214063D

 33 32  0     1  0  0  0  0  0999 V2000
   -2.8693   -4.8847    0.5972 H   0  0  0  0  0  0  0  0  0  0  0  0
   -2.8916   -3.8913    0.1400 C   0  0  0  0  0  0  0  0  0  0  0  0
   -3.7058   -3.3163    0.5873 H   0  0  0  0  0  0  0  0  0  0  0  0
   -3.0766   -4.0024   -0.9312 H   0  0  0  0  0  0  0  0  0  0  0  0
   -1.5694   -3.1839    0.3689 C   0  0  0  0  0  0  0  0  0  0  0  0
   -0.6921   -3.7356    1.0076 O   0  0  0  0  0  0  0  0  0  0  0  0
   -1.3735   -1.9183   -0.1491 N   0  0  0  0  0  0  0  0  0  0  0  0
   -2.1055   -1.5570   -0.7528 H   0  0  0  0  0  0  0  0  0  0  0  0
   -0.0898   -1.1919   -0.1072 C   0  0  1  0  0  0  0  0  0  0  0  0
    0.6796   -1.7846   -0.6151 H   0  0  0  0  0  0  0  0  0  0  0  0
   -0.2718    0.1573   -0.8316 C   0  0  0  0  0  0  0  0  0  0  0  0
   -1.2965    0.5165   -0.6922 H   0  0  0  0  0  0  0  0  0  0  0  0
    0.3870    0.9103   -0.3832 H   0  0  0  0  0  0  0  0  0  0  0  0
    0.0419    0.0446   -2.3350 C   0  0  0  0  0  0  0  0  0  0  0  0
    0.0182   -1.0016   -2.6587 H   0  0  0  0  0  0  0  0  0  0  0  0
   -0.7356    0.5752   -2.8942 H   0  0  0  0  0  0  0  0  0  0  0  0
    1.3991    0.6720   -2.6756 C   0  0  0  0  0  0  0  0  0  0  0  0
    1.3995    1.7294   -2.3917 H   0  0  0  0  0  0  0  0  0  0  0  0
    2.1882    0.1684   -2.1065 H   0  0  0  0  0  0  0  0  0  0  0  0
    1.6944    0.5481   -4.1680 C   0  0  0  0  0  0  0  0  0  0  0  0
    1.7022   -0.5070   -4.4637 H   0  0  0  0  0  0  0  0  0  0  0  0
    0.9169    1.0584   -4.7472 H   0  0  0  0  0  0  0  0  0  0  0  0
    3.0021    1.1510   -4.4399 N   0  0  0  0  0  0  0  0  0  0  0  0
    3.2377    1.0986   -5.4308 H   0  0  0  0  0  0  0  0  0  0  0  0
    3.0413    2.1135   -4.1045 H   0  0  0  0  0  0  0  0  0  0  0  0
    0.4371   -0.9412    1.3246 C   0  0  0  0  0  0  0  0  0  0  0  0
    1.6424   -0.9157    1.5349 O   0  0  0  0  0  0  0  0  0  0  0  0
   -0.4268   -0.4906    2.3072 N   0  0  0  0  0  0  0  0  0  0  0  0
   -1.4167   -0.6103    2.1214 H   0  0  0  0  0  0  0  0  0  0  0  0
    0.0036   -0.2122    3.6714 C   0  0  0  0  0  0  0  0  0  0  0  0
    0.7842    0.5557    3.6786 H   0  0  0  0  0  0  0  0  0  0  0  0
   -0.8394    0.1496    4.2676 H   0  0  0  0  0  0  0  0  0  0  0  0
    0.3981   -1.1199    4.1401 H   0  0  0  0  0  0  0  0  0  0  0  0
  1  2  1  0  0  0  0
  2  3  1  0  0  0  0
  2  4  1  0  0  0  0
  2  5  1  0  0  0  0
  5  6  2  0  0  0  0
  5  7  1  0  0  0  0
  7  8  1  0  0  0  0
  7  9  1  0  0  0  0
  9 10  1  0  0  0  0
  9 11  1  0  0  0  0
  9 26  1  0  0  0  0
 11 12  1  0  0  0  0
 11 13  1  0  0  0  0
 11 14  1  0  0  0  0
 14 15  1  0  0  0  0
 14 16  1  0  0  0  0
 14 17  1  0  0  0  0
 17 18  1  0  0  0  0
 17 19  1  0  0  0  0
 17 20  1  0  0  0  0
 20 21  1  0  0  0  0
 20 22  1  0  0  0  0
 20 23  1  0  0  0  0
 23 24  1  0  0  0  0
 23 25  1  0  0  0  0
 26 27  2  0  0  0  0
 26 28  1  0  0  0  0
 28 29  1  0  0  0  0
 28 30  1  0  0  0  0
 30 31  1  0  0  0  0
 30 32  1  0  0  0  0
 30 33  1  0  0  0  0
M  END
$$$$

  -OEChem-03222214063D

 33 32  0     1  0  0  0  0  0999 V2000
   -2.8639   -4.8920    0.5751 H   0  0  0  0  0  0  0  0  0  0  0  0
   -2.8881   -3.8943    0.1274 C   0  0  0  0  0  0  0  0  0  0  0  0
   -3.7045   -3.3261    0.5795 H   0  0  0  0  0  0  0  0  0  0  0  0
   -3.0721   -3.9958   -0.9448 H   0  0  0  0  0  0  0  0  0  0  0  0
   -1.5682   -3.1844    0.3633 C   0  0  0  0  0  0  0  0  0  0  0  0
   -0.6952   -3.7306    1.0126 O   0  0  0  0  0  0  0  0  0  0  0  0
   -1.3755   -1.9172   -0.1519 N   0  0  0  0  0  0  0  0  0  0  0  0
   -2.1043   -1.5631   -0.7637 H   0  0  0  0  0  0  0  0  0  0  0  0
   -0.0939   -1.1865   -0.1107 C   0  0  1  0  0  0  0  0  0  0  0  0
    0.6727   -1.7788   -0.6233 H   0  0  0  0  0  0  0  0  0  0  0  0
   -0.2786    0.1615   -0.8365 C   0  0  0  0  0  0  0  0  0  0  0  0
   -1.3072    0.5110   -0.7023 H   0  0  0  0  0  0  0  0  0  0  0  0
    0.3729    0.9229   -0.3924 H   0  0  0  0  0  0  0  0  0  0  0  0
    0.0372    0.0459   -2.3364 C   0  0  0  0  0  0  0  0  0  0  0  0
   -0.2401   -0.9459   -2.7095 H   0  0  0  0  0  0  0  0  0  0  0  0
   -0.5654    0.7822   -2.8781 H   0  0  0  0  0  0  0  0  0  0  0  0
    1.5183    0.3291   -2.6184 C   0  0  0  0  0  0  0  0  0  0  0  0
    1.7773    1.3335   -2.2679 H   0  0  0  0  0  0  0  0  0  0  0  0
    2.1401   -0.3881   -2.0725 H   0  0  0  0  0  0  0  0  0  0  0  0
    1.8183    0.2222   -4.1107 C   0  0  0  0  0  0  0  0  0  0  0  0
    1.5529   -0.7754   -4.4779 H   0  0  0  0  0  0  0  0  0  0  0  0
    1.2263    0.9583   -4.6657 H   0  0  0  0  0  0  0  0  0  0  0  0
    3.2486    0.4643   -4.3178 N   0  0  0  0  0  0  0  0  0  0  0  0
    3.4928    0.4346   -5.3075 H   0  0  0  0  0  0  0  0  0  0  0  0
    3.5385    1.3463   -3.8951 H   0  0  0  0  0  0  0  0  0  0  0  0
    0.4405   -0.9339    1.3177 C   0  0  0  0  0  0  0  0  0  0  0  0
    1.6473   -0.8984    1.5181 O   0  0  0  0  0  0  0  0  0  0  0  0
   -0.4179   -0.4864    2.3063 N   0  0  0  0  0  0  0  0  0  0  0  0
   -1.4080   -0.6205    2.1314 H   0  0  0  0  0  0  0  0  0  0  0  0
    0.0228   -0.2109    3.6676 C   0  0  0  0  0  0  0  0  0  0  0  0
    0.8064    0.5541    3.6700 H   0  0  0  0  0  0  0  0  0  0  0  0
   -0.8145    0.1535    4.2702 H   0  0  0  0  0  0  0  0  0  0  0  0
    0.4170   -1.1206    4.1324 H   0  0  0  0  0  0  0  0  0  0  0  0
  1  2  1  0  0  0  0
  2  3  1  0  0  0  0
  2  4  1  0  0  0  0
  2  5  1  0  0  0  0
  5  6  2  0  0  0  0
  5  7  1  0  0  0  0
  7  8  1  0  0  0  0
  7  9  1  0  0  0  0
  9 10  1  0  0  0  0
  9 11  1  0  0  0  0
  9 26  1  0  0  0  0
 11 12  1  0  0  0  0
 11 13  1  0  0  0  0
 11 14  1  0  0  0  0
 14 15  1  0  0  0  0
 14 16  1  0  0  0  0
 14 17  1  0  0  0  0
 17 18  1  0  0  0  0
 17 19  1  0  0  0  0
 17 20  1  0  0  0  0
 20 21  1  0  0  0  0
 20 22  1  0  0  0  0
 20 23  1  0  0  0  0
 23 24  1  0  0  0  0
 23 25  1  0  0  0  0
 26 27  2  0  0  0  0
 26 28  1  0  0  0  0
 28 29  1  0  0  0  0
 28 30  1  0  0  0  0
 30 31  1  0  0  0  0
 30 32  1  0  0  0  0
 30 33  1  0  0  0  0
M  END
$$$$

  -OEChem-03222214063D

 33 32  0     1  0  0  0  0  0999 V2000
   -2.8869   -4.8936    0.5879 H   0  0  0  0  0  0  0  0  0  0  0  0
   -2.8996   -3.8995    0.1319 C   0  0  0  0  0  0  0  0  0  0  0  0
   -3.7265   -3.3274    0.5594 H   0  0  0  0  0  0  0  0  0  0  0  0
   -3.0570   -4.0092   -0.9438 H   0  0  0  0  0  0  0  0  0  0  0  0
   -1.5852   -3.1885    0.3942 C   0  0  0  0  0  0  0  0  0  0  0  0
   -0.7318   -3.7266    1.0754 O   0  0  0  0  0  0  0  0  0  0  0  0
   -1.3742   -1.9306   -0.1364 N   0  0  0  0  0  0  0  0  0  0  0  0
   -2.0838   -1.5877   -0.7765 H   0  0  0  0  0  0  0  0  0  0  0  0
   -0.0850   -1.2141   -0.0911 C   0  0  1  0  0  0  0  0  0  0  0  0
    0.6756   -1.8276   -0.5843 H   0  0  0  0  0  0  0  0  0  0  0  0
   -0.2532    0.1282   -0.8345 C   0  0  0  0  0  0  0  0  0  0  0  0
   -1.2757    0.4963   -0.7022 H   0  0  0  0  0  0  0  0  0  0  0  0
    0.4129    0.8806   -0.3968 H   0  0  0  0  0  0  0  0  0  0  0  0
    0.0673    0.0203   -2.3336 C   0  0  0  0  0  0  0  0  0  0  0  0
   -0.4415   -0.8503   -2.7606 H   0  0  0  0  0  0  0  0  0  0  0  0
   -0.3238    0.9120   -2.8346 H   0  0  0  0  0  0  0  0  0  0  0  0
    1.5768   -0.0714   -2.6033 C   0  0  0  0  0  0  0  0  0  0  0  0
    2.0875    0.7781   -2.1383 H   0  0  0  0  0  0  0  0  0  0  0  0
    1.9849   -0.9876   -2.1661 H   0  0  0  0  0  0  0  0  0  0  0  0
    1.8571   -0.0699   -4.1033 C   0  0  0  0  0  0  0  0  0  0  0  0
    1.3276   -0.8985   -4.5867 H   0  0  0  0  0  0  0  0  0  0  0  0
    1.5042    0.8665   -4.5493 H   0  0  0  0  0  0  0  0  0  0  0  0
    3.3006   -0.2152   -4.3089 N   0  0  0  0  0  0  0  0  0  0  0  0
    3.5425   -0.1760   -5.2989 H   0  0  0  0  0  0  0  0  0  0  0  0
    3.8204    0.4831   -3.7766 H   0  0  0  0  0  0  0  0  0  0  0  0
    0.4377   -0.9477    1.3393 C   0  0  0  0  0  0  0  0  0  0  0  0
    1.6430   -0.9140    1.5494 O   0  0  0  0  0  0  0  0  0  0  0  0
   -0.4265   -0.4770    2.3120 N   0  0  0  0  0  0  0  0  0  0  0  0
   -1.4156   -0.6104    2.1304 H   0  0  0  0  0  0  0  0  0  0  0  0
    0.0033   -0.1881    3.6742 C   0  0  0  0  0  0  0  0  0  0  0  0
    0.7875    0.5763    3.6750 H   0  0  0  0  0  0  0  0  0  0  0  0
   -0.8389    0.1827    4.2660 H   0  0  0  0  0  0  0  0  0  0  0  0
    0.3935   -1.0933    4.1514 H   0  0  0  0  0  0  0  0  0  0  0  0
  1  2  1  0  0  0  0
  2  3  1  0  0  0  0
  2  4  1  0  0  0  0
  2  5  1  0  0  0  0
  5  6  2  0  0  0  0
  5  7  1  0  0  0  0
  7  8  1  0  0  0  0
  7  9  1  0  0  0  0
  9 10  1  0  0  0  0
  9 11  1  0  0  0  0
  9 26  1  0  0  0  0
 11 12  1  0  0  0  0
 11 13  1  0  0  0  0
 11 14  1  0  0  0  0
 14 15  1  0  0  0  0
 14 16  1  0  0  0  0
 14 17  1  0  0  0  0
 17 18  1  0  0  0  0
 17 19  1  0  0  0  0
 17 20  1  0  0  0  0
 20 21  1  0  0  0  0
 20 22  1  0  0  0  0
 20 23  1  0  0  0  0
 23 24  1  0  0  0  0
 23 25  1  0  0  0  0
 26 27  2  0  0  0  0
 26 28  1  0  0  0  0
 28 29  1  0  0  0  0
 28 30  1  0  0  0  0
 30 31  1  0  0  0  0
 30 32  1  0  0  0  0
 30 33  1  0  0  0  0
M  END
$$$$

  -OEChem-03222214063D

 33 32  0     1  0  0  0  0  0999 V2000
   -2.9328   -4.8989    0.6639 H   0  0  0  0  0  0  0  0  0  0  0  0
   -2.9311   -3.9150    0.1863 C   0  0  0  0  0  0  0  0  0  0  0  0
   -3.7633   -3.3294    0.5841 H   0  0  0  0  0  0  0  0  0  0  0  0
   -3.0681   -4.0477   -0.8896 H   0  0  0  0  0  0  0  0  0  0  0  0
   -1.6185   -3.2050    0.4594 C   0  0  0  0  0  0  0  0  0  0  0  0
   -0.7868   -3.7281    1.1783 O   0  0  0  0  0  0  0  0  0  0  0  0
   -1.3841   -1.9660   -0.1048 N   0  0  0  0  0  0  0  0  0  0  0  0
   -2.0730   -1.6419   -0.7765 H   0  0  0  0  0  0  0  0  0  0  0  0
   -0.0842   -1.2690   -0.0670 C   0  0  1  0  0  0  0  0  0  0  0  0
    0.6715   -1.9101   -0.5278 H   0  0  0  0  0  0  0  0  0  0  0  0
   -0.2314    0.0590   -0.8439 C   0  0  0  0  0  0  0  0  0  0  0  0
   -1.2416    0.4586   -0.7077 H   0  0  0  0  0  0  0  0  0  0  0  0
    0.4594    0.7960   -0.4188 H   0  0  0  0  0  0  0  0  0  0  0  0
    0.0854   -0.0413   -2.3469 C   0  0  0  0  0  0  0  0  0  0  0  0
   -0.6192   -0.7316   -2.8219 H   0  0  0  0  0  0  0  0  0  0  0  0
   -0.0704    0.9478   -2.7903 H   0  0  0  0  0  0  0  0  0  0  0  0
    1.5206   -0.5023   -2.6476 C   0  0  0  0  0  0  0  0  0  0  0  0
    2.2279    0.0654   -2.0339 H   0  0  0  0  0  0  0  0  0  0  0  0
    1.6375   -1.5629   -2.4070 H   0  0  0  0  0  0  0  0  0  0  0  0
    1.8555   -0.2989   -4.1224 C   0  0  0  0  0  0  0  0  0  0  0  0
    1.1237   -0.8192   -4.7504 H   0  0  0  0  0  0  0  0  0  0  0  0
    1.8212    0.7675   -4.3710 H   0  0  0  0  0  0  0  0  0  0  0  0
    3.1959   -0.8346   -4.3740 N   0  0  0  0  0  0  0  0  0  0  0  0
    3.4853   -0.6760   -5.3389 H   0  0  0  0  0  0  0  0  0  0  0  0
    3.8759   -0.4453   -3.7200 H   0  0  0  0  0  0  0  0  0  0  0  0
    0.4288   -0.9710    1.3611 C   0  0  0  0  0  0  0  0  0  0  0  0
    1.6329   -0.9461    1.5805 O   0  0  0  0  0  0  0  0  0  0  0  0
   -0.4367   -0.4598    2.3120 N   0  0  0  0  0  0  0  0  0  0  0  0
   -1.4257   -0.5889    2.1268 H   0  0  0  0  0  0  0  0  0  0  0  0
   -0.0148   -0.1370    3.6691 C   0  0  0  0  0  0  0  0  0  0  0  0
    0.7858    0.6100    3.6546 H   0  0  0  0  0  0  0  0  0  0  0  0
   -0.8545    0.2712    4.2393 H   0  0  0  0  0  0  0  0  0  0  0  0
    0.3500   -1.0345    4.1798 H   0  0  0  0  0  0  0  0  0  0  0  0
  1  2  1  0  0  0  0
  2  3  1  0  0  0  0
  2  4  1  0  0  0  0
  2  5  1  0  0  0  0
  5  6  2  0  0  0  0
  5  7  1  0  0  0  0
  7  8  1  0  0  0  0
  7  9  1  0  0  0  0
  9 10  1  0  0  0  0
  9 11  1  0  0  0  0
  9 26  1  0  0  0  0
 11 12  1  0  0  0  0
 11 13  1  0  0  0  0
 11 14  1  0  0  0  0
 14 15  1  0  0  0  0
 14 16  1  0  0  0  0
 14 17  1  0  0  0  0
 17 18  1  0  0  0  0
 17 19  1  0  0  0  0
 17 20  1  0  0  0  0
 20 21  1  0  0  0  0
 20 22  1  0  0  0  0
 20 23  1  0  0  0  0
 23 24  1  0  0  0  0
 23 25  1  0  0  0  0
 26 27  2  0  0  0  0
 26 28  1  0  0  0  0
 28 29  1  0  0  0  0
 28 30  1  0  0  0  0
 30 31  1  0  0  0  0
 30 32  1  0  0  0  0
 30 33  1  0  0  0  0
M  END
$$$$

  -OEChem-03222214063D

 33 32  0     1  0  0  0  0  0999 V2000
   -2.9723   -4.8868    0.7426 H   0  0  0  0  0  0  0  0  0  0  0  0
   -2.9526   -3.9198    0.2320 C   0  0  0  0  0  0  0  0  0  0  0  0
   -3.7853   -3.3131    0.5955 H   0  0  0  0  0  0  0  0  0  0  0  0
   -3.0718   -4.0877   -0.8411 H   0  0  0  0  0  0  0  0  0  0  0  0
   -1.6378   -3.2136    0.5039 C   0  0  0  0  0  0  0  0  0  0  0  0
   -0.8156   -3.7300    1.2386 O   0  0  0  0  0  0  0  0  0  0  0  0
   -1.3907   -1.9862   -0.0804 N   0  0  0  0  0  0  0  0  0  0  0  0
   -2.0679   -1.6749   -0.7699 H   0  0  0  0  0  0  0  0  0  0  0  0
   -0.0846   -1.3010   -0.0476 C   0  0  1  0  0  0  0  0  0  0  0  0
    0.6715   -1.9561   -0.4865 H   0  0  0  0  0  0  0  0  0  0  0  0
   -0.2190    0.0202   -0.8417 C   0  0  0  0  0  0  0  0  0  0  0  0
   -1.2165    0.4470   -0.6954 H   0  0  0  0  0  0  0  0  0  0  0  0
    0.4944    0.7388   -0.4223 H   0  0  0  0  0  0  0  0  0  0  0  0
    0.0921   -0.0619   -2.3500 C   0  0  0  0  0  0  0  0  0  0  0  0
   -0.7560   -0.5285   -2.8615 H   0  0  0  0  0  0  0  0  0  0  0  0
    0.1819    0.9613   -2.7301 H   0  0  0  0  0  0  0  0  0  0  0  0
    1.3623   -0.8490   -2.7078 C   0  0  0  0  0  0  0  0  0  0  0  0
    2.1799   -0.5541   -2.0418 H   0  0  0  0  0  0  0  0  0  0  0  0
    1.1859   -1.9217   -2.5818 H   0  0  0  0  0  0  0  0  0  0  0  0
    1.7730   -0.5888   -4.1543 C   0  0  0  0  0  0  0  0  0  0  0  0
    0.9446   -0.8269   -4.8307 H   0  0  0  0  0  0  0  0  0  0  0  0
    2.0284    0.4683   -4.2871 H   0  0  0  0  0  0  0  0  0  0  0  0
    2.9294   -1.4320   -4.4683 N   0  0  0  0  0  0  0  0  0  0  0  0
    3.2718   -1.2563   -5.4127 H   0  0  0  0  0  0  0  0  0  0  0  0
    3.6735   -1.3048   -3.7813 H   0  0  0  0  0  0  0  0  0  0  0  0
    0.4195   -0.9862    1.3804 C   0  0  0  0  0  0  0  0  0  0  0  0
    1.6221   -0.9731    1.6093 O   0  0  0  0  0  0  0  0  0  0  0  0
   -0.4474   -0.4525    2.3176 N   0  0  0  0  0  0  0  0  0  0  0  0
   -1.4366   -0.5706    2.1257 H   0  0  0  0  0  0  0  0  0  0  0  0
   -0.0317   -0.1204    3.6744 C   0  0  0  0  0  0  0  0  0  0  0  0
    0.7724    0.6228    3.6579 H   0  0  0  0  0  0  0  0  0  0  0  0
   -0.8725    0.2955    4.2374 H   0  0  0  0  0  0  0  0  0  0  0  0
    0.3267   -1.0155    4.1937 H   0  0  0  0  0  0  0  0  0  0  0  0
  1  2  1  0  0  0  0
  2  3  1  0  0  0  0
  2  4  1  0  0  0  0
  2  5  1  0  0  0  0
  5  6  2  0  0  0  0
  5  7  1  0  0  0  0
  7  8  1  0  0  0  0
  7  9  1  0  0  0  0
  9 10  1  0  0  0  0
  9 11  1  0  0  0  0
  9 26  1  0  0  0  0
 11 12  1  0  0  0  0
 11 13  1  0  0  0  0
 11 14  1  0  0  0  0
 14 15  1  0  0  0  0
 14 16  1  0  0  0  0
 14 17  1  0  0  0  0
 17 18  1  0  0  0  0
 17 19  1  0  0  0  0
 17 20  1  0  0  0  0
 20 21  1  0  0  0  0
 20 22  1  0  0  0  0
 20 23  1  0  0  0  0
 23 24  1  0  0  0  0
 23 25  1  0  0  0  0
 26 27  2  0  0  0  0
 26 28  1  0  0  0  0
 28 29  1  0  0  0  0
 28 30  1  0  0  0  0
 30 31  1  0  0  0  0
 30 32  1  0  0  0  0
 30 33  1  0  0  0  0
M  END
$$$$

  -OEChem-03222214063D

 33 32  0     1  0  0  0  0  0999 V2000
   -2.9778   -4.8957    0.7357 H   0  0  0  0  0  0  0  0  0  0  0  0
   -2.9593   -3.9185    0.2444 C   0  0  0  0  0  0  0  0  0  0  0  0
   -3.7873   -3.3169    0.6267 H   0  0  0  0  0  0  0  0  0  0  0  0
   -3.0880   -4.0647   -0.8308 H   0  0  0  0  0  0  0  0  0  0  0  0
   -1.6404   -3.2215    0.5209 C   0  0  0  0  0  0  0  0  0  0  0  0
   -0.8299   -3.7387    1.2681 O   0  0  0  0  0  0  0  0  0  0  0  0
   -1.3778   -1.9991   -0.0676 N   0  0  0  0  0  0  0  0  0  0  0  0
   -2.0441   -1.6872   -0.7676 H   0  0  0  0  0  0  0  0  0  0  0  0
   -0.0689   -1.3200   -0.0193 C   0  0  1  0  0  0  0  0  0  0  0  0
    0.6944   -1.9794   -0.4390 H   0  0  0  0  0  0  0  0  0  0  0  0
   -0.1910    0.0021   -0.8170 C   0  0  0  0  0  0  0  0  0  0  0  0
   -1.1825    0.4420   -0.6682 H   0  0  0  0  0  0  0  0  0  0  0  0
    0.5298    0.7076   -0.3877 H   0  0  0  0  0  0  0  0  0  0  0  0
    0.1304   -0.0524   -2.3276 C   0  0  0  0  0  0  0  0  0  0  0  0
   -0.7986   -0.2643   -2.8669 H   0  0  0  0  0  0  0  0  0  0  0  0
    0.4674    0.9421   -2.6390 H   0  0  0  0  0  0  0  0  0  0  0  0
    1.1679   -1.0995   -2.7589 C   0  0  0  0  0  0  0  0  0  0  0  0
    2.0617   -1.0150   -2.1317 H   0  0  0  0  0  0  0  0  0  0  0  0
    0.7536   -2.1057   -2.6375 H   0  0  0  0  0  0  0  0  0  0  0  0
    1.5611   -0.9045   -4.2202 C   0  0  0  0  0  0  0  0  0  0  0  0
    0.6702   -0.9298   -4.8574 H   0  0  0  0  0  0  0  0  0  0  0  0
    2.0465    0.0691   -4.3514 H   0  0  0  0  0  0  0  0  0  0  0  0
    2.4761   -1.9836   -4.6020 N   0  0  0  0  0  0  0  0  0  0  0  0
    2.7981   -1.8749   -5.5637 H   0  0  0  0  0  0  0  0  0  0  0  0
    3.2660   -2.0389   -3.9579 H   0  0  0  0  0  0  0  0  0  0  0  0
    0.4119   -0.9993    1.4157 C   0  0  0  0  0  0  0  0  0  0  0  0
    1.6104   -0.9886    1.6657 O   0  0  0  0  0  0  0  0  0  0  0  0
   -0.4695   -0.4562    2.3336 N   0  0  0  0  0  0  0  0  0  0  0  0
   -1.4552   -0.5728    2.1245 H   0  0  0  0  0  0  0  0  0  0  0  0
   -0.0778   -0.1097    3.6938 C   0  0  0  0  0  0  0  0  0  0  0  0
    0.7368    0.6221    3.6846 H   0  0  0  0  0  0  0  0  0  0  0  0
   -0.9246    0.3265    4.2319 H   0  0  0  0  0  0  0  0  0  0  0  0
    0.2563   -1.0018    4.2336 H   0  0  0  0  0  0  0  0  0  0  0  0
  1  2  1  0  0  0  0
  2  3  1  0  0  0  0
  2  4  1  0  0  0  0
  2  5  1  0  0  0  0
  5  6  2  0  0  0  0
  5  7  1  0  0  0  0
  7  8  1  0  0  0  0
  7  9  1  0  0  0  0
  9 10  1  0  0  0  0
  9 11  1  0  0  0  0
  9 26  1  0  0  0  0
 11 12  1  0  0  0  0
 11 13  1  0  0  0  0
 11 14  1  0  0  0  0
 14 15  1  0  0  0  0
 14 16  1  0  0  0  0
 14 17  1  0  0  0  0
 17 18  1  0  0  0  0
 17 19  1  0  0  0  0
 17 20  1  0  0  0  0
 20 21  1  0  0  0  0
 20 22  1  0  0  0  0
 20 23  1  0  0  0  0
 23 24  1  0  0  0  0
 23 25  1  0  0  0  0
 26 27  2  0  0  0  0
 26 28  1  0  0  0  0
 28 29  1  0  0  0  0
 28 30  1  0  0  0  0
 30 31  1  0  0  0  0
 30 32  1  0  0  0  0
 30 33  1  0  0  0  0
M  END
$$$$

  -OEChem-03222214063D

 33 32  0     1  0  0  0  0  0999 V2000
   -2.9857   -4.8762    0.7455 H   0  0  0  0  0  0  0  0  0  0  0  0
   -2.9396   -3.9202    0.2162 C   0  0  0  0  0  0  0  0  0  0  0  0
   -3.7881   -3.3055    0.5254 H   0  0  0  0  0  0  0  0  0  0  0  0
   -3.0071   -4.1112   -0.8575 H   0  0  0  0  0  0  0  0  0  0  0  0
   -1.6383   -3.2091    0.5363 C   0  0  0  0  0  0  0  0  0  0  0  0
   -0.8485   -3.7164    1.3119 O   0  0  0  0  0  0  0  0  0  0  0  0
   -1.3651   -1.9901   -0.0537 N   0  0  0  0  0  0  0  0  0  0  0  0
   -2.0087   -1.6946   -0.7815 H   0  0  0  0  0  0  0  0  0  0  0  0
   -0.0550   -1.3147    0.0085 C   0  0  1  0  0  0  0  0  0  0  0  0
    0.7149   -1.9759   -0.3963 H   0  0  0  0  0  0  0  0  0  0  0  0
   -0.1640    0.0045   -0.7965 C   0  0  0  0  0  0  0  0  0  0  0  0
   -1.1567    0.4456   -0.6587 H   0  0  0  0  0  0  0  0  0  0  0  0
    0.5500    0.7113   -0.3578 H   0  0  0  0  0  0  0  0  0  0  0  0
    0.1737   -0.0466   -2.3066 C   0  0  0  0  0  0  0  0  0  0  0  0
   -0.7688    0.0150   -2.8605 H   0  0  0  0  0  0  0  0  0  0  0  0
    0.7560    0.8457   -2.5602 H   0  0  0  0  0  0  0  0  0  0  0  0
    0.9221   -1.2918   -2.8050 C   0  0  0  0  0  0  0  0  0  0  0  0
    1.8619   -1.4036   -2.2545 H   0  0  0  0  0  0  0  0  0  0  0  0
    0.3117   -2.1851   -2.6355 H   0  0  0  0  0  0  0  0  0  0  0  0
    1.2313   -1.1799   -4.2950 C   0  0  0  0  0  0  0  0  0  0  0  0
    0.3079   -1.0184   -4.8620 H   0  0  0  0  0  0  0  0  0  0  0  0
    1.8965   -0.3286   -4.4776 H   0  0  0  0  0  0  0  0  0  0  0  0
    1.8696   -2.4252   -4.7293 N   0  0  0  0  0  0  0  0  0  0  0  0
    2.1290   -2.3843   -5.7149 H   0  0  0  0  0  0  0  0  0  0  0  0
    2.6806   -2.6425   -4.1489 H   0  0  0  0  0  0  0  0  0  0  0  0
    0.4063   -0.9910    1.4489 C   0  0  0  0  0  0  0  0  0  0  0  0
    1.6013   -0.9857    1.7157 O   0  0  0  0  0  0  0  0  0  0  0  0
   -0.4860   -0.4426    2.3531 N   0  0  0  0  0  0  0  0  0  0  0  0
   -1.4690   -0.5599    2.1309 H   0  0  0  0  0  0  0  0  0  0  0  0
   -0.1126   -0.1108    3.7223 C   0  0  0  0  0  0  0  0  0  0  0  0
    0.6905    0.6334    3.7310 H   0  0  0  0  0  0  0  0  0  0  0  0
   -0.9710    0.3031    4.2594 H   0  0  0  0  0  0  0  0  0  0  0  0
    0.2306   -1.0058    4.2517 H   0  0  0  0  0  0  0  0  0  0  0  0
  1  2  1  0  0  0  0
  2  3  1  0  0  0  0
  2  4  1  0  0  0  0
  2  5  1  0  0  0  0
  5  6  2  0  0  0  0
  5  7  1  0  0  0  0
  7  8  1  0  0  0  0
  7  9  1  0  0  0  0
  9 10  1  0  0  0  0
  9 11  1  0  0  0  0
  9 26  1  0  0  0  0
 11 12  1  0  0  0  0
 11 13  1  0  0  0  0
 11 14  1  0  0  0  0
 14 15  1  0  0  0  0
 14 16  1  0  0  0  0
 14 17  1  0  0  0  0
 17 18  1  0  0  0  0
 17 19  1  0  0  0  0
 17 20  1  0  0  0  0
 20 21  1  0  0  0  0
 20 22  1  0  0  0  0
 20 23  1  0  0  0  0
 23 24  1  0  0  0  0
 23 25  1  0  0  0  0
 26 27  2  0  0  0  0
 26 28  1  0  0  0  0
 28 29  1  0  0  0  0
 28 30  1  0  0  0  0
 30 31  1  0  0  0  0
 30 32  1  0  0  0  0
 30 33  1  0  0  0  0
M  END
$$$$

  -OEChem-03222214063D

 33 32  0     1  0  0  0  0  0999 V2000
   -2.9745   -4.8833    0.7400 H   0  0  0  0  0  0  0  0  0  0  0  0
   -2.9260   -3.9291    0.2076 C   0  0  0  0  0  0  0  0  0  0  0  0
   -3.7816   -3.3172    0.5033 H   0  0  0  0  0  0  0  0  0  0  0  0
   -2.9785   -4.1241   -0.8663 H   0  0  0  0  0  0  0  0  0  0  0  0
   -1.6318   -3.2108    0.5412 C   0  0  0  0  0  0  0  0  0  0  0  0
   -0.8478   -3.7121    1.3265 O   0  0  0  0  0  0  0  0  0  0  0  0
   -1.3580   -1.9921   -0.0490 N   0  0  0  0  0  0  0  0  0  0  0  0
   -1.9923   -1.7059   -0.7886 H   0  0  0  0  0  0  0  0  0  0  0  0
   -0.0501   -1.3125    0.0223 C   0  0  1  0  0  0  0  0  0  0  0  0
    0.7248   -1.9725   -0.3753 H   0  0  0  0  0  0  0  0  0  0  0  0
   -0.1470    0.0030   -0.7898 C   0  0  0  0  0  0  0  0  0  0  0  0
   -1.1506    0.4260   -0.6754 H   0  0  0  0  0  0  0  0  0  0  0  0
    0.5435    0.7269   -0.3414 H   0  0  0  0  0  0  0  0  0  0  0  0
    0.2103   -0.0562   -2.2963 C   0  0  0  0  0  0  0  0  0  0  0  0
   -0.6633    0.2887   -2.8592 H   0  0  0  0  0  0  0  0  0  0  0  0
    1.0185    0.6583   -2.4868 H   0  0  0  0  0  0  0  0  0  0  0  0
    0.6320   -1.4238   -2.8575 C   0  0  0  0  0  0  0  0  0  0  0  0
    1.5599   -1.7537   -2.3798 H   0  0  0  0  0  0  0  0  0  0  0  0
   -0.1471   -2.1654   -2.6544 H   0  0  0  0  0  0  0  0  0  0  0  0
    0.8594   -1.3451   -4.3641 C   0  0  0  0  0  0  0  0  0  0  0  0
   -0.0400   -0.9691   -4.8639 H   0  0  0  0  0  0  0  0  0  0  0  0
    1.6841   -0.6579   -4.5837 H   0  0  0  0  0  0  0  0  0  0  0  0
    1.1732   -2.6904   -4.8531 N   0  0  0  0  0  0  0  0  0  0  0  0
    1.3558   -2.6864   -5.8568 H   0  0  0  0  0  0  0  0  0  0  0  0
    1.9616   -3.0900   -4.3428 H   0  0  0  0  0  0  0  0  0  0  0  0
    0.4010   -0.9838    1.4647 C   0  0  0  0  0  0  0  0  0  0  0  0
    1.5945   -0.9716    1.7377 O   0  0  0  0  0  0  0  0  0  0  0  0
   -0.4982   -0.4355    2.3621 N   0  0  0  0  0  0  0  0  0  0  0  0
   -1.4795   -0.5598    2.1363 H   0  0  0  0  0  0  0  0  0  0  0  0
   -0.1333   -0.0963    3.7316 C   0  0  0  0  0  0  0  0  0  0  0  0
    0.6686    0.6492    3.7416 H   0  0  0  0  0  0  0  0  0  0  0  0
   -0.9958    0.3191    4.2610 H   0  0  0  0  0  0  0  0  0  0  0  0
    0.2080   -0.9882    4.2675 H   0  0  0  0  0  0  0  0  0  0  0  0
  1  2  1  0  0  0  0
  2  3  1  0  0  0  0
  2  4  1  0  0  0  0
  2  5  1  0  0  0  0
  5  6  2  0  0  0  0
  5  7  1  0  0  0  0
  7  8  1  0  0  0  0
  7  9  1  0  0  0  0
  9 10  1  0  0  0  0
  9 11  1  0  0  0  0
  9 26  1  0  0  0  0
 11 12  1  0  0  0  0
 11 13  1  0  0  0  0
 11 14  1  0  0  0  0
 14 15  1  0  0  0  0
 14 16  1  0  0  0  0
 14 17  1  0  0  0  0
 17 18  1  0  0  0  0
 17 19  1  0  0  0  0
 17 20  1  0  0  0  0
 20 21  1  0  0  0  0
 20 22  1  0  0  0  0
 20 23  1  0  0  0  0
 23 24  1  0  0  0  0
 23 25  1  0  0  0  0
 26 27  2  0  0  0  0
 26 28  1  0  0  0  0
 28 29  1  0  0  0  0
 28 30  1  0  0  0  0
 30 31  1  0  0  0  0
 30 32  1  0  0  0  0
 30 33  1  0  0  0  0
M  END
$$$$

  -OEChem-03222214063D

 33 32  0     1  0  0  0  0  0999 V2000
   -2.9550   -4.9013    0.7347 H   0  0  0  0  0  0  0  0  0  0  0  0
   -2.9234   -3.9343    0.2246 C   0  0  0  0  0  0  0  0  0  0  0  0
   -3.7731   -3.3331    0.5565 H   0  0  0  0  0  0  0  0  0  0  0  0
   -3.0022   -4.1031   -0.8521 H   0  0  0  0  0  0  0  0  0  0  0  0
   -1.6245   -3.2187    0.5444 C   0  0  0  0  0  0  0  0  0  0  0  0
   -0.8321   -3.7218    1.3203 O   0  0  0  0  0  0  0  0  0  0  0  0
   -1.3568   -1.9994   -0.0469 N   0  0  0  0  0  0  0  0  0  0  0  0
   -1.9977   -1.7125   -0.7808 H   0  0  0  0  0  0  0  0  0  0  0  0
   -0.0514   -1.3139    0.0187 C   0  0  1  0  0  0  0  0  0  0  0  0
    0.7270   -1.9674   -0.3837 H   0  0  0  0  0  0  0  0  0  0  0  0
   -0.1446   -0.0005   -0.7953 C   0  0  0  0  0  0  0  0  0  0  0  0
   -1.1581    0.4019   -0.6960 H   0  0  0  0  0  0  0  0  0  0  0  0
    0.5269    0.7408   -0.3469 H   0  0  0  0  0  0  0  0  0  0  0  0
    0.2170   -0.0752   -2.2989 C   0  0  0  0  0  0  0  0  0  0  0  0
   -0.5091    0.5287   -2.8529 H   0  0  0  0  0  0  0  0  0  0  0  0
    1.1976    0.3932   -2.4358 H   0  0  0  0  0  0  0  0  0  0  0  0
    0.2826   -1.4800   -2.9222 C   0  0  0  0  0  0  0  0  0  0  0  0
    1.1110   -2.0494   -2.4909 H   0  0  0  0  0  0  0  0  0  0  0  0
   -0.6495   -2.0174   -2.7221 H   0  0  0  0  0  0  0  0  0  0  0  0
    0.4878   -1.3944   -4.4315 C   0  0  0  0  0  0  0  0  0  0  0  0
   -0.3100   -0.7990   -4.8891 H   0  0  0  0  0  0  0  0  0  0  0  0
    1.4453   -0.9102   -4.6543 H   0  0  0  0  0  0  0  0  0  0  0  0
    0.4664   -2.7550   -4.9757 N   0  0  0  0  0  0  0  0  0  0  0  0
    0.6105   -2.7510   -5.9857 H   0  0  0  0  0  0  0  0  0  0  0  0
    1.1598   -3.3441   -4.5132 H   0  0  0  0  0  0  0  0  0  0  0  0
    0.4019   -0.9829    1.4601 C   0  0  0  0  0  0  0  0  0  0  0  0
    1.5962   -0.9621    1.7296 O   0  0  0  0  0  0  0  0  0  0  0  0
   -0.4985   -0.4387    2.3586 N   0  0  0  0  0  0  0  0  0  0  0  0
   -1.4797   -0.5666    2.1341 H   0  0  0  0  0  0  0  0  0  0  0  0
   -0.1330   -0.0833    3.7239 C   0  0  0  0  0  0  0  0  0  0  0  0
    0.6695    0.6619    3.7248 H   0  0  0  0  0  0  0  0  0  0  0  0
   -0.9950    0.3401    4.2479 H   0  0  0  0  0  0  0  0  0  0  0  0
    0.2073   -0.9685    4.2715 H   0  0  0  0  0  0  0  0  0  0  0  0
  1  2  1  0  0  0  0
  2  3  1  0  0  0  0
  2  4  1  0  0  0  0
  2  5  1  0  0  0  0
  5  6  2  0  0  0  0
  5  7  1  0  0  0  0
  7  8  1  0  0  0  0
  7  9  1  0  0  0  0
  9 10  1  0  0  0  0
  9 11  1  0  0  0  0
  9 26  1  0  0  0  0
 11 12  1  0  0  0  0
 11 13  1  0  0  0  0
 11 14  1  0  0  0  0
 14 15  1  0  0  0  0
 14 16  1  0  0  0  0
 14 17  1  0  0  0  0
 17 18  1  0  0  0  0
 17 19  1  0  0  0  0
 17 20  1  0  0  0  0
 20 21  1  0  0  0  0
 20 22  1  0  0  0  0
 20 23  1  0  0  0  0
 23 24  1  0  0  0  0
 23 25  1  0  0  0  0
 26 27  2  0  0  0  0
 26 28  1  0  0  0  0
 28 29  1  0  0  0  0
 28 30  1  0  0  0  0
 30 31  1  0  0  0  0
 30 32  1  0  0  0  0
 30 33  1  0  0  0  0
M  END
$$$$

  -OEChem-03222214063D

 33 32  0     1  0  0  0  0  0999 V2000
   -2.9400   -4.9068    0.7279 H   0  0  0  0  0  0  0  0  0  0  0  0
   -2.9201   -3.9354    0.2258 C   0  0  0  0  0  0  0  0  0  0  0  0
   -3.7686   -3.3419    0.5740 H   0  0  0  0  0  0  0  0  0  0  0  0
   -3.0123   -4.0955   -0.8511 H   0  0  0  0  0  0  0  0  0  0  0  0
   -1.6214   -3.2146    0.5336 C   0  0  0  0  0  0  0  0  0  0  0  0
   -0.8143   -3.7198    1.2928 O   0  0  0  0  0  0  0  0  0  0  0  0
   -1.3689   -1.9901   -0.0532 N   0  0  0  0  0  0  0  0  0  0  0  0
   -2.0219   -1.7019   -0.7760 H   0  0  0  0  0  0  0  0  0  0  0  0
   -0.0666   -1.2976   -0.0014 C   0  0  1  0  0  0  0  0  0  0  0  0
    0.7101   -1.9420   -0.4241 H   0  0  0  0  0  0  0  0  0  0  0  0
   -0.1675    0.0173   -0.8089 C   0  0  0  0  0  0  0  0  0  0  0  0
   -1.1843    0.4114   -0.7101 H   0  0  0  0  0  0  0  0  0  0  0  0
    0.5020    0.7650   -0.3688 H   0  0  0  0  0  0  0  0  0  0  0  0
    0.1861   -0.0787   -2.3098 C   0  0  0  0  0  0  0  0  0  0  0  0
   -0.3483    0.7160   -2.8410 H   0  0  0  0  0  0  0  0  0  0  0  0
    1.2580    0.1198   -2.4188 H   0  0  0  0  0  0  0  0  0  0  0  0
   -0.1074   -1.4327   -2.9793 C   0  0  0  0  0  0  0  0  0  0  0  0
    0.5260   -2.2181   -2.5577 H   0  0  0  0  0  0  0  0  0  0  0  0
   -1.1535   -1.7055   -2.8100 H   0  0  0  0  0  0  0  0  0  0  0  0
    0.1457   -1.3579   -4.4815 C   0  0  0  0  0  0  0  0  0  0  0  0
   -0.4684   -0.5684   -4.9291 H   0  0  0  0  0  0  0  0  0  0  0  0
    1.1982   -1.1215   -4.6747 H   0  0  0  0  0  0  0  0  0  0  0  0
   -0.2013   -2.6540   -5.0713 N   0  0  0  0  0  0  0  0  0  0  0  0
   -0.0657   -2.6464   -6.0825 H   0  0  0  0  0  0  0  0  0  0  0  0
    0.3364   -3.4068   -4.6403 H   0  0  0  0  0  0  0  0  0  0  0  0
    0.4058   -0.9733    1.4348 C   0  0  0  0  0  0  0  0  0  0  0  0
    1.6037   -0.9530    1.6874 O   0  0  0  0  0  0  0  0  0  0  0  0
   -0.4833   -0.4399    2.3507 N   0  0  0  0  0  0  0  0  0  0  0  0
   -1.4674   -0.5649    2.1376 H   0  0  0  0  0  0  0  0  0  0  0  0
   -0.0995   -0.1012    3.7150 C   0  0  0  0  0  0  0  0  0  0  0  0
    0.6977    0.6496    3.7143 H   0  0  0  0  0  0  0  0  0  0  0  0
   -0.9562    0.3076    4.2588 H   0  0  0  0  0  0  0  0  0  0  0  0
    0.2560   -0.9921    4.2433 H   0  0  0  0  0  0  0  0  0  0  0  0
  1  2  1  0  0  0  0
  2  3  1  0  0  0  0
  2  4  1  0  0  0  0
  2  5  1  0  0  0  0
  5  6  2  0  0  0  0
  5  7  1  0  0  0  0
  7  8  1  0  0  0  0
  7  9  1  0  0  0  0
  9 10  1  0  0  0  0
  9 11  1  0  0  0  0
  9 26  1  0  0  0  0
 11 12  1  0  0  0  0
 11 13  1  0  0  0  0
 11 14  1  0  0  0  0
 14 15  1  0  0  0  0
 14 16  1  0  0  0  0
 14 17  1  0  0  0  0
 17 18  1  0  0  0  0
 17 19  1  0  0  0  0
 17 20  1  0  0  0  0
 20 21  1  0  0  0  0
 20 22  1  0  0  0  0
 20 23  1  0  0  0  0
 23 24  1  0  0  0  0
 23 25  1  0  0  0  0
 26 27  2  0  0  0  0
 26 28  1  0  0  0  0
 28 29  1  0  0  0  0
 28 30  1  0  0  0  0
 30 31  1  0  0  0  0
 30 32  1  0  0  0  0
 30 33  1  0  0  0  0
M  END
$$$$

  -OEChem-03222214063D

 33 32  0     1  0  0  0  0  0999 V2000
   -2.9171   -4.9186    0.6553 H   0  0  0  0  0  0  0  0  0  0  0  0
   -2.9224   -3.9280    0.1914 C   0  0  0  0  0  0  0  0  0  0  0  0
   -3.7647   -3.3575    0.5898 H   0  0  0  0  0  0  0  0  0  0  0  0
   -3.0482   -4.0472   -0.8876 H   0  0  0  0  0  0  0  0  0  0  0  0
   -1.6204   -3.2074    0.4868 C   0  0  0  0  0  0  0  0  0  0  0  0
   -0.7927   -3.7276    1.2130 O   0  0  0  0  0  0  0  0  0  0  0  0
   -1.3837   -1.9690   -0.0769 N   0  0  0  0  0  0  0  0  0  0  0  0
   -2.0531   -1.6628   -0.7773 H   0  0  0  0  0  0  0  0  0  0  0  0
   -0.0849   -1.2694   -0.0274 C   0  0  1  0  0  0  0  0  0  0  0  0
    0.6843   -1.9025   -0.4824 H   0  0  0  0  0  0  0  0  0  0  0  0
   -0.1989    0.0528   -0.8183 C   0  0  0  0  0  0  0  0  0  0  0  0
   -1.2136    0.4503   -0.7131 H   0  0  0  0  0  0  0  0  0  0  0  0
    0.4793    0.7955   -0.3832 H   0  0  0  0  0  0  0  0  0  0  0  0
    0.1521   -0.0622   -2.3146 C   0  0  0  0  0  0  0  0  0  0  0  0
   -0.1684    0.8563   -2.8173 H   0  0  0  0  0  0  0  0  0  0  0  0
    1.2413   -0.1272   -2.4113 H   0  0  0  0  0  0  0  0  0  0  0  0
   -0.4697   -1.2782   -3.0203 C   0  0  0  0  0  0  0  0  0  0  0  0
   -0.0688   -2.2072   -2.6040 H   0  0  0  0  0  0  0  0  0  0  0  0
   -1.5536   -1.2739   -2.8687 H   0  0  0  0  0  0  0  0  0  0  0  0
   -0.1782   -1.2444   -4.5168 C   0  0  0  0  0  0  0  0  0  0  0  0
   -0.5855   -0.3285   -4.9595 H   0  0  0  0  0  0  0  0  0  0  0  0
    0.9038   -1.2549   -4.6906 H   0  0  0  0  0  0  0  0  0  0  0  0
   -0.8028   -2.4186   -5.1334 N   0  0  0  0  0  0  0  0  0  0  0  0
   -0.6628   -2.4212   -6.1442 H   0  0  0  0  0  0  0  0  0  0  0  0
   -0.4476   -3.2804   -4.7184 H   0  0  0  0  0  0  0  0  0  0  0  0
    0.4110   -0.9696    1.4059 C   0  0  0  0  0  0  0  0  0  0  0  0
    1.6129   -0.9498    1.6386 O   0  0  0  0  0  0  0  0  0  0  0  0
   -0.4649   -0.4590    2.3473 N   0  0  0  0  0  0  0  0  0  0  0  0
   -1.4524   -0.5800    2.1479 H   0  0  0  0  0  0  0  0  0  0  0  0
   -0.0589   -0.1308    3.7080 C   0  0  0  0  0  0  0  0  0  0  0  0
    0.7381    0.6202    3.7002 H   0  0  0  0  0  0  0  0  0  0  0  0
   -0.9066    0.2742    4.2686 H   0  0  0  0  0  0  0  0  0  0  0  0
    0.3048   -1.0255    4.2241 H   0  0  0  0  0  0  0  0  0  0  0  0
  1  2  1  0  0  0  0
  2  3  1  0  0  0  0
  2  4  1  0  0  0  0
  2  5  1  0  0  0  0
  5  6  2  0  0  0  0
  5  7  1  0  0  0  0
  7  8  1  0  0  0  0
  7  9  1  0  0  0  0
  9 10  1  0  0  0  0
  9 11  1  0  0  0  0
  9 26  1  0  0  0  0
 11 12  1  0  0  0  0
 11 13  1  0  0  0  0
 11 14  1  0  0  0  0
 14 15  1  0  0  0  0
 14 16  1  0  0  0  0
 14 17  1  0  0  0  0
 17 18  1  0  0  0  0
 17 19  1  0  0  0  0
 17 20  1  0  0  0  0
 20 21  1  0  0  0  0
 20 22  1  0  0  0  0
 20 23  1  0  0  0  0
 23 24  1  0  0  0  0
 23 25  1  0  0  0  0
 26 27  2  0  0  0  0
 26 28  1  0  0  0  0
 28 29  1  0  0  0  0
 28 30  1  0  0  0  0
 30 31  1  0  0  0  0
 30 32  1  0  0  0  0
 30 33  1  0  0  0  0
M  END
$$$$

  -OEChem-03222214063D

 33 32  0     1  0  0  0  0  0999 V2000
   -2.9200   -4.9028    0.6239 H   0  0  0  0  0  0  0  0  0  0  0  0
   -2.9283   -3.9049    0.1764 C   0  0  0  0  0  0  0  0  0  0  0  0
   -3.7564   -3.3346    0.6037 H   0  0  0  0  0  0  0  0  0  0  0  0
   -3.0804   -4.0052   -0.9009 H   0  0  0  0  0  0  0  0  0  0  0  0
   -1.6144   -3.1982    0.4518 C   0  0  0  0  0  0  0  0  0  0  0  0
   -0.7747   -3.7328    1.1530 O   0  0  0  0  0  0  0  0  0  0  0  0
   -1.3827   -1.9529   -0.0979 N   0  0  0  0  0  0  0  0  0  0  0  0
   -2.0678   -1.6266   -0.7736 H   0  0  0  0  0  0  0  0  0  0  0  0
   -0.0877   -1.2471   -0.0466 C   0  0  1  0  0  0  0  0  0  0  0  0
    0.6781   -1.8739   -0.5169 H   0  0  0  0  0  0  0  0  0  0  0  0
   -0.2138    0.0775   -0.8296 C   0  0  0  0  0  0  0  0  0  0  0  0
   -1.2241    0.4849   -0.7190 H   0  0  0  0  0  0  0  0  0  0  0  0
    0.4758    0.8132   -0.4006 H   0  0  0  0  0  0  0  0  0  0  0  0
    0.1401   -0.0580   -2.3203 C   0  0  0  0  0  0  0  0  0  0  0  0
    0.0443    0.9276   -2.7876 H   0  0  0  0  0  0  0  0  0  0  0  0
    1.1862   -0.3683   -2.4162 H   0  0  0  0  0  0  0  0  0  0  0  0
   -0.7551   -1.0586   -3.0652 C   0  0  0  0  0  0  0  0  0  0  0  0
   -0.5791   -2.0701   -2.6873 H   0  0  0  0  0  0  0  0  0  0  0  0
   -1.8076   -0.8079   -2.8983 H   0  0  0  0  0  0  0  0  0  0  0  0
   -0.4670   -1.0354   -4.5622 C   0  0  0  0  0  0  0  0  0  0  0  0
   -0.6723   -0.0388   -4.9690 H   0  0  0  0  0  0  0  0  0  0  0  0
    0.5877   -1.2688   -4.7480 H   0  0  0  0  0  0  0  0  0  0  0  0
   -1.3275   -2.0290   -5.2111 N   0  0  0  0  0  0  0  0  0  0  0  0
   -1.2099   -2.0100   -6.2246 H   0  0  0  0  0  0  0  0  0  0  0  0
   -1.1464   -2.9638   -4.8449 H   0  0  0  0  0  0  0  0  0  0  0  0
    0.4141   -0.9597    1.3865 C   0  0  0  0  0  0  0  0  0  0  0  0
    1.6167   -0.9395    1.6144 O   0  0  0  0  0  0  0  0  0  0  0  0
   -0.4598   -0.4638    2.3371 N   0  0  0  0  0  0  0  0  0  0  0  0
   -1.4474   -0.5850    2.1389 H   0  0  0  0  0  0  0  0  0  0  0  0
   -0.0506   -0.1644    3.7032 C   0  0  0  0  0  0  0  0  0  0  0  0
    0.7478    0.5851    3.7092 H   0  0  0  0  0  0  0  0  0  0  0  0
   -0.8967    0.2301    4.2737 H   0  0  0  0  0  0  0  0  0  0  0  0
    0.3127   -1.0702    4.2000 H   0  0  0  0  0  0  0  0  0  0  0  0
  1  2  1  0  0  0  0
  2  3  1  0  0  0  0
  2  4  1  0  0  0  0
  2  5  1  0  0  0  0
  5  6  2  0  0  0  0
  5  7  1  0  0  0  0
  7  8  1  0  0  0  0
  7  9  1  0  0  0  0
  9 10  1  0  0  0  0
  9 11  1  0  0  0  0
  9 26  1  0  0  0  0
 11 12  1  0  0  0  0
 11 13  1  0  0  0  0
 11 14  1  0  0  0  0
 14 15  1  0  0  0  0
 14 16  1  0  0  0  0
 14 17  1  0  0  0  0
 17 18  1  0  0  0  0
 17 19  1  0  0  0  0
 17 20  1  0  0  0  0
 20 21  1  0  0  0  0
 20 22  1  0  0  0  0
 20 23  1  0  0  0  0
 23 24  1  0  0  0  0
 23 25  1  0  0  0  0
 26 27  2  0  0  0  0
 26 28  1  0  0  0  0
 28 29  1  0  0  0  0
 28 30  1  0  0  0  0
 30 31  1  0  0  0  0
 30 32  1  0  0  0  0
 30 33  1  0  0  0  0
M  END
$$$$

  -OEChem-03222214063D

 33 32  0     1  0  0  0  0  0999 V2000
   -2.9305   -4.8939    0.6084 H   0  0  0  0  0  0  0  0  0  0  0  0
   -2.9343   -3.8954    0.1622 C   0  0  0  0  0  0  0  0  0  0  0  0
   -3.7568   -3.3205    0.5944 H   0  0  0  0  0  0  0  0  0  0  0  0
   -3.0919   -3.9933   -0.9147 H   0  0  0  0  0  0  0  0  0  0  0  0
   -1.6148   -3.1973    0.4324 C   0  0  0  0  0  0  0  0  0  0  0  0
   -0.7709   -3.7412    1.1212 O   0  0  0  0  0  0  0  0  0  0  0  0
   -1.3830   -1.9484   -0.1091 N   0  0  0  0  0  0  0  0  0  0  0  0
   -2.0798   -1.6041   -0.7637 H   0  0  0  0  0  0  0  0  0  0  0  0
   -0.0892   -1.2420   -0.0560 C   0  0  1  0  0  0  0  0  0  0  0  0
    0.6747   -1.8667   -0.5321 H   0  0  0  0  0  0  0  0  0  0  0  0
   -0.2270    0.0849   -0.8316 C   0  0  0  0  0  0  0  0  0  0  0  0
   -1.2310    0.5043   -0.7090 H   0  0  0  0  0  0  0  0  0  0  0  0
    0.4747    0.8115   -0.4071 H   0  0  0  0  0  0  0  0  0  0  0  0
    0.1235   -0.0579   -2.3214 C   0  0  0  0  0  0  0  0  0  0  0  0
    0.2613    0.9459   -2.7373 H   0  0  0  0  0  0  0  0  0  0  0  0
    1.0728   -0.5925   -2.4351 H   0  0  0  0  0  0  0  0  0  0  0  0
   -0.9813   -0.7704   -3.1131 C   0  0  0  0  0  0  0  0  0  0  0  0
   -1.0641   -1.8088   -2.7791 H   0  0  0  0  0  0  0  0  0  0  0  0
   -1.9425   -0.2764   -2.9377 H   0  0  0  0  0  0  0  0  0  0  0  0
   -0.6743   -0.7524   -4.6069 C   0  0  0  0  0  0  0  0  0  0  0  0
   -0.6325    0.2813   -4.9681 H   0  0  0  0  0  0  0  0  0  0  0  0
    0.2983   -1.2196   -4.7984 H   0  0  0  0  0  0  0  0  0  0  0  0
   -1.7337   -1.4857   -5.3063 N   0  0  0  0  0  0  0  0  0  0  0  0
   -1.6078   -1.4365   -6.3179 H   0  0  0  0  0  0  0  0  0  0  0  0
   -1.7735   -2.4561   -4.9950 H   0  0  0  0  0  0  0  0  0  0  0  0
    0.4175   -0.9618    1.3767 C   0  0  0  0  0  0  0  0  0  0  0  0
    1.6211   -0.9388    1.5989 O   0  0  0  0  0  0  0  0  0  0  0  0
   -0.4534   -0.4720    2.3333 N   0  0  0  0  0  0  0  0  0  0  0  0
   -1.4418   -0.5940    2.1395 H   0  0  0  0  0  0  0  0  0  0  0  0
   -0.0382   -0.1695    3.6969 C   0  0  0  0  0  0  0  0  0  0  0  0
    0.7549    0.5856    3.6978 H   0  0  0  0  0  0  0  0  0  0  0  0
   -0.8836    0.2193    4.2722 H   0  0  0  0  0  0  0  0  0  0  0  0
    0.3344   -1.0727    4.1915 H   0  0  0  0  0  0  0  0  0  0  0  0
  1  2  1  0  0  0  0
  2  3  1  0  0  0  0
  2  4  1  0  0  0  0
  2  5  1  0  0  0  0
  5  6  2  0  0  0  0
  5  7  1  0  0  0  0
  7  8  1  0  0  0  0
  7  9  1  0  0  0  0
  9 10  1  0  0  0  0
  9 11  1  0  0  0  0
  9 26  1  0  0  0  0
 11 12  1  0  0  0  0
 11 13  1  0  0  0  0
 11 14  1  0  0  0  0
 14 15  1  0  0  0  0
 14 16  1  0  0  0  0
 14 17  1  0  0  0  0
 17 18  1  0  0  0  0
 17 19  1  0  0  0  0
 17 20  1  0  0  0  0
 20 21  1  0  0  0  0
 20 22  1  0  0  0  0
 20 23  1  0  0  0  0
 23 24  1  0  0  0  0
 23 25  1  0  0  0  0
 26 27  2  0  0  0  0
 26 28  1  0  0  0  0
 28 29  1  0  0  0  0
 28 30  1  0  0  0  0
 30 31  1  0  0  0  0
 30 32  1  0  0  0  0
 30 33  1  0  0  0  0
M  END
$$$$

  -OEChem-03222214063D

 33 32  0     1  0  0  0  0  0999 V2000
   -2.9248   -4.8819    0.6073 H   0  0  0  0  0  0  0  0  0  0  0  0
   -2.9302   -3.8833    0.1613 C   0  0  0  0  0  0  0  0  0  0  0  0
   -3.7397   -3.3023    0.6094 H   0  0  0  0  0  0  0  0  0  0  0  0
   -3.1092   -3.9795   -0.9123 H   0  0  0  0  0  0  0  0  0  0  0  0
   -1.6009   -3.1947    0.4067 C   0  0  0  0  0  0  0  0  0  0  0  0
   -0.7448   -3.7491    1.0718 O   0  0  0  0  0  0  0  0  0  0  0  0
   -1.3743   -1.9413   -0.1265 N   0  0  0  0  0  0  0  0  0  0  0  0
   -2.0868   -1.5788   -0.7535 H   0  0  0  0  0  0  0  0  0  0  0  0
   -0.0842   -1.2295   -0.0699 C   0  0  1  0  0  0  0  0  0  0  0  0
    0.6840   -1.8470   -0.5478 H   0  0  0  0  0  0  0  0  0  0  0  0
   -0.2403    0.1016   -0.8339 C   0  0  0  0  0  0  0  0  0  0  0  0
   -1.2406    0.5241   -0.6930 H   0  0  0  0  0  0  0  0  0  0  0  0
    0.4680    0.8225   -0.4103 H   0  0  0  0  0  0  0  0  0  0  0  0
    0.1037   -0.0328   -2.3270 C   0  0  0  0  0  0  0  0  0  0  0  0
    0.4745    0.9349   -2.6812 H   0  0  0  0  0  0  0  0  0  0  0  0
    0.9063   -0.7622   -2.4779 H   0  0  0  0  0  0  0  0  0  0  0  0
   -1.1295   -0.4087   -3.1582 C   0  0  0  0  0  0  0  0  0  0  0  0
   -1.4971   -1.3909   -2.8469 H   0  0  0  0  0  0  0  0  0  0  0  0
   -1.9277    0.3223   -2.9926 H   0  0  0  0  0  0  0  0  0  0  0  0
   -0.7888   -0.4484   -4.6445 C   0  0  0  0  0  0  0  0  0  0  0  0
   -0.4565    0.5409   -4.9783 H   0  0  0  0  0  0  0  0  0  0  0  0
    0.0244   -1.1600   -4.8274 H   0  0  0  0  0  0  0  0  0  0  0  0
   -1.9883   -0.8504   -5.3854 N   0  0  0  0  0  0  0  0  0  0  0  0
   -1.8275   -0.8148   -6.3926 H   0  0  0  0  0  0  0  0  0  0  0  0
   -2.3010   -1.7786   -5.1018 H   0  0  0  0  0  0  0  0  0  0  0  0
    0.4199   -0.9578    1.3658 C   0  0  0  0  0  0  0  0  0  0  0  0
    1.6229   -0.9371    1.5911 O   0  0  0  0  0  0  0  0  0  0  0  0
   -0.4528   -0.4792    2.3267 N   0  0  0  0  0  0  0  0  0  0  0  0
   -1.4408   -0.5981    2.1302 H   0  0  0  0  0  0  0  0  0  0  0  0
   -0.0397   -0.1967    3.6954 C   0  0  0  0  0  0  0  0  0  0  0  0
    0.7551    0.5565    3.7083 H   0  0  0  0  0  0  0  0  0  0  0  0
   -0.8853    0.1858    4.2749 H   0  0  0  0  0  0  0  0  0  0  0  0
    0.3304   -1.1073    4.1783 H   0  0  0  0  0  0  0  0  0  0  0  0
  1  2  1  0  0  0  0
  2  3  1  0  0  0  0
  2  4  1  0  0  0  0
  2  5  1  0  0  0  0
  5  6  2  0  0  0  0
  5  7  1  0  0  0  0
  7  8  1  0  0  0  0
  7  9  1  0  0  0  0
  9 10  1  0  0  0  0
  9 11  1  0  0  0  0
  9 26  1  0  0  0  0
 11 12  1  0  0  0  0
 11 13  1  0  0  0  0
 11 14  1  0  0  0  0
 14 15  1  0  0  0  0
 14 16  1  0  0  0  0
 14 17  1  0  0  0  0
 17 18  1  0  0  0  0
 17 19  1  0  0  0  0
 17 20  1  0  0  0  0
 20 21  1  0  0  0  0
 20 22  1  0  0  0  0
 20 23  1  0  0  0  0
 23 24  1  0  0  0  0
 23 25  1  0  0  0  0
 26 27  2  0  0  0  0
 26 28  1  0  0  0  0
 28 29  1  0  0  0  0
 28 30  1  0  0  0  0
 30 31  1  0  0  0  0
 30 32  1  0  0  0  0
 30 33  1  0  0  0  0
M  END
$$$$

  -OEChem-03222214063D

 33 32  0     1  0  0  0  0  0999 V2000
   -2.9182   -4.8818    0.6000 H   0  0  0  0  0  0  0  0  0  0  0  0
   -2.9242   -3.8825    0.1552 C   0  0  0  0  0  0  0  0  0  0  0  0
   -3.7322   -3.3011    0.6058 H   0  0  0  0  0  0  0  0  0  0  0  0
   -3.1064   -3.9769   -0.9179 H   0  0  0  0  0  0  0  0  0  0  0  0
   -1.5935   -3.1957    0.3971 C   0  0  0  0  0  0  0  0  0  0  0  0
   -0.7350   -3.7530    1.0567 O   0  0  0  0  0  0  0  0  0  0  0  0
   -1.3682   -1.9411   -0.1342 N   0  0  0  0  0  0  0  0  0  0  0  0
   -2.0863   -1.5722   -0.7508 H   0  0  0  0  0  0  0  0  0  0  0  0
   -0.0790   -1.2280   -0.0749 C   0  0  1  0  0  0  0  0  0  0  0  0
    0.6927   -1.8417   -0.5518 H   0  0  0  0  0  0  0  0  0  0  0  0
   -0.2450    0.1056   -0.8326 C   0  0  0  0  0  0  0  0  0  0  0  0
   -1.2471    0.5204   -0.6811 H   0  0  0  0  0  0  0  0  0  0  0  0
    0.4597    0.8295   -0.4076 H   0  0  0  0  0  0  0  0  0  0  0  0
    0.0944   -0.0210   -2.3297 C   0  0  0  0  0  0  0  0  0  0  0  0
    0.7040    0.8409   -2.6216 H   0  0  0  0  0  0  0  0  0  0  0  0
    0.6894   -0.9186   -2.5274 H   0  0  0  0  0  0  0  0  0  0  0  0
   -1.1763   -0.0295   -3.1880 C   0  0  0  0  0  0  0  0  0  0  0  0
   -1.7970   -0.8884   -2.9149 H   0  0  0  0  0  0  0  0  0  0  0  0
   -1.7555    0.8813   -3.0031 H   0  0  0  0  0  0  0  0  0  0  0  0
   -0.8268   -0.1075   -4.6715 C   0  0  0  0  0  0  0  0  0  0  0  0
   -0.2313    0.7654   -4.9619 H   0  0  0  0  0  0  0  0  0  0  0  0
   -0.2328   -1.0059   -4.8736 H   0  0  0  0  0  0  0  0  0  0  0  0
   -2.0731   -0.1423   -5.4426 N   0  0  0  0  0  0  0  0  0  0  0  0
   -1.8863   -0.1230   -6.4456 H   0  0  0  0  0  0  0  0  0  0  0  0
   -2.6363   -0.9551   -5.1947 H   0  0  0  0  0  0  0  0  0  0  0  0
    0.4232   -0.9576    1.3621 C   0  0  0  0  0  0  0  0  0  0  0  0
    1.6257   -0.9408    1.5899 O   0  0  0  0  0  0  0  0  0  0  0  0
   -0.4512   -0.4812    2.3225 N   0  0  0  0  0  0  0  0  0  0  0  0
   -1.4391   -0.5928    2.1212 H   0  0  0  0  0  0  0  0  0  0  0  0
   -0.0424   -0.2000    3.6929 C   0  0  0  0  0  0  0  0  0  0  0  0
    0.7521    0.5534    3.7102 H   0  0  0  0  0  0  0  0  0  0  0  0
   -0.8900    0.1820    4.2696 H   0  0  0  0  0  0  0  0  0  0  0  0
    0.3253   -1.1114    4.1761 H   0  0  0  0  0  0  0  0  0  0  0  0
  1  2  1  0  0  0  0
  2  3  1  0  0  0  0
  2  4  1  0  0  0  0
  2  5  1  0  0  0  0
  5  6  2  0  0  0  0
  5  7  1  0  0  0  0
  7  8  1  0  0  0  0
  7  9  1  0  0  0  0
  9 10  1  0  0  0  0
  9 11  1  0  0  0  0
  9 26  1  0  0  0  0
 11 12  1  0  0  0  0
 11 13  1  0  0  0  0
 11 14  1  0  0  0  0
 14 15  1  0  0  0  0
 14 16  1  0  0  0  0
 14 17  1  0  0  0  0
 17 18  1  0  0  0  0
 17 19  1  0  0  0  0
 17 20  1  0  0  0  0
 20 21  1  0  0  0  0
 20 22  1  0  0  0  0
 20 23  1  0  0  0  0
 23 24  1  0  0  0  0
 23 25  1  0  0  0  0
 26 27  2  0  0  0  0
 26 28  1  0  0  0  0
 28 29  1  0  0  0  0
 28 30  1  0  0  0  0
 30 31  1  0  0  0  0
 30 32  1  0  0  0  0
 30 33  1  0  0  0  0
M  END
$$$$

  -OEChem-03222214063D

 33 32  0     1  0  0  0  0  0999 V2000
   -2.9045   -4.8891    0.6165 H   0  0  0  0  0  0  0  0  0  0  0  0
   -2.9203   -3.8894    0.1726 C   0  0  0  0  0  0  0  0  0  0  0  0
   -3.7249   -3.3122    0.6346 H   0  0  0  0  0  0  0  0  0  0  0  0
   -3.1163   -3.9844   -0.8981 H   0  0  0  0  0  0  0  0  0  0  0  0
   -1.5889   -3.1974    0.3980 C   0  0  0  0  0  0  0  0  0  0  0  0
   -0.7223   -3.7514    1.0495 O   0  0  0  0  0  0  0  0  0  0  0  0
   -1.3719   -1.9416   -0.1348 N   0  0  0  0  0  0  0  0  0  0  0  0
   -2.0939   -1.5757   -0.7484 H   0  0  0  0  0  0  0  0  0  0  0  0
   -0.0849   -1.2234   -0.0792 C   0  0  1  0  0  0  0  0  0  0  0  0
    0.6896   -1.8335   -0.5567 H   0  0  0  0  0  0  0  0  0  0  0  0
   -0.2535    0.1104   -0.8361 C   0  0  0  0  0  0  0  0  0  0  0  0
   -1.2642    0.5055   -0.6879 H   0  0  0  0  0  0  0  0  0  0  0  0
    0.4350    0.8495   -0.4105 H   0  0  0  0  0  0  0  0  0  0  0  0
    0.0846   -0.0182   -2.3345 C   0  0  0  0  0  0  0  0  0  0  0  0
    0.9153    0.6559   -2.5701 H   0  0  0  0  0  0  0  0  0  0  0  0
    0.4119   -1.0347   -2.5763 H   0  0  0  0  0  0  0  0  0  0  0  0
   -1.1232    0.3417   -3.2079 C   0  0  0  0  0  0  0  0  0  0  0  0
   -1.9509   -0.3401   -2.9887 H   0  0  0  0  0  0  0  0  0  0  0  0
   -1.4524    1.3610   -2.9800 H   0  0  0  0  0  0  0  0  0  0  0  0
   -0.7675    0.2515   -4.6890 C   0  0  0  0  0  0  0  0  0  0  0  0
    0.0401    0.9545   -4.9222 H   0  0  0  0  0  0  0  0  0  0  0  0
   -0.4202   -0.7584   -4.9345 H   0  0  0  0  0  0  0  0  0  0  0  0
   -1.9596    0.5807   -5.4763 N   0  0  0  0  0  0  0  0  0  0  0  0
   -1.7513    0.5881   -6.4752 H   0  0  0  0  0  0  0  0  0  0  0  0
   -2.7260   -0.0593   -5.2699 H   0  0  0  0  0  0  0  0  0  0  0  0
    0.4198   -0.9516    1.3569 C   0  0  0  0  0  0  0  0  0  0  0  0
    1.6227   -0.9355    1.5833 O   0  0  0  0  0  0  0  0  0  0  0  0
   -0.4527   -0.4787    2.3208 N   0  0  0  0  0  0  0  0  0  0  0  0
   -1.4411   -0.5902    2.1216 H   0  0  0  0  0  0  0  0  0  0  0  0
   -0.0394   -0.2045    3.6913 C   0  0  0  0  0  0  0  0  0  0  0  0
    0.7592    0.5446    3.7093 H   0  0  0  0  0  0  0  0  0  0  0  0
   -0.8837    0.1797    4.2712 H   0  0  0  0  0  0  0  0  0  0  0  0
    0.3249   -1.1194    4.1704 H   0  0  0  0  0  0  0  0  0  0  0  0
  1  2  1  0  0  0  0
  2  3  1  0  0  0  0
  2  4  1  0  0  0  0
  2  5  1  0  0  0  0
  5  6  2  0  0  0  0
  5  7  1  0  0  0  0
  7  8  1  0  0  0  0
  7  9  1  0  0  0  0
  9 10  1  0  0  0  0
  9 11  1  0  0  0  0
  9 26  1  0  0  0  0
 11 12  1  0  0  0  0
 11 13  1  0  0  0  0
 11 14  1  0  0  0  0
 14 15  1  0  0  0  0
 14 16  1  0  0  0  0
 14 17  1  0  0  0  0
 17 18  1  0  0  0  0
 17 19  1  0  0  0  0
 17 20  1  0  0  0  0
 20 21  1  0  0  0  0
 20 22  1  0  0  0  0
 20 23  1  0  0  0  0
 23 24  1  0  0  0  0
 23 25  1  0  0  0  0
 26 27  2  0  0  0  0
 26 28  1  0  0  0  0
 28 29  1  0  0  0  0
 28 30  1  0  0  0  0
 30 31  1  0  0  0  0
 30 32  1  0  0  0  0
 30 33  1  0  0  0  0
M  END
$$$$

  -OEChem-03222214063D

 33 32  0     1  0  0  0  0  0999 V2000
   -2.8977   -4.8978    0.6151 H   0  0  0  0  0  0  0  0  0  0  0  0
   -2.9183   -3.8989    0.1701 C   0  0  0  0  0  0  0  0  0  0  0  0
   -3.7286   -3.3265    0.6276 H   0  0  0  0  0  0  0  0  0  0  0  0
   -3.1084   -3.9959   -0.9014 H   0  0  0  0  0  0  0  0  0  0  0  0
   -1.5927   -3.1983    0.4004 C   0  0  0  0  0  0  0  0  0  0  0  0
   -0.7218   -3.7487    1.0492 O   0  0  0  0  0  0  0  0  0  0  0  0
   -1.3849   -1.9398   -0.1291 N   0  0  0  0  0  0  0  0  0  0  0  0
   -2.1134   -1.5753   -0.7356 H   0  0  0  0  0  0  0  0  0  0  0  0
   -0.1000   -1.2168   -0.0814 C   0  0  1  0  0  0  0  0  0  0  0  0
    0.6712   -1.8221   -0.5708 H   0  0  0  0  0  0  0  0  0  0  0  0
   -0.2711    0.1179   -0.8340 C   0  0  0  0  0  0  0  0  0  0  0  0
   -1.2909    0.4913   -0.6911 H   0  0  0  0  0  0  0  0  0  0  0  0
    0.4025    0.8717   -0.4106 H   0  0  0  0  0  0  0  0  0  0  0  0
    0.0632   -0.0215   -2.3307 C   0  0  0  0  0  0  0  0  0  0  0  0
    1.0546    0.4044   -2.5201 H   0  0  0  0  0  0  0  0  0  0  0  0
    0.0982   -1.0782   -2.6166 H   0  0  0  0  0  0  0  0  0  0  0  0
   -0.9880    0.6769   -3.2010 C   0  0  0  0  0  0  0  0  0  0  0  0
   -1.9664    0.2123   -3.0420 H   0  0  0  0  0  0  0  0  0  0  0  0
   -1.0616    1.7311   -2.9132 H   0  0  0  0  0  0  0  0  0  0  0  0
   -0.6148    0.5860   -4.6781 C   0  0  0  0  0  0  0  0  0  0  0  0
    0.3524    1.0715   -4.8499 H   0  0  0  0  0  0  0  0  0  0  0  0
   -0.5261   -0.4632   -4.9817 H   0  0  0  0  0  0  0  0  0  0  0  0
   -1.6551    1.2539   -5.4661 N   0  0  0  0  0  0  0  0  0  0  0  0
   -1.4199    1.2600   -6.4590 H   0  0  0  0  0  0  0  0  0  0  0  0
   -2.5672    0.8255   -5.3110 H   0  0  0  0  0  0  0  0  0  0  0  0
    0.4188   -0.9470    1.3495 C   0  0  0  0  0  0  0  0  0  0  0  0
    1.6240   -0.9269    1.5623 O   0  0  0  0  0  0  0  0  0  0  0  0
   -0.4449   -0.4800    2.3242 N   0  0  0  0  0  0  0  0  0  0  0  0
   -1.4352   -0.5938    2.1363 H   0  0  0  0  0  0  0  0  0  0  0  0
   -0.0171   -0.1975    3.6885 C   0  0  0  0  0  0  0  0  0  0  0  0
    0.7746    0.5592    3.6945 H   0  0  0  0  0  0  0  0  0  0  0  0
   -0.8574    0.1807    4.2780 H   0  0  0  0  0  0  0  0  0  0  0  0
    0.3614   -1.1075    4.1656 H   0  0  0  0  0  0  0  0  0  0  0  0
  1  2  1  0  0  0  0
  2  3  1  0  0  0  0
  2  4  1  0  0  0  0
  2  5  1  0  0  0  0
  5  6  2  0  0  0  0
  5  7  1  0  0  0  0
  7  8  1  0  0  0  0
  7  9  1  0  0  0  0
  9 10  1  0  0  0  0
  9 11  1  0  0  0  0
  9 26  1  0  0  0  0
 11 12  1  0  0  0  0
 11 13  1  0  0  0  0
 11 14  1  0  0  0  0
 14 15  1  0  0  0  0
 14 16  1  0  0  0  0
 14 17  1  0  0  0  0
 17 18  1  0  0  0  0
 17 19  1  0  0  0  0
 17 20  1  0  0  0  0
 20 21  1  0  0  0  0
 20 22  1  0  0  0  0
 20 23  1  0  0  0  0
 23 24  1  0  0  0  0
 23 25  1  0  0  0  0
 26 27  2  0  0  0  0
 26 28  1  0  0  0  0
 28 29  1  0  0  0  0
 28 30  1  0  0  0  0
 30 31  1  0  0  0  0
 30 32  1  0  0  0  0
 30 33  1  0  0  0  0
M  END
$$$$

  -OEChem-03222214063D

 33 32  0     1  0  0  0  0  0999 V2000
   -2.8864   -4.8956    0.6199 H   0  0  0  0  0  0  0  0  0  0  0  0
   -2.9136   -3.8957    0.1773 C   0  0  0  0  0  0  0  0  0  0  0  0
   -3.7164   -3.3243    0.6489 H   0  0  0  0  0  0  0  0  0  0  0  0
   -3.1214   -3.9913   -0.8910 H   0  0  0  0  0  0  0  0  0  0  0  0
   -1.5844   -3.1953    0.3882 C   0  0  0  0  0  0  0  0  0  0  0  0
   -0.7011   -3.7503    1.0159 O   0  0  0  0  0  0  0  0  0  0  0  0
   -1.3870   -1.9320   -0.1346 N   0  0  0  0  0  0  0  0  0  0  0  0
   -2.1268   -1.5609   -0.7230 H   0  0  0  0  0  0  0  0  0  0  0  0
   -0.1056   -1.2021   -0.0893 C   0  0  1  0  0  0  0  0  0  0  0  0
    0.6651   -1.8006   -0.5884 H   0  0  0  0  0  0  0  0  0  0  0  0
   -0.2831    0.1349   -0.8349 C   0  0  0  0  0  0  0  0  0  0  0  0
   -1.3085    0.4947   -0.6988 H   0  0  0  0  0  0  0  0  0  0  0  0
    0.3821    0.8962   -0.4118 H   0  0  0  0  0  0  0  0  0  0  0  0
    0.0504   -0.0109   -2.3279 C   0  0  0  0  0  0  0  0  0  0  0  0
    1.1229    0.1540   -2.4785 H   0  0  0  0  0  0  0  0  0  0  0  0
   -0.1811   -1.0272   -2.6641 H   0  0  0  0  0  0  0  0  0  0  0  0
   -0.7673    0.9718   -3.1732 C   0  0  0  0  0  0  0  0  0  0  0  0
   -1.8351    0.7627   -3.0539 H   0  0  0  0  0  0  0  0  0  0  0  0
   -0.5814    1.9947   -2.8290 H   0  0  0  0  0  0  0  0  0  0  0  0
   -0.3882    0.8612   -4.6473 C   0  0  0  0  0  0  0  0  0  0  0  0
    0.6751    1.0924   -4.7778 H   0  0  0  0  0  0  0  0  0  0  0  0
   -0.5606   -0.1598   -5.0055 H   0  0  0  0  0  0  0  0  0  0  0  0
   -1.2031    1.8086   -5.4137 N   0  0  0  0  0  0  0  0  0  0  0  0
   -0.9497    1.7988   -6.4019 H   0  0  0  0  0  0  0  0  0  0  0  0
   -2.1981    1.6229   -5.2912 H   0  0  0  0  0  0  0  0  0  0  0  0
    0.4188   -0.9389    1.3406 C   0  0  0  0  0  0  0  0  0  0  0  0
    1.6246   -0.9177    1.5499 O   0  0  0  0  0  0  0  0  0  0  0  0
   -0.4433   -0.4830    2.3220 N   0  0  0  0  0  0  0  0  0  0  0  0
   -1.4343   -0.5888    2.1335 H   0  0  0  0  0  0  0  0  0  0  0  0
   -0.0126   -0.2141    3.6882 C   0  0  0  0  0  0  0  0  0  0  0  0
    0.7821    0.5393    3.6994 H   0  0  0  0  0  0  0  0  0  0  0  0
   -0.8508    0.1621    4.2821 H   0  0  0  0  0  0  0  0  0  0  0  0
    0.3636   -1.1297    4.1568 H   0  0  0  0  0  0  0  0  0  0  0  0
  1  2  1  0  0  0  0
  2  3  1  0  0  0  0
  2  4  1  0  0  0  0
  2  5  1  0  0  0  0
  5  6  2  0  0  0  0
  5  7  1  0  0  0  0
  7  8  1  0  0  0  0
  7  9  1  0  0  0  0
  9 10  1  0  0  0  0
  9 11  1  0  0  0  0
  9 26  1  0  0  0  0
 11 12  1  0  0  0  0
 11 13  1  0  0  0  0
 11 14  1  0  0  0  0
 14 15  1  0  0  0  0
 14 16  1  0  0  0  0
 14 17  1  0  0  0  0
 17 18  1  0  0  0  0
 17 19  1  0  0  0  0
 17 20  1  0  0  0  0
 20 21  1  0  0  0  0
 20 22  1  0  0  0  0
 20 23  1  0  0  0  0
 23 24  1  0  0  0  0
 23 25  1  0  0  0  0
 26 27  2  0  0  0  0
 26 28  1  0  0  0  0
 28 29  1  0  0  0  0
 28 30  1  0  0  0  0
 30 31  1  0  0  0  0
 30 32  1  0  0  0  0
 30 33  1  0  0  0  0
M  END
$$$$

  -OEChem-03222214063D

 33 32  0     1  0  0  0  0  0999 V2000
   -2.8814   -4.8959    0.6111 H   0  0  0  0  0  0  0  0  0  0  0  0
   -2.9115   -3.8957    0.1694 C   0  0  0  0  0  0  0  0  0  0  0  0
   -3.7161   -3.3272    0.6420 H   0  0  0  0  0  0  0  0  0  0  0  0
   -3.1184   -3.9908   -0.8994 H   0  0  0  0  0  0  0  0  0  0  0  0
   -1.5837   -3.1924    0.3812 C   0  0  0  0  0  0  0  0  0  0  0  0
   -0.6985   -3.7468    1.0068 O   0  0  0  0  0  0  0  0  0  0  0  0
   -1.3899   -1.9269   -0.1376 N   0  0  0  0  0  0  0  0  0  0  0  0
   -2.1316   -1.5563   -0.7239 H   0  0  0  0  0  0  0  0  0  0  0  0
   -0.1094   -1.1946   -0.0936 C   0  0  1  0  0  0  0  0  0  0  0  0
    0.6595   -1.7911   -0.5978 H   0  0  0  0  0  0  0  0  0  0  0  0
   -0.2896    0.1439   -0.8357 C   0  0  0  0  0  0  0  0  0  0  0  0
   -1.3135    0.5080   -0.7024 H   0  0  0  0  0  0  0  0  0  0  0  0
    0.3807    0.9011   -0.4129 H   0  0  0  0  0  0  0  0  0  0  0  0
    0.0426   -0.0053   -2.3263 C   0  0  0  0  0  0  0  0  0  0  0  0
    1.1272   -0.0969   -2.4496 H   0  0  0  0  0  0  0  0  0  0  0  0
   -0.4188   -0.9179   -2.7185 H   0  0  0  0  0  0  0  0  0  0  0  0
   -0.4793    1.1951   -3.1234 C   0  0  0  0  0  0  0  0  0  0  0  0
   -1.5680    1.2577   -3.0276 H   0  0  0  0  0  0  0  0  0  0  0  0
   -0.0502    2.1183   -2.7197 H   0  0  0  0  0  0  0  0  0  0  0  0
   -0.1038    1.0702   -4.5974 C   0  0  0  0  0  0  0  0  0  0  0  0
    0.9861    1.0308   -4.7036 H   0  0  0  0  0  0  0  0  0  0  0  0
   -0.5199    0.1469   -5.0157 H   0  0  0  0  0  0  0  0  0  0  0  0
   -0.6331    2.2326   -5.3167 N   0  0  0  0  0  0  0  0  0  0  0  0
   -0.3748    2.2061   -6.3034 H   0  0  0  0  0  0  0  0  0  0  0  0
   -1.6441    2.3057   -5.2066 H   0  0  0  0  0  0  0  0  0  0  0  0
    0.4192   -0.9354    1.3358 C   0  0  0  0  0  0  0  0  0  0  0  0
    1.6256   -0.9105    1.5410 O   0  0  0  0  0  0  0  0  0  0  0  0
   -0.4410   -0.4846    2.3211 N   0  0  0  0  0  0  0  0  0  0  0  0
   -1.4318   -0.5982    2.1365 H   0  0  0  0  0  0  0  0  0  0  0  0
   -0.0067   -0.2147    3.6860 C   0  0  0  0  0  0  0  0  0  0  0  0
    0.7849    0.5420    3.6948 H   0  0  0  0  0  0  0  0  0  0  0  0
   -0.8447    0.1578    4.2826 H   0  0  0  0  0  0  0  0  0  0  0  0
    0.3747   -1.1287    4.1532 H   0  0  0  0  0  0  0  0  0  0  0  0
  1  2  1  0  0  0  0
  2  3  1  0  0  0  0
  2  4  1  0  0  0  0
  2  5  1  0  0  0  0
  5  6  2  0  0  0  0
  5  7  1  0  0  0  0
  7  8  1  0  0  0  0
  7  9  1  0  0  0  0
  9 10  1  0  0  0  0
  9 11  1  0  0  0  0
  9 26  1  0  0  0  0
 11 12  1  0  0  0  0
 11 13  1  0  0  0  0
 11 14  1  0  0  0  0
 14 15  1  0  0  0  0
 14 16  1  0  0  0  0
 14 17  1  0  0  0  0
 17 18  1  0  0  0  0
 17 19  1  0  0  0  0
 17 20  1  0  0  0  0
 20 21  1  0  0  0  0
 20 22  1  0  0  0  0
 20 23  1  0  0  0  0
 23 24  1  0  0  0  0
 23 25  1  0  0  0  0
 26 27  2  0  0  0  0
 26 28  1  0  0  0  0
 28 29  1  0  0  0  0
 28 30  1  0  0  0  0
 30 31  1  0  0  0  0
 30 32  1  0  0  0  0
 30 33  1  0  0  0  0
M  END
$$$$

  -OEChem-03222214063D

 33 32  0     1  0  0  0  0  0999 V2000
   -2.8763   -4.9040    0.6231 H   0  0  0  0  0  0  0  0  0  0  0  0
   -2.9099   -3.9038    0.1812 C   0  0  0  0  0  0  0  0  0  0  0  0
   -3.7111   -3.3351    0.6591 H   0  0  0  0  0  0  0  0  0  0  0  0
   -3.1249   -3.9990   -0.8857 H   0  0  0  0  0  0  0  0  0  0  0  0
   -1.5812   -3.1998    0.3830 C   0  0  0  0  0  0  0  0  0  0  0  0
   -0.6941   -3.7512    1.0084 O   0  0  0  0  0  0  0  0  0  0  0  0
   -1.3907   -1.9351   -0.1392 N   0  0  0  0  0  0  0  0  0  0  0  0
   -2.1387   -1.5599   -0.7144 H   0  0  0  0  0  0  0  0  0  0  0  0
   -0.1125   -1.1995   -0.0944 C   0  0  1  0  0  0  0  0  0  0  0  0
    0.6558   -1.7947   -0.6005 H   0  0  0  0  0  0  0  0  0  0  0  0
   -0.2868    0.1359   -0.8380 C   0  0  0  0  0  0  0  0  0  0  0  0
   -1.2029    0.6336   -0.5030 H   0  0  0  0  0  0  0  0  0  0  0  0
    0.5546    0.7946   -0.5931 H   0  0  0  0  0  0  0  0  0  0  0  0
   -0.3150   -0.0672   -2.3593 C   0  0  0  0  0  0  0  0  0  0  0  0
    0.6219   -0.5348   -2.6812 H   0  0  0  0  0  0  0  0  0  0  0  0
   -1.1370   -0.7368   -2.6319 H   0  0  0  0  0  0  0  0  0  0  0  0
   -0.4895    1.2750   -3.0786 C   0  0  0  0  0  0  0  0  0  0  0  0
   -1.4310    1.7392   -2.7680 H   0  0  0  0  0  0  0  0  0  0  0  0
    0.3271    1.9503   -2.8019 H   0  0  0  0  0  0  0  0  0  0  0  0
   -0.4908    1.0833   -4.5928 C   0  0  0  0  0  0  0  0  0  0  0  0
    0.4576    0.6381   -4.9145 H   0  0  0  0  0  0  0  0  0  0  0  0
   -1.3011    0.4066   -4.8858 H   0  0  0  0  0  0  0  0  0  0  0  0
   -0.6704    2.3905   -5.2318 N   0  0  0  0  0  0  0  0  0  0  0  0
   -0.6569    2.3111   -6.2489 H   0  0  0  0  0  0  0  0  0  0  0  0
   -1.5260    2.8442   -4.9122 H   0  0  0  0  0  0  0  0  0  0  0  0
    0.4146   -0.9336    1.3339 C   0  0  0  0  0  0  0  0  0  0  0  0
    1.6207   -0.9086    1.5404 O   0  0  0  0  0  0  0  0  0  0  0  0
   -0.4470   -0.4815    2.3175 N   0  0  0  0  0  0  0  0  0  0  0  0
   -1.4377   -0.5984    2.1339 H   0  0  0  0  0  0  0  0  0  0  0  0
   -0.0131   -0.2100    3.6821 C   0  0  0  0  0  0  0  0  0  0  0  0
    0.7793    0.5458    3.6903 H   0  0  0  0  0  0  0  0  0  0  0  0
   -0.8505    0.1646    4.2781 H   0  0  0  0  0  0  0  0  0  0  0  0
    0.3670   -1.1240    4.1505 H   0  0  0  0  0  0  0  0  0  0  0  0
  1  2  1  0  0  0  0
  2  3  1  0  0  0  0
  2  4  1  0  0  0  0
  2  5  1  0  0  0  0
  5  6  2  0  0  0  0
  5  7  1  0  0  0  0
  7  8  1  0  0  0  0
  7  9  1  0  0  0  0
  9 10  1  0  0  0  0
  9 11  1  0  0  0  0
  9 26  1  0  0  0  0
 11 12  1  0  0  0  0
 11 13  1  0  0  0  0
 11 14  1  0  0  0  0
 14 15  1  0  0  0  0
 14 16  1  0  0  0  0
 14 17  1  0  0  0  0
 17 18  1  0  0  0  0
 17 19  1  0  0  0  0
 17 20  1  0  0  0  0
 20 21  1  0  0  0  0
 20 22  1  0  0  0  0
 20 23  1  0  0  0  0
 23 24  1  0  0  0  0
 23 25  1  0  0  0  0
 26 27  2  0  0  0  0
 26 28  1  0  0  0  0
 28 29  1  0  0  0  0
 28 30  1  0  0  0  0
 30 31  1  0  0  0  0
 30 32  1  0  0  0  0
 30 33  1  0  0  0  0
M  END
$$$$

  -OEChem-03222214063D

 33 32  0     1  0  0  0  0  0999 V2000
   -2.8814   -4.8959    0.6209 H   0  0  0  0  0  0  0  0  0  0  0  0
   -2.9108   -3.8963    0.1773 C   0  0  0  0  0  0  0  0  0  0  0  0
   -3.7113   -3.3243    0.6523 H   0  0  0  0  0  0  0  0  0  0  0  0
   -3.1233   -3.9927   -0.8900 H   0  0  0  0  0  0  0  0  0  0  0  0
   -1.5802   -3.1965    0.3817 C   0  0  0  0  0  0  0  0  0  0  0  0
   -0.6986   -3.7481    1.0146 O   0  0  0  0  0  0  0  0  0  0  0  0
   -1.3828   -1.9342   -0.1439 N   0  0  0  0  0  0  0  0  0  0  0  0
   -2.1246   -1.5614   -0.7283 H   0  0  0  0  0  0  0  0  0  0  0  0
   -0.1025   -1.2030   -0.0969 C   0  0  1  0  0  0  0  0  0  0  0  0
    0.6675   -1.7996   -0.5988 H   0  0  0  0  0  0  0  0  0  0  0  0
   -0.2800    0.1326   -0.8406 C   0  0  0  0  0  0  0  0  0  0  0  0
   -1.1873    0.6441   -0.5031 H   0  0  0  0  0  0  0  0  0  0  0  0
    0.5711    0.7782   -0.5943 H   0  0  0  0  0  0  0  0  0  0  0  0
   -0.3118   -0.0641   -2.3639 C   0  0  0  0  0  0  0  0  0  0  0  0
    0.4934   -0.7439   -2.6628 H   0  0  0  0  0  0  0  0  0  0  0  0
   -1.2631   -0.5179   -2.6593 H   0  0  0  0  0  0  0  0  0  0  0  0
   -0.1180    1.2735   -3.0880 C   0  0  0  0  0  0  0  0  0  0  0  0
   -0.9117    1.9675   -2.7935 H   0  0  0  0  0  0  0  0  0  0  0  0
    0.8414    1.7158   -2.7993 H   0  0  0  0  0  0  0  0  0  0  0  0
   -0.1449    1.0819   -4.6018 C   0  0  0  0  0  0  0  0  0  0  0  0
    0.6580    0.4017   -4.9071 H   0  0  0  0  0  0  0  0  0  0  0  0
   -1.0998    0.6410   -4.9085 H   0  0  0  0  0  0  0  0  0  0  0  0
    0.0372    2.3874   -5.2432 N   0  0  0  0  0  0  0  0  0  0  0  0
    0.0431    2.3043   -6.2599 H   0  0  0  0  0  0  0  0  0  0  0  0
   -0.6715    3.0530   -4.9355 H   0  0  0  0  0  0  0  0  0  0  0  0
    0.4189   -0.9352    1.3333 C   0  0  0  0  0  0  0  0  0  0  0  0
    1.6238   -0.9146    1.5465 O   0  0  0  0  0  0  0  0  0  0  0  0
   -0.4461   -0.4774    2.3115 N   0  0  0  0  0  0  0  0  0  0  0  0
   -1.4360   -0.5933    2.1234 H   0  0  0  0  0  0  0  0  0  0  0  0
   -0.0188   -0.2082    3.6786 C   0  0  0  0  0  0  0  0  0  0  0  0
    0.7752    0.5459    3.6915 H   0  0  0  0  0  0  0  0  0  0  0  0
   -0.8586    0.1677    4.2706 H   0  0  0  0  0  0  0  0  0  0  0  0
    0.3564   -1.1235    4.1484 H   0  0  0  0  0  0  0  0  0  0  0  0
  1  2  1  0  0  0  0
  2  3  1  0  0  0  0
  2  4  1  0  0  0  0
  2  5  1  0  0  0  0
  5  6  2  0  0  0  0
  5  7  1  0  0  0  0
  7  8  1  0  0  0  0
  7  9  1  0  0  0  0
  9 10  1  0  0  0  0
  9 11  1  0  0  0  0
  9 26  1  0  0  0  0
 11 12  1  0  0  0  0
 11 13  1  0  0  0  0
 11 14  1  0  0  0  0
 14 15  1  0  0  0  0
 14 16  1  0  0  0  0
 14 17  1  0  0  0  0
 17 18  1  0  0  0  0
 17 19  1  0  0  0  0
 17 20  1  0  0  0  0
 20 21  1  0  0  0  0
 20 22  1  0  0  0  0
 20 23  1  0  0  0  0
 23 24  1  0  0  0  0
 23 25  1  0  0  0  0
 26 27  2  0  0  0  0
 26 28  1  0  0  0  0
 28 29  1  0  0  0  0
 28 30  1  0  0  0  0
 30 31  1  0  0  0  0
 30 32  1  0  0  0  0
 30 33  1  0  0  0  0
M  END
$$$$

  -OEChem-03222214063D

 33 32  0     1  0  0  0  0  0999 V2000
   -2.8876   -4.8920    0.6169 H   0  0  0  0  0  0  0  0  0  0  0  0
   -2.9125   -3.8935    0.1711 C   0  0  0  0  0  0  0  0  0  0  0  0
   -3.7155   -3.3199    0.6397 H   0  0  0  0  0  0  0  0  0  0  0  0
   -3.1182   -3.9922   -0.8973 H   0  0  0  0  0  0  0  0  0  0  0  0
   -1.5823   -3.1948    0.3832 C   0  0  0  0  0  0  0  0  0  0  0  0
   -0.7071   -3.7446    1.0265 O   0  0  0  0  0  0  0  0  0  0  0  0
   -1.3790   -1.9347   -0.1454 N   0  0  0  0  0  0  0  0  0  0  0  0
   -2.1107   -1.5695   -0.7471 H   0  0  0  0  0  0  0  0  0  0  0  0
   -0.0957   -1.2090   -0.0977 C   0  0  1  0  0  0  0  0  0  0  0  0
    0.6743   -1.8077   -0.5972 H   0  0  0  0  0  0  0  0  0  0  0  0
   -0.2745    0.1275   -0.8399 C   0  0  0  0  0  0  0  0  0  0  0  0
   -1.1761    0.6461   -0.4982 H   0  0  0  0  0  0  0  0  0  0  0  0
    0.5811    0.7650   -0.5888 H   0  0  0  0  0  0  0  0  0  0  0  0
   -0.3117   -0.0599   -2.3664 C   0  0  0  0  0  0  0  0  0  0  0  0
    0.3023   -0.9211   -2.6511 H   0  0  0  0  0  0  0  0  0  0  0  0
   -1.3389   -0.2618   -2.6864 H   0  0  0  0  0  0  0  0  0  0  0  0
    0.2387    1.1773   -3.0861 C   0  0  0  0  0  0  0  0  0  0  0  0
   -0.3512    2.0560   -2.8061 H   0  0  0  0  0  0  0  0  0  0  0  0
    1.2752    1.3538   -2.7793 H   0  0  0  0  0  0  0  0  0  0  0  0
    0.1910    0.9933   -4.6001 C   0  0  0  0  0  0  0  0  0  0  0  0
    0.7896    0.1225   -4.8902 H   0  0  0  0  0  0  0  0  0  0  0  0
   -0.8407    0.8215   -4.9262 H   0  0  0  0  0  0  0  0  0  0  0  0
    0.7270    2.2007   -5.2351 N   0  0  0  0  0  0  0  0  0  0  0  0
    0.7297    2.1163   -6.2517 H   0  0  0  0  0  0  0  0  0  0  0  0
    0.2163    3.0323   -4.9385 H   0  0  0  0  0  0  0  0  0  0  0  0
    0.4241   -0.9397    1.3328 C   0  0  0  0  0  0  0  0  0  0  0  0
    1.6287   -0.9199    1.5479 O   0  0  0  0  0  0  0  0  0  0  0  0
   -0.4418   -0.4757    2.3071 N   0  0  0  0  0  0  0  0  0  0  0  0
   -1.4314   -0.5916    2.1174 H   0  0  0  0  0  0  0  0  0  0  0  0
   -0.0171   -0.2010    3.6739 C   0  0  0  0  0  0  0  0  0  0  0  0
    0.7765    0.5535    3.6859 H   0  0  0  0  0  0  0  0  0  0  0  0
   -0.8585    0.1763    4.2627 H   0  0  0  0  0  0  0  0  0  0  0  0
    0.3582   -1.1142    4.1477 H   0  0  0  0  0  0  0  0  0  0  0  0
  1  2  1  0  0  0  0
  2  3  1  0  0  0  0
  2  4  1  0  0  0  0
  2  5  1  0  0  0  0
  5  6  2  0  0  0  0
  5  7  1  0  0  0  0
  7  8  1  0  0  0  0
  7  9  1  0  0  0  0
  9 10  1  0  0  0  0
  9 11  1  0  0  0  0
  9 26  1  0  0  0  0
 11 12  1  0  0  0  0
 11 13  1  0  0  0  0
 11 14  1  0  0  0  0
 14 15  1  0  0  0  0
 14 16  1  0  0  0  0
 14 17  1  0  0  0  0
 17 18  1  0  0  0  0
 17 19  1  0  0  0  0
 17 20  1  0  0  0  0
 20 21  1  0  0  0  0
 20 22  1  0  0  0  0
 20 23  1  0  0  0  0
 23 24  1  0  0  0  0
 23 25  1  0  0  0  0
 26 27  2  0  0  0  0
 26 28  1  0  0  0  0
 28 29  1  0  0  0  0
 28 30  1  0  0  0  0
 30 31  1  0  0  0  0
 30 32  1  0  0  0  0
 30 33  1  0  0  0  0
M  END
$$$$

  -OEChem-03222214063D

 33 32  0     1  0  0  0  0  0999 V2000
   -2.8917   -4.8920    0.6094 H   0  0  0  0  0  0  0  0  0  0  0  0
   -2.9119   -3.8951    0.1592 C   0  0  0  0  0  0  0  0  0  0  0  0
   -3.7213   -3.3197    0.6150 H   0  0  0  0  0  0  0  0  0  0  0  0
   -3.1035   -3.9984   -0.9115 H   0  0  0  0  0  0  0  0  0  0  0  0
   -1.5854   -3.1937    0.3841 C   0  0  0  0  0  0  0  0  0  0  0  0
   -0.7110   -3.7451    1.0272 O   0  0  0  0  0  0  0  0  0  0  0  0
   -1.3822   -1.9328   -0.1422 N   0  0  0  0  0  0  0  0  0  0  0  0
   -2.1142   -1.5678   -0.7436 H   0  0  0  0  0  0  0  0  0  0  0  0
   -0.0980   -1.2080   -0.0970 C   0  0  1  0  0  0  0  0  0  0  0  0
    0.6708   -1.8062   -0.5989 H   0  0  0  0  0  0  0  0  0  0  0  0
   -0.2739    0.1301   -0.8374 C   0  0  0  0  0  0  0  0  0  0  0  0
   -1.1767    0.6460   -0.4946 H   0  0  0  0  0  0  0  0  0  0  0  0
    0.5778    0.7705   -0.5796 H   0  0  0  0  0  0  0  0  0  0  0  0
   -0.3143   -0.0524   -2.3669 C   0  0  0  0  0  0  0  0  0  0  0  0
    0.0508   -1.0484   -2.6394 H   0  0  0  0  0  0  0  0  0  0  0  0
   -1.3497    0.0257   -2.7139 H   0  0  0  0  0  0  0  0  0  0  0  0
    0.5586    0.9909   -3.0749 C   0  0  0  0  0  0  0  0  0  0  0  0
    0.2146    1.9961   -2.8107 H   0  0  0  0  0  0  0  0  0  0  0  0
    1.5972    0.8894   -2.7419 H   0  0  0  0  0  0  0  0  0  0  0  0
    0.4997    0.8157   -4.5895 C   0  0  0  0  0  0  0  0  0  0  0  0
    0.8522   -0.1843   -4.8658 H   0  0  0  0  0  0  0  0  0  0  0  0
   -0.5324    0.9225   -4.9407 H   0  0  0  0  0  0  0  0  0  0  0  0
    1.3516    1.8339   -5.2102 N   0  0  0  0  0  0  0  0  0  0  0  0
    1.3486    1.7526   -6.2268 H   0  0  0  0  0  0  0  0  0  0  0  0
    1.0788    2.7720   -4.9175 H   0  0  0  0  0  0  0  0  0  0  0  0
    0.4269   -0.9419    1.3324 C   0  0  0  0  0  0  0  0  0  0  0  0
    1.6324   -0.9158    1.5420 O   0  0  0  0  0  0  0  0  0  0  0  0
   -0.4361   -0.4792    2.3098 N   0  0  0  0  0  0  0  0  0  0  0  0
   -1.4261   -0.5986    2.1246 H   0  0  0  0  0  0  0  0  0  0  0  0
   -0.0060   -0.1978    3.6735 C   0  0  0  0  0  0  0  0  0  0  0  0
    0.7838    0.5609    3.6783 H   0  0  0  0  0  0  0  0  0  0  0  0
   -0.8463    0.1776    4.2649 H   0  0  0  0  0  0  0  0  0  0  0  0
    0.3761   -1.1074    4.1489 H   0  0  0  0  0  0  0  0  0  0  0  0
  1  2  1  0  0  0  0
  2  3  1  0  0  0  0
  2  4  1  0  0  0  0
  2  5  1  0  0  0  0
  5  6  2  0  0  0  0
  5  7  1  0  0  0  0
  7  8  1  0  0  0  0
  7  9  1  0  0  0  0
  9 10  1  0  0  0  0
  9 11  1  0  0  0  0
  9 26  1  0  0  0  0
 11 12  1  0  0  0  0
 11 13  1  0  0  0  0
 11 14  1  0  0  0  0
 14 15  1  0  0  0  0
 14 16  1  0  0  0  0
 14 17  1  0  0  0  0
 17 18  1  0  0  0  0
 17 19  1  0  0  0  0
 17 20  1  0  0  0  0
 20 21  1  0  0  0  0
 20 22  1  0  0  0  0
 20 23  1  0  0  0  0
 23 24  1  0  0  0  0
 23 25  1  0  0  0  0
 26 27  2  0  0  0  0
 26 28  1  0  0  0  0
 28 29  1  0  0  0  0
 28 30  1  0  0  0  0
 30 31  1  0  0  0  0
 30 32  1  0  0  0  0
 30 33  1  0  0  0  0
M  END
$$$$

  -OEChem-03222214063D

 33 32  0     1  0  0  0  0  0999 V2000
   -2.8869   -4.8894    0.6055 H   0  0  0  0  0  0  0  0  0  0  0  0
   -2.9090   -3.8934    0.1540 C   0  0  0  0  0  0  0  0  0  0  0  0
   -3.7175   -3.3179    0.6109 H   0  0  0  0  0  0  0  0  0  0  0  0
   -3.1031   -3.9981   -0.9161 H   0  0  0  0  0  0  0  0  0  0  0  0
   -1.5825   -3.1912    0.3760 C   0  0  0  0  0  0  0  0  0  0  0  0
   -0.7062   -3.7428    1.0162 O   0  0  0  0  0  0  0  0  0  0  0  0
   -1.3827   -1.9278   -0.1457 N   0  0  0  0  0  0  0  0  0  0  0  0
   -2.1166   -1.5612   -0.7438 H   0  0  0  0  0  0  0  0  0  0  0  0
   -0.0988   -1.2017   -0.1015 C   0  0  1  0  0  0  0  0  0  0  0  0
    0.6691   -1.7958   -0.6105 H   0  0  0  0  0  0  0  0  0  0  0  0
   -0.2751    0.1397   -0.8348 C   0  0  0  0  0  0  0  0  0  0  0  0
   -1.1883    0.6362   -0.4913 H   0  0  0  0  0  0  0  0  0  0  0  0
    0.5620    0.7963   -0.5699 H   0  0  0  0  0  0  0  0  0  0  0  0
   -0.3185   -0.0382   -2.3655 C   0  0  0  0  0  0  0  0  0  0  0  0
   -0.2400   -1.0976   -2.6323 H   0  0  0  0  0  0  0  0  0  0  0  0
   -1.2822    0.3230   -2.7393 H   0  0  0  0  0  0  0  0  0  0  0  0
    0.8140    0.7362   -3.0504 C   0  0  0  0  0  0  0  0  0  0  0  0
    0.7329    1.8002   -2.8054 H   0  0  0  0  0  0  0  0  0  0  0  0
    1.7801    0.3760   -2.6806 H   0  0  0  0  0  0  0  0  0  0  0  0
    0.7583    0.5586   -4.5649 C   0  0  0  0  0  0  0  0  0  0  0  0
    0.8450   -0.5030   -4.8222 H   0  0  0  0  0  0  0  0  0  0  0  0
   -0.1988    0.9261   -4.9512 H   0  0  0  0  0  0  0  0  0  0  0  0
    1.8656    1.3085   -5.1643 N   0  0  0  0  0  0  0  0  0  0  0  0
    1.8675    1.2215   -6.1805 H   0  0  0  0  0  0  0  0  0  0  0  0
    1.8437    2.2881   -4.8812 H   0  0  0  0  0  0  0  0  0  0  0  0
    0.4296   -0.9417    1.3275 C   0  0  0  0  0  0  0  0  0  0  0  0
    1.6354   -0.9157    1.5345 O   0  0  0  0  0  0  0  0  0  0  0  0
   -0.4311   -0.4844    2.3097 N   0  0  0  0  0  0  0  0  0  0  0  0
   -1.4216   -0.6053    2.1279 H   0  0  0  0  0  0  0  0  0  0  0  0
    0.0041   -0.2079    3.6728 C   0  0  0  0  0  0  0  0  0  0  0  0
    0.7930    0.5517    3.6771 H   0  0  0  0  0  0  0  0  0  0  0  0
   -0.8339    0.1639    4.2696 H   0  0  0  0  0  0  0  0  0  0  0  0
    0.3895   -1.1189    4.1426 H   0  0  0  0  0  0  0  0  0  0  0  0
  1  2  1  0  0  0  0
  2  3  1  0  0  0  0
  2  4  1  0  0  0  0
  2  5  1  0  0  0  0
  5  6  2  0  0  0  0
  5  7  1  0  0  0  0
  7  8  1  0  0  0  0
  7  9  1  0  0  0  0
  9 10  1  0  0  0  0
  9 11  1  0  0  0  0
  9 26  1  0  0  0  0
 11 12  1  0  0  0  0
 11 13  1  0  0  0  0
 11 14  1  0  0  0  0
 14 15  1  0  0  0  0
 14 16  1  0  0  0  0
 14 17  1  0  0  0  0
 17 18  1  0  0  0  0
 17 19  1  0  0  0  0
 17 20  1  0  0  0  0
 20 21  1  0  0  0  0
 20 22  1  0  0  0  0
 20 23  1  0  0  0  0
 23 24  1  0  0  0  0
 23 25  1  0  0  0  0
 26 27  2  0  0  0  0
 26 28  1  0  0  0  0
 28 29  1  0  0  0  0
 28 30  1  0  0  0  0
 30 31  1  0  0  0  0
 30 32  1  0  0  0  0
 30 33  1  0  0  0  0
M  END
$$$$

  -OEChem-03222214063D

 33 32  0     1  0  0  0  0  0999 V2000
   -2.8795   -4.8932    0.5937 H   0  0  0  0  0  0  0  0  0  0  0  0
   -2.9053   -3.8973    0.1419 C   0  0  0  0  0  0  0  0  0  0  0  0
   -3.7185   -3.3262    0.5961 H   0  0  0  0  0  0  0  0  0  0  0  0
   -3.0952   -4.0030   -0.9289 H   0  0  0  0  0  0  0  0  0  0  0  0
   -1.5831   -3.1886    0.3680 C   0  0  0  0  0  0  0  0  0  0  0  0
   -0.7049   -3.7382    1.0073 O   0  0  0  0  0  0  0  0  0  0  0  0
   -1.3894   -1.9220   -0.1482 N   0  0  0  0  0  0  0  0  0  0  0  0
   -2.1240   -1.5578   -0.7470 H   0  0  0  0  0  0  0  0  0  0  0  0
   -0.1064   -1.1940   -0.1063 C   0  0  1  0  0  0  0  0  0  0  0  0
    0.6572   -1.7859   -0.6240 H   0  0  0  0  0  0  0  0  0  0  0  0
   -0.2796    0.1504   -0.8344 C   0  0  0  0  0  0  0  0  0  0  0  0
   -1.2031    0.6290   -0.4927 H   0  0  0  0  0  0  0  0  0  0  0  0
    0.5442    0.8216   -0.5657 H   0  0  0  0  0  0  0  0  0  0  0  0
   -0.3238   -0.0246   -2.3640 C   0  0  0  0  0  0  0  0  0  0  0  0
   -0.5364   -1.0655   -2.6302 H   0  0  0  0  0  0  0  0  0  0  0  0
   -1.1371    0.5892   -2.7650 H   0  0  0  0  0  0  0  0  0  0  0  0
    0.9926    0.4215   -3.0120 C   0  0  0  0  0  0  0  0  0  0  0  0
    1.1835    1.4734   -2.7754 H   0  0  0  0  0  0  0  0  0  0  0  0
    1.8191   -0.1715   -2.6057 H   0  0  0  0  0  0  0  0  0  0  0  0
    0.9413    0.2447   -4.5271 C   0  0  0  0  0  0  0  0  0  0  0  0
    0.7494   -0.8047   -4.7774 H   0  0  0  0  0  0  0  0  0  0  0  0
    0.1301    0.8491   -4.9480 H   0  0  0  0  0  0  0  0  0  0  0  0
    2.2274    0.6638   -5.0909 N   0  0  0  0  0  0  0  0  0  0  0  0
    2.2346    0.5775   -6.1072 H   0  0  0  0  0  0  0  0  0  0  0  0
    2.4648    1.6131   -4.8027 H   0  0  0  0  0  0  0  0  0  0  0  0
    0.4316   -0.9390    1.3200 C   0  0  0  0  0  0  0  0  0  0  0  0
    1.6390   -0.9095    1.5177 O   0  0  0  0  0  0  0  0  0  0  0  0
   -0.4230   -0.4872    2.3100 N   0  0  0  0  0  0  0  0  0  0  0  0
   -1.4142   -0.6132    2.1358 H   0  0  0  0  0  0  0  0  0  0  0  0
    0.0213   -0.2138    3.6708 C   0  0  0  0  0  0  0  0  0  0  0  0
    0.8061    0.5497    3.6724 H   0  0  0  0  0  0  0  0  0  0  0  0
   -0.8142    0.1512    4.2756 H   0  0  0  0  0  0  0  0  0  0  0  0
    0.4155   -1.1247    4.1333 H   0  0  0  0  0  0  0  0  0  0  0  0
  1  2  1  0  0  0  0
  2  3  1  0  0  0  0
  2  4  1  0  0  0  0
  2  5  1  0  0  0  0
  5  6  2  0  0  0  0
  5  7  1  0  0  0  0
  7  8  1  0  0  0  0
  7  9  1  0  0  0  0
  9 10  1  0  0  0  0
  9 11  1  0  0  0  0
  9 26  1  0  0  0  0
 11 12  1  0  0  0  0
 11 13  1  0  0  0  0
 11 14  1  0  0  0  0
 14 15  1  0  0  0  0
 14 16  1  0  0  0  0
 14 17  1  0  0  0  0
 17 18  1  0  0  0  0
 17 19  1  0  0  0  0
 17 20  1  0  0  0  0
 20 21  1  0  0  0  0
 20 22  1  0  0  0  0
 20 23  1  0  0  0  0
 23 24  1  0  0  0  0
 23 25  1  0  0  0  0
 26 27  2  0  0  0  0
 26 28  1  0  0  0  0
 28 29  1  0  0  0  0
 28 30  1  0  0  0  0
 30 31  1  0  0  0  0
 30 32  1  0  0  0  0
 30 33  1  0  0  0  0
M  END
$$$$

  -OEChem-03222214063D

 33 32  0     1  0  0  0  0  0999 V2000
   -2.8795   -4.8969    0.5813 H   0  0  0  0  0  0  0  0  0  0  0  0
   -2.9029   -3.9003    0.1308 C   0  0  0  0  0  0  0  0  0  0  0  0
   -3.7219   -3.3315    0.5778 H   0  0  0  0  0  0  0  0  0  0  0  0
   -3.0819   -4.0048   -0.9421 H   0  0  0  0  0  0  0  0  0  0  0  0
   -1.5846   -3.1885    0.3703 C   0  0  0  0  0  0  0  0  0  0  0  0
   -0.7130   -3.7341    1.0219 O   0  0  0  0  0  0  0  0  0  0  0  0
   -1.3890   -1.9224   -0.1464 N   0  0  0  0  0  0  0  0  0  0  0  0
   -2.1188   -1.5630   -0.7538 H   0  0  0  0  0  0  0  0  0  0  0  0
   -0.1045   -1.1966   -0.1059 C   0  0  1  0  0  0  0  0  0  0  0  0
    0.6560   -1.7931   -0.6224 H   0  0  0  0  0  0  0  0  0  0  0  0
   -0.2724    0.1496   -0.8336 C   0  0  0  0  0  0  0  0  0  0  0  0
   -1.1966    0.6266   -0.4918 H   0  0  0  0  0  0  0  0  0  0  0  0
    0.5513    0.8224   -0.5681 H   0  0  0  0  0  0  0  0  0  0  0  0
   -0.3176   -0.0197   -2.3620 C   0  0  0  0  0  0  0  0  0  0  0  0
   -0.7937   -0.9681   -2.6317 H   0  0  0  0  0  0  0  0  0  0  0  0
   -0.9261    0.7868   -2.7842 H   0  0  0  0  0  0  0  0  0  0  0  0
    1.0872    0.0617   -2.9729 C   0  0  0  0  0  0  0  0  0  0  0  0
    1.5456    1.0234   -2.7203 H   0  0  0  0  0  0  0  0  0  0  0  0
    1.7169   -0.7313   -2.5560 H   0  0  0  0  0  0  0  0  0  0  0  0
    1.0296   -0.0862   -4.4905 C   0  0  0  0  0  0  0  0  0  0  0  0
    0.5602   -1.0392   -4.7590 H   0  0  0  0  0  0  0  0  0  0  0  0
    0.4308    0.7230   -4.9230 H   0  0  0  0  0  0  0  0  0  0  0  0
    2.3967   -0.0396   -5.0158 N   0  0  0  0  0  0  0  0  0  0  0  0
    2.4077   -0.1074   -6.0334 H   0  0  0  0  0  0  0  0  0  0  0  0
    2.8849    0.7987   -4.6999 H   0  0  0  0  0  0  0  0  0  0  0  0
    0.4346   -0.9427    1.3200 C   0  0  0  0  0  0  0  0  0  0  0  0
    1.6421   -0.9054    1.5159 O   0  0  0  0  0  0  0  0  0  0  0  0
   -0.4202   -0.4898    2.3092 N   0  0  0  0  0  0  0  0  0  0  0  0
   -1.4107   -0.6252    2.1380 H   0  0  0  0  0  0  0  0  0  0  0  0
    0.0242   -0.2118    3.6688 C   0  0  0  0  0  0  0  0  0  0  0  0
    0.8055    0.5555    3.6675 H   0  0  0  0  0  0  0  0  0  0  0  0
   -0.8122    0.1507    4.2736 H   0  0  0  0  0  0  0  0  0  0  0  0
    0.4224   -1.1200    4.1334 H   0  0  0  0  0  0  0  0  0  0  0  0
  1  2  1  0  0  0  0
  2  3  1  0  0  0  0
  2  4  1  0  0  0  0
  2  5  1  0  0  0  0
  5  6  2  0  0  0  0
  5  7  1  0  0  0  0
  7  8  1  0  0  0  0
  7  9  1  0  0  0  0
  9 10  1  0  0  0  0
  9 11  1  0  0  0  0
  9 26  1  0  0  0  0
 11 12  1  0  0  0  0
 11 13  1  0  0  0  0
 11 14  1  0  0  0  0
 14 15  1  0  0  0  0
 14 16  1  0  0  0  0
 14 17  1  0  0  0  0
 17 18  1  0  0  0  0
 17 19  1  0  0  0  0
 17 20  1  0  0  0  0
 20 21  1  0  0  0  0
 20 22  1  0  0  0  0
 20 23  1  0  0  0  0
 23 24  1  0  0  0  0
 23 25  1  0  0  0  0
 26 27  2  0  0  0  0
 26 28  1  0  0  0  0
 28 29  1  0  0  0  0
 28 30  1  0  0  0  0
 30 31  1  0  0  0  0
 30 32  1  0  0  0  0
 30 33  1  0  0  0  0
M  END
$$$$

  -OEChem-03222214063D

 33 32  0     1  0  0  0  0  0999 V2000
   -2.8958   -4.8994    0.6106 H   0  0  0  0  0  0  0  0  0  0  0  0
   -2.9093   -3.9073    0.1505 C   0  0  0  0  0  0  0  0  0  0  0  0
   -3.7358   -3.3334    0.5760 H   0  0  0  0  0  0  0  0  0  0  0  0
   -3.0679   -4.0216   -0.9245 H   0  0  0  0  0  0  0  0  0  0  0  0
   -1.5946   -3.1957    0.4088 C   0  0  0  0  0  0  0  0  0  0  0  0
   -0.7421   -3.7308    1.0936 O   0  0  0  0  0  0  0  0  0  0  0  0
   -1.3811   -1.9412   -0.1287 N   0  0  0  0  0  0  0  0  0  0  0  0
   -2.0916   -1.5972   -0.7671 H   0  0  0  0  0  0  0  0  0  0  0  0
   -0.0905   -1.2269   -0.0875 C   0  0  1  0  0  0  0  0  0  0  0  0
    0.6698   -1.8414   -0.5798 H   0  0  0  0  0  0  0  0  0  0  0  0
   -0.2473    0.1120   -0.8345 C   0  0  0  0  0  0  0  0  0  0  0  0
   -1.1639    0.6061   -0.4960 H   0  0  0  0  0  0  0  0  0  0  0  0
    0.5875    0.7739   -0.5772 H   0  0  0  0  0  0  0  0  0  0  0  0
   -0.2889   -0.0490   -2.3637 C   0  0  0  0  0  0  0  0  0  0  0  0
   -0.9893   -0.8432   -2.6412 H   0  0  0  0  0  0  0  0  0  0  0  0
   -0.6612    0.8856   -2.7961 H   0  0  0  0  0  0  0  0  0  0  0  0
    1.0966   -0.3438   -2.9565 C   0  0  0  0  0  0  0  0  0  0  0  0
    1.8066    0.4262   -2.6373 H   0  0  0  0  0  0  0  0  0  0  0  0
    1.4630   -1.3095   -2.5955 H   0  0  0  0  0  0  0  0  0  0  0  0
    1.0359   -0.3739   -4.4809 C   0  0  0  0  0  0  0  0  0  0  0  0
    0.3073   -1.1212   -4.8142 H   0  0  0  0  0  0  0  0  0  0  0  0
    0.7209    0.6037   -4.8624 H   0  0  0  0  0  0  0  0  0  0  0  0
    2.3655   -0.7125   -4.9951 N   0  0  0  0  0  0  0  0  0  0  0  0
    2.3821   -0.7100   -6.0149 H   0  0  0  0  0  0  0  0  0  0  0  0
    3.0770   -0.0865   -4.6167 H   0  0  0  0  0  0  0  0  0  0  0  0
    0.4333   -0.9534    1.3406 C   0  0  0  0  0  0  0  0  0  0  0  0
    1.6388   -0.9210    1.5508 O   0  0  0  0  0  0  0  0  0  0  0  0
   -0.4302   -0.4756    2.3101 N   0  0  0  0  0  0  0  0  0  0  0  0
   -1.4189   -0.6121    2.1289 H   0  0  0  0  0  0  0  0  0  0  0  0
   -0.0022   -0.1866    3.6728 C   0  0  0  0  0  0  0  0  0  0  0  0
    0.7835    0.5764    3.6751 H   0  0  0  0  0  0  0  0  0  0  0  0
   -0.8447    0.1865    4.2626 H   0  0  0  0  0  0  0  0  0  0  0  0
    0.3843   -1.0925    4.1518 H   0  0  0  0  0  0  0  0  0  0  0  0
  1  2  1  0  0  0  0
  2  3  1  0  0  0  0
  2  4  1  0  0  0  0
  2  5  1  0  0  0  0
  5  6  2  0  0  0  0
  5  7  1  0  0  0  0
  7  8  1  0  0  0  0
  7  9  1  0  0  0  0
  9 10  1  0  0  0  0
  9 11  1  0  0  0  0
  9 26  1  0  0  0  0
 11 12  1  0  0  0  0
 11 13  1  0  0  0  0
 11 14  1  0  0  0  0
 14 15  1  0  0  0  0
 14 16  1  0  0  0  0
 14 17  1  0  0  0  0
 17 18  1  0  0  0  0
 17 19  1  0  0  0  0
 17 20  1  0  0  0  0
 20 21  1  0  0  0  0
 20 22  1  0  0  0  0
 20 23  1  0  0  0  0
 23 24  1  0  0  0  0
 23 25  1  0  0  0  0
 26 27  2  0  0  0  0
 26 28  1  0  0  0  0
 28 29  1  0  0  0  0
 28 30  1  0  0  0  0
 30 31  1  0  0  0  0
 30 32  1  0  0  0  0
 30 33  1  0  0  0  0
M  END
$$$$

  -OEChem-03222214063D

 33 32  0     1  0  0  0  0  0999 V2000
   -2.9153   -4.9149    0.6666 H   0  0  0  0  0  0  0  0  0  0  0  0
   -2.9210   -3.9296    0.1917 C   0  0  0  0  0  0  0  0  0  0  0  0
   -3.7548   -3.3496    0.5942 H   0  0  0  0  0  0  0  0  0  0  0  0
   -3.0607   -4.0606   -0.8840 H   0  0  0  0  0  0  0  0  0  0  0  0
   -1.6115   -3.2128    0.4621 C   0  0  0  0  0  0  0  0  0  0  0  0
   -0.7748   -3.7318    1.1782 O   0  0  0  0  0  0  0  0  0  0  0  0
   -1.3854   -1.9721   -0.1018 N   0  0  0  0  0  0  0  0  0  0  0  0
   -2.0781   -1.6507   -0.7707 H   0  0  0  0  0  0  0  0  0  0  0  0
   -0.0896   -1.2677   -0.0663 C   0  0  1  0  0  0  0  0  0  0  0  0
    0.6726   -1.8974   -0.5339 H   0  0  0  0  0  0  0  0  0  0  0  0
   -0.2392    0.0598   -0.8368 C   0  0  0  0  0  0  0  0  0  0  0  0
   -1.1420    0.5781   -0.4977 H   0  0  0  0  0  0  0  0  0  0  0  0
    0.6125    0.7049   -0.5923 H   0  0  0  0  0  0  0  0  0  0  0  0
   -0.2824   -0.0935   -2.3682 C   0  0  0  0  0  0  0  0  0  0  0  0
   -1.1567   -0.6870   -2.6543 H   0  0  0  0  0  0  0  0  0  0  0  0
   -0.4050    0.9039   -2.8031 H   0  0  0  0  0  0  0  0  0  0  0  0
    0.9808   -0.7413   -2.9549 C   0  0  0  0  0  0  0  0  0  0  0  0
    1.8713   -0.2513   -2.5481 H   0  0  0  0  0  0  0  0  0  0  0  0
    1.0215   -1.8005   -2.6834 H   0  0  0  0  0  0  0  0  0  0  0  0
    0.9918   -0.6254   -4.4764 C   0  0  0  0  0  0  0  0  0  0  0  0
    0.0811   -1.0683   -4.8945 H   0  0  0  0  0  0  0  0  0  0  0  0
    1.0252    0.4289   -4.7723 H   0  0  0  0  0  0  0  0  0  0  0  0
    2.1684   -1.3327   -4.9883 N   0  0  0  0  0  0  0  0  0  0  0  0
    2.2407   -1.2495   -6.0023 H   0  0  0  0  0  0  0  0  0  0  0  0
    3.0212   -1.0048   -4.5336 H   0  0  0  0  0  0  0  0  0  0  0  0
    0.4267   -0.9662    1.3594 C   0  0  0  0  0  0  0  0  0  0  0  0
    1.6315   -0.9369    1.5744 O   0  0  0  0  0  0  0  0  0  0  0  0
   -0.4376   -0.4597    2.3138 N   0  0  0  0  0  0  0  0  0  0  0  0
   -1.4265   -0.5944    2.1324 H   0  0  0  0  0  0  0  0  0  0  0  0
   -0.0125   -0.1398    3.6706 C   0  0  0  0  0  0  0  0  0  0  0  0
    0.7876    0.6079    3.6561 H   0  0  0  0  0  0  0  0  0  0  0  0
   -0.8513    0.2661    4.2440 H   0  0  0  0  0  0  0  0  0  0  0  0
    0.3544   -1.0383    4.1779 H   0  0  0  0  0  0  0  0  0  0  0  0
  1  2  1  0  0  0  0
  2  3  1  0  0  0  0
  2  4  1  0  0  0  0
  2  5  1  0  0  0  0
  5  6  2  0  0  0  0
  5  7  1  0  0  0  0
  7  8  1  0  0  0  0
  7  9  1  0  0  0  0
  9 10  1  0  0  0  0
  9 11  1  0  0  0  0
  9 26  1  0  0  0  0
 11 12  1  0  0  0  0
 11 13  1  0  0  0  0
 11 14  1  0  0  0  0
 14 15  1  0  0  0  0
 14 16  1  0  0  0  0
 14 17  1  0  0  0  0
 17 18  1  0  0  0  0
 17 19  1  0  0  0  0
 17 20  1  0  0  0  0
 20 21  1  0  0  0  0
 20 22  1  0  0  0  0
 20 23  1  0  0  0  0
 23 24  1  0  0  0  0
 23 25  1  0  0  0  0
 26 27  2  0  0  0  0
 26 28  1  0  0  0  0
 28 29  1  0  0  0  0
 28 30  1  0  0  0  0
 30 31  1  0  0  0  0
 30 32  1  0  0  0  0
 30 33  1  0  0  0  0
M  END
$$$$

  -OEChem-03222214063D

 33 32  0     1  0  0  0  0  0999 V2000
   -2.9263   -4.9198    0.7025 H   0  0  0  0  0  0  0  0  0  0  0  0
   -2.9269   -3.9382    0.2199 C   0  0  0  0  0  0  0  0  0  0  0  0
   -3.7629   -3.3540    0.6115 H   0  0  0  0  0  0  0  0  0  0  0  0
   -3.0590   -4.0769   -0.8559 H   0  0  0  0  0  0  0  0  0  0  0  0
   -1.6181   -3.2214    0.4949 C   0  0  0  0  0  0  0  0  0  0  0  0
   -0.7926   -3.7327    1.2294 O   0  0  0  0  0  0  0  0  0  0  0  0
   -1.3810   -1.9889   -0.0828 N   0  0  0  0  0  0  0  0  0  0  0  0
   -2.0598   -1.6801   -0.7717 H   0  0  0  0  0  0  0  0  0  0  0  0
   -0.0813   -1.2923   -0.0457 C   0  0  1  0  0  0  0  0  0  0  0  0
    0.6848   -1.9295   -0.4970 H   0  0  0  0  0  0  0  0  0  0  0  0
   -0.2242    0.0320   -0.8256 C   0  0  0  0  0  0  0  0  0  0  0  0
   -1.1127    0.5712   -0.4813 H   0  0  0  0  0  0  0  0  0  0  0  0
    0.6430    0.6575   -0.5846 H   0  0  0  0  0  0  0  0  0  0  0  0
   -0.2673   -0.1010   -2.3610 C   0  0  0  0  0  0  0  0  0  0  0  0
   -1.2579   -0.4588   -2.6594 H   0  0  0  0  0  0  0  0  0  0  0  0
   -0.1367    0.8975   -2.7913 H   0  0  0  0  0  0  0  0  0  0  0  0
    0.7877   -1.0492   -2.9489 C   0  0  0  0  0  0  0  0  0  0  0  0
    1.7703   -0.8174   -2.5251 H   0  0  0  0  0  0  0  0  0  0  0  0
    0.5400   -2.0849   -2.6955 H   0  0  0  0  0  0  0  0  0  0  0  0
    0.8506   -0.9174   -4.4678 C   0  0  0  0  0  0  0  0  0  0  0  0
   -0.1401   -1.0881   -4.9033 H   0  0  0  0  0  0  0  0  0  0  0  0
    1.1751    0.0920   -4.7440 H   0  0  0  0  0  0  0  0  0  0  0  0
    1.7966   -1.9119   -4.9805 N   0  0  0  0  0  0  0  0  0  0  0  0
    1.9001   -1.8394   -5.9926 H   0  0  0  0  0  0  0  0  0  0  0  0
    2.7014   -1.8314   -4.5151 H   0  0  0  0  0  0  0  0  0  0  0  0
    0.4228   -0.9784    1.3818 C   0  0  0  0  0  0  0  0  0  0  0  0
    1.6258   -0.9535    1.6081 O   0  0  0  0  0  0  0  0  0  0  0  0
   -0.4482   -0.4560    2.3214 N   0  0  0  0  0  0  0  0  0  0  0  0
   -1.4359   -0.5893    2.1320 H   0  0  0  0  0  0  0  0  0  0  0  0
   -0.0349   -0.1206    3.6780 C   0  0  0  0  0  0  0  0  0  0  0  0
    0.7719    0.6197    3.6615 H   0  0  0  0  0  0  0  0  0  0  0  0
   -0.8758    0.3009    4.2368 H   0  0  0  0  0  0  0  0  0  0  0  0
    0.3186   -1.0151    4.2016 H   0  0  0  0  0  0  0  0  0  0  0  0
  1  2  1  0  0  0  0
  2  3  1  0  0  0  0
  2  4  1  0  0  0  0
  2  5  1  0  0  0  0
  5  6  2  0  0  0  0
  5  7  1  0  0  0  0
  7  8  1  0  0  0  0
  7  9  1  0  0  0  0
  9 10  1  0  0  0  0
  9 11  1  0  0  0  0
  9 26  1  0  0  0  0
 11 12  1  0  0  0  0
 11 13  1  0  0  0  0
 11 14  1  0  0  0  0
 14 15  1  0  0  0  0
 14 16  1  0  0  0  0
 14 17  1  0  0  0  0
 17 18  1  0  0  0  0
 17 19  1  0  0  0  0
 17 20  1  0  0  0  0
 20 21  1  0  0  0  0
 20 22  1  0  0  0  0
 20 23  1  0  0  0  0
 23 24  1  0  0  0  0
 23 25  1  0  0  0  0
 26 27  2  0  0  0  0
 26 28  1  0  0  0  0
 28 29  1  0  0  0  0
 28 30  1  0  0  0  0
 30 31  1  0  0  0  0
 30 32  1  0  0  0  0
 30 33  1  0  0  0  0
M  END
$$$$

  -OEChem-03222214063D

 33 32  0     1  0  0  0  0  0999 V2000
   -2.9402   -4.9110    0.7147 H   0  0  0  0  0  0  0  0  0  0  0  0
   -2.9208   -3.9416    0.2082 C   0  0  0  0  0  0  0  0  0  0  0  0
   -3.7682   -3.3460    0.5557 H   0  0  0  0  0  0  0  0  0  0  0  0
   -3.0147   -4.1065   -0.8680 H   0  0  0  0  0  0  0  0  0  0  0  0
   -1.6208   -3.2206    0.5111 C   0  0  0  0  0  0  0  0  0  0  0  0
   -0.8119   -3.7255    1.2684 O   0  0  0  0  0  0  0  0  0  0  0  0
   -1.3732   -1.9914   -0.0687 N   0  0  0  0  0  0  0  0  0  0  0  0
   -2.0326   -1.6948   -0.7816 H   0  0  0  0  0  0  0  0  0  0  0  0
   -0.0718   -1.2990   -0.0176 C   0  0  1  0  0  0  0  0  0  0  0  0
    0.6992   -1.9404   -0.4545 H   0  0  0  0  0  0  0  0  0  0  0  0
   -0.2024    0.0221   -0.8061 C   0  0  0  0  0  0  0  0  0  0  0  0
   -1.0856    0.5735   -0.4668 H   0  0  0  0  0  0  0  0  0  0  0  0
    0.6710    0.6354   -0.5563 H   0  0  0  0  0  0  0  0  0  0  0  0
   -0.2291   -0.0963   -2.3461 C   0  0  0  0  0  0  0  0  0  0  0  0
   -1.2721   -0.1955   -2.6635 H   0  0  0  0  0  0  0  0  0  0  0  0
    0.1519    0.8392   -2.7693 H   0  0  0  0  0  0  0  0  0  0  0  0
    0.5552   -1.2791   -2.9336 C   0  0  0  0  0  0  0  0  0  0  0  0
    1.5816   -1.2673   -2.5522 H   0  0  0  0  0  0  0  0  0  0  0  0
    0.0867   -2.2224   -2.6346 H   0  0  0  0  0  0  0  0  0  0  0  0
    0.5868   -1.2067   -4.4571 C   0  0  0  0  0  0  0  0  0  0  0  0
   -0.4327   -1.1561   -4.8552 H   0  0  0  0  0  0  0  0  0  0  0  0
    1.1236   -0.3075   -4.7791 H   0  0  0  0  0  0  0  0  0  0  0  0
    1.2584   -2.4070   -4.9620 N   0  0  0  0  0  0  0  0  0  0  0  0
    1.3318   -2.3912   -5.9793 H   0  0  0  0  0  0  0  0  0  0  0  0
    2.1775   -2.5203   -4.5330 H   0  0  0  0  0  0  0  0  0  0  0  0
    0.4162   -0.9802    1.4143 C   0  0  0  0  0  0  0  0  0  0  0  0
    1.6169   -0.9568    1.6526 O   0  0  0  0  0  0  0  0  0  0  0  0
   -0.4626   -0.4506    2.3426 N   0  0  0  0  0  0  0  0  0  0  0  0
   -1.4487   -0.5852    2.1453 H   0  0  0  0  0  0  0  0  0  0  0  0
   -0.0606   -0.1111    3.7019 C   0  0  0  0  0  0  0  0  0  0  0  0
    0.7394    0.6365    3.6899 H   0  0  0  0  0  0  0  0  0  0  0  0
   -0.9085    0.3024    4.2560 H   0  0  0  0  0  0  0  0  0  0  0  0
    0.2979   -1.0024    4.2274 H   0  0  0  0  0  0  0  0  0  0  0  0
  1  2  1  0  0  0  0
  2  3  1  0  0  0  0
  2  4  1  0  0  0  0
  2  5  1  0  0  0  0
  5  6  2  0  0  0  0
  5  7  1  0  0  0  0
  7  8  1  0  0  0  0
  7  9  1  0  0  0  0
  9 10  1  0  0  0  0
  9 11  1  0  0  0  0
  9 26  1  0  0  0  0
 11 12  1  0  0  0  0
 11 13  1  0  0  0  0
 11 14  1  0  0  0  0
 14 15  1  0  0  0  0
 14 16  1  0  0  0  0
 14 17  1  0  0  0  0
 17 18  1  0  0  0  0
 17 19  1  0  0  0  0
 17 20  1  0  0  0  0
 20 21  1  0  0  0  0
 20 22  1  0  0  0  0
 20 23  1  0  0  0  0
 23 24  1  0  0  0  0
 23 25  1  0  0  0  0
 26 27  2  0  0  0  0
 26 28  1  0  0  0  0
 28 29  1  0  0  0  0
 28 30  1  0  0  0  0
 30 31  1  0  0  0  0
 30 32  1  0  0  0  0
 30 33  1  0  0  0  0
M  END
$$$$

  -OEChem-03222214063D

 33 32  0     1  0  0  0  0  0999 V2000
   -2.9291   -4.9210    0.7259 H   0  0  0  0  0  0  0  0  0  0  0  0
   -2.9111   -3.9511    0.2206 C   0  0  0  0  0  0  0  0  0  0  0  0
   -3.7680   -3.3626    0.5569 H   0  0  0  0  0  0  0  0  0  0  0  0
   -2.9887   -4.1157   -0.8568 H   0  0  0  0  0  0  0  0  0  0  0  0
   -1.6215   -3.2199    0.5418 C   0  0  0  0  0  0  0  0  0  0  0  0
   -0.8259   -3.7126    1.3210 O   0  0  0  0  0  0  0  0  0  0  0  0
   -1.3675   -1.9969   -0.0480 N   0  0  0  0  0  0  0  0  0  0  0  0
   -2.0112   -1.7164   -0.7818 H   0  0  0  0  0  0  0  0  0  0  0  0
   -0.0649   -1.3067    0.0088 C   0  0  1  0  0  0  0  0  0  0  0  0
    0.7082   -1.9540   -0.4160 H   0  0  0  0  0  0  0  0  0  0  0  0
   -0.1794    0.0058   -0.7972 C   0  0  0  0  0  0  0  0  0  0  0  0
   -1.0651    0.5609   -0.4713 H   0  0  0  0  0  0  0  0  0  0  0  0
    0.6905    0.6199   -0.5371 H   0  0  0  0  0  0  0  0  0  0  0  0
   -0.1879   -0.1099   -2.3405 C   0  0  0  0  0  0  0  0  0  0  0  0
   -1.2117    0.0700   -2.6844 H   0  0  0  0  0  0  0  0  0  0  0  0
    0.4355    0.6923   -2.7501 H   0  0  0  0  0  0  0  0  0  0  0  0
    0.2730   -1.4535   -2.9280 C   0  0  0  0  0  0  0  0  0  0  0  0
    1.2903   -1.6760   -2.5903 H   0  0  0  0  0  0  0  0  0  0  0  0
   -0.3866   -2.2584   -2.5897 H   0  0  0  0  0  0  0  0  0  0  0  0
    0.2544   -1.4105   -4.4533 C   0  0  0  0  0  0  0  0  0  0  0  0
   -0.7426   -1.1312   -4.8120 H   0  0  0  0  0  0  0  0  0  0  0  0
    0.9690   -0.6634   -4.8167 H   0  0  0  0  0  0  0  0  0  0  0  0
    0.6085   -2.7399   -4.9576 N   0  0  0  0  0  0  0  0  0  0  0  0
    0.6291   -2.7554   -5.9774 H   0  0  0  0  0  0  0  0  0  0  0  0
    1.5006   -3.0518   -4.5722 H   0  0  0  0  0  0  0  0  0  0  0  0
    0.4094   -0.9753    1.4426 C   0  0  0  0  0  0  0  0  0  0  0  0
    1.6075   -0.9556    1.6941 O   0  0  0  0  0  0  0  0  0  0  0  0
   -0.4778   -0.4352    2.3566 N   0  0  0  0  0  0  0  0  0  0  0  0
   -1.4619   -0.5693    2.1487 H   0  0  0  0  0  0  0  0  0  0  0  0
   -0.0915   -0.0943    3.7200 C   0  0  0  0  0  0  0  0  0  0  0  0
    0.7096    0.6523    3.7167 H   0  0  0  0  0  0  0  0  0  0  0  0
   -0.9456    0.3208    4.2632 H   0  0  0  0  0  0  0  0  0  0  0  0
    0.2598   -0.9852    4.2511 H   0  0  0  0  0  0  0  0  0  0  0  0
  1  2  1  0  0  0  0
  2  3  1  0  0  0  0
  2  4  1  0  0  0  0
  2  5  1  0  0  0  0
  5  6  2  0  0  0  0
  5  7  1  0  0  0  0
  7  8  1  0  0  0  0
  7  9  1  0  0  0  0
  9 10  1  0  0  0  0
  9 11  1  0  0  0  0
  9 26  1  0  0  0  0
 11 12  1  0  0  0  0
 11 13  1  0  0  0  0
 11 14  1  0  0  0  0
 14 15  1  0  0  0  0
 14 16  1  0  0  0  0
 14 17  1  0  0  0  0
 17 18  1  0  0  0  0
 17 19  1  0  0  0  0
 17 20  1  0  0  0  0
 20 21  1  0  0  0  0
 20 22  1  0  0  0  0
 20 23  1  0  0  0  0
 23 24  1  0  0  0  0
 23 25  1  0  0  0  0
 26 27  2  0  0  0  0
 26 28  1  0  0  0  0
 28 29  1  0  0  0  0
 28 30  1  0  0  0  0
 30 31  1  0  0  0  0
 30 32  1  0  0  0  0
 30 33  1  0  0  0  0
M  END
$$$$

  -OEChem-03222214063D

 33 32  0     1  0  0  0  0  0999 V2000
   -2.9293   -4.9323    0.7811 H   0  0  0  0  0  0  0  0  0  0  0  0
   -2.9125   -3.9681    0.2649 C   0  0  0  0  0  0  0  0  0  0  0  0
   -3.7714   -3.3780    0.5935 H   0  0  0  0  0  0  0  0  0  0  0  0
   -2.9889   -4.1451   -0.8108 H   0  0  0  0  0  0  0  0  0  0  0  0
   -1.6241   -3.2308    0.5781 C   0  0  0  0  0  0  0  0  0  0  0  0
   -0.8217   -3.7185    1.3535 O   0  0  0  0  0  0  0  0  0  0  0  0
   -1.3748   -2.0118   -0.0217 N   0  0  0  0  0  0  0  0  0  0  0  0
   -2.0223   -1.7381   -0.7550 H   0  0  0  0  0  0  0  0  0  0  0  0
   -0.0737   -1.3174    0.0237 C   0  0  1  0  0  0  0  0  0  0  0  0
    0.6979   -1.9677   -0.3994 H   0  0  0  0  0  0  0  0  0  0  0  0
   -0.1772   -0.0134   -0.7975 C   0  0  0  0  0  0  0  0  0  0  0  0
   -1.0742    0.5305   -0.4839 H   0  0  0  0  0  0  0  0  0  0  0  0
    0.6796    0.6166   -0.5319 H   0  0  0  0  0  0  0  0  0  0  0  0
   -0.1800   -0.1354   -2.3425 C   0  0  0  0  0  0  0  0  0  0  0  0
   -1.1008    0.3256   -2.7150 H   0  0  0  0  0  0  0  0  0  0  0  0
    0.6555    0.4575   -2.7305 H   0  0  0  0  0  0  0  0  0  0  0  0
   -0.0788   -1.5526   -2.9326 C   0  0  0  0  0  0  0  0  0  0  0  0
    0.8469   -2.0329   -2.6015 H   0  0  0  0  0  0  0  0  0  0  0  0
   -0.9238   -2.1610   -2.5986 H   0  0  0  0  0  0  0  0  0  0  0  0
   -0.0874   -1.5036   -4.4574 C   0  0  0  0  0  0  0  0  0  0  0  0
   -0.9822   -0.9816   -4.8141 H   0  0  0  0  0  0  0  0  0  0  0  0
    0.7917   -0.9600   -4.8213 H   0  0  0  0  0  0  0  0  0  0  0  0
   -0.0809   -2.8795   -4.9619 N   0  0  0  0  0  0  0  0  0  0  0  0
   -0.0889   -2.8990   -5.9820 H   0  0  0  0  0  0  0  0  0  0  0  0
    0.7176   -3.3996   -4.5959 H   0  0  0  0  0  0  0  0  0  0  0  0
    0.4054   -0.9743    1.4530 C   0  0  0  0  0  0  0  0  0  0  0  0
    1.6044   -0.9480    1.6996 O   0  0  0  0  0  0  0  0  0  0  0  0
   -0.4805   -0.4300    2.3655 N   0  0  0  0  0  0  0  0  0  0  0  0
   -1.4648   -0.5673    2.1613 H   0  0  0  0  0  0  0  0  0  0  0  0
   -0.0910   -0.0693    3.7227 C   0  0  0  0  0  0  0  0  0  0  0  0
    0.7056    0.6821    3.7070 H   0  0  0  0  0  0  0  0  0  0  0  0
   -0.9462    0.3476    4.2630 H   0  0  0  0  0  0  0  0  0  0  0  0
    0.2668   -0.9513    4.2642 H   0  0  0  0  0  0  0  0  0  0  0  0
  1  2  1  0  0  0  0
  2  3  1  0  0  0  0
  2  4  1  0  0  0  0
  2  5  1  0  0  0  0
  5  6  2  0  0  0  0
  5  7  1  0  0  0  0
  7  8  1  0  0  0  0
  7  9  1  0  0  0  0
  9 10  1  0  0  0  0
  9 11  1  0  0  0  0
  9 26  1  0  0  0  0
 11 12  1  0  0  0  0
 11 13  1  0  0  0  0
 11 14  1  0  0  0  0
 14 15  1  0  0  0  0
 14 16  1  0  0  0  0
 14 17  1  0  0  0  0
 17 18  1  0  0  0  0
 17 19  1  0  0  0  0
 17 20  1  0  0  0  0
 20 21  1  0  0  0  0
 20 22  1  0  0  0  0
 20 23  1  0  0  0  0
 23 24  1  0  0  0  0
 23 25  1  0  0  0  0
 26 27  2  0  0  0  0
 26 28  1  0  0  0  0
 28 29  1  0  0  0  0
 28 30  1  0  0  0  0
 30 31  1  0  0  0  0
 30 32  1  0  0  0  0
 30 33  1  0  0  0  0
M  END
$$$$

  -OEChem-03222214063D

 33 32  0     1  0  0  0  0  0999 V2000
   -2.9195   -4.9433    0.8204 H   0  0  0  0  0  0  0  0  0  0  0  0
   -2.9156   -3.9763    0.3093 C   0  0  0  0  0  0  0  0  0  0  0  0
   -3.7656   -3.3880    0.6630 H   0  0  0  0  0  0  0  0  0  0  0  0
   -3.0196   -4.1471   -0.7650 H   0  0  0  0  0  0  0  0  0  0  0  0
   -1.6200   -3.2403    0.5938 C   0  0  0  0  0  0  0  0  0  0  0  0
   -0.7968   -3.7321    1.3445 O   0  0  0  0  0  0  0  0  0  0  0  0
   -1.3861   -2.0188   -0.0070 N   0  0  0  0  0  0  0  0  0  0  0  0
   -2.0544   -1.7385   -0.7190 H   0  0  0  0  0  0  0  0  0  0  0  0
   -0.0895   -1.3147    0.0178 C   0  0  1  0  0  0  0  0  0  0  0  0
    0.6796   -1.9598   -0.4190 H   0  0  0  0  0  0  0  0  0  0  0  0
   -0.1968   -0.0124   -0.8063 C   0  0  0  0  0  0  0  0  0  0  0  0
   -1.1058    0.5124   -0.4947 H   0  0  0  0  0  0  0  0  0  0  0  0
    0.6462    0.6367   -0.5434 H   0  0  0  0  0  0  0  0  0  0  0  0
   -0.2098   -0.1421   -2.3504 C   0  0  0  0  0  0  0  0  0  0  0  0
   -0.9534    0.5563   -2.7484 H   0  0  0  0  0  0  0  0  0  0  0  0
    0.7687    0.1865   -2.7170 H   0  0  0  0  0  0  0  0  0  0  0  0
   -0.4748   -1.5414   -2.9323 C   0  0  0  0  0  0  0  0  0  0  0  0
    0.2755   -2.2522   -2.5737 H   0  0  0  0  0  0  0  0  0  0  0  0
   -1.4629   -1.8911   -2.6205 H   0  0  0  0  0  0  0  0  0  0  0  0
   -0.4318   -1.5122   -4.4565 C   0  0  0  0  0  0  0  0  0  0  0  0
   -1.1571   -0.7868   -4.8412 H   0  0  0  0  0  0  0  0  0  0  0  0
    0.5649   -1.2131   -4.7999 H   0  0  0  0  0  0  0  0  0  0  0  0
   -0.7596   -2.8534   -4.9486 N   0  0  0  0  0  0  0  0  0  0  0  0
   -0.7641   -2.8810   -5.9686 H   0  0  0  0  0  0  0  0  0  0  0  0
   -0.1141   -3.5483   -4.5715 H   0  0  0  0  0  0  0  0  0  0  0  0
    0.4076   -0.9711    1.4404 C   0  0  0  0  0  0  0  0  0  0  0  0
    1.6096   -0.9415    1.6718 O   0  0  0  0  0  0  0  0  0  0  0  0
   -0.4699   -0.4356    2.3660 N   0  0  0  0  0  0  0  0  0  0  0  0
   -1.4564   -0.5717    2.1716 H   0  0  0  0  0  0  0  0  0  0  0  0
   -0.0657   -0.0751    3.7185 C   0  0  0  0  0  0  0  0  0  0  0  0
    0.7259    0.6811    3.6937 H   0  0  0  0  0  0  0  0  0  0  0  0
   -0.9163    0.3358    4.2702 H   0  0  0  0  0  0  0  0  0  0  0  0
    0.3046   -0.9557    4.2538 H   0  0  0  0  0  0  0  0  0  0  0  0
  1  2  1  0  0  0  0
  2  3  1  0  0  0  0
  2  4  1  0  0  0  0
  2  5  1  0  0  0  0
  5  6  2  0  0  0  0
  5  7  1  0  0  0  0
  7  8  1  0  0  0  0
  7  9  1  0  0  0  0
  9 10  1  0  0  0  0
  9 11  1  0  0  0  0
  9 26  1  0  0  0  0
 11 12  1  0  0  0  0
 11 13  1  0  0  0  0
 11 14  1  0  0  0  0
 14 15  1  0  0  0  0
 14 16  1  0  0  0  0
 14 17  1  0  0  0  0
 17 18  1  0  0  0  0
 17 19  1  0  0  0  0
 17 20  1  0  0  0  0
 20 21  1  0  0  0  0
 20 22  1  0  0  0  0
 20 23  1  0  0  0  0
 23 24  1  0  0  0  0
 23 25  1  0  0  0  0
 26 27  2  0  0  0  0
 26 28  1  0  0  0  0
 28 29  1  0  0  0  0
 28 30  1  0  0  0  0
 30 31  1  0  0  0  0
 30 32  1  0  0  0  0
 30 33  1  0  0  0  0
M  END
$$$$

  -OEChem-03222214063D

 33 32  0     1  0  0  0  0  0999 V2000
   -2.9010   -4.9639    0.7970 H   0  0  0  0  0  0  0  0  0  0  0  0
   -2.9218   -3.9796    0.3203 C   0  0  0  0  0  0  0  0  0  0  0  0
   -3.7599   -3.4089    0.7275 H   0  0  0  0  0  0  0  0  0  0  0  0
   -3.0677   -4.1131   -0.7545 H   0  0  0  0  0  0  0  0  0  0  0  0
   -1.6192   -3.2466    0.5798 C   0  0  0  0  0  0  0  0  0  0  0  0
   -0.7753   -3.7465    1.3016 O   0  0  0  0  0  0  0  0  0  0  0  0
   -1.4024   -2.0169   -0.0098 N   0  0  0  0  0  0  0  0  0  0  0  0
   -2.0902   -1.7245   -0.6982 H   0  0  0  0  0  0  0  0  0  0  0  0
   -0.1117   -1.3015    0.0057 C   0  0  1  0  0  0  0  0  0  0  0  0
    0.6517   -1.9406   -0.4513 H   0  0  0  0  0  0  0  0  0  0  0  0
   -0.2220    0.0032   -0.8136 C   0  0  0  0  0  0  0  0  0  0  0  0
   -1.1367    0.5198   -0.5045 H   0  0  0  0  0  0  0  0  0  0  0  0
    0.6162    0.6594   -0.5533 H   0  0  0  0  0  0  0  0  0  0  0  0
   -0.2357   -0.1386   -2.3539 C   0  0  0  0  0  0  0  0  0  0  0  0
   -0.7620    0.7235   -2.7766 H   0  0  0  0  0  0  0  0  0  0  0  0
    0.8028   -0.0846   -2.6977 H   0  0  0  0  0  0  0  0  0  0  0  0
   -0.8405   -1.4330   -2.9202 C   0  0  0  0  0  0  0  0  0  0  0  0
   -0.2916   -2.3034   -2.5483 H   0  0  0  0  0  0  0  0  0  0  0  0
   -1.8850   -1.5190   -2.6060 H   0  0  0  0  0  0  0  0  0  0  0  0
   -0.7861   -1.4343   -4.4441 C   0  0  0  0  0  0  0  0  0  0  0  0
   -1.3272   -0.5683   -4.8418 H   0  0  0  0  0  0  0  0  0  0  0  0
    0.2536   -1.3723   -4.7849 H   0  0  0  0  0  0  0  0  0  0  0  0
   -1.4046   -2.6744   -4.9219 N   0  0  0  0  0  0  0  0  0  0  0  0
   -1.4239   -2.7064   -5.9418 H   0  0  0  0  0  0  0  0  0  0  0  0
   -0.9228   -3.4911   -4.5449 H   0  0  0  0  0  0  0  0  0  0  0  0
    0.4053   -0.9668    1.4228 C   0  0  0  0  0  0  0  0  0  0  0  0
    1.6108   -0.9283    1.6336 O   0  0  0  0  0  0  0  0  0  0  0  0
   -0.4603   -0.4474    2.3685 N   0  0  0  0  0  0  0  0  0  0  0  0
   -1.4493   -0.5871    2.1901 H   0  0  0  0  0  0  0  0  0  0  0  0
   -0.0339   -0.0906    3.7156 C   0  0  0  0  0  0  0  0  0  0  0  0
    0.7664    0.6560    3.6795 H   0  0  0  0  0  0  0  0  0  0  0  0
   -0.8719    0.3314    4.2783 H   0  0  0  0  0  0  0  0  0  0  0  0
    0.3331   -0.9753    4.2465 H   0  0  0  0  0  0  0  0  0  0  0  0
  1  2  1  0  0  0  0
  2  3  1  0  0  0  0
  2  4  1  0  0  0  0
  2  5  1  0  0  0  0
  5  6  2  0  0  0  0
  5  7  1  0  0  0  0
  7  8  1  0  0  0  0
  7  9  1  0  0  0  0
  9 10  1  0  0  0  0
  9 11  1  0  0  0  0
  9 26  1  0  0  0  0
 11 12  1  0  0  0  0
 11 13  1  0  0  0  0
 11 14  1  0  0  0  0
 14 15  1  0  0  0  0
 14 16  1  0  0  0  0
 14 17  1  0  0  0  0
 17 18  1  0  0  0  0
 17 19  1  0  0  0  0
 17 20  1  0  0  0  0
 20 21  1  0  0  0  0
 20 22  1  0  0  0  0
 20 23  1  0  0  0  0
 23 24  1  0  0  0  0
 23 25  1  0  0  0  0
 26 27  2  0  0  0  0
 26 28  1  0  0  0  0
 28 29  1  0  0  0  0
 28 30  1  0  0  0  0
 30 31  1  0  0  0  0
 30 32  1  0  0  0  0
 30 33  1  0  0  0  0
M  END
$$$$

  -OEChem-03222214063D

 33 32  0     1  0  0  0  0  0999 V2000
   -2.8948   -4.9650    0.7845 H   0  0  0  0  0  0  0  0  0  0  0  0
   -2.9206   -3.9770    0.3161 C   0  0  0  0  0  0  0  0  0  0  0  0
   -3.7530   -3.4089    0.7379 H   0  0  0  0  0  0  0  0  0  0  0  0
   -3.0800   -4.1018   -0.7578 H   0  0  0  0  0  0  0  0  0  0  0  0
   -1.6146   -3.2465    0.5662 C   0  0  0  0  0  0  0  0  0  0  0  0
   -0.7642   -3.7514    1.2766 O   0  0  0  0  0  0  0  0  0  0  0  0
   -1.4015   -2.0142   -0.0189 N   0  0  0  0  0  0  0  0  0  0  0  0
   -2.0968   -1.7140   -0.6964 H   0  0  0  0  0  0  0  0  0  0  0  0
   -0.1138   -1.2939   -0.0019 C   0  0  1  0  0  0  0  0  0  0  0  0
    0.6472   -1.9331   -0.4636 H   0  0  0  0  0  0  0  0  0  0  0  0
   -0.2217    0.0093   -0.8234 C   0  0  0  0  0  0  0  0  0  0  0  0
   -1.1344    0.5336   -0.5214 H   0  0  0  0  0  0  0  0  0  0  0  0
    0.6214    0.6606   -0.5667 H   0  0  0  0  0  0  0  0  0  0  0  0
   -0.2259   -0.1533   -2.3592 C   0  0  0  0  0  0  0  0  0  0  0  0
   -0.5218    0.8037   -2.8015 H   0  0  0  0  0  0  0  0  0  0  0  0
    0.8004   -0.3590   -2.6820 H   0  0  0  0  0  0  0  0  0  0  0  0
   -1.1294   -1.2651   -2.9117 C   0  0  0  0  0  0  0  0  0  0  0  0
   -0.7651   -2.2420   -2.5794 H   0  0  0  0  0  0  0  0  0  0  0  0
   -2.1506   -1.1282   -2.5424 H   0  0  0  0  0  0  0  0  0  0  0  0
   -1.1493   -1.2432   -4.4363 C   0  0  0  0  0  0  0  0  0  0  0  0
   -1.5369   -0.2825   -4.7935 H   0  0  0  0  0  0  0  0  0  0  0  0
   -0.1346   -1.3691   -4.8306 H   0  0  0  0  0  0  0  0  0  0  0  0
   -2.0121   -2.3352   -4.8965 N   0  0  0  0  0  0  0  0  0  0  0  0
   -2.1051   -2.3263   -5.9128 H   0  0  0  0  0  0  0  0  0  0  0  0
   -1.6609   -3.2376   -4.5753 H   0  0  0  0  0  0  0  0  0  0  0  0
    0.4037   -0.9618    1.4159 C   0  0  0  0  0  0  0  0  0  0  0  0
    1.6092   -0.9208    1.6257 O   0  0  0  0  0  0  0  0  0  0  0  0
   -0.4624   -0.4490    2.3649 N   0  0  0  0  0  0  0  0  0  0  0  0
   -1.4514   -0.5876    2.1853 H   0  0  0  0  0  0  0  0  0  0  0  0
   -0.0372   -0.0976    3.7138 C   0  0  0  0  0  0  0  0  0  0  0  0
    0.7592    0.6535    3.6823 H   0  0  0  0  0  0  0  0  0  0  0  0
   -0.8773    0.3166    4.2792 H   0  0  0  0  0  0  0  0  0  0  0  0
    0.3340   -0.9833    4.2400 H   0  0  0  0  0  0  0  0  0  0  0  0
  1  2  1  0  0  0  0
  2  3  1  0  0  0  0
  2  4  1  0  0  0  0
  2  5  1  0  0  0  0
  5  6  2  0  0  0  0
  5  7  1  0  0  0  0
  7  8  1  0  0  0  0
  7  9  1  0  0  0  0
  9 10  1  0  0  0  0
  9 11  1  0  0  0  0
  9 26  1  0  0  0  0
 11 12  1  0  0  0  0
 11 13  1  0  0  0  0
 11 14  1  0  0  0  0
 14 15  1  0  0  0  0
 14 16  1  0  0  0  0
 14 17  1  0  0  0  0
 17 18  1  0  0  0  0
 17 19  1  0  0  0  0
 17 20  1  0  0  0  0
 20 21  1  0  0  0  0
 20 22  1  0  0  0  0
 20 23  1  0  0  0  0
 23 24  1  0  0  0  0
 23 25  1  0  0  0  0
 26 27  2  0  0  0  0
 26 28  1  0  0  0  0
 28 29  1  0  0  0  0
 28 30  1  0  0  0  0
 30 31  1  0  0  0  0
 30 32  1  0  0  0  0
 30 33  1  0  0  0  0
M  END
$$$$

  -OEChem-03222214063D

 33 32  0     1  0  0  0  0  0999 V2000
   -2.9025   -4.9522    0.7885 H   0  0  0  0  0  0  0  0  0  0  0  0
   -2.9192   -3.9704    0.3068 C   0  0  0  0  0  0  0  0  0  0  0  0
   -3.7468   -3.3893    0.7203 H   0  0  0  0  0  0  0  0  0  0  0  0
   -3.0790   -4.1083   -0.7653 H   0  0  0  0  0  0  0  0  0  0  0  0
   -1.6073   -3.2480    0.5488 C   0  0  0  0  0  0  0  0  0  0  0  0
   -0.7554   -3.7577    1.2540 O   0  0  0  0  0  0  0  0  0  0  0  0
   -1.3912   -2.0163   -0.0363 N   0  0  0  0  0  0  0  0  0  0  0  0
   -2.0913   -1.7065   -0.7049 H   0  0  0  0  0  0  0  0  0  0  0  0
   -0.1052   -1.2943   -0.0142 C   0  0  1  0  0  0  0  0  0  0  0  0
    0.6589   -1.9318   -0.4732 H   0  0  0  0  0  0  0  0  0  0  0  0
   -0.2164    0.0081   -0.8352 C   0  0  0  0  0  0  0  0  0  0  0  0
   -1.1220    0.5460   -0.5363 H   0  0  0  0  0  0  0  0  0  0  0  0
    0.6361    0.6501   -0.5862 H   0  0  0  0  0  0  0  0  0  0  0  0
   -0.2150   -0.1798   -2.3653 C   0  0  0  0  0  0  0  0  0  0  0  0
   -0.2723    0.8128   -2.8244 H   0  0  0  0  0  0  0  0  0  0  0  0
    0.7378   -0.6263   -2.6690 H   0  0  0  0  0  0  0  0  0  0  0  0
   -1.3641   -1.0435   -2.9042 C   0  0  0  0  0  0  0  0  0  0  0  0
   -1.2071   -2.0882   -2.6204 H   0  0  0  0  0  0  0  0  0  0  0  0
   -2.3137   -0.7046   -2.4774 H   0  0  0  0  0  0  0  0  0  0  0  0
   -1.4452   -0.9581   -4.4244 C   0  0  0  0  0  0  0  0  0  0  0  0
   -1.6490    0.0737   -4.7318 H   0  0  0  0  0  0  0  0  0  0  0  0
   -0.4938   -1.2656   -4.8728 H   0  0  0  0  0  0  0  0  0  0  0  0
   -2.5268   -1.8390   -4.8752 N   0  0  0  0  0  0  0  0  0  0  0  0
   -2.6711   -1.7571   -5.8823 H   0  0  0  0  0  0  0  0  0  0  0  0
   -2.3411   -2.8079   -4.6159 H   0  0  0  0  0  0  0  0  0  0  0  0
    0.4040   -0.9598    1.4059 C   0  0  0  0  0  0  0  0  0  0  0  0
    1.6080   -0.9205    1.6240 O   0  0  0  0  0  0  0  0  0  0  0  0
   -0.4681   -0.4469    2.3494 N   0  0  0  0  0  0  0  0  0  0  0  0
   -1.4562   -0.5811    2.1623 H   0  0  0  0  0  0  0  0  0  0  0  0
   -0.0511   -0.0953    3.7008 C   0  0  0  0  0  0  0  0  0  0  0  0
    0.7318    0.6701    3.6740 H   0  0  0  0  0  0  0  0  0  0  0  0
   -0.8991    0.3004    4.2678 H   0  0  0  0  0  0  0  0  0  0  0  0
    0.3358   -0.9771    4.2224 H   0  0  0  0  0  0  0  0  0  0  0  0
  1  2  1  0  0  0  0
  2  3  1  0  0  0  0
  2  4  1  0  0  0  0
  2  5  1  0  0  0  0
  5  6  2  0  0  0  0
  5  7  1  0  0  0  0
  7  8  1  0  0  0  0
  7  9  1  0  0  0  0
  9 10  1  0  0  0  0
  9 11  1  0  0  0  0
  9 26  1  0  0  0  0
 11 12  1  0  0  0  0
 11 13  1  0  0  0  0
 11 14  1  0  0  0  0
 14 15  1  0  0  0  0
 14 16  1  0  0  0  0
 14 17  1  0  0  0  0
 17 18  1  0  0  0  0
 17 19  1  0  0  0  0
 17 20  1  0  0  0  0
 20 21  1  0  0  0  0
 20 22  1  0  0  0  0
 20 23  1  0  0  0  0
 23 24  1  0  0  0  0
 23 25  1  0  0  0  0
 26 27  2  0  0  0  0
 26 28  1  0  0  0  0
 28 29  1  0  0  0  0
 28 30  1  0  0  0  0
 30 31  1  0  0  0  0
 30 32  1  0  0  0  0
 30 33  1  0  0  0  0
M  END
$$$$

  -OEChem-03222214063D

 33 32  0     1  0  0  0  0  0999 V2000
   -2.9110   -4.9361    0.7658 H   0  0  0  0  0  0  0  0  0  0  0  0
   -2.9287   -3.9488    0.2953 C   0  0  0  0  0  0  0  0  0  0  0  0
   -3.7397   -3.3635    0.7353 H   0  0  0  0  0  0  0  0  0  0  0  0
   -3.1154   -4.0729   -0.7741 H   0  0  0  0  0  0  0  0  0  0  0  0
   -1.6033   -3.2436    0.5123 C   0  0  0  0  0  0  0  0  0  0  0  0
   -0.7364   -3.7745    1.1826 O   0  0  0  0  0  0  0  0  0  0  0  0
   -1.3902   -2.0042   -0.0573 N   0  0  0  0  0  0  0  0  0  0  0  0
   -2.1132   -1.6604   -0.6835 H   0  0  0  0  0  0  0  0  0  0  0  0
   -0.1066   -1.2804   -0.0307 C   0  0  1  0  0  0  0  0  0  0  0  0
    0.6576   -1.9097   -0.5002 H   0  0  0  0  0  0  0  0  0  0  0  0
   -0.2394    0.0264   -0.8381 C   0  0  0  0  0  0  0  0  0  0  0  0
   -1.1358    0.5718   -0.5255 H   0  0  0  0  0  0  0  0  0  0  0  0
    0.6220    0.6610   -0.6005 H   0  0  0  0  0  0  0  0  0  0  0  0
   -0.2475   -0.1761   -2.3650 C   0  0  0  0  0  0  0  0  0  0  0  0
   -0.0746    0.8011   -2.8284 H   0  0  0  0  0  0  0  0  0  0  0  0
    0.5828   -0.8276   -2.6575 H   0  0  0  0  0  0  0  0  0  0  0  0
   -1.5686   -0.7411   -2.9077 C   0  0  0  0  0  0  0  0  0  0  0  0
   -1.6701   -1.7907   -2.6197 H   0  0  0  0  0  0  0  0  0  0  0  0
   -2.4128   -0.1841   -2.4887 H   0  0  0  0  0  0  0  0  0  0  0  0
   -1.6164   -0.6463   -4.4297 C   0  0  0  0  0  0  0  0  0  0  0  0
   -1.5789    0.4038   -4.7409 H   0  0  0  0  0  0  0  0  0  0  0  0
   -0.7551   -1.1622   -4.8693 H   0  0  0  0  0  0  0  0  0  0  0  0
   -2.8645   -1.2616   -4.8914 N   0  0  0  0  0  0  0  0  0  0  0  0
   -2.9804   -1.1454   -5.8988 H   0  0  0  0  0  0  0  0  0  0  0  0
   -2.9029   -2.2482   -4.6363 H   0  0  0  0  0  0  0  0  0  0  0  0
    0.4095   -0.9615    1.3905 C   0  0  0  0  0  0  0  0  0  0  0  0
    1.6144   -0.9243    1.6035 O   0  0  0  0  0  0  0  0  0  0  0  0
   -0.4580   -0.4615    2.3450 N   0  0  0  0  0  0  0  0  0  0  0  0
   -1.4474   -0.5878    2.1600 H   0  0  0  0  0  0  0  0  0  0  0  0
   -0.0343   -0.1175    3.6963 C   0  0  0  0  0  0  0  0  0  0  0  0
    0.7491    0.6472    3.6698 H   0  0  0  0  0  0  0  0  0  0  0  0
   -0.8791    0.2762    4.2692 H   0  0  0  0  0  0  0  0  0  0  0  0
    0.3540   -1.0024    4.2115 H   0  0  0  0  0  0  0  0  0  0  0  0
  1  2  1  0  0  0  0
  2  3  1  0  0  0  0
  2  4  1  0  0  0  0
  2  5  1  0  0  0  0
  5  6  2  0  0  0  0
  5  7  1  0  0  0  0
  7  8  1  0  0  0  0
  7  9  1  0  0  0  0
  9 10  1  0  0  0  0
  9 11  1  0  0  0  0
  9 26  1  0  0  0  0
 11 12  1  0  0  0  0
 11 13  1  0  0  0  0
 11 14  1  0  0  0  0
 14 15  1  0  0  0  0
 14 16  1  0  0  0  0
 14 17  1  0  0  0  0
 17 18  1  0  0  0  0
 17 19  1  0  0  0  0
 17 20  1  0  0  0  0
 20 21  1  0  0  0  0
 20 22  1  0  0  0  0
 20 23  1  0  0  0  0
 23 24  1  0  0  0  0
 23 25  1  0  0  0  0
 26 27  2  0  0  0  0
 26 28  1  0  0  0  0
 28 29  1  0  0  0  0
 28 30  1  0  0  0  0
 30 31  1  0  0  0  0
 30 32  1  0  0  0  0
 30 33  1  0  0  0  0
M  END
$$$$

  -OEChem-03222214063D

 33 32  0     1  0  0  0  0  0999 V2000
   -2.9173   -4.9122    0.7081 H   0  0  0  0  0  0  0  0  0  0  0  0
   -2.9291   -3.9232    0.2410 C   0  0  0  0  0  0  0  0  0  0  0  0
   -3.7340   -3.3335    0.6860 H   0  0  0  0  0  0  0  0  0  0  0  0
   -3.1210   -4.0423   -0.8281 H   0  0  0  0  0  0  0  0  0  0  0  0
   -1.5970   -3.2293    0.4548 C   0  0  0  0  0  0  0  0  0  0  0  0
   -0.7244   -3.7780    1.1028 O   0  0  0  0  0  0  0  0  0  0  0  0
   -1.3845   -1.9796   -0.0922 N   0  0  0  0  0  0  0  0  0  0  0  0
   -2.1192   -1.6099   -0.6887 H   0  0  0  0  0  0  0  0  0  0  0  0
   -0.1021   -1.2547   -0.0531 C   0  0  1  0  0  0  0  0  0  0  0  0
    0.6651   -1.8701   -0.5358 H   0  0  0  0  0  0  0  0  0  0  0  0
   -0.2555    0.0659   -0.8312 C   0  0  0  0  0  0  0  0  0  0  0  0
   -1.1459    0.6089   -0.4976 H   0  0  0  0  0  0  0  0  0  0  0  0
    0.6099    0.6959   -0.5961 H   0  0  0  0  0  0  0  0  0  0  0  0
   -0.2739   -0.1317   -2.3581 C   0  0  0  0  0  0  0  0  0  0  0  0
    0.1334    0.7746   -2.8194 H   0  0  0  0  0  0  0  0  0  0  0  0
    0.3782   -0.9637   -2.6443 H   0  0  0  0  0  0  0  0  0  0  0  0
   -1.6910   -0.3531   -2.9067 C   0  0  0  0  0  0  0  0  0  0  0  0
   -2.0857   -1.3074   -2.5488 H   0  0  0  0  0  0  0  0  0  0  0  0
   -2.3545    0.4444   -2.5566 H   0  0  0  0  0  0  0  0  0  0  0  0
   -1.6857   -0.3616   -4.4321 C   0  0  0  0  0  0  0  0  0  0  0  0
   -1.3420    0.6078   -4.8103 H   0  0  0  0  0  0  0  0  0  0  0  0
   -1.0029   -1.1336   -4.8047 H   0  0  0  0  0  0  0  0  0  0  0  0
   -3.0507   -0.6258   -4.8977 N   0  0  0  0  0  0  0  0  0  0  0  0
   -3.1129   -0.5558   -5.9139 H   0  0  0  0  0  0  0  0  0  0  0  0
   -3.3788   -1.5365   -4.5779 H   0  0  0  0  0  0  0  0  0  0  0  0
    0.4150   -0.9599    1.3728 C   0  0  0  0  0  0  0  0  0  0  0  0
    1.6201   -0.9257    1.5847 O   0  0  0  0  0  0  0  0  0  0  0  0
   -0.4517   -0.4777    2.3373 N   0  0  0  0  0  0  0  0  0  0  0  0
   -1.4417   -0.5977    2.1508 H   0  0  0  0  0  0  0  0  0  0  0  0
   -0.0251   -0.1596    3.6941 C   0  0  0  0  0  0  0  0  0  0  0  0
    0.7490    0.6149    3.6813 H   0  0  0  0  0  0  0  0  0  0  0  0
   -0.8717    0.2103    4.2801 H   0  0  0  0  0  0  0  0  0  0  0  0
    0.3767   -1.0512    4.1869 H   0  0  0  0  0  0  0  0  0  0  0  0
  1  2  1  0  0  0  0
  2  3  1  0  0  0  0
  2  4  1  0  0  0  0
  2  5  1  0  0  0  0
  5  6  2  0  0  0  0
  5  7  1  0  0  0  0
  7  8  1  0  0  0  0
  7  9  1  0  0  0  0
  9 10  1  0  0  0  0
  9 11  1  0  0  0  0
  9 26  1  0  0  0  0
 11 12  1  0  0  0  0
 11 13  1  0  0  0  0
 11 14  1  0  0  0  0
 14 15  1  0  0  0  0
 14 16  1  0  0  0  0
 14 17  1  0  0  0  0
 17 18  1  0  0  0  0
 17 19  1  0  0  0  0
 17 20  1  0  0  0  0
 20 21  1  0  0  0  0
 20 22  1  0  0  0  0
 20 23  1  0  0  0  0
 23 24  1  0  0  0  0
 23 25  1  0  0  0  0
 26 27  2  0  0  0  0
 26 28  1  0  0  0  0
 28 29  1  0  0  0  0
 28 30  1  0  0  0  0
 30 31  1  0  0  0  0
 30 32  1  0  0  0  0
 30 33  1  0  0  0  0
M  END
$$$$

  -OEChem-03222214063D

 33 32  0     1  0  0  0  0  0999 V2000
   -2.9142   -4.8933    0.6147 H   0  0  0  0  0  0  0  0  0  0  0  0
   -2.9253   -3.8941    0.1699 C   0  0  0  0  0  0  0  0  0  0  0  0
   -3.7318   -3.3148    0.6258 H   0  0  0  0  0  0  0  0  0  0  0  0
   -3.1136   -3.9893   -0.9022 H   0  0  0  0  0  0  0  0  0  0  0  0
   -1.5945   -3.2042    0.4039 C   0  0  0  0  0  0  0  0  0  0  0  0
   -0.7279   -3.7612    1.0530 O   0  0  0  0  0  0  0  0  0  0  0  0
   -1.3785   -1.9461   -0.1221 N   0  0  0  0  0  0  0  0  0  0  0  0
   -2.1066   -1.5705   -0.7224 H   0  0  0  0  0  0  0  0  0  0  0  0
   -0.0946   -1.2245   -0.0655 C   0  0  1  0  0  0  0  0  0  0  0  0
    0.6761   -1.8289   -0.5572 H   0  0  0  0  0  0  0  0  0  0  0  0
   -0.2618    0.1063   -0.8207 C   0  0  0  0  0  0  0  0  0  0  0  0
   -1.1559    0.6361   -0.4750 H   0  0  0  0  0  0  0  0  0  0  0  0
    0.5977    0.7425   -0.5809 H   0  0  0  0  0  0  0  0  0  0  0  0
   -0.2827   -0.0868   -2.3489 C   0  0  0  0  0  0  0  0  0  0  0  0
    0.3508    0.6827   -2.8034 H   0  0  0  0  0  0  0  0  0  0  0  0
    0.1404   -1.0590   -2.6240 H   0  0  0  0  0  0  0  0  0  0  0  0
   -1.7002    0.0525   -2.9191 C   0  0  0  0  0  0  0  0  0  0  0  0
   -2.3476   -0.7188   -2.4924 H   0  0  0  0  0  0  0  0  0  0  0  0
   -2.1136    1.0302   -2.6499 H   0  0  0  0  0  0  0  0  0  0  0  0
   -1.6862   -0.0840   -4.4389 C   0  0  0  0  0  0  0  0  0  0  0  0
   -1.0666    0.7054   -4.8792 H   0  0  0  0  0  0  0  0  0  0  0  0
   -1.2596   -1.0511   -4.7280 H   0  0  0  0  0  0  0  0  0  0  0  0
   -3.0627    0.0284   -4.9305 N   0  0  0  0  0  0  0  0  0  0  0  0
   -3.0916    0.0241   -5.9506 H   0  0  0  0  0  0  0  0  0  0  0  0
   -3.6529   -0.7097   -4.5485 H   0  0  0  0  0  0  0  0  0  0  0  0
    0.4197   -0.9528    1.3661 C   0  0  0  0  0  0  0  0  0  0  0  0
    1.6245   -0.9268    1.5803 O   0  0  0  0  0  0  0  0  0  0  0  0
   -0.4465   -0.4840    2.3377 N   0  0  0  0  0  0  0  0  0  0  0  0
   -1.4363   -0.6008    2.1487 H   0  0  0  0  0  0  0  0  0  0  0  0
   -0.0210   -0.1977    3.7020 C   0  0  0  0  0  0  0  0  0  0  0  0
    0.7675    0.5624    3.7067 H   0  0  0  0  0  0  0  0  0  0  0  0
   -0.8635    0.1778    4.2904 H   0  0  0  0  0  0  0  0  0  0  0  0
    0.3615   -1.1052    4.1810 H   0  0  0  0  0  0  0  0  0  0  0  0
  1  2  1  0  0  0  0
  2  3  1  0  0  0  0
  2  4  1  0  0  0  0
  2  5  1  0  0  0  0
  5  6  2  0  0  0  0
  5  7  1  0  0  0  0
  7  8  1  0  0  0  0
  7  9  1  0  0  0  0
  9 10  1  0  0  0  0
  9 11  1  0  0  0  0
  9 26  1  0  0  0  0
 11 12  1  0  0  0  0
 11 13  1  0  0  0  0
 11 14  1  0  0  0  0
 14 15  1  0  0  0  0
 14 16  1  0  0  0  0
 14 17  1  0  0  0  0
 17 18  1  0  0  0  0
 17 19  1  0  0  0  0
 17 20  1  0  0  0  0
 20 21  1  0  0  0  0
 20 22  1  0  0  0  0
 20 23  1  0  0  0  0
 23 24  1  0  0  0  0
 23 25  1  0  0  0  0
 26 27  2  0  0  0  0
 26 28  1  0  0  0  0
 28 29  1  0  0  0  0
 28 30  1  0  0  0  0
 30 31  1  0  0  0  0
 30 32  1  0  0  0  0
 30 33  1  0  0  0  0
M  END
$$$$

  -OEChem-03222214063D

 33 32  0     1  0  0  0  0  0999 V2000
   -2.9069   -4.8930    0.6000 H   0  0  0  0  0  0  0  0  0  0  0  0
   -2.9217   -3.8923    0.1587 C   0  0  0  0  0  0  0  0  0  0  0  0
   -3.7301   -3.3175    0.6168 H   0  0  0  0  0  0  0  0  0  0  0  0
   -3.1102   -3.9844   -0.9136 H   0  0  0  0  0  0  0  0  0  0  0  0
   -1.5929   -3.1995    0.3946 C   0  0  0  0  0  0  0  0  0  0  0  0
   -0.7250   -3.7570    1.0413 O   0  0  0  0  0  0  0  0  0  0  0  0
   -1.3791   -1.9396   -0.1284 N   0  0  0  0  0  0  0  0  0  0  0  0
   -2.1066   -1.5653   -0.7303 H   0  0  0  0  0  0  0  0  0  0  0  0
   -0.0948   -1.2176   -0.0694 C   0  0  1  0  0  0  0  0  0  0  0  0
    0.6765   -1.8180   -0.5648 H   0  0  0  0  0  0  0  0  0  0  0  0
   -0.2662    0.1145   -0.8193 C   0  0  0  0  0  0  0  0  0  0  0  0
   -1.1713    0.6247   -0.4719 H   0  0  0  0  0  0  0  0  0  0  0  0
    0.5801    0.7672   -0.5761 H   0  0  0  0  0  0  0  0  0  0  0  0
   -0.2881   -0.0824   -2.3475 C   0  0  0  0  0  0  0  0  0  0  0  0
    0.5437    0.4783   -2.7875 H   0  0  0  0  0  0  0  0  0  0  0  0
   -0.1411   -1.1367   -2.6049 H   0  0  0  0  0  0  0  0  0  0  0  0
   -1.6060    0.4108   -2.9563 C   0  0  0  0  0  0  0  0  0  0  0  0
   -2.4411   -0.1581   -2.5362 H   0  0  0  0  0  0  0  0  0  0  0  0
   -1.7554    1.4666   -2.7068 H   0  0  0  0  0  0  0  0  0  0  0  0
   -1.5940    0.2521   -4.4742 C   0  0  0  0  0  0  0  0  0  0  0  0
   -0.7768    0.8416   -4.9053 H   0  0  0  0  0  0  0  0  0  0  0  0
   -1.4343   -0.7979   -4.7436 H   0  0  0  0  0  0  0  0  0  0  0  0
   -2.8791    0.7184   -5.0036 N   0  0  0  0  0  0  0  0  0  0  0  0
   -2.8901    0.6915   -6.0237 H   0  0  0  0  0  0  0  0  0  0  0  0
   -3.6552    0.1820   -4.6172 H   0  0  0  0  0  0  0  0  0  0  0  0
    0.4214   -0.9487    1.3620 C   0  0  0  0  0  0  0  0  0  0  0  0
    1.6263   -0.9287    1.5770 O   0  0  0  0  0  0  0  0  0  0  0  0
   -0.4440   -0.4820    2.3352 N   0  0  0  0  0  0  0  0  0  0  0  0
   -1.4341   -0.5929    2.1447 H   0  0  0  0  0  0  0  0  0  0  0  0
   -0.0188   -0.2008    3.7005 C   0  0  0  0  0  0  0  0  0  0  0  0
    0.7709    0.5580    3.7083 H   0  0  0  0  0  0  0  0  0  0  0  0
   -0.8609    0.1741    4.2897 H   0  0  0  0  0  0  0  0  0  0  0  0
    0.3614   -1.1108    4.1763 H   0  0  0  0  0  0  0  0  0  0  0  0
  1  2  1  0  0  0  0
  2  3  1  0  0  0  0
  2  4  1  0  0  0  0
  2  5  1  0  0  0  0
  5  6  2  0  0  0  0
  5  7  1  0  0  0  0
  7  8  1  0  0  0  0
  7  9  1  0  0  0  0
  9 10  1  0  0  0  0
  9 11  1  0  0  0  0
  9 26  1  0  0  0  0
 11 12  1  0  0  0  0
 11 13  1  0  0  0  0
 11 14  1  0  0  0  0
 14 15  1  0  0  0  0
 14 16  1  0  0  0  0
 14 17  1  0  0  0  0
 17 18  1  0  0  0  0
 17 19  1  0  0  0  0
 17 20  1  0  0  0  0
 20 21  1  0  0  0  0
 20 22  1  0  0  0  0
 20 23  1  0  0  0  0
 23 24  1  0  0  0  0
 23 25  1  0  0  0  0
 26 27  2  0  0  0  0
 26 28  1  0  0  0  0
 28 29  1  0  0  0  0
 28 30  1  0  0  0  0
 30 31  1  0  0  0  0
 30 32  1  0  0  0  0
 30 33  1  0  0  0  0
M  END
$$$$

  -OEChem-03222214063D

 33 32  0     1  0  0  0  0  0999 V2000
   -2.8941   -4.8968    0.6239 H   0  0  0  0  0  0  0  0  0  0  0  0
   -2.9159   -3.8971    0.1804 C   0  0  0  0  0  0  0  0  0  0  0  0
   -3.7179   -3.3217    0.6490 H   0  0  0  0  0  0  0  0  0  0  0  0
   -3.1201   -3.9919   -0.8889 H   0  0  0  0  0  0  0  0  0  0  0  0
   -1.5847   -3.2019    0.3953 C   0  0  0  0  0  0  0  0  0  0  0  0
   -0.7056   -3.7579    1.0279 O   0  0  0  0  0  0  0  0  0  0  0  0
   -1.3824   -1.9399   -0.1276 N   0  0  0  0  0  0  0  0  0  0  0  0
   -2.1220   -1.5630   -0.7126 H   0  0  0  0  0  0  0  0  0  0  0  0
   -0.1015   -1.2102   -0.0762 C   0  0  1  0  0  0  0  0  0  0  0  0
    0.6691   -1.8070   -0.5777 H   0  0  0  0  0  0  0  0  0  0  0  0
   -0.2744    0.1219   -0.8256 C   0  0  0  0  0  0  0  0  0  0  0  0
   -1.1918    0.6108   -0.4810 H   0  0  0  0  0  0  0  0  0  0  0  0
    0.5571    0.7927   -0.5814 H   0  0  0  0  0  0  0  0  0  0  0  0
   -0.2985   -0.0793   -2.3525 C   0  0  0  0  0  0  0  0  0  0  0  0
    0.6689    0.2221   -2.7688 H   0  0  0  0  0  0  0  0  0  0  0  0
   -0.4440   -1.1371   -2.5966 H   0  0  0  0  0  0  0  0  0  0  0  0
   -1.4253    0.7319   -3.0027 C   0  0  0  0  0  0  0  0  0  0  0  0
   -2.3923    0.3983   -2.6130 H   0  0  0  0  0  0  0  0  0  0  0  0
   -1.3060    1.7915   -2.7526 H   0  0  0  0  0  0  0  0  0  0  0  0
   -1.4046    0.5696   -4.5204 C   0  0  0  0  0  0  0  0  0  0  0  0
   -0.4500    0.9274   -4.9222 H   0  0  0  0  0  0  0  0  0  0  0  0
   -1.5111   -0.4873   -4.7887 H   0  0  0  0  0  0  0  0  0  0  0  0
   -2.5086    1.3488   -5.0885 N   0  0  0  0  0  0  0  0  0  0  0  0
   -2.5049    1.3075   -6.1080 H   0  0  0  0  0  0  0  0  0  0  0  0
   -3.4070    1.0442   -4.7149 H   0  0  0  0  0  0  0  0  0  0  0  0
    0.4194   -0.9421    1.3535 C   0  0  0  0  0  0  0  0  0  0  0  0
    1.6247   -0.9179    1.5646 O   0  0  0  0  0  0  0  0  0  0  0  0
   -0.4454   -0.4831    2.3310 N   0  0  0  0  0  0  0  0  0  0  0  0
   -1.4352   -0.6011    2.1435 H   0  0  0  0  0  0  0  0  0  0  0  0
   -0.0183   -0.2109    3.6975 C   0  0  0  0  0  0  0  0  0  0  0  0
    0.7744    0.5446    3.7097 H   0  0  0  0  0  0  0  0  0  0  0  0
   -0.8587    0.1642    4.2892 H   0  0  0  0  0  0  0  0  0  0  0  0
    0.3590   -1.1250    4.1679 H   0  0  0  0  0  0  0  0  0  0  0  0
  1  2  1  0  0  0  0
  2  3  1  0  0  0  0
  2  4  1  0  0  0  0
  2  5  1  0  0  0  0
  5  6  2  0  0  0  0
  5  7  1  0  0  0  0
  7  8  1  0  0  0  0
  7  9  1  0  0  0  0
  9 10  1  0  0  0  0
  9 11  1  0  0  0  0
  9 26  1  0  0  0  0
 11 12  1  0  0  0  0
 11 13  1  0  0  0  0
 11 14  1  0  0  0  0
 14 15  1  0  0  0  0
 14 16  1  0  0  0  0
 14 17  1  0  0  0  0
 17 18  1  0  0  0  0
 17 19  1  0  0  0  0
 17 20  1  0  0  0  0
 20 21  1  0  0  0  0
 20 22  1  0  0  0  0
 20 23  1  0  0  0  0
 23 24  1  0  0  0  0
 23 25  1  0  0  0  0
 26 27  2  0  0  0  0
 26 28  1  0  0  0  0
 28 29  1  0  0  0  0
 28 30  1  0  0  0  0
 30 31  1  0  0  0  0
 30 32  1  0  0  0  0
 30 33  1  0  0  0  0
M  END
$$$$

  -OEChem-03222214063D

 33 32  0     1  0  0  0  0  0999 V2000
   -2.8865   -4.9043    0.6308 H   0  0  0  0  0  0  0  0  0  0  0  0
   -2.9135   -3.9056    0.1853 C   0  0  0  0  0  0  0  0  0  0  0  0
   -3.7174   -3.3328    0.6538 H   0  0  0  0  0  0  0  0  0  0  0  0
   -3.1188   -4.0040   -0.8834 H   0  0  0  0  0  0  0  0  0  0  0  0
   -1.5851   -3.2039    0.3961 C   0  0  0  0  0  0  0  0  0  0  0  0
   -0.7001   -3.7571    1.0229 O   0  0  0  0  0  0  0  0  0  0  0  0
   -1.3908   -1.9405   -0.1266 N   0  0  0  0  0  0  0  0  0  0  0  0
   -2.1356   -1.5655   -0.7062 H   0  0  0  0  0  0  0  0  0  0  0  0
   -0.1117   -1.2066   -0.0822 C   0  0  1  0  0  0  0  0  0  0  0  0
    0.6562   -1.8021   -0.5889 H   0  0  0  0  0  0  0  0  0  0  0  0
   -0.2848    0.1261   -0.8301 C   0  0  0  0  0  0  0  0  0  0  0  0
   -1.2076    0.6076   -0.4891 H   0  0  0  0  0  0  0  0  0  0  0  0
    0.5428    0.8023   -0.5867 H   0  0  0  0  0  0  0  0  0  0  0  0
   -0.3121   -0.0794   -2.3540 C   0  0  0  0  0  0  0  0  0  0  0  0
    0.7123   -0.0498   -2.7405 H   0  0  0  0  0  0  0  0  0  0  0  0
   -0.7279   -1.0627   -2.5967 H   0  0  0  0  0  0  0  0  0  0  0  0
   -1.1714    0.9905   -3.0360 C   0  0  0  0  0  0  0  0  0  0  0  0
   -2.2046    0.9155   -2.6819 H   0  0  0  0  0  0  0  0  0  0  0  0
   -0.7947    1.9852   -2.7746 H   0  0  0  0  0  0  0  0  0  0  0  0
   -1.1404    0.8250   -4.5527 C   0  0  0  0  0  0  0  0  0  0  0  0
   -0.1119    0.9214   -4.9186 H   0  0  0  0  0  0  0  0  0  0  0  0
   -1.5085   -0.1685   -4.8322 H   0  0  0  0  0  0  0  0  0  0  0  0
   -1.9837    1.8635   -5.1522 N   0  0  0  0  0  0  0  0  0  0  0  0
   -1.9630    1.8156   -6.1712 H   0  0  0  0  0  0  0  0  0  0  0  0
   -2.9405    1.8093   -4.8041 H   0  0  0  0  0  0  0  0  0  0  0  0
    0.4172   -0.9388    1.3445 C   0  0  0  0  0  0  0  0  0  0  0  0
    1.6237   -0.9072    1.5477 O   0  0  0  0  0  0  0  0  0  0  0  0
   -0.4440   -0.4839    2.3272 N   0  0  0  0  0  0  0  0  0  0  0  0
   -1.4343   -0.6082    2.1462 H   0  0  0  0  0  0  0  0  0  0  0  0
   -0.0094   -0.2070    3.6904 C   0  0  0  0  0  0  0  0  0  0  0  0
    0.7774    0.5547    3.6961 H   0  0  0  0  0  0  0  0  0  0  0  0
   -0.8487    0.1620    4.2872 H   0  0  0  0  0  0  0  0  0  0  0  0
    0.3783   -1.1175    4.1596 H   0  0  0  0  0  0  0  0  0  0  0  0
  1  2  1  0  0  0  0
  2  3  1  0  0  0  0
  2  4  1  0  0  0  0
  2  5  1  0  0  0  0
  5  6  2  0  0  0  0
  5  7  1  0  0  0  0
  7  8  1  0  0  0  0
  7  9  1  0  0  0  0
  9 10  1  0  0  0  0
  9 11  1  0  0  0  0
  9 26  1  0  0  0  0
 11 12  1  0  0  0  0
 11 13  1  0  0  0  0
 11 14  1  0  0  0  0
 14 15  1  0  0  0  0
 14 16  1  0  0  0  0
 14 17  1  0  0  0  0
 17 18  1  0  0  0  0
 17 19  1  0  0  0  0
 17 20  1  0  0  0  0
 20 21  1  0  0  0  0
 20 22  1  0  0  0  0
 20 23  1  0  0  0  0
 23 24  1  0  0  0  0
 23 25  1  0  0  0  0
 26 27  2  0  0  0  0
 26 28  1  0  0  0  0
 28 29  1  0  0  0  0
 28 30  1  0  0  0  0
 30 31  1  0  0  0  0
 30 32  1  0  0  0  0
 30 33  1  0  0  0  0
M  END
$$$$

  -OEChem-03222214063D

 33 32  0     1  0  0  0  0  0999 V2000
   -2.8782   -4.9061    0.6303 H   0  0  0  0  0  0  0  0  0  0  0  0
   -2.9114   -3.9063    0.1877 C   0  0  0  0  0  0  0  0  0  0  0  0
   -3.7112   -3.3366    0.6666 H   0  0  0  0  0  0  0  0  0  0  0  0
   -3.1279   -4.0023   -0.8789 H   0  0  0  0  0  0  0  0  0  0  0  0
   -1.5815   -3.2037    0.3870 C   0  0  0  0  0  0  0  0  0  0  0  0
   -0.6924   -3.7567    1.0081 O   0  0  0  0  0  0  0  0  0  0  0  0
   -1.3913   -1.9386   -0.1340 N   0  0  0  0  0  0  0  0  0  0  0  0
   -2.1406   -1.5615   -0.7062 H   0  0  0  0  0  0  0  0  0  0  0  0
   -0.1138   -1.2013   -0.0889 C   0  0  1  0  0  0  0  0  0  0  0  0
    0.6551   -1.7952   -0.5963 H   0  0  0  0  0  0  0  0  0  0  0  0
   -0.2879    0.1332   -0.8348 C   0  0  0  0  0  0  0  0  0  0  0  0
   -1.2106    0.6177   -0.4986 H   0  0  0  0  0  0  0  0  0  0  0  0
    0.5429    0.8047   -0.5894 H   0  0  0  0  0  0  0  0  0  0  0  0
   -0.3138   -0.0706   -2.3572 C   0  0  0  0  0  0  0  0  0  0  0  0
    0.6985   -0.2978   -2.7092 H   0  0  0  0  0  0  0  0  0  0  0  0
   -0.9550   -0.9204   -2.6121 H   0  0  0  0  0  0  0  0  0  0  0  0
   -0.8487    1.1806   -3.0629 C   0  0  0  0  0  0  0  0  0  0  0  0
   -1.8723    1.3823   -2.7312 H   0  0  0  0  0  0  0  0  0  0  0  0
   -0.2308    2.0451   -2.7973 H   0  0  0  0  0  0  0  0  0  0  0  0
   -0.8314    0.9973   -4.5781 C   0  0  0  0  0  0  0  0  0  0  0  0
    0.1937    0.8165   -4.9207 H   0  0  0  0  0  0  0  0  0  0  0  0
   -1.4417    0.1322   -4.8601 H   0  0  0  0  0  0  0  0  0  0  0  0
   -1.3602    2.2127   -5.2047 N   0  0  0  0  0  0  0  0  0  0  0  0
   -1.3382    2.1450   -6.2225 H   0  0  0  0  0  0  0  0  0  0  0  0
   -2.3019    2.4205   -4.8732 H   0  0  0  0  0  0  0  0  0  0  0  0
    0.4145   -0.9350    1.3390 C   0  0  0  0  0  0  0  0  0  0  0  0
    1.6209   -0.9068    1.5434 O   0  0  0  0  0  0  0  0  0  0  0  0
   -0.4463   -0.4841    2.3240 N   0  0  0  0  0  0  0  0  0  0  0  0
   -1.4370   -0.6016    2.1416 H   0  0  0  0  0  0  0  0  0  0  0  0
   -0.0113   -0.2126    3.6881 C   0  0  0  0  0  0  0  0  0  0  0  0
    0.7805    0.5439    3.6951 H   0  0  0  0  0  0  0  0  0  0  0  0
   -0.8484    0.1612    4.2850 H   0  0  0  0  0  0  0  0  0  0  0  0
    0.3695   -1.1265    4.1558 H   0  0  0  0  0  0  0  0  0  0  0  0
  1  2  1  0  0  0  0
  2  3  1  0  0  0  0
  2  4  1  0  0  0  0
  2  5  1  0  0  0  0
  5  6  2  0  0  0  0
  5  7  1  0  0  0  0
  7  8  1  0  0  0  0
  7  9  1  0  0  0  0
  9 10  1  0  0  0  0
  9 11  1  0  0  0  0
  9 26  1  0  0  0  0
 11 12  1  0  0  0  0
 11 13  1  0  0  0  0
 11 14  1  0  0  0  0
 14 15  1  0  0  0  0
 14 16  1  0  0  0  0
 14 17  1  0  0  0  0
 17 18  1  0  0  0  0
 17 19  1  0  0  0  0
 17 20  1  0  0  0  0
 20 21  1  0  0  0  0
 20 22  1  0  0  0  0
 20 23  1  0  0  0  0
 23 24  1  0  0  0  0
 23 25  1  0  0  0  0
 26 27  2  0  0  0  0
 26 28  1  0  0  0  0
 28 29  1  0  0  0  0
 28 30  1  0  0  0  0
 30 31  1  0  0  0  0
 30 32  1  0  0  0  0
 30 33  1  0  0  0  0
M  END
$$$$

  -OEChem-03222214063D

 33 32  0     1  0  0  0  0  0999 V2000
   -2.8529   -4.9419    0.6664 H   0  0  0  0  0  0  0  0  0  0  0  0
   -2.9022   -3.9441    0.2212 C   0  0  0  0  0  0  0  0  0  0  0  0
   -3.7045   -3.3826    0.7058 H   0  0  0  0  0  0  0  0  0  0  0  0
   -3.1274   -4.0463   -0.8430 H   0  0  0  0  0  0  0  0  0  0  0  0
   -1.5790   -3.2252    0.4058 C   0  0  0  0  0  0  0  0  0  0  0  0
   -0.6775   -3.7653    1.0203 O   0  0  0  0  0  0  0  0  0  0  0  0
   -1.4099   -1.9589   -0.1195 N   0  0  0  0  0  0  0  0  0  0  0  0
   -2.1710   -1.5898   -0.6806 H   0  0  0  0  0  0  0  0  0  0  0  0
   -0.1411   -1.2066   -0.0880 C   0  0  1  0  0  0  0  0  0  0  0  0
    0.6218   -1.8031   -0.6006 H   0  0  0  0  0  0  0  0  0  0  0  0
   -0.3065    0.1229   -0.8453 C   0  0  0  0  0  0  0  0  0  0  0  0
   -1.0694    0.7315   -0.3480 H   0  0  0  0  0  0  0  0  0  0  0  0
    0.6386    0.6759   -0.7997 H   0  0  0  0  0  0  0  0  0  0  0  0
   -0.6924   -0.0822   -2.3185 C   0  0  0  0  0  0  0  0  0  0  0  0
    0.0837   -0.6729   -2.8172 H   0  0  0  0  0  0  0  0  0  0  0  0
   -1.6356   -0.6317   -2.3928 H   0  0  0  0  0  0  0  0  0  0  0  0
   -0.8437    1.2695   -3.0246 C   0  0  0  0  0  0  0  0  0  0  0  0
   -1.6292    1.8547   -2.5359 H   0  0  0  0  0  0  0  0  0  0  0  0
    0.0932    1.8316   -2.9483 H   0  0  0  0  0  0  0  0  0  0  0  0
   -1.1937    1.0771   -4.4973 C   0  0  0  0  0  0  0  0  0  0  0  0
   -0.4069    0.5009   -4.9969 H   0  0  0  0  0  0  0  0  0  0  0  0
   -2.1341    0.5227   -4.5921 H   0  0  0  0  0  0  0  0  0  0  0  0
   -1.3197    2.3959   -5.1244 N   0  0  0  0  0  0  0  0  0  0  0  0
   -1.5330    2.3158   -6.1189 H   0  0  0  0  0  0  0  0  0  0  0  0
   -2.0155    2.9682   -4.6463 H   0  0  0  0  0  0  0  0  0  0  0  0
    0.4024   -0.9286    1.3312 C   0  0  0  0  0  0  0  0  0  0  0  0
    1.6107   -0.8861    1.5211 O   0  0  0  0  0  0  0  0  0  0  0  0
   -0.4521   -0.4843    2.3246 N   0  0  0  0  0  0  0  0  0  0  0  0
   -1.4435   -0.6136    2.1537 H   0  0  0  0  0  0  0  0  0  0  0  0
   -0.0041   -0.2020    3.6825 C   0  0  0  0  0  0  0  0  0  0  0  0
    0.7779    0.5647    3.6781 H   0  0  0  0  0  0  0  0  0  0  0  0
   -0.8389    0.1627    4.2880 H   0  0  0  0  0  0  0  0  0  0  0  0
    0.3945   -1.1091    4.1488 H   0  0  0  0  0  0  0  0  0  0  0  0
  1  2  1  0  0  0  0
  2  3  1  0  0  0  0
  2  4  1  0  0  0  0
  2  5  1  0  0  0  0
  5  6  2  0  0  0  0
  5  7  1  0  0  0  0
  7  8  1  0  0  0  0
  7  9  1  0  0  0  0
  9 10  1  0  0  0  0
  9 11  1  0  0  0  0
  9 26  1  0  0  0  0
 11 12  1  0  0  0  0
 11 13  1  0  0  0  0
 11 14  1  0  0  0  0
 14 15  1  0  0  0  0
 14 16  1  0  0  0  0
 14 17  1  0  0  0  0
 17 18  1  0  0  0  0
 17 19  1  0  0  0  0
 17 20  1  0  0  0  0
 20 21  1  0  0  0  0
 20 22  1  0  0  0  0
 20 23  1  0  0  0  0
 23 24  1  0  0  0  0
 23 25  1  0  0  0  0
 26 27  2  0  0  0  0
 26 28  1  0  0  0  0
 28 29  1  0  0  0  0
 28 30  1  0  0  0  0
 30 31  1  0  0  0  0
 30 32  1  0  0  0  0
 30 33  1  0  0  0  0
M  END
$$$$

  -OEChem-03222214063D

 33 32  0     1  0  0  0  0  0999 V2000
   -2.8622   -4.9270    0.6470 H   0  0  0  0  0  0  0  0  0  0  0  0
   -2.9075   -3.9285    0.2029 C   0  0  0  0  0  0  0  0  0  0  0  0
   -3.7112   -3.3662    0.6841 H   0  0  0  0  0  0  0  0  0  0  0  0
   -3.1269   -4.0284   -0.8626 H   0  0  0  0  0  0  0  0  0  0  0  0
   -1.5840   -3.2127    0.3961 C   0  0  0  0  0  0  0  0  0  0  0  0
   -0.6895   -3.7536    1.0201 O   0  0  0  0  0  0  0  0  0  0  0  0
   -1.4077   -1.9465   -0.1271 N   0  0  0  0  0  0  0  0  0  0  0  0
   -2.1589   -1.5811   -0.7039 H   0  0  0  0  0  0  0  0  0  0  0  0
   -0.1354   -1.2004   -0.0901 C   0  0  1  0  0  0  0  0  0  0  0  0
    0.6273   -1.7984   -0.6018 H   0  0  0  0  0  0  0  0  0  0  0  0
   -0.3012    0.1304   -0.8438 C   0  0  0  0  0  0  0  0  0  0  0  0
   -1.0551    0.7517   -0.3493 H   0  0  0  0  0  0  0  0  0  0  0  0
    0.6523    0.6690   -0.7981 H   0  0  0  0  0  0  0  0  0  0  0  0
   -0.6885   -0.0770   -2.3164 C   0  0  0  0  0  0  0  0  0  0  0  0
   -0.0616   -0.8635   -2.7508 H   0  0  0  0  0  0  0  0  0  0  0  0
   -1.7325   -0.3975   -2.3881 H   0  0  0  0  0  0  0  0  0  0  0  0
   -0.4849    1.2161   -3.1141 C   0  0  0  0  0  0  0  0  0  0  0  0
   -1.1002    2.0129   -2.6840 H   0  0  0  0  0  0  0  0  0  0  0  0
    0.5634    1.5274   -3.0516 H   0  0  0  0  0  0  0  0  0  0  0  0
   -0.8607    1.0181   -4.5796 C   0  0  0  0  0  0  0  0  0  0  0  0
   -0.2420    0.2293   -5.0216 H   0  0  0  0  0  0  0  0  0  0  0  0
   -1.9101    0.7144   -4.6618 H   0  0  0  0  0  0  0  0  0  0  0  0
   -0.6434    2.2805   -5.2918 N   0  0  0  0  0  0  0  0  0  0  0  0
   -0.8706    2.1923   -6.2824 H   0  0  0  0  0  0  0  0  0  0  0  0
   -1.1693    3.0418   -4.8627 H   0  0  0  0  0  0  0  0  0  0  0  0
    0.4054   -0.9268    1.3309 C   0  0  0  0  0  0  0  0  0  0  0  0
    1.6133   -0.8872    1.5231 O   0  0  0  0  0  0  0  0  0  0  0  0
   -0.4493   -0.4796    2.3229 N   0  0  0  0  0  0  0  0  0  0  0  0
   -1.4402   -0.6135    2.1528 H   0  0  0  0  0  0  0  0  0  0  0  0
   -0.0021   -0.2059    3.6827 C   0  0  0  0  0  0  0  0  0  0  0  0
    0.7852    0.5553    3.6821 H   0  0  0  0  0  0  0  0  0  0  0  0
   -0.8355    0.1621    4.2884 H   0  0  0  0  0  0  0  0  0  0  0  0
    0.3896   -1.1177    4.1458 H   0  0  0  0  0  0  0  0  0  0  0  0
  1  2  1  0  0  0  0
  2  3  1  0  0  0  0
  2  4  1  0  0  0  0
  2  5  1  0  0  0  0
  5  6  2  0  0  0  0
  5  7  1  0  0  0  0
  7  8  1  0  0  0  0
  7  9  1  0  0  0  0
  9 10  1  0  0  0  0
  9 11  1  0  0  0  0
  9 26  1  0  0  0  0
 11 12  1  0  0  0  0
 11 13  1  0  0  0  0
 11 14  1  0  0  0  0
 14 15  1  0  0  0  0
 14 16  1  0  0  0  0
 14 17  1  0  0  0  0
 17 18  1  0  0  0  0
 17 19  1  0  0  0  0
 17 20  1  0  0  0  0
 20 21  1  0  0  0  0
 20 22  1  0  0  0  0
 20 23  1  0  0  0  0
 23 24  1  0  0  0  0
 23 25  1  0  0  0  0
 26 27  2  0  0  0  0
 26 28  1  0  0  0  0
 28 29  1  0  0  0  0
 28 30  1  0  0  0  0
 30 31  1  0  0  0  0
 30 32  1  0  0  0  0
 30 33  1  0  0  0  0
M  END
$$$$

  -OEChem-03222214063D

 33 32  0     1  0  0  0  0  0999 V2000
   -2.8788   -4.9169    0.6242 H   0  0  0  0  0  0  0  0  0  0  0  0
   -2.9126   -3.9199    0.1753 C   0  0  0  0  0  0  0  0  0  0  0  0
   -3.7239   -3.3534    0.6384 H   0  0  0  0  0  0  0  0  0  0  0  0
   -3.1121   -4.0237   -0.8939 H   0  0  0  0  0  0  0  0  0  0  0  0
   -1.5910   -3.2062    0.3903 C   0  0  0  0  0  0  0  0  0  0  0  0
   -0.7044   -3.7522    1.0210 O   0  0  0  0  0  0  0  0  0  0  0  0
   -1.4048   -1.9402   -0.1298 N   0  0  0  0  0  0  0  0  0  0  0  0
   -2.1518   -1.5694   -0.7085 H   0  0  0  0  0  0  0  0  0  0  0  0
   -0.1276   -1.2025   -0.0893 C   0  0  1  0  0  0  0  0  0  0  0  0
    0.6339   -1.8010   -0.6027 H   0  0  0  0  0  0  0  0  0  0  0  0
   -0.2941    0.1310   -0.8375 C   0  0  0  0  0  0  0  0  0  0  0  0
   -1.0388    0.7605   -0.3399 H   0  0  0  0  0  0  0  0  0  0  0  0
    0.6646    0.6600   -0.7899 H   0  0  0  0  0  0  0  0  0  0  0  0
   -0.6873   -0.0719   -2.3114 C   0  0  0  0  0  0  0  0  0  0  0  0
   -0.2625   -1.0120   -2.6800 H   0  0  0  0  0  0  0  0  0  0  0  0
   -1.7766   -0.1386   -2.3976 H   0  0  0  0  0  0  0  0  0  0  0  0
   -0.1534    1.0710   -3.1830 C   0  0  0  0  0  0  0  0  0  0  0  0
   -0.5515    2.0244   -2.8204 H   0  0  0  0  0  0  0  0  0  0  0  0
    0.9388    1.1113   -3.1114 H   0  0  0  0  0  0  0  0  0  0  0  0
   -0.5511    0.8767   -4.6433 C   0  0  0  0  0  0  0  0  0  0  0  0
   -0.1537   -0.0735   -5.0173 H   0  0  0  0  0  0  0  0  0  0  0  0
   -1.6425    0.8500   -4.7360 H   0  0  0  0  0  0  0  0  0  0  0  0
   -0.0047    1.9884   -5.4268 N   0  0  0  0  0  0  0  0  0  0  0  0
   -0.2375    1.8966   -6.4157 H   0  0  0  0  0  0  0  0  0  0  0  0
   -0.3173    2.8873   -5.0600 H   0  0  0  0  0  0  0  0  0  0  0  0
    0.4133   -0.9346    1.3329 C   0  0  0  0  0  0  0  0  0  0  0  0
    1.6212   -0.8955    1.5258 O   0  0  0  0  0  0  0  0  0  0  0  0
   -0.4412   -0.4834    2.3232 N   0  0  0  0  0  0  0  0  0  0  0  0
   -1.4324   -0.6147    2.1526 H   0  0  0  0  0  0  0  0  0  0  0  0
    0.0057   -0.1967    3.6805 C   0  0  0  0  0  0  0  0  0  0  0  0
    0.7864    0.5713    3.6736 H   0  0  0  0  0  0  0  0  0  0  0  0
   -0.8299    0.1687    4.2848 H   0  0  0  0  0  0  0  0  0  0  0  0
    0.4061   -1.1016    4.1498 H   0  0  0  0  0  0  0  0  0  0  0  0
  1  2  1  0  0  0  0
  2  3  1  0  0  0  0
  2  4  1  0  0  0  0
  2  5  1  0  0  0  0
  5  6  2  0  0  0  0
  5  7  1  0  0  0  0
  7  8  1  0  0  0  0
  7  9  1  0  0  0  0
  9 10  1  0  0  0  0
  9 11  1  0  0  0  0
  9 26  1  0  0  0  0
 11 12  1  0  0  0  0
 11 13  1  0  0  0  0
 11 14  1  0  0  0  0
 14 15  1  0  0  0  0
 14 16  1  0  0  0  0
 14 17  1  0  0  0  0
 17 18  1  0  0  0  0
 17 19  1  0  0  0  0
 17 20  1  0  0  0  0
 20 21  1  0  0  0  0
 20 22  1  0  0  0  0
 20 23  1  0  0  0  0
 23 24  1  0  0  0  0
 23 25  1  0  0  0  0
 26 27  2  0  0  0  0
 26 28  1  0  0  0  0
 28 29  1  0  0  0  0
 28 30  1  0  0  0  0
 30 31  1  0  0  0  0
 30 32  1  0  0  0  0
 30 33  1  0  0  0  0
M  END
$$$$

  -OEChem-03222214063D

 33 32  0     1  0  0  0  0  0999 V2000
   -2.8850   -4.9147    0.6204 H   0  0  0  0  0  0  0  0  0  0  0  0
   -2.9165   -3.9185    0.1695 C   0  0  0  0  0  0  0  0  0  0  0  0
   -3.7297   -3.3508    0.6280 H   0  0  0  0  0  0  0  0  0  0  0  0
   -3.1113   -4.0242   -0.9004 H   0  0  0  0  0  0  0  0  0  0  0  0
   -1.5956   -3.2052    0.3896 C   0  0  0  0  0  0  0  0  0  0  0  0
   -0.7123   -3.7504    1.0256 O   0  0  0  0  0  0  0  0  0  0  0  0
   -1.4076   -1.9391   -0.1296 N   0  0  0  0  0  0  0  0  0  0  0  0
   -2.1497   -1.5723   -0.7172 H   0  0  0  0  0  0  0  0  0  0  0  0
   -0.1283   -1.2046   -0.0906 C   0  0  1  0  0  0  0  0  0  0  0  0
    0.6306   -1.8036   -0.6073 H   0  0  0  0  0  0  0  0  0  0  0  0
   -0.2931    0.1303   -0.8372 C   0  0  0  0  0  0  0  0  0  0  0  0
   -1.0406    0.7541   -0.3363 H   0  0  0  0  0  0  0  0  0  0  0  0
    0.6622    0.6646   -0.7813 H   0  0  0  0  0  0  0  0  0  0  0  0
   -0.6900   -0.0631   -2.3140 C   0  0  0  0  0  0  0  0  0  0  0  0
   -0.5144   -1.1011   -2.6175 H   0  0  0  0  0  0  0  0  0  0  0  0
   -1.7584    0.1435   -2.4355 H   0  0  0  0  0  0  0  0  0  0  0  0
    0.1335    0.8485   -3.2319 C   0  0  0  0  0  0  0  0  0  0  0  0
   -0.0164    1.8934   -2.9412 H   0  0  0  0  0  0  0  0  0  0  0  0
    1.1981    0.6156   -3.1216 H   0  0  0  0  0  0  0  0  0  0  0  0
   -0.2706    0.6642   -4.6919 C   0  0  0  0  0  0  0  0  0  0  0  0
   -0.1253   -0.3793   -4.9927 H   0  0  0  0  0  0  0  0  0  0  0  0
   -1.3293    0.9129   -4.8231 H   0  0  0  0  0  0  0  0  0  0  0  0
    0.5602    1.5414   -5.5211 N   0  0  0  0  0  0  0  0  0  0  0  0
    0.3269    1.4494   -6.5098 H   0  0  0  0  0  0  0  0  0  0  0  0
    0.4887    2.5125   -5.2177 H   0  0  0  0  0  0  0  0  0  0  0  0
    0.4173   -0.9389    1.3301 C   0  0  0  0  0  0  0  0  0  0  0  0
    1.6258   -0.8987    1.5191 O   0  0  0  0  0  0  0  0  0  0  0  0
   -0.4341   -0.4863    2.3221 N   0  0  0  0  0  0  0  0  0  0  0  0
   -1.4256   -0.6202    2.1552 H   0  0  0  0  0  0  0  0  0  0  0  0
    0.0164   -0.1947    3.6770 C   0  0  0  0  0  0  0  0  0  0  0  0
    0.7950    0.5754    3.6653 H   0  0  0  0  0  0  0  0  0  0  0  0
   -0.8183    0.1701    4.2829 H   0  0  0  0  0  0  0  0  0  0  0  0
    0.4207   -1.0973    4.1474 H   0  0  0  0  0  0  0  0  0  0  0  0
  1  2  1  0  0  0  0
  2  3  1  0  0  0  0
  2  4  1  0  0  0  0
  2  5  1  0  0  0  0
  5  6  2  0  0  0  0
  5  7  1  0  0  0  0
  7  8  1  0  0  0  0
  7  9  1  0  0  0  0
  9 10  1  0  0  0  0
  9 11  1  0  0  0  0
  9 26  1  0  0  0  0
 11 12  1  0  0  0  0
 11 13  1  0  0  0  0
 11 14  1  0  0  0  0
 14 15  1  0  0  0  0
 14 16  1  0  0  0  0
 14 17  1  0  0  0  0
 17 18  1  0  0  0  0
 17 19  1  0  0  0  0
 17 20  1  0  0  0  0
 20 21  1  0  0  0  0
 20 22  1  0  0  0  0
 20 23  1  0  0  0  0
 23 24  1  0  0  0  0
 23 25  1  0  0  0  0
 26 27  2  0  0  0  0
 26 28  1  0  0  0  0
 28 29  1  0  0  0  0
 28 30  1  0  0  0  0
 30 31  1  0  0  0  0
 30 32  1  0  0  0  0
 30 33  1  0  0  0  0
M  END
$$$$

  -OEChem-03222214063D

 33 32  0     1  0  0  0  0  0999 V2000
   -2.8872   -4.9127    0.6364 H   0  0  0  0  0  0  0  0  0  0  0  0
   -2.9192   -3.9175    0.1834 C   0  0  0  0  0  0  0  0  0  0  0  0
   -3.7267   -3.3461    0.6472 H   0  0  0  0  0  0  0  0  0  0  0  0
   -3.1231   -4.0250   -0.8846 H   0  0  0  0  0  0  0  0  0  0  0  0
   -1.5947   -3.2068    0.3901 C   0  0  0  0  0  0  0  0  0  0  0  0
   -0.7064   -3.7527    1.0185 O   0  0  0  0  0  0  0  0  0  0  0  0
   -1.4106   -1.9404   -0.1298 N   0  0  0  0  0  0  0  0  0  0  0  0
   -2.1593   -1.5701   -0.7071 H   0  0  0  0  0  0  0  0  0  0  0  0
   -0.1313   -1.2044   -0.0969 C   0  0  1  0  0  0  0  0  0  0  0  0
    0.6249   -1.8039   -0.6168 H   0  0  0  0  0  0  0  0  0  0  0  0
   -0.2914    0.1318   -0.8432 C   0  0  0  0  0  0  0  0  0  0  0  0
   -1.0492    0.7403   -0.3392 H   0  0  0  0  0  0  0  0  0  0  0  0
    0.6545    0.6817   -0.7773 H   0  0  0  0  0  0  0  0  0  0  0  0
   -0.6907   -0.0494   -2.3225 C   0  0  0  0  0  0  0  0  0  0  0  0
   -0.8006   -1.1113   -2.5660 H   0  0  0  0  0  0  0  0  0  0  0  0
   -1.6589    0.4319   -2.4950 H   0  0  0  0  0  0  0  0  0  0  0  0
    0.3595    0.5614   -3.2583 C   0  0  0  0  0  0  0  0  0  0  0  0
    0.4724    1.6281   -3.0388 H   0  0  0  0  0  0  0  0  0  0  0  0
    1.3269    0.0768   -3.0886 H   0  0  0  0  0  0  0  0  0  0  0  0
   -0.0421    0.3847   -4.7198 C   0  0  0  0  0  0  0  0  0  0  0  0
   -0.1592   -0.6800   -4.9509 H   0  0  0  0  0  0  0  0  0  0  0  0
   -1.0000    0.8822   -4.9083 H   0  0  0  0  0  0  0  0  0  0  0  0
    1.0041    0.9657   -5.5658 N   0  0  0  0  0  0  0  0  0  0  0  0
    0.7755    0.8748   -6.5557 H   0  0  0  0  0  0  0  0  0  0  0  0
    1.1793    1.9399   -5.3192 H   0  0  0  0  0  0  0  0  0  0  0  0
    0.4181   -0.9401    1.3226 C   0  0  0  0  0  0  0  0  0  0  0  0
    1.6269   -0.8983    1.5089 O   0  0  0  0  0  0  0  0  0  0  0  0
   -0.4314   -0.4896    2.3173 N   0  0  0  0  0  0  0  0  0  0  0  0
   -1.4230   -0.6256    2.1526 H   0  0  0  0  0  0  0  0  0  0  0  0
    0.0220   -0.2070    3.6733 C   0  0  0  0  0  0  0  0  0  0  0  0
    0.8043    0.5594    3.6649 H   0  0  0  0  0  0  0  0  0  0  0  0
   -0.8102    0.1588    4.2820 H   0  0  0  0  0  0  0  0  0  0  0  0
    0.4221   -1.1140    4.1388 H   0  0  0  0  0  0  0  0  0  0  0  0
  1  2  1  0  0  0  0
  2  3  1  0  0  0  0
  2  4  1  0  0  0  0
  2  5  1  0  0  0  0
  5  6  2  0  0  0  0
  5  7  1  0  0  0  0
  7  8  1  0  0  0  0
  7  9  1  0  0  0  0
  9 10  1  0  0  0  0
  9 11  1  0  0  0  0
  9 26  1  0  0  0  0
 11 12  1  0  0  0  0
 11 13  1  0  0  0  0
 11 14  1  0  0  0  0
 14 15  1  0  0  0  0
 14 16  1  0  0  0  0
 14 17  1  0  0  0  0
 17 18  1  0  0  0  0
 17 19  1  0  0  0  0
 17 20  1  0  0  0  0
 20 21  1  0  0  0  0
 20 22  1  0  0  0  0
 20 23  1  0  0  0  0
 23 24  1  0  0  0  0
 23 25  1  0  0  0  0
 26 27  2  0  0  0  0
 26 28  1  0  0  0  0
 28 29  1  0  0  0  0
 28 30  1  0  0  0  0
 30 31  1  0  0  0  0
 30 32  1  0  0  0  0
 30 33  1  0  0  0  0
M  END
$$$$

  -OEChem-03222214063D

 33 32  0     1  0  0  0  0  0999 V2000
   -2.8881   -4.9188    0.6365 H   0  0  0  0  0  0  0  0  0  0  0  0
   -2.9225   -3.9245    0.1819 C   0  0  0  0  0  0  0  0  0  0  0  0
   -3.7338   -3.3556    0.6420 H   0  0  0  0  0  0  0  0  0  0  0  0
   -3.1222   -4.0346   -0.8867 H   0  0  0  0  0  0  0  0  0  0  0  0
   -1.6013   -3.2091    0.3925 C   0  0  0  0  0  0  0  0  0  0  0  0
   -0.7126   -3.7529    1.0223 O   0  0  0  0  0  0  0  0  0  0  0  0
   -1.4203   -1.9421   -0.1270 N   0  0  0  0  0  0  0  0  0  0  0  0
   -2.1711   -1.5728   -0.7020 H   0  0  0  0  0  0  0  0  0  0  0  0
   -0.1407   -1.2061   -0.1009 C   0  0  1  0  0  0  0  0  0  0  0  0
    0.6106   -1.8086   -0.6242 H   0  0  0  0  0  0  0  0  0  0  0  0
   -0.2911    0.1325   -0.8465 C   0  0  0  0  0  0  0  0  0  0  0  0
   -1.0586    0.7269   -0.3401 H   0  0  0  0  0  0  0  0  0  0  0  0
    0.6467    0.6949   -0.7730 H   0  0  0  0  0  0  0  0  0  0  0  0
   -0.6918   -0.0337   -2.3266 C   0  0  0  0  0  0  0  0  0  0  0  0
   -1.0928   -1.0335   -2.5199 H   0  0  0  0  0  0  0  0  0  0  0  0
   -1.4805    0.6890   -2.5613 H   0  0  0  0  0  0  0  0  0  0  0  0
    0.5039    0.2248   -3.2512 C   0  0  0  0  0  0  0  0  0  0  0  0
    0.8848    1.2384   -3.0894 H   0  0  0  0  0  0  0  0  0  0  0  0
    1.3077   -0.4804   -3.0142 H   0  0  0  0  0  0  0  0  0  0  0  0
    0.1066    0.0625   -4.7154 C   0  0  0  0  0  0  0  0  0  0  0  0
   -0.2850   -0.9458   -4.8896 H   0  0  0  0  0  0  0  0  0  0  0  0
   -0.6782    0.7822   -4.9734 H   0  0  0  0  0  0  0  0  0  0  0  0
    1.2911    0.2871   -5.5481 N   0  0  0  0  0  0  0  0  0  0  0  0
    1.0702    0.2033   -6.5404 H   0  0  0  0  0  0  0  0  0  0  0  0
    1.7188    1.1904   -5.3438 H   0  0  0  0  0  0  0  0  0  0  0  0
    0.4179   -0.9431    1.3151 C   0  0  0  0  0  0  0  0  0  0  0  0
    1.6280   -0.8982    1.4930 O   0  0  0  0  0  0  0  0  0  0  0  0
   -0.4255   -0.4934    2.3153 N   0  0  0  0  0  0  0  0  0  0  0  0
   -1.4177   -0.6335    2.1581 H   0  0  0  0  0  0  0  0  0  0  0  0
    0.0369   -0.2089    3.6675 C   0  0  0  0  0  0  0  0  0  0  0  0
    0.8144    0.5624    3.6530 H   0  0  0  0  0  0  0  0  0  0  0  0
   -0.7927    0.1510    4.2831 H   0  0  0  0  0  0  0  0  0  0  0  0
    0.4462   -1.1140    4.1286 H   0  0  0  0  0  0  0  0  0  0  0  0
  1  2  1  0  0  0  0
  2  3  1  0  0  0  0
  2  4  1  0  0  0  0
  2  5  1  0  0  0  0
  5  6  2  0  0  0  0
  5  7  1  0  0  0  0
  7  8  1  0  0  0  0
  7  9  1  0  0  0  0
  9 10  1  0  0  0  0
  9 11  1  0  0  0  0
  9 26  1  0  0  0  0
 11 12  1  0  0  0  0
 11 13  1  0  0  0  0
 11 14  1  0  0  0  0
 14 15  1  0  0  0  0
 14 16  1  0  0  0  0
 14 17  1  0  0  0  0
 17 18  1  0  0  0  0
 17 19  1  0  0  0  0
 17 20  1  0  0  0  0
 20 21  1  0  0  0  0
 20 22  1  0  0  0  0
 20 23  1  0  0  0  0
 23 24  1  0  0  0  0
 23 25  1  0  0  0  0
 26 27  2  0  0  0  0
 26 28  1  0  0  0  0
 28 29  1  0  0  0  0
 28 30  1  0  0  0  0
 30 31  1  0  0  0  0
 30 32  1  0  0  0  0
 30 33  1  0  0  0  0
M  END
$$$$

  -OEChem-03222214063D

 33 32  0     1  0  0  0  0  0999 V2000
   -2.8899   -4.9192    0.6283 H   0  0  0  0  0  0  0  0  0  0  0  0
   -2.9224   -3.9243    0.1752 C   0  0  0  0  0  0  0  0  0  0  0  0
   -3.7374   -3.3569    0.6306 H   0  0  0  0  0  0  0  0  0  0  0  0
   -3.1142   -4.0328   -0.8949 H   0  0  0  0  0  0  0  0  0  0  0  0
   -1.6037   -3.2075    0.3963 C   0  0  0  0  0  0  0  0  0  0  0  0
   -0.7215   -3.7469    1.0389 O   0  0  0  0  0  0  0  0  0  0  0  0
   -1.4202   -1.9416   -0.1244 N   0  0  0  0  0  0  0  0  0  0  0  0
   -2.1630   -1.5816   -0.7151 H   0  0  0  0  0  0  0  0  0  0  0  0
   -0.1397   -1.2080   -0.0996 C   0  0  1  0  0  0  0  0  0  0  0  0
    0.6103   -1.8144   -0.6199 H   0  0  0  0  0  0  0  0  0  0  0  0
   -0.2829    0.1312   -0.8473 C   0  0  0  0  0  0  0  0  0  0  0  0
   -1.0518    0.7253   -0.3426 H   0  0  0  0  0  0  0  0  0  0  0  0
    0.6546    0.6943   -0.7762 H   0  0  0  0  0  0  0  0  0  0  0  0
   -0.6817   -0.0298   -2.3267 C   0  0  0  0  0  0  0  0  0  0  0  0
   -1.3336   -0.8957   -2.4734 H   0  0  0  0  0  0  0  0  0  0  0  0
   -1.2445    0.8585   -2.6318 H   0  0  0  0  0  0  0  0  0  0  0  0
    0.5585   -0.1478   -3.2207 C   0  0  0  0  0  0  0  0  0  0  0  0
    1.1938    0.7347   -3.0928 H   0  0  0  0  0  0  0  0  0  0  0  0
    1.1403   -1.0277   -2.9262 H   0  0  0  0  0  0  0  0  0  0  0  0
    0.1621   -0.2756   -4.6883 C   0  0  0  0  0  0  0  0  0  0  0  0
   -0.4882   -1.1463   -4.8285 H   0  0  0  0  0  0  0  0  0  0  0  0
   -0.3882    0.6165   -5.0073 H   0  0  0  0  0  0  0  0  0  0  0  0
    1.3803   -0.4306   -5.4873 N   0  0  0  0  0  0  0  0  0  0  0  0
    1.1673   -0.4903   -6.4830 H   0  0  0  0  0  0  0  0  0  0  0  0
    2.0419    0.3232   -5.2999 H   0  0  0  0  0  0  0  0  0  0  0  0
    0.4184   -0.9454    1.3167 C   0  0  0  0  0  0  0  0  0  0  0  0
    1.6285   -0.8954    1.4931 O   0  0  0  0  0  0  0  0  0  0  0  0
   -0.4252   -0.4940    2.3161 N   0  0  0  0  0  0  0  0  0  0  0  0
   -1.4168   -0.6426    2.1615 H   0  0  0  0  0  0  0  0  0  0  0  0
    0.0379   -0.2111    3.6685 C   0  0  0  0  0  0  0  0  0  0  0  0
    0.8157    0.5595    3.6542 H   0  0  0  0  0  0  0  0  0  0  0  0
   -0.7912    0.1490    4.2846 H   0  0  0  0  0  0  0  0  0  0  0  0
    0.4476   -1.1162    4.1289 H   0  0  0  0  0  0  0  0  0  0  0  0
  1  2  1  0  0  0  0
  2  3  1  0  0  0  0
  2  4  1  0  0  0  0
  2  5  1  0  0  0  0
  5  6  2  0  0  0  0
  5  7  1  0  0  0  0
  7  8  1  0  0  0  0
  7  9  1  0  0  0  0
  9 10  1  0  0  0  0
  9 11  1  0  0  0  0
  9 26  1  0  0  0  0
 11 12  1  0  0  0  0
 11 13  1  0  0  0  0
 11 14  1  0  0  0  0
 14 15  1  0  0  0  0
 14 16  1  0  0  0  0
 14 17  1  0  0  0  0
 17 18  1  0  0  0  0
 17 19  1  0  0  0  0
 17 20  1  0  0  0  0
 20 21  1  0  0  0  0
 20 22  1  0  0  0  0
 20 23  1  0  0  0  0
 23 24  1  0  0  0  0
 23 25  1  0  0  0  0
 26 27  2  0  0  0  0
 26 28  1  0  0  0  0
 28 29  1  0  0  0  0
 28 30  1  0  0  0  0
 30 31  1  0  0  0  0
 30 32  1  0  0  0  0
 30 33  1  0  0  0  0
M  END
$$$$

  -OEChem-03222214063D

 33 32  0     1  0  0  0  0  0999 V2000
   -2.8909   -4.9276    0.6381 H   0  0  0  0  0  0  0  0  0  0  0  0
   -2.9182   -3.9362    0.1765 C   0  0  0  0  0  0  0  0  0  0  0  0
   -3.7488   -3.3714    0.6061 H   0  0  0  0  0  0  0  0  0  0  0  0
   -3.0812   -4.0543   -0.8975 H   0  0  0  0  0  0  0  0  0  0  0  0
   -1.6103   -3.2089    0.4261 C   0  0  0  0  0  0  0  0  0  0  0  0
   -0.7467   -3.7347    1.1043 O   0  0  0  0  0  0  0  0  0  0  0  0
   -1.4151   -1.9511   -0.1106 N   0  0  0  0  0  0  0  0  0  0  0  0
   -2.1362   -1.6117   -0.7393 H   0  0  0  0  0  0  0  0  0  0  0  0
   -0.1290   -1.2277   -0.0845 C   0  0  1  0  0  0  0  0  0  0  0  0
    0.6216   -1.8461   -0.5880 H   0  0  0  0  0  0  0  0  0  0  0  0
   -0.2645    0.1073   -0.8434 C   0  0  0  0  0  0  0  0  0  0  0  0
   -1.0232    0.7177   -0.3426 H   0  0  0  0  0  0  0  0  0  0  0  0
    0.6823    0.6558   -0.7822 H   0  0  0  0  0  0  0  0  0  0  0  0
   -0.6607   -0.0506   -2.3230 C   0  0  0  0  0  0  0  0  0  0  0  0
   -1.5104   -0.7313   -2.4292 H   0  0  0  0  0  0  0  0  0  0  0  0
   -0.9783    0.9282   -2.6974 H   0  0  0  0  0  0  0  0  0  0  0  0
    0.5153   -0.5413   -3.1780 C   0  0  0  0  0  0  0  0  0  0  0  0
    1.3757    0.1220   -3.0411 H   0  0  0  0  0  0  0  0  0  0  0  0
    0.8106   -1.5464   -2.8611 H   0  0  0  0  0  0  0  0  0  0  0  0
    0.1346   -0.5757   -4.6556 C   0  0  0  0  0  0  0  0  0  0  0  0
   -0.7459   -1.2107   -4.8039 H   0  0  0  0  0  0  0  0  0  0  0  0
   -0.1110    0.4340   -5.0027 H   0  0  0  0  0  0  0  0  0  0  0  0
    1.2667   -1.1107   -5.4163 N   0  0  0  0  0  0  0  0  0  0  0  0
    1.0702   -1.1234   -6.4171 H   0  0  0  0  0  0  0  0  0  0  0  0
    2.1216   -0.5897   -5.2190 H   0  0  0  0  0  0  0  0  0  0  0  0
    0.4195   -0.9510    1.3331 C   0  0  0  0  0  0  0  0  0  0  0  0
    1.6287   -0.9109    1.5195 O   0  0  0  0  0  0  0  0  0  0  0  0
   -0.4288   -0.4797    2.3192 N   0  0  0  0  0  0  0  0  0  0  0  0
   -1.4198   -0.6230    2.1564 H   0  0  0  0  0  0  0  0  0  0  0  0
    0.0226   -0.1887    3.6738 C   0  0  0  0  0  0  0  0  0  0  0  0
    0.8017    0.5806    3.6619 H   0  0  0  0  0  0  0  0  0  0  0  0
   -0.8118    0.1766    4.2798 H   0  0  0  0  0  0  0  0  0  0  0  0
    0.4257   -1.0917    4.1443 H   0  0  0  0  0  0  0  0  0  0  0  0
  1  2  1  0  0  0  0
  2  3  1  0  0  0  0
  2  4  1  0  0  0  0
  2  5  1  0  0  0  0
  5  6  2  0  0  0  0
  5  7  1  0  0  0  0
  7  8  1  0  0  0  0
  7  9  1  0  0  0  0
  9 10  1  0  0  0  0
  9 11  1  0  0  0  0
  9 26  1  0  0  0  0
 11 12  1  0  0  0  0
 11 13  1  0  0  0  0
 11 14  1  0  0  0  0
 14 15  1  0  0  0  0
 14 16  1  0  0  0  0
 14 17  1  0  0  0  0
 17 18  1  0  0  0  0
 17 19  1  0  0  0  0
 17 20  1  0  0  0  0
 20 21  1  0  0  0  0
 20 22  1  0  0  0  0
 20 23  1  0  0  0  0
 23 24  1  0  0  0  0
 23 25  1  0  0  0  0
 26 27  2  0  0  0  0
 26 28  1  0  0  0  0
 28 29  1  0  0  0  0
 28 30  1  0  0  0  0
 30 31  1  0  0  0  0
 30 32  1  0  0  0  0
 30 33  1  0  0  0  0
M  END
$$$$

  -OEChem-03222214063D

 33 32  0     1  0  0  0  0  0999 V2000
   -2.8823   -4.9464    0.6369 H   0  0  0  0  0  0  0  0  0  0  0  0
   -2.9130   -3.9503    0.1860 C   0  0  0  0  0  0  0  0  0  0  0  0
   -3.7552   -3.3978    0.6092 H   0  0  0  0  0  0  0  0  0  0  0  0
   -3.0596   -4.0581   -0.8914 H   0  0  0  0  0  0  0  0  0  0  0  0
   -1.6166   -3.2126    0.4628 C   0  0  0  0  0  0  0  0  0  0  0  0
   -0.7715   -3.7214    1.1765 O   0  0  0  0  0  0  0  0  0  0  0  0
   -1.4122   -1.9640   -0.0914 N   0  0  0  0  0  0  0  0  0  0  0  0
   -2.1063   -1.6551   -0.7644 H   0  0  0  0  0  0  0  0  0  0  0  0
   -0.1226   -1.2480   -0.0642 C   0  0  1  0  0  0  0  0  0  0  0  0
    0.6321   -1.8749   -0.5503 H   0  0  0  0  0  0  0  0  0  0  0  0
   -0.2587    0.0783   -0.8374 C   0  0  0  0  0  0  0  0  0  0  0  0
   -1.0046    0.7071   -0.3401 H   0  0  0  0  0  0  0  0  0  0  0  0
    0.6978    0.6108   -0.7897 H   0  0  0  0  0  0  0  0  0  0  0  0
   -0.6534   -0.0817   -2.3173 C   0  0  0  0  0  0  0  0  0  0  0  0
   -1.6409   -0.5464   -2.3949 H   0  0  0  0  0  0  0  0  0  0  0  0
   -0.7273    0.9182   -2.7578 H   0  0  0  0  0  0  0  0  0  0  0  0
    0.3631   -0.9056   -3.1201 C   0  0  0  0  0  0  0  0  0  0  0  0
    1.3718   -0.5141   -2.9530 H   0  0  0  0  0  0  0  0  0  0  0  0
    0.3439   -1.9481   -2.7873 H   0  0  0  0  0  0  0  0  0  0  0  0
    0.0432   -0.8572   -4.6114 C   0  0  0  0  0  0  0  0  0  0  0  0
   -0.9809   -1.2038   -4.7890 H   0  0  0  0  0  0  0  0  0  0  0  0
    0.1239    0.1718   -4.9793 H   0  0  0  0  0  0  0  0  0  0  0  0
    0.9902   -1.7230   -5.3188 N   0  0  0  0  0  0  0  0  0  0  0  0
    0.8354   -1.6976   -6.3267 H   0  0  0  0  0  0  0  0  0  0  0  0
    1.9541   -1.4755   -5.0924 H   0  0  0  0  0  0  0  0  0  0  0  0
    0.4179   -0.9520    1.3529 C   0  0  0  0  0  0  0  0  0  0  0  0
    1.6264   -0.9147    1.5448 O   0  0  0  0  0  0  0  0  0  0  0  0
   -0.4322   -0.4603    2.3274 N   0  0  0  0  0  0  0  0  0  0  0  0
   -1.4230   -0.6044    2.1630 H   0  0  0  0  0  0  0  0  0  0  0  0
    0.0150   -0.1598    3.6816 C   0  0  0  0  0  0  0  0  0  0  0  0
    0.8134    0.5897    3.6661 H   0  0  0  0  0  0  0  0  0  0  0  0
   -0.8150    0.2353    4.2746 H   0  0  0  0  0  0  0  0  0  0  0  0
    0.3917   -1.0653    4.1687 H   0  0  0  0  0  0  0  0  0  0  0  0
  1  2  1  0  0  0  0
  2  3  1  0  0  0  0
  2  4  1  0  0  0  0
  2  5  1  0  0  0  0
  5  6  2  0  0  0  0
  5  7  1  0  0  0  0
  7  8  1  0  0  0  0
  7  9  1  0  0  0  0
  9 10  1  0  0  0  0
  9 11  1  0  0  0  0
  9 26  1  0  0  0  0
 11 12  1  0  0  0  0
 11 13  1  0  0  0  0
 11 14  1  0  0  0  0
 14 15  1  0  0  0  0
 14 16  1  0  0  0  0
 14 17  1  0  0  0  0
 17 18  1  0  0  0  0
 17 19  1  0  0  0  0
 17 20  1  0  0  0  0
 20 21  1  0  0  0  0
 20 22  1  0  0  0  0
 20 23  1  0  0  0  0
 23 24  1  0  0  0  0
 23 25  1  0  0  0  0
 26 27  2  0  0  0  0
 26 28  1  0  0  0  0
 28 29  1  0  0  0  0
 28 30  1  0  0  0  0
 30 31  1  0  0  0  0
 30 32  1  0  0  0  0
 30 33  1  0  0  0  0
M  END
$$$$

  -OEChem-03222214063D

 33 32  0     1  0  0  0  0  0999 V2000
   -2.8901   -4.9505    0.6628 H   0  0  0  0  0  0  0  0  0  0  0  0
   -2.9074   -3.9635    0.1918 C   0  0  0  0  0  0  0  0  0  0  0  0
   -3.7600   -3.4022    0.5815 H   0  0  0  0  0  0  0  0  0  0  0  0
   -3.0248   -4.0920   -0.8868 H   0  0  0  0  0  0  0  0  0  0  0  0
   -1.6176   -3.2217    0.4884 C   0  0  0  0  0  0  0  0  0  0  0  0
   -0.7874   -3.7227    1.2250 O   0  0  0  0  0  0  0  0  0  0  0  0
   -1.4026   -1.9789   -0.0747 N   0  0  0  0  0  0  0  0  0  0  0  0
   -2.0806   -1.6818   -0.7693 H   0  0  0  0  0  0  0  0  0  0  0  0
   -0.1099   -1.2692   -0.0408 C   0  0  1  0  0  0  0  0  0  0  0  0
    0.6490   -1.8998   -0.5158 H   0  0  0  0  0  0  0  0  0  0  0  0
   -0.2444    0.0537   -0.8215 C   0  0  0  0  0  0  0  0  0  0  0  0
   -0.9770    0.6983   -0.3248 H   0  0  0  0  0  0  0  0  0  0  0  0
    0.7222    0.5681   -0.7772 H   0  0  0  0  0  0  0  0  0  0  0  0
   -0.6335   -0.0906   -2.3065 C   0  0  0  0  0  0  0  0  0  0  0  0
   -1.7025   -0.3147   -2.3780 H   0  0  0  0  0  0  0  0  0  0  0  0
   -0.4679    0.8738   -2.7984 H   0  0  0  0  0  0  0  0  0  0  0  0
    0.1478   -1.1828   -3.0512 C   0  0  0  0  0  0  0  0  0  0  0  0
    1.2213   -1.0496   -2.8816 H   0  0  0  0  0  0  0  0  0  0  0  0
   -0.1371   -2.1699   -2.6733 H   0  0  0  0  0  0  0  0  0  0  0  0
   -0.1358   -1.1268   -4.5495 C   0  0  0  0  0  0  0  0  0  0  0  0
   -1.2142   -1.1887   -4.7330 H   0  0  0  0  0  0  0  0  0  0  0  0
    0.2268   -0.1802   -4.9652 H   0  0  0  0  0  0  0  0  0  0  0  0
    0.5428   -2.2555   -5.1913 N   0  0  0  0  0  0  0  0  0  0  0  0
    0.4114   -2.2411   -6.2029 H   0  0  0  0  0  0  0  0  0  0  0  0
    1.5354   -2.2693   -4.9542 H   0  0  0  0  0  0  0  0  0  0  0  0
    0.4183   -0.9635    1.3789 C   0  0  0  0  0  0  0  0  0  0  0  0
    1.6253   -0.9270    1.5811 O   0  0  0  0  0  0  0  0  0  0  0  0
   -0.4397   -0.4591    2.3397 N   0  0  0  0  0  0  0  0  0  0  0  0
   -1.4292   -0.6047    2.1690 H   0  0  0  0  0  0  0  0  0  0  0  0
   -0.0037   -0.1330    3.6914 C   0  0  0  0  0  0  0  0  0  0  0  0
    0.7936    0.6172    3.6671 H   0  0  0  0  0  0  0  0  0  0  0  0
   -0.8387    0.2721    4.2705 H   0  0  0  0  0  0  0  0  0  0  0  0
    0.3705   -1.0287    4.1983 H   0  0  0  0  0  0  0  0  0  0  0  0
  1  2  1  0  0  0  0
  2  3  1  0  0  0  0
  2  4  1  0  0  0  0
  2  5  1  0  0  0  0
  5  6  2  0  0  0  0
  5  7  1  0  0  0  0
  7  8  1  0  0  0  0
  7  9  1  0  0  0  0
  9 10  1  0  0  0  0
  9 11  1  0  0  0  0
  9 26  1  0  0  0  0
 11 12  1  0  0  0  0
 11 13  1  0  0  0  0
 11 14  1  0  0  0  0
 14 15  1  0  0  0  0
 14 16  1  0  0  0  0
 14 17  1  0  0  0  0
 17 18  1  0  0  0  0
 17 19  1  0  0  0  0
 17 20  1  0  0  0  0
 20 21  1  0  0  0  0
 20 22  1  0  0  0  0
 20 23  1  0  0  0  0
 23 24  1  0  0  0  0
 23 25  1  0  0  0  0
 26 27  2  0  0  0  0
 26 28  1  0  0  0  0
 28 29  1  0  0  0  0
 28 30  1  0  0  0  0
 30 31  1  0  0  0  0
 30 32  1  0  0  0  0
 30 33  1  0  0  0  0
M  END
$$$$

  -OEChem-03222214063D

 33 32  0     1  0  0  0  0  0999 V2000
   -2.8851   -4.9603    0.6986 H   0  0  0  0  0  0  0  0  0  0  0  0
   -2.9013   -3.9749    0.2241 C   0  0  0  0  0  0  0  0  0  0  0  0
   -3.7574   -3.4139    0.6063 H   0  0  0  0  0  0  0  0  0  0  0  0
   -3.0120   -4.1081   -0.8548 H   0  0  0  0  0  0  0  0  0  0  0  0
   -1.6153   -3.2288    0.5259 C   0  0  0  0  0  0  0  0  0  0  0  0
   -0.7916   -3.7221    1.2750 O   0  0  0  0  0  0  0  0  0  0  0  0
   -1.3945   -1.9923   -0.0486 N   0  0  0  0  0  0  0  0  0  0  0  0
   -2.0616   -1.7072   -0.7592 H   0  0  0  0  0  0  0  0  0  0  0  0
   -0.1014   -1.2826   -0.0099 C   0  0  1  0  0  0  0  0  0  0  0  0
    0.6604   -1.9202   -0.4712 H   0  0  0  0  0  0  0  0  0  0  0  0
   -0.2249    0.0291   -0.8118 C   0  0  0  0  0  0  0  0  0  0  0  0
   -0.9518    0.6884   -0.3260 H   0  0  0  0  0  0  0  0  0  0  0  0
    0.7478    0.5310   -0.7606 H   0  0  0  0  0  0  0  0  0  0  0  0
   -0.5947   -0.1058   -2.3062 C   0  0  0  0  0  0  0  0  0  0  0  0
   -1.6852   -0.0671   -2.3957 H   0  0  0  0  0  0  0  0  0  0  0  0
   -0.1933    0.7625   -2.8395 H   0  0  0  0  0  0  0  0  0  0  0  0
   -0.1101   -1.3950   -2.9898 C   0  0  0  0  0  0  0  0  0  0  0  0
    0.9676   -1.5107   -2.8345 H   0  0  0  0  0  0  0  0  0  0  0  0
   -0.6122   -2.2663   -2.5602 H   0  0  0  0  0  0  0  0  0  0  0  0
   -0.3988   -1.3534   -4.4874 C   0  0  0  0  0  0  0  0  0  0  0  0
   -1.4637   -1.1641   -4.6619 H   0  0  0  0  0  0  0  0  0  0  0  0
    0.1726   -0.5457   -4.9582 H   0  0  0  0  0  0  0  0  0  0  0  0
   -0.0236   -2.6462   -5.0660 N   0  0  0  0  0  0  0  0  0  0  0  0
   -0.1728   -2.6579   -6.0752 H   0  0  0  0  0  0  0  0  0  0  0  0
    0.9433   -2.8819   -4.8398 H   0  0  0  0  0  0  0  0  0  0  0  0
    0.4129   -0.9620    1.4114 C   0  0  0  0  0  0  0  0  0  0  0  0
    1.6176   -0.9276    1.6263 O   0  0  0  0  0  0  0  0  0  0  0  0
   -0.4545   -0.4469    2.3580 N   0  0  0  0  0  0  0  0  0  0  0  0
   -1.4426   -0.5878    2.1752 H   0  0  0  0  0  0  0  0  0  0  0  0
   -0.0341   -0.1140    3.7129 C   0  0  0  0  0  0  0  0  0  0  0  0
    0.7681    0.6315    3.6942 H   0  0  0  0  0  0  0  0  0  0  0  0
   -0.8745    0.2998    4.2781 H   0  0  0  0  0  0  0  0  0  0  0  0
    0.3282   -1.0084    4.2307 H   0  0  0  0  0  0  0  0  0  0  0  0
  1  2  1  0  0  0  0
  2  3  1  0  0  0  0
  2  4  1  0  0  0  0
  2  5  1  0  0  0  0
  5  6  2  0  0  0  0
  5  7  1  0  0  0  0
  7  8  1  0  0  0  0
  7  9  1  0  0  0  0
  9 10  1  0  0  0  0
  9 11  1  0  0  0  0
  9 26  1  0  0  0  0
 11 12  1  0  0  0  0
 11 13  1  0  0  0  0
 11 14  1  0  0  0  0
 14 15  1  0  0  0  0
 14 16  1  0  0  0  0
 14 17  1  0  0  0  0
 17 18  1  0  0  0  0
 17 19  1  0  0  0  0
 17 20  1  0  0  0  0
 20 21  1  0  0  0  0
 20 22  1  0  0  0  0
 20 23  1  0  0  0  0
 23 24  1  0  0  0  0
 23 25  1  0  0  0  0
 26 27  2  0  0  0  0
 26 28  1  0  0  0  0
 28 29  1  0  0  0  0
 28 30  1  0  0  0  0
 30 31  1  0  0  0  0
 30 32  1  0  0  0  0
 30 33  1  0  0  0  0
M  END
$$$$

  -OEChem-03222214063D

 33 32  0     1  0  0  0  0  0999 V2000
   -2.8887   -4.9761    0.8196 H   0  0  0  0  0  0  0  0  0  0  0  0
   -2.9033   -4.0061    0.3144 C   0  0  0  0  0  0  0  0  0  0  0  0
   -3.7621   -3.4344    0.6741 H   0  0  0  0  0  0  0  0  0  0  0  0
   -3.0077   -4.1724   -0.7607 H   0  0  0  0  0  0  0  0  0  0  0  0
   -1.6195   -3.2498    0.5999 C   0  0  0  0  0  0  0  0  0  0  0  0
   -0.7891   -3.7287    1.3511 O   0  0  0  0  0  0  0  0  0  0  0  0
   -1.4056   -2.0229    0.0031 N   0  0  0  0  0  0  0  0  0  0  0  0
   -2.0770   -1.7525   -0.7097 H   0  0  0  0  0  0  0  0  0  0  0  0
   -0.1156   -1.3079    0.0209 C   0  0  1  0  0  0  0  0  0  0  0  0
    0.6430   -1.9562   -0.4300 H   0  0  0  0  0  0  0  0  0  0  0  0
   -0.2267   -0.0125   -0.8109 C   0  0  0  0  0  0  0  0  0  0  0  0
   -0.9527    0.6550   -0.3349 H   0  0  0  0  0  0  0  0  0  0  0  0
    0.7469    0.4874   -0.7549 H   0  0  0  0  0  0  0  0  0  0  0  0
   -0.5881   -0.1393   -2.3122 C   0  0  0  0  0  0  0  0  0  0  0  0
   -1.6251    0.1879   -2.4407 H   0  0  0  0  0  0  0  0  0  0  0  0
    0.0414    0.5622   -2.8701 H   0  0  0  0  0  0  0  0  0  0  0  0
   -0.4569   -1.5377   -2.9412 C   0  0  0  0  0  0  0  0  0  0  0  0
    0.5403   -1.9426   -2.7422 H   0  0  0  0  0  0  0  0  0  0  0  0
   -1.1967   -2.2207   -2.5172 H   0  0  0  0  0  0  0  0  0  0  0  0
   -0.6750   -1.4721   -4.4495 C   0  0  0  0  0  0  0  0  0  0  0  0
   -1.6433   -1.0097   -4.6713 H   0  0  0  0  0  0  0  0  0  0  0  0
    0.1079   -0.8647   -4.9173 H   0  0  0  0  0  0  0  0  0  0  0  0
   -0.6440   -2.8385   -4.9782 N   0  0  0  0  0  0  0  0  0  0  0  0
   -0.7850   -2.8474   -5.9888 H   0  0  0  0  0  0  0  0  0  0  0  0
    0.2286   -3.3067   -4.7305 H   0  0  0  0  0  0  0  0  0  0  0  0
    0.4047   -0.9611    1.4340 C   0  0  0  0  0  0  0  0  0  0  0  0
    1.6107   -0.9154    1.6404 O   0  0  0  0  0  0  0  0  0  0  0  0
   -0.4599   -0.4336    2.3762 N   0  0  0  0  0  0  0  0  0  0  0  0
   -1.4479   -0.5873    2.2037 H   0  0  0  0  0  0  0  0  0  0  0  0
   -0.0329   -0.0742    3.7223 C   0  0  0  0  0  0  0  0  0  0  0  0
    0.7595    0.6807    3.6846 H   0  0  0  0  0  0  0  0  0  0  0  0
   -0.8735    0.3379    4.2884 H   0  0  0  0  0  0  0  0  0  0  0  0
    0.3451   -0.9558    4.2507 H   0  0  0  0  0  0  0  0  0  0  0  0
  1  2  1  0  0  0  0
  2  3  1  0  0  0  0
  2  4  1  0  0  0  0
  2  5  1  0  0  0  0
  5  6  2  0  0  0  0
  5  7  1  0  0  0  0
  7  8  1  0  0  0  0
  7  9  1  0  0  0  0
  9 10  1  0  0  0  0
  9 11  1  0  0  0  0
  9 26  1  0  0  0  0
 11 12  1  0  0  0  0
 11 13  1  0  0  0  0
 11 14  1  0  0  0  0
 14 15  1  0  0  0  0
 14 16  1  0  0  0  0
 14 17  1  0  0  0  0
 17 18  1  0  0  0  0
 17 19  1  0  0  0  0
 17 20  1  0  0  0  0
 20 21  1  0  0  0  0
 20 22  1  0  0  0  0
 20 23  1  0  0  0  0
 23 24  1  0  0  0  0
 23 25  1  0  0  0  0
 26 27  2  0  0  0  0
 26 28  1  0  0  0  0
 28 29  1  0  0  0  0
 28 30  1  0  0  0  0
 30 31  1  0  0  0  0
 30 32  1  0  0  0  0
 30 33  1  0  0  0  0
M  END
$$$$

  -OEChem-03222214063D

 33 32  0     1  0  0  0  0  0999 V2000
   -2.8795   -4.9964    0.9195 H   0  0  0  0  0  0  0  0  0  0  0  0
   -2.9062   -4.0306    0.4069 C   0  0  0  0  0  0  0  0  0  0  0  0
   -3.7551   -3.4554    0.7835 H   0  0  0  0  0  0  0  0  0  0  0  0
   -3.0382   -4.2055   -0.6637 H   0  0  0  0  0  0  0  0  0  0  0  0
   -1.6153   -3.2728    0.6531 C   0  0  0  0  0  0  0  0  0  0  0  0
   -0.7630   -3.7481    1.3817 O   0  0  0  0  0  0  0  0  0  0  0  0
   -1.4185   -2.0490    0.0445 N   0  0  0  0  0  0  0  0  0  0  0  0
   -2.1129   -1.7773   -0.6456 H   0  0  0  0  0  0  0  0  0  0  0  0
   -0.1351   -1.3228    0.0353 C   0  0  1  0  0  0  0  0  0  0  0  0
    0.6202   -1.9731   -0.4188 H   0  0  0  0  0  0  0  0  0  0  0  0
   -0.2442   -0.0354   -0.8118 C   0  0  0  0  0  0  0  0  0  0  0  0
   -0.9816    0.6205   -0.3371 H   0  0  0  0  0  0  0  0  0  0  0  0
    0.7203    0.4814   -0.7520 H   0  0  0  0  0  0  0  0  0  0  0  0
   -0.6106   -0.1561   -2.3150 C   0  0  0  0  0  0  0  0  0  0  0  0
   -1.5094    0.4420   -2.4993 H   0  0  0  0  0  0  0  0  0  0  0  0
    0.2024    0.3062   -2.8854 H   0  0  0  0  0  0  0  0  0  0  0  0
   -0.8463   -1.5662   -2.8845 C   0  0  0  0  0  0  0  0  0  0  0  0
   -0.0095   -2.2220   -2.6260 H   0  0  0  0  0  0  0  0  0  0  0  0
   -1.7642   -1.9915   -2.4712 H   0  0  0  0  0  0  0  0  0  0  0  0
   -0.9868   -1.5200   -4.4027 C   0  0  0  0  0  0  0  0  0  0  0  0
   -1.7943   -0.8355   -4.6859 H   0  0  0  0  0  0  0  0  0  0  0  0
   -0.0579   -1.1584   -4.8574 H   0  0  0  0  0  0  0  0  0  0  0  0
   -1.2914   -2.8734   -4.8752 N   0  0  0  0  0  0  0  0  0  0  0  0
   -1.4136   -2.8914   -5.8882 H   0  0  0  0  0  0  0  0  0  0  0  0
   -0.5667   -3.5321   -4.5876 H   0  0  0  0  0  0  0  0  0  0  0  0
    0.4027   -0.9617    1.4383 C   0  0  0  0  0  0  0  0  0  0  0  0
    1.6112   -0.9025    1.6261 O   0  0  0  0  0  0  0  0  0  0  0  0
   -0.4519   -0.4351    2.3902 N   0  0  0  0  0  0  0  0  0  0  0  0
   -1.4417   -0.5940    2.2329 H   0  0  0  0  0  0  0  0  0  0  0  0
   -0.0071   -0.0561    3.7251 C   0  0  0  0  0  0  0  0  0  0  0  0
    0.7745    0.7086    3.6661 H   0  0  0  0  0  0  0  0  0  0  0  0
   -0.8432    0.3512    4.3012 H   0  0  0  0  0  0  0  0  0  0  0  0
    0.3913   -0.9269    4.2561 H   0  0  0  0  0  0  0  0  0  0  0  0
  1  2  1  0  0  0  0
  2  3  1  0  0  0  0
  2  4  1  0  0  0  0
  2  5  1  0  0  0  0
  5  6  2  0  0  0  0
  5  7  1  0  0  0  0
  7  8  1  0  0  0  0
  7  9  1  0  0  0  0
  9 10  1  0  0  0  0
  9 11  1  0  0  0  0
  9 26  1  0  0  0  0
 11 12  1  0  0  0  0
 11 13  1  0  0  0  0
 11 14  1  0  0  0  0
 14 15  1  0  0  0  0
 14 16  1  0  0  0  0
 14 17  1  0  0  0  0
 17 18  1  0  0  0  0
 17 19  1  0  0  0  0
 17 20  1  0  0  0  0
 20 21  1  0  0  0  0
 20 22  1  0  0  0  0
 20 23  1  0  0  0  0
 23 24  1  0  0  0  0
 23 25  1  0  0  0  0
 26 27  2  0  0  0  0
 26 28  1  0  0  0  0
 28 29  1  0  0  0  0
 28 30  1  0  0  0  0
 30 31  1  0  0  0  0
 30 32  1  0  0  0  0
 30 33  1  0  0  0  0
M  END
$$$$

  -OEChem-03222214063D

 33 32  0     1  0  0  0  0  0999 V2000
   -2.8547   -5.0154    0.9656 H   0  0  0  0  0  0  0  0  0  0  0  0
   -2.8993   -4.0441    0.4648 C   0  0  0  0  0  0  0  0  0  0  0  0
   -3.7354   -3.4738    0.8763 H   0  0  0  0  0  0  0  0  0  0  0  0
   -3.0672   -4.2070   -0.6027 H   0  0  0  0  0  0  0  0  0  0  0  0
   -1.6015   -3.2878    0.6761 C   0  0  0  0  0  0  0  0  0  0  0  0
   -0.7280   -3.7657    1.3773 O   0  0  0  0  0  0  0  0  0  0  0  0
   -1.4218   -2.0626    0.0656 N   0  0  0  0  0  0  0  0  0  0  0  0
   -2.1387   -1.7834   -0.5976 H   0  0  0  0  0  0  0  0  0  0  0  0
   -0.1462   -1.3232    0.0388 C   0  0  1  0  0  0  0  0  0  0  0  0
    0.6063   -1.9723   -0.4224 H   0  0  0  0  0  0  0  0  0  0  0  0
   -0.2516   -0.0387   -0.8160 C   0  0  0  0  0  0  0  0  0  0  0  0
   -1.0051    0.6017   -0.3458 H   0  0  0  0  0  0  0  0  0  0  0  0
    0.7021    0.4966   -0.7484 H   0  0  0  0  0  0  0  0  0  0  0  0
   -0.6163   -0.1581   -2.3200 C   0  0  0  0  0  0  0  0  0  0  0  0
   -1.3127    0.6488   -2.5721 H   0  0  0  0  0  0  0  0  0  0  0  0
    0.3035    0.0251   -2.8859 H   0  0  0  0  0  0  0  0  0  0  0  0
   -1.1983   -1.4903   -2.8196 C   0  0  0  0  0  0  0  0  0  0  0  0
   -0.5393   -2.3178   -2.5387 H   0  0  0  0  0  0  0  0  0  0  0  0
   -2.1827   -1.6555   -2.3732 H   0  0  0  0  0  0  0  0  0  0  0  0
   -1.3594   -1.4825   -4.3359 C   0  0  0  0  0  0  0  0  0  0  0  0
   -2.0088   -0.6546   -4.6417 H   0  0  0  0  0  0  0  0  0  0  0  0
   -0.3856   -1.3494   -4.8204 H   0  0  0  0  0  0  0  0  0  0  0  0
   -1.9552   -2.7606   -4.7353 N   0  0  0  0  0  0  0  0  0  0  0  0
   -2.1214   -2.7905   -5.7417 H   0  0  0  0  0  0  0  0  0  0  0  0
   -1.3686   -3.5431   -4.4439 H   0  0  0  0  0  0  0  0  0  0  0  0
    0.4023   -0.9580    1.4364 C   0  0  0  0  0  0  0  0  0  0  0  0
    1.6117   -0.8912    1.6140 O   0  0  0  0  0  0  0  0  0  0  0  0
   -0.4479   -0.4413    2.3976 N   0  0  0  0  0  0  0  0  0  0  0  0
   -1.4380   -0.6031    2.2468 H   0  0  0  0  0  0  0  0  0  0  0  0
    0.0050   -0.0630    3.7300 C   0  0  0  0  0  0  0  0  0  0  0  0
    0.7817    0.7065    3.6675 H   0  0  0  0  0  0  0  0  0  0  0  0
   -0.8293    0.3376    4.3135 H   0  0  0  0  0  0  0  0  0  0  0  0
    0.4121   -0.9331    4.2558 H   0  0  0  0  0  0  0  0  0  0  0  0
  1  2  1  0  0  0  0
  2  3  1  0  0  0  0
  2  4  1  0  0  0  0
  2  5  1  0  0  0  0
  5  6  2  0  0  0  0
  5  7  1  0  0  0  0
  7  8  1  0  0  0  0
  7  9  1  0  0  0  0
  9 10  1  0  0  0  0
  9 11  1  0  0  0  0
  9 26  1  0  0  0  0
 11 12  1  0  0  0  0
 11 13  1  0  0  0  0
 11 14  1  0  0  0  0
 14 15  1  0  0  0  0
 14 16  1  0  0  0  0
 14 17  1  0  0  0  0
 17 18  1  0  0  0  0
 17 19  1  0  0  0  0
 17 20  1  0  0  0  0
 20 21  1  0  0  0  0
 20 22  1  0  0  0  0
 20 23  1  0  0  0  0
 23 24  1  0  0  0  0
 23 25  1  0  0  0  0
 26 27  2  0  0  0  0
 26 28  1  0  0  0  0
 28 29  1  0  0  0  0
 28 30  1  0  0  0  0
 30 31  1  0  0  0  0
 30 32  1  0  0  0  0
 30 33  1  0  0  0  0
M  END
$$$$

  -OEChem-03222214063D

 33 32  0     1  0  0  0  0  0999 V2000
   -2.8219   -5.0405    0.9950 H   0  0  0  0  0  0  0  0  0  0  0  0
   -2.8813   -4.0658    0.5022 C   0  0  0  0  0  0  0  0  0  0  0  0
   -3.7086   -3.5010    0.9381 H   0  0  0  0  0  0  0  0  0  0  0  0
   -3.0753   -4.2211   -0.5619 H   0  0  0  0  0  0  0  0  0  0  0  0
   -1.5807   -3.3073    0.6875 C   0  0  0  0  0  0  0  0  0  0  0  0
   -0.6929   -3.7833    1.3719 O   0  0  0  0  0  0  0  0  0  0  0  0
   -1.4150   -2.0818    0.0740 N   0  0  0  0  0  0  0  0  0  0  0  0
   -2.1448   -1.8020   -0.5749 H   0  0  0  0  0  0  0  0  0  0  0  0
   -0.1481   -1.3279    0.0414 C   0  0  1  0  0  0  0  0  0  0  0  0
    0.6076   -1.9745   -0.4184 H   0  0  0  0  0  0  0  0  0  0  0  0
   -0.2524   -0.0468   -0.8206 C   0  0  0  0  0  0  0  0  0  0  0  0
   -1.0158    0.5879   -0.3590 H   0  0  0  0  0  0  0  0  0  0  0  0
    0.6967    0.4962   -0.7496 H   0  0  0  0  0  0  0  0  0  0  0  0
   -0.6071   -0.1756   -2.3245 C   0  0  0  0  0  0  0  0  0  0  0  0
   -1.0766    0.7607   -2.6445 H   0  0  0  0  0  0  0  0  0  0  0  0
    0.3376   -0.2651   -2.8715 H   0  0  0  0  0  0  0  0  0  0  0  0
   -1.4927   -1.3528   -2.7581 C   0  0  0  0  0  0  0  0  0  0  0  0
   -1.0048   -2.2995   -2.5061 H   0  0  0  0  0  0  0  0  0  0  0  0
   -2.4560   -1.2998   -2.2422 H   0  0  0  0  0  0  0  0  0  0  0  0
   -1.7486   -1.3207   -4.2608 C   0  0  0  0  0  0  0  0  0  0  0  0
   -2.2529   -0.3878   -4.5367 H   0  0  0  0  0  0  0  0  0  0  0  0
   -0.8013   -1.3713   -4.8092 H   0  0  0  0  0  0  0  0  0  0  0  0
   -2.5939   -2.4689   -4.6013 N   0  0  0  0  0  0  0  0  0  0  0  0
   -2.8476   -2.4579   -5.5899 H   0  0  0  0  0  0  0  0  0  0  0  0
   -2.1330   -3.3461   -4.3580 H   0  0  0  0  0  0  0  0  0  0  0  0
    0.3985   -0.9540    1.4376 C   0  0  0  0  0  0  0  0  0  0  0  0
    1.6075   -0.8760    1.6140 O   0  0  0  0  0  0  0  0  0  0  0  0
   -0.4556   -0.4454    2.3997 N   0  0  0  0  0  0  0  0  0  0  0  0
   -1.4450   -0.6125    2.2495 H   0  0  0  0  0  0  0  0  0  0  0  0
   -0.0041   -0.0548    3.7292 C   0  0  0  0  0  0  0  0  0  0  0  0
    0.7686    0.7180    3.6605 H   0  0  0  0  0  0  0  0  0  0  0  0
   -0.8400    0.3466    4.3100 H   0  0  0  0  0  0  0  0  0  0  0  0
    0.4082   -0.9184    4.2615 H   0  0  0  0  0  0  0  0  0  0  0  0
  1  2  1  0  0  0  0
  2  3  1  0  0  0  0
  2  4  1  0  0  0  0
  2  5  1  0  0  0  0
  5  6  2  0  0  0  0
  5  7  1  0  0  0  0
  7  8  1  0  0  0  0
  7  9  1  0  0  0  0
  9 10  1  0  0  0  0
  9 11  1  0  0  0  0
  9 26  1  0  0  0  0
 11 12  1  0  0  0  0
 11 13  1  0  0  0  0
 11 14  1  0  0  0  0
 14 15  1  0  0  0  0
 14 16  1  0  0  0  0
 14 17  1  0  0  0  0
 17 18  1  0  0  0  0
 17 19  1  0  0  0  0
 17 20  1  0  0  0  0
 20 21  1  0  0  0  0
 20 22  1  0  0  0  0
 20 23  1  0  0  0  0
 23 24  1  0  0  0  0
 23 25  1  0  0  0  0
 26 27  2  0  0  0  0
 26 28  1  0  0  0  0
 28 29  1  0  0  0  0
 28 30  1  0  0  0  0
 30 31  1  0  0  0  0
 30 32  1  0  0  0  0
 30 33  1  0  0  0  0
M  END
$$$$

  -OEChem-03222214063D

 33 32  0     1  0  0  0  0  0999 V2000
   -2.8010   -5.0538    1.0087 H   0  0  0  0  0  0  0  0  0  0  0  0
   -2.8597   -4.0852    0.5043 C   0  0  0  0  0  0  0  0  0  0  0  0
   -3.6887   -3.5159    0.9311 H   0  0  0  0  0  0  0  0  0  0  0  0
   -3.0508   -4.2534   -0.5583 H   0  0  0  0  0  0  0  0  0  0  0  0
   -1.5599   -3.3239    0.6841 C   0  0  0  0  0  0  0  0  0  0  0  0
   -0.6686   -3.7975    1.3654 O   0  0  0  0  0  0  0  0  0  0  0  0
   -1.3974   -2.1005    0.0654 N   0  0  0  0  0  0  0  0  0  0  0  0
   -2.1363   -1.8152   -0.5713 H   0  0  0  0  0  0  0  0  0  0  0  0
   -0.1364   -1.3374    0.0346 C   0  0  1  0  0  0  0  0  0  0  0  0
    0.6259   -1.9803   -0.4194 H   0  0  0  0  0  0  0  0  0  0  0  0
   -0.2437   -0.0590   -0.8307 C   0  0  0  0  0  0  0  0  0  0  0  0
   -1.0080    0.5810   -0.3774 H   0  0  0  0  0  0  0  0  0  0  0  0
    0.7069    0.4820   -0.7645 H   0  0  0  0  0  0  0  0  0  0  0  0
   -0.5912   -0.2086   -2.3315 C   0  0  0  0  0  0  0  0  0  0  0  0
   -0.8319    0.7882   -2.7159 H   0  0  0  0  0  0  0  0  0  0  0  0
    0.3100   -0.5485   -2.8530 H   0  0  0  0  0  0  0  0  0  0  0  0
   -1.7322   -1.1688   -2.6949 C   0  0  0  0  0  0  0  0  0  0  0  0
   -1.4261   -2.2002   -2.4956 H   0  0  0  0  0  0  0  0  0  0  0  0
   -2.6161   -0.9362   -2.0926 H   0  0  0  0  0  0  0  0  0  0  0  0
   -2.1013   -1.0490   -4.1694 C   0  0  0  0  0  0  0  0  0  0  0  0
   -2.4502   -0.0334   -4.3881 H   0  0  0  0  0  0  0  0  0  0  0  0
   -1.2268   -1.2521   -4.7977 H   0  0  0  0  0  0  0  0  0  0  0  0
   -3.1653   -2.0174   -4.4506 N   0  0  0  0  0  0  0  0  0  0  0  0
   -3.5103   -1.9165   -5.4059 H   0  0  0  0  0  0  0  0  0  0  0  0
   -2.8447   -2.9714   -4.2831 H   0  0  0  0  0  0  0  0  0  0  0  0
    0.3982   -0.9531    1.4322 C   0  0  0  0  0  0  0  0  0  0  0  0
    1.6053   -0.8649    1.6168 O   0  0  0  0  0  0  0  0  0  0  0  0
   -0.4673   -0.4468    2.3852 N   0  0  0  0  0  0  0  0  0  0  0  0
   -1.4553   -0.6130    2.2244 H   0  0  0  0  0  0  0  0  0  0  0  0
   -0.0300   -0.0368    3.7133 C   0  0  0  0  0  0  0  0  0  0  0  0
    0.7196    0.7583    3.6417 H   0  0  0  0  0  0  0  0  0  0  0  0
   -0.8789    0.3418    4.2905 H   0  0  0  0  0  0  0  0  0  0  0  0
    0.4063   -0.8855    4.2505 H   0  0  0  0  0  0  0  0  0  0  0  0
  1  2  1  0  0  0  0
  2  3  1  0  0  0  0
  2  4  1  0  0  0  0
  2  5  1  0  0  0  0
  5  6  2  0  0  0  0
  5  7  1  0  0  0  0
  7  8  1  0  0  0  0
  7  9  1  0  0  0  0
  9 10  1  0  0  0  0
  9 11  1  0  0  0  0
  9 26  1  0  0  0  0
 11 12  1  0  0  0  0
 11 13  1  0  0  0  0
 11 14  1  0  0  0  0
 14 15  1  0  0  0  0
 14 16  1  0  0  0  0
 14 17  1  0  0  0  0
 17 18  1  0  0  0  0
 17 19  1  0  0  0  0
 17 20  1  0  0  0  0
 20 21  1  0  0  0  0
 20 22  1  0  0  0  0
 20 23  1  0  0  0  0
 23 24  1  0  0  0  0
 23 25  1  0  0  0  0
 26 27  2  0  0  0  0
 26 28  1  0  0  0  0
 28 29  1  0  0  0  0
 28 30  1  0  0  0  0
 30 31  1  0  0  0  0
 30 32  1  0  0  0  0
 30 33  1  0  0  0  0
M  END
$$$$

  -OEChem-03222214063D

 33 32  0     1  0  0  0  0  0999 V2000
   -2.7973   -5.0478    0.9963 H   0  0  0  0  0  0  0  0  0  0  0  0
   -2.8557   -4.0787    0.4926 C   0  0  0  0  0  0  0  0  0  0  0  0
   -3.6716   -3.5010    0.9335 H   0  0  0  0  0  0  0  0  0  0  0  0
   -3.0666   -4.2454   -0.5665 H   0  0  0  0  0  0  0  0  0  0  0  0
   -1.5461   -3.3291    0.6498 C   0  0  0  0  0  0  0  0  0  0  0  0
   -0.6463   -3.8119    1.3133 O   0  0  0  0  0  0  0  0  0  0  0  0
   -1.3866   -2.1019    0.0379 N   0  0  0  0  0  0  0  0  0  0  0  0
   -2.1393   -1.7967   -0.5730 H   0  0  0  0  0  0  0  0  0  0  0  0
   -0.1307   -1.3319    0.0157 C   0  0  1  0  0  0  0  0  0  0  0  0
    0.6375   -1.9656   -0.4414 H   0  0  0  0  0  0  0  0  0  0  0  0
   -0.2556   -0.0526   -0.8425 C   0  0  0  0  0  0  0  0  0  0  0  0
   -1.0143    0.5943   -0.3896 H   0  0  0  0  0  0  0  0  0  0  0  0
    0.6978    0.4848   -0.7898 H   0  0  0  0  0  0  0  0  0  0  0  0
   -0.6050   -0.2336   -2.3362 C   0  0  0  0  0  0  0  0  0  0  0  0
   -0.6240    0.7643   -2.7872 H   0  0  0  0  0  0  0  0  0  0  0  0
    0.2008   -0.7944   -2.8212 H   0  0  0  0  0  0  0  0  0  0  0  0
   -1.9396   -0.9316   -2.6380 C   0  0  0  0  0  0  0  0  0  0  0  0
   -1.8446   -2.0062   -2.4595 H   0  0  0  0  0  0  0  0  0  0  0  0
   -2.7235   -0.5328   -1.9857 H   0  0  0  0  0  0  0  0  0  0  0  0
   -2.3506   -0.7191   -4.0913 C   0  0  0  0  0  0  0  0  0  0  0  0
   -2.5113    0.3476   -4.2836 H   0  0  0  0  0  0  0  0  0  0  0  0
   -1.5610   -1.0714   -4.7645 H   0  0  0  0  0  0  0  0  0  0  0  0
   -3.5898   -1.4648   -4.3302 N   0  0  0  0  0  0  0  0  0  0  0  0
   -3.9592   -1.2736   -5.2622 H   0  0  0  0  0  0  0  0  0  0  0  0
   -3.4456   -2.4659   -4.1990 H   0  0  0  0  0  0  0  0  0  0  0  0
    0.3992   -0.9492    1.4154 C   0  0  0  0  0  0  0  0  0  0  0  0
    1.6055   -0.8569    1.6028 O   0  0  0  0  0  0  0  0  0  0  0  0
   -0.4700   -0.4508    2.3693 N   0  0  0  0  0  0  0  0  0  0  0  0
   -1.4575   -0.6166    2.2059 H   0  0  0  0  0  0  0  0  0  0  0  0
   -0.0355   -0.0421    3.6988 C   0  0  0  0  0  0  0  0  0  0  0  0
    0.7154    0.7520    3.6295 H   0  0  0  0  0  0  0  0  0  0  0  0
   -0.8848    0.3378    4.2743 H   0  0  0  0  0  0  0  0  0  0  0  0
    0.3983   -0.8915    4.2369 H   0  0  0  0  0  0  0  0  0  0  0  0
  1  2  1  0  0  0  0
  2  3  1  0  0  0  0
  2  4  1  0  0  0  0
  2  5  1  0  0  0  0
  5  6  2  0  0  0  0
  5  7  1  0  0  0  0
  7  8  1  0  0  0  0
  7  9  1  0  0  0  0
  9 10  1  0  0  0  0
  9 11  1  0  0  0  0
  9 26  1  0  0  0  0
 11 12  1  0  0  0  0
 11 13  1  0  0  0  0
 11 14  1  0  0  0  0
 14 15  1  0  0  0  0
 14 16  1  0  0  0  0
 14 17  1  0  0  0  0
 17 18  1  0  0  0  0
 17 19  1  0  0  0  0
 17 20  1  0  0  0  0
 20 21  1  0  0  0  0
 20 22  1  0  0  0  0
 20 23  1  0  0  0  0
 23 24  1  0  0  0  0
 23 25  1  0  0  0  0
 26 27  2  0  0  0  0
 26 28  1  0  0  0  0
 28 29  1  0  0  0  0
 28 30  1  0  0  0  0
 30 31  1  0  0  0  0
 30 32  1  0  0  0  0
 30 33  1  0  0  0  0
M  END
$$$$

  -OEChem-03222214063D

 33 32  0     1  0  0  0  0  0999 V2000
   -2.8204   -5.0155    0.9462 H   0  0  0  0  0  0  0  0  0  0  0  0
   -2.8746   -4.0385    0.4573 C   0  0  0  0  0  0  0  0  0  0  0  0
   -3.6689   -3.4539    0.9272 H   0  0  0  0  0  0  0  0  0  0  0  0
   -3.1154   -4.1865   -0.5980 H   0  0  0  0  0  0  0  0  0  0  0  0
   -1.5489   -3.3132    0.5908 C   0  0  0  0  0  0  0  0  0  0  0  0
   -0.6380   -3.8223    1.2185 O   0  0  0  0  0  0  0  0  0  0  0  0
   -1.3879   -2.0754    0.0012 N   0  0  0  0  0  0  0  0  0  0  0  0
   -2.1606   -1.7296   -0.5607 H   0  0  0  0  0  0  0  0  0  0  0  0
   -0.1323   -1.3066   -0.0093 C   0  0  1  0  0  0  0  0  0  0  0  0
    0.6354   -1.9303   -0.4808 H   0  0  0  0  0  0  0  0  0  0  0  0
   -0.2777   -0.0191   -0.8474 C   0  0  0  0  0  0  0  0  0  0  0  0
   -1.0247    0.6337   -0.3838 H   0  0  0  0  0  0  0  0  0  0  0  0
    0.6803    0.5117   -0.8106 H   0  0  0  0  0  0  0  0  0  0  0  0
   -0.6394   -0.2265   -2.3329 C   0  0  0  0  0  0  0  0  0  0  0  0
   -0.4404    0.7196   -2.8476 H   0  0  0  0  0  0  0  0  0  0  0  0
    0.0237   -0.9806   -2.7700 H   0  0  0  0  0  0  0  0  0  0  0  0
   -2.1035   -0.6165   -2.5940 C   0  0  0  0  0  0  0  0  0  0  0  0
   -2.2590   -1.6719   -2.3572 H   0  0  0  0  0  0  0  0  0  0  0  0
   -2.7678   -0.0165   -1.9636 H   0  0  0  0  0  0  0  0  0  0  0  0
   -2.4720   -0.3933   -4.0574 C   0  0  0  0  0  0  0  0  0  0  0  0
   -2.3960    0.6717   -4.3042 H   0  0  0  0  0  0  0  0  0  0  0  0
   -1.7855   -0.9443   -4.7103 H   0  0  0  0  0  0  0  0  0  0  0  0
   -3.8472   -0.8582   -4.2624 N   0  0  0  0  0  0  0  0  0  0  0  0
   -4.1703   -0.6436   -5.2066 H   0  0  0  0  0  0  0  0  0  0  0  0
   -3.9298   -1.8566   -4.0716 H   0  0  0  0  0  0  0  0  0  0  0  0
    0.4032   -0.9475    1.3944 C   0  0  0  0  0  0  0  0  0  0  0  0
    1.6104   -0.8633    1.5788 O   0  0  0  0  0  0  0  0  0  0  0  0
   -0.4597   -0.4640    2.3618 N   0  0  0  0  0  0  0  0  0  0  0  0
   -1.4492   -0.6171    2.1991 H   0  0  0  0  0  0  0  0  0  0  0  0
   -0.0167   -0.0854    3.6976 C   0  0  0  0  0  0  0  0  0  0  0  0
    0.7299    0.7139    3.6423 H   0  0  0  0  0  0  0  0  0  0  0  0
   -0.8631    0.2759    4.2894 H   0  0  0  0  0  0  0  0  0  0  0  0
    0.4258   -0.9457    4.2110 H   0  0  0  0  0  0  0  0  0  0  0  0
  1  2  1  0  0  0  0
  2  3  1  0  0  0  0
  2  4  1  0  0  0  0
  2  5  1  0  0  0  0
  5  6  2  0  0  0  0
  5  7  1  0  0  0  0
  7  8  1  0  0  0  0
  7  9  1  0  0  0  0
  9 10  1  0  0  0  0
  9 11  1  0  0  0  0
  9 26  1  0  0  0  0
 11 12  1  0  0  0  0
 11 13  1  0  0  0  0
 11 14  1  0  0  0  0
 14 15  1  0  0  0  0
 14 16  1  0  0  0  0
 14 17  1  0  0  0  0
 17 18  1  0  0  0  0
 17 19  1  0  0  0  0
 17 20  1  0  0  0  0
 20 21  1  0  0  0  0
 20 22  1  0  0  0  0
 20 23  1  0  0  0  0
 23 24  1  0  0  0  0
 23 25  1  0  0  0  0
 26 27  2  0  0  0  0
 26 28  1  0  0  0  0
 28 29  1  0  0  0  0
 28 30  1  0  0  0  0
 30 31  1  0  0  0  0
 30 32  1  0  0  0  0
 30 33  1  0  0  0  0
M  END
$$$$

  -OEChem-03222214063D

 33 32  0     1  0  0  0  0  0999 V2000
   -2.8446   -4.9746    0.8267 H   0  0  0  0  0  0  0  0  0  0  0  0
   -2.8937   -3.9865    0.3604 C   0  0  0  0  0  0  0  0  0  0  0  0
   -3.6831   -3.4074    0.8454 H   0  0  0  0  0  0  0  0  0  0  0  0
   -3.1373   -4.1094   -0.6977 H   0  0  0  0  0  0  0  0  0  0  0  0
   -1.5620   -3.2748    0.5069 C   0  0  0  0  0  0  0  0  0  0  0  0
   -0.6487   -3.8125    1.1063 O   0  0  0  0  0  0  0  0  0  0  0  0
   -1.3965   -2.0199   -0.0441 N   0  0  0  0  0  0  0  0  0  0  0  0
   -2.1781   -1.6406   -0.5695 H   0  0  0  0  0  0  0  0  0  0  0  0
   -0.1358   -1.2589   -0.0358 C   0  0  1  0  0  0  0  0  0  0  0  0
    0.6273   -1.8695   -0.5312 H   0  0  0  0  0  0  0  0  0  0  0  0
   -0.2926    0.0513   -0.8325 C   0  0  0  0  0  0  0  0  0  0  0  0
   -1.0265    0.7008   -0.3440 H   0  0  0  0  0  0  0  0  0  0  0  0
    0.6694    0.5750   -0.8007 H   0  0  0  0  0  0  0  0  0  0  0  0
   -0.6705   -0.1493   -2.3138 C   0  0  0  0  0  0  0  0  0  0  0  0
   -0.2543    0.6923   -2.8782 H   0  0  0  0  0  0  0  0  0  0  0  0
   -0.2037   -1.0621   -2.6995 H   0  0  0  0  0  0  0  0  0  0  0  0
   -2.1872   -0.1856   -2.5634 C   0  0  0  0  0  0  0  0  0  0  0  0
   -2.6234   -1.0912   -2.1373 H   0  0  0  0  0  0  0  0  0  0  0  0
   -2.6618    0.6786   -2.0870 H   0  0  0  0  0  0  0  0  0  0  0  0
   -2.4883   -0.1542   -4.0591 C   0  0  0  0  0  0  0  0  0  0  0  0
   -2.1127    0.7776   -4.4967 H   0  0  0  0  0  0  0  0  0  0  0  0
   -1.9921   -0.9910   -4.5635 H   0  0  0  0  0  0  0  0  0  0  0  0
   -3.9404   -0.2432   -4.2409 N   0  0  0  0  0  0  0  0  0  0  0  0
   -4.1957   -0.1404   -5.2238 H   0  0  0  0  0  0  0  0  0  0  0  0
   -4.3067   -1.1157   -3.8618 H   0  0  0  0  0  0  0  0  0  0  0  0
    0.4099   -0.9469    1.3751 C   0  0  0  0  0  0  0  0  0  0  0  0
    1.6185   -0.8807    1.5572 O   0  0  0  0  0  0  0  0  0  0  0  0
   -0.4449   -0.4882    2.3616 N   0  0  0  0  0  0  0  0  0  0  0  0
   -1.4361   -0.6269    2.1966 H   0  0  0  0  0  0  0  0  0  0  0  0
    0.0051   -0.1674    3.7102 C   0  0  0  0  0  0  0  0  0  0  0  0
    0.7533    0.6317    3.6851 H   0  0  0  0  0  0  0  0  0  0  0  0
   -0.8383    0.1693    4.3204 H   0  0  0  0  0  0  0  0  0  0  0  0
    0.4477   -1.0495    4.1847 H   0  0  0  0  0  0  0  0  0  0  0  0
  1  2  1  0  0  0  0
  2  3  1  0  0  0  0
  2  4  1  0  0  0  0
  2  5  1  0  0  0  0
  5  6  2  0  0  0  0
  5  7  1  0  0  0  0
  7  8  1  0  0  0  0
  7  9  1  0  0  0  0
  9 10  1  0  0  0  0
  9 11  1  0  0  0  0
  9 26  1  0  0  0  0
 11 12  1  0  0  0  0
 11 13  1  0  0  0  0
 11 14  1  0  0  0  0
 14 15  1  0  0  0  0
 14 16  1  0  0  0  0
 14 17  1  0  0  0  0
 17 18  1  0  0  0  0
 17 19  1  0  0  0  0
 17 20  1  0  0  0  0
 20 21  1  0  0  0  0
 20 22  1  0  0  0  0
 20 23  1  0  0  0  0
 23 24  1  0  0  0  0
 23 25  1  0  0  0  0
 26 27  2  0  0  0  0
 26 28  1  0  0  0  0
 28 29  1  0  0  0  0
 28 30  1  0  0  0  0
 30 31  1  0  0  0  0
 30 32  1  0  0  0  0
 30 33  1  0  0  0  0
M  END
$$$$

  -OEChem-03222214063D

 33 32  0     1  0  0  0  0  0999 V2000
   -2.8889   -4.9210    0.6473 H   0  0  0  0  0  0  0  0  0  0  0  0
   -2.9148   -3.9212    0.2043 C   0  0  0  0  0  0  0  0  0  0  0  0
   -3.7187   -3.3493    0.6740 H   0  0  0  0  0  0  0  0  0  0  0  0
   -3.1191   -4.0165   -0.8647 H   0  0  0  0  0  0  0  0  0  0  0  0
   -1.5858   -3.2209    0.4173 C   0  0  0  0  0  0  0  0  0  0  0  0
   -0.7000   -3.7759    1.0415 O   0  0  0  0  0  0  0  0  0  0  0  0
   -1.3929   -1.9554   -0.0997 N   0  0  0  0  0  0  0  0  0  0  0  0
   -2.1404   -1.5740   -0.6715 H   0  0  0  0  0  0  0  0  0  0  0  0
   -0.1188   -1.2157   -0.0521 C   0  0  1  0  0  0  0  0  0  0  0  0
    0.6448   -1.8168   -0.5588 H   0  0  0  0  0  0  0  0  0  0  0  0
   -0.2788    0.1129   -0.8122 C   0  0  0  0  0  0  0  0  0  0  0  0
   -1.0169    0.7473   -0.3102 H   0  0  0  0  0  0  0  0  0  0  0  0
    0.6793    0.6428   -0.7719 H   0  0  0  0  0  0  0  0  0  0  0  0
   -0.6561   -0.0883   -2.2929 C   0  0  0  0  0  0  0  0  0  0  0  0
   -0.0430    0.5870   -2.8993 H   0  0  0  0  0  0  0  0  0  0  0  0
   -0.4242   -1.1102   -2.6123 H   0  0  0  0  0  0  0  0  0  0  0  0
   -2.1338    0.2304   -2.5608 C   0  0  0  0  0  0  0  0  0  0  0  0
   -2.7735   -0.4289   -1.9679 H   0  0  0  0  0  0  0  0  0  0  0  0
   -2.3474    1.2632   -2.2656 H   0  0  0  0  0  0  0  0  0  0  0  0
   -2.4619    0.0549   -4.0406 C   0  0  0  0  0  0  0  0  0  0  0  0
   -1.8495    0.7361   -4.6416 H   0  0  0  0  0  0  0  0  0  0  0  0
   -2.2407   -0.9702   -4.3586 H   0  0  0  0  0  0  0  0  0  0  0  0
   -3.8833    0.3513   -4.2427 N   0  0  0  0  0  0  0  0  0  0  0  0
   -4.1303    0.3206   -5.2325 H   0  0  0  0  0  0  0  0  0  0  0  0
   -4.4748   -0.2780   -3.7011 H   0  0  0  0  0  0  0  0  0  0  0  0
    0.4162   -0.9447    1.3713 C   0  0  0  0  0  0  0  0  0  0  0  0
    1.6239   -0.9037    1.5662 O   0  0  0  0  0  0  0  0  0  0  0  0
   -0.4405   -0.4941    2.3596 N   0  0  0  0  0  0  0  0  0  0  0  0
   -1.4318   -0.6205    2.1846 H   0  0  0  0  0  0  0  0  0  0  0  0
    0.0025   -0.2132    3.7195 C   0  0  0  0  0  0  0  0  0  0  0  0
    0.7852    0.5529    3.7182 H   0  0  0  0  0  0  0  0  0  0  0  0
   -0.8343    0.1519    4.3223 H   0  0  0  0  0  0  0  0  0  0  0  0
    0.3993   -1.1206    4.1868 H   0  0  0  0  0  0  0  0  0  0  0  0
  1  2  1  0  0  0  0
  2  3  1  0  0  0  0
  2  4  1  0  0  0  0
  2  5  1  0  0  0  0
  5  6  2  0  0  0  0
  5  7  1  0  0  0  0
  7  8  1  0  0  0  0
  7  9  1  0  0  0  0
  9 10  1  0  0  0  0
  9 11  1  0  0  0  0
  9 26  1  0  0  0  0
 11 12  1  0  0  0  0
 11 13  1  0  0  0  0
 11 14  1  0  0  0  0
 14 15  1  0  0  0  0
 14 16  1  0  0  0  0
 14 17  1  0  0  0  0
 17 18  1  0  0  0  0
 17 19  1  0  0  0  0
 17 20  1  0  0  0  0
 20 21  1  0  0  0  0
 20 22  1  0  0  0  0
 20 23  1  0  0  0  0
 23 24  1  0  0  0  0
 23 25  1  0  0  0  0
 26 27  2  0  0  0  0
 26 28  1  0  0  0  0
 28 29  1  0  0  0  0
 28 30  1  0  0  0  0
 30 31  1  0  0  0  0
 30 32  1  0  0  0  0
 30 33  1  0  0  0  0
M  END
$$$$

  -OEChem-03222214063D

 33 32  0     1  0  0  0  0  0999 V2000
   -2.8864   -4.9228    0.6451 H   0  0  0  0  0  0  0  0  0  0  0  0
   -2.9121   -3.9278    0.1917 C   0  0  0  0  0  0  0  0  0  0  0  0
   -3.7238   -3.3551    0.6464 H   0  0  0  0  0  0  0  0  0  0  0  0
   -3.1041   -4.0348   -0.8785 H   0  0  0  0  0  0  0  0  0  0  0  0
   -1.5888   -3.2200    0.4133 C   0  0  0  0  0  0  0  0  0  0  0  0
   -0.7054   -3.7701    1.0451 O   0  0  0  0  0  0  0  0  0  0  0  0
   -1.3954   -1.9554   -0.1063 N   0  0  0  0  0  0  0  0  0  0  0  0
   -2.1373   -1.5799   -0.6896 H   0  0  0  0  0  0  0  0  0  0  0  0
   -0.1184   -1.2185   -0.0568 C   0  0  1  0  0  0  0  0  0  0  0  0
    0.6451   -1.8194   -0.5639 H   0  0  0  0  0  0  0  0  0  0  0  0
   -0.2797    0.1087   -0.8166 C   0  0  0  0  0  0  0  0  0  0  0  0
   -1.0289    0.7277   -0.3111 H   0  0  0  0  0  0  0  0  0  0  0  0
    0.6690    0.6553   -0.7723 H   0  0  0  0  0  0  0  0  0  0  0  0
   -0.6579   -0.0969   -2.2976 C   0  0  0  0  0  0  0  0  0  0  0  0
    0.1226    0.3505   -2.9227 H   0  0  0  0  0  0  0  0  0  0  0  0
   -0.6967   -1.1624   -2.5478 H   0  0  0  0  0  0  0  0  0  0  0  0
   -2.0023    0.5617   -2.6289 C   0  0  0  0  0  0  0  0  0  0  0  0
   -2.7929    0.1090   -2.0225 H   0  0  0  0  0  0  0  0  0  0  0  0
   -1.9595    1.6294   -2.3879 H   0  0  0  0  0  0  0  0  0  0  0  0
   -2.3373    0.3960   -4.1084 C   0  0  0  0  0  0  0  0  0  0  0  0
   -1.5640    0.8717   -4.7222 H   0  0  0  0  0  0  0  0  0  0  0  0
   -2.3736   -0.6669   -4.3712 H   0  0  0  0  0  0  0  0  0  0  0  0
   -3.6361    1.0245   -4.3656 N   0  0  0  0  0  0  0  0  0  0  0  0
   -3.8795    0.9803   -5.3556 H   0  0  0  0  0  0  0  0  0  0  0  0
   -4.3694    0.6096   -3.7918 H   0  0  0  0  0  0  0  0  0  0  0  0
    0.4148   -0.9466    1.3668 C   0  0  0  0  0  0  0  0  0  0  0  0
    1.6221   -0.9083    1.5644 O   0  0  0  0  0  0  0  0  0  0  0  0
   -0.4437   -0.4920    2.3517 N   0  0  0  0  0  0  0  0  0  0  0  0
   -1.4347   -0.6186    2.1755 H   0  0  0  0  0  0  0  0  0  0  0  0
   -0.0034   -0.1988    3.7097 C   0  0  0  0  0  0  0  0  0  0  0  0
    0.7664    0.5802    3.7045 H   0  0  0  0  0  0  0  0  0  0  0  0
   -0.8455    0.1545    4.3123 H   0  0  0  0  0  0  0  0  0  0  0  0
    0.4091   -1.0977    4.1800 H   0  0  0  0  0  0  0  0  0  0  0  0
  1  2  1  0  0  0  0
  2  3  1  0  0  0  0
  2  4  1  0  0  0  0
  2  5  1  0  0  0  0
  5  6  2  0  0  0  0
  5  7  1  0  0  0  0
  7  8  1  0  0  0  0
  7  9  1  0  0  0  0
  9 10  1  0  0  0  0
  9 11  1  0  0  0  0
  9 26  1  0  0  0  0
 11 12  1  0  0  0  0
 11 13  1  0  0  0  0
 11 14  1  0  0  0  0
 14 15  1  0  0  0  0
 14 16  1  0  0  0  0
 14 17  1  0  0  0  0
 17 18  1  0  0  0  0
 17 19  1  0  0  0  0
 17 20  1  0  0  0  0
 20 21  1  0  0  0  0
 20 22  1  0  0  0  0
 20 23  1  0  0  0  0
 23 24  1  0  0  0  0
 23 25  1  0  0  0  0
 26 27  2  0  0  0  0
 26 28  1  0  0  0  0
 28 29  1  0  0  0  0
 28 30  1  0  0  0  0
 30 31  1  0  0  0  0
 30 32  1  0  0  0  0
 30 33  1  0  0  0  0
M  END
$$$$

  -OEChem-03222214063D

 33 32  0     1  0  0  0  0  0999 V2000
   -2.8642   -4.9444    0.6633 H   0  0  0  0  0  0  0  0  0  0  0  0
   -2.9040   -3.9456    0.2193 C   0  0  0  0  0  0  0  0  0  0  0  0
   -3.7092   -3.3809    0.6955 H   0  0  0  0  0  0  0  0  0  0  0  0
   -3.1173   -4.0443   -0.8477 H   0  0  0  0  0  0  0  0  0  0  0  0
   -1.5800   -3.2322    0.4203 C   0  0  0  0  0  0  0  0  0  0  0  0
   -0.6845   -3.7781    1.0383 O   0  0  0  0  0  0  0  0  0  0  0  0
   -1.4021   -1.9655   -0.0999 N   0  0  0  0  0  0  0  0  0  0  0  0
   -2.1577   -1.5917   -0.6661 H   0  0  0  0  0  0  0  0  0  0  0  0
   -0.1320   -1.2155   -0.0597 C   0  0  1  0  0  0  0  0  0  0  0  0
    0.6326   -1.8125   -0.5693 H   0  0  0  0  0  0  0  0  0  0  0  0
   -0.2971    0.1099   -0.8253 C   0  0  0  0  0  0  0  0  0  0  0  0
   -1.0648    0.7067   -0.3211 H   0  0  0  0  0  0  0  0  0  0  0  0
    0.6376    0.6795   -0.7736 H   0  0  0  0  0  0  0  0  0  0  0  0
   -0.6740   -0.0903   -2.3084 C   0  0  0  0  0  0  0  0  0  0  0  0
    0.2130    0.0912   -2.9248 H   0  0  0  0  0  0  0  0  0  0  0  0
   -0.9900   -1.1207   -2.4978 H   0  0  0  0  0  0  0  0  0  0  0  0
   -1.8010    0.8592   -2.7317 C   0  0  0  0  0  0  0  0  0  0  0  0
   -2.6979    0.6552   -2.1382 H   0  0  0  0  0  0  0  0  0  0  0  0
   -1.4980    1.8946   -2.5436 H   0  0  0  0  0  0  0  0  0  0  0  0
   -2.1232    0.6937   -4.2144 C   0  0  0  0  0  0  0  0  0  0  0  0
   -1.2364    0.9199   -4.8172 H   0  0  0  0  0  0  0  0  0  0  0  0
   -2.4218   -0.3395   -4.4237 H   0  0  0  0  0  0  0  0  0  0  0  0
   -3.2101    1.6134   -4.5622 N   0  0  0  0  0  0  0  0  0  0  0  0
   -3.4282    1.5701   -5.5581 H   0  0  0  0  0  0  0  0  0  0  0  0
   -4.0411    1.4351   -3.9990 H   0  0  0  0  0  0  0  0  0  0  0  0
    0.4089   -0.9386    1.3606 C   0  0  0  0  0  0  0  0  0  0  0  0
    1.6171   -0.8961    1.5508 O   0  0  0  0  0  0  0  0  0  0  0  0
   -0.4448   -0.4930    2.3540 N   0  0  0  0  0  0  0  0  0  0  0  0
   -1.4362   -0.6243    2.1848 H   0  0  0  0  0  0  0  0  0  0  0  0
    0.0041   -0.2050    3.7105 C   0  0  0  0  0  0  0  0  0  0  0  0
    0.7859    0.5618    3.7022 H   0  0  0  0  0  0  0  0  0  0  0  0
   -0.8303    0.1623    4.3153 H   0  0  0  0  0  0  0  0  0  0  0  0
    0.4038   -1.1098    4.1806 H   0  0  0  0  0  0  0  0  0  0  0  0
  1  2  1  0  0  0  0
  2  3  1  0  0  0  0
  2  4  1  0  0  0  0
  2  5  1  0  0  0  0
  5  6  2  0  0  0  0
  5  7  1  0  0  0  0
  7  8  1  0  0  0  0
  7  9  1  0  0  0  0
  9 10  1  0  0  0  0
  9 11  1  0  0  0  0
  9 26  1  0  0  0  0
 11 12  1  0  0  0  0
 11 13  1  0  0  0  0
 11 14  1  0  0  0  0
 14 15  1  0  0  0  0
 14 16  1  0  0  0  0
 14 17  1  0  0  0  0
 17 18  1  0  0  0  0
 17 19  1  0  0  0  0
 17 20  1  0  0  0  0
 20 21  1  0  0  0  0
 20 22  1  0  0  0  0
 20 23  1  0  0  0  0
 23 24  1  0  0  0  0
 23 25  1  0  0  0  0
 26 27  2  0  0  0  0
 26 28  1  0  0  0  0
 28 29  1  0  0  0  0
 28 30  1  0  0  0  0
 30 31  1  0  0  0  0
 30 32  1  0  0  0  0
 30 33  1  0  0  0  0
M  END
$$$$

  -OEChem-03222214063D

 33 32  0     1  0  0  0  0  0999 V2000
   -2.8450   -4.9701    0.6822 H   0  0  0  0  0  0  0  0  0  0  0  0
   -2.8971   -3.9731    0.2352 C   0  0  0  0  0  0  0  0  0  0  0  0
   -3.7087   -3.4168    0.7096 H   0  0  0  0  0  0  0  0  0  0  0  0
   -3.1093   -4.0777   -0.8314 H   0  0  0  0  0  0  0  0  0  0  0  0
   -1.5816   -3.2440    0.4323 C   0  0  0  0  0  0  0  0  0  0  0  0
   -0.6786   -3.7795    1.0487 O   0  0  0  0  0  0  0  0  0  0  0  0
   -1.4175   -1.9779   -0.0943 N   0  0  0  0  0  0  0  0  0  0  0  0
   -2.1821   -1.6109   -0.6527 H   0  0  0  0  0  0  0  0  0  0  0  0
   -0.1512   -1.2203   -0.0678 C   0  0  1  0  0  0  0  0  0  0  0  0
    0.6108   -1.8192   -0.5794 H   0  0  0  0  0  0  0  0  0  0  0  0
   -0.3144    0.1040   -0.8363 C   0  0  0  0  0  0  0  0  0  0  0  0
   -1.0870    0.6954   -0.3331 H   0  0  0  0  0  0  0  0  0  0  0  0
    0.6177    0.6779   -0.7853 H   0  0  0  0  0  0  0  0  0  0  0  0
   -0.6956   -0.0938   -2.3167 C   0  0  0  0  0  0  0  0  0  0  0  0
    0.2202   -0.1933   -2.9095 H   0  0  0  0  0  0  0  0  0  0  0  0
   -1.2737   -1.0119   -2.4544 H   0  0  0  0  0  0  0  0  0  0  0  0
   -1.5335    1.0836   -2.8291 C   0  0  0  0  0  0  0  0  0  0  0  0
   -2.4726    1.1404   -2.2694 H   0  0  0  0  0  0  0  0  0  0  0  0
   -0.9874    2.0195   -2.6690 H   0  0  0  0  0  0  0  0  0  0  0  0
   -1.8364    0.9273   -4.3170 C   0  0  0  0  0  0  0  0  0  0  0  0
   -0.9016    0.8832   -4.8873 H   0  0  0  0  0  0  0  0  0  0  0  0
   -2.3863   -0.0037   -4.4933 H   0  0  0  0  0  0  0  0  0  0  0  0
   -2.6337    2.0765   -4.7555 N   0  0  0  0  0  0  0  0  0  0  0  0
   -2.8304    2.0318   -5.7556 H   0  0  0  0  0  0  0  0  0  0  0  0
   -3.4960    2.1565   -4.2171 H   0  0  0  0  0  0  0  0  0  0  0  0
    0.3999   -0.9359    1.3472 C   0  0  0  0  0  0  0  0  0  0  0  0
    1.6095   -0.8799    1.5257 O   0  0  0  0  0  0  0  0  0  0  0  0
   -0.4483   -0.4919    2.3461 N   0  0  0  0  0  0  0  0  0  0  0  0
   -1.4403   -0.6328    2.1885 H   0  0  0  0  0  0  0  0  0  0  0  0
    0.0125   -0.1888    3.6952 C   0  0  0  0  0  0  0  0  0  0  0  0
    0.7833    0.5886    3.6716 H   0  0  0  0  0  0  0  0  0  0  0  0
   -0.8191    0.1712    4.3081 H   0  0  0  0  0  0  0  0  0  0  0  0
    0.4297   -1.0852    4.1660 H   0  0  0  0  0  0  0  0  0  0  0  0
  1  2  1  0  0  0  0
  2  3  1  0  0  0  0
  2  4  1  0  0  0  0
  2  5  1  0  0  0  0
  5  6  2  0  0  0  0
  5  7  1  0  0  0  0
  7  8  1  0  0  0  0
  7  9  1  0  0  0  0
  9 10  1  0  0  0  0
  9 11  1  0  0  0  0
  9 26  1  0  0  0  0
 11 12  1  0  0  0  0
 11 13  1  0  0  0  0
 11 14  1  0  0  0  0
 14 15  1  0  0  0  0
 14 16  1  0  0  0  0
 14 17  1  0  0  0  0
 17 18  1  0  0  0  0
 17 19  1  0  0  0  0
 17 20  1  0  0  0  0
 20 21  1  0  0  0  0
 20 22  1  0  0  0  0
 20 23  1  0  0  0  0
 23 24  1  0  0  0  0
 23 25  1  0  0  0  0
 26 27  2  0  0  0  0
 26 28  1  0  0  0  0
 28 29  1  0  0  0  0
 28 30  1  0  0  0  0
 30 31  1  0  0  0  0
 30 32  1  0  0  0  0
 30 33  1  0  0  0  0
M  END
$$$$

  -OEChem-03222214063D

 33 32  0     1  0  0  0  0  0999 V2000
   -2.8423   -4.9674    0.6806 H   0  0  0  0  0  0  0  0  0  0  0  0
   -2.8981   -3.9707    0.2336 C   0  0  0  0  0  0  0  0  0  0  0  0
   -3.7072   -3.4149    0.7133 H   0  0  0  0  0  0  0  0  0  0  0  0
   -3.1170   -4.0765   -0.8317 H   0  0  0  0  0  0  0  0  0  0  0  0
   -1.5820   -3.2401    0.4235 C   0  0  0  0  0  0  0  0  0  0  0  0
   -0.6761   -3.7742    1.0367 O   0  0  0  0  0  0  0  0  0  0  0  0
   -1.4208   -1.9734   -0.1033 N   0  0  0  0  0  0  0  0  0  0  0  0
   -2.1866   -1.6082   -0.6610 H   0  0  0  0  0  0  0  0  0  0  0  0
   -0.1550   -1.2149   -0.0783 C   0  0  1  0  0  0  0  0  0  0  0  0
    0.6072   -1.8129   -0.5912 H   0  0  0  0  0  0  0  0  0  0  0  0
   -0.3174    0.1112   -0.8438 C   0  0  0  0  0  0  0  0  0  0  0  0
   -1.0877    0.7087   -0.3449 H   0  0  0  0  0  0  0  0  0  0  0  0
    0.6192    0.6780   -0.7949 H   0  0  0  0  0  0  0  0  0  0  0  0
   -0.7003   -0.0891   -2.3209 C   0  0  0  0  0  0  0  0  0  0  0  0
    0.1741   -0.4501   -2.8729 H   0  0  0  0  0  0  0  0  0  0  0  0
   -1.4892   -0.8403   -2.4198 H   0  0  0  0  0  0  0  0  0  0  0  0
   -1.2035    1.2250   -2.9289 C   0  0  0  0  0  0  0  0  0  0  0  0
   -2.1020    1.5582   -2.3993 H   0  0  0  0  0  0  0  0  0  0  0  0
   -0.4372    1.9989   -2.8134 H   0  0  0  0  0  0  0  0  0  0  0  0
   -1.5203    1.0520   -4.4119 C   0  0  0  0  0  0  0  0  0  0  0  0
   -0.6224    0.7313   -4.9522 H   0  0  0  0  0  0  0  0  0  0  0  0
   -2.2905    0.2845   -4.5459 H   0  0  0  0  0  0  0  0  0  0  0  0
   -1.9886    2.3356   -4.9424 N   0  0  0  0  0  0  0  0  0  0  0  0
   -2.1896    2.2740   -5.9408 H   0  0  0  0  0  0  0  0  0  0  0  0
   -2.8001    2.6753   -4.4265 H   0  0  0  0  0  0  0  0  0  0  0  0
    0.3970   -0.9315    1.3368 C   0  0  0  0  0  0  0  0  0  0  0  0
    1.6065   -0.8759    1.5152 O   0  0  0  0  0  0  0  0  0  0  0  0
   -0.4512   -0.4892    2.3365 N   0  0  0  0  0  0  0  0  0  0  0  0
   -1.4430   -0.6309    2.1782 H   0  0  0  0  0  0  0  0  0  0  0  0
    0.0086   -0.1890    3.6868 C   0  0  0  0  0  0  0  0  0  0  0  0
    0.7824    0.5856    3.6660 H   0  0  0  0  0  0  0  0  0  0  0  0
   -0.8233    0.1733    4.2983 H   0  0  0  0  0  0  0  0  0  0  0  0
    0.4221   -1.0871    4.1577 H   0  0  0  0  0  0  0  0  0  0  0  0
  1  2  1  0  0  0  0
  2  3  1  0  0  0  0
  2  4  1  0  0  0  0
  2  5  1  0  0  0  0
  5  6  2  0  0  0  0
  5  7  1  0  0  0  0
  7  8  1  0  0  0  0
  7  9  1  0  0  0  0
  9 10  1  0  0  0  0
  9 11  1  0  0  0  0
  9 26  1  0  0  0  0
 11 12  1  0  0  0  0
 11 13  1  0  0  0  0
 11 14  1  0  0  0  0
 14 15  1  0  0  0  0
 14 16  1  0  0  0  0
 14 17  1  0  0  0  0
 17 18  1  0  0  0  0
 17 19  1  0  0  0  0
 17 20  1  0  0  0  0
 20 21  1  0  0  0  0
 20 22  1  0  0  0  0
 20 23  1  0  0  0  0
 23 24  1  0  0  0  0
 23 25  1  0  0  0  0
 26 27  2  0  0  0  0
 26 28  1  0  0  0  0
 28 29  1  0  0  0  0
 28 30  1  0  0  0  0
 30 31  1  0  0  0  0
 30 32  1  0  0  0  0
 30 33  1  0  0  0  0
M  END
$$$$

  -OEChem-03222214063D

 33 32  0     1  0  0  0  0  0999 V2000
   -2.7963   -5.0044    0.7318 H   0  0  0  0  0  0  0  0  0  0  0  0
   -2.8747   -4.0104    0.2818 C   0  0  0  0  0  0  0  0  0  0  0  0
   -3.6805   -3.4632    0.7767 H   0  0  0  0  0  0  0  0  0  0  0  0
   -3.1151   -4.1233   -0.7780 H   0  0  0  0  0  0  0  0  0  0  0  0
   -1.5648   -3.2617    0.4400 C   0  0  0  0  0  0  0  0  0  0  0  0
   -0.6385   -3.7805    1.0358 O   0  0  0  0  0  0  0  0  0  0  0  0
   -1.4362   -1.9911   -0.0862 N   0  0  0  0  0  0  0  0  0  0  0  0
   -2.2173   -1.6394   -0.6300 H   0  0  0  0  0  0  0  0  0  0  0  0
   -0.1846   -1.2094   -0.0773 C   0  0  1  0  0  0  0  0  0  0  0  0
    0.5728   -1.8075   -0.5963 H   0  0  0  0  0  0  0  0  0  0  0  0
   -0.3439    0.1132   -0.8551 C   0  0  0  0  0  0  0  0  0  0  0  0
   -0.9114    0.8192   -0.2393 H   0  0  0  0  0  0  0  0  0  0  0  0
    0.6500    0.5451   -1.0172 H   0  0  0  0  0  0  0  0  0  0  0  0
   -1.0596   -0.0384   -2.2086 C   0  0  0  0  0  0  0  0  0  0  0  0
   -0.4970   -0.7345   -2.8398 H   0  0  0  0  0  0  0  0  0  0  0  0
   -2.0661   -0.4432   -2.0693 H   0  0  0  0  0  0  0  0  0  0  0  0
   -1.1699    1.3220   -2.9062 C   0  0  0  0  0  0  0  0  0  0  0  0
   -1.7434    2.0125   -2.2793 H   0  0  0  0  0  0  0  0  0  0  0  0
   -0.1692    1.7445   -3.0458 H   0  0  0  0  0  0  0  0  0  0  0  0
   -1.8493    1.1864   -4.2660 C   0  0  0  0  0  0  0  0  0  0  0  0
   -1.2789    0.5022   -4.9041 H   0  0  0  0  0  0  0  0  0  0  0  0
   -2.8584    0.7773   -4.1446 H   0  0  0  0  0  0  0  0  0  0  0  0
   -1.9132    2.5114   -4.8894 N   0  0  0  0  0  0  0  0  0  0  0  0
   -2.3530    2.4693   -5.8091 H   0  0  0  0  0  0  0  0  0  0  0  0
   -2.3909    3.1810   -4.2864 H   0  0  0  0  0  0  0  0  0  0  0  0
    0.3827   -0.9189    1.3300 C   0  0  0  0  0  0  0  0  0  0  0  0
    1.5931   -0.8420    1.4931 O   0  0  0  0  0  0  0  0  0  0  0  0
   -0.4616   -0.4950    2.3408 N   0  0  0  0  0  0  0  0  0  0  0  0
   -1.4520   -0.6547    2.1916 H   0  0  0  0  0  0  0  0  0  0  0  0
    0.0060   -0.2051    3.6905 C   0  0  0  0  0  0  0  0  0  0  0  0
    0.7757    0.5737    3.6723 H   0  0  0  0  0  0  0  0  0  0  0  0
   -0.8238    0.1471    4.3106 H   0  0  0  0  0  0  0  0  0  0  0  0
    0.4272   -1.1055    4.1501 H   0  0  0  0  0  0  0  0  0  0  0  0
  1  2  1  0  0  0  0
  2  3  1  0  0  0  0
  2  4  1  0  0  0  0
  2  5  1  0  0  0  0
  5  6  2  0  0  0  0
  5  7  1  0  0  0  0
  7  8  1  0  0  0  0
  7  9  1  0  0  0  0
  9 10  1  0  0  0  0
  9 11  1  0  0  0  0
  9 26  1  0  0  0  0
 11 12  1  0  0  0  0
 11 13  1  0  0  0  0
 11 14  1  0  0  0  0
 14 15  1  0  0  0  0
 14 16  1  0  0  0  0
 14 17  1  0  0  0  0
 17 18  1  0  0  0  0
 17 19  1  0  0  0  0
 17 20  1  0  0  0  0
 20 21  1  0  0  0  0
 20 22  1  0  0  0  0
 20 23  1  0  0  0  0
 23 24  1  0  0  0  0
 23 25  1  0  0  0  0
 26 27  2  0  0  0  0
 26 28  1  0  0  0  0
 28 29  1  0  0  0  0
 28 30  1  0  0  0  0
 30 31  1  0  0  0  0
 30 32  1  0  0  0  0
 30 33  1  0  0  0  0
M  END
$$$$

  -OEChem-03222214063D

 33 32  0     1  0  0  0  0  0999 V2000
   -2.8322   -4.9752    0.6887 H   0  0  0  0  0  0  0  0  0  0  0  0
   -2.8946   -3.9810    0.2367 C   0  0  0  0  0  0  0  0  0  0  0  0
   -3.7066   -3.4279    0.7147 H   0  0  0  0  0  0  0  0  0  0  0  0
   -3.1146   -4.0930   -0.8277 H   0  0  0  0  0  0  0  0  0  0  0  0
   -1.5827   -3.2414    0.4208 C   0  0  0  0  0  0  0  0  0  0  0  0
   -0.6708   -3.7690    1.0308 O   0  0  0  0  0  0  0  0  0  0  0  0
   -1.4355   -1.9699   -0.0984 N   0  0  0  0  0  0  0  0  0  0  0  0
   -2.2047   -1.6112   -0.6550 H   0  0  0  0  0  0  0  0  0  0  0  0
   -0.1745   -1.2027   -0.0783 C   0  0  1  0  0  0  0  0  0  0  0  0
    0.5799   -1.8026   -0.6000 H   0  0  0  0  0  0  0  0  0  0  0  0
   -0.3307    0.1248   -0.8457 C   0  0  0  0  0  0  0  0  0  0  0  0
   -0.8854    0.8431   -0.2326 H   0  0  0  0  0  0  0  0  0  0  0  0
    0.6701    0.5396   -1.0110 H   0  0  0  0  0  0  0  0  0  0  0  0
   -1.0510   -0.0330   -2.1951 C   0  0  0  0  0  0  0  0  0  0  0  0
   -0.6448   -0.9015   -2.7251 H   0  0  0  0  0  0  0  0  0  0  0  0
   -2.1204   -0.2007   -2.0333 H   0  0  0  0  0  0  0  0  0  0  0  0
   -0.8503    1.2162   -3.0600 C   0  0  0  0  0  0  0  0  0  0  0  0
   -1.2426    2.0933   -2.5352 H   0  0  0  0  0  0  0  0  0  0  0  0
    0.2193    1.3766   -3.2330 H   0  0  0  0  0  0  0  0  0  0  0  0
   -1.5574    1.0679   -4.4041 C   0  0  0  0  0  0  0  0  0  0  0  0
   -1.1696    0.1929   -4.9378 H   0  0  0  0  0  0  0  0  0  0  0  0
   -2.6327    0.9243   -4.2502 H   0  0  0  0  0  0  0  0  0  0  0  0
   -1.3171    2.2792   -5.1934 N   0  0  0  0  0  0  0  0  0  0  0  0
   -1.7638    2.2218   -6.1088 H   0  0  0  0  0  0  0  0  0  0  0  0
   -1.6198    3.1136   -4.6909 H   0  0  0  0  0  0  0  0  0  0  0  0
    0.3913   -0.9233    1.3316 C   0  0  0  0  0  0  0  0  0  0  0  0
    1.6019   -0.8529    1.4968 O   0  0  0  0  0  0  0  0  0  0  0  0
   -0.4520   -0.4928    2.3404 N   0  0  0  0  0  0  0  0  0  0  0  0
   -1.4426   -0.6529    2.1924 H   0  0  0  0  0  0  0  0  0  0  0  0
    0.0172   -0.1997    3.6886 C   0  0  0  0  0  0  0  0  0  0  0  0
    0.7840    0.5819    3.6669 H   0  0  0  0  0  0  0  0  0  0  0  0
   -0.8122    0.1504    4.3102 H   0  0  0  0  0  0  0  0  0  0  0  0
    0.4422   -1.0983    4.1481 H   0  0  0  0  0  0  0  0  0  0  0  0
  1  2  1  0  0  0  0
  2  3  1  0  0  0  0
  2  4  1  0  0  0  0
  2  5  1  0  0  0  0
  5  6  2  0  0  0  0
  5  7  1  0  0  0  0
  7  8  1  0  0  0  0
  7  9  1  0  0  0  0
  9 10  1  0  0  0  0
  9 11  1  0  0  0  0
  9 26  1  0  0  0  0
 11 12  1  0  0  0  0
 11 13  1  0  0  0  0
 11 14  1  0  0  0  0
 14 15  1  0  0  0  0
 14 16  1  0  0  0  0
 14 17  1  0  0  0  0
 17 18  1  0  0  0  0
 17 19  1  0  0  0  0
 17 20  1  0  0  0  0
 20 21  1  0  0  0  0
 20 22  1  0  0  0  0
 20 23  1  0  0  0  0
 23 24  1  0  0  0  0
 23 25  1  0  0  0  0
 26 27  2  0  0  0  0
 26 28  1  0  0  0  0
 28 29  1  0  0  0  0
 28 30  1  0  0  0  0
 30 31  1  0  0  0  0
 30 32  1  0  0  0  0
 30 33  1  0  0  0  0
M  END
$$$$

  -OEChem-03222214063D

 33 32  0     1  0  0  0  0  0999 V2000
   -2.8490   -4.9563    0.6758 H   0  0  0  0  0  0  0  0  0  0  0  0
   -2.9047   -3.9622    0.2229 C   0  0  0  0  0  0  0  0  0  0  0  0
   -3.7165   -3.4053    0.6967 H   0  0  0  0  0  0  0  0  0  0  0  0
   -3.1199   -4.0739   -0.8425 H   0  0  0  0  0  0  0  0  0  0  0  0
   -1.5900   -3.2296    0.4131 C   0  0  0  0  0  0  0  0  0  0  0  0
   -0.6827   -3.7638    1.0241 O   0  0  0  0  0  0  0  0  0  0  0  0
   -1.4337   -1.9585   -0.1039 N   0  0  0  0  0  0  0  0  0  0  0  0
   -2.1982   -1.5943   -0.6636 H   0  0  0  0  0  0  0  0  0  0  0  0
   -0.1679   -1.1997   -0.0792 C   0  0  1  0  0  0  0  0  0  0  0  0
    0.5842   -1.8020   -0.6011 H   0  0  0  0  0  0  0  0  0  0  0  0
   -0.3223    0.1282   -0.8452 C   0  0  0  0  0  0  0  0  0  0  0  0
   -0.8714    0.8522   -0.2341 H   0  0  0  0  0  0  0  0  0  0  0  0
    0.6822    0.5355   -1.0071 H   0  0  0  0  0  0  0  0  0  0  0  0
   -1.0441   -0.0284   -2.1962 C   0  0  0  0  0  0  0  0  0  0  0  0
   -0.8323   -1.0186   -2.6142 H   0  0  0  0  0  0  0  0  0  0  0  0
   -2.1261    0.0548   -2.0512 H   0  0  0  0  0  0  0  0  0  0  0  0
   -0.5583    1.0240   -3.1992 C   0  0  0  0  0  0  0  0  0  0  0  0
   -0.7323    2.0257   -2.7929 H   0  0  0  0  0  0  0  0  0  0  0  0
    0.5185    0.9082   -3.3634 H   0  0  0  0  0  0  0  0  0  0  0  0
   -1.2862    0.8821   -4.5329 C   0  0  0  0  0  0  0  0  0  0  0  0
   -1.1173   -0.1177   -4.9483 H   0  0  0  0  0  0  0  0  0  0  0  0
   -2.3643    1.0136   -4.3893 H   0  0  0  0  0  0  0  0  0  0  0  0
   -0.7718    1.8988   -5.4544 N   0  0  0  0  0  0  0  0  0  0  0  0
   -1.2265    1.8400   -6.3656 H   0  0  0  0  0  0  0  0  0  0  0  0
   -0.8642    2.8348   -5.0598 H   0  0  0  0  0  0  0  0  0  0  0  0
    0.3967   -0.9250    1.3319 C   0  0  0  0  0  0  0  0  0  0  0  0
    1.6074   -0.8648    1.5006 O   0  0  0  0  0  0  0  0  0  0  0  0
   -0.4461   -0.4897    2.3389 N   0  0  0  0  0  0  0  0  0  0  0  0
   -1.4379   -0.6391    2.1872 H   0  0  0  0  0  0  0  0  0  0  0  0
    0.0209   -0.2035    3.6893 C   0  0  0  0  0  0  0  0  0  0  0  0
    0.7927    0.5732    3.6723 H   0  0  0  0  0  0  0  0  0  0  0  0
   -0.8084    0.1498    4.3094 H   0  0  0  0  0  0  0  0  0  0  0  0
    0.4393   -1.1061    4.1471 H   0  0  0  0  0  0  0  0  0  0  0  0
  1  2  1  0  0  0  0
  2  3  1  0  0  0  0
  2  4  1  0  0  0  0
  2  5  1  0  0  0  0
  5  6  2  0  0  0  0
  5  7  1  0  0  0  0
  7  8  1  0  0  0  0
  7  9  1  0  0  0  0
  9 10  1  0  0  0  0
  9 11  1  0  0  0  0
  9 26  1  0  0  0  0
 11 12  1  0  0  0  0
 11 13  1  0  0  0  0
 11 14  1  0  0  0  0
 14 15  1  0  0  0  0
 14 16  1  0  0  0  0
 14 17  1  0  0  0  0
 17 18  1  0  0  0  0
 17 19  1  0  0  0  0
 17 20  1  0  0  0  0
 20 21  1  0  0  0  0
 20 22  1  0  0  0  0
 20 23  1  0  0  0  0
 23 24  1  0  0  0  0
 23 25  1  0  0  0  0
 26 27  2  0  0  0  0
 26 28  1  0  0  0  0
 28 29  1  0  0  0  0
 28 30  1  0  0  0  0
 30 31  1  0  0  0  0
 30 32  1  0  0  0  0
 30 33  1  0  0  0  0
M  END
$$$$

  -OEChem-03222214063D

 33 32  0     1  0  0  0  0  0999 V2000
   -2.8601   -4.9545    0.6926 H   0  0  0  0  0  0  0  0  0  0  0  0
   -2.9134   -3.9619    0.2359 C   0  0  0  0  0  0  0  0  0  0  0  0
   -3.7214   -3.3999    0.7105 H   0  0  0  0  0  0  0  0  0  0  0  0
   -3.1324   -4.0769   -0.8284 H   0  0  0  0  0  0  0  0  0  0  0  0
   -1.5954   -3.2334    0.4190 C   0  0  0  0  0  0  0  0  0  0  0  0
   -0.6884   -3.7678    1.0303 O   0  0  0  0  0  0  0  0  0  0  0  0
   -1.4379   -1.9639   -0.1014 N   0  0  0  0  0  0  0  0  0  0  0  0
   -2.2020   -1.6018   -0.6632 H   0  0  0  0  0  0  0  0  0  0  0  0
   -0.1701   -1.2071   -0.0833 C   0  0  1  0  0  0  0  0  0  0  0  0
    0.5795   -1.8116   -0.6069 H   0  0  0  0  0  0  0  0  0  0  0  0
   -0.3217    0.1215   -0.8508 C   0  0  0  0  0  0  0  0  0  0  0  0
   -0.8689    0.8431   -0.2352 H   0  0  0  0  0  0  0  0  0  0  0  0
    0.6830    0.5311   -1.0056 H   0  0  0  0  0  0  0  0  0  0  0  0
   -1.0475   -0.0177   -2.2052 C   0  0  0  0  0  0  0  0  0  0  0  0
   -1.0748   -1.0680   -2.5139 H   0  0  0  0  0  0  0  0  0  0  0  0
   -2.0804    0.3320   -2.1068 H   0  0  0  0  0  0  0  0  0  0  0  0
   -0.3194    0.7667   -3.3031 C   0  0  0  0  0  0  0  0  0  0  0  0
   -0.2561    1.8226   -3.0201 H   0  0  0  0  0  0  0  0  0  0  0  0
    0.7010    0.3839   -3.4129 H   0  0  0  0  0  0  0  0  0  0  0  0
   -1.0488    0.6415   -4.6378 C   0  0  0  0  0  0  0  0  0  0  0  0
   -1.1220   -0.4126   -4.9283 H   0  0  0  0  0  0  0  0  0  0  0  0
   -2.0647    1.0426   -4.5507 H   0  0  0  0  0  0  0  0  0  0  0  0
   -0.2970    1.3858   -5.6518 N   0  0  0  0  0  0  0  0  0  0  0  0
   -0.7482    1.3301   -6.5650 H   0  0  0  0  0  0  0  0  0  0  0  0
   -0.1603    2.3569   -5.3707 H   0  0  0  0  0  0  0  0  0  0  0  0
    0.3988   -0.9313    1.3261 C   0  0  0  0  0  0  0  0  0  0  0  0
    1.6099   -0.8706    1.4916 O   0  0  0  0  0  0  0  0  0  0  0  0
   -0.4413   -0.4930    2.3342 N   0  0  0  0  0  0  0  0  0  0  0  0
   -1.4331   -0.6448    2.1858 H   0  0  0  0  0  0  0  0  0  0  0  0
    0.0292   -0.2020    3.6823 C   0  0  0  0  0  0  0  0  0  0  0  0
    0.8010    0.5747    3.6601 H   0  0  0  0  0  0  0  0  0  0  0  0
   -0.7983    0.1537    4.3034 H   0  0  0  0  0  0  0  0  0  0  0  0
    0.4479   -1.1030    4.1428 H   0  0  0  0  0  0  0  0  0  0  0  0
  1  2  1  0  0  0  0
  2  3  1  0  0  0  0
  2  4  1  0  0  0  0
  2  5  1  0  0  0  0
  5  6  2  0  0  0  0
  5  7  1  0  0  0  0
  7  8  1  0  0  0  0
  7  9  1  0  0  0  0
  9 10  1  0  0  0  0
  9 11  1  0  0  0  0
  9 26  1  0  0  0  0
 11 12  1  0  0  0  0
 11 13  1  0  0  0  0
 11 14  1  0  0  0  0
 14 15  1  0  0  0  0
 14 16  1  0  0  0  0
 14 17  1  0  0  0  0
 17 18  1  0  0  0  0
 17 19  1  0  0  0  0
 17 20  1  0  0  0  0
 20 21  1  0  0  0  0
 20 22  1  0  0  0  0
 20 23  1  0  0  0  0
 23 24  1  0  0  0  0
 23 25  1  0  0  0  0
 26 27  2  0  0  0  0
 26 28  1  0  0  0  0
 28 29  1  0  0  0  0
 28 30  1  0  0  0  0
 30 31  1  0  0  0  0
 30 32  1  0  0  0  0
 30 33  1  0  0  0  0
M  END
$$$$

  -OEChem-03222214063D

 33 32  0     1  0  0  0  0  0999 V2000
   -2.8696   -4.9602    0.7195 H   0  0  0  0  0  0  0  0  0  0  0  0
   -2.9228   -3.9689    0.2600 C   0  0  0  0  0  0  0  0  0  0  0  0
   -3.7253   -3.4027    0.7384 H   0  0  0  0  0  0  0  0  0  0  0  0
   -3.1505   -4.0871   -0.8021 H   0  0  0  0  0  0  0  0  0  0  0  0
   -1.6016   -3.2428    0.4303 C   0  0  0  0  0  0  0  0  0  0  0  0
   -0.6897   -3.7762    1.0354 O   0  0  0  0  0  0  0  0  0  0  0  0
   -1.4485   -1.9739   -0.0928 N   0  0  0  0  0  0  0  0  0  0  0  0
   -2.2211   -1.6090   -0.6408 H   0  0  0  0  0  0  0  0  0  0  0  0
   -0.1820   -1.2151   -0.0881 C   0  0  1  0  0  0  0  0  0  0  0  0
    0.5625   -1.8232   -0.6147 H   0  0  0  0  0  0  0  0  0  0  0  0
   -0.3256    0.1130   -0.8604 C   0  0  0  0  0  0  0  0  0  0  0  0
   -0.8833    0.8210   -0.2384 H   0  0  0  0  0  0  0  0  0  0  0  0
    0.6748    0.5374   -1.0020 H   0  0  0  0  0  0  0  0  0  0  0  0
   -1.0531   -0.0014   -2.2193 C   0  0  0  0  0  0  0  0  0  0  0  0
   -1.3613   -1.0318   -2.4192 H   0  0  0  0  0  0  0  0  0  0  0  0
   -1.9555    0.6186   -2.1976 H   0  0  0  0  0  0  0  0  0  0  0  0
   -0.1442    0.4528   -3.3677 C   0  0  0  0  0  0  0  0  0  0  0  0
    0.1662    1.4898   -3.2037 H   0  0  0  0  0  0  0  0  0  0  0  0
    0.7560   -0.1711   -3.3902 H   0  0  0  0  0  0  0  0  0  0  0  0
   -0.8634    0.3462   -4.7095 C   0  0  0  0  0  0  0  0  0  0  0  0
   -1.1889   -0.6859   -4.8812 H   0  0  0  0  0  0  0  0  0  0  0  0
   -1.7510    0.9885   -4.7116 H   0  0  0  0  0  0  0  0  0  0  0  0
    0.0619    0.7582   -5.7683 N   0  0  0  0  0  0  0  0  0  0  0  0
   -0.3808    0.7171   -6.6864 H   0  0  0  0  0  0  0  0  0  0  0  0
    0.4398    1.6882   -5.5862 H   0  0  0  0  0  0  0  0  0  0  0  0
    0.3972   -0.9380    1.3168 C   0  0  0  0  0  0  0  0  0  0  0  0
    1.6092   -0.8676    1.4713 O   0  0  0  0  0  0  0  0  0  0  0  0
   -0.4366   -0.5006    2.3306 N   0  0  0  0  0  0  0  0  0  0  0  0
   -1.4284   -0.6623    2.1925 H   0  0  0  0  0  0  0  0  0  0  0  0
    0.0438   -0.2036    3.6737 C   0  0  0  0  0  0  0  0  0  0  0  0
    0.8141    0.5740    3.6427 H   0  0  0  0  0  0  0  0  0  0  0  0
   -0.7796    0.1532    4.2996 H   0  0  0  0  0  0  0  0  0  0  0  0
    0.4683   -1.1020    4.1339 H   0  0  0  0  0  0  0  0  0  0  0  0
  1  2  1  0  0  0  0
  2  3  1  0  0  0  0
  2  4  1  0  0  0  0
  2  5  1  0  0  0  0
  5  6  2  0  0  0  0
  5  7  1  0  0  0  0
  7  8  1  0  0  0  0
  7  9  1  0  0  0  0
  9 10  1  0  0  0  0
  9 11  1  0  0  0  0
  9 26  1  0  0  0  0
 11 12  1  0  0  0  0
 11 13  1  0  0  0  0
 11 14  1  0  0  0  0
 14 15  1  0  0  0  0
 14 16  1  0  0  0  0
 14 17  1  0  0  0  0
 17 18  1  0  0  0  0
 17 19  1  0  0  0  0
 17 20  1  0  0  0  0
 20 21  1  0  0  0  0
 20 22  1  0  0  0  0
 20 23  1  0  0  0  0
 23 24  1  0  0  0  0
 23 25  1  0  0  0  0
 26 27  2  0  0  0  0
 26 28  1  0  0  0  0
 28 29  1  0  0  0  0
 28 30  1  0  0  0  0
 30 31  1  0  0  0  0
 30 32  1  0  0  0  0
 30 33  1  0  0  0  0
M  END
$$$$

  -OEChem-03222214063D

 33 32  0     1  0  0  0  0  0999 V2000
   -2.8730   -4.9684    0.7254 H   0  0  0  0  0  0  0  0  0  0  0  0
   -2.9299   -3.9788    0.2631 C   0  0  0  0  0  0  0  0  0  0  0  0
   -3.7394   -3.4165    0.7344 H   0  0  0  0  0  0  0  0  0  0  0  0
   -3.1490   -4.1004   -0.8005 H   0  0  0  0  0  0  0  0  0  0  0  0
   -1.6145   -3.2444    0.4409 C   0  0  0  0  0  0  0  0  0  0  0  0
   -0.7032   -3.7737    1.0504 O   0  0  0  0  0  0  0  0  0  0  0  0
   -1.4645   -1.9758   -0.0840 N   0  0  0  0  0  0  0  0  0  0  0  0
   -2.2349   -1.6180   -0.6398 H   0  0  0  0  0  0  0  0  0  0  0  0
   -0.1963   -1.2203   -0.0883 C   0  0  1  0  0  0  0  0  0  0  0  0
    0.5415   -1.8361   -0.6156 H   0  0  0  0  0  0  0  0  0  0  0  0
   -0.3234    0.1088   -0.8642 C   0  0  0  0  0  0  0  0  0  0  0  0
   -0.8891    0.8076   -0.2387 H   0  0  0  0  0  0  0  0  0  0  0  0
    0.6749    0.5415   -0.9949 H   0  0  0  0  0  0  0  0  0  0  0  0
   -1.0487    0.0155   -2.2258 C   0  0  0  0  0  0  0  0  0  0  0  0
   -1.6337   -0.9027   -2.3193 H   0  0  0  0  0  0  0  0  0  0  0  0
   -1.7452    0.8565   -2.3098 H   0  0  0  0  0  0  0  0  0  0  0  0
   -0.0451    0.0944   -3.3822 C   0  0  0  0  0  0  0  0  0  0  0  0
    0.5169    1.0322   -3.3219 H   0  0  0  0  0  0  0  0  0  0  0  0
    0.6684   -0.7326   -3.3020 H   0  0  0  0  0  0  0  0  0  0  0  0
   -0.7563    0.0180   -4.7305 C   0  0  0  0  0  0  0  0  0  0  0  0
   -1.3378   -0.9082   -4.7982 H   0  0  0  0  0  0  0  0  0  0  0  0
   -1.4459    0.8624   -4.8394 H   0  0  0  0  0  0  0  0  0  0  0  0
    0.2525    0.0492   -5.7926 N   0  0  0  0  0  0  0  0  0  0  0  0
   -0.1786    0.0208   -6.7167 H   0  0  0  0  0  0  0  0  0  0  0  0
    0.8613    0.8625   -5.6989 H   0  0  0  0  0  0  0  0  0  0  0  0
    0.3936   -0.9445    1.3127 C   0  0  0  0  0  0  0  0  0  0  0  0
    1.6068   -0.8740    1.4578 O   0  0  0  0  0  0  0  0  0  0  0  0
   -0.4313   -0.5050    2.3329 N   0  0  0  0  0  0  0  0  0  0  0  0
   -1.4245   -0.6651    2.2033 H   0  0  0  0  0  0  0  0  0  0  0  0
    0.0606   -0.2029    3.6710 C   0  0  0  0  0  0  0  0  0  0  0  0
    0.8200    0.5852    3.6317 H   0  0  0  0  0  0  0  0  0  0  0  0
   -0.7603    0.1422    4.3066 H   0  0  0  0  0  0  0  0  0  0  0  0
    0.5022   -1.0957    4.1263 H   0  0  0  0  0  0  0  0  0  0  0  0
  1  2  1  0  0  0  0
  2  3  1  0  0  0  0
  2  4  1  0  0  0  0
  2  5  1  0  0  0  0
  5  6  2  0  0  0  0
  5  7  1  0  0  0  0
  7  8  1  0  0  0  0
  7  9  1  0  0  0  0
  9 10  1  0  0  0  0
  9 11  1  0  0  0  0
  9 26  1  0  0  0  0
 11 12  1  0  0  0  0
 11 13  1  0  0  0  0
 11 14  1  0  0  0  0
 14 15  1  0  0  0  0
 14 16  1  0  0  0  0
 14 17  1  0  0  0  0
 17 18  1  0  0  0  0
 17 19  1  0  0  0  0
 17 20  1  0  0  0  0
 20 21  1  0  0  0  0
 20 22  1  0  0  0  0
 20 23  1  0  0  0  0
 23 24  1  0  0  0  0
 23 25  1  0  0  0  0
 26 27  2  0  0  0  0
 26 28  1  0  0  0  0
 28 29  1  0  0  0  0
 28 30  1  0  0  0  0
 30 31  1  0  0  0  0
 30 32  1  0  0  0  0
 30 33  1  0  0  0  0
M  END
$$$$

  -OEChem-03222214063D

 33 32  0     1  0  0  0  0  0999 V2000
   -2.8757   -4.9666    0.7098 H   0  0  0  0  0  0  0  0  0  0  0  0
   -2.9311   -3.9766    0.2479 C   0  0  0  0  0  0  0  0  0  0  0  0
   -3.7495   -3.4189    0.7093 H   0  0  0  0  0  0  0  0  0  0  0  0
   -3.1355   -4.0983   -0.8186 H   0  0  0  0  0  0  0  0  0  0  0  0
   -1.6216   -3.2362    0.4442 C   0  0  0  0  0  0  0  0  0  0  0  0
   -0.7199   -3.7591    1.0734 O   0  0  0  0  0  0  0  0  0  0  0  0
   -1.4675   -1.9687   -0.0827 N   0  0  0  0  0  0  0  0  0  0  0  0
   -2.2255   -1.6229   -0.6620 H   0  0  0  0  0  0  0  0  0  0  0  0
   -0.1957   -1.2196   -0.0852 C   0  0  1  0  0  0  0  0  0  0  0  0
    0.5398   -1.8408   -0.6089 H   0  0  0  0  0  0  0  0  0  0  0  0
   -0.3096    0.1107   -0.8614 C   0  0  0  0  0  0  0  0  0  0  0  0
   -0.8759    0.8099   -0.2371 H   0  0  0  0  0  0  0  0  0  0  0  0
    0.6897    0.5406   -0.9919 H   0  0  0  0  0  0  0  0  0  0  0  0
   -1.0303    0.0241   -2.2231 C   0  0  0  0  0  0  0  0  0  0  0  0
   -1.8341   -0.7157   -2.2199 H   0  0  0  0  0  0  0  0  0  0  0  0
   -1.4902    0.9967   -2.4281 H   0  0  0  0  0  0  0  0  0  0  0  0
   -0.0335   -0.2802   -3.3476 C   0  0  0  0  0  0  0  0  0  0  0  0
    0.7459    0.4884   -3.3715 H   0  0  0  0  0  0  0  0  0  0  0  0
    0.4490   -1.2443   -3.1556 H   0  0  0  0  0  0  0  0  0  0  0  0
   -0.7354   -0.3293   -4.7018 C   0  0  0  0  0  0  0  0  0  0  0  0
   -1.5357   -1.0773   -4.6851 H   0  0  0  0  0  0  0  0  0  0  0  0
   -1.1834    0.6445   -4.9281 H   0  0  0  0  0  0  0  0  0  0  0  0
    0.2522   -0.6819   -5.7252 N   0  0  0  0  0  0  0  0  0  0  0  0
   -0.1670   -0.7072   -6.6547 H   0  0  0  0  0  0  0  0  0  0  0  0
    1.0495   -0.0457   -5.7021 H   0  0  0  0  0  0  0  0  0  0  0  0
    0.3931   -0.9452    1.3169 C   0  0  0  0  0  0  0  0  0  0  0  0
    1.6067   -0.8799    1.4631 O   0  0  0  0  0  0  0  0  0  0  0  0
   -0.4301   -0.5006    2.3362 N   0  0  0  0  0  0  0  0  0  0  0  0
   -1.4237   -0.6585    2.2060 H   0  0  0  0  0  0  0  0  0  0  0  0
    0.0623   -0.2096    3.6769 C   0  0  0  0  0  0  0  0  0  0  0  0
    0.8269    0.5738    3.6439 H   0  0  0  0  0  0  0  0  0  0  0  0
   -0.7572    0.1368    4.3136 H   0  0  0  0  0  0  0  0  0  0  0  0
    0.4974   -1.1080    4.1274 H   0  0  0  0  0  0  0  0  0  0  0  0
  1  2  1  0  0  0  0
  2  3  1  0  0  0  0
  2  4  1  0  0  0  0
  2  5  1  0  0  0  0
  5  6  2  0  0  0  0
  5  7  1  0  0  0  0
  7  8  1  0  0  0  0
  7  9  1  0  0  0  0
  9 10  1  0  0  0  0
  9 11  1  0  0  0  0
  9 26  1  0  0  0  0
 11 12  1  0  0  0  0
 11 13  1  0  0  0  0
 11 14  1  0  0  0  0
 14 15  1  0  0  0  0
 14 16  1  0  0  0  0
 14 17  1  0  0  0  0
 17 18  1  0  0  0  0
 17 19  1  0  0  0  0
 17 20  1  0  0  0  0
 20 21  1  0  0  0  0
 20 22  1  0  0  0  0
 20 23  1  0  0  0  0
 23 24  1  0  0  0  0
 23 25  1  0  0  0  0
 26 27  2  0  0  0  0
 26 28  1  0  0  0  0
 28 29  1  0  0  0  0
 28 30  1  0  0  0  0
 30 31  1  0  0  0  0
 30 32  1  0  0  0  0
 30 33  1  0  0  0  0
M  END
$$$$

  -OEChem-03222214063D

 33 32  0     1  0  0  0  0  0999 V2000
   -2.8754   -4.9663    0.6797 H   0  0  0  0  0  0  0  0  0  0  0  0
   -2.9226   -3.9762    0.2172 C   0  0  0  0  0  0  0  0  0  0  0  0
   -3.7603   -3.4248    0.6509 H   0  0  0  0  0  0  0  0  0  0  0  0
   -3.0896   -4.0989   -0.8555 H   0  0  0  0  0  0  0  0  0  0  0  0
   -1.6259   -3.2265    0.4578 C   0  0  0  0  0  0  0  0  0  0  0  0
   -0.7471   -3.7388    1.1271 O   0  0  0  0  0  0  0  0  0  0  0  0
   -1.4579   -1.9641   -0.0772 N   0  0  0  0  0  0  0  0  0  0  0  0
   -2.1880   -1.6410   -0.7035 H   0  0  0  0  0  0  0  0  0  0  0  0
   -0.1798   -1.2261   -0.0725 C   0  0  1  0  0  0  0  0  0  0  0  0
    0.5571   -1.8534   -0.5865 H   0  0  0  0  0  0  0  0  0  0  0  0
   -0.2889    0.1035   -0.8511 C   0  0  0  0  0  0  0  0  0  0  0  0
   -0.8444    0.8155   -0.2317 H   0  0  0  0  0  0  0  0  0  0  0  0
    0.7151    0.5183   -0.9941 H   0  0  0  0  0  0  0  0  0  0  0  0
   -1.0079    0.0122   -2.2108 C   0  0  0  0  0  0  0  0  0  0  0  0
   -1.9597   -0.5190   -2.1277 H   0  0  0  0  0  0  0  0  0  0  0  0
   -1.2372    1.0307   -2.5421 H   0  0  0  0  0  0  0  0  0  0  0  0
   -0.1158   -0.6506   -3.2677 C   0  0  0  0  0  0  0  0  0  0  0  0
    0.8363   -0.1147   -3.3384 H   0  0  0  0  0  0  0  0  0  0  0  0
    0.0994   -1.6825   -2.9716 H   0  0  0  0  0  0  0  0  0  0  0  0
   -0.7975   -0.6521   -4.6332 C   0  0  0  0  0  0  0  0  0  0  0  0
   -1.7721   -1.1480   -4.5682 H   0  0  0  0  0  0  0  0  0  0  0  0
   -0.9607    0.3770   -4.9725 H   0  0  0  0  0  0  0  0  0  0  0  0
    0.0604   -1.3688   -5.5806 N   0  0  0  0  0  0  0  0  0  0  0  0
   -0.3421   -1.3724   -6.5179 H   0  0  0  0  0  0  0  0  0  0  0  0
    1.0032   -0.9787   -5.5908 H   0  0  0  0  0  0  0  0  0  0  0  0
    0.3988   -0.9462    1.3325 C   0  0  0  0  0  0  0  0  0  0  0  0
    1.6117   -0.8906    1.4883 O   0  0  0  0  0  0  0  0  0  0  0  0
   -0.4304   -0.4869    2.3403 N   0  0  0  0  0  0  0  0  0  0  0  0
   -1.4230   -0.6457    2.2032 H   0  0  0  0  0  0  0  0  0  0  0  0
    0.0515   -0.1978    3.6848 C   0  0  0  0  0  0  0  0  0  0  0  0
    0.8222    0.5798    3.6581 H   0  0  0  0  0  0  0  0  0  0  0  0
   -0.7713    0.1552    4.3136 H   0  0  0  0  0  0  0  0  0  0  0  0
    0.4760   -1.0990    4.1397 H   0  0  0  0  0  0  0  0  0  0  0  0
  1  2  1  0  0  0  0
  2  3  1  0  0  0  0
  2  4  1  0  0  0  0
  2  5  1  0  0  0  0
  5  6  2  0  0  0  0
  5  7  1  0  0  0  0
  7  8  1  0  0  0  0
  7  9  1  0  0  0  0
  9 10  1  0  0  0  0
  9 11  1  0  0  0  0
  9 26  1  0  0  0  0
 11 12  1  0  0  0  0
 11 13  1  0  0  0  0
 11 14  1  0  0  0  0
 14 15  1  0  0  0  0
 14 16  1  0  0  0  0
 14 17  1  0  0  0  0
 17 18  1  0  0  0  0
 17 19  1  0  0  0  0
 17 20  1  0  0  0  0
 20 21  1  0  0  0  0
 20 22  1  0  0  0  0
 20 23  1  0  0  0  0
 23 24  1  0  0  0  0
 23 25  1  0  0  0  0
 26 27  2  0  0  0  0
 26 28  1  0  0  0  0
 28 29  1  0  0  0  0
 28 30  1  0  0  0  0
 30 31  1  0  0  0  0
 30 32  1  0  0  0  0
 30 33  1  0  0  0  0
M  END
$$$$

  -OEChem-03222214063D

 33 32  0     1  0  0  0  0  0999 V2000
   -2.8637   -4.9771    0.6257 H   0  0  0  0  0  0  0  0  0  0  0  0
   -2.9098   -3.9778    0.1832 C   0  0  0  0  0  0  0  0  0  0  0  0
   -3.7644   -3.4446    0.6060 H   0  0  0  0  0  0  0  0  0  0  0  0
   -3.0482   -4.0785   -0.8960 H   0  0  0  0  0  0  0  0  0  0  0  0
   -1.6287   -3.2184    0.4728 C   0  0  0  0  0  0  0  0  0  0  0  0
   -0.7743   -3.7190    1.1815 O   0  0  0  0  0  0  0  0  0  0  0  0
   -1.4480   -1.9603   -0.0673 N   0  0  0  0  0  0  0  0  0  0  0  0
   -2.1468   -1.6623   -0.7404 H   0  0  0  0  0  0  0  0  0  0  0  0
   -0.1656   -1.2303   -0.0510 C   0  0  1  0  0  0  0  0  0  0  0  0
    0.5756   -1.8606   -0.5548 H   0  0  0  0  0  0  0  0  0  0  0  0
   -0.2809    0.0932   -0.8374 C   0  0  0  0  0  0  0  0  0  0  0  0
   -0.8271    0.8190   -0.2256 H   0  0  0  0  0  0  0  0  0  0  0  0
    0.7264    0.4947   -0.9937 H   0  0  0  0  0  0  0  0  0  0  0  0
   -0.9960   -0.0124   -2.1979 C   0  0  0  0  0  0  0  0  0  0  0  0
   -2.0361   -0.3230   -2.0601 H   0  0  0  0  0  0  0  0  0  0  0  0
   -1.0140    0.9843   -2.6516 H   0  0  0  0  0  0  0  0  0  0  0  0
   -0.2844   -0.9813   -3.1524 C   0  0  0  0  0  0  0  0  0  0  0  0
    0.7724   -0.7075   -3.2361 H   0  0  0  0  0  0  0  0  0  0  0  0
   -0.3387   -2.0004   -2.7571 H   0  0  0  0  0  0  0  0  0  0  0  0
   -0.9258   -0.9510   -4.5364 C   0  0  0  0  0  0  0  0  0  0  0  0
   -1.9977   -1.1653   -4.4612 H   0  0  0  0  0  0  0  0  0  0  0  0
   -0.8070    0.0423   -4.9831 H   0  0  0  0  0  0  0  0  0  0  0  0
   -0.2751   -1.9644   -5.3708 N   0  0  0  0  0  0  0  0  0  0  0  0
   -0.6527   -1.9638   -6.3185 H   0  0  0  0  0  0  0  0  0  0  0  0
    0.7372   -1.8350   -5.3830 H   0  0  0  0  0  0  0  0  0  0  0  0
    0.4042   -0.9426    1.3558 C   0  0  0  0  0  0  0  0  0  0  0  0
    1.6166   -0.8916    1.5180 O   0  0  0  0  0  0  0  0  0  0  0  0
   -0.4278   -0.4704    2.3550 N   0  0  0  0  0  0  0  0  0  0  0  0
   -1.4201   -0.6279    2.2139 H   0  0  0  0  0  0  0  0  0  0  0  0
    0.0484   -0.1800    3.7015 C   0  0  0  0  0  0  0  0  0  0  0  0
    0.8418    0.5743    3.6746 H   0  0  0  0  0  0  0  0  0  0  0  0
   -0.7700    0.2049    4.3172 H   0  0  0  0  0  0  0  0  0  0  0  0
    0.4411   -1.0880    4.1713 H   0  0  0  0  0  0  0  0  0  0  0  0
  1  2  1  0  0  0  0
  2  3  1  0  0  0  0
  2  4  1  0  0  0  0
  2  5  1  0  0  0  0
  5  6  2  0  0  0  0
  5  7  1  0  0  0  0
  7  8  1  0  0  0  0
  7  9  1  0  0  0  0
  9 10  1  0  0  0  0
  9 11  1  0  0  0  0
  9 26  1  0  0  0  0
 11 12  1  0  0  0  0
 11 13  1  0  0  0  0
 11 14  1  0  0  0  0
 14 15  1  0  0  0  0
 14 16  1  0  0  0  0
 14 17  1  0  0  0  0
 17 18  1  0  0  0  0
 17 19  1  0  0  0  0
 17 20  1  0  0  0  0
 20 21  1  0  0  0  0
 20 22  1  0  0  0  0
 20 23  1  0  0  0  0
 23 24  1  0  0  0  0
 23 25  1  0  0  0  0
 26 27  2  0  0  0  0
 26 28  1  0  0  0  0
 28 29  1  0  0  0  0
 28 30  1  0  0  0  0
 30 31  1  0  0  0  0
 30 32  1  0  0  0  0
 30 33  1  0  0  0  0
M  END
$$$$

  -OEChem-03222214063D

 33 32  0     1  0  0  0  0  0999 V2000
   -2.8578   -4.9900    0.6754 H   0  0  0  0  0  0  0  0  0  0  0  0
   -2.8919   -4.0021    0.2066 C   0  0  0  0  0  0  0  0  0  0  0  0
   -3.7597   -3.4600    0.5897 H   0  0  0  0  0  0  0  0  0  0  0  0
   -2.9976   -4.1306   -0.8734 H   0  0  0  0  0  0  0  0  0  0  0  0
   -1.6209   -3.2332    0.5151 C   0  0  0  0  0  0  0  0  0  0  0  0
   -0.7809   -3.7211    1.2495 O   0  0  0  0  0  0  0  0  0  0  0  0
   -1.4302   -1.9838   -0.0414 N   0  0  0  0  0  0  0  0  0  0  0  0
   -2.1097   -1.7031   -0.7418 H   0  0  0  0  0  0  0  0  0  0  0  0
   -0.1452   -1.2579   -0.0194 C   0  0  1  0  0  0  0  0  0  0  0  0
    0.6009   -1.8946   -0.5082 H   0  0  0  0  0  0  0  0  0  0  0  0
   -0.2560    0.0562   -0.8218 C   0  0  0  0  0  0  0  0  0  0  0  0
   -0.7892    0.8000   -0.2203 H   0  0  0  0  0  0  0  0  0  0  0  0
    0.7595    0.4364   -0.9786 H   0  0  0  0  0  0  0  0  0  0  0  0
   -0.9562   -0.0376   -2.1932 C   0  0  0  0  0  0  0  0  0  0  0  0
   -2.0383   -0.1012   -2.0398 H   0  0  0  0  0  0  0  0  0  0  0  0
   -0.7591    0.8890   -2.7426 H   0  0  0  0  0  0  0  0  0  0  0  0
   -0.5049   -1.2381   -3.0413 C   0  0  0  0  0  0  0  0  0  0  0  0
    0.5866   -1.2351   -3.1285 H   0  0  0  0  0  0  0  0  0  0  0  0
   -0.8013   -2.1778   -2.5674 H   0  0  0  0  0  0  0  0  0  0  0  0
   -1.1229   -1.1776   -4.4349 C   0  0  0  0  0  0  0  0  0  0  0  0
   -2.2129   -1.0956   -4.3617 H   0  0  0  0  0  0  0  0  0  0  0  0
   -0.7508   -0.2991   -4.9738 H   0  0  0  0  0  0  0  0  0  0  0  0
   -0.7658   -2.4048   -5.1509 N   0  0  0  0  0  0  0  0  0  0  0  0
   -1.1337   -2.3994   -6.1025 H   0  0  0  0  0  0  0  0  0  0  0  0
    0.2449   -2.5471   -5.1533 H   0  0  0  0  0  0  0  0  0  0  0  0
    0.4066   -0.9519    1.3904 C   0  0  0  0  0  0  0  0  0  0  0  0
    1.6166   -0.8995    1.5689 O   0  0  0  0  0  0  0  0  0  0  0  0
   -0.4407   -0.4625    2.3682 N   0  0  0  0  0  0  0  0  0  0  0  0
   -1.4311   -0.6202    2.2132 H   0  0  0  0  0  0  0  0  0  0  0  0
    0.0137   -0.1392    3.7143 C   0  0  0  0  0  0  0  0  0  0  0  0
    0.8020    0.6204    3.6816 H   0  0  0  0  0  0  0  0  0  0  0  0
   -0.8166    0.2530    4.3091 H   0  0  0  0  0  0  0  0  0  0  0  0
    0.4064   -1.0335    4.2097 H   0  0  0  0  0  0  0  0  0  0  0  0
  1  2  1  0  0  0  0
  2  3  1  0  0  0  0
  2  4  1  0  0  0  0
  2  5  1  0  0  0  0
  5  6  2  0  0  0  0
  5  7  1  0  0  0  0
  7  8  1  0  0  0  0
  7  9  1  0  0  0  0
  9 10  1  0  0  0  0
  9 11  1  0  0  0  0
  9 26  1  0  0  0  0
 11 12  1  0  0  0  0
 11 13  1  0  0  0  0
 11 14  1  0  0  0  0
 14 15  1  0  0  0  0
 14 16  1  0  0  0  0
 14 17  1  0  0  0  0
 17 18  1  0  0  0  0
 17 19  1  0  0  0  0
 17 20  1  0  0  0  0
 20 21  1  0  0  0  0
 20 22  1  0  0  0  0
 20 23  1  0  0  0  0
 23 24  1  0  0  0  0
 23 25  1  0  0  0  0
 26 27  2  0  0  0  0
 26 28  1  0  0  0  0
 28 29  1  0  0  0  0
 28 30  1  0  0  0  0
 30 31  1  0  0  0  0
 30 32  1  0  0  0  0
 30 33  1  0  0  0  0
M  END
$$$$

  -OEChem-03222214063D

 33 32  0     1  0  0  0  0  0999 V2000
   -2.8434   -5.0227    0.8676 H   0  0  0  0  0  0  0  0  0  0  0  0
   -2.8775   -4.0611    0.3476 C   0  0  0  0  0  0  0  0  0  0  0  0
   -3.7470   -3.5013    0.6997 H   0  0  0  0  0  0  0  0  0  0  0  0
   -2.9801   -4.2455   -0.7248 H   0  0  0  0  0  0  0  0  0  0  0  0
   -1.6083   -3.2756    0.6190 C   0  0  0  0  0  0  0  0  0  0  0  0
   -0.7545   -3.7385    1.3539 O   0  0  0  0  0  0  0  0  0  0  0  0
   -1.4351   -2.0388    0.0295 N   0  0  0  0  0  0  0  0  0  0  0  0
   -2.1271   -1.7781   -0.6670 H   0  0  0  0  0  0  0  0  0  0  0  0
   -0.1599   -1.2981    0.0220 C   0  0  1  0  0  0  0  0  0  0  0  0
    0.5870   -1.9439   -0.4531 H   0  0  0  0  0  0  0  0  0  0  0  0
   -0.2755   -0.0079   -0.8196 C   0  0  0  0  0  0  0  0  0  0  0  0
   -0.7999    0.7521   -0.2309 H   0  0  0  0  0  0  0  0  0  0  0  0
    0.7441    0.3607   -0.9777 H   0  0  0  0  0  0  0  0  0  0  0  0
   -0.9656   -0.0889   -2.2022 C   0  0  0  0  0  0  0  0  0  0  0  0
   -2.0320    0.1214   -2.0691 H   0  0  0  0  0  0  0  0  0  0  0  0
   -0.5545    0.7096   -2.8291 H   0  0  0  0  0  0  0  0  0  0  0  0
   -0.8392   -1.4329   -2.9430 C   0  0  0  0  0  0  0  0  0  0  0  0
    0.2061   -1.7588   -2.9380 H   0  0  0  0  0  0  0  0  0  0  0  0
   -1.4390   -2.2059   -2.4587 H   0  0  0  0  0  0  0  0  0  0  0  0
   -1.3156   -1.2969   -4.3860 C   0  0  0  0  0  0  0  0  0  0  0  0
   -2.3353   -0.8964   -4.4107 H   0  0  0  0  0  0  0  0  0  0  0  0
   -0.6654   -0.6068   -4.9354 H   0  0  0  0  0  0  0  0  0  0  0  0
   -1.2885   -2.6247   -5.0052 N   0  0  0  0  0  0  0  0  0  0  0  0
   -1.5995   -2.5864   -5.9763 H   0  0  0  0  0  0  0  0  0  0  0  0
   -0.3585   -3.0402   -4.9393 H   0  0  0  0  0  0  0  0  0  0  0  0
    0.3989   -0.9495    1.4194 C   0  0  0  0  0  0  0  0  0  0  0  0
    1.6097   -0.8755    1.5847 O   0  0  0  0  0  0  0  0  0  0  0  0
   -0.4450   -0.4452    2.3926 N   0  0  0  0  0  0  0  0  0  0  0  0
   -1.4347   -0.6205    2.2528 H   0  0  0  0  0  0  0  0  0  0  0  0
    0.0195   -0.0801    3.7247 C   0  0  0  0  0  0  0  0  0  0  0  0
    0.7878    0.6979    3.6633 H   0  0  0  0  0  0  0  0  0  0  0  0
   -0.8117    0.3045    4.3231 H   0  0  0  0  0  0  0  0  0  0  0  0
    0.4415   -0.9528    4.2342 H   0  0  0  0  0  0  0  0  0  0  0  0
  1  2  1  0  0  0  0
  2  3  1  0  0  0  0
  2  4  1  0  0  0  0
  2  5  1  0  0  0  0
  5  6  2  0  0  0  0
  5  7  1  0  0  0  0
  7  8  1  0  0  0  0
  7  9  1  0  0  0  0
  9 10  1  0  0  0  0
  9 11  1  0  0  0  0
  9 26  1  0  0  0  0
 11 12  1  0  0  0  0
 11 13  1  0  0  0  0
 11 14  1  0  0  0  0
 14 15  1  0  0  0  0
 14 16  1  0  0  0  0
 14 17  1  0  0  0  0
 17 18  1  0  0  0  0
 17 19  1  0  0  0  0
 17 20  1  0  0  0  0
 20 21  1  0  0  0  0
 20 22  1  0  0  0  0
 20 23  1  0  0  0  0
 23 24  1  0  0  0  0
 23 25  1  0  0  0  0
 26 27  2  0  0  0  0
 26 28  1  0  0  0  0
 28 29  1  0  0  0  0
 28 30  1  0  0  0  0
 30 31  1  0  0  0  0
 30 32  1  0  0  0  0
 30 33  1  0  0  0  0
M  END
$$$$

  -OEChem-03222214063D

 33 32  0     1  0  0  0  0  0999 V2000
   -2.8021   -5.0601    1.0148 H   0  0  0  0  0  0  0  0  0  0  0  0
   -2.8675   -4.0974    0.4999 C   0  0  0  0  0  0  0  0  0  0  0  0
   -3.7132   -3.5378    0.9065 H   0  0  0  0  0  0  0  0  0  0  0  0
   -3.0364   -4.2790   -0.5645 H   0  0  0  0  0  0  0  0  0  0  0  0
   -1.5837   -3.3131    0.6949 C   0  0  0  0  0  0  0  0  0  0  0  0
   -0.6906   -3.7729    1.3834 O   0  0  0  0  0  0  0  0  0  0  0  0
   -1.4403   -2.0804    0.0894 N   0  0  0  0  0  0  0  0  0  0  0  0
   -2.1723   -1.8129   -0.5621 H   0  0  0  0  0  0  0  0  0  0  0  0
   -0.1802   -1.3177    0.0448 C   0  0  1  0  0  0  0  0  0  0  0  0
    0.5661   -1.9639   -0.4304 H   0  0  0  0  0  0  0  0  0  0  0  0
   -0.3050   -0.0412   -0.8201 C   0  0  0  0  0  0  0  0  0  0  0  0
   -0.8280    0.7208   -0.2323 H   0  0  0  0  0  0  0  0  0  0  0  0
    0.7132    0.3308   -0.9801 H   0  0  0  0  0  0  0  0  0  0  0  0
   -0.9978   -0.1089   -2.2074 C   0  0  0  0  0  0  0  0  0  0  0  0
   -1.9764    0.3759   -2.1262 H   0  0  0  0  0  0  0  0  0  0  0  0
   -0.3996    0.4942   -2.8988 H   0  0  0  0  0  0  0  0  0  0  0  0
   -1.2187   -1.4996   -2.8299 C   0  0  0  0  0  0  0  0  0  0  0  0
   -0.3147   -2.1068   -2.7172 H   0  0  0  0  0  0  0  0  0  0  0  0
   -2.0475   -2.0122   -2.3365 H   0  0  0  0  0  0  0  0  0  0  0  0
   -1.5587   -1.3825   -4.3124 C   0  0  0  0  0  0  0  0  0  0  0  0
   -2.4302   -0.7325   -4.4492 H   0  0  0  0  0  0  0  0  0  0  0  0
   -0.7171   -0.9442   -4.8606 H   0  0  0  0  0  0  0  0  0  0  0  0
   -1.8534   -2.7254   -4.8200 N   0  0  0  0  0  0  0  0  0  0  0  0
   -2.1108   -2.6987   -5.8071 H   0  0  0  0  0  0  0  0  0  0  0  0
   -1.0636   -3.3543   -4.6698 H   0  0  0  0  0  0  0  0  0  0  0  0
    0.3977   -0.9458    1.4287 C   0  0  0  0  0  0  0  0  0  0  0  0
    1.6098   -0.8501    1.5717 O   0  0  0  0  0  0  0  0  0  0  0  0
   -0.4364   -0.4473    2.4135 N   0  0  0  0  0  0  0  0  0  0  0  0
   -1.4261   -0.6356    2.2928 H   0  0  0  0  0  0  0  0  0  0  0  0
    0.0462   -0.0579    3.7324 C   0  0  0  0  0  0  0  0  0  0  0  0
    0.8126    0.7196    3.6465 H   0  0  0  0  0  0  0  0  0  0  0  0
   -0.7771    0.3370    4.3351 H   0  0  0  0  0  0  0  0  0  0  0  0
    0.4761   -0.9209    4.2516 H   0  0  0  0  0  0  0  0  0  0  0  0
  1  2  1  0  0  0  0
  2  3  1  0  0  0  0
  2  4  1  0  0  0  0
  2  5  1  0  0  0  0
  5  6  2  0  0  0  0
  5  7  1  0  0  0  0
  7  8  1  0  0  0  0
  7  9  1  0  0  0  0
  9 10  1  0  0  0  0
  9 11  1  0  0  0  0
  9 26  1  0  0  0  0
 11 12  1  0  0  0  0
 11 13  1  0  0  0  0
 11 14  1  0  0  0  0
 14 15  1  0  0  0  0
 14 16  1  0  0  0  0
 14 17  1  0  0  0  0
 17 18  1  0  0  0  0
 17 19  1  0  0  0  0
 17 20  1  0  0  0  0
 20 21  1  0  0  0  0
 20 22  1  0  0  0  0
 20 23  1  0  0  0  0
 23 24  1  0  0  0  0
 23 25  1  0  0  0  0
 26 27  2  0  0  0  0
 26 28  1  0  0  0  0
 28 29  1  0  0  0  0
 28 30  1  0  0  0  0
 30 31  1  0  0  0  0
 30 32  1  0  0  0  0
 30 33  1  0  0  0  0
M  END
$$$$

  -OEChem-03222214063D

 33 32  0     1  0  0  0  0  0999 V2000
   -2.7650   -5.0892    1.1078 H   0  0  0  0  0  0  0  0  0  0  0  0
   -2.8502   -4.1242    0.5999 C   0  0  0  0  0  0  0  0  0  0  0  0
   -3.6800   -3.5664    1.0405 H   0  0  0  0  0  0  0  0  0  0  0  0
   -3.0591   -4.3012   -0.4582 H   0  0  0  0  0  0  0  0  0  0  0  0
   -1.5601   -3.3401    0.7494 C   0  0  0  0  0  0  0  0  0  0  0  0
   -0.6447   -3.7973    1.4099 O   0  0  0  0  0  0  0  0  0  0  0  0
   -1.4354   -2.1110    0.1331 N   0  0  0  0  0  0  0  0  0  0  0  0
   -2.1953   -1.8355   -0.4815 H   0  0  0  0  0  0  0  0  0  0  0  0
   -0.1861   -1.3328    0.0651 C   0  0  1  0  0  0  0  0  0  0  0  0
    0.5601   -1.9811   -0.4077 H   0  0  0  0  0  0  0  0  0  0  0  0
   -0.3063   -0.0650   -0.8174 C   0  0  0  0  0  0  0  0  0  0  0  0
   -0.8480    0.6852   -0.2317 H   0  0  0  0  0  0  0  0  0  0  0  0
    0.7071    0.3262   -0.9611 H   0  0  0  0  0  0  0  0  0  0  0  0
   -0.9914   -0.1190   -2.2124 C   0  0  0  0  0  0  0  0  0  0  0  0
   -1.8057    0.6135   -2.2239 H   0  0  0  0  0  0  0  0  0  0  0  0
   -0.2486    0.2223   -2.9415 H   0  0  0  0  0  0  0  0  0  0  0  0
   -1.5523   -1.4613   -2.7111 C   0  0  0  0  0  0  0  0  0  0  0  0
   -0.8126   -2.2543   -2.5601 H   0  0  0  0  0  0  0  0  0  0  0  0
   -2.4623   -1.7152   -2.1614 H   0  0  0  0  0  0  0  0  0  0  0  0
   -1.9060   -1.3901   -4.1932 C   0  0  0  0  0  0  0  0  0  0  0  0
   -2.6321   -0.5884   -4.3688 H   0  0  0  0  0  0  0  0  0  0  0  0
   -1.0109   -1.1763   -4.7883 H   0  0  0  0  0  0  0  0  0  0  0  0
   -2.4805   -2.6808   -4.5844 N   0  0  0  0  0  0  0  0  0  0  0  0
   -2.7731   -2.6724   -5.5621 H   0  0  0  0  0  0  0  0  0  0  0  0
   -1.8215   -3.4408   -4.4126 H   0  0  0  0  0  0  0  0  0  0  0  0
    0.4004   -0.9446    1.4410 C   0  0  0  0  0  0  0  0  0  0  0  0
    1.6128   -0.8366    1.5737 O   0  0  0  0  0  0  0  0  0  0  0  0
   -0.4304   -0.4504    2.4307 N   0  0  0  0  0  0  0  0  0  0  0  0
   -1.4201   -0.6427    2.3169 H   0  0  0  0  0  0  0  0  0  0  0  0
    0.0591   -0.0465    3.7428 C   0  0  0  0  0  0  0  0  0  0  0  0
    0.8098    0.7450    3.6457 H   0  0  0  0  0  0  0  0  0  0  0  0
   -0.7653    0.3350    4.3527 H   0  0  0  0  0  0  0  0  0  0  0  0
    0.5108   -0.8992    4.2608 H   0  0  0  0  0  0  0  0  0  0  0  0
  1  2  1  0  0  0  0
  2  3  1  0  0  0  0
  2  4  1  0  0  0  0
  2  5  1  0  0  0  0
  5  6  2  0  0  0  0
  5  7  1  0  0  0  0
  7  8  1  0  0  0  0
  7  9  1  0  0  0  0
  9 10  1  0  0  0  0
  9 11  1  0  0  0  0
  9 26  1  0  0  0  0
 11 12  1  0  0  0  0
 11 13  1  0  0  0  0
 11 14  1  0  0  0  0
 14 15  1  0  0  0  0
 14 16  1  0  0  0  0
 14 17  1  0  0  0  0
 17 18  1  0  0  0  0
 17 19  1  0  0  0  0
 17 20  1  0  0  0  0
 20 21  1  0  0  0  0
 20 22  1  0  0  0  0
 20 23  1  0  0  0  0
 23 24  1  0  0  0  0
 23 25  1  0  0  0  0
 26 27  2  0  0  0  0
 26 28  1  0  0  0  0
 28 29  1  0  0  0  0
 28 30  1  0  0  0  0
 30 31  1  0  0  0  0
 30 32  1  0  0  0  0
 30 33  1  0  0  0  0
M  END
$$$$

  -OEChem-03222214063D

 33 32  0     1  0  0  0  0  0999 V2000
   -2.7028   -5.1274    1.1704 H   0  0  0  0  0  0  0  0  0  0  0  0
   -2.8086   -4.1609    0.6695 C   0  0  0  0  0  0  0  0  0  0  0  0
   -3.6305   -3.6115    1.1345 H   0  0  0  0  0  0  0  0  0  0  0  0
   -3.0445   -4.3348   -0.3832 H   0  0  0  0  0  0  0  0  0  0  0  0
   -1.5209   -3.3677    0.7887 C   0  0  0  0  0  0  0  0  0  0  0  0
   -0.5911   -3.8132    1.4368 O   0  0  0  0  0  0  0  0  0  0  0  0
   -1.4156   -2.1431    0.1597 N   0  0  0  0  0  0  0  0  0  0  0  0
   -2.1906   -1.8763   -0.4395 H   0  0  0  0  0  0  0  0  0  0  0  0
   -0.1795   -1.3452    0.0770 C   0  0  1  0  0  0  0  0  0  0  0  0
    0.5735   -1.9905   -0.3889 H   0  0  0  0  0  0  0  0  0  0  0  0
   -0.2999   -0.0835   -0.8187 C   0  0  0  0  0  0  0  0  0  0  0  0
   -0.8679    0.6515   -0.2385 H   0  0  0  0  0  0  0  0  0  0  0  0
    0.7054    0.3328   -0.9473 H   0  0  0  0  0  0  0  0  0  0  0  0
   -0.9743   -0.1370   -2.2187 C   0  0  0  0  0  0  0  0  0  0  0  0
   -1.5780    0.7687   -2.3408 H   0  0  0  0  0  0  0  0  0  0  0  0
   -0.1662   -0.0812   -2.9560 H   0  0  0  0  0  0  0  0  0  0  0  0
   -1.8359   -1.3518   -2.5923 C   0  0  0  0  0  0  0  0  0  0  0  0
   -1.2595   -2.2726   -2.4563 H   0  0  0  0  0  0  0  0  0  0  0  0
   -2.7248   -1.3858   -1.9560 H   0  0  0  0  0  0  0  0  0  0  0  0
   -2.2960   -1.2723   -4.0438 C   0  0  0  0  0  0  0  0  0  0  0  0
   -2.8830   -0.3609   -4.2030 H   0  0  0  0  0  0  0  0  0  0  0  0
   -1.4318   -1.2432   -4.7168 H   0  0  0  0  0  0  0  0  0  0  0  0
   -3.1171   -2.4541   -4.3226 N   0  0  0  0  0  0  0  0  0  0  0  0
   -3.5136   -2.4129   -5.2622 H   0  0  0  0  0  0  0  0  0  0  0  0
   -2.5778   -3.3112   -4.1966 H   0  0  0  0  0  0  0  0  0  0  0  0
    0.4017   -0.9362    1.4485 C   0  0  0  0  0  0  0  0  0  0  0  0
    1.6124   -0.8133    1.5818 O   0  0  0  0  0  0  0  0  0  0  0  0
   -0.4364   -0.4478    2.4346 N   0  0  0  0  0  0  0  0  0  0  0  0
   -1.4245   -0.6453    2.3169 H   0  0  0  0  0  0  0  0  0  0  0  0
    0.0456   -0.0381    3.7473 C   0  0  0  0  0  0  0  0  0  0  0  0
    0.7854    0.7637    3.6521 H   0  0  0  0  0  0  0  0  0  0  0  0
   -0.7844    0.3311    4.3570 H   0  0  0  0  0  0  0  0  0  0  0  0
    0.5088   -0.8847    4.2651 H   0  0  0  0  0  0  0  0  0  0  0  0
  1  2  1  0  0  0  0
  2  3  1  0  0  0  0
  2  4  1  0  0  0  0
  2  5  1  0  0  0  0
  5  6  2  0  0  0  0
  5  7  1  0  0  0  0
  7  8  1  0  0  0  0
  7  9  1  0  0  0  0
  9 10  1  0  0  0  0
  9 11  1  0  0  0  0
  9 26  1  0  0  0  0
 11 12  1  0  0  0  0
 11 13  1  0  0  0  0
 11 14  1  0  0  0  0
 14 15  1  0  0  0  0
 14 16  1  0  0  0  0
 14 17  1  0  0  0  0
 17 18  1  0  0  0  0
 17 19  1  0  0  0  0
 17 20  1  0  0  0  0
 20 21  1  0  0  0  0
 20 22  1  0  0  0  0
 20 23  1  0  0  0  0
 23 24  1  0  0  0  0
 23 25  1  0  0  0  0
 26 27  2  0  0  0  0
 26 28  1  0  0  0  0
 28 29  1  0  0  0  0
 28 30  1  0  0  0  0
 30 31  1  0  0  0  0
 30 32  1  0  0  0  0
 30 33  1  0  0  0  0
M  END
$$$$

  -OEChem-03222214063D

 33 32  0     1  0  0  0  0  0999 V2000
   -2.6356   -5.1610    1.1988 H   0  0  0  0  0  0  0  0  0  0  0  0
   -2.7564   -4.1972    0.6958 C   0  0  0  0  0  0  0  0  0  0  0  0
   -3.5762   -3.6527    1.1704 H   0  0  0  0  0  0  0  0  0  0  0  0
   -3.0058   -4.3771   -0.3527 H   0  0  0  0  0  0  0  0  0  0  0  0
   -1.4742   -3.3923    0.7933 C   0  0  0  0  0  0  0  0  0  0  0  0
   -0.5297   -3.8281    1.4266 O   0  0  0  0  0  0  0  0  0  0  0  0
   -1.3915   -2.1676    0.1614 N   0  0  0  0  0  0  0  0  0  0  0  0
   -2.1806   -1.9049   -0.4213 H   0  0  0  0  0  0  0  0  0  0  0  0
   -0.1706   -1.3477    0.0753 C   0  0  1  0  0  0  0  0  0  0  0  0
    0.5933   -1.9816   -0.3886 H   0  0  0  0  0  0  0  0  0  0  0  0
   -0.3047   -0.0893   -0.8234 C   0  0  0  0  0  0  0  0  0  0  0  0
   -0.8896    0.6353   -0.2468 H   0  0  0  0  0  0  0  0  0  0  0  0
    0.6936    0.3438   -0.9509 H   0  0  0  0  0  0  0  0  0  0  0  0
   -0.9740   -0.1581   -2.2229 C   0  0  0  0  0  0  0  0  0  0  0  0
   -1.3643    0.8393   -2.4526 H   0  0  0  0  0  0  0  0  0  0  0  0
   -0.1790   -0.3653   -2.9473 H   0  0  0  0  0  0  0  0  0  0  0  0
   -2.0826   -1.1896   -2.4724 C   0  0  0  0  0  0  0  0  0  0  0  0
   -1.6778   -2.2013   -2.3730 H   0  0  0  0  0  0  0  0  0  0  0  0
   -2.8890   -1.0492   -1.7461 H   0  0  0  0  0  0  0  0  0  0  0  0
   -2.6647   -1.0374   -3.8734 C   0  0  0  0  0  0  0  0  0  0  0  0
   -3.1095   -0.0426   -3.9890 H   0  0  0  0  0  0  0  0  0  0  0  0
   -1.8769   -1.1482   -4.6272 H   0  0  0  0  0  0  0  0  0  0  0  0
   -3.6894   -2.0701   -4.0540 N   0  0  0  0  0  0  0  0  0  0  0  0
   -4.1768   -1.9522   -4.9430 H   0  0  0  0  0  0  0  0  0  0  0  0
   -3.2834   -3.0037   -3.9880 H   0  0  0  0  0  0  0  0  0  0  0  0
    0.4015   -0.9270    1.4476 C   0  0  0  0  0  0  0  0  0  0  0  0
    1.6098   -0.7863    1.5842 O   0  0  0  0  0  0  0  0  0  0  0  0
   -0.4464   -0.4530    2.4326 N   0  0  0  0  0  0  0  0  0  0  0  0
   -1.4318   -0.6621    2.3108 H   0  0  0  0  0  0  0  0  0  0  0  0
    0.0256   -0.0359    3.7469 C   0  0  0  0  0  0  0  0  0  0  0  0
    0.7602    0.7710    3.6539 H   0  0  0  0  0  0  0  0  0  0  0  0
   -0.8107    0.3291    4.3503 H   0  0  0  0  0  0  0  0  0  0  0  0
    0.4917   -0.8779    4.2696 H   0  0  0  0  0  0  0  0  0  0  0  0
  1  2  1  0  0  0  0
  2  3  1  0  0  0  0
  2  4  1  0  0  0  0
  2  5  1  0  0  0  0
  5  6  2  0  0  0  0
  5  7  1  0  0  0  0
  7  8  1  0  0  0  0
  7  9  1  0  0  0  0
  9 10  1  0  0  0  0
  9 11  1  0  0  0  0
  9 26  1  0  0  0  0
 11 12  1  0  0  0  0
 11 13  1  0  0  0  0
 11 14  1  0  0  0  0
 14 15  1  0  0  0  0
 14 16  1  0  0  0  0
 14 17  1  0  0  0  0
 17 18  1  0  0  0  0
 17 19  1  0  0  0  0
 17 20  1  0  0  0  0
 20 21  1  0  0  0  0
 20 22  1  0  0  0  0
 20 23  1  0  0  0  0
 23 24  1  0  0  0  0
 23 25  1  0  0  0  0
 26 27  2  0  0  0  0
 26 28  1  0  0  0  0
 28 29  1  0  0  0  0
 28 30  1  0  0  0  0
 30 31  1  0  0  0  0
 30 32  1  0  0  0  0
 30 33  1  0  0  0  0
M  END
$$$$

  -OEChem-03222214063D

 33 32  0     1  0  0  0  0  0999 V2000
   -2.6062   -5.1709    1.1945 H   0  0  0  0  0  0  0  0  0  0  0  0
   -2.7273   -4.2151    0.6768 C   0  0  0  0  0  0  0  0  0  0  0  0
   -3.5453   -3.6629    1.1451 H   0  0  0  0  0  0  0  0  0  0  0  0
   -2.9795   -4.4106   -0.3683 H   0  0  0  0  0  0  0  0  0  0  0  0
   -1.4439   -3.4106    0.7599 C   0  0  0  0  0  0  0  0  0  0  0  0
   -0.4919   -3.8479    1.3804 O   0  0  0  0  0  0  0  0  0  0  0  0
   -1.3689   -2.1824    0.1341 N   0  0  0  0  0  0  0  0  0  0  0  0
   -2.1717   -1.9056   -0.4234 H   0  0  0  0  0  0  0  0  0  0  0  0
   -0.1577   -1.3478    0.0592 C   0  0  1  0  0  0  0  0  0  0  0  0
    0.6169   -1.9693   -0.4040 H   0  0  0  0  0  0  0  0  0  0  0  0
   -0.3074   -0.0879   -0.8337 C   0  0  0  0  0  0  0  0  0  0  0  0
   -0.8965    0.6364   -0.2613 H   0  0  0  0  0  0  0  0  0  0  0  0
    0.6881    0.3496   -0.9682 H   0  0  0  0  0  0  0  0  0  0  0  0
   -0.9742   -0.1849   -2.2297 C   0  0  0  0  0  0  0  0  0  0  0  0
   -1.1600    0.8394   -2.5703 H   0  0  0  0  0  0  0  0  0  0  0  0
   -0.2461   -0.6260   -2.9185 H   0  0  0  0  0  0  0  0  0  0  0  0
   -2.2774   -0.9869   -2.3575 C   0  0  0  0  0  0  0  0  0  0  0  0
   -2.0614   -2.0574   -2.2939 H   0  0  0  0  0  0  0  0  0  0  0  0
   -2.9636   -0.7097   -1.5508 H   0  0  0  0  0  0  0  0  0  0  0  0
   -2.9597   -0.7150   -3.6940 C   0  0  0  0  0  0  0  0  0  0  0  0
   -3.2375    0.3428   -3.7655 H   0  0  0  0  0  0  0  0  0  0  0  0
   -2.2797   -0.9457   -4.5216 H   0  0  0  0  0  0  0  0  0  0  0  0
   -4.1582   -1.5558   -3.7726 N   0  0  0  0  0  0  0  0  0  0  0  0
   -4.7072   -1.3356   -4.6045 H   0  0  0  0  0  0  0  0  0  0  0  0
   -3.9131   -2.5458   -3.7556 H   0  0  0  0  0  0  0  0  0  0  0  0
    0.4010   -0.9252    1.4364 C   0  0  0  0  0  0  0  0  0  0  0  0
    1.6063   -0.7656    1.5787 O   0  0  0  0  0  0  0  0  0  0  0  0
   -0.4588   -0.4650    2.4177 N   0  0  0  0  0  0  0  0  0  0  0  0
   -1.4405   -0.6875    2.2912 H   0  0  0  0  0  0  0  0  0  0  0  0
   -0.0009   -0.0296    3.7310 C   0  0  0  0  0  0  0  0  0  0  0  0
    0.7066    0.8008    3.6357 H   0  0  0  0  0  0  0  0  0  0  0  0
   -0.8489    0.3095    4.3334 H   0  0  0  0  0  0  0  0  0  0  0  0
    0.4926   -0.8542    4.2560 H   0  0  0  0  0  0  0  0  0  0  0  0
  1  2  1  0  0  0  0
  2  3  1  0  0  0  0
  2  4  1  0  0  0  0
  2  5  1  0  0  0  0
  5  6  2  0  0  0  0
  5  7  1  0  0  0  0
  7  8  1  0  0  0  0
  7  9  1  0  0  0  0
  9 10  1  0  0  0  0
  9 11  1  0  0  0  0
  9 26  1  0  0  0  0
 11 12  1  0  0  0  0
 11 13  1  0  0  0  0
 11 14  1  0  0  0  0
 14 15  1  0  0  0  0
 14 16  1  0  0  0  0
 14 17  1  0  0  0  0
 17 18  1  0  0  0  0
 17 19  1  0  0  0  0
 17 20  1  0  0  0  0
 20 21  1  0  0  0  0
 20 22  1  0  0  0  0
 20 23  1  0  0  0  0
 23 24  1  0  0  0  0
 23 25  1  0  0  0  0
 26 27  2  0  0  0  0
 26 28  1  0  0  0  0
 28 29  1  0  0  0  0
 28 30  1  0  0  0  0
 30 31  1  0  0  0  0
 30 32  1  0  0  0  0
 30 33  1  0  0  0  0
M  END
$$$$

  -OEChem-03222214063D

 33 32  0     1  0  0  0  0  0999 V2000
   -2.6158   -5.1522    1.1490 H   0  0  0  0  0  0  0  0  0  0  0  0
   -2.7326   -4.1928    0.6368 C   0  0  0  0  0  0  0  0  0  0  0  0
   -3.5375   -3.6322    1.1181 H   0  0  0  0  0  0  0  0  0  0  0  0
   -3.0010   -4.3816   -0.4053 H   0  0  0  0  0  0  0  0  0  0  0  0
   -1.4384   -3.4044    0.7039 C   0  0  0  0  0  0  0  0  0  0  0  0
   -0.4783   -3.8613    1.2975 O   0  0  0  0  0  0  0  0  0  0  0  0
   -1.3608   -2.1702    0.0907 N   0  0  0  0  0  0  0  0  0  0  0  0
   -2.1826   -1.8565   -0.4175 H   0  0  0  0  0  0  0  0  0  0  0  0
   -0.1513   -1.3338    0.0311 C   0  0  1  0  0  0  0  0  0  0  0  0
    0.6274   -1.9471   -0.4358 H   0  0  0  0  0  0  0  0  0  0  0  0
   -0.3159   -0.0717   -0.8508 C   0  0  0  0  0  0  0  0  0  0  0  0
   -0.8982    0.6609   -0.2822 H   0  0  0  0  0  0  0  0  0  0  0  0
    0.6791    0.3612   -1.0021 H   0  0  0  0  0  0  0  0  0  0  0  0
   -0.9887   -0.2108   -2.2365 C   0  0  0  0  0  0  0  0  0  0  0  0
   -0.9763    0.7836   -2.6958 H   0  0  0  0  0  0  0  0  0  0  0  0
   -0.3724   -0.8644   -2.8629 H   0  0  0  0  0  0  0  0  0  0  0  0
   -2.4333   -0.7369   -2.2543 C   0  0  0  0  0  0  0  0  0  0  0  0
   -2.4336   -1.8273   -2.1718 H   0  0  0  0  0  0  0  0  0  0  0  0
   -2.9930   -0.3174   -1.4119 H   0  0  0  0  0  0  0  0  0  0  0  0
   -3.1388   -0.3578   -3.5523 C   0  0  0  0  0  0  0  0  0  0  0  0
   -3.2152    0.7324   -3.6324 H   0  0  0  0  0  0  0  0  0  0  0  0
   -2.5707   -0.7238   -4.4151 H   0  0  0  0  0  0  0  0  0  0  0  0
   -4.4776   -0.9550   -3.5358 N   0  0  0  0  0  0  0  0  0  0  0  0
   -5.0274   -0.6462   -4.3385 H   0  0  0  0  0  0  0  0  0  0  0  0
   -4.4253   -1.9731   -3.5058 H   0  0  0  0  0  0  0  0  0  0  0  0
    0.4011   -0.9218    1.4133 C   0  0  0  0  0  0  0  0  0  0  0  0
    1.6060   -0.7680    1.5649 O   0  0  0  0  0  0  0  0  0  0  0  0
   -0.4635   -0.4709    2.3945 N   0  0  0  0  0  0  0  0  0  0  0  0
   -1.4462   -0.6831    2.2584 H   0  0  0  0  0  0  0  0  0  0  0  0
   -0.0111   -0.0506    3.7143 C   0  0  0  0  0  0  0  0  0  0  0  0
    0.6884    0.7878    3.6314 H   0  0  0  0  0  0  0  0  0  0  0  0
   -0.8626    0.2709    4.3213 H   0  0  0  0  0  0  0  0  0  0  0  0
    0.4897   -0.8784    4.2274 H   0  0  0  0  0  0  0  0  0  0  0  0
  1  2  1  0  0  0  0
  2  3  1  0  0  0  0
  2  4  1  0  0  0  0
  2  5  1  0  0  0  0
  5  6  2  0  0  0  0
  5  7  1  0  0  0  0
  7  8  1  0  0  0  0
  7  9  1  0  0  0  0
  9 10  1  0  0  0  0
  9 11  1  0  0  0  0
  9 26  1  0  0  0  0
 11 12  1  0  0  0  0
 11 13  1  0  0  0  0
 11 14  1  0  0  0  0
 14 15  1  0  0  0  0
 14 16  1  0  0  0  0
 14 17  1  0  0  0  0
 17 18  1  0  0  0  0
 17 19  1  0  0  0  0
 17 20  1  0  0  0  0
 20 21  1  0  0  0  0
 20 22  1  0  0  0  0
 20 23  1  0  0  0  0
 23 24  1  0  0  0  0
 23 25  1  0  0  0  0
 26 27  2  0  0  0  0
 26 28  1  0  0  0  0
 28 29  1  0  0  0  0
 28 30  1  0  0  0  0
 30 31  1  0  0  0  0
 30 32  1  0  0  0  0
 30 33  1  0  0  0  0
M  END
$$$$

  -OEChem-03222214063D

 33 32  0     1  0  0  0  0  0999 V2000
   -2.6660   -5.1170    1.0534 H   0  0  0  0  0  0  0  0  0  0  0  0
   -2.7779   -4.1349    0.5848 C   0  0  0  0  0  0  0  0  0  0  0  0
   -3.5496   -3.5754    1.1188 H   0  0  0  0  0  0  0  0  0  0  0  0
   -3.0907   -4.2741   -0.4527 H   0  0  0  0  0  0  0  0  0  0  0  0
   -1.4627   -3.3804    0.6325 C   0  0  0  0  0  0  0  0  0  0  0  0
   -0.4987   -3.8723    1.1905 O   0  0  0  0  0  0  0  0  0  0  0  0
   -1.3726   -2.1345    0.0455 N   0  0  0  0  0  0  0  0  0  0  0  0
   -2.2050   -1.7785   -0.4140 H   0  0  0  0  0  0  0  0  0  0  0  0
   -0.1547   -1.3099    0.0040 C   0  0  1  0  0  0  0  0  0  0  0  0
    0.6192   -1.9163   -0.4804 H   0  0  0  0  0  0  0  0  0  0  0  0
   -0.3319   -0.0355   -0.8524 C   0  0  0  0  0  0  0  0  0  0  0  0
   -0.8943    0.7056   -0.2745 H   0  0  0  0  0  0  0  0  0  0  0  0
    0.6648    0.3852   -1.0254 H   0  0  0  0  0  0  0  0  0  0  0  0
   -1.0232   -0.2041   -2.2231 C   0  0  0  0  0  0  0  0  0  0  0  0
   -0.8191    0.7076   -2.7945 H   0  0  0  0  0  0  0  0  0  0  0  0
   -0.5626   -1.0367   -2.7655 H   0  0  0  0  0  0  0  0  0  0  0  0
   -2.5481   -0.4079   -2.1716 C   0  0  0  0  0  0  0  0  0  0  0  0
   -2.7823   -1.4554   -1.9686 H   0  0  0  0  0  0  0  0  0  0  0  0
   -2.9822    0.2071   -1.3767 H   0  0  0  0  0  0  0  0  0  0  0  0
   -3.1930   -0.0244   -3.5002 C   0  0  0  0  0  0  0  0  0  0  0  0
   -3.0451    1.0441   -3.6933 H   0  0  0  0  0  0  0  0  0  0  0  0
   -2.7334   -0.5857   -4.3214 H   0  0  0  0  0  0  0  0  0  0  0  0
   -4.6258   -0.3249   -3.4211 N   0  0  0  0  0  0  0  0  0  0  0  0
   -5.1179    0.0080   -4.2511 H   0  0  0  0  0  0  0  0  0  0  0  0
   -4.7859   -1.3223   -3.2826 H   0  0  0  0  0  0  0  0  0  0  0  0
    0.4055   -0.9302    1.3923 C   0  0  0  0  0  0  0  0  0  0  0  0
    1.6124   -0.7941    1.5436 O   0  0  0  0  0  0  0  0  0  0  0  0
   -0.4496   -0.4887    2.3864 N   0  0  0  0  0  0  0  0  0  0  0  0
   -1.4378   -0.6698    2.2454 H   0  0  0  0  0  0  0  0  0  0  0  0
    0.0129   -0.0965    3.7117 C   0  0  0  0  0  0  0  0  0  0  0  0
    0.6938    0.7584    3.6428 H   0  0  0  0  0  0  0  0  0  0  0  0
   -0.8360    0.1893    4.3398 H   0  0  0  0  0  0  0  0  0  0  0  0
    0.5379   -0.9277    4.1944 H   0  0  0  0  0  0  0  0  0  0  0  0
  1  2  1  0  0  0  0
  2  3  1  0  0  0  0
  2  4  1  0  0  0  0
  2  5  1  0  0  0  0
  5  6  2  0  0  0  0
  5  7  1  0  0  0  0
  7  8  1  0  0  0  0
  7  9  1  0  0  0  0
  9 10  1  0  0  0  0
  9 11  1  0  0  0  0
  9 26  1  0  0  0  0
 11 12  1  0  0  0  0
 11 13  1  0  0  0  0
 11 14  1  0  0  0  0
 14 15  1  0  0  0  0
 14 16  1  0  0  0  0
 14 17  1  0  0  0  0
 17 18  1  0  0  0  0
 17 19  1  0  0  0  0
 17 20  1  0  0  0  0
 20 21  1  0  0  0  0
 20 22  1  0  0  0  0
 20 23  1  0  0  0  0
 23 24  1  0  0  0  0
 23 25  1  0  0  0  0
 26 27  2  0  0  0  0
 26 28  1  0  0  0  0
 28 29  1  0  0  0  0
 28 30  1  0  0  0  0
 30 31  1  0  0  0  0
 30 32  1  0  0  0  0
 30 33  1  0  0  0  0
M  END
$$$$

  -OEChem-03222214063D

 33 32  0     1  0  0  0  0  0999 V2000
   -2.7553   -5.0554    0.8725 H   0  0  0  0  0  0  0  0  0  0  0  0
   -2.8282   -4.0819    0.3791 C   0  0  0  0  0  0  0  0  0  0  0  0
   -3.6446   -3.5170    0.8352 H   0  0  0  0  0  0  0  0  0  0  0  0
   -3.0486   -4.2399   -0.6794 H   0  0  0  0  0  0  0  0  0  0  0  0
   -1.5234   -3.3225    0.5295 C   0  0  0  0  0  0  0  0  0  0  0  0
   -0.5903   -3.8311    1.1237 O   0  0  0  0  0  0  0  0  0  0  0  0
   -1.4051   -2.0576   -0.0109 N   0  0  0  0  0  0  0  0  0  0  0  0
   -2.1917   -1.7151   -0.5512 H   0  0  0  0  0  0  0  0  0  0  0  0
   -0.1646   -1.2642   -0.0196 C   0  0  1  0  0  0  0  0  0  0  0  0
    0.5942   -1.8657   -0.5329 H   0  0  0  0  0  0  0  0  0  0  0  0
   -0.3240    0.0520   -0.8121 C   0  0  0  0  0  0  0  0  0  0  0  0
   -0.8558    0.7872   -0.1986 H   0  0  0  0  0  0  0  0  0  0  0  0
    0.6808    0.4522   -0.9876 H   0  0  0  0  0  0  0  0  0  0  0  0
   -1.0372   -0.0735   -2.1738 C   0  0  0  0  0  0  0  0  0  0  0  0
   -0.6398    0.7077   -2.8306 H   0  0  0  0  0  0  0  0  0  0  0  0
   -0.7938   -1.0379   -2.6326 H   0  0  0  0  0  0  0  0  0  0  0  0
   -2.5638    0.1058   -2.0929 C   0  0  0  0  0  0  0  0  0  0  0  0
   -3.0266   -0.6976   -1.5183 H   0  0  0  0  0  0  0  0  0  0  0  0
   -2.7940    1.0515   -1.5911 H   0  0  0  0  0  0  0  0  0  0  0  0
   -3.1731    0.1256   -3.4919 C   0  0  0  0  0  0  0  0  0  0  0  0
   -2.7578    0.9597   -4.0686 H   0  0  0  0  0  0  0  0  0  0  0  0
   -2.9371   -0.8044   -4.0211 H   0  0  0  0  0  0  0  0  0  0  0  0
   -4.6254    0.2800   -3.3661 N   0  0  0  0  0  0  0  0  0  0  0  0
   -5.0672    0.3788   -4.2810 H   0  0  0  0  0  0  0  0  0  0  0  0
   -5.0375   -0.4939   -2.8461 H   0  0  0  0  0  0  0  0  0  0  0  0
    0.4077   -0.9504    1.3805 C   0  0  0  0  0  0  0  0  0  0  0  0
    1.6181   -0.8474    1.5310 O   0  0  0  0  0  0  0  0  0  0  0  0
   -0.4343   -0.5229    2.3915 N   0  0  0  0  0  0  0  0  0  0  0  0
   -1.4254   -0.6883    2.2521 H   0  0  0  0  0  0  0  0  0  0  0  0
    0.0415   -0.1754    3.7242 C   0  0  0  0  0  0  0  0  0  0  0  0
    0.7509    0.6573    3.6722 H   0  0  0  0  0  0  0  0  0  0  0  0
   -0.7969    0.1259    4.3596 H   0  0  0  0  0  0  0  0  0  0  0  0
    0.5386   -1.0343    4.1876 H   0  0  0  0  0  0  0  0  0  0  0  0
  1  2  1  0  0  0  0
  2  3  1  0  0  0  0
  2  4  1  0  0  0  0
  2  5  1  0  0  0  0
  5  6  2  0  0  0  0
  5  7  1  0  0  0  0
  7  8  1  0  0  0  0
  7  9  1  0  0  0  0
  9 10  1  0  0  0  0
  9 11  1  0  0  0  0
  9 26  1  0  0  0  0
 11 12  1  0  0  0  0
 11 13  1  0  0  0  0
 11 14  1  0  0  0  0
 14 15  1  0  0  0  0
 14 16  1  0  0  0  0
 14 17  1  0  0  0  0
 17 18  1  0  0  0  0
 17 19  1  0  0  0  0
 17 20  1  0  0  0  0
 20 21  1  0  0  0  0
 20 22  1  0  0  0  0
 20 23  1  0  0  0  0
 23 24  1  0  0  0  0
 23 25  1  0  0  0  0
 26 27  2  0  0  0  0
 26 28  1  0  0  0  0
 28 29  1  0  0  0  0
 28 30  1  0  0  0  0
 30 31  1  0  0  0  0
 30 32  1  0  0  0  0
 30 33  1  0  0  0  0
M  END
$$$$

  -OEChem-03222214063D

 33 32  0     1  0  0  0  0  0999 V2000
   -2.8398   -4.9738    0.6831 H   0  0  0  0  0  0  0  0  0  0  0  0
   -2.8867   -3.9773    0.2349 C   0  0  0  0  0  0  0  0  0  0  0  0
   -3.6985   -3.4177    0.7059 H   0  0  0  0  0  0  0  0  0  0  0  0
   -3.0950   -4.0822   -0.8327 H   0  0  0  0  0  0  0  0  0  0  0  0
   -1.5699   -3.2520    0.4389 C   0  0  0  0  0  0  0  0  0  0  0  0
   -0.6677   -3.7924    1.0521 O   0  0  0  0  0  0  0  0  0  0  0  0
   -1.4061   -1.9805   -0.0726 N   0  0  0  0  0  0  0  0  0  0  0  0
   -2.1670   -1.6085   -0.6331 H   0  0  0  0  0  0  0  0  0  0  0  0
   -0.1436   -1.2188   -0.0349 C   0  0  1  0  0  0  0  0  0  0  0  0
    0.6139   -1.8201   -0.5503 H   0  0  0  0  0  0  0  0  0  0  0  0
   -0.2957    0.1069   -0.8066 C   0  0  0  0  0  0  0  0  0  0  0  0
   -0.8349    0.8339   -0.1896 H   0  0  0  0  0  0  0  0  0  0  0  0
    0.7073    0.5140   -0.9746 H   0  0  0  0  0  0  0  0  0  0  0  0
   -1.0018   -0.0444   -2.1692 C   0  0  0  0  0  0  0  0  0  0  0  0
   -0.4503    0.5478   -2.9073 H   0  0  0  0  0  0  0  0  0  0  0  0
   -0.9723   -1.0849   -2.5093 H   0  0  0  0  0  0  0  0  0  0  0  0
   -2.4464    0.4723   -2.1251 C   0  0  0  0  0  0  0  0  0  0  0  0
   -3.0213   -0.0847   -1.3798 H   0  0  0  0  0  0  0  0  0  0  0  0
   -2.4498    1.5277   -1.8325 H   0  0  0  0  0  0  0  0  0  0  0  0
   -3.1122    0.3299   -3.4905 C   0  0  0  0  0  0  0  0  0  0  0  0
   -2.5577    0.9088   -4.2377 H   0  0  0  0  0  0  0  0  0  0  0  0
   -3.1121   -0.7197   -3.8052 H   0  0  0  0  0  0  0  0  0  0  0  0
   -4.4874    0.8275   -3.3926 N   0  0  0  0  0  0  0  0  0  0  0  0
   -4.9518    0.8152   -4.3013 H   0  0  0  0  0  0  0  0  0  0  0  0
   -5.0247    0.3050   -2.7015 H   0  0  0  0  0  0  0  0  0  0  0  0
    0.4108   -0.9423    1.3797 C   0  0  0  0  0  0  0  0  0  0  0  0
    1.6208   -0.8816    1.5540 O   0  0  0  0  0  0  0  0  0  0  0  0
   -0.4374   -0.5092    2.3833 N   0  0  0  0  0  0  0  0  0  0  0  0
   -1.4295   -0.6481    2.2235 H   0  0  0  0  0  0  0  0  0  0  0  0
    0.0229   -0.2160    3.7347 C   0  0  0  0  0  0  0  0  0  0  0  0
    0.7807    0.5746    3.7200 H   0  0  0  0  0  0  0  0  0  0  0  0
   -0.8134    0.1212    4.3542 H   0  0  0  0  0  0  0  0  0  0  0  0
    0.4570   -1.1112    4.1926 H   0  0  0  0  0  0  0  0  0  0  0  0
  1  2  1  0  0  0  0
  2  3  1  0  0  0  0
  2  4  1  0  0  0  0
  2  5  1  0  0  0  0
  5  6  2  0  0  0  0
  5  7  1  0  0  0  0
  7  8  1  0  0  0  0
  7  9  1  0  0  0  0
  9 10  1  0  0  0  0
  9 11  1  0  0  0  0
  9 26  1  0  0  0  0
 11 12  1  0  0  0  0
 11 13  1  0  0  0  0
 11 14  1  0  0  0  0
 14 15  1  0  0  0  0
 14 16  1  0  0  0  0
 14 17  1  0  0  0  0
 17 18  1  0  0  0  0
 17 19  1  0  0  0  0
 17 20  1  0  0  0  0
 20 21  1  0  0  0  0
 20 22  1  0  0  0  0
 20 23  1  0  0  0  0
 23 24  1  0  0  0  0
 23 25  1  0  0  0  0
 26 27  2  0  0  0  0
 26 28  1  0  0  0  0
 28 29  1  0  0  0  0
 28 30  1  0  0  0  0
 30 31  1  0  0  0  0
 30 32  1  0  0  0  0
 30 33  1  0  0  0  0
M  END
$$$$

  -OEChem-03222214063D

 33 32  0     1  0  0  0  0  0999 V2000
   -2.8127   -4.9991    0.7255 H   0  0  0  0  0  0  0  0  0  0  0  0
   -2.8735   -4.0063    0.2704 C   0  0  0  0  0  0  0  0  0  0  0  0
   -3.6815   -3.4487    0.7498 H   0  0  0  0  0  0  0  0  0  0  0  0
   -3.0976   -4.1208   -0.7928 H   0  0  0  0  0  0  0  0  0  0  0  0
   -1.5586   -3.2707    0.4466 C   0  0  0  0  0  0  0  0  0  0  0  0
   -0.6410   -3.8041    1.0429 O   0  0  0  0  0  0  0  0  0  0  0  0
   -1.4122   -1.9987   -0.0702 N   0  0  0  0  0  0  0  0  0  0  0  0
   -2.1899   -1.6258   -0.6066 H   0  0  0  0  0  0  0  0  0  0  0  0
   -0.1556   -1.2251   -0.0416 C   0  0  1  0  0  0  0  0  0  0  0  0
    0.6044   -1.8232   -0.5568 H   0  0  0  0  0  0  0  0  0  0  0  0
   -0.3126    0.0974   -0.8191 C   0  0  0  0  0  0  0  0  0  0  0  0
   -0.8664    0.8073   -0.1951 H   0  0  0  0  0  0  0  0  0  0  0  0
    0.6833    0.5258   -0.9773 H   0  0  0  0  0  0  0  0  0  0  0  0
   -1.0172   -0.0446   -2.1866 C   0  0  0  0  0  0  0  0  0  0  0  0
   -0.3307    0.3088   -2.9635 H   0  0  0  0  0  0  0  0  0  0  0  0
   -1.2393   -1.0904   -2.4190 H   0  0  0  0  0  0  0  0  0  0  0  0
   -2.2999    0.7930   -2.2489 C   0  0  0  0  0  0  0  0  0  0  0  0
   -2.9999    0.4510   -1.4799 H   0  0  0  0  0  0  0  0  0  0  0  0
   -2.0643    1.8439   -2.0496 H   0  0  0  0  0  0  0  0  0  0  0  0
   -2.9557    0.6800   -3.6220 C   0  0  0  0  0  0  0  0  0  0  0  0
   -2.2713    1.0470   -4.3952 H   0  0  0  0  0  0  0  0  0  0  0  0
   -3.1896   -0.3672   -3.8443 H   0  0  0  0  0  0  0  0  0  0  0  0
   -4.1822    1.4825   -3.6182 N   0  0  0  0  0  0  0  0  0  0  0  0
   -4.6374    1.4690   -4.5315 H   0  0  0  0  0  0  0  0  0  0  0  0
   -4.8232    1.1775   -2.8863 H   0  0  0  0  0  0  0  0  0  0  0  0
    0.4012   -0.9417    1.3710 C   0  0  0  0  0  0  0  0  0  0  0  0
    1.6108   -0.8706    1.5427 O   0  0  0  0  0  0  0  0  0  0  0  0
   -0.4473   -0.5148    2.3769 N   0  0  0  0  0  0  0  0  0  0  0  0
   -1.4387   -0.6615    2.2205 H   0  0  0  0  0  0  0  0  0  0  0  0
    0.0142   -0.2120    3.7261 C   0  0  0  0  0  0  0  0  0  0  0  0
    0.7652    0.5848    3.7059 H   0  0  0  0  0  0  0  0  0  0  0  0
   -0.8233    0.1213    4.3465 H   0  0  0  0  0  0  0  0  0  0  0  0
    0.4567   -1.1014    4.1874 H   0  0  0  0  0  0  0  0  0  0  0  0
  1  2  1  0  0  0  0
  2  3  1  0  0  0  0
  2  4  1  0  0  0  0
  2  5  1  0  0  0  0
  5  6  2  0  0  0  0
  5  7  1  0  0  0  0
  7  8  1  0  0  0  0
  7  9  1  0  0  0  0
  9 10  1  0  0  0  0
  9 11  1  0  0  0  0
  9 26  1  0  0  0  0
 11 12  1  0  0  0  0
 11 13  1  0  0  0  0
 11 14  1  0  0  0  0
 14 15  1  0  0  0  0
 14 16  1  0  0  0  0
 14 17  1  0  0  0  0
 17 18  1  0  0  0  0
 17 19  1  0  0  0  0
 17 20  1  0  0  0  0
 20 21  1  0  0  0  0
 20 22  1  0  0  0  0
 20 23  1  0  0  0  0
 23 24  1  0  0  0  0
 23 25  1  0  0  0  0
 26 27  2  0  0  0  0
 26 28  1  0  0  0  0
 28 29  1  0  0  0  0
 28 30  1  0  0  0  0
 30 31  1  0  0  0  0
 30 32  1  0  0  0  0
 30 33  1  0  0  0  0
M  END
$$$$

  -OEChem-03222214063D

 33 32  0     1  0  0  0  0  0999 V2000
   -2.7791   -5.0312    0.7552 H   0  0  0  0  0  0  0  0  0  0  0  0
   -2.8559   -4.0377    0.3042 C   0  0  0  0  0  0  0  0  0  0  0  0
   -3.6607   -3.4882    0.7983 H   0  0  0  0  0  0  0  0  0  0  0  0
   -3.0963   -4.1509   -0.7557 H   0  0  0  0  0  0  0  0  0  0  0  0
   -1.5446   -3.2916    0.4609 C   0  0  0  0  0  0  0  0  0  0  0  0
   -0.6139   -3.8153    1.0456 O   0  0  0  0  0  0  0  0  0  0  0  0
   -1.4185   -2.0194   -0.0610 N   0  0  0  0  0  0  0  0  0  0  0  0
   -2.2129   -1.6519   -0.5755 H   0  0  0  0  0  0  0  0  0  0  0  0
   -0.1732   -1.2277   -0.0476 C   0  0  1  0  0  0  0  0  0  0  0  0
    0.5895   -1.8222   -0.5631 H   0  0  0  0  0  0  0  0  0  0  0  0
   -0.3364    0.0909   -0.8339 C   0  0  0  0  0  0  0  0  0  0  0  0
   -0.9108    0.7810   -0.2066 H   0  0  0  0  0  0  0  0  0  0  0  0
    0.6498    0.5442   -0.9812 H   0  0  0  0  0  0  0  0  0  0  0  0
   -1.0392   -0.0411   -2.2048 C   0  0  0  0  0  0  0  0  0  0  0  0
   -0.2806    0.0306   -2.9918 H   0  0  0  0  0  0  0  0  0  0  0  0
   -1.5236   -1.0135   -2.3229 H   0  0  0  0  0  0  0  0  0  0  0  0
   -2.0875    1.0608   -2.4019 C   0  0  0  0  0  0  0  0  0  0  0  0
   -2.8614    0.9756   -1.6325 H   0  0  0  0  0  0  0  0  0  0  0  0
   -1.6124    2.0423   -2.2974 H   0  0  0  0  0  0  0  0  0  0  0  0
   -2.7302    0.9593   -3.7827 C   0  0  0  0  0  0  0  0  0  0  0  0
   -1.9650    1.0628   -4.5603 H   0  0  0  0  0  0  0  0  0  0  0  0
   -3.2094   -0.0182   -3.9050 H   0  0  0  0  0  0  0  0  0  0  0  0
   -3.7241    2.0283   -3.9153 N   0  0  0  0  0  0  0  0  0  0  0  0
   -4.1588    2.0187   -4.8384 H   0  0  0  0  0  0  0  0  0  0  0  0
   -4.4280    1.9738   -3.1796 H   0  0  0  0  0  0  0  0  0  0  0  0
    0.3906   -0.9328    1.3600 C   0  0  0  0  0  0  0  0  0  0  0  0
    1.6005   -0.8454    1.5222 O   0  0  0  0  0  0  0  0  0  0  0  0
   -0.4563   -0.5156    2.3712 N   0  0  0  0  0  0  0  0  0  0  0  0
   -1.4464   -0.6782    2.2226 H   0  0  0  0  0  0  0  0  0  0  0  0
    0.0110   -0.2113    3.7179 C   0  0  0  0  0  0  0  0  0  0  0  0
    0.7725    0.5756    3.6926 H   0  0  0  0  0  0  0  0  0  0  0  0
   -0.8210    0.1364    4.3375 H   0  0  0  0  0  0  0  0  0  0  0  0
    0.4427   -1.1043    4.1824 H   0  0  0  0  0  0  0  0  0  0  0  0
  1  2  1  0  0  0  0
  2  3  1  0  0  0  0
  2  4  1  0  0  0  0
  2  5  1  0  0  0  0
  5  6  2  0  0  0  0
  5  7  1  0  0  0  0
  7  8  1  0  0  0  0
  7  9  1  0  0  0  0
  9 10  1  0  0  0  0
  9 11  1  0  0  0  0
  9 26  1  0  0  0  0
 11 12  1  0  0  0  0
 11 13  1  0  0  0  0
 11 14  1  0  0  0  0
 14 15  1  0  0  0  0
 14 16  1  0  0  0  0
 14 17  1  0  0  0  0
 17 18  1  0  0  0  0
 17 19  1  0  0  0  0
 17 20  1  0  0  0  0
 20 21  1  0  0  0  0
 20 22  1  0  0  0  0
 20 23  1  0  0  0  0
 23 24  1  0  0  0  0
 23 25  1  0  0  0  0
 26 27  2  0  0  0  0
 26 28  1  0  0  0  0
 28 29  1  0  0  0  0
 28 30  1  0  0  0  0
 30 31  1  0  0  0  0
 30 32  1  0  0  0  0
 30 33  1  0  0  0  0
M  END
$$$$

  -OEChem-03222214063D

 33 32  0     1  0  0  0  0  0999 V2000
   -2.7631   -5.0406    0.7812 H   0  0  0  0  0  0  0  0  0  0  0  0
   -2.8497   -4.0501    0.3256 C   0  0  0  0  0  0  0  0  0  0  0  0
   -3.6518   -3.5021    0.8258 H   0  0  0  0  0  0  0  0  0  0  0  0
   -3.1018   -4.1708   -0.7307 H   0  0  0  0  0  0  0  0  0  0  0  0
   -1.5400   -3.2972    0.4628 C   0  0  0  0  0  0  0  0  0  0  0  0
   -0.6002   -3.8141    1.0387 O   0  0  0  0  0  0  0  0  0  0  0  0
   -1.4253   -2.0264   -0.0650 N   0  0  0  0  0  0  0  0  0  0  0  0
   -2.2281   -1.6626   -0.5683 H   0  0  0  0  0  0  0  0  0  0  0  0
   -0.1845   -1.2277   -0.0619 C   0  0  1  0  0  0  0  0  0  0  0  0
    0.5789   -1.8216   -0.5773 H   0  0  0  0  0  0  0  0  0  0  0  0
   -0.3490    0.0901   -0.8503 C   0  0  0  0  0  0  0  0  0  0  0  0
   -0.9321    0.7739   -0.2241 H   0  0  0  0  0  0  0  0  0  0  0  0
    0.6338    0.5511   -0.9969 H   0  0  0  0  0  0  0  0  0  0  0  0
   -1.0547   -0.0421   -2.2177 C   0  0  0  0  0  0  0  0  0  0  0  0
   -0.3029   -0.2586   -2.9843 H   0  0  0  0  0  0  0  0  0  0  0  0
   -1.7718   -0.8660   -2.2258 H   0  0  0  0  0  0  0  0  0  0  0  0
   -1.8119    1.2450   -2.5656 C   0  0  0  0  0  0  0  0  0  0  0  0
   -2.5898    1.4303   -1.8179 H   0  0  0  0  0  0  0  0  0  0  0  0
   -1.1189    2.0931   -2.5501 H   0  0  0  0  0  0  0  0  0  0  0  0
   -2.4511    1.1445   -3.9478 C   0  0  0  0  0  0  0  0  0  0  0  0
   -1.6786    0.9730   -4.7061 H   0  0  0  0  0  0  0  0  0  0  0  0
   -3.1515    0.3025   -3.9793 H   0  0  0  0  0  0  0  0  0  0  0  0
   -3.1570    2.3979   -4.2292 N   0  0  0  0  0  0  0  0  0  0  0  0
   -3.5821    2.3849   -5.1567 H   0  0  0  0  0  0  0  0  0  0  0  0
   -3.8524    2.6006   -3.5114 H   0  0  0  0  0  0  0  0  0  0  0  0
    0.3810   -0.9275    1.3438 C   0  0  0  0  0  0  0  0  0  0  0  0
    1.5905   -0.8322    1.5043 O   0  0  0  0  0  0  0  0  0  0  0  0
   -0.4672   -0.5135    2.3555 N   0  0  0  0  0  0  0  0  0  0  0  0
   -1.4566   -0.6819    2.2087 H   0  0  0  0  0  0  0  0  0  0  0  0
   -0.0000   -0.2067    3.7012 C   0  0  0  0  0  0  0  0  0  0  0  0
    0.7568    0.5844    3.6736 H   0  0  0  0  0  0  0  0  0  0  0  0
   -0.8332    0.1362    4.3220 H   0  0  0  0  0  0  0  0  0  0  0  0
    0.4373   -1.0970    4.1654 H   0  0  0  0  0  0  0  0  0  0  0  0
  1  2  1  0  0  0  0
  2  3  1  0  0  0  0
  2  4  1  0  0  0  0
  2  5  1  0  0  0  0
  5  6  2  0  0  0  0
  5  7  1  0  0  0  0
  7  8  1  0  0  0  0
  7  9  1  0  0  0  0
  9 10  1  0  0  0  0
  9 11  1  0  0  0  0
  9 26  1  0  0  0  0
 11 12  1  0  0  0  0
 11 13  1  0  0  0  0
 11 14  1  0  0  0  0
 14 15  1  0  0  0  0
 14 16  1  0  0  0  0
 14 17  1  0  0  0  0
 17 18  1  0  0  0  0
 17 19  1  0  0  0  0
 17 20  1  0  0  0  0
 20 21  1  0  0  0  0
 20 22  1  0  0  0  0
 20 23  1  0  0  0  0
 23 24  1  0  0  0  0
 23 25  1  0  0  0  0
 26 27  2  0  0  0  0
 26 28  1  0  0  0  0
 28 29  1  0  0  0  0
 28 30  1  0  0  0  0
 30 31  1  0  0  0  0
 30 32  1  0  0  0  0
 30 33  1  0  0  0  0
M  END
$$$$

  -OEChem-03222214063D

 33 32  0     1  0  0  0  0  0999 V2000
   -2.7672   -5.0381    0.7665 H   0  0  0  0  0  0  0  0  0  0  0  0
   -2.8567   -4.0466    0.3134 C   0  0  0  0  0  0  0  0  0  0  0  0
   -3.6618   -3.5027    0.8132 H   0  0  0  0  0  0  0  0  0  0  0  0
   -3.1058   -4.1655   -0.7439 H   0  0  0  0  0  0  0  0  0  0  0  0
   -1.5507   -3.2881    0.4572 C   0  0  0  0  0  0  0  0  0  0  0  0
   -0.6138   -3.8003    1.0419 O   0  0  0  0  0  0  0  0  0  0  0  0
   -1.4364   -2.0175   -0.0723 N   0  0  0  0  0  0  0  0  0  0  0  0
   -2.2311   -1.6658   -0.5964 H   0  0  0  0  0  0  0  0  0  0  0  0
   -0.1932   -1.2221   -0.0712 C   0  0  1  0  0  0  0  0  0  0  0  0
    0.5678   -1.8170   -0.5890 H   0  0  0  0  0  0  0  0  0  0  0  0
   -0.3568    0.0972   -0.8563 C   0  0  0  0  0  0  0  0  0  0  0  0
   -0.9357    0.7886   -0.2346 H   0  0  0  0  0  0  0  0  0  0  0  0
    0.6299    0.5479   -1.0106 H   0  0  0  0  0  0  0  0  0  0  0  0
   -1.0679   -0.0428   -2.2166 C   0  0  0  0  0  0  0  0  0  0  0  0
   -0.3875   -0.5190   -2.9305 H   0  0  0  0  0  0  0  0  0  0  0  0
   -1.9597   -0.6696   -2.1357 H   0  0  0  0  0  0  0  0  0  0  0  0
   -1.5043    1.3331   -2.7337 C   0  0  0  0  0  0  0  0  0  0  0  0
   -2.2150    1.7838   -2.0335 H   0  0  0  0  0  0  0  0  0  0  0  0
   -0.6317    1.9917   -2.7993 H   0  0  0  0  0  0  0  0  0  0  0  0
   -2.1505    1.2198   -4.1117 C   0  0  0  0  0  0  0  0  0  0  0  0
   -1.4450    0.7732   -4.8214 H   0  0  0  0  0  0  0  0  0  0  0  0
   -3.0361    0.5770   -4.0612 H   0  0  0  0  0  0  0  0  0  0  0  0
   -2.5266    2.5627   -4.5618 N   0  0  0  0  0  0  0  0  0  0  0  0
   -2.9484    2.5392   -5.4903 H   0  0  0  0  0  0  0  0  0  0  0  0
   -3.1450    3.0184   -3.8910 H   0  0  0  0  0  0  0  0  0  0  0  0
    0.3769   -0.9218    1.3331 C   0  0  0  0  0  0  0  0  0  0  0  0
    1.5873   -0.8320    1.4902 O   0  0  0  0  0  0  0  0  0  0  0  0
   -0.4665   -0.5043    2.3473 N   0  0  0  0  0  0  0  0  0  0  0  0
   -1.4565   -0.6710    2.2035 H   0  0  0  0  0  0  0  0  0  0  0  0
    0.0058   -0.1975    3.6915 C   0  0  0  0  0  0  0  0  0  0  0  0
    0.7651    0.5912    3.6620 H   0  0  0  0  0  0  0  0  0  0  0  0
   -0.8244    0.1488    4.3143 H   0  0  0  0  0  0  0  0  0  0  0  0
    0.4417   -1.0886    4.1554 H   0  0  0  0  0  0  0  0  0  0  0  0
  1  2  1  0  0  0  0
  2  3  1  0  0  0  0
  2  4  1  0  0  0  0
  2  5  1  0  0  0  0
  5  6  2  0  0  0  0
  5  7  1  0  0  0  0
  7  8  1  0  0  0  0
  7  9  1  0  0  0  0
  9 10  1  0  0  0  0
  9 11  1  0  0  0  0
  9 26  1  0  0  0  0
 11 12  1  0  0  0  0
 11 13  1  0  0  0  0
 11 14  1  0  0  0  0
 14 15  1  0  0  0  0
 14 16  1  0  0  0  0
 14 17  1  0  0  0  0
 17 18  1  0  0  0  0
 17 19  1  0  0  0  0
 17 20  1  0  0  0  0
 20 21  1  0  0  0  0
 20 22  1  0  0  0  0
 20 23  1  0  0  0  0
 23 24  1  0  0  0  0
 23 25  1  0  0  0  0
 26 27  2  0  0  0  0
 26 28  1  0  0  0  0
 28 29  1  0  0  0  0
 28 30  1  0  0  0  0
 30 31  1  0  0  0  0
 30 32  1  0  0  0  0
 30 33  1  0  0  0  0
M  END
$$$$

  -OEChem-03222214063D

 33 32  0     1  0  0  0  0  0999 V2000
   -2.7428   -5.0594    0.7583 H   0  0  0  0  0  0  0  0  0  0  0  0
   -2.8425   -4.0708    0.3009 C   0  0  0  0  0  0  0  0  0  0  0  0
   -3.6623   -3.5390    0.7895 H   0  0  0  0  0  0  0  0  0  0  0  0
   -3.0773   -4.1965   -0.7587 H   0  0  0  0  0  0  0  0  0  0  0  0
   -1.5504   -3.2913    0.4579 C   0  0  0  0  0  0  0  0  0  0  0  0
   -0.6087   -3.7922    1.0448 O   0  0  0  0  0  0  0  0  0  0  0  0
   -1.4554   -2.0133   -0.0578 N   0  0  0  0  0  0  0  0  0  0  0  0
   -2.2460   -1.6799   -0.5993 H   0  0  0  0  0  0  0  0  0  0  0  0
   -0.2186   -1.2065   -0.0602 C   0  0  1  0  0  0  0  0  0  0  0  0
    0.5362   -1.8019   -0.5865 H   0  0  0  0  0  0  0  0  0  0  0  0
   -0.3771    0.1154   -0.8471 C   0  0  0  0  0  0  0  0  0  0  0  0
   -0.7131    0.8966   -0.1567 H   0  0  0  0  0  0  0  0  0  0  0  0
    0.6076    0.4161   -1.2216 H   0  0  0  0  0  0  0  0  0  0  0  0
   -1.3776    0.0598   -2.0148 C   0  0  0  0  0  0  0  0  0  0  0  0
   -1.0655   -0.7118   -2.7268 H   0  0  0  0  0  0  0  0  0  0  0  0
   -2.3775   -0.1923   -1.6490 H   0  0  0  0  0  0  0  0  0  0  0  0
   -1.4486    1.4199   -2.7176 C   0  0  0  0  0  0  0  0  0  0  0  0
   -1.7627    2.1882   -2.0037 H   0  0  0  0  0  0  0  0  0  0  0  0
   -0.4556    1.6923   -3.0910 H   0  0  0  0  0  0  0  0  0  0  0  0
   -2.4296    1.3805   -3.8859 C   0  0  0  0  0  0  0  0  0  0  0  0
   -2.1212    0.6183   -4.6103 H   0  0  0  0  0  0  0  0  0  0  0  0
   -3.4323    1.1236   -3.5270 H   0  0  0  0  0  0  0  0  0  0  0  0
   -2.4452    2.6987   -4.5258 N   0  0  0  0  0  0  0  0  0  0  0  0
   -3.0857    2.7201   -5.3196 H   0  0  0  0  0  0  0  0  0  0  0  0
   -2.6707    3.4328   -3.8544 H   0  0  0  0  0  0  0  0  0  0  0  0
    0.3682   -0.9155    1.3390 C   0  0  0  0  0  0  0  0  0  0  0  0
    1.5792   -0.8084    1.4788 O   0  0  0  0  0  0  0  0  0  0  0  0
   -0.4661   -0.5163    2.3680 N   0  0  0  0  0  0  0  0  0  0  0  0
   -1.4553   -0.6995    2.2384 H   0  0  0  0  0  0  0  0  0  0  0  0
    0.0218   -0.2120    3.7074 C   0  0  0  0  0  0  0  0  0  0  0  0
    0.7663    0.5906    3.6724 H   0  0  0  0  0  0  0  0  0  0  0  0
   -0.8048    0.1145    4.3456 H   0  0  0  0  0  0  0  0  0  0  0  0
    0.4808   -1.0989    4.1572 H   0  0  0  0  0  0  0  0  0  0  0  0
  1  2  1  0  0  0  0
  2  3  1  0  0  0  0
  2  4  1  0  0  0  0
  2  5  1  0  0  0  0
  5  6  2  0  0  0  0
  5  7  1  0  0  0  0
  7  8  1  0  0  0  0
  7  9  1  0  0  0  0
  9 10  1  0  0  0  0
  9 11  1  0  0  0  0
  9 26  1  0  0  0  0
 11 12  1  0  0  0  0
 11 13  1  0  0  0  0
 11 14  1  0  0  0  0
 14 15  1  0  0  0  0
 14 16  1  0  0  0  0
 14 17  1  0  0  0  0
 17 18  1  0  0  0  0
 17 19  1  0  0  0  0
 17 20  1  0  0  0  0
 20 21  1  0  0  0  0
 20 22  1  0  0  0  0
 20 23  1  0  0  0  0
 23 24  1  0  0  0  0
 23 25  1  0  0  0  0
 26 27  2  0  0  0  0
 26 28  1  0  0  0  0
 28 29  1  0  0  0  0
 28 30  1  0  0  0  0
 30 31  1  0  0  0  0
 30 32  1  0  0  0  0
 30 33  1  0  0  0  0
M  END
$$$$

  -OEChem-03222214063D

 33 32  0     1  0  0  0  0  0999 V2000
   -2.7795   -5.0288    0.7290 H   0  0  0  0  0  0  0  0  0  0  0  0
   -2.8658   -4.0371    0.2754 C   0  0  0  0  0  0  0  0  0  0  0  0
   -3.6862   -3.5004    0.7573 H   0  0  0  0  0  0  0  0  0  0  0  0
   -3.0899   -4.1560   -0.7874 H   0  0  0  0  0  0  0  0  0  0  0  0
   -1.5687   -3.2698    0.4498 C   0  0  0  0  0  0  0  0  0  0  0  0
   -0.6395   -3.7797    1.0487 O   0  0  0  0  0  0  0  0  0  0  0  0
   -1.4538   -1.9941   -0.0671 N   0  0  0  0  0  0  0  0  0  0  0  0
   -2.2350   -1.6517   -0.6167 H   0  0  0  0  0  0  0  0  0  0  0  0
   -0.2062   -1.2040   -0.0649 C   0  0  1  0  0  0  0  0  0  0  0  0
    0.5441   -1.8035   -0.5927 H   0  0  0  0  0  0  0  0  0  0  0  0
   -0.3628    0.1213   -0.8448 C   0  0  0  0  0  0  0  0  0  0  0  0
   -0.6808    0.9142   -0.1592 H   0  0  0  0  0  0  0  0  0  0  0  0
    0.6241    0.4030   -1.2291 H   0  0  0  0  0  0  0  0  0  0  0  0
   -1.3727    0.0625   -2.0039 C   0  0  0  0  0  0  0  0  0  0  0  0
   -1.2107   -0.8531   -2.5833 H   0  0  0  0  0  0  0  0  0  0  0  0
   -2.3942    0.0457   -1.6101 H   0  0  0  0  0  0  0  0  0  0  0  0
   -1.1947    1.2695   -2.9316 C   0  0  0  0  0  0  0  0  0  0  0  0
   -1.3362    2.1944   -2.3630 H   0  0  0  0  0  0  0  0  0  0  0  0
   -0.1772    1.2748   -3.3365 H   0  0  0  0  0  0  0  0  0  0  0  0
   -2.1923    1.2245   -4.0854 C   0  0  0  0  0  0  0  0  0  0  0  0
   -2.0635    0.2990   -4.6579 H   0  0  0  0  0  0  0  0  0  0  0  0
   -3.2169    1.2465   -3.6983 H   0  0  0  0  0  0  0  0  0  0  0  0
   -1.9550    2.3822   -4.9515 N   0  0  0  0  0  0  0  0  0  0  0  0
   -2.5965    2.3918   -5.7446 H   0  0  0  0  0  0  0  0  0  0  0  0
   -2.0117    3.2543   -4.4255 H   0  0  0  0  0  0  0  0  0  0  0  0
    0.3788   -0.9183    1.3358 C   0  0  0  0  0  0  0  0  0  0  0  0
    1.5903   -0.8243    1.4805 O   0  0  0  0  0  0  0  0  0  0  0  0
   -0.4559   -0.5061    2.3593 N   0  0  0  0  0  0  0  0  0  0  0  0
   -1.4461   -0.6801    2.2249 H   0  0  0  0  0  0  0  0  0  0  0  0
    0.0285   -0.2092    3.7013 C   0  0  0  0  0  0  0  0  0  0  0  0
    0.7837    0.5834    3.6709 H   0  0  0  0  0  0  0  0  0  0  0  0
   -0.7968    0.1277    4.3357 H   0  0  0  0  0  0  0  0  0  0  0  0
    0.4731   -1.1026    4.1523 H   0  0  0  0  0  0  0  0  0  0  0  0
  1  2  1  0  0  0  0
  2  3  1  0  0  0  0
  2  4  1  0  0  0  0
  2  5  1  0  0  0  0
  5  6  2  0  0  0  0
  5  7  1  0  0  0  0
  7  8  1  0  0  0  0
  7  9  1  0  0  0  0
  9 10  1  0  0  0  0
  9 11  1  0  0  0  0
  9 26  1  0  0  0  0
 11 12  1  0  0  0  0
 11 13  1  0  0  0  0
 11 14  1  0  0  0  0
 14 15  1  0  0  0  0
 14 16  1  0  0  0  0
 14 17  1  0  0  0  0
 17 18  1  0  0  0  0
 17 19  1  0  0  0  0
 17 20  1  0  0  0  0
 20 21  1  0  0  0  0
 20 22  1  0  0  0  0
 20 23  1  0  0  0  0
 23 24  1  0  0  0  0
 23 25  1  0  0  0  0
 26 27  2  0  0  0  0
 26 28  1  0  0  0  0
 28 29  1  0  0  0  0
 28 30  1  0  0  0  0
 30 31  1  0  0  0  0
 30 32  1  0  0  0  0
 30 33  1  0  0  0  0
M  END
$$$$

  -OEChem-03222214063D

 33 32  0     1  0  0  0  0  0999 V2000
   -2.7958   -5.0165    0.7460 H   0  0  0  0  0  0  0  0  0  0  0  0
   -2.8792   -4.0252    0.2909 C   0  0  0  0  0  0  0  0  0  0  0  0
   -3.6919   -3.4818    0.7789 H   0  0  0  0  0  0  0  0  0  0  0  0
   -3.1131   -4.1451   -0.7696 H   0  0  0  0  0  0  0  0  0  0  0  0
   -1.5755   -3.2660    0.4521 C   0  0  0  0  0  0  0  0  0  0  0  0
   -0.6451   -3.7797    1.0458 O   0  0  0  0  0  0  0  0  0  0  0  0
   -1.4578   -1.9913   -0.0668 N   0  0  0  0  0  0  0  0  0  0  0  0
   -2.2426   -1.6436   -0.6082 H   0  0  0  0  0  0  0  0  0  0  0  0
   -0.2086   -1.2036   -0.0681 C   0  0  1  0  0  0  0  0  0  0  0  0
    0.5395   -1.8061   -0.5958 H   0  0  0  0  0  0  0  0  0  0  0  0
   -0.3632    0.1199   -0.8518 C   0  0  0  0  0  0  0  0  0  0  0  0
   -0.6733    0.9199   -0.1712 H   0  0  0  0  0  0  0  0  0  0  0  0
    0.6281    0.3905   -1.2326 H   0  0  0  0  0  0  0  0  0  0  0  0
   -1.3730    0.0692   -2.0147 C   0  0  0  0  0  0  0  0  0  0  0  0
   -1.3902   -0.9368   -2.4472 H   0  0  0  0  0  0  0  0  0  0  0  0
   -2.3774    0.3021   -1.6460 H   0  0  0  0  0  0  0  0  0  0  0  0
   -0.9678    1.0427   -3.1279 C   0  0  0  0  0  0  0  0  0  0  0  0
   -0.9109    2.0582   -2.7223 H   0  0  0  0  0  0  0  0  0  0  0  0
    0.0233    0.7751   -3.5099 H   0  0  0  0  0  0  0  0  0  0  0  0
   -1.9720    1.0108   -4.2764 C   0  0  0  0  0  0  0  0  0  0  0  0
   -2.0420   -0.0030   -4.6861 H   0  0  0  0  0  0  0  0  0  0  0  0
   -2.9646    1.3027   -3.9160 H   0  0  0  0  0  0  0  0  0  0  0  0
   -1.5194    1.9374   -5.3177 N   0  0  0  0  0  0  0  0  0  0  0  0
   -2.1624    1.9507   -6.1096 H   0  0  0  0  0  0  0  0  0  0  0  0
   -1.3825    2.8762   -4.9425 H   0  0  0  0  0  0  0  0  0  0  0  0
    0.3786   -0.9175    1.3315 C   0  0  0  0  0  0  0  0  0  0  0  0
    1.5906   -0.8249    1.4734 O   0  0  0  0  0  0  0  0  0  0  0  0
   -0.4529   -0.5025    2.3566 N   0  0  0  0  0  0  0  0  0  0  0  0
   -1.4435   -0.6772    2.2255 H   0  0  0  0  0  0  0  0  0  0  0  0
    0.0361   -0.2145    3.6989 C   0  0  0  0  0  0  0  0  0  0  0  0
    0.8017    0.5679    3.6698 H   0  0  0  0  0  0  0  0  0  0  0  0
   -0.7843    0.1318    4.3342 H   0  0  0  0  0  0  0  0  0  0  0  0
    0.4693   -1.1144    4.1479 H   0  0  0  0  0  0  0  0  0  0  0  0
  1  2  1  0  0  0  0
  2  3  1  0  0  0  0
  2  4  1  0  0  0  0
  2  5  1  0  0  0  0
  5  6  2  0  0  0  0
  5  7  1  0  0  0  0
  7  8  1  0  0  0  0
  7  9  1  0  0  0  0
  9 10  1  0  0  0  0
  9 11  1  0  0  0  0
  9 26  1  0  0  0  0
 11 12  1  0  0  0  0
 11 13  1  0  0  0  0
 11 14  1  0  0  0  0
 14 15  1  0  0  0  0
 14 16  1  0  0  0  0
 14 17  1  0  0  0  0
 17 18  1  0  0  0  0
 17 19  1  0  0  0  0
 17 20  1  0  0  0  0
 20 21  1  0  0  0  0
 20 22  1  0  0  0  0
 20 23  1  0  0  0  0
 23 24  1  0  0  0  0
 23 25  1  0  0  0  0
 26 27  2  0  0  0  0
 26 28  1  0  0  0  0
 28 29  1  0  0  0  0
 28 30  1  0  0  0  0
 30 31  1  0  0  0  0
 30 32  1  0  0  0  0
 30 33  1  0  0  0  0
M  END
$$$$

  -OEChem-03222214063D

 33 32  0     1  0  0  0  0  0999 V2000
   -2.8014   -5.0267    0.7835 H   0  0  0  0  0  0  0  0  0  0  0  0
   -2.8887   -4.0391    0.3217 C   0  0  0  0  0  0  0  0  0  0  0  0
   -3.6979   -3.4922    0.8115 H   0  0  0  0  0  0  0  0  0  0  0  0
   -3.1299   -4.1670   -0.7363 H   0  0  0  0  0  0  0  0  0  0  0  0
   -1.5841   -3.2790    0.4678 C   0  0  0  0  0  0  0  0  0  0  0  0
   -0.6456   -3.7918    1.0496 O   0  0  0  0  0  0  0  0  0  0  0  0
   -1.4744   -2.0048   -0.0532 N   0  0  0  0  0  0  0  0  0  0  0  0
   -2.2694   -1.6544   -0.5779 H   0  0  0  0  0  0  0  0  0  0  0  0
   -0.2274   -1.2143   -0.0698 C   0  0  1  0  0  0  0  0  0  0  0  0
    0.5150   -1.8211   -0.6009 H   0  0  0  0  0  0  0  0  0  0  0  0
   -0.3777    0.1064   -0.8619 C   0  0  0  0  0  0  0  0  0  0  0  0
   -0.6867    0.9038   -0.1779 H   0  0  0  0  0  0  0  0  0  0  0  0
    0.6172    0.3789   -1.2315 H   0  0  0  0  0  0  0  0  0  0  0  0
   -1.3872    0.0810   -2.0317 C   0  0  0  0  0  0  0  0  0  0  0  0
   -1.6329   -0.9477   -2.3113 H   0  0  0  0  0  0  0  0  0  0  0  0
   -2.3131    0.5818   -1.7301 H   0  0  0  0  0  0  0  0  0  0  0  0
   -0.7927    0.7528   -3.2757 C   0  0  0  0  0  0  0  0  0  0  0  0
   -0.5137    1.7844   -3.0368 H   0  0  0  0  0  0  0  0  0  0  0  0
    0.1133    0.2197   -3.5835 H   0  0  0  0  0  0  0  0  0  0  0  0
   -1.7900    0.7530   -4.4310 C   0  0  0  0  0  0  0  0  0  0  0  0
   -2.0892   -0.2735   -4.6709 H   0  0  0  0  0  0  0  0  0  0  0  0
   -2.6885    1.3140   -4.1513 H   0  0  0  0  0  0  0  0  0  0  0  0
   -1.1502    1.3691   -5.5964 N   0  0  0  0  0  0  0  0  0  0  0  0
   -1.7845    1.4045   -6.3944 H   0  0  0  0  0  0  0  0  0  0  0  0
   -0.7928    2.2980   -5.3728 H   0  0  0  0  0  0  0  0  0  0  0  0
    0.3748   -0.9256    1.3232 C   0  0  0  0  0  0  0  0  0  0  0  0
    1.5877   -0.8240    1.4504 O   0  0  0  0  0  0  0  0  0  0  0  0
   -0.4471   -0.5118    2.3564 N   0  0  0  0  0  0  0  0  0  0  0  0
   -1.4374   -0.6978    2.2402 H   0  0  0  0  0  0  0  0  0  0  0  0
    0.0562   -0.2028    3.6888 C   0  0  0  0  0  0  0  0  0  0  0  0
    0.8092    0.5910    3.6405 H   0  0  0  0  0  0  0  0  0  0  0  0
   -0.7610    0.1376    4.3319 H   0  0  0  0  0  0  0  0  0  0  0  0
    0.5093   -1.0913    4.1412 H   0  0  0  0  0  0  0  0  0  0  0  0
  1  2  1  0  0  0  0
  2  3  1  0  0  0  0
  2  4  1  0  0  0  0
  2  5  1  0  0  0  0
  5  6  2  0  0  0  0
  5  7  1  0  0  0  0
  7  8  1  0  0  0  0
  7  9  1  0  0  0  0
  9 10  1  0  0  0  0
  9 11  1  0  0  0  0
  9 26  1  0  0  0  0
 11 12  1  0  0  0  0
 11 13  1  0  0  0  0
 11 14  1  0  0  0  0
 14 15  1  0  0  0  0
 14 16  1  0  0  0  0
 14 17  1  0  0  0  0
 17 18  1  0  0  0  0
 17 19  1  0  0  0  0
 17 20  1  0  0  0  0
 20 21  1  0  0  0  0
 20 22  1  0  0  0  0
 20 23  1  0  0  0  0
 23 24  1  0  0  0  0
 23 25  1  0  0  0  0
 26 27  2  0  0  0  0
 26 28  1  0  0  0  0
 28 29  1  0  0  0  0
 28 30  1  0  0  0  0
 30 31  1  0  0  0  0
 30 32  1  0  0  0  0
 30 33  1  0  0  0  0
M  END
$$$$

  -OEChem-03222214063D

 33 32  0     1  0  0  0  0  0999 V2000
   -2.8108   -5.0365    0.8165 H   0  0  0  0  0  0  0  0  0  0  0  0
   -2.9012   -4.0505    0.3518 C   0  0  0  0  0  0  0  0  0  0  0  0
   -3.7085   -3.5027    0.8435 H   0  0  0  0  0  0  0  0  0  0  0  0
   -3.1476   -4.1822   -0.7044 H   0  0  0  0  0  0  0  0  0  0  0  0
   -1.5960   -3.2893    0.4879 C   0  0  0  0  0  0  0  0  0  0  0  0
   -0.6529   -3.8015    1.0628 O   0  0  0  0  0  0  0  0  0  0  0  0
   -1.4893   -2.0170   -0.0389 N   0  0  0  0  0  0  0  0  0  0  0  0
   -2.2899   -1.6673   -0.5552 H   0  0  0  0  0  0  0  0  0  0  0  0
   -0.2416   -1.2281   -0.0711 C   0  0  1  0  0  0  0  0  0  0  0  0
    0.4936   -1.8435   -0.6025 H   0  0  0  0  0  0  0  0  0  0  0  0
   -0.3766    0.0917   -0.8706 C   0  0  0  0  0  0  0  0  0  0  0  0
   -0.6914    0.8797   -0.1781 H   0  0  0  0  0  0  0  0  0  0  0  0
    0.6213    0.3733   -1.2249 H   0  0  0  0  0  0  0  0  0  0  0  0
   -1.3830    0.0992   -2.0473 C   0  0  0  0  0  0  0  0  0  0  0  0
   -1.8899   -0.8612   -2.1611 H   0  0  0  0  0  0  0  0  0  0  0  0
   -2.1506    0.8571   -1.8572 H   0  0  0  0  0  0  0  0  0  0  0  0
   -0.6712    0.4113   -3.3693 C   0  0  0  0  0  0  0  0  0  0  0  0
   -0.1616    1.3777   -3.2952 H   0  0  0  0  0  0  0  0  0  0  0  0
    0.0853   -0.3561   -3.5662 H   0  0  0  0  0  0  0  0  0  0  0  0
   -1.6628    0.4506   -4.5292 C   0  0  0  0  0  0  0  0  0  0  0  0
   -2.1957   -0.5038   -4.6021 H   0  0  0  0  0  0  0  0  0  0  0  0
   -2.4022    1.2423   -4.3648 H   0  0  0  0  0  0  0  0  0  0  0  0
   -0.9214    0.7000   -5.7680 N   0  0  0  0  0  0  0  0  0  0  0  0
   -1.5467    0.7501   -6.5724 H   0  0  0  0  0  0  0  0  0  0  0  0
   -0.3541    1.5447   -5.6941 H   0  0  0  0  0  0  0  0  0  0  0  0
    0.3720   -0.9369    1.3169 C   0  0  0  0  0  0  0  0  0  0  0  0
    1.5855   -0.8296    1.4339 O   0  0  0  0  0  0  0  0  0  0  0  0
   -0.4421   -0.5195    2.3549 N   0  0  0  0  0  0  0  0  0  0  0  0
   -1.4338   -0.7024    2.2456 H   0  0  0  0  0  0  0  0  0  0  0  0
    0.0700   -0.1984    3.6811 C   0  0  0  0  0  0  0  0  0  0  0  0
    0.8029    0.6133    3.6238 H   0  0  0  0  0  0  0  0  0  0  0  0
   -0.7470    0.1219    4.3344 H   0  0  0  0  0  0  0  0  0  0  0  0
    0.5496   -1.0756    4.1281 H   0  0  0  0  0  0  0  0  0  0  0  0
  1  2  1  0  0  0  0
  2  3  1  0  0  0  0
  2  4  1  0  0  0  0
  2  5  1  0  0  0  0
  5  6  2  0  0  0  0
  5  7  1  0  0  0  0
  7  8  1  0  0  0  0
  7  9  1  0  0  0  0
  9 10  1  0  0  0  0
  9 11  1  0  0  0  0
  9 26  1  0  0  0  0
 11 12  1  0  0  0  0
 11 13  1  0  0  0  0
 11 14  1  0  0  0  0
 14 15  1  0  0  0  0
 14 16  1  0  0  0  0
 14 17  1  0  0  0  0
 17 18  1  0  0  0  0
 17 19  1  0  0  0  0
 17 20  1  0  0  0  0
 20 21  1  0  0  0  0
 20 22  1  0  0  0  0
 20 23  1  0  0  0  0
 23 24  1  0  0  0  0
 23 25  1  0  0  0  0
 26 27  2  0  0  0  0
 26 28  1  0  0  0  0
 28 29  1  0  0  0  0
 28 30  1  0  0  0  0
 30 31  1  0  0  0  0
 30 32  1  0  0  0  0
 30 33  1  0  0  0  0
M  END
$$$$

  -OEChem-03222214063D

 33 32  0     1  0  0  0  0  0999 V2000
   -2.8217   -5.0332    0.8204 H   0  0  0  0  0  0  0  0  0  0  0  0
   -2.9124   -4.0472    0.3556 C   0  0  0  0  0  0  0  0  0  0  0  0
   -3.7231   -3.5014    0.8439 H   0  0  0  0  0  0  0  0  0  0  0  0
   -3.1538   -4.1789   -0.7018 H   0  0  0  0  0  0  0  0  0  0  0  0
   -1.6100   -3.2824    0.4982 C   0  0  0  0  0  0  0  0  0  0  0  0
   -0.6707   -3.7904    1.0832 O   0  0  0  0  0  0  0  0  0  0  0  0
   -1.5034   -2.0107   -0.0306 N   0  0  0  0  0  0  0  0  0  0  0  0
   -2.2972   -1.6719   -0.5637 H   0  0  0  0  0  0  0  0  0  0  0  0
   -0.2525   -1.2276   -0.0690 C   0  0  1  0  0  0  0  0  0  0  0  0
    0.4764   -1.8502   -0.6005 H   0  0  0  0  0  0  0  0  0  0  0  0
   -0.3699    0.0923   -0.8727 C   0  0  0  0  0  0  0  0  0  0  0  0
   -0.6979    0.8689   -0.1735 H   0  0  0  0  0  0  0  0  0  0  0  0
    0.6290    0.3866   -1.2130 H   0  0  0  0  0  0  0  0  0  0  0  0
   -1.3703    0.1195   -2.0529 C   0  0  0  0  0  0  0  0  0  0  0  0
   -2.1106   -0.6807   -2.0014 H   0  0  0  0  0  0  0  0  0  0  0  0
   -1.9199    1.0663   -2.0168 H   0  0  0  0  0  0  0  0  0  0  0  0
   -0.6270    0.0451   -3.3920 C   0  0  0  0  0  0  0  0  0  0  0  0
    0.0807    0.8769   -3.4710 H   0  0  0  0  0  0  0  0  0  0  0  0
   -0.0573   -0.8892   -3.4383 H   0  0  0  0  0  0  0  0  0  0  0  0
   -1.6020    0.0992   -4.5652 C   0  0  0  0  0  0  0  0  0  0  0  0
   -2.3313   -0.7148   -4.4871 H   0  0  0  0  0  0  0  0  0  0  0  0
   -2.1483    1.0489   -4.5562 H   0  0  0  0  0  0  0  0  0  0  0  0
   -0.8408   -0.0353   -5.8100 N   0  0  0  0  0  0  0  0  0  0  0  0
   -1.4505    0.0126   -6.6264 H   0  0  0  0  0  0  0  0  0  0  0  0
   -0.1004    0.6644   -5.8665 H   0  0  0  0  0  0  0  0  0  0  0  0
    0.3690   -0.9387    1.3162 C   0  0  0  0  0  0  0  0  0  0  0  0
    1.5839   -0.8397    1.4269 O   0  0  0  0  0  0  0  0  0  0  0  0
   -0.4361   -0.5172    2.3597 N   0  0  0  0  0  0  0  0  0  0  0  0
   -1.4287   -0.6993    2.2575 H   0  0  0  0  0  0  0  0  0  0  0  0
    0.0869   -0.2124    3.6856 C   0  0  0  0  0  0  0  0  0  0  0  0
    0.8310    0.5893    3.6303 H   0  0  0  0  0  0  0  0  0  0  0  0
   -0.7220    0.1151    4.3455 H   0  0  0  0  0  0  0  0  0  0  0  0
    0.5564   -1.0994    4.1237 H   0  0  0  0  0  0  0  0  0  0  0  0
  1  2  1  0  0  0  0
  2  3  1  0  0  0  0
  2  4  1  0  0  0  0
  2  5  1  0  0  0  0
  5  6  2  0  0  0  0
  5  7  1  0  0  0  0
  7  8  1  0  0  0  0
  7  9  1  0  0  0  0
  9 10  1  0  0  0  0
  9 11  1  0  0  0  0
  9 26  1  0  0  0  0
 11 12  1  0  0  0  0
 11 13  1  0  0  0  0
 11 14  1  0  0  0  0
 14 15  1  0  0  0  0
 14 16  1  0  0  0  0
 14 17  1  0  0  0  0
 17 18  1  0  0  0  0
 17 19  1  0  0  0  0
 17 20  1  0  0  0  0
 20 21  1  0  0  0  0
 20 22  1  0  0  0  0
 20 23  1  0  0  0  0
 23 24  1  0  0  0  0
 23 25  1  0  0  0  0
 26 27  2  0  0  0  0
 26 28  1  0  0  0  0
 28 29  1  0  0  0  0
 28 30  1  0  0  0  0
 30 31  1  0  0  0  0
 30 32  1  0  0  0  0
 30 33  1  0  0  0  0
M  END
$$$$

  -OEChem-03222214063D

 33 32  0     1  0  0  0  0  0999 V2000
   -2.8367   -5.0223    0.7663 H   0  0  0  0  0  0  0  0  0  0  0  0
   -2.9177   -4.0341    0.3041 C   0  0  0  0  0  0  0  0  0  0  0  0
   -3.7498   -3.4971    0.7660 H   0  0  0  0  0  0  0  0  0  0  0  0
   -3.1201   -4.1621   -0.7621 H   0  0  0  0  0  0  0  0  0  0  0  0
   -1.6268   -3.2607    0.4987 C   0  0  0  0  0  0  0  0  0  0  0  0
   -0.7112   -3.7615    1.1261 O   0  0  0  0  0  0  0  0  0  0  0  0
   -1.5046   -1.9906   -0.0308 N   0  0  0  0  0  0  0  0  0  0  0  0
   -2.2658   -1.6772   -0.6232 H   0  0  0  0  0  0  0  0  0  0  0  0
   -0.2437   -1.2229   -0.0607 C   0  0  1  0  0  0  0  0  0  0  0  0
    0.4811   -1.8527   -0.5887 H   0  0  0  0  0  0  0  0  0  0  0  0
   -0.3437    0.0995   -0.8618 C   0  0  0  0  0  0  0  0  0  0  0  0
   -0.6694    0.8786   -0.1644 H   0  0  0  0  0  0  0  0  0  0  0  0
    0.6560    0.3875   -1.2055 H   0  0  0  0  0  0  0  0  0  0  0  0
   -1.3413    0.1263   -2.0399 C   0  0  0  0  0  0  0  0  0  0  0  0
   -2.2389   -0.4646   -1.8474 H   0  0  0  0  0  0  0  0  0  0  0  0
   -1.6714    1.1616   -2.1786 H   0  0  0  0  0  0  0  0  0  0  0  0
   -0.6594   -0.3280   -3.3352 C   0  0  0  0  0  0  0  0  0  0  0  0
    0.2081    0.3070   -3.5420 H   0  0  0  0  0  0  0  0  0  0  0  0
   -0.3034   -1.3568   -3.2151 H   0  0  0  0  0  0  0  0  0  0  0  0
   -1.6241   -0.2627   -4.5158 C   0  0  0  0  0  0  0  0  0  0  0  0
   -2.5160   -0.8644   -4.3092 H   0  0  0  0  0  0  0  0  0  0  0  0
   -1.9424    0.7720   -4.6843 H   0  0  0  0  0  0  0  0  0  0  0  0
   -0.9396   -0.7823   -5.7023 N   0  0  0  0  0  0  0  0  0  0  0  0
   -1.5387   -0.7383   -6.5268 H   0  0  0  0  0  0  0  0  0  0  0  0
   -0.0602   -0.2907   -5.8643 H   0  0  0  0  0  0  0  0  0  0  0  0
    0.3744   -0.9394    1.3270 C   0  0  0  0  0  0  0  0  0  0  0  0
    1.5899   -0.8510    1.4410 O   0  0  0  0  0  0  0  0  0  0  0  0
   -0.4305   -0.5066    2.3658 N   0  0  0  0  0  0  0  0  0  0  0  0
   -1.4233   -0.6868    2.2615 H   0  0  0  0  0  0  0  0  0  0  0  0
    0.0908   -0.2144    3.6953 C   0  0  0  0  0  0  0  0  0  0  0  0
    0.8491    0.5742    3.6459 H   0  0  0  0  0  0  0  0  0  0  0  0
   -0.7156    0.1252    4.3520 H   0  0  0  0  0  0  0  0  0  0  0  0
    0.5424   -1.1109    4.1332 H   0  0  0  0  0  0  0  0  0  0  0  0
  1  2  1  0  0  0  0
  2  3  1  0  0  0  0
  2  4  1  0  0  0  0
  2  5  1  0  0  0  0
  5  6  2  0  0  0  0
  5  7  1  0  0  0  0
  7  8  1  0  0  0  0
  7  9  1  0  0  0  0
  9 10  1  0  0  0  0
  9 11  1  0  0  0  0
  9 26  1  0  0  0  0
 11 12  1  0  0  0  0
 11 13  1  0  0  0  0
 11 14  1  0  0  0  0
 14 15  1  0  0  0  0
 14 16  1  0  0  0  0
 14 17  1  0  0  0  0
 17 18  1  0  0  0  0
 17 19  1  0  0  0  0
 17 20  1  0  0  0  0
 20 21  1  0  0  0  0
 20 22  1  0  0  0  0
 20 23  1  0  0  0  0
 23 24  1  0  0  0  0
 23 25  1  0  0  0  0
 26 27  2  0  0  0  0
 26 28  1  0  0  0  0
 28 29  1  0  0  0  0
 28 30  1  0  0  0  0
 30 31  1  0  0  0  0
 30 32  1  0  0  0  0
 30 33  1  0  0  0  0
M  END
$$$$

  -OEChem-03222214063D

 33 32  0     1  0  0  0  0  0999 V2000
   -2.8470   -5.0076    0.7039 H   0  0  0  0  0  0  0  0  0  0  0  0
   -2.9072   -4.0206    0.2364 C   0  0  0  0  0  0  0  0  0  0  0  0
   -3.7647   -3.4862    0.6519 H   0  0  0  0  0  0  0  0  0  0  0  0
   -3.0519   -4.1505   -0.8389 H   0  0  0  0  0  0  0  0  0  0  0  0
   -1.6321   -3.2411    0.4978 C   0  0  0  0  0  0  0  0  0  0  0  0
   -0.7521   -3.7323    1.1813 O   0  0  0  0  0  0  0  0  0  0  0  0
   -1.4859   -1.9760   -0.0370 N   0  0  0  0  0  0  0  0  0  0  0  0
   -2.1998   -1.6931   -0.7002 H   0  0  0  0  0  0  0  0  0  0  0  0
   -0.2134   -1.2275   -0.0482 C   0  0  1  0  0  0  0  0  0  0  0  0
    0.5134   -1.8624   -0.5674 H   0  0  0  0  0  0  0  0  0  0  0  0
   -0.3076    0.0970   -0.8450 C   0  0  0  0  0  0  0  0  0  0  0  0
   -0.6229    0.8850   -0.1528 H   0  0  0  0  0  0  0  0  0  0  0  0
    0.6917    0.3698   -1.2016 H   0  0  0  0  0  0  0  0  0  0  0  0
   -1.3049    0.1137   -2.0193 C   0  0  0  0  0  0  0  0  0  0  0  0
   -2.2894   -0.2567   -1.7208 H   0  0  0  0  0  0  0  0  0  0  0  0
   -1.4415    1.1548   -2.3304 H   0  0  0  0  0  0  0  0  0  0  0  0
   -0.7619   -0.6770   -3.2153 C   0  0  0  0  0  0  0  0  0  0  0  0
    0.2168   -0.2836   -3.5089 H   0  0  0  0  0  0  0  0  0  0  0  0
   -0.6313   -1.7262   -2.9308 H   0  0  0  0  0  0  0  0  0  0  0  0
   -1.7172   -0.5937   -4.4022 C   0  0  0  0  0  0  0  0  0  0  0  0
   -2.7185   -0.9253   -4.1056 H   0  0  0  0  0  0  0  0  0  0  0  0
   -1.7912    0.4420   -4.7523 H   0  0  0  0  0  0  0  0  0  0  0  0
   -1.2061   -1.4571   -5.4696 N   0  0  0  0  0  0  0  0  0  0  0  0
   -1.8024   -1.4183   -6.2966 H   0  0  0  0  0  0  0  0  0  0  0  0
   -0.2422   -1.2184   -5.7052 H   0  0  0  0  0  0  0  0  0  0  0  0
    0.3867   -0.9446    1.3474 C   0  0  0  0  0  0  0  0  0  0  0  0
    1.6016   -0.8736    1.4807 O   0  0  0  0  0  0  0  0  0  0  0  0
   -0.4293   -0.4936    2.3692 N   0  0  0  0  0  0  0  0  0  0  0  0
   -1.4227   -0.6604    2.2474 H   0  0  0  0  0  0  0  0  0  0  0  0
    0.0720   -0.2009    3.7059 C   0  0  0  0  0  0  0  0  0  0  0  0
    0.8353    0.5835    3.6666 H   0  0  0  0  0  0  0  0  0  0  0  0
   -0.7435    0.1449    4.3483 H   0  0  0  0  0  0  0  0  0  0  0  0
    0.5118   -1.0984    4.1538 H   0  0  0  0  0  0  0  0  0  0  0  0
  1  2  1  0  0  0  0
  2  3  1  0  0  0  0
  2  4  1  0  0  0  0
  2  5  1  0  0  0  0
  5  6  2  0  0  0  0
  5  7  1  0  0  0  0
  7  8  1  0  0  0  0
  7  9  1  0  0  0  0
  9 10  1  0  0  0  0
  9 11  1  0  0  0  0
  9 26  1  0  0  0  0
 11 12  1  0  0  0  0
 11 13  1  0  0  0  0
 11 14  1  0  0  0  0
 14 15  1  0  0  0  0
 14 16  1  0  0  0  0
 14 17  1  0  0  0  0
 17 18  1  0  0  0  0
 17 19  1  0  0  0  0
 17 20  1  0  0  0  0
 20 21  1  0  0  0  0
 20 22  1  0  0  0  0
 20 23  1  0  0  0  0
 23 24  1  0  0  0  0
 23 25  1  0  0  0  0
 26 27  2  0  0  0  0
 26 28  1  0  0  0  0
 28 29  1  0  0  0  0
 28 30  1  0  0  0  0
 30 31  1  0  0  0  0
 30 32  1  0  0  0  0
 30 33  1  0  0  0  0
M  END
$$$$

  -OEChem-03222214063D

 33 32  0     1  0  0  0  0  0999 V2000
   -2.8374   -5.0142    0.6769 H   0  0  0  0  0  0  0  0  0  0  0  0
   -2.8873   -4.0284    0.2058 C   0  0  0  0  0  0  0  0  0  0  0  0
   -3.7638   -3.4993    0.5873 H   0  0  0  0  0  0  0  0  0  0  0  0
   -2.9901   -4.1612   -0.8741 H   0  0  0  0  0  0  0  0  0  0  0  0
   -1.6286   -3.2395    0.5133 C   0  0  0  0  0  0  0  0  0  0  0  0
   -0.7708   -3.7235    1.2295 O   0  0  0  0  0  0  0  0  0  0  0  0
   -1.4663   -1.9794   -0.0283 N   0  0  0  0  0  0  0  0  0  0  0  0
   -2.1553   -1.7084   -0.7231 H   0  0  0  0  0  0  0  0  0  0  0  0
   -0.1886   -1.2398   -0.0241 C   0  0  1  0  0  0  0  0  0  0  0  0
    0.5432   -1.8789   -0.5308 H   0  0  0  0  0  0  0  0  0  0  0  0
   -0.2814    0.0788   -0.8294 C   0  0  0  0  0  0  0  0  0  0  0  0
   -0.5857    0.8820   -0.1498 H   0  0  0  0  0  0  0  0  0  0  0  0
    0.7203    0.3311   -1.1939 H   0  0  0  0  0  0  0  0  0  0  0  0
   -1.2685    0.0883   -2.0124 C   0  0  0  0  0  0  0  0  0  0  0  0
   -2.2915   -0.0566   -1.6506 H   0  0  0  0  0  0  0  0  0  0  0  0
   -1.2302    1.0773   -2.4813 H   0  0  0  0  0  0  0  0  0  0  0  0
   -0.9277   -0.9748   -3.0674 C   0  0  0  0  0  0  0  0  0  0  0  0
    0.1056   -0.8412   -3.4033 H   0  0  0  0  0  0  0  0  0  0  0  0
   -1.0117   -1.9772   -2.6379 H   0  0  0  0  0  0  0  0  0  0  0  0
   -1.8663   -0.8690   -4.2655 C   0  0  0  0  0  0  0  0  0  0  0  0
   -2.9102   -0.9091   -3.9345 H   0  0  0  0  0  0  0  0  0  0  0  0
   -1.7095    0.0841   -4.7828 H   0  0  0  0  0  0  0  0  0  0  0  0
   -1.5898   -1.9912   -5.1655 N   0  0  0  0  0  0  0  0  0  0  0  0
   -2.1720   -1.9478   -6.0021 H   0  0  0  0  0  0  0  0  0  0  0  0
   -0.6005   -2.0272   -5.4139 H   0  0  0  0  0  0  0  0  0  0  0  0
    0.3940   -0.9489    1.3769 C   0  0  0  0  0  0  0  0  0  0  0  0
    1.6074   -0.8846    1.5263 O   0  0  0  0  0  0  0  0  0  0  0  0
   -0.4341   -0.4834    2.3825 N   0  0  0  0  0  0  0  0  0  0  0  0
   -1.4264   -0.6488    2.2490 H   0  0  0  0  0  0  0  0  0  0  0  0
    0.0497   -0.1713    3.7214 C   0  0  0  0  0  0  0  0  0  0  0  0
    0.8174    0.6086    3.6804 H   0  0  0  0  0  0  0  0  0  0  0  0
   -0.7732    0.1892    4.3460 H   0  0  0  0  0  0  0  0  0  0  0  0
    0.4787   -1.0632    4.1901 H   0  0  0  0  0  0  0  0  0  0  0  0
  1  2  1  0  0  0  0
  2  3  1  0  0  0  0
  2  4  1  0  0  0  0
  2  5  1  0  0  0  0
  5  6  2  0  0  0  0
  5  7  1  0  0  0  0
  7  8  1  0  0  0  0
  7  9  1  0  0  0  0
  9 10  1  0  0  0  0
  9 11  1  0  0  0  0
  9 26  1  0  0  0  0
 11 12  1  0  0  0  0
 11 13  1  0  0  0  0
 11 14  1  0  0  0  0
 14 15  1  0  0  0  0
 14 16  1  0  0  0  0
 14 17  1  0  0  0  0
 17 18  1  0  0  0  0
 17 19  1  0  0  0  0
 17 20  1  0  0  0  0
 20 21  1  0  0  0  0
 20 22  1  0  0  0  0
 20 23  1  0  0  0  0
 23 24  1  0  0  0  0
 23 25  1  0  0  0  0
 26 27  2  0  0  0  0
 26 28  1  0  0  0  0
 28 29  1  0  0  0  0
 28 30  1  0  0  0  0
 30 31  1  0  0  0  0
 30 32  1  0  0  0  0
 30 33  1  0  0  0  0
M  END
$$$$

  -OEChem-03222214063D

 33 32  0     1  0  0  0  0  0999 V2000
   -2.7928   -5.0642    0.8744 H   0  0  0  0  0  0  0  0  0  0  0  0
   -2.8440   -4.1051    0.3512 C   0  0  0  0  0  0  0  0  0  0  0  0
   -3.7222   -3.5583    0.7023 H   0  0  0  0  0  0  0  0  0  0  0  0
   -2.9443   -4.2951   -0.7203 H   0  0  0  0  0  0  0  0  0  0  0  0
   -1.5879   -3.2975    0.6176 C   0  0  0  0  0  0  0  0  0  0  0  0
   -0.7114   -3.7557    1.3282 O   0  0  0  0  0  0  0  0  0  0  0  0
   -1.4483   -2.0495    0.0432 N   0  0  0  0  0  0  0  0  0  0  0  0
   -2.1598   -1.7904   -0.6340 H   0  0  0  0  0  0  0  0  0  0  0  0
   -0.1875   -1.2847    0.0233 C   0  0  1  0  0  0  0  0  0  0  0  0
    0.5549   -1.9262   -0.4649 H   0  0  0  0  0  0  0  0  0  0  0  0
   -0.2997    0.0068   -0.8232 C   0  0  0  0  0  0  0  0  0  0  0  0
   -0.5986    0.8300   -0.1655 H   0  0  0  0  0  0  0  0  0  0  0  0
    0.7055    0.2431   -1.1891 H   0  0  0  0  0  0  0  0  0  0  0  0
   -1.2675    0.0205   -2.0275 C   0  0  0  0  0  0  0  0  0  0  0  0
   -2.2918    0.1257   -1.6555 H   0  0  0  0  0  0  0  0  0  0  0  0
   -1.0458    0.9108   -2.6256 H   0  0  0  0  0  0  0  0  0  0  0  0
   -1.2026   -1.2244   -2.9324 C   0  0  0  0  0  0  0  0  0  0  0  0
   -0.1605   -1.4254   -3.2013 H   0  0  0  0  0  0  0  0  0  0  0  0
   -1.5934   -2.1083   -2.4258 H   0  0  0  0  0  0  0  0  0  0  0  0
   -2.0177   -1.0026   -4.2032 C   0  0  0  0  0  0  0  0  0  0  0  0
   -3.0431   -0.7128   -3.9479 H   0  0  0  0  0  0  0  0  0  0  0  0
   -1.5747   -0.1972   -4.8000 H   0  0  0  0  0  0  0  0  0  0  0  0
   -2.0331   -2.2540   -4.9653 N   0  0  0  0  0  0  0  0  0  0  0  0
   -2.5708   -2.1558   -5.8271 H   0  0  0  0  0  0  0  0  0  0  0  0
   -1.0844   -2.5724   -5.1658 H   0  0  0  0  0  0  0  0  0  0  0  0
    0.3915   -0.9445    1.4147 C   0  0  0  0  0  0  0  0  0  0  0  0
    1.6035   -0.8476    1.5578 O   0  0  0  0  0  0  0  0  0  0  0  0
   -0.4433   -0.4694    2.4103 N   0  0  0  0  0  0  0  0  0  0  0  0
   -1.4327   -0.6572    2.2857 H   0  0  0  0  0  0  0  0  0  0  0  0
    0.0390   -0.1044    3.7362 C   0  0  0  0  0  0  0  0  0  0  0  0
    0.7818    0.6972    3.6668 H   0  0  0  0  0  0  0  0  0  0  0  0
   -0.7904    0.2487    4.3562 H   0  0  0  0  0  0  0  0  0  0  0  0
    0.4979   -0.9689    4.2274 H   0  0  0  0  0  0  0  0  0  0  0  0
  1  2  1  0  0  0  0
  2  3  1  0  0  0  0
  2  4  1  0  0  0  0
  2  5  1  0  0  0  0
  5  6  2  0  0  0  0
  5  7  1  0  0  0  0
  7  8  1  0  0  0  0
  7  9  1  0  0  0  0
  9 10  1  0  0  0  0
  9 11  1  0  0  0  0
  9 26  1  0  0  0  0
 11 12  1  0  0  0  0
 11 13  1  0  0  0  0
 11 14  1  0  0  0  0
 14 15  1  0  0  0  0
 14 16  1  0  0  0  0
 14 17  1  0  0  0  0
 17 18  1  0  0  0  0
 17 19  1  0  0  0  0
 17 20  1  0  0  0  0
 20 21  1  0  0  0  0
 20 22  1  0  0  0  0
 20 23  1  0  0  0  0
 23 24  1  0  0  0  0
 23 25  1  0  0  0  0
 26 27  2  0  0  0  0
 26 28  1  0  0  0  0
 28 29  1  0  0  0  0
 28 30  1  0  0  0  0
 30 31  1  0  0  0  0
 30 32  1  0  0  0  0
 30 33  1  0  0  0  0
M  END
$$$$

  -OEChem-03222214063D

 33 32  0     1  0  0  0  0  0999 V2000
   -2.7024   -5.1287    1.0794 H   0  0  0  0  0  0  0  0  0  0  0  0
   -2.8009   -4.1758    0.5516 C   0  0  0  0  0  0  0  0  0  0  0  0
   -3.6541   -3.6318    0.9635 H   0  0  0  0  0  0  0  0  0  0  0  0
   -2.9819   -4.3778   -0.5071 H   0  0  0  0  0  0  0  0  0  0  0  0
   -1.5342   -3.3568    0.7132 C   0  0  0  0  0  0  0  0  0  0  0  0
   -0.6021   -3.8014    1.3588 O   0  0  0  0  0  0  0  0  0  0  0  0
   -1.4496   -2.1112    0.1236 N   0  0  0  0  0  0  0  0  0  0  0  0
   -2.2238   -1.8431   -0.4766 H   0  0  0  0  0  0  0  0  0  0  0  0
   -0.2191   -1.3053    0.0484 C   0  0  1  0  0  0  0  0  0  0  0  0
    0.5247   -1.9356   -0.4520 H   0  0  0  0  0  0  0  0  0  0  0  0
   -0.3779   -0.0301   -0.8184 C   0  0  0  0  0  0  0  0  0  0  0  0
   -0.6639    0.7997   -0.1633 H   0  0  0  0  0  0  0  0  0  0  0  0
    0.6192    0.2078   -1.2052 H   0  0  0  0  0  0  0  0  0  0  0  0
   -1.3615   -0.0085   -2.0166 C   0  0  0  0  0  0  0  0  0  0  0  0
   -2.3320    0.3539   -1.6615 H   0  0  0  0  0  0  0  0  0  0  0  0
   -0.9856    0.7310   -2.7319 H   0  0  0  0  0  0  0  0  0  0  0  0
   -1.6029   -1.3429   -2.7475 C   0  0  0  0  0  0  0  0  0  0  0  0
   -0.6614   -1.8959   -2.8281 H   0  0  0  0  0  0  0  0  0  0  0  0
   -2.3215   -1.9595   -2.2035 H   0  0  0  0  0  0  0  0  0  0  0  0
   -2.1630   -1.1007   -4.1460 C   0  0  0  0  0  0  0  0  0  0  0  0
   -3.0793   -0.5031   -4.0853 H   0  0  0  0  0  0  0  0  0  0  0  0
   -1.4368   -0.5508   -4.7551 H   0  0  0  0  0  0  0  0  0  0  0  0
   -2.4558   -2.4013   -4.7545 N   0  0  0  0  0  0  0  0  0  0  0  0
   -2.8578   -2.2901   -5.6858 H   0  0  0  0  0  0  0  0  0  0  0  0
   -1.6195   -2.9853   -4.7898 H   0  0  0  0  0  0  0  0  0  0  0  0
    0.3960   -0.9317    1.4152 C   0  0  0  0  0  0  0  0  0  0  0  0
    1.6083   -0.7918    1.5141 O   0  0  0  0  0  0  0  0  0  0  0  0
   -0.4187   -0.4752    2.4357 N   0  0  0  0  0  0  0  0  0  0  0  0
   -1.4062   -0.6909    2.3467 H   0  0  0  0  0  0  0  0  0  0  0  0
    0.0973   -0.0777    3.7393 C   0  0  0  0  0  0  0  0  0  0  0  0
    0.8013    0.7547    3.6353 H   0  0  0  0  0  0  0  0  0  0  0  0
   -0.7222    0.2444    4.3887 H   0  0  0  0  0  0  0  0  0  0  0  0
    0.6118   -0.9173    4.2186 H   0  0  0  0  0  0  0  0  0  0  0  0
  1  2  1  0  0  0  0
  2  3  1  0  0  0  0
  2  4  1  0  0  0  0
  2  5  1  0  0  0  0
  5  6  2  0  0  0  0
  5  7  1  0  0  0  0
  7  8  1  0  0  0  0
  7  9  1  0  0  0  0
  9 10  1  0  0  0  0
  9 11  1  0  0  0  0
  9 26  1  0  0  0  0
 11 12  1  0  0  0  0
 11 13  1  0  0  0  0
 11 14  1  0  0  0  0
 14 15  1  0  0  0  0
 14 16  1  0  0  0  0
 14 17  1  0  0  0  0
 17 18  1  0  0  0  0
 17 19  1  0  0  0  0
 17 20  1  0  0  0  0
 20 21  1  0  0  0  0
 20 22  1  0  0  0  0
 20 23  1  0  0  0  0
 23 24  1  0  0  0  0
 23 25  1  0  0  0  0
 26 27  2  0  0  0  0
 26 28  1  0  0  0  0
 28 29  1  0  0  0  0
 28 30  1  0  0  0  0
 30 31  1  0  0  0  0
 30 32  1  0  0  0  0
 30 33  1  0  0  0  0
M  END
$$$$

  -OEChem-03222214063D

 33 32  0     1  0  0  0  0  0999 V2000
   -2.6372   -5.1677    1.1989 H   0  0  0  0  0  0  0  0  0  0  0  0
   -2.7650   -4.2096    0.6871 C   0  0  0  0  0  0  0  0  0  0  0  0
   -3.5900   -3.6678    1.1555 H   0  0  0  0  0  0  0  0  0  0  0  0
   -3.0109   -4.4007   -0.3604 H   0  0  0  0  0  0  0  0  0  0  0  0
   -1.4890   -3.3939    0.7790 C   0  0  0  0  0  0  0  0  0  0  0  0
   -0.5268   -3.8357    1.3811 O   0  0  0  0  0  0  0  0  0  0  0  0
   -1.4299   -2.1536    0.1757 N   0  0  0  0  0  0  0  0  0  0  0  0
   -2.2391   -1.8759   -0.3704 H   0  0  0  0  0  0  0  0  0  0  0  0
   -0.2168   -1.3255    0.0746 C   0  0  1  0  0  0  0  0  0  0  0  0
    0.5312   -1.9559   -0.4196 H   0  0  0  0  0  0  0  0  0  0  0  0
   -0.3760   -0.0612   -0.8138 C   0  0  0  0  0  0  0  0  0  0  0  0
   -0.6677    0.7689   -0.1616 H   0  0  0  0  0  0  0  0  0  0  0  0
    0.6257    0.1795   -1.1866 H   0  0  0  0  0  0  0  0  0  0  0  0
   -1.3454   -0.0174   -2.0285 C   0  0  0  0  0  0  0  0  0  0  0  0
   -2.2035    0.6066   -1.7568 H   0  0  0  0  0  0  0  0  0  0  0  0
   -0.8197    0.5026   -2.8369 H   0  0  0  0  0  0  0  0  0  0  0  0
   -1.8999   -1.3428   -2.5785 C   0  0  0  0  0  0  0  0  0  0  0  0
   -1.1059   -2.0965   -2.6008 H   0  0  0  0  0  0  0  0  0  0  0  0
   -2.7152   -1.7046   -1.9476 H   0  0  0  0  0  0  0  0  0  0  0  0
   -2.4530   -1.1611   -3.9880 C   0  0  0  0  0  0  0  0  0  0  0  0
   -3.2293   -0.3878   -3.9905 H   0  0  0  0  0  0  0  0  0  0  0  0
   -1.6563   -0.8470   -4.6718 H   0  0  0  0  0  0  0  0  0  0  0  0
   -3.0197   -2.4417   -4.4208 N   0  0  0  0  0  0  0  0  0  0  0  0
   -3.4440   -2.3629   -5.3457 H   0  0  0  0  0  0  0  0  0  0  0  0
   -2.3114   -3.1764   -4.4107 H   0  0  0  0  0  0  0  0  0  0  0  0
    0.4024   -0.9288    1.4334 C   0  0  0  0  0  0  0  0  0  0  0  0
    1.6129   -0.7698    1.5235 O   0  0  0  0  0  0  0  0  0  0  0  0
   -0.4130   -0.4793    2.4566 N   0  0  0  0  0  0  0  0  0  0  0  0
   -1.3981   -0.7076    2.3743 H   0  0  0  0  0  0  0  0  0  0  0  0
    0.1045   -0.0604    3.7529 C   0  0  0  0  0  0  0  0  0  0  0  0
    0.8179    0.7620    3.6340 H   0  0  0  0  0  0  0  0  0  0  0  0
   -0.7128    0.2845    4.3932 H   0  0  0  0  0  0  0  0  0  0  0  0
    0.6090   -0.8954    4.2503 H   0  0  0  0  0  0  0  0  0  0  0  0
  1  2  1  0  0  0  0
  2  3  1  0  0  0  0
  2  4  1  0  0  0  0
  2  5  1  0  0  0  0
  5  6  2  0  0  0  0
  5  7  1  0  0  0  0
  7  8  1  0  0  0  0
  7  9  1  0  0  0  0
  9 10  1  0  0  0  0
  9 11  1  0  0  0  0
  9 26  1  0  0  0  0
 11 12  1  0  0  0  0
 11 13  1  0  0  0  0
 11 14  1  0  0  0  0
 14 15  1  0  0  0  0
 14 16  1  0  0  0  0
 14 17  1  0  0  0  0
 17 18  1  0  0  0  0
 17 19  1  0  0  0  0
 17 20  1  0  0  0  0
 20 21  1  0  0  0  0
 20 22  1  0  0  0  0
 20 23  1  0  0  0  0
 23 24  1  0  0  0  0
 23 25  1  0  0  0  0
 26 27  2  0  0  0  0
 26 28  1  0  0  0  0
 28 29  1  0  0  0  0
 28 30  1  0  0  0  0
 30 31  1  0  0  0  0
 30 32  1  0  0  0  0
 30 33  1  0  0  0  0
M  END
$$$$

  -OEChem-03222214063D

 33 32  0     1  0  0  0  0  0999 V2000
   -2.5437   -5.2121    1.2978 H   0  0  0  0  0  0  0  0  0  0  0  0
   -2.7013   -4.2557    0.7909 C   0  0  0  0  0  0  0  0  0  0  0  0
   -3.5192   -3.7262    1.2852 H   0  0  0  0  0  0  0  0  0  0  0  0
   -2.9773   -4.4496   -0.2485 H   0  0  0  0  0  0  0  0  0  0  0  0
   -1.4353   -3.4216    0.8440 C   0  0  0  0  0  0  0  0  0  0  0  0
   -0.4569   -3.8402    1.4363 O   0  0  0  0  0  0  0  0  0  0  0  0
   -1.4042   -2.1907    0.2194 N   0  0  0  0  0  0  0  0  0  0  0  0
   -2.2255   -1.9353   -0.3187 H   0  0  0  0  0  0  0  0  0  0  0  0
   -0.2068   -1.3422    0.0950 C   0  0  1  0  0  0  0  0  0  0  0  0
    0.5481   -1.9731   -0.3877 H   0  0  0  0  0  0  0  0  0  0  0  0
   -0.3634   -0.0903   -0.8161 C   0  0  0  0  0  0  0  0  0  0  0  0
   -0.6853    0.7301   -0.1655 H   0  0  0  0  0  0  0  0  0  0  0  0
    0.6406    0.1751   -1.1656 H   0  0  0  0  0  0  0  0  0  0  0  0
   -1.3180   -0.0399   -2.0452 C   0  0  0  0  0  0  0  0  0  0  0  0
   -2.0013    0.8053   -1.9091 H   0  0  0  0  0  0  0  0  0  0  0  0
   -0.6944    0.1970   -2.9141 H   0  0  0  0  0  0  0  0  0  0  0  0
   -2.1623   -1.2704   -2.4079 C   0  0  0  0  0  0  0  0  0  0  0  0
   -1.5298   -2.1639   -2.4228 H   0  0  0  0  0  0  0  0  0  0  0  0
   -2.9617   -1.4039   -1.6738 H   0  0  0  0  0  0  0  0  0  0  0  0
   -2.8118   -1.1053   -3.7775 C   0  0  0  0  0  0  0  0  0  0  0  0
   -3.4527   -0.2166   -3.7850 H   0  0  0  0  0  0  0  0  0  0  0  0
   -2.0456   -0.9794   -4.5507 H   0  0  0  0  0  0  0  0  0  0  0  0
   -3.6114   -2.3041   -4.0459 N   0  0  0  0  0  0  0  0  0  0  0  0
   -4.1197   -2.2164   -4.9266 H   0  0  0  0  0  0  0  0  0  0  0  0
   -3.0264   -3.1401   -4.0499 H   0  0  0  0  0  0  0  0  0  0  0  0
    0.4082   -0.9167    1.4472 C   0  0  0  0  0  0  0  0  0  0  0  0
    1.6165   -0.7396    1.5352 O   0  0  0  0  0  0  0  0  0  0  0  0
   -0.4128   -0.4689    2.4666 N   0  0  0  0  0  0  0  0  0  0  0  0
   -1.3958   -0.7063    2.3842 H   0  0  0  0  0  0  0  0  0  0  0  0
    0.0989   -0.0390    3.7617 C   0  0  0  0  0  0  0  0  0  0  0  0
    0.8031    0.7908    3.6401 H   0  0  0  0  0  0  0  0  0  0  0  0
   -0.7231    0.2990    4.3998 H   0  0  0  0  0  0  0  0  0  0  0  0
    0.6120   -0.8663    4.2632 H   0  0  0  0  0  0  0  0  0  0  0  0
  1  2  1  0  0  0  0
  2  3  1  0  0  0  0
  2  4  1  0  0  0  0
  2  5  1  0  0  0  0
  5  6  2  0  0  0  0
  5  7  1  0  0  0  0
  7  8  1  0  0  0  0
  7  9  1  0  0  0  0
  9 10  1  0  0  0  0
  9 11  1  0  0  0  0
  9 26  1  0  0  0  0
 11 12  1  0  0  0  0
 11 13  1  0  0  0  0
 11 14  1  0  0  0  0
 14 15  1  0  0  0  0
 14 16  1  0  0  0  0
 14 17  1  0  0  0  0
 17 18  1  0  0  0  0
 17 19  1  0  0  0  0
 17 20  1  0  0  0  0
 20 21  1  0  0  0  0
 20 22  1  0  0  0  0
 20 23  1  0  0  0  0
 23 24  1  0  0  0  0
 23 25  1  0  0  0  0
 26 27  2  0  0  0  0
 26 28  1  0  0  0  0
 28 29  1  0  0  0  0
 28 30  1  0  0  0  0
 30 31  1  0  0  0  0
 30 32  1  0  0  0  0
 30 33  1  0  0  0  0
M  END
$$$$

  -OEChem-03222214063D

 33 32  0     1  0  0  0  0  0999 V2000
   -2.4582   -5.2479    1.3619 H   0  0  0  0  0  0  0  0  0  0  0  0
   -2.6239   -4.3125    0.8200 C   0  0  0  0  0  0  0  0  0  0  0  0
   -3.4474   -3.7729    1.2937 H   0  0  0  0  0  0  0  0  0  0  0  0
   -2.8963   -4.5474   -0.2118 H   0  0  0  0  0  0  0  0  0  0  0  0
   -1.3656   -3.4657    0.8446 C   0  0  0  0  0  0  0  0  0  0  0  0
   -0.3685   -3.8757    1.4112 O   0  0  0  0  0  0  0  0  0  0  0  0
   -1.3633   -2.2330    0.2232 N   0  0  0  0  0  0  0  0  0  0  0  0
   -2.2012   -1.9837   -0.2922 H   0  0  0  0  0  0  0  0  0  0  0  0
   -0.1829   -1.3635    0.0855 C   0  0  1  0  0  0  0  0  0  0  0  0
    0.5769   -1.9813   -0.4063 H   0  0  0  0  0  0  0  0  0  0  0  0
   -0.3592   -0.1079   -0.8188 C   0  0  0  0  0  0  0  0  0  0  0  0
   -0.7048    0.6915   -0.1543 H   0  0  0  0  0  0  0  0  0  0  0  0
    0.6371    0.1914   -1.1628 H   0  0  0  0  0  0  0  0  0  0  0  0
   -1.3216   -0.0523   -2.0409 C   0  0  0  0  0  0  0  0  0  0  0  0
   -1.8052    0.9305   -2.0396 H   0  0  0  0  0  0  0  0  0  0  0  0
   -0.6911   -0.0933   -2.9355 H   0  0  0  0  0  0  0  0  0  0  0  0
   -2.4067   -1.1225   -2.2189 C   0  0  0  0  0  0  0  0  0  0  0  0
   -1.9456   -2.1134   -2.2782 H   0  0  0  0  0  0  0  0  0  0  0  0
   -3.0989   -1.0921   -1.3722 H   0  0  0  0  0  0  0  0  0  0  0  0
   -3.2084   -0.8805   -3.4934 C   0  0  0  0  0  0  0  0  0  0  0  0
   -3.7023    0.0966   -3.4461 H   0  0  0  0  0  0  0  0  0  0  0  0
   -2.5478   -0.8865   -4.3676 H   0  0  0  0  0  0  0  0  0  0  0  0
   -4.2098   -1.9449   -3.6063 N   0  0  0  0  0  0  0  0  0  0  0  0
   -4.8326   -1.7808   -4.3983 H   0  0  0  0  0  0  0  0  0  0  0  0
   -3.7643   -2.8595   -3.6832 H   0  0  0  0  0  0  0  0  0  0  0  0
    0.4372   -0.9340    1.4345 C   0  0  0  0  0  0  0  0  0  0  0  0
    1.6427   -0.7361    1.5130 O   0  0  0  0  0  0  0  0  0  0  0  0
   -0.3825   -0.5058    2.4635 N   0  0  0  0  0  0  0  0  0  0  0  0
   -1.3628   -0.7570    2.3890 H   0  0  0  0  0  0  0  0  0  0  0  0
    0.1333   -0.0607    3.7516 C   0  0  0  0  0  0  0  0  0  0  0  0
    0.8076    0.7923    3.6210 H   0  0  0  0  0  0  0  0  0  0  0  0
   -0.6901    0.2486    4.4023 H   0  0  0  0  0  0  0  0  0  0  0  0
    0.6816   -0.8708    4.2440 H   0  0  0  0  0  0  0  0  0  0  0  0
  1  2  1  0  0  0  0
  2  3  1  0  0  0  0
  2  4  1  0  0  0  0
  2  5  1  0  0  0  0
  5  6  2  0  0  0  0
  5  7  1  0  0  0  0
  7  8  1  0  0  0  0
  7  9  1  0  0  0  0
  9 10  1  0  0  0  0
  9 11  1  0  0  0  0
  9 26  1  0  0  0  0
 11 12  1  0  0  0  0
 11 13  1  0  0  0  0
 11 14  1  0  0  0  0
 14 15  1  0  0  0  0
 14 16  1  0  0  0  0
 14 17  1  0  0  0  0
 17 18  1  0  0  0  0
 17 19  1  0  0  0  0
 17 20  1  0  0  0  0
 20 21  1  0  0  0  0
 20 22  1  0  0  0  0
 20 23  1  0  0  0  0
 23 24  1  0  0  0  0
 23 25  1  0  0  0  0
 26 27  2  0  0  0  0
 26 28  1  0  0  0  0
 28 29  1  0  0  0  0
 28 30  1  0  0  0  0
 30 31  1  0  0  0  0
 30 32  1  0  0  0  0
 30 33  1  0  0  0  0
M  END
$$$$

  -OEChem-03222214063D

 33 32  0     1  0  0  0  0  0999 V2000
   -2.3807   -5.2855    1.3222 H   0  0  0  0  0  0  0  0  0  0  0  0
   -2.5665   -4.3429    0.7995 C   0  0  0  0  0  0  0  0  0  0  0  0
   -3.3919   -3.8243    1.2930 H   0  0  0  0  0  0  0  0  0  0  0  0
   -2.8483   -4.5634   -0.2328 H   0  0  0  0  0  0  0  0  0  0  0  0
   -1.3202   -3.4782    0.8234 C   0  0  0  0  0  0  0  0  0  0  0  0
   -0.3164   -3.8750    1.3873 O   0  0  0  0  0  0  0  0  0  0  0  0
   -1.3369   -2.2435    0.2062 N   0  0  0  0  0  0  0  0  0  0  0  0
   -2.1877   -1.9918   -0.2878 H   0  0  0  0  0  0  0  0  0  0  0  0
   -0.1766   -1.3450    0.0905 C   0  0  1  0  0  0  0  0  0  0  0  0
    0.6058   -1.9427   -0.3904 H   0  0  0  0  0  0  0  0  0  0  0  0
   -0.3692   -0.0927   -0.8138 C   0  0  0  0  0  0  0  0  0  0  0  0
   -0.7523    0.6940   -0.1548 H   0  0  0  0  0  0  0  0  0  0  0  0
    0.6228    0.2361   -1.1427 H   0  0  0  0  0  0  0  0  0  0  0  0
   -1.3142   -0.0705   -2.0474 C   0  0  0  0  0  0  0  0  0  0  0  0
   -1.6185    0.9701   -2.2037 H   0  0  0  0  0  0  0  0  0  0  0  0
   -0.7147   -0.3610   -2.9168 H   0  0  0  0  0  0  0  0  0  0  0  0
   -2.5698   -0.9530   -2.0592 C   0  0  0  0  0  0  0  0  0  0  0  0
   -2.2820   -2.0063   -2.1327 H   0  0  0  0  0  0  0  0  0  0  0  0
   -3.1424   -0.7958   -1.1395 H   0  0  0  0  0  0  0  0  0  0  0  0
   -3.4641   -0.6148   -3.2473 C   0  0  0  0  0  0  0  0  0  0  0  0
   -3.8096    0.4227   -3.1737 H   0  0  0  0  0  0  0  0  0  0  0  0
   -2.9085   -0.7238   -4.1856 H   0  0  0  0  0  0  0  0  0  0  0  0
   -4.6105   -1.5284   -3.2267 N   0  0  0  0  0  0  0  0  0  0  0  0
   -5.2957   -1.2735   -3.9390 H   0  0  0  0  0  0  0  0  0  0  0  0
   -4.3103   -2.4960   -3.3465 H   0  0  0  0  0  0  0  0  0  0  0  0
    0.4122   -0.9042    1.4494 C   0  0  0  0  0  0  0  0  0  0  0  0
    1.6124   -0.6837    1.5478 O   0  0  0  0  0  0  0  0  0  0  0  0
   -0.4316   -0.4987    2.4679 N   0  0  0  0  0  0  0  0  0  0  0  0
   -1.4066   -0.7635    2.3738 H   0  0  0  0  0  0  0  0  0  0  0  0
    0.0565   -0.0664    3.7710 C   0  0  0  0  0  0  0  0  0  0  0  0
    0.7265    0.7931    3.6643 H   0  0  0  0  0  0  0  0  0  0  0  0
   -0.7809    0.2281    4.4105 H   0  0  0  0  0  0  0  0  0  0  0  0
    0.6018   -0.8793    4.2622 H   0  0  0  0  0  0  0  0  0  0  0  0
  1  2  1  0  0  0  0
  2  3  1  0  0  0  0
  2  4  1  0  0  0  0
  2  5  1  0  0  0  0
  5  6  2  0  0  0  0
  5  7  1  0  0  0  0
  7  8  1  0  0  0  0
  7  9  1  0  0  0  0
  9 10  1  0  0  0  0
  9 11  1  0  0  0  0
  9 26  1  0  0  0  0
 11 12  1  0  0  0  0
 11 13  1  0  0  0  0
 11 14  1  0  0  0  0
 14 15  1  0  0  0  0
 14 16  1  0  0  0  0
 14 17  1  0  0  0  0
 17 18  1  0  0  0  0
 17 19  1  0  0  0  0
 17 20  1  0  0  0  0
 20 21  1  0  0  0  0
 20 22  1  0  0  0  0
 20 23  1  0  0  0  0
 23 24  1  0  0  0  0
 23 25  1  0  0  0  0
 26 27  2  0  0  0  0
 26 28  1  0  0  0  0
 28 29  1  0  0  0  0
 28 30  1  0  0  0  0
 30 31  1  0  0  0  0
 30 32  1  0  0  0  0
 30 33  1  0  0  0  0
M  END
$$$$

  -OEChem-03222214063D

 33 32  0     1  0  0  0  0  0999 V2000
   -2.3711   -5.2758    1.2947 H   0  0  0  0  0  0  0  0  0  0  0  0
   -2.5560   -4.3345    0.7690 C   0  0  0  0  0  0  0  0  0  0  0  0
   -3.3672   -3.8035    1.2731 H   0  0  0  0  0  0  0  0  0  0  0  0
   -2.8577   -4.5580   -0.2570 H   0  0  0  0  0  0  0  0  0  0  0  0
   -1.3001   -3.4834    0.7659 C   0  0  0  0  0  0  0  0  0  0  0  0
   -0.2856   -3.8951    1.2993 O   0  0  0  0  0  0  0  0  0  0  0  0
   -1.3194   -2.2431    0.1601 N   0  0  0  0  0  0  0  0  0  0  0  0
   -2.1902   -1.9588   -0.2778 H   0  0  0  0  0  0  0  0  0  0  0  0
   -0.1657   -1.3347    0.0644 C   0  0  1  0  0  0  0  0  0  0  0  0
    0.6269   -1.9194   -0.4165 H   0  0  0  0  0  0  0  0  0  0  0  0
   -0.3730   -0.0805   -0.8308 C   0  0  0  0  0  0  0  0  0  0  0  0
   -0.7624    0.7073   -0.1767 H   0  0  0  0  0  0  0  0  0  0  0  0
    0.6139    0.2537   -1.1688 H   0  0  0  0  0  0  0  0  0  0  0  0
   -1.3199   -0.0976   -2.0592 C   0  0  0  0  0  0  0  0  0  0  0  0
   -1.4502    0.9431   -2.3745 H   0  0  0  0  0  0  0  0  0  0  0  0
   -0.8053   -0.6172   -2.8743 H   0  0  0  0  0  0  0  0  0  0  0  0
   -2.7070   -0.7398   -1.9033 C   0  0  0  0  0  0  0  0  0  0  0  0
   -2.6206   -1.8283   -1.9642 H   0  0  0  0  0  0  0  0  0  0  0  0
   -3.1355   -0.4664   -0.9333 H   0  0  0  0  0  0  0  0  0  0  0  0
   -3.6554   -0.2765   -3.0042 C   0  0  0  0  0  0  0  0  0  0  0  0
   -3.8166    0.8048   -2.9306 H   0  0  0  0  0  0  0  0  0  0  0  0
   -3.2288   -0.4911   -3.9906 H   0  0  0  0  0  0  0  0  0  0  0  0
   -4.9267   -0.9867   -2.8360 N   0  0  0  0  0  0  0  0  0  0  0  0
   -5.6318   -0.6368   -3.4859 H   0  0  0  0  0  0  0  0  0  0  0  0
   -4.8022   -1.9927   -2.9482 H   0  0  0  0  0  0  0  0  0  0  0  0
    0.4076   -0.9002    1.4319 C   0  0  0  0  0  0  0  0  0  0  0  0
    1.6050   -0.6727    1.5440 O   0  0  0  0  0  0  0  0  0  0  0  0
   -0.4480   -0.5094    2.4465 N   0  0  0  0  0  0  0  0  0  0  0  0
   -1.4222   -0.7713    2.3400 H   0  0  0  0  0  0  0  0  0  0  0  0
    0.0230   -0.0632    3.7513 C   0  0  0  0  0  0  0  0  0  0  0  0
    0.6740    0.8110    3.6463 H   0  0  0  0  0  0  0  0  0  0  0  0
   -0.8246    0.2135    4.3853 H   0  0  0  0  0  0  0  0  0  0  0  0
    0.5828   -0.8623    4.2484 H   0  0  0  0  0  0  0  0  0  0  0  0
  1  2  1  0  0  0  0
  2  3  1  0  0  0  0
  2  4  1  0  0  0  0
  2  5  1  0  0  0  0
  5  6  2  0  0  0  0
  5  7  1  0  0  0  0
  7  8  1  0  0  0  0
  7  9  1  0  0  0  0
  9 10  1  0  0  0  0
  9 11  1  0  0  0  0
  9 26  1  0  0  0  0
 11 12  1  0  0  0  0
 11 13  1  0  0  0  0
 11 14  1  0  0  0  0
 14 15  1  0  0  0  0
 14 16  1  0  0  0  0
 14 17  1  0  0  0  0
 17 18  1  0  0  0  0
 17 19  1  0  0  0  0
 17 20  1  0  0  0  0
 20 21  1  0  0  0  0
 20 22  1  0  0  0  0
 20 23  1  0  0  0  0
 23 24  1  0  0  0  0
 23 25  1  0  0  0  0
 26 27  2  0  0  0  0
 26 28  1  0  0  0  0
 28 29  1  0  0  0  0
 28 30  1  0  0  0  0
 30 31  1  0  0  0  0
 30 32  1  0  0  0  0
 30 33  1  0  0  0  0
M  END
$$$$

  -OEChem-03222214063D

 33 32  0     1  0  0  0  0  0999 V2000
   -2.6962   -4.9880    0.7228 H   0  0  0  0  0  0  0  0  0  0  0  0
   -2.8197   -3.9894    0.2937 C   0  0  0  0  0  0  0  0  0  0  0  0
   -3.6301   -3.4793    0.8195 H   0  0  0  0  0  0  0  0  0  0  0  0
   -3.0840   -4.0910   -0.7615 H   0  0  0  0  0  0  0  0  0  0  0  0
   -1.5316   -3.2000    0.4327 C   0  0  0  0  0  0  0  0  0  0  0  0
   -0.5653   -3.7054    0.9736 O   0  0  0  0  0  0  0  0  0  0  0  0
   -1.4680   -1.9098   -0.0545 N   0  0  0  0  0  0  0  0  0  0  0  0
   -2.2840   -1.5653   -0.5499 H   0  0  0  0  0  0  0  0  0  0  0  0
   -0.2587   -1.0710   -0.0543 C   0  0  1  0  0  0  0  0  0  0  0  0
    0.5040   -1.6501   -0.5873 H   0  0  0  0  0  0  0  0  0  0  0  0
   -0.3975    0.2734   -0.8201 C   0  0  0  0  0  0  0  0  0  0  0  0
   -0.7284    1.0325   -0.1030 H   0  0  0  0  0  0  0  0  0  0  0  0
    0.6039    0.5695   -1.1513 H   0  0  0  0  0  0  0  0  0  0  0  0
   -1.3553    0.3771   -2.0308 C   0  0  0  0  0  0  0  0  0  0  0  0
   -1.2719    1.3930   -2.4312 H   0  0  0  0  0  0  0  0  0  0  0  0
   -0.9855   -0.2976   -2.8102 H   0  0  0  0  0  0  0  0  0  0  0  0
   -2.8506    0.0946   -1.7735 C   0  0  0  0  0  0  0  0  0  0  0  0
   -3.4264    0.9729   -2.0840 H   0  0  0  0  0  0  0  0  0  0  0  0
   -3.0469   -0.0331   -0.7057 H   0  0  0  0  0  0  0  0  0  0  0  0
   -3.3576   -1.1055   -2.5769 C   0  0  0  0  0  0  0  0  0  0  0  0
   -3.3141   -0.8757   -3.6476 H   0  0  0  0  0  0  0  0  0  0  0  0
   -2.7327   -1.9870   -2.4015 H   0  0  0  0  0  0  0  0  0  0  0  0
   -4.7418   -1.3807   -2.1803 N   0  0  0  0  0  0  0  0  0  0  0  0
   -5.1493   -2.1342   -2.7361 H   0  0  0  0  0  0  0  0  0  0  0  0
   -4.8267   -1.5693   -1.1826 H   0  0  0  0  0  0  0  0  0  0  0  0
    0.3253   -0.8000    1.3506 C   0  0  0  0  0  0  0  0  0  0  0  0
    1.5334   -0.6602    1.4880 O   0  0  0  0  0  0  0  0  0  0  0  0
   -0.5139   -0.4506    2.3935 N   0  0  0  0  0  0  0  0  0  0  0  0
   -1.5010   -0.6426    2.2612 H   0  0  0  0  0  0  0  0  0  0  0  0
   -0.0273   -0.1564    3.7355 C   0  0  0  0  0  0  0  0  0  0  0  0
    0.6555    0.6996    3.7168 H   0  0  0  0  0  0  0  0  0  0  0  0
   -0.8643    0.0852    4.3974 H   0  0  0  0  0  0  0  0  0  0  0  0
    0.5036   -1.0211    4.1474 H   0  0  0  0  0  0  0  0  0  0  0  0
  1  2  1  0  0  0  0
  2  3  1  0  0  0  0
  2  4  1  0  0  0  0
  2  5  1  0  0  0  0
  5  6  2  0  0  0  0
  5  7  1  0  0  0  0
  7  8  1  0  0  0  0
  7  9  1  0  0  0  0
  9 10  1  0  0  0  0
  9 11  1  0  0  0  0
  9 26  1  0  0  0  0
 11 12  1  0  0  0  0
 11 13  1  0  0  0  0
 11 14  1  0  0  0  0
 14 15  1  0  0  0  0
 14 16  1  0  0  0  0
 14 17  1  0  0  0  0
 17 18  1  0  0  0  0
 17 19  1  0  0  0  0
 17 20  1  0  0  0  0
 20 21  1  0  0  0  0
 20 22  1  0  0  0  0
 20 23  1  0  0  0  0
 23 24  1  0  0  0  0
 23 25  1  0  0  0  0
 26 27  2  0  0  0  0
 26 28  1  0  0  0  0
 28 29  1  0  0  0  0
 28 30  1  0  0  0  0
 30 31  1  0  0  0  0
 30 32  1  0  0  0  0
 30 33  1  0  0  0  0
M  END
$$$$

  -OEChem-03222214063D

 33 32  0     1  0  0  0  0  0999 V2000
   -2.5191   -5.2061    1.1192 H   0  0  0  0  0  0  0  0  0  0  0  0
   -2.6499   -4.2707    0.5675 C   0  0  0  0  0  0  0  0  0  0  0  0
   -3.4755   -3.7116    1.0146 H   0  0  0  0  0  0  0  0  0  0  0  0
   -2.8969   -4.5068   -0.4704 H   0  0  0  0  0  0  0  0  0  0  0  0
   -1.3750   -3.4504    0.6224 C   0  0  0  0  0  0  0  0  0  0  0  0
   -0.3834   -3.9053    1.1631 O   0  0  0  0  0  0  0  0  0  0  0  0
   -1.3491   -2.1911    0.0575 N   0  0  0  0  0  0  0  0  0  0  0  0
   -2.1969   -1.8724   -0.3967 H   0  0  0  0  0  0  0  0  0  0  0  0
   -0.1655   -1.3184    0.0052 C   0  0  1  0  0  0  0  0  0  0  0  0
    0.6153   -1.8961   -0.5021 H   0  0  0  0  0  0  0  0  0  0  0  0
   -0.3841   -0.0334   -0.8318 C   0  0  0  0  0  0  0  0  0  0  0  0
   -0.7196    0.7687   -0.1654 H   0  0  0  0  0  0  0  0  0  0  0  0
    0.5937    0.2710   -1.2207 H   0  0  0  0  0  0  0  0  0  0  0  0
   -1.3744   -0.0957   -2.0158 C   0  0  0  0  0  0  0  0  0  0  0  0
   -1.1864    0.7918   -2.6294 H   0  0  0  0  0  0  0  0  0  0  0  0
   -1.1533   -0.9702   -2.6368 H   0  0  0  0  0  0  0  0  0  0  0  0
   -2.8648   -0.1036   -1.6212 C   0  0  0  0  0  0  0  0  0  0  0  0
   -3.1997   -1.1186   -1.3981 H   0  0  0  0  0  0  0  0  0  0  0  0
   -3.0187    0.5134   -0.7297 H   0  0  0  0  0  0  0  0  0  0  0  0
   -3.7293    0.4446   -2.7538 C   0  0  0  0  0  0  0  0  0  0  0  0
   -3.4660    1.4895   -2.9533 H   0  0  0  0  0  0  0  0  0  0  0  0
   -3.5621   -0.1302   -3.6717 H   0  0  0  0  0  0  0  0  0  0  0  0
   -5.1349    0.3534   -2.3474 N   0  0  0  0  0  0  0  0  0  0  0  0
   -5.7468    0.7984   -3.0327 H   0  0  0  0  0  0  0  0  0  0  0  0
   -5.4125   -0.6149   -2.1899 H   0  0  0  0  0  0  0  0  0  0  0  0
    0.4143   -0.9410    1.3864 C   0  0  0  0  0  0  0  0  0  0  0  0
    1.6172   -0.7496    1.5078 O   0  0  0  0  0  0  0  0  0  0  0  0
   -0.4342   -0.5511    2.4072 N   0  0  0  0  0  0  0  0  0  0  0  0
   -1.4184   -0.7654    2.2862 H   0  0  0  0  0  0  0  0  0  0  0  0
    0.0408   -0.1215    3.7158 C   0  0  0  0  0  0  0  0  0  0  0  0
    0.6641    0.7738    3.6211 H   0  0  0  0  0  0  0  0  0  0  0  0
   -0.8060    0.1146    4.3668 H   0  0  0  0  0  0  0  0  0  0  0  0
    0.6312   -0.9141    4.1873 H   0  0  0  0  0  0  0  0  0  0  0  0
  1  2  1  0  0  0  0
  2  3  1  0  0  0  0
  2  4  1  0  0  0  0
  2  5  1  0  0  0  0
  5  6  2  0  0  0  0
  5  7  1  0  0  0  0
  7  8  1  0  0  0  0
  7  9  1  0  0  0  0
  9 10  1  0  0  0  0
  9 11  1  0  0  0  0
  9 26  1  0  0  0  0
 11 12  1  0  0  0  0
 11 13  1  0  0  0  0
 11 14  1  0  0  0  0
 14 15  1  0  0  0  0
 14 16  1  0  0  0  0
 14 17  1  0  0  0  0
 17 18  1  0  0  0  0
 17 19  1  0  0  0  0
 17 20  1  0  0  0  0
 20 21  1  0  0  0  0
 20 22  1  0  0  0  0
 20 23  1  0  0  0  0
 23 24  1  0  0  0  0
 23 25  1  0  0  0  0
 26 27  2  0  0  0  0
 26 28  1  0  0  0  0
 28 29  1  0  0  0  0
 28 30  1  0  0  0  0
 30 31  1  0  0  0  0
 30 32  1  0  0  0  0
 30 33  1  0  0  0  0
M  END
$$$$

  -OEChem-03222214063D

 33 32  0     1  0  0  0  0  0999 V2000
   -2.7238   -5.0737    0.7805 H   0  0  0  0  0  0  0  0  0  0  0  0
   -2.8083   -4.0861    0.3175 C   0  0  0  0  0  0  0  0  0  0  0  0
   -3.6329   -3.5465    0.7892 H   0  0  0  0  0  0  0  0  0  0  0  0
   -3.0247   -4.2141   -0.7459 H   0  0  0  0  0  0  0  0  0  0  0  0
   -1.5134   -3.3156    0.4941 C   0  0  0  0  0  0  0  0  0  0  0  0
   -0.5795   -3.8263    1.0851 O   0  0  0  0  0  0  0  0  0  0  0  0
   -1.4038   -2.0396   -0.0214 N   0  0  0  0  0  0  0  0  0  0  0  0
   -2.1864   -1.6987   -0.5707 H   0  0  0  0  0  0  0  0  0  0  0  0
   -0.1659   -1.2386   -0.0177 C   0  0  1  0  0  0  0  0  0  0  0  0
    0.5901   -1.8351   -0.5406 H   0  0  0  0  0  0  0  0  0  0  0  0
   -0.3194    0.0884   -0.7996 C   0  0  0  0  0  0  0  0  0  0  0  0
   -0.6141    0.8882   -0.1115 H   0  0  0  0  0  0  0  0  0  0  0  0
    0.6696    0.3559   -1.1873 H   0  0  0  0  0  0  0  0  0  0  0  0
   -1.3165    0.0640   -1.9756 C   0  0  0  0  0  0  0  0  0  0  0  0
   -0.9782    0.7904   -2.7224 H   0  0  0  0  0  0  0  0  0  0  0  0
   -1.3077   -0.9197   -2.4569 H   0  0  0  0  0  0  0  0  0  0  0  0
   -2.7438    0.4504   -1.5512 C   0  0  0  0  0  0  0  0  0  0  0  0
   -3.1208   -0.2290   -0.7834 H   0  0  0  0  0  0  0  0  0  0  0  0
   -2.7346    1.4587   -1.1241 H   0  0  0  0  0  0  0  0  0  0  0  0
   -3.6858    0.4266   -2.7518 C   0  0  0  0  0  0  0  0  0  0  0  0
   -3.3412    1.1378   -3.5113 H   0  0  0  0  0  0  0  0  0  0  0  0
   -3.6994   -0.5718   -3.2026 H   0  0  0  0  0  0  0  0  0  0  0  0
   -5.0304    0.7929   -2.2981 N   0  0  0  0  0  0  0  0  0  0  0  0
   -5.6830    0.8498   -3.0808 H   0  0  0  0  0  0  0  0  0  0  0  0
   -5.3724    0.1497   -1.5851 H   0  0  0  0  0  0  0  0  0  0  0  0
    0.4108   -0.9487    1.3856 C   0  0  0  0  0  0  0  0  0  0  0  0
    1.6216   -0.8489    1.5351 O   0  0  0  0  0  0  0  0  0  0  0  0
   -0.4299   -0.5451    2.4073 N   0  0  0  0  0  0  0  0  0  0  0  0
   -1.4215   -0.7039    2.2633 H   0  0  0  0  0  0  0  0  0  0  0  0
    0.0471   -0.2401    3.7499 C   0  0  0  0  0  0  0  0  0  0  0  0
    0.7580    0.5925    3.7247 H   0  0  0  0  0  0  0  0  0  0  0  0
   -0.7908    0.0415    4.3947 H   0  0  0  0  0  0  0  0  0  0  0  0
    0.5429   -1.1137    4.1858 H   0  0  0  0  0  0  0  0  0  0  0  0
  1  2  1  0  0  0  0
  2  3  1  0  0  0  0
  2  4  1  0  0  0  0
  2  5  1  0  0  0  0
  5  6  2  0  0  0  0
  5  7  1  0  0  0  0
  7  8  1  0  0  0  0
  7  9  1  0  0  0  0
  9 10  1  0  0  0  0
  9 11  1  0  0  0  0
  9 26  1  0  0  0  0
 11 12  1  0  0  0  0
 11 13  1  0  0  0  0
 11 14  1  0  0  0  0
 14 15  1  0  0  0  0
 14 16  1  0  0  0  0
 14 17  1  0  0  0  0
 17 18  1  0  0  0  0
 17 19  1  0  0  0  0
 17 20  1  0  0  0  0
 20 21  1  0  0  0  0
 20 22  1  0  0  0  0
 20 23  1  0  0  0  0
 23 24  1  0  0  0  0
 23 25  1  0  0  0  0
 26 27  2  0  0  0  0
 26 28  1  0  0  0  0
 28 29  1  0  0  0  0
 28 30  1  0  0  0  0
 30 31  1  0  0  0  0
 30 32  1  0  0  0  0
 30 33  1  0  0  0  0
M  END
$$$$

  -OEChem-03222214063D

 33 32  0     1  0  0  0  0  0999 V2000
   -2.7490   -5.0534    0.7511 H   0  0  0  0  0  0  0  0  0  0  0  0
   -2.8308   -4.0589    0.3030 C   0  0  0  0  0  0  0  0  0  0  0  0
   -3.6382   -3.5151    0.7990 H   0  0  0  0  0  0  0  0  0  0  0  0
   -3.0712   -4.1704   -0.7569 H   0  0  0  0  0  0  0  0  0  0  0  0
   -1.5230   -3.3063    0.4612 C   0  0  0  0  0  0  0  0  0  0  0  0
   -0.5849   -3.8328    1.0313 O   0  0  0  0  0  0  0  0  0  0  0  0
   -1.4072   -2.0261   -0.0431 N   0  0  0  0  0  0  0  0  0  0  0  0
   -2.2062   -1.6540   -0.5472 H   0  0  0  0  0  0  0  0  0  0  0  0
   -0.1665   -1.2267   -0.0241 C   0  0  1  0  0  0  0  0  0  0  0  0
    0.5922   -1.8198   -0.5469 H   0  0  0  0  0  0  0  0  0  0  0  0
   -0.3236    0.0993   -0.8052 C   0  0  0  0  0  0  0  0  0  0  0  0
   -0.6250    0.8942   -0.1142 H   0  0  0  0  0  0  0  0  0  0  0  0
    0.6652    0.3771   -1.1863 H   0  0  0  0  0  0  0  0  0  0  0  0
   -1.3154    0.0591   -1.9888 C   0  0  0  0  0  0  0  0  0  0  0  0
   -0.8555    0.5893   -2.8297 H   0  0  0  0  0  0  0  0  0  0  0  0
   -1.4957   -0.9650   -2.3298 H   0  0  0  0  0  0  0  0  0  0  0  0
   -2.6319    0.7706   -1.6502 C   0  0  0  0  0  0  0  0  0  0  0  0
   -3.1063    0.2816   -0.7936 H   0  0  0  0  0  0  0  0  0  0  0  0
   -2.4289    1.8111   -1.3746 H   0  0  0  0  0  0  0  0  0  0  0  0
   -3.5841    0.7472   -2.8428 C   0  0  0  0  0  0  0  0  0  0  0  0
   -3.1265    1.2590   -3.6969 H   0  0  0  0  0  0  0  0  0  0  0  0
   -3.7950   -0.2861   -3.1392 H   0  0  0  0  0  0  0  0  0  0  0  0
   -4.8255    1.4259   -2.4605 N   0  0  0  0  0  0  0  0  0  0  0  0
   -5.4764    1.4800   -3.2446 H   0  0  0  0  0  0  0  0  0  0  0  0
   -5.2614    0.9792   -1.6544 H   0  0  0  0  0  0  0  0  0  0  0  0
    0.4040   -0.9470    1.3837 C   0  0  0  0  0  0  0  0  0  0  0  0
    1.6142   -0.8531    1.5402 O   0  0  0  0  0  0  0  0  0  0  0  0
   -0.4400   -0.5487    2.4050 N   0  0  0  0  0  0  0  0  0  0  0  0
   -1.4318   -0.7002    2.2553 H   0  0  0  0  0  0  0  0  0  0  0  0
    0.0317   -0.2432    3.7497 C   0  0  0  0  0  0  0  0  0  0  0  0
    0.7554    0.5784    3.7254 H   0  0  0  0  0  0  0  0  0  0  0  0
   -0.8068    0.0560    4.3856 H   0  0  0  0  0  0  0  0  0  0  0  0
    0.5108   -1.1212    4.1956 H   0  0  0  0  0  0  0  0  0  0  0  0
  1  2  1  0  0  0  0
  2  3  1  0  0  0  0
  2  4  1  0  0  0  0
  2  5  1  0  0  0  0
  5  6  2  0  0  0  0
  5  7  1  0  0  0  0
  7  8  1  0  0  0  0
  7  9  1  0  0  0  0
  9 10  1  0  0  0  0
  9 11  1  0  0  0  0
  9 26  1  0  0  0  0
 11 12  1  0  0  0  0
 11 13  1  0  0  0  0
 11 14  1  0  0  0  0
 14 15  1  0  0  0  0
 14 16  1  0  0  0  0
 14 17  1  0  0  0  0
 17 18  1  0  0  0  0
 17 19  1  0  0  0  0
 17 20  1  0  0  0  0
 20 21  1  0  0  0  0
 20 22  1  0  0  0  0
 20 23  1  0  0  0  0
 23 24  1  0  0  0  0
 23 25  1  0  0  0  0
 26 27  2  0  0  0  0
 26 28  1  0  0  0  0
 28 29  1  0  0  0  0
 28 30  1  0  0  0  0
 30 31  1  0  0  0  0
 30 32  1  0  0  0  0
 30 33  1  0  0  0  0
M  END
$$$$

  -OEChem-03222214063D

 33 32  0     1  0  0  0  0  0999 V2000
   -2.6930   -5.1083    0.7785 H   0  0  0  0  0  0  0  0  0  0  0  0
   -2.8012   -4.1142    0.3351 C   0  0  0  0  0  0  0  0  0  0  0  0
   -3.6118   -3.5882    0.8446 H   0  0  0  0  0  0  0  0  0  0  0  0
   -3.0552   -4.2277   -0.7216 H   0  0  0  0  0  0  0  0  0  0  0  0
   -1.5063   -3.3366    0.4769 C   0  0  0  0  0  0  0  0  0  0  0  0
   -0.5508   -3.8454    1.0341 O   0  0  0  0  0  0  0  0  0  0  0  0
   -1.4212   -2.0544   -0.0284 N   0  0  0  0  0  0  0  0  0  0  0  0
   -2.2378   -1.6930   -0.5114 H   0  0  0  0  0  0  0  0  0  0  0  0
   -0.1956   -1.2321   -0.0234 C   0  0  1  0  0  0  0  0  0  0  0  0
    0.5664   -1.8187   -0.5489 H   0  0  0  0  0  0  0  0  0  0  0  0
   -0.3622    0.0897   -0.8118 C   0  0  0  0  0  0  0  0  0  0  0  0
   -0.6834    0.8680   -0.1107 H   0  0  0  0  0  0  0  0  0  0  0  0
    0.6248    0.3926   -1.1775 H   0  0  0  0  0  0  0  0  0  0  0  0
   -1.3489    0.0644   -2.0045 C   0  0  0  0  0  0  0  0  0  0  0  0
   -0.7917    0.3382   -2.9070 H   0  0  0  0  0  0  0  0  0  0  0  0
   -1.7563   -0.9325   -2.1890 H   0  0  0  0  0  0  0  0  0  0  0  0
   -2.4885    1.0735   -1.8153 C   0  0  0  0  0  0  0  0  0  0  0  0
   -3.0594    0.8187   -0.9167 H   0  0  0  0  0  0  0  0  0  0  0  0
   -2.0720    2.0774   -1.6785 H   0  0  0  0  0  0  0  0  0  0  0  0
   -3.4186    1.0792   -3.0257 C   0  0  0  0  0  0  0  0  0  0  0  0
   -2.8562    1.3417   -3.9288 H   0  0  0  0  0  0  0  0  0  0  0  0
   -3.8530    0.0843   -3.1736 H   0  0  0  0  0  0  0  0  0  0  0  0
   -4.4786    2.0649   -2.7946 N   0  0  0  0  0  0  0  0  0  0  0  0
   -5.1088    2.1284   -3.5947 H   0  0  0  0  0  0  0  0  0  0  0  0
   -4.9940    1.8631   -1.9381 H   0  0  0  0  0  0  0  0  0  0  0  0
    0.3871   -0.9412    1.3774 C   0  0  0  0  0  0  0  0  0  0  0  0
    1.5967   -0.8156    1.5154 O   0  0  0  0  0  0  0  0  0  0  0  0
   -0.4506   -0.5584    2.4098 N   0  0  0  0  0  0  0  0  0  0  0  0
   -1.4399   -0.7407    2.2791 H   0  0  0  0  0  0  0  0  0  0  0  0
    0.0359   -0.2394    3.7461 C   0  0  0  0  0  0  0  0  0  0  0  0
    0.7649    0.5768    3.7042 H   0  0  0  0  0  0  0  0  0  0  0  0
   -0.7940    0.0742    4.3865 H   0  0  0  0  0  0  0  0  0  0  0  0
    0.5134   -1.1155    4.1976 H   0  0  0  0  0  0  0  0  0  0  0  0
  1  2  1  0  0  0  0
  2  3  1  0  0  0  0
  2  4  1  0  0  0  0
  2  5  1  0  0  0  0
  5  6  2  0  0  0  0
  5  7  1  0  0  0  0
  7  8  1  0  0  0  0
  7  9  1  0  0  0  0
  9 10  1  0  0  0  0
  9 11  1  0  0  0  0
  9 26  1  0  0  0  0
 11 12  1  0  0  0  0
 11 13  1  0  0  0  0
 11 14  1  0  0  0  0
 14 15  1  0  0  0  0
 14 16  1  0  0  0  0
 14 17  1  0  0  0  0
 17 18  1  0  0  0  0
 17 19  1  0  0  0  0
 17 20  1  0  0  0  0
 20 21  1  0  0  0  0
 20 22  1  0  0  0  0
 20 23  1  0  0  0  0
 23 24  1  0  0  0  0
 23 25  1  0  0  0  0
 26 27  2  0  0  0  0
 26 28  1  0  0  0  0
 28 29  1  0  0  0  0
 28 30  1  0  0  0  0
 30 31  1  0  0  0  0
 30 32  1  0  0  0  0
 30 33  1  0  0  0  0
M  END
$$$$

  -OEChem-03222214063D

 33 32  0     1  0  0  0  0  0999 V2000
   -2.6480   -5.1383    0.8290 H   0  0  0  0  0  0  0  0  0  0  0  0
   -2.7760   -4.1487    0.3807 C   0  0  0  0  0  0  0  0  0  0  0  0
   -3.5811   -3.6272    0.9037 H   0  0  0  0  0  0  0  0  0  0  0  0
   -3.0511   -4.2731   -0.6693 H   0  0  0  0  0  0  0  0  0  0  0  0
   -1.4868   -3.3561    0.4878 C   0  0  0  0  0  0  0  0  0  0  0  0
   -0.5147   -3.8502    1.0294 O   0  0  0  0  0  0  0  0  0  0  0  0
   -1.4275   -2.0759   -0.0272 N   0  0  0  0  0  0  0  0  0  0  0  0
   -2.2587   -1.7279   -0.4940 H   0  0  0  0  0  0  0  0  0  0  0  0
   -0.2148   -1.2350   -0.0389 C   0  0  1  0  0  0  0  0  0  0  0  0
    0.5521   -1.8158   -0.5639 H   0  0  0  0  0  0  0  0  0  0  0  0
   -0.3904    0.0834   -0.8346 C   0  0  0  0  0  0  0  0  0  0  0  0
   -0.7354    0.8428   -0.1241 H   0  0  0  0  0  0  0  0  0  0  0  0
    0.5917    0.4150   -1.1886 H   0  0  0  0  0  0  0  0  0  0  0  0
   -1.3764    0.0673   -2.0293 C   0  0  0  0  0  0  0  0  0  0  0  0
   -0.7950    0.0421   -2.9571 H   0  0  0  0  0  0  0  0  0  0  0  0
   -2.0135   -0.8187   -2.0351 H   0  0  0  0  0  0  0  0  0  0  0  0
   -2.2762    1.3097   -2.0195 C   0  0  0  0  0  0  0  0  0  0  0  0
   -2.8826    1.3191   -1.1081 H   0  0  0  0  0  0  0  0  0  0  0  0
   -1.6544    2.2114   -2.0221 H   0  0  0  0  0  0  0  0  0  0  0  0
   -3.1935    1.3316   -3.2390 C   0  0  0  0  0  0  0  0  0  0  0  0
   -2.5973    1.3289   -4.1584 H   0  0  0  0  0  0  0  0  0  0  0  0
   -3.8336    0.4425   -3.2461 H   0  0  0  0  0  0  0  0  0  0  0  0
   -4.0149    2.5439   -3.1811 N   0  0  0  0  0  0  0  0  0  0  0  0
   -4.6343    2.6125   -3.9889 H   0  0  0  0  0  0  0  0  0  0  0  0
   -4.5435    2.5921   -2.3104 H   0  0  0  0  0  0  0  0  0  0  0  0
    0.3694   -0.9307    1.3589 C   0  0  0  0  0  0  0  0  0  0  0  0
    1.5780   -0.7958    1.4960 O   0  0  0  0  0  0  0  0  0  0  0  0
   -0.4708   -0.5571    2.3925 N   0  0  0  0  0  0  0  0  0  0  0  0
   -1.4577   -0.7504    2.2612 H   0  0  0  0  0  0  0  0  0  0  0  0
    0.0119   -0.2398    3.7306 C   0  0  0  0  0  0  0  0  0  0  0  0
    0.7427    0.5751    3.6934 H   0  0  0  0  0  0  0  0  0  0  0  0
   -0.8199    0.0743    4.3682 H   0  0  0  0  0  0  0  0  0  0  0  0
    0.4860   -1.1170    4.1830 H   0  0  0  0  0  0  0  0  0  0  0  0
  1  2  1  0  0  0  0
  2  3  1  0  0  0  0
  2  4  1  0  0  0  0
  2  5  1  0  0  0  0
  5  6  2  0  0  0  0
  5  7  1  0  0  0  0
  7  8  1  0  0  0  0
  7  9  1  0  0  0  0
  9 10  1  0  0  0  0
  9 11  1  0  0  0  0
  9 26  1  0  0  0  0
 11 12  1  0  0  0  0
 11 13  1  0  0  0  0
 11 14  1  0  0  0  0
 14 15  1  0  0  0  0
 14 16  1  0  0  0  0
 14 17  1  0  0  0  0
 17 18  1  0  0  0  0
 17 19  1  0  0  0  0
 17 20  1  0  0  0  0
 20 21  1  0  0  0  0
 20 22  1  0  0  0  0
 20 23  1  0  0  0  0
 23 24  1  0  0  0  0
 23 25  1  0  0  0  0
 26 27  2  0  0  0  0
 26 28  1  0  0  0  0
 28 29  1  0  0  0  0
 28 30  1  0  0  0  0
 30 31  1  0  0  0  0
 30 32  1  0  0  0  0
 30 33  1  0  0  0  0
M  END
$$$$

  -OEChem-03222214063D

 33 32  0     1  0  0  0  0  0999 V2000
   -2.6487   -5.1400    0.8377 H   0  0  0  0  0  0  0  0  0  0  0  0
   -2.7828   -4.1542    0.3831 C   0  0  0  0  0  0  0  0  0  0  0  0
   -3.5891   -3.6334    0.9049 H   0  0  0  0  0  0  0  0  0  0  0  0
   -3.0602   -4.2860   -0.6655 H   0  0  0  0  0  0  0  0  0  0  0  0
   -1.4968   -3.3555    0.4832 C   0  0  0  0  0  0  0  0  0  0  0  0
   -0.5197   -3.8452    1.0198 O   0  0  0  0  0  0  0  0  0  0  0  0
   -1.4451   -2.0748   -0.0315 N   0  0  0  0  0  0  0  0  0  0  0  0
   -2.2785   -1.7321   -0.4979 H   0  0  0  0  0  0  0  0  0  0  0  0
   -0.2336   -1.2321   -0.0495 C   0  0  1  0  0  0  0  0  0  0  0  0
    0.5303   -1.8134   -0.5782 H   0  0  0  0  0  0  0  0  0  0  0  0
   -0.4090    0.0868   -0.8435 C   0  0  0  0  0  0  0  0  0  0  0  0
   -0.7636    0.8410   -0.1325 H   0  0  0  0  0  0  0  0  0  0  0  0
    0.5710    0.4247   -1.1974 H   0  0  0  0  0  0  0  0  0  0  0  0
   -1.3988    0.0661   -2.0308 C   0  0  0  0  0  0  0  0  0  0  0  0
   -0.8645   -0.2501   -2.9330 H   0  0  0  0  0  0  0  0  0  0  0  0
   -2.2169   -0.6383   -1.8705 H   0  0  0  0  0  0  0  0  0  0  0  0
   -2.0253    1.4511   -2.2364 C   0  0  0  0  0  0  0  0  0  0  0  0
   -2.6070    1.7299   -1.3518 H   0  0  0  0  0  0  0  0  0  0  0  0
   -1.2320    2.1949   -2.3676 H   0  0  0  0  0  0  0  0  0  0  0  0
   -2.9312    1.4642   -3.4646 C   0  0  0  0  0  0  0  0  0  0  0  0
   -2.3568    1.1902   -4.3567 H   0  0  0  0  0  0  0  0  0  0  0  0
   -3.7414    0.7367   -3.3438 H   0  0  0  0  0  0  0  0  0  0  0  0
   -3.4825    2.8129   -3.6223 N   0  0  0  0  0  0  0  0  0  0  0  0
   -4.0813    2.8762   -4.4458 H   0  0  0  0  0  0  0  0  0  0  0  0
   -3.9818    3.1095   -2.7840 H   0  0  0  0  0  0  0  0  0  0  0  0
    0.3590   -0.9279    1.3448 C   0  0  0  0  0  0  0  0  0  0  0  0
    1.5677   -0.7839    1.4727 O   0  0  0  0  0  0  0  0  0  0  0  0
   -0.4759   -0.5563    2.3838 N   0  0  0  0  0  0  0  0  0  0  0  0
   -1.4626   -0.7568    2.2622 H   0  0  0  0  0  0  0  0  0  0  0  0
    0.0156   -0.2236    3.7149 C   0  0  0  0  0  0  0  0  0  0  0  0
    0.7228    0.6111    3.6663 H   0  0  0  0  0  0  0  0  0  0  0  0
   -0.8160    0.0690    4.3628 H   0  0  0  0  0  0  0  0  0  0  0  0
    0.5199   -1.0863    4.1628 H   0  0  0  0  0  0  0  0  0  0  0  0
  1  2  1  0  0  0  0
  2  3  1  0  0  0  0
  2  4  1  0  0  0  0
  2  5  1  0  0  0  0
  5  6  2  0  0  0  0
  5  7  1  0  0  0  0
  7  8  1  0  0  0  0
  7  9  1  0  0  0  0
  9 10  1  0  0  0  0
  9 11  1  0  0  0  0
  9 26  1  0  0  0  0
 11 12  1  0  0  0  0
 11 13  1  0  0  0  0
 11 14  1  0  0  0  0
 14 15  1  0  0  0  0
 14 16  1  0  0  0  0
 14 17  1  0  0  0  0
 17 18  1  0  0  0  0
 17 19  1  0  0  0  0
 17 20  1  0  0  0  0
 20 21  1  0  0  0  0
 20 22  1  0  0  0  0
 20 23  1  0  0  0  0
 23 24  1  0  0  0  0
 23 25  1  0  0  0  0
 26 27  2  0  0  0  0
 26 28  1  0  0  0  0
 28 29  1  0  0  0  0
 28 30  1  0  0  0  0
 30 31  1  0  0  0  0
 30 32  1  0  0  0  0
 30 33  1  0  0  0  0
M  END
$$$$

  -OEChem-03222214063D

 33 32  0     1  0  0  0  0  0999 V2000
   -2.6899   -5.1069    0.8017 H   0  0  0  0  0  0  0  0  0  0  0  0
   -2.8102   -4.1191    0.3472 C   0  0  0  0  0  0  0  0  0  0  0  0
   -3.6248   -3.5964    0.8543 H   0  0  0  0  0  0  0  0  0  0  0  0
   -3.0668   -4.2472   -0.7072 H   0  0  0  0  0  0  0  0  0  0  0  0
   -1.5227   -3.3263    0.4751 C   0  0  0  0  0  0  0  0  0  0  0  0
   -0.5622   -3.8187    1.0383 O   0  0  0  0  0  0  0  0  0  0  0  0
   -1.4520   -2.0477   -0.0429 N   0  0  0  0  0  0  0  0  0  0  0  0
   -2.2663   -1.7127   -0.5464 H   0  0  0  0  0  0  0  0  0  0  0  0
   -0.2291   -1.2206   -0.0581 C   0  0  1  0  0  0  0  0  0  0  0  0
    0.5298   -1.8086   -0.5864 H   0  0  0  0  0  0  0  0  0  0  0  0
   -0.3960    0.1004   -0.8486 C   0  0  0  0  0  0  0  0  0  0  0  0
   -0.7425    0.8659   -0.1458 H   0  0  0  0  0  0  0  0  0  0  0  0
    0.5850    0.4229   -1.2145 H   0  0  0  0  0  0  0  0  0  0  0  0
   -1.3929    0.0643   -2.0240 C   0  0  0  0  0  0  0  0  0  0  0  0
   -0.9566   -0.5052   -2.8516 H   0  0  0  0  0  0  0  0  0  0  0  0
   -2.3283   -0.4207   -1.7348 H   0  0  0  0  0  0  0  0  0  0  0  0
   -1.7356    1.4892   -2.4748 C   0  0  0  0  0  0  0  0  0  0  0  0
   -2.2063    2.0357   -1.6511 H   0  0  0  0  0  0  0  0  0  0  0  0
   -0.8155    2.0170   -2.7483 H   0  0  0  0  0  0  0  0  0  0  0  0
   -2.6778    1.4699   -3.6752 C   0  0  0  0  0  0  0  0  0  0  0  0
   -2.2143    0.9269   -4.5065 H   0  0  0  0  0  0  0  0  0  0  0  0
   -3.6113    0.9599   -3.4133 H   0  0  0  0  0  0  0  0  0  0  0  0
   -2.9531    2.8525   -4.0754 N   0  0  0  0  0  0  0  0  0  0  0  0
   -3.5663    2.8895   -4.8898 H   0  0  0  0  0  0  0  0  0  0  0  0
   -3.3408    3.3916   -3.3013 H   0  0  0  0  0  0  0  0  0  0  0  0
    0.3613   -0.9208    1.3378 C   0  0  0  0  0  0  0  0  0  0  0  0
    1.5707   -0.7877    1.4695 O   0  0  0  0  0  0  0  0  0  0  0  0
   -0.4748   -0.5361    2.3708 N   0  0  0  0  0  0  0  0  0  0  0  0
   -1.4608   -0.7397    2.2476 H   0  0  0  0  0  0  0  0  0  0  0  0
    0.0137   -0.2148    3.7057 C   0  0  0  0  0  0  0  0  0  0  0  0
    0.7391    0.6046    3.6626 H   0  0  0  0  0  0  0  0  0  0  0  0
   -0.8165    0.0955    4.3472 H   0  0  0  0  0  0  0  0  0  0  0  0
    0.4953   -1.0888    4.1567 H   0  0  0  0  0  0  0  0  0  0  0  0
  1  2  1  0  0  0  0
  2  3  1  0  0  0  0
  2  4  1  0  0  0  0
  2  5  1  0  0  0  0
  5  6  2  0  0  0  0
  5  7  1  0  0  0  0
  7  8  1  0  0  0  0
  7  9  1  0  0  0  0
  9 10  1  0  0  0  0
  9 11  1  0  0  0  0
  9 26  1  0  0  0  0
 11 12  1  0  0  0  0
 11 13  1  0  0  0  0
 11 14  1  0  0  0  0
 14 15  1  0  0  0  0
 14 16  1  0  0  0  0
 14 17  1  0  0  0  0
 17 18  1  0  0  0  0
 17 19  1  0  0  0  0
 17 20  1  0  0  0  0
 20 21  1  0  0  0  0
 20 22  1  0  0  0  0
 20 23  1  0  0  0  0
 23 24  1  0  0  0  0
 23 25  1  0  0  0  0
 26 27  2  0  0  0  0
 26 28  1  0  0  0  0
 28 29  1  0  0  0  0
 28 30  1  0  0  0  0
 30 31  1  0  0  0  0
 30 32  1  0  0  0  0
 30 33  1  0  0  0  0
M  END
$$$$

  -OEChem-03222214063D

 33 32  0     1  0  0  0  0  0999 V2000
   -2.6863   -5.0981    0.7569 H   0  0  0  0  0  0  0  0  0  0  0  0
   -2.8027   -4.1090    0.3045 C   0  0  0  0  0  0  0  0  0  0  0  0
   -3.6364   -3.5962    0.7898 H   0  0  0  0  0  0  0  0  0  0  0  0
   -3.0265   -4.2335   -0.7577 H   0  0  0  0  0  0  0  0  0  0  0  0
   -1.5278   -3.3050    0.4752 C   0  0  0  0  0  0  0  0  0  0  0  0
   -0.5826   -3.7896    1.0701 O   0  0  0  0  0  0  0  0  0  0  0  0
   -1.4531   -2.0251   -0.0395 N   0  0  0  0  0  0  0  0  0  0  0  0
   -2.2417   -1.7121   -0.5961 H   0  0  0  0  0  0  0  0  0  0  0  0
   -0.2248   -1.2048   -0.0526 C   0  0  1  0  0  0  0  0  0  0  0  0
    0.5323   -1.7935   -0.5830 H   0  0  0  0  0  0  0  0  0  0  0  0
   -0.3943    0.1212   -0.8372 C   0  0  0  0  0  0  0  0  0  0  0  0
   -0.4572    0.9503   -0.1238 H   0  0  0  0  0  0  0  0  0  0  0  0
    0.5085    0.2837   -1.4357 H   0  0  0  0  0  0  0  0  0  0  0  0
   -1.6305    0.1991   -1.7499 C   0  0  0  0  0  0  0  0  0  0  0  0
   -1.5924   -0.6067   -2.4910 H   0  0  0  0  0  0  0  0  0  0  0  0
   -2.5435    0.0839   -1.1571 H   0  0  0  0  0  0  0  0  0  0  0  0
   -1.6759    1.5548   -2.4633 C   0  0  0  0  0  0  0  0  0  0  0  0
   -1.7127    2.3595   -1.7219 H   0  0  0  0  0  0  0  0  0  0  0  0
   -0.7660    1.6864   -3.0589 H   0  0  0  0  0  0  0  0  0  0  0  0
   -2.8936    1.6526   -3.3776 C   0  0  0  0  0  0  0  0  0  0  0  0
   -2.8700    0.8486   -4.1216 H   0  0  0  0  0  0  0  0  0  0  0  0
   -3.8137    1.5483   -2.7920 H   0  0  0  0  0  0  0  0  0  0  0  0
   -2.8671    2.9546   -4.0494 N   0  0  0  0  0  0  0  0  0  0  0  0
   -3.6646    3.0672   -4.6755 H   0  0  0  0  0  0  0  0  0  0  0  0
   -2.8225    3.7181   -3.3741 H   0  0  0  0  0  0  0  0  0  0  0  0
    0.3658   -0.9147    1.3451 C   0  0  0  0  0  0  0  0  0  0  0  0
    1.5760   -0.7913    1.4793 O   0  0  0  0  0  0  0  0  0  0  0  0
   -0.4702   -0.5298    2.3778 N   0  0  0  0  0  0  0  0  0  0  0  0
   -1.4569   -0.7271    2.2495 H   0  0  0  0  0  0  0  0  0  0  0  0
    0.0173   -0.2376    3.7194 C   0  0  0  0  0  0  0  0  0  0  0  0
    0.7655    0.5618    3.6909 H   0  0  0  0  0  0  0  0  0  0  0  0
   -0.8084    0.0883    4.3590 H   0  0  0  0  0  0  0  0  0  0  0  0
    0.4713   -1.1302    4.1628 H   0  0  0  0  0  0  0  0  0  0  0  0
  1  2  1  0  0  0  0
  2  3  1  0  0  0  0
  2  4  1  0  0  0  0
  2  5  1  0  0  0  0
  5  6  2  0  0  0  0
  5  7  1  0  0  0  0
  7  8  1  0  0  0  0
  7  9  1  0  0  0  0
  9 10  1  0  0  0  0
  9 11  1  0  0  0  0
  9 26  1  0  0  0  0
 11 12  1  0  0  0  0
 11 13  1  0  0  0  0
 11 14  1  0  0  0  0
 14 15  1  0  0  0  0
 14 16  1  0  0  0  0
 14 17  1  0  0  0  0
 17 18  1  0  0  0  0
 17 19  1  0  0  0  0
 17 20  1  0  0  0  0
 20 21  1  0  0  0  0
 20 22  1  0  0  0  0
 20 23  1  0  0  0  0
 23 24  1  0  0  0  0
 23 25  1  0  0  0  0
 26 27  2  0  0  0  0
 26 28  1  0  0  0  0
 28 29  1  0  0  0  0
 28 30  1  0  0  0  0
 30 31  1  0  0  0  0
 30 32  1  0  0  0  0
 30 33  1  0  0  0  0
M  END
$$$$

  -OEChem-03222214063D

 33 32  0     1  0  0  0  0  0999 V2000
   -2.7186   -5.0780    0.7605 H   0  0  0  0  0  0  0  0  0  0  0  0
   -2.8274   -4.0885    0.3068 C   0  0  0  0  0  0  0  0  0  0  0  0
   -3.6541   -3.5674    0.7954 H   0  0  0  0  0  0  0  0  0  0  0  0
   -3.0580   -4.2127   -0.7541 H   0  0  0  0  0  0  0  0  0  0  0  0
   -1.5434   -3.2968    0.4700 C   0  0  0  0  0  0  0  0  0  0  0  0
   -0.5983   -3.7911    1.0571 O   0  0  0  0  0  0  0  0  0  0  0  0
   -1.4583   -2.0172   -0.0432 N   0  0  0  0  0  0  0  0  0  0  0  0
   -2.2507   -1.6901   -0.5862 H   0  0  0  0  0  0  0  0  0  0  0  0
   -0.2249   -1.2043   -0.0549 C   0  0  1  0  0  0  0  0  0  0  0  0
    0.5288   -1.7972   -0.5855 H   0  0  0  0  0  0  0  0  0  0  0  0
   -0.3909    0.1225   -0.8389 C   0  0  0  0  0  0  0  0  0  0  0  0
   -0.4411    0.9611   -0.1354 H   0  0  0  0  0  0  0  0  0  0  0  0
    0.5133    0.2665   -1.4404 H   0  0  0  0  0  0  0  0  0  0  0  0
   -1.6287    0.2019   -1.7505 C   0  0  0  0  0  0  0  0  0  0  0  0
   -1.7206   -0.7225   -2.3307 H   0  0  0  0  0  0  0  0  0  0  0  0
   -2.5316    0.3221   -1.1424 H   0  0  0  0  0  0  0  0  0  0  0  0
   -1.4940    1.3718   -2.7320 C   0  0  0  0  0  0  0  0  0  0  0  0
   -1.3732    2.3068   -2.1751 H   0  0  0  0  0  0  0  0  0  0  0  0
   -0.6023    1.2310   -3.3519 H   0  0  0  0  0  0  0  0  0  0  0  0
   -2.7206    1.4740   -3.6341 C   0  0  0  0  0  0  0  0  0  0  0  0
   -2.8598    0.5390   -4.1880 H   0  0  0  0  0  0  0  0  0  0  0  0
   -3.6178    1.6492   -3.0303 H   0  0  0  0  0  0  0  0  0  0  0  0
   -2.5172    2.5815   -4.5716 N   0  0  0  0  0  0  0  0  0  0  0  0
   -3.3147    2.6905   -5.1983 H   0  0  0  0  0  0  0  0  0  0  0  0
   -2.3207    3.4517   -4.0766 H   0  0  0  0  0  0  0  0  0  0  0  0
    0.3687   -0.9173    1.3424 C   0  0  0  0  0  0  0  0  0  0  0  0
    1.5796   -0.7978    1.4744 O   0  0  0  0  0  0  0  0  0  0  0  0
   -0.4635   -0.5269    2.3764 N   0  0  0  0  0  0  0  0  0  0  0  0
   -1.4509   -0.7231    2.2521 H   0  0  0  0  0  0  0  0  0  0  0  0
    0.0294   -0.2283    3.7148 C   0  0  0  0  0  0  0  0  0  0  0  0
    0.7702    0.5775    3.6807 H   0  0  0  0  0  0  0  0  0  0  0  0
   -0.7949    0.0904    4.3596 H   0  0  0  0  0  0  0  0  0  0  0  0
    0.4947   -1.1159    4.1561 H   0  0  0  0  0  0  0  0  0  0  0  0
  1  2  1  0  0  0  0
  2  3  1  0  0  0  0
  2  4  1  0  0  0  0
  2  5  1  0  0  0  0
  5  6  2  0  0  0  0
  5  7  1  0  0  0  0
  7  8  1  0  0  0  0
  7  9  1  0  0  0  0
  9 10  1  0  0  0  0
  9 11  1  0  0  0  0
  9 26  1  0  0  0  0
 11 12  1  0  0  0  0
 11 13  1  0  0  0  0
 11 14  1  0  0  0  0
 14 15  1  0  0  0  0
 14 16  1  0  0  0  0
 14 17  1  0  0  0  0
 17 18  1  0  0  0  0
 17 19  1  0  0  0  0
 17 20  1  0  0  0  0
 20 21  1  0  0  0  0
 20 22  1  0  0  0  0
 20 23  1  0  0  0  0
 23 24  1  0  0  0  0
 23 25  1  0  0  0  0
 26 27  2  0  0  0  0
 26 28  1  0  0  0  0
 28 29  1  0  0  0  0
 28 30  1  0  0  0  0
 30 31  1  0  0  0  0
 30 32  1  0  0  0  0
 30 33  1  0  0  0  0
M  END
$$$$

  -OEChem-03222214063D

 33 32  0     1  0  0  0  0  0999 V2000
   -2.7272   -5.0808    0.7959 H   0  0  0  0  0  0  0  0  0  0  0  0
   -2.8369   -4.0928    0.3394 C   0  0  0  0  0  0  0  0  0  0  0  0
   -3.6543   -3.5647    0.8364 H   0  0  0  0  0  0  0  0  0  0  0  0
   -3.0820   -4.2202   -0.7179 H   0  0  0  0  0  0  0  0  0  0  0  0
   -1.5468   -3.3073    0.4815 C   0  0  0  0  0  0  0  0  0  0  0  0
   -0.5940   -3.8048    1.0531 O   0  0  0  0  0  0  0  0  0  0  0  0
   -1.4658   -2.0288   -0.0346 N   0  0  0  0  0  0  0  0  0  0  0  0
   -2.2705   -1.6945   -0.5546 H   0  0  0  0  0  0  0  0  0  0  0  0
   -0.2350   -1.2127   -0.0564 C   0  0  1  0  0  0  0  0  0  0  0  0
    0.5166   -1.8081   -0.5876 H   0  0  0  0  0  0  0  0  0  0  0  0
   -0.3998    0.1117   -0.8472 C   0  0  0  0  0  0  0  0  0  0  0  0
   -0.4395    0.9559   -0.1499 H   0  0  0  0  0  0  0  0  0  0  0  0
    0.5098    0.2423   -1.4437 H   0  0  0  0  0  0  0  0  0  0  0  0
   -1.6354    0.2087   -1.7669 C   0  0  0  0  0  0  0  0  0  0  0  0
   -1.8884   -0.7766   -2.1705 H   0  0  0  0  0  0  0  0  0  0  0  0
   -2.4943    0.5794   -1.1976 H   0  0  0  0  0  0  0  0  0  0  0  0
   -1.3451    1.1157   -2.9683 C   0  0  0  0  0  0  0  0  0  0  0  0
   -1.0428    2.1069   -2.6152 H   0  0  0  0  0  0  0  0  0  0  0  0
   -0.5183    0.6988   -3.5534 H   0  0  0  0  0  0  0  0  0  0  0  0
   -2.5751    1.2497   -3.8617 C   0  0  0  0  0  0  0  0  0  0  0  0
   -2.9018    0.2615   -4.2043 H   0  0  0  0  0  0  0  0  0  0  0  0
   -3.3984    1.7058   -3.3009 H   0  0  0  0  0  0  0  0  0  0  0  0
   -2.2246    2.0844   -5.0136 N   0  0  0  0  0  0  0  0  0  0  0  0
   -3.0220    2.2124   -5.6368 H   0  0  0  0  0  0  0  0  0  0  0  0
   -1.8471    2.9839   -4.7153 H   0  0  0  0  0  0  0  0  0  0  0  0
    0.3662   -0.9210    1.3368 C   0  0  0  0  0  0  0  0  0  0  0  0
    1.5771   -0.7945    1.4618 O   0  0  0  0  0  0  0  0  0  0  0  0
   -0.4612   -0.5308    2.3745 N   0  0  0  0  0  0  0  0  0  0  0  0
   -1.4487   -0.7307    2.2571 H   0  0  0  0  0  0  0  0  0  0  0  0
    0.0383   -0.2184    3.7075 C   0  0  0  0  0  0  0  0  0  0  0  0
    0.7623    0.6020    3.6637 H   0  0  0  0  0  0  0  0  0  0  0  0
   -0.7864    0.0858    4.3589 H   0  0  0  0  0  0  0  0  0  0  0  0
    0.5252   -1.0951    4.1477 H   0  0  0  0  0  0  0  0  0  0  0  0
  1  2  1  0  0  0  0
  2  3  1  0  0  0  0
  2  4  1  0  0  0  0
  2  5  1  0  0  0  0
  5  6  2  0  0  0  0
  5  7  1  0  0  0  0
  7  8  1  0  0  0  0
  7  9  1  0  0  0  0
  9 10  1  0  0  0  0
  9 11  1  0  0  0  0
  9 26  1  0  0  0  0
 11 12  1  0  0  0  0
 11 13  1  0  0  0  0
 11 14  1  0  0  0  0
 14 15  1  0  0  0  0
 14 16  1  0  0  0  0
 14 17  1  0  0  0  0
 17 18  1  0  0  0  0
 17 19  1  0  0  0  0
 17 20  1  0  0  0  0
 20 21  1  0  0  0  0
 20 22  1  0  0  0  0
 20 23  1  0  0  0  0
 23 24  1  0  0  0  0
 23 25  1  0  0  0  0
 26 27  2  0  0  0  0
 26 28  1  0  0  0  0
 28 29  1  0  0  0  0
 28 30  1  0  0  0  0
 30 31  1  0  0  0  0
 30 32  1  0  0  0  0
 30 33  1  0  0  0  0
M  END
$$$$

  -OEChem-03222214063D

 33 32  0     1  0  0  0  0  0999 V2000
   -2.7169   -5.1017    0.8565 H   0  0  0  0  0  0  0  0  0  0  0  0
   -2.8389   -4.1169    0.3963 C   0  0  0  0  0  0  0  0  0  0  0  0
   -3.6498   -3.5898    0.9044 H   0  0  0  0  0  0  0  0  0  0  0  0
   -3.1014   -4.2515   -0.6558 H   0  0  0  0  0  0  0  0  0  0  0  0
   -1.5502   -3.3246    0.5115 C   0  0  0  0  0  0  0  0  0  0  0  0
   -0.5849   -3.8153    1.0679 O   0  0  0  0  0  0  0  0  0  0  0  0
   -1.4845   -2.0485   -0.0128 N   0  0  0  0  0  0  0  0  0  0  0  0
   -2.3039   -1.7164   -0.5106 H   0  0  0  0  0  0  0  0  0  0  0  0
   -0.2595   -1.2253   -0.0567 C   0  0  1  0  0  0  0  0  0  0  0  0
    0.4863   -1.8264   -0.5893 H   0  0  0  0  0  0  0  0  0  0  0  0
   -0.4197    0.0939   -0.8604 C   0  0  0  0  0  0  0  0  0  0  0  0
   -0.4554    0.9381   -0.1631 H   0  0  0  0  0  0  0  0  0  0  0  0
    0.4974    0.2202   -1.4464 H   0  0  0  0  0  0  0  0  0  0  0  0
   -1.6500    0.2222   -1.7907 C   0  0  0  0  0  0  0  0  0  0  0  0
   -2.1053   -0.7499   -1.9923 H   0  0  0  0  0  0  0  0  0  0  0  0
   -2.4047    0.8563   -1.3133 H   0  0  0  0  0  0  0  0  0  0  0  0
   -1.2428    0.8006   -3.1512 C   0  0  0  0  0  0  0  0  0  0  0  0
   -0.7488    1.7670   -3.0068 H   0  0  0  0  0  0  0  0  0  0  0  0
   -0.5307    0.1261   -3.6387 H   0  0  0  0  0  0  0  0  0  0  0  0
   -2.4604    0.9850   -4.0528 C   0  0  0  0  0  0  0  0  0  0  0  0
   -2.9786    0.0289   -4.1863 H   0  0  0  0  0  0  0  0  0  0  0  0
   -3.1618    1.6925   -3.5967 H   0  0  0  0  0  0  0  0  0  0  0  0
   -2.0059    1.4889   -5.3512 N   0  0  0  0  0  0  0  0  0  0  0  0
   -2.7888    1.6344   -5.9887 H   0  0  0  0  0  0  0  0  0  0  0  0
   -1.4593    2.3437   -5.2439 H   0  0  0  0  0  0  0  0  0  0  0  0
    0.3576   -0.9234    1.3276 C   0  0  0  0  0  0  0  0  0  0  0  0
    1.5693   -0.7882    1.4358 O   0  0  0  0  0  0  0  0  0  0  0  0
   -0.4578   -0.5329    2.3750 N   0  0  0  0  0  0  0  0  0  0  0  0
   -1.4465   -0.7337    2.2712 H   0  0  0  0  0  0  0  0  0  0  0  0
    0.0577   -0.2154    3.7006 C   0  0  0  0  0  0  0  0  0  0  0  0
    0.7695    0.6151    3.6468 H   0  0  0  0  0  0  0  0  0  0  0  0
   -0.7607    0.0762    4.3654 H   0  0  0  0  0  0  0  0  0  0  0  0
    0.5632   -1.0857    4.1320 H   0  0  0  0  0  0  0  0  0  0  0  0
  1  2  1  0  0  0  0
  2  3  1  0  0  0  0
  2  4  1  0  0  0  0
  2  5  1  0  0  0  0
  5  6  2  0  0  0  0
  5  7  1  0  0  0  0
  7  8  1  0  0  0  0
  7  9  1  0  0  0  0
  9 10  1  0  0  0  0
  9 11  1  0  0  0  0
  9 26  1  0  0  0  0
 11 12  1  0  0  0  0
 11 13  1  0  0  0  0
 11 14  1  0  0  0  0
 14 15  1  0  0  0  0
 14 16  1  0  0  0  0
 14 17  1  0  0  0  0
 17 18  1  0  0  0  0
 17 19  1  0  0  0  0
 17 20  1  0  0  0  0
 20 21  1  0  0  0  0
 20 22  1  0  0  0  0
 20 23  1  0  0  0  0
 23 24  1  0  0  0  0
 23 25  1  0  0  0  0
 26 27  2  0  0  0  0
 26 28  1  0  0  0  0
 28 29  1  0  0  0  0
 28 30  1  0  0  0  0
 30 31  1  0  0  0  0
 30 32  1  0  0  0  0
 30 33  1  0  0  0  0
M  END
$$$$

  -OEChem-03222214063D

 33 32  0     1  0  0  0  0  0999 V2000
   -2.7291   -5.1063    0.8877 H   0  0  0  0  0  0  0  0  0  0  0  0
   -2.8518   -4.1225    0.4254 C   0  0  0  0  0  0  0  0  0  0  0  0
   -3.6626   -3.5945    0.9326 H   0  0  0  0  0  0  0  0  0  0  0  0
   -3.1154   -4.2597   -0.6261 H   0  0  0  0  0  0  0  0  0  0  0  0
   -1.5640   -3.3284    0.5381 C   0  0  0  0  0  0  0  0  0  0  0  0
   -0.5997   -3.8140    1.1005 O   0  0  0  0  0  0  0  0  0  0  0  0
   -1.5004   -2.0548    0.0075 N   0  0  0  0  0  0  0  0  0  0  0  0
   -2.3172   -1.7351   -0.5016 H   0  0  0  0  0  0  0  0  0  0  0  0
   -0.2736   -1.2353   -0.0534 C   0  0  1  0  0  0  0  0  0  0  0  0
    0.4642   -1.8451   -0.5876 H   0  0  0  0  0  0  0  0  0  0  0  0
   -0.4193    0.0820   -0.8662 C   0  0  0  0  0  0  0  0  0  0  0  0
   -0.4632    0.9163   -0.1573 H   0  0  0  0  0  0  0  0  0  0  0  0
    0.5056    0.2211   -1.4364 H   0  0  0  0  0  0  0  0  0  0  0  0
   -1.6442    0.2425   -1.8027 C   0  0  0  0  0  0  0  0  0  0  0  0
   -2.3145   -0.6170   -1.7751 H   0  0  0  0  0  0  0  0  0  0  0  0
   -2.2228    1.1139   -1.4775 H   0  0  0  0  0  0  0  0  0  0  0  0
   -1.1964    0.4467   -3.2556 C   0  0  0  0  0  0  0  0  0  0  0  0
   -0.5344    1.3165   -3.3199 H   0  0  0  0  0  0  0  0  0  0  0  0
   -0.6350   -0.4319   -3.5913 H   0  0  0  0  0  0  0  0  0  0  0  0
   -2.3972    0.6601   -4.1734 C   0  0  0  0  0  0  0  0  0  0  0  0
   -3.0858   -0.1886   -4.0984 H   0  0  0  0  0  0  0  0  0  0  0  0
   -2.9387    1.5653   -3.8775 H   0  0  0  0  0  0  0  0  0  0  0  0
   -1.9147    0.7871   -5.5509 N   0  0  0  0  0  0  0  0  0  0  0  0
   -2.6841    0.9473   -6.2014 H   0  0  0  0  0  0  0  0  0  0  0  0
   -1.2132    1.5238   -5.6285 H   0  0  0  0  0  0  0  0  0  0  0  0
    0.3566   -0.9316    1.3253 C   0  0  0  0  0  0  0  0  0  0  0  0
    1.5696   -0.7994    1.4223 O   0  0  0  0  0  0  0  0  0  0  0  0
   -0.4483   -0.5358    2.3787 N   0  0  0  0  0  0  0  0  0  0  0  0
   -1.4377   -0.7387    2.2845 H   0  0  0  0  0  0  0  0  0  0  0  0
    0.0796   -0.2187    3.6997 C   0  0  0  0  0  0  0  0  0  0  0  0
    0.7886    0.6137    3.6405 H   0  0  0  0  0  0  0  0  0  0  0  0
   -0.7336    0.0696    4.3725 H   0  0  0  0  0  0  0  0  0  0  0  0
    0.5919   -1.0881    4.1253 H   0  0  0  0  0  0  0  0  0  0  0  0
  1  2  1  0  0  0  0
  2  3  1  0  0  0  0
  2  4  1  0  0  0  0
  2  5  1  0  0  0  0
  5  6  2  0  0  0  0
  5  7  1  0  0  0  0
  7  8  1  0  0  0  0
  7  9  1  0  0  0  0
  9 10  1  0  0  0  0
  9 11  1  0  0  0  0
  9 26  1  0  0  0  0
 11 12  1  0  0  0  0
 11 13  1  0  0  0  0
 11 14  1  0  0  0  0
 14 15  1  0  0  0  0
 14 16  1  0  0  0  0
 14 17  1  0  0  0  0
 17 18  1  0  0  0  0
 17 19  1  0  0  0  0
 17 20  1  0  0  0  0
 20 21  1  0  0  0  0
 20 22  1  0  0  0  0
 20 23  1  0  0  0  0
 23 24  1  0  0  0  0
 23 25  1  0  0  0  0
 26 27  2  0  0  0  0
 26 28  1  0  0  0  0
 28 29  1  0  0  0  0
 28 30  1  0  0  0  0
 30 31  1  0  0  0  0
 30 32  1  0  0  0  0
 30 33  1  0  0  0  0
M  END
$$$$

  -OEChem-03222214063D

 33 32  0     1  0  0  0  0  0999 V2000
   -2.7567   -5.0919    0.8504 H   0  0  0  0  0  0  0  0  0  0  0  0
   -2.8675   -4.1091    0.3827 C   0  0  0  0  0  0  0  0  0  0  0  0
   -3.7068   -3.5896    0.8511 H   0  0  0  0  0  0  0  0  0  0  0  0
   -3.0789   -4.2490   -0.6803 H   0  0  0  0  0  0  0  0  0  0  0  0
   -1.5945   -3.3023    0.5564 C   0  0  0  0  0  0  0  0  0  0  0  0
   -0.6587   -3.7755    1.1752 O   0  0  0  0  0  0  0  0  0  0  0  0
   -1.5119   -2.0331    0.0167 N   0  0  0  0  0  0  0  0  0  0  0  0
   -2.2836   -1.7532   -0.5785 H   0  0  0  0  0  0  0  0  0  0  0  0
   -0.2684   -1.2383   -0.0443 C   0  0  1  0  0  0  0  0  0  0  0  0
    0.4590   -1.8638   -0.5743 H   0  0  0  0  0  0  0  0  0  0  0  0
   -0.3869    0.0800   -0.8600 C   0  0  0  0  0  0  0  0  0  0  0  0
   -0.4362    0.9059   -0.1417 H   0  0  0  0  0  0  0  0  0  0  0  0
    0.5422    0.2247   -1.4218 H   0  0  0  0  0  0  0  0  0  0  0  0
   -1.6079    0.2594   -1.7944 C   0  0  0  0  0  0  0  0  0  0  0  0
   -2.4426   -0.3967   -1.5454 H   0  0  0  0  0  0  0  0  0  0  0  0
   -1.9748    1.2845   -1.6752 H   0  0  0  0  0  0  0  0  0  0  0  0
   -1.2060    0.0735   -3.2620 C   0  0  0  0  0  0  0  0  0  0  0  0
   -0.4111    0.7799   -3.5229 H   0  0  0  0  0  0  0  0  0  0  0  0
   -0.8177   -0.9404   -3.4056 H   0  0  0  0  0  0  0  0  0  0  0  0
   -2.3996    0.2938   -4.1873 C   0  0  0  0  0  0  0  0  0  0  0  0
   -3.2191   -0.3797   -3.9129 H   0  0  0  0  0  0  0  0  0  0  0  0
   -2.7601    1.3245   -4.0964 H   0  0  0  0  0  0  0  0  0  0  0  0
   -1.9766    0.0241   -5.5638 N   0  0  0  0  0  0  0  0  0  0  0  0
   -2.7406    0.1724   -6.2234 H   0  0  0  0  0  0  0  0  0  0  0  0
   -1.1642    0.5877   -5.8159 H   0  0  0  0  0  0  0  0  0  0  0  0
    0.3636   -0.9390    1.3348 C   0  0  0  0  0  0  0  0  0  0  0  0
    1.5785   -0.8267    1.4338 O   0  0  0  0  0  0  0  0  0  0  0  0
   -0.4376   -0.5215    2.3825 N   0  0  0  0  0  0  0  0  0  0  0  0
   -1.4279   -0.7216    2.2885 H   0  0  0  0  0  0  0  0  0  0  0  0
    0.0914   -0.2184    3.7063 C   0  0  0  0  0  0  0  0  0  0  0  0
    0.8235    0.5941    3.6510 H   0  0  0  0  0  0  0  0  0  0  0  0
   -0.7177    0.0926    4.3738 H   0  0  0  0  0  0  0  0  0  0  0  0
    0.5769   -1.1014    4.1352 H   0  0  0  0  0  0  0  0  0  0  0  0
  1  2  1  0  0  0  0
  2  3  1  0  0  0  0
  2  4  1  0  0  0  0
  2  5  1  0  0  0  0
  5  6  2  0  0  0  0
  5  7  1  0  0  0  0
  7  8  1  0  0  0  0
  7  9  1  0  0  0  0
  9 10  1  0  0  0  0
  9 11  1  0  0  0  0
  9 26  1  0  0  0  0
 11 12  1  0  0  0  0
 11 13  1  0  0  0  0
 11 14  1  0  0  0  0
 14 15  1  0  0  0  0
 14 16  1  0  0  0  0
 14 17  1  0  0  0  0
 17 18  1  0  0  0  0
 17 19  1  0  0  0  0
 17 20  1  0  0  0  0
 20 21  1  0  0  0  0
 20 22  1  0  0  0  0
 20 23  1  0  0  0  0
 23 24  1  0  0  0  0
 23 25  1  0  0  0  0
 26 27  2  0  0  0  0
 26 28  1  0  0  0  0
 28 29  1  0  0  0  0
 28 30  1  0  0  0  0
 30 31  1  0  0  0  0
 30 32  1  0  0  0  0
 30 33  1  0  0  0  0
M  END
$$$$

  -OEChem-03222214063D

 33 32  0     1  0  0  0  0  0999 V2000
   -2.7921   -5.0641    0.7670 H   0  0  0  0  0  0  0  0  0  0  0  0
   -2.8770   -4.0807    0.2955 C   0  0  0  0  0  0  0  0  0  0  0  0
   -3.7419   -3.5623    0.7164 H   0  0  0  0  0  0  0  0  0  0  0  0
   -3.0288   -4.2183   -0.7780 H   0  0  0  0  0  0  0  0  0  0  0  0
   -1.6163   -3.2733    0.5418 C   0  0  0  0  0  0  0  0  0  0  0  0
   -0.7167   -3.7460    1.2128 O   0  0  0  0  0  0  0  0  0  0  0  0
   -1.5052   -2.0053    0.0051 N   0  0  0  0  0  0  0  0  0  0  0  0
   -2.2293   -1.7471   -0.6573 H   0  0  0  0  0  0  0  0  0  0  0  0
   -0.2468   -1.2334   -0.0335 C   0  0  1  0  0  0  0  0  0  0  0  0
    0.4778   -1.8652   -0.5594 H   0  0  0  0  0  0  0  0  0  0  0  0
   -0.3519    0.0883   -0.8430 C   0  0  0  0  0  0  0  0  0  0  0  0
   -0.4046    0.9132   -0.1240 H   0  0  0  0  0  0  0  0  0  0  0  0
    0.5748    0.2333   -1.4087 H   0  0  0  0  0  0  0  0  0  0  0  0
   -1.5731    0.2554   -1.7725 C   0  0  0  0  0  0  0  0  0  0  0  0
   -2.4830   -0.1850   -1.3582 H   0  0  0  0  0  0  0  0  0  0  0  0
   -1.7703    1.3283   -1.8717 H   0  0  0  0  0  0  0  0  0  0  0  0
   -1.2727   -0.2910   -3.1724 C   0  0  0  0  0  0  0  0  0  0  0  0
   -0.3902    0.2075   -3.5868 H   0  0  0  0  0  0  0  0  0  0  0  0
   -1.0537   -1.3618   -3.1027 H   0  0  0  0  0  0  0  0  0  0  0  0
   -2.4584   -0.0778   -4.1089 C   0  0  0  0  0  0  0  0  0  0  0  0
   -3.3655   -0.5155   -3.6778 H   0  0  0  0  0  0  0  0  0  0  0  0
   -2.6333    0.9941   -4.2541 H   0  0  0  0  0  0  0  0  0  0  0  0
   -2.1581   -0.7232   -5.3895 N   0  0  0  0  0  0  0  0  0  0  0  0
   -2.9166   -0.5911   -6.0590 H   0  0  0  0  0  0  0  0  0  0  0  0
   -1.2737   -0.3868   -5.7718 H   0  0  0  0  0  0  0  0  0  0  0  0
    0.3748   -0.9430    1.3520 C   0  0  0  0  0  0  0  0  0  0  0  0
    1.5907   -0.8518    1.4616 O   0  0  0  0  0  0  0  0  0  0  0  0
   -0.4285   -0.5092    2.3913 N   0  0  0  0  0  0  0  0  0  0  0  0
   -1.4210   -0.6938    2.2893 H   0  0  0  0  0  0  0  0  0  0  0  0
    0.0947   -0.2110    3.7186 C   0  0  0  0  0  0  0  0  0  0  0  0
    0.8455    0.5845    3.6661 H   0  0  0  0  0  0  0  0  0  0  0  0
   -0.7128    0.1219    4.3775 H   0  0  0  0  0  0  0  0  0  0  0  0
    0.5561   -1.1027    4.1561 H   0  0  0  0  0  0  0  0  0  0  0  0
  1  2  1  0  0  0  0
  2  3  1  0  0  0  0
  2  4  1  0  0  0  0
  2  5  1  0  0  0  0
  5  6  2  0  0  0  0
  5  7  1  0  0  0  0
  7  8  1  0  0  0  0
  7  9  1  0  0  0  0
  9 10  1  0  0  0  0
  9 11  1  0  0  0  0
  9 26  1  0  0  0  0
 11 12  1  0  0  0  0
 11 13  1  0  0  0  0
 11 14  1  0  0  0  0
 14 15  1  0  0  0  0
 14 16  1  0  0  0  0
 14 17  1  0  0  0  0
 17 18  1  0  0  0  0
 17 19  1  0  0  0  0
 17 20  1  0  0  0  0
 20 21  1  0  0  0  0
 20 22  1  0  0  0  0
 20 23  1  0  0  0  0
 23 24  1  0  0  0  0
 23 25  1  0  0  0  0
 26 27  2  0  0  0  0
 26 28  1  0  0  0  0
 28 29  1  0  0  0  0
 28 30  1  0  0  0  0
 30 31  1  0  0  0  0
 30 32  1  0  0  0  0
 30 33  1  0  0  0  0
M  END
$$$$

  -OEChem-03222214063D

 33 32  0     1  0  0  0  0  0999 V2000
   -2.8137   -5.0367    0.7064 H   0  0  0  0  0  0  0  0  0  0  0  0
   -2.8788   -4.0499    0.2392 C   0  0  0  0  0  0  0  0  0  0  0  0
   -3.7502   -3.5273    0.6405 H   0  0  0  0  0  0  0  0  0  0  0  0
   -3.0034   -4.1798   -0.8386 H   0  0  0  0  0  0  0  0  0  0  0  0
   -1.6190   -3.2536    0.5226 C   0  0  0  0  0  0  0  0  0  0  0  0
   -0.7428   -3.7333    1.2192 O   0  0  0  0  0  0  0  0  0  0  0  0
   -1.4810   -1.9878   -0.0122 N   0  0  0  0  0  0  0  0  0  0  0  0
   -2.1819   -1.7252   -0.6988 H   0  0  0  0  0  0  0  0  0  0  0  0
   -0.2124   -1.2319   -0.0262 C   0  0  1  0  0  0  0  0  0  0  0  0
    0.5162   -1.8671   -0.5425 H   0  0  0  0  0  0  0  0  0  0  0  0
   -0.3078    0.0919   -0.8319 C   0  0  0  0  0  0  0  0  0  0  0  0
   -0.3529    0.9236   -0.1202 H   0  0  0  0  0  0  0  0  0  0  0  0
    0.6155    0.2227   -1.4064 H   0  0  0  0  0  0  0  0  0  0  0  0
   -1.5251    0.2458   -1.7647 C   0  0  0  0  0  0  0  0  0  0  0  0
   -2.4574    0.0147   -1.2409 H   0  0  0  0  0  0  0  0  0  0  0  0
   -1.5876    1.2961   -2.0688 H   0  0  0  0  0  0  0  0  0  0  0  0
   -1.3735   -0.6109   -3.0284 C   0  0  0  0  0  0  0  0  0  0  0  0
   -0.4531   -0.3368   -3.5543 H   0  0  0  0  0  0  0  0  0  0  0  0
   -1.2983   -1.6674   -2.7530 H   0  0  0  0  0  0  0  0  0  0  0  0
   -2.5663   -0.4197   -3.9606 C   0  0  0  0  0  0  0  0  0  0  0  0
   -3.5019   -0.6030   -3.4209 H   0  0  0  0  0  0  0  0  0  0  0  0
   -2.5869    0.6087   -4.3384 H   0  0  0  0  0  0  0  0  0  0  0  0
   -2.4425   -1.3700   -5.0687 N   0  0  0  0  0  0  0  0  0  0  0  0
   -3.2082   -1.2652   -5.7350 H   0  0  0  0  0  0  0  0  0  0  0  0
   -1.5401   -1.2737   -5.5358 H   0  0  0  0  0  0  0  0  0  0  0  0
    0.3865   -0.9476    1.3702 C   0  0  0  0  0  0  0  0  0  0  0  0
    1.6011   -0.8722    1.5039 O   0  0  0  0  0  0  0  0  0  0  0  0
   -0.4326   -0.5025    2.3924 N   0  0  0  0  0  0  0  0  0  0  0  0
   -1.4247   -0.6771    2.2706 H   0  0  0  0  0  0  0  0  0  0  0  0
    0.0660   -0.2079    3.7296 C   0  0  0  0  0  0  0  0  0  0  0  0
    0.8244    0.5812    3.6921 H   0  0  0  0  0  0  0  0  0  0  0  0
   -0.7524    0.1323    4.3711 H   0  0  0  0  0  0  0  0  0  0  0  0
    0.5106   -1.1031    4.1769 H   0  0  0  0  0  0  0  0  0  0  0  0
  1  2  1  0  0  0  0
  2  3  1  0  0  0  0
  2  4  1  0  0  0  0
  2  5  1  0  0  0  0
  5  6  2  0  0  0  0
  5  7  1  0  0  0  0
  7  8  1  0  0  0  0
  7  9  1  0  0  0  0
  9 10  1  0  0  0  0
  9 11  1  0  0  0  0
  9 26  1  0  0  0  0
 11 12  1  0  0  0  0
 11 13  1  0  0  0  0
 11 14  1  0  0  0  0
 14 15  1  0  0  0  0
 14 16  1  0  0  0  0
 14 17  1  0  0  0  0
 17 18  1  0  0  0  0
 17 19  1  0  0  0  0
 17 20  1  0  0  0  0
 20 21  1  0  0  0  0
 20 22  1  0  0  0  0
 20 23  1  0  0  0  0
 23 24  1  0  0  0  0
 23 25  1  0  0  0  0
 26 27  2  0  0  0  0
 26 28  1  0  0  0  0
 28 29  1  0  0  0  0
 28 30  1  0  0  0  0
 30 31  1  0  0  0  0
 30 32  1  0  0  0  0
 30 33  1  0  0  0  0
M  END
$$$$

  -OEChem-03222214063D

 33 32  0     1  0  0  0  0  0999 V2000
   -2.7792   -5.0665    0.8223 H   0  0  0  0  0  0  0  0  0  0  0  0
   -2.8364   -4.0988    0.3157 C   0  0  0  0  0  0  0  0  0  0  0  0
   -3.7071   -3.5561    0.6913 H   0  0  0  0  0  0  0  0  0  0  0  0
   -2.9559   -4.2700   -0.7571 H   0  0  0  0  0  0  0  0  0  0  0  0
   -1.5739   -3.2987    0.5739 C   0  0  0  0  0  0  0  0  0  0  0  0
   -0.6884   -3.7684    1.2656 O   0  0  0  0  0  0  0  0  0  0  0  0
   -1.4428   -2.0406    0.0203 N   0  0  0  0  0  0  0  0  0  0  0  0
   -2.1619   -1.7726   -0.6456 H   0  0  0  0  0  0  0  0  0  0  0  0
   -0.1869   -1.2658    0.0061 C   0  0  1  0  0  0  0  0  0  0  0  0
    0.5573   -1.8999   -0.4893 H   0  0  0  0  0  0  0  0  0  0  0  0
   -0.2908    0.0413   -0.8255 C   0  0  0  0  0  0  0  0  0  0  0  0
   -0.3380    0.8901   -0.1343 H   0  0  0  0  0  0  0  0  0  0  0  0
    0.6384    0.1525   -1.3945 H   0  0  0  0  0  0  0  0  0  0  0  0
   -1.4839    0.1954   -1.7912 C   0  0  0  0  0  0  0  0  0  0  0  0
   -2.4158    0.1892   -1.2165 H   0  0  0  0  0  0  0  0  0  0  0  0
   -1.4073    1.1758   -2.2731 H   0  0  0  0  0  0  0  0  0  0  0  0
   -1.5450   -0.8886   -2.8827 C   0  0  0  0  0  0  0  0  0  0  0  0
   -0.6082   -0.8858   -3.4490 H   0  0  0  0  0  0  0  0  0  0  0  0
   -1.6645   -1.8847   -2.4529 H   0  0  0  0  0  0  0  0  0  0  0  0
   -2.7096   -0.6244   -3.8322 C   0  0  0  0  0  0  0  0  0  0  0  0
   -3.6424   -0.5195   -3.2671 H   0  0  0  0  0  0  0  0  0  0  0  0
   -2.5408    0.3062   -4.3858 H   0  0  0  0  0  0  0  0  0  0  0  0
   -2.8169   -1.7577   -4.7545 N   0  0  0  0  0  0  0  0  0  0  0  0
   -3.5791   -1.6228   -5.4195 H   0  0  0  0  0  0  0  0  0  0  0  0
   -1.9351   -1.9182   -5.2427 H   0  0  0  0  0  0  0  0  0  0  0  0
    0.3897   -0.9493    1.4042 C   0  0  0  0  0  0  0  0  0  0  0  0
    1.6006   -0.8454    1.5510 O   0  0  0  0  0  0  0  0  0  0  0  0
   -0.4509   -0.5003    2.4067 N   0  0  0  0  0  0  0  0  0  0  0  0
   -1.4386   -0.6924    2.2749 H   0  0  0  0  0  0  0  0  0  0  0  0
    0.0248   -0.1616    3.7415 C   0  0  0  0  0  0  0  0  0  0  0  0
    0.7542    0.6537    3.6930 H   0  0  0  0  0  0  0  0  0  0  0  0
   -0.8106    0.1608    4.3701 H   0  0  0  0  0  0  0  0  0  0  0  0
    0.4982   -1.0308    4.2100 H   0  0  0  0  0  0  0  0  0  0  0  0
  1  2  1  0  0  0  0
  2  3  1  0  0  0  0
  2  4  1  0  0  0  0
  2  5  1  0  0  0  0
  5  6  2  0  0  0  0
  5  7  1  0  0  0  0
  7  8  1  0  0  0  0
  7  9  1  0  0  0  0
  9 10  1  0  0  0  0
  9 11  1  0  0  0  0
  9 26  1  0  0  0  0
 11 12  1  0  0  0  0
 11 13  1  0  0  0  0
 11 14  1  0  0  0  0
 14 15  1  0  0  0  0
 14 16  1  0  0  0  0
 14 17  1  0  0  0  0
 17 18  1  0  0  0  0
 17 19  1  0  0  0  0
 17 20  1  0  0  0  0
 20 21  1  0  0  0  0
 20 22  1  0  0  0  0
 20 23  1  0  0  0  0
 23 24  1  0  0  0  0
 23 25  1  0  0  0  0
 26 27  2  0  0  0  0
 26 28  1  0  0  0  0
 28 29  1  0  0  0  0
 28 30  1  0  0  0  0
 30 31  1  0  0  0  0
 30 32  1  0  0  0  0
 30 33  1  0  0  0  0
M  END
$$$$

  -OEChem-03222214063D

 33 32  0     1  0  0  0  0  0999 V2000
   -2.5951   -5.1805    1.0940 H   0  0  0  0  0  0  0  0  0  0  0  0
   -2.7233   -4.2311    0.5659 C   0  0  0  0  0  0  0  0  0  0  0  0
   -3.5725   -3.6989    1.0010 H   0  0  0  0  0  0  0  0  0  0  0  0
   -2.9321   -4.4391   -0.4865 H   0  0  0  0  0  0  0  0  0  0  0  0
   -1.4653   -3.3921    0.6885 C   0  0  0  0  0  0  0  0  0  0  0  0
   -0.4988   -3.8296    1.2868 O   0  0  0  0  0  0  0  0  0  0  0  0
   -1.4287   -2.1338    0.1215 N   0  0  0  0  0  0  0  0  0  0  0  0
   -2.2366   -1.8617   -0.4299 H   0  0  0  0  0  0  0  0  0  0  0  0
   -0.2265   -1.2880    0.0367 C   0  0  1  0  0  0  0  0  0  0  0  0
    0.5269   -1.8917   -0.4818 H   0  0  0  0  0  0  0  0  0  0  0  0
   -0.4225   -0.0017   -0.8116 C   0  0  0  0  0  0  0  0  0  0  0  0
   -0.4589    0.8586   -0.1344 H   0  0  0  0  0  0  0  0  0  0  0  0
    0.4834    0.1187   -1.4152 H   0  0  0  0  0  0  0  0  0  0  0  0
   -1.6386    0.1372   -1.7588 C   0  0  0  0  0  0  0  0  0  0  0  0
   -2.5267    0.3672   -1.1611 H   0  0  0  0  0  0  0  0  0  0  0  0
   -1.4501    1.0023   -2.4035 H   0  0  0  0  0  0  0  0  0  0  0  0
   -1.9556   -1.0884   -2.6382 C   0  0  0  0  0  0  0  0  0  0  0  0
   -1.0214   -1.5451   -2.9814 H   0  0  0  0  0  0  0  0  0  0  0  0
   -2.5210   -1.8395   -2.0838 H   0  0  0  0  0  0  0  0  0  0  0  0
   -2.7896   -0.6815   -3.8490 C   0  0  0  0  0  0  0  0  0  0  0  0
   -3.7026   -0.1703   -3.5234 H   0  0  0  0  0  0  0  0  0  0  0  0
   -2.2222    0.0069   -4.4854 H   0  0  0  0  0  0  0  0  0  0  0  0
   -3.1357   -1.8950   -4.5940 N   0  0  0  0  0  0  0  0  0  0  0  0
   -3.7093   -1.6761   -5.4093 H   0  0  0  0  0  0  0  0  0  0  0  0
   -2.2966   -2.4066   -4.8697 H   0  0  0  0  0  0  0  0  0  0  0  0
    0.3971   -0.9251    1.4028 C   0  0  0  0  0  0  0  0  0  0  0  0
    1.6055   -0.7493    1.4894 O   0  0  0  0  0  0  0  0  0  0  0  0
   -0.4174   -0.5174    2.4437 N   0  0  0  0  0  0  0  0  0  0  0  0
   -1.3998   -0.7563    2.3597 H   0  0  0  0  0  0  0  0  0  0  0  0
    0.1034   -0.1371    3.7504 C   0  0  0  0  0  0  0  0  0  0  0  0
    0.7638    0.7319    3.6616 H   0  0  0  0  0  0  0  0  0  0  0  0
   -0.7184    0.1218    4.4244 H   0  0  0  0  0  0  0  0  0  0  0  0
    0.6682   -0.9648    4.1924 H   0  0  0  0  0  0  0  0  0  0  0  0
  1  2  1  0  0  0  0
  2  3  1  0  0  0  0
  2  4  1  0  0  0  0
  2  5  1  0  0  0  0
  5  6  2  0  0  0  0
  5  7  1  0  0  0  0
  7  8  1  0  0  0  0
  7  9  1  0  0  0  0
  9 10  1  0  0  0  0
  9 11  1  0  0  0  0
  9 26  1  0  0  0  0
 11 12  1  0  0  0  0
 11 13  1  0  0  0  0
 11 14  1  0  0  0  0
 14 15  1  0  0  0  0
 14 16  1  0  0  0  0
 14 17  1  0  0  0  0
 17 18  1  0  0  0  0
 17 19  1  0  0  0  0
 17 20  1  0  0  0  0
 20 21  1  0  0  0  0
 20 22  1  0  0  0  0
 20 23  1  0  0  0  0
 23 24  1  0  0  0  0
 23 25  1  0  0  0  0
 26 27  2  0  0  0  0
 26 28  1  0  0  0  0
 28 29  1  0  0  0  0
 28 30  1  0  0  0  0
 30 31  1  0  0  0  0
 30 32  1  0  0  0  0
 30 33  1  0  0  0  0
M  END
$$$$

  -OEChem-03222214063D

 33 32  0     1  0  0  0  0  0999 V2000
   -2.4807   -5.2488    1.1920 H   0  0  0  0  0  0  0  0  0  0  0  0
   -2.6562   -4.2884    0.6990 C   0  0  0  0  0  0  0  0  0  0  0  0
   -3.4817   -3.7797    1.2024 H   0  0  0  0  0  0  0  0  0  0  0  0
   -2.9315   -4.4728   -0.3424 H   0  0  0  0  0  0  0  0  0  0  0  0
   -1.4042   -3.4340    0.7596 C   0  0  0  0  0  0  0  0  0  0  0  0
   -0.4034   -3.8591    1.3081 O   0  0  0  0  0  0  0  0  0  0  0  0
   -1.4099   -2.1786    0.1854 N   0  0  0  0  0  0  0  0  0  0  0  0
   -2.2574   -1.9040   -0.2996 H   0  0  0  0  0  0  0  0  0  0  0  0
   -0.2349   -1.3007    0.0686 C   0  0  1  0  0  0  0  0  0  0  0  0
    0.5226   -1.8971   -0.4530 H   0  0  0  0  0  0  0  0  0  0  0  0
   -0.4519   -0.0257   -0.7976 C   0  0  0  0  0  0  0  0  0  0  0  0
   -0.4788    0.8424   -0.1296 H   0  0  0  0  0  0  0  0  0  0  0  0
    0.4544    0.0842   -1.4026 H   0  0  0  0  0  0  0  0  0  0  0  0
   -1.6601    0.1338   -1.7597 C   0  0  0  0  0  0  0  0  0  0  0  0
   -2.4711    0.6236   -1.2108 H   0  0  0  0  0  0  0  0  0  0  0  0
   -1.3487    0.8246   -2.5507 H   0  0  0  0  0  0  0  0  0  0  0  0
   -2.2466   -1.1350   -2.4058 C   0  0  0  0  0  0  0  0  0  0  0  0
   -1.4411   -1.8410   -2.6332 H   0  0  0  0  0  0  0  0  0  0  0  0
   -2.9586   -1.6158   -1.7311 H   0  0  0  0  0  0  0  0  0  0  0  0
   -2.9917   -0.7970   -3.6932 C   0  0  0  0  0  0  0  0  0  0  0  0
   -3.7812   -0.0651   -3.4888 H   0  0  0  0  0  0  0  0  0  0  0  0
   -2.3042   -0.3618   -4.4273 H   0  0  0  0  0  0  0  0  0  0  0  0
   -3.5786   -2.0333   -4.2177 N   0  0  0  0  0  0  0  0  0  0  0  0
   -4.1273   -1.8521   -5.0590 H   0  0  0  0  0  0  0  0  0  0  0  0
   -2.8572   -2.7312   -4.4015 H   0  0  0  0  0  0  0  0  0  0  0  0
    0.4059   -0.9130    1.4204 C   0  0  0  0  0  0  0  0  0  0  0  0
    1.6113   -0.7084    1.4821 O   0  0  0  0  0  0  0  0  0  0  0  0
   -0.3964   -0.5218    2.4773 N   0  0  0  0  0  0  0  0  0  0  0  0
   -1.3761   -0.7772    2.4134 H   0  0  0  0  0  0  0  0  0  0  0  0
    0.1415   -0.1160    3.7696 C   0  0  0  0  0  0  0  0  0  0  0  0
    0.7895    0.7595    3.6574 H   0  0  0  0  0  0  0  0  0  0  0  0
   -0.6718    0.1434    4.4537 H   0  0  0  0  0  0  0  0  0  0  0  0
    0.7239   -0.9301    4.2138 H   0  0  0  0  0  0  0  0  0  0  0  0
  1  2  1  0  0  0  0
  2  3  1  0  0  0  0
  2  4  1  0  0  0  0
  2  5  1  0  0  0  0
  5  6  2  0  0  0  0
  5  7  1  0  0  0  0
  7  8  1  0  0  0  0
  7  9  1  0  0  0  0
  9 10  1  0  0  0  0
  9 11  1  0  0  0  0
  9 26  1  0  0  0  0
 11 12  1  0  0  0  0
 11 13  1  0  0  0  0
 11 14  1  0  0  0  0
 14 15  1  0  0  0  0
 14 16  1  0  0  0  0
 14 17  1  0  0  0  0
 17 18  1  0  0  0  0
 17 19  1  0  0  0  0
 17 20  1  0  0  0  0
 20 21  1  0  0  0  0
 20 22  1  0  0  0  0
 20 23  1  0  0  0  0
 23 24  1  0  0  0  0
 23 25  1  0  0  0  0
 26 27  2  0  0  0  0
 26 28  1  0  0  0  0
 28 29  1  0  0  0  0
 28 30  1  0  0  0  0
 30 31  1  0  0  0  0
 30 32  1  0  0  0  0
 30 33  1  0  0  0  0
M  END
$$$$

  -OEChem-03222214063D

 33 32  0     1  0  0  0  0  0999 V2000
   -2.6202   -5.2167    0.8523 H   0  0  0  0  0  0  0  0  0  0  0  0
   -2.6725   -4.3179    0.2319 C   0  0  0  0  0  0  0  0  0  0  0  0
   -3.6100   -3.7984    0.4417 H   0  0  0  0  0  0  0  0  0  0  0  0
   -2.6558   -4.6147   -0.8194 H   0  0  0  0  0  0  0  0  0  0  0  0
   -1.4973   -3.4061    0.5289 C   0  0  0  0  0  0  0  0  0  0  0  0
   -0.6602   -3.7597    1.3412 O   0  0  0  0  0  0  0  0  0  0  0  0
   -1.3845   -2.1878   -0.1152 N   0  0  0  0  0  0  0  0  0  0  0  0
   -2.0402   -2.0505   -0.8859 H   0  0  0  0  0  0  0  0  0  0  0  0
   -0.1707   -1.3463   -0.0646 C   0  0  1  0  0  0  0  0  0  0  0  0
    0.6424   -1.9996   -0.4011 H   0  0  0  0  0  0  0  0  0  0  0  0
   -0.1096   -0.0835   -0.9853 C   0  0  0  0  0  0  0  0  0  0  0  0
   -0.2000    0.7998   -0.3431 H   0  0  0  0  0  0  0  0  0  0  0  0
    0.9117   -0.0588   -1.3806 H   0  0  0  0  0  0  0  0  0  0  0  0
   -1.0575    0.1891   -2.1872 C   0  0  0  0  0  0  0  0  0  0  0  0
   -1.7218    1.0178   -1.9189 H   0  0  0  0  0  0  0  0  0  0  0  0
   -0.4274    0.5586   -3.0033 H   0  0  0  0  0  0  0  0  0  0  0  0
   -1.9104   -0.9509   -2.7578 C   0  0  0  0  0  0  0  0  0  0  0  0
   -1.3934   -1.9066   -2.6298 H   0  0  0  0  0  0  0  0  0  0  0  0
   -2.0236   -0.8052   -3.8371 H   0  0  0  0  0  0  0  0  0  0  0  0
   -3.3117   -0.9585   -2.1387 C   0  0  0  0  0  0  0  0  0  0  0  0
   -3.2907   -0.5653   -1.1157 H   0  0  0  0  0  0  0  0  0  0  0  0
   -3.9806   -0.3180   -2.7248 H   0  0  0  0  0  0  0  0  0  0  0  0
   -3.7969   -2.3394   -2.1184 N   0  0  0  0  0  0  0  0  0  0  0  0
   -4.7533   -2.3841   -1.7608 H   0  0  0  0  0  0  0  0  0  0  0  0
   -3.7489   -2.7517   -3.0526 H   0  0  0  0  0  0  0  0  0  0  0  0
    0.2113   -0.9117    1.3698 C   0  0  0  0  0  0  0  0  0  0  0  0
    1.3872   -0.7196    1.6532 O   0  0  0  0  0  0  0  0  0  0  0  0
   -0.7710   -0.4506    2.2276 N   0  0  0  0  0  0  0  0  0  0  0  0
   -1.7202   -0.7234    1.9934 H   0  0  0  0  0  0  0  0  0  0  0  0
   -0.4852   -0.0029    3.5842 C   0  0  0  0  0  0  0  0  0  0  0  0
    0.2205    0.8344    3.5711 H   0  0  0  0  0  0  0  0  0  0  0  0
   -1.4051    0.3303    4.0736 H   0  0  0  0  0  0  0  0  0  0  0  0
   -0.0527   -0.8190    4.1725 H   0  0  0  0  0  0  0  0  0  0  0  0
  1  2  1  0  0  0  0
  2  3  1  0  0  0  0
  2  4  1  0  0  0  0
  2  5  1  0  0  0  0
  5  6  2  0  0  0  0
  5  7  1  0  0  0  0
  7  8  1  0  0  0  0
  7  9  1  0  0  0  0
  9 10  1  0  0  0  0
  9 11  1  0  0  0  0
  9 26  1  0  0  0  0
 11 12  1  0  0  0  0
 11 13  1  0  0  0  0
 11 14  1  0  0  0  0
 14 15  1  0  0  0  0
 14 16  1  0  0  0  0
 14 17  1  0  0  0  0
 17 18  1  0  0  0  0
 17 19  1  0  0  0  0
 17 20  1  0  0  0  0
 20 21  1  0  0  0  0
 20 22  1  0  0  0  0
 20 23  1  0  0  0  0
 23 24  1  0  0  0  0
 23 25  1  0  0  0  0
 26 27  2  0  0  0  0
 26 28  1  0  0  0  0
 28 29  1  0  0  0  0
 28 30  1  0  0  0  0
 30 31  1  0  0  0  0
 30 32  1  0  0  0  0
 30 33  1  0  0  0  0
M  END
$$$$

  -OEChem-03222214063D

 33 32  0     1  0  0  0  0  0999 V2000
   -2.1790   -5.3884    1.3209 H   0  0  0  0  0  0  0  0  0  0  0  0
   -2.4122   -4.4540    0.8024 C   0  0  0  0  0  0  0  0  0  0  0  0
   -3.2453   -3.9666    1.3144 H   0  0  0  0  0  0  0  0  0  0  0  0
   -2.7087   -4.6857   -0.2235 H   0  0  0  0  0  0  0  0  0  0  0  0
   -1.1990   -3.5430    0.7978 C   0  0  0  0  0  0  0  0  0  0  0  0
   -0.1554   -3.9188    1.3005 O   0  0  0  0  0  0  0  0  0  0  0  0
   -1.2893   -2.2916    0.2211 N   0  0  0  0  0  0  0  0  0  0  0  0
   -2.1748   -2.0538   -0.2138 H   0  0  0  0  0  0  0  0  0  0  0  0
   -0.1734   -1.3396    0.0944 C   0  0  1  0  0  0  0  0  0  0  0  0
    0.6169   -1.8988   -0.4195 H   0  0  0  0  0  0  0  0  0  0  0  0
   -0.4194   -0.0685   -0.7798 C   0  0  0  0  0  0  0  0  0  0  0  0
   -0.5387    0.7619   -0.0751 H   0  0  0  0  0  0  0  0  0  0  0  0
    0.5097    0.1333   -1.3240 H   0  0  0  0  0  0  0  0  0  0  0  0
   -1.5988    0.1068   -1.7821 C   0  0  0  0  0  0  0  0  0  0  0  0
   -1.9627    1.1352   -1.6817 H   0  0  0  0  0  0  0  0  0  0  0  0
   -1.1745    0.0194   -2.7880 H   0  0  0  0  0  0  0  0  0  0  0  0
   -2.8087   -0.8346   -1.7329 C   0  0  0  0  0  0  0  0  0  0  0  0
   -2.4947   -1.8530   -1.9818 H   0  0  0  0  0  0  0  0  0  0  0  0
   -3.2479   -0.8203   -0.7304 H   0  0  0  0  0  0  0  0  0  0  0  0
   -3.8802   -0.4041   -2.7288 C   0  0  0  0  0  0  0  0  0  0  0  0
   -4.2486    0.5963   -2.4745 H   0  0  0  0  0  0  0  0  0  0  0  0
   -3.4662   -0.3681   -3.7428 H   0  0  0  0  0  0  0  0  0  0  0  0
   -4.9756   -1.3759   -2.6619 N   0  0  0  0  0  0  0  0  0  0  0  0
   -5.7675   -1.0760   -3.2320 H   0  0  0  0  0  0  0  0  0  0  0  0
   -4.6596   -2.3035   -2.9456 H   0  0  0  0  0  0  0  0  0  0  0  0
    0.4386   -0.9189    1.4506 C   0  0  0  0  0  0  0  0  0  0  0  0
    1.6294   -0.6437    1.5196 O   0  0  0  0  0  0  0  0  0  0  0  0
   -0.3898   -0.5850    2.5072 N   0  0  0  0  0  0  0  0  0  0  0  0
   -1.3575   -0.8802    2.4314 H   0  0  0  0  0  0  0  0  0  0  0  0
    0.1135   -0.1433    3.8014 C   0  0  0  0  0  0  0  0  0  0  0  0
    0.7203    0.7614    3.6884 H   0  0  0  0  0  0  0  0  0  0  0  0
   -0.7190    0.0832    4.4741 H   0  0  0  0  0  0  0  0  0  0  0  0
    0.7286   -0.9250    4.2593 H   0  0  0  0  0  0  0  0  0  0  0  0
  1  2  1  0  0  0  0
  2  3  1  0  0  0  0
  2  4  1  0  0  0  0
  2  5  1  0  0  0  0
  5  6  2  0  0  0  0
  5  7  1  0  0  0  0
  7  8  1  0  0  0  0
  7  9  1  0  0  0  0
  9 10  1  0  0  0  0
  9 11  1  0  0  0  0
  9 26  1  0  0  0  0
 11 12  1  0  0  0  0
 11 13  1  0  0  0  0
 11 14  1  0  0  0  0
 14 15  1  0  0  0  0
 14 16  1  0  0  0  0
 14 17  1  0  0  0  0
 17 18  1  0  0  0  0
 17 19  1  0  0  0  0
 17 20  1  0  0  0  0
 20 21  1  0  0  0  0
 20 22  1  0  0  0  0
 20 23  1  0  0  0  0
 23 24  1  0  0  0  0
 23 25  1  0  0  0  0
 26 27  2  0  0  0  0
 26 28  1  0  0  0  0
 28 29  1  0  0  0  0
 28 30  1  0  0  0  0
 30 31  1  0  0  0  0
 30 32  1  0  0  0  0
 30 33  1  0  0  0  0
M  END
$$$$

  -OEChem-03222214063D

 33 32  0     1  0  0  0  0  0999 V2000
   -2.6398   -5.1635    1.2802 H   0  0  0  0  0  0  0  0  0  0  0  0
   -2.7528   -4.2621    0.6714 C   0  0  0  0  0  0  0  0  0  0  0  0
   -3.5604   -3.6544    1.0857 H   0  0  0  0  0  0  0  0  0  0  0  0
   -3.0142   -4.5553   -0.3483 H   0  0  0  0  0  0  0  0  0  0  0  0
   -1.4598   -3.4691    0.6647 C   0  0  0  0  0  0  0  0  0  0  0  0
   -0.5029   -3.8636    1.3083 O   0  0  0  0  0  0  0  0  0  0  0  0
   -1.3795   -2.3023   -0.0673 N   0  0  0  0  0  0  0  0  0  0  0  0
   -2.2574   -1.9742   -0.4767 H   0  0  0  0  0  0  0  0  0  0  0  0
   -0.2222   -1.3915   -0.0613 C   0  0  1  0  0  0  0  0  0  0  0  0
    0.6357   -2.0253   -0.3126 H   0  0  0  0  0  0  0  0  0  0  0  0
   -0.2029   -0.2395   -1.1155 C   0  0  0  0  0  0  0  0  0  0  0  0
   -0.4295    0.6807   -0.5662 H   0  0  0  0  0  0  0  0  0  0  0  0
    0.8301   -0.1334   -1.4640 H   0  0  0  0  0  0  0  0  0  0  0  0
   -1.1296   -0.1913   -2.3649 C   0  0  0  0  0  0  0  0  0  0  0  0
   -1.2397    0.8587   -2.6561 H   0  0  0  0  0  0  0  0  0  0  0  0
   -0.5896   -0.6888   -3.1772 H   0  0  0  0  0  0  0  0  0  0  0  0
   -2.5272   -0.8271   -2.3280 C   0  0  0  0  0  0  0  0  0  0  0  0
   -3.0278   -0.6312   -3.2816 H   0  0  0  0  0  0  0  0  0  0  0  0
   -2.4345   -1.9140   -2.2599 H   0  0  0  0  0  0  0  0  0  0  0  0
   -3.3982   -0.2583   -1.2025 C   0  0  0  0  0  0  0  0  0  0  0  0
   -2.7847    0.1771   -0.4071 H   0  0  0  0  0  0  0  0  0  0  0  0
   -4.0389    0.5389   -1.5960 H   0  0  0  0  0  0  0  0  0  0  0  0
   -4.2045   -1.3504   -0.6469 N   0  0  0  0  0  0  0  0  0  0  0  0
   -4.8250   -1.0040    0.0878 H   0  0  0  0  0  0  0  0  0  0  0  0
   -4.7505   -1.8026   -1.3839 H   0  0  0  0  0  0  0  0  0  0  0  0
    0.0864   -0.8213    1.3410 C   0  0  0  0  0  0  0  0  0  0  0  0
    1.2370   -0.5384    1.6484 O   0  0  0  0  0  0  0  0  0  0  0  0
   -0.9516   -0.3541    2.1279 N   0  0  0  0  0  0  0  0  0  0  0  0
   -1.8816   -0.6703    1.8729 H   0  0  0  0  0  0  0  0  0  0  0  0
   -0.7441    0.2397    3.4424 C   0  0  0  0  0  0  0  0  0  0  0  0
   -0.1362    1.1470    3.3615 H   0  0  0  0  0  0  0  0  0  0  0  0
   -1.7047    0.5078    3.8920 H   0  0  0  0  0  0  0  0  0  0  0  0
   -0.2348   -0.4675    4.1056 H   0  0  0  0  0  0  0  0  0  0  0  0
  1  2  1  0  0  0  0
  2  3  1  0  0  0  0
  2  4  1  0  0  0  0
  2  5  1  0  0  0  0
  5  6  2  0  0  0  0
  5  7  1  0  0  0  0
  7  8  1  0  0  0  0
  7  9  1  0  0  0  0
  9 10  1  0  0  0  0
  9 11  1  0  0  0  0
  9 26  1  0  0  0  0
 11 12  1  0  0  0  0
 11 13  1  0  0  0  0
 11 14  1  0  0  0  0
 14 15  1  0  0  0  0
 14 16  1  0  0  0  0
 14 17  1  0  0  0  0
 17 18  1  0  0  0  0
 17 19  1  0  0  0  0
 17 20  1  0  0  0  0
 20 21  1  0  0  0  0
 20 22  1  0  0  0  0
 20 23  1  0  0  0  0
 23 24  1  0  0  0  0
 23 25  1  0  0  0  0
 26 27  2  0  0  0  0
 26 28  1  0  0  0  0
 28 29  1  0  0  0  0
 28 30  1  0  0  0  0
 30 31  1  0  0  0  0
 30 32  1  0  0  0  0
 30 33  1  0  0  0  0
M  END
$$$$

  -OEChem-03222214063D

 33 32  0     1  0  0  0  0  0999 V2000
   -2.4737   -5.1087    0.6262 H   0  0  0  0  0  0  0  0  0  0  0  0
   -2.6757   -4.0938    0.2720 C   0  0  0  0  0  0  0  0  0  0  0  0
   -3.4531   -3.6516    0.8990 H   0  0  0  0  0  0  0  0  0  0  0  0
   -3.0324   -4.1471   -0.7595 H   0  0  0  0  0  0  0  0  0  0  0  0
   -1.4123   -3.2568    0.3417 C   0  0  0  0  0  0  0  0  0  0  0  0
   -0.3743   -3.7559    0.7354 O   0  0  0  0  0  0  0  0  0  0  0  0
   -1.4541   -1.9307   -0.0395 N   0  0  0  0  0  0  0  0  0  0  0  0
   -2.3397   -1.5805   -0.3898 H   0  0  0  0  0  0  0  0  0  0  0  0
   -0.2934   -1.0281   -0.0733 C   0  0  1  0  0  0  0  0  0  0  0  0
    0.4466   -1.5335   -0.7044 H   0  0  0  0  0  0  0  0  0  0  0  0
   -0.5349    0.3631   -0.7326 C   0  0  0  0  0  0  0  0  0  0  0  0
   -0.5833    1.0940    0.0823 H   0  0  0  0  0  0  0  0  0  0  0  0
    0.3601    0.6111   -1.3131 H   0  0  0  0  0  0  0  0  0  0  0  0
   -1.7742    0.6683   -1.6154 C   0  0  0  0  0  0  0  0  0  0  0  0
   -1.8096    1.7538   -1.7569 H   0  0  0  0  0  0  0  0  0  0  0  0
   -1.5893    0.2344   -2.6038 H   0  0  0  0  0  0  0  0  0  0  0  0
   -3.1667    0.2134   -1.1321 C   0  0  0  0  0  0  0  0  0  0  0  0
   -3.8506    1.0659   -1.2019 H   0  0  0  0  0  0  0  0  0  0  0  0
   -3.1396   -0.0635   -0.0750 H   0  0  0  0  0  0  0  0  0  0  0  0
   -3.7457   -0.9105   -1.9976 C   0  0  0  0  0  0  0  0  0  0  0  0
   -3.9711   -0.5236   -2.9980 H   0  0  0  0  0  0  0  0  0  0  0  0
   -3.0284   -1.7290   -2.1164 H   0  0  0  0  0  0  0  0  0  0  0  0
   -4.9727   -1.4014   -1.3629 N   0  0  0  0  0  0  0  0  0  0  0  0
   -5.4293   -2.1173   -1.9304 H   0  0  0  0  0  0  0  0  0  0  0  0
   -4.8132   -1.7290   -0.4116 H   0  0  0  0  0  0  0  0  0  0  0  0
    0.3959   -0.8405    1.2975 C   0  0  0  0  0  0  0  0  0  0  0  0
    1.6029   -0.6444    1.3471 O   0  0  0  0  0  0  0  0  0  0  0  0
   -0.3663   -0.6246    2.4316 N   0  0  0  0  0  0  0  0  0  0  0  0
   -1.3540   -0.8439    2.3623 H   0  0  0  0  0  0  0  0  0  0  0  0
    0.2164   -0.3982    3.7479 C   0  0  0  0  0  0  0  0  0  0  0  0
    0.8439    0.4991    3.7398 H   0  0  0  0  0  0  0  0  0  0  0  0
   -0.5729   -0.2600    4.4927 H   0  0  0  0  0  0  0  0  0  0  0  0
    0.8301   -1.2545    4.0468 H   0  0  0  0  0  0  0  0  0  0  0  0
  1  2  1  0  0  0  0
  2  3  1  0  0  0  0
  2  4  1  0  0  0  0
  2  5  1  0  0  0  0
  5  6  2  0  0  0  0
  5  7  1  0  0  0  0
  7  8  1  0  0  0  0
  7  9  1  0  0  0  0
  9 10  1  0  0  0  0
  9 11  1  0  0  0  0
  9 26  1  0  0  0  0
 11 12  1  0  0  0  0
 11 13  1  0  0  0  0
 11 14  1  0  0  0  0
 14 15  1  0  0  0  0
 14 16  1  0  0  0  0
 14 17  1  0  0  0  0
 17 18  1  0  0  0  0
 17 19  1  0  0  0  0
 17 20  1  0  0  0  0
 20 21  1  0  0  0  0
 20 22  1  0  0  0  0
 20 23  1  0  0  0  0
 23 24  1  0  0  0  0
 23 25  1  0  0  0  0
 26 27  2  0  0  0  0
 26 28  1  0  0  0  0
 28 29  1  0  0  0  0
 28 30  1  0  0  0  0
 30 31  1  0  0  0  0
 30 32  1  0  0  0  0
 30 33  1  0  0  0  0
M  END
$$$$

  -OEChem-03222214063D

 33 32  0     1  0  0  0  0  0999 V2000
   -2.2815   -5.3310    1.1355 H   0  0  0  0  0  0  0  0  0  0  0  0
   -2.4790   -4.3849    0.6235 C   0  0  0  0  0  0  0  0  0  0  0  0
   -3.3038   -3.8770    1.1290 H   0  0  0  0  0  0  0  0  0  0  0  0
   -2.7676   -4.5979   -0.4086 H   0  0  0  0  0  0  0  0  0  0  0  0
   -1.2389   -3.5113    0.6446 C   0  0  0  0  0  0  0  0  0  0  0  0
   -0.2168   -3.9199    1.1655 O   0  0  0  0  0  0  0  0  0  0  0  0
   -1.2824   -2.2541    0.0759 N   0  0  0  0  0  0  0  0  0  0  0  0
   -2.1538   -1.9764   -0.3599 H   0  0  0  0  0  0  0  0  0  0  0  0
   -0.1475   -1.3203    0.0105 C   0  0  1  0  0  0  0  0  0  0  0  0
    0.6607   -1.8665   -0.4896 H   0  0  0  0  0  0  0  0  0  0  0  0
   -0.4110   -0.0470   -0.8417 C   0  0  0  0  0  0  0  0  0  0  0  0
   -0.5313    0.8007   -0.1580 H   0  0  0  0  0  0  0  0  0  0  0  0
    0.4963    0.1513   -1.4223 H   0  0  0  0  0  0  0  0  0  0  0  0
   -1.6177    0.0036   -1.8087 C   0  0  0  0  0  0  0  0  0  0  0  0
   -1.5787    0.9757   -2.3120 H   0  0  0  0  0  0  0  0  0  0  0  0
   -1.4911   -0.7632   -2.5803 H   0  0  0  0  0  0  0  0  0  0  0  0
   -3.0072   -0.1666   -1.1622 C   0  0  0  0  0  0  0  0  0  0  0  0
   -3.3073   -1.2170   -1.1822 H   0  0  0  0  0  0  0  0  0  0  0  0
   -2.9774    0.1685   -0.1199 H   0  0  0  0  0  0  0  0  0  0  0  0
   -4.0666    0.6413   -1.9074 C   0  0  0  0  0  0  0  0  0  0  0  0
   -3.8381    1.7108   -1.8393 H   0  0  0  0  0  0  0  0  0  0  0  0
   -4.0821    0.3633   -2.9672 H   0  0  0  0  0  0  0  0  0  0  0  0
   -5.3700    0.3683   -1.2938 N   0  0  0  0  0  0  0  0  0  0  0  0
   -6.0945    0.9722   -1.6843 H   0  0  0  0  0  0  0  0  0  0  0  0
   -5.6269   -0.6136   -1.3931 H   0  0  0  0  0  0  0  0  0  0  0  0
    0.4129   -0.9162    1.3927 C   0  0  0  0  0  0  0  0  0  0  0  0
    1.6052   -0.6687    1.5173 O   0  0  0  0  0  0  0  0  0  0  0  0
   -0.4551   -0.5742    2.4142 N   0  0  0  0  0  0  0  0  0  0  0  0
   -1.4265   -0.8395    2.2901 H   0  0  0  0  0  0  0  0  0  0  0  0
   -0.0027   -0.1470    3.7318 C   0  0  0  0  0  0  0  0  0  0  0  0
    0.5967    0.7662    3.6541 H   0  0  0  0  0  0  0  0  0  0  0  0
   -0.8611    0.0585    4.3783 H   0  0  0  0  0  0  0  0  0  0  0  0
    0.6048   -0.9295    4.1986 H   0  0  0  0  0  0  0  0  0  0  0  0
  1  2  1  0  0  0  0
  2  3  1  0  0  0  0
  2  4  1  0  0  0  0
  2  5  1  0  0  0  0
  5  6  2  0  0  0  0
  5  7  1  0  0  0  0
  7  8  1  0  0  0  0
  7  9  1  0  0  0  0
  9 10  1  0  0  0  0
  9 11  1  0  0  0  0
  9 26  1  0  0  0  0
 11 12  1  0  0  0  0
 11 13  1  0  0  0  0
 11 14  1  0  0  0  0
 14 15  1  0  0  0  0
 14 16  1  0  0  0  0
 14 17  1  0  0  0  0
 17 18  1  0  0  0  0
 17 19  1  0  0  0  0
 17 20  1  0  0  0  0
 20 21  1  0  0  0  0
 20 22  1  0  0  0  0
 20 23  1  0  0  0  0
 23 24  1  0  0  0  0
 23 25  1  0  0  0  0
 26 27  2  0  0  0  0
 26 28  1  0  0  0  0
 28 29  1  0  0  0  0
 28 30  1  0  0  0  0
 30 31  1  0  0  0  0
 30 32  1  0  0  0  0
 30 33  1  0  0  0  0
M  END
$$$$

  -OEChem-03222214063D

 33 32  0     1  0  0  0  0  0999 V2000
   -2.5489   -5.1963    0.8585 H   0  0  0  0  0  0  0  0  0  0  0  0
   -2.6809   -4.2154    0.3932 C   0  0  0  0  0  0  0  0  0  0  0  0
   -3.5104   -3.7021    0.8852 H   0  0  0  0  0  0  0  0  0  0  0  0
   -2.9217   -4.3574   -0.6629 H   0  0  0  0  0  0  0  0  0  0  0  0
   -1.4103   -3.3982    0.5301 C   0  0  0  0  0  0  0  0  0  0  0  0
   -0.4380   -3.8773    1.0846 O   0  0  0  0  0  0  0  0  0  0  0  0
   -1.3693   -2.1142    0.0241 N   0  0  0  0  0  0  0  0  0  0  0  0
   -2.1801   -1.8035   -0.5011 H   0  0  0  0  0  0  0  0  0  0  0  0
   -0.1684   -1.2618   -0.0007 C   0  0  1  0  0  0  0  0  0  0  0  0
    0.5965   -1.8330   -0.5390 H   0  0  0  0  0  0  0  0  0  0  0  0
   -0.3646    0.0672   -0.7797 C   0  0  0  0  0  0  0  0  0  0  0  0
   -0.4080    0.8978   -0.0665 H   0  0  0  0  0  0  0  0  0  0  0  0
    0.5354    0.2242   -1.3836 H   0  0  0  0  0  0  0  0  0  0  0  0
   -1.5923    0.1954   -1.7066 C   0  0  0  0  0  0  0  0  0  0  0  0
   -1.4242    1.0566   -2.3622 H   0  0  0  0  0  0  0  0  0  0  0  0
   -1.6606   -0.6910   -2.3461 H   0  0  0  0  0  0  0  0  0  0  0  0
   -2.9252    0.4132   -0.9637 C   0  0  0  0  0  0  0  0  0  0  0  0
   -3.1895   -0.4409   -0.3391 H   0  0  0  0  0  0  0  0  0  0  0  0
   -2.8312    1.2844   -0.3067 H   0  0  0  0  0  0  0  0  0  0  0  0
   -4.0543    0.6635   -1.9597 C   0  0  0  0  0  0  0  0  0  0  0  0
   -3.8302    1.5501   -2.5633 H   0  0  0  0  0  0  0  0  0  0  0  0
   -4.1595   -0.1909   -2.6376 H   0  0  0  0  0  0  0  0  0  0  0  0
   -5.2975    0.8718   -1.2116 N   0  0  0  0  0  0  0  0  0  0  0  0
   -6.0698    1.1107   -1.8348 H   0  0  0  0  0  0  0  0  0  0  0  0
   -5.5291    0.0609   -0.6390 H   0  0  0  0  0  0  0  0  0  0  0  0
    0.4314   -0.9633    1.3919 C   0  0  0  0  0  0  0  0  0  0  0  0
    1.6400   -0.8106    1.5109 O   0  0  0  0  0  0  0  0  0  0  0  0
   -0.3980   -0.6075    2.4403 N   0  0  0  0  0  0  0  0  0  0  0  0
   -1.3870   -0.7973    2.3179 H   0  0  0  0  0  0  0  0  0  0  0  0
    0.0995   -0.2802    3.7702 C   0  0  0  0  0  0  0  0  0  0  0  0
    0.7575    0.5941    3.7286 H   0  0  0  0  0  0  0  0  0  0  0  0
   -0.7340   -0.0524    4.4412 H   0  0  0  0  0  0  0  0  0  0  0  0
    0.6600   -1.1239    4.1864 H   0  0  0  0  0  0  0  0  0  0  0  0
  1  2  1  0  0  0  0
  2  3  1  0  0  0  0
  2  4  1  0  0  0  0
  2  5  1  0  0  0  0
  5  6  2  0  0  0  0
  5  7  1  0  0  0  0
  7  8  1  0  0  0  0
  7  9  1  0  0  0  0
  9 10  1  0  0  0  0
  9 11  1  0  0  0  0
  9 26  1  0  0  0  0
 11 12  1  0  0  0  0
 11 13  1  0  0  0  0
 11 14  1  0  0  0  0
 14 15  1  0  0  0  0
 14 16  1  0  0  0  0
 14 17  1  0  0  0  0
 17 18  1  0  0  0  0
 17 19  1  0  0  0  0
 17 20  1  0  0  0  0
 20 21  1  0  0  0  0
 20 22  1  0  0  0  0
 20 23  1  0  0  0  0
 23 24  1  0  0  0  0
 23 25  1  0  0  0  0
 26 27  2  0  0  0  0
 26 28  1  0  0  0  0
 28 29  1  0  0  0  0
 28 30  1  0  0  0  0
 30 31  1  0  0  0  0
 30 32  1  0  0  0  0
 30 33  1  0  0  0  0
M  END
$$$$

  -OEChem-03222214063D

 33 32  0     1  0  0  0  0  0999 V2000
   -2.6741   -5.1043    0.7637 H   0  0  0  0  0  0  0  0  0  0  0  0
   -2.7787   -4.1091    0.3219 C   0  0  0  0  0  0  0  0  0  0  0  0
   -3.5835   -3.5790    0.8365 H   0  0  0  0  0  0  0  0  0  0  0  0
   -3.0380   -4.2194   -0.7337 H   0  0  0  0  0  0  0  0  0  0  0  0
   -1.4784   -3.3395    0.4581 C   0  0  0  0  0  0  0  0  0  0  0  0
   -0.5207   -3.8603    1.0002 O   0  0  0  0  0  0  0  0  0  0  0  0
   -1.3903   -2.0526   -0.0349 N   0  0  0  0  0  0  0  0  0  0  0  0
   -2.2083   -1.6806   -0.5074 H   0  0  0  0  0  0  0  0  0  0  0  0
   -0.1637   -1.2317   -0.0218 C   0  0  1  0  0  0  0  0  0  0  0  0
    0.6001   -1.8145   -0.5492 H   0  0  0  0  0  0  0  0  0  0  0  0
   -0.3249    0.1046   -0.7932 C   0  0  0  0  0  0  0  0  0  0  0  0
   -0.3551    0.9405   -0.0855 H   0  0  0  0  0  0  0  0  0  0  0  0
    0.5804    0.2426   -1.3937 H   0  0  0  0  0  0  0  0  0  0  0  0
   -1.5457    0.2117   -1.7299 C   0  0  0  0  0  0  0  0  0  0  0  0
   -1.2895    0.9060   -2.5374 H   0  0  0  0  0  0  0  0  0  0  0  0
   -1.7665   -0.7510   -2.2017 H   0  0  0  0  0  0  0  0  0  0  0  0
   -2.7760    0.7733   -1.0024 C   0  0  0  0  0  0  0  0  0  0  0  0
   -3.0447    0.1265   -0.1622 H   0  0  0  0  0  0  0  0  0  0  0  0
   -2.5427    1.7646   -0.5995 H   0  0  0  0  0  0  0  0  0  0  0  0
   -3.9625    0.8897   -1.9553 C   0  0  0  0  0  0  0  0  0  0  0  0
   -3.7136    1.5657   -2.7812 H   0  0  0  0  0  0  0  0  0  0  0  0
   -4.2052   -0.0906   -2.3798 H   0  0  0  0  0  0  0  0  0  0  0  0
   -5.1097    1.4144   -1.2093 N   0  0  0  0  0  0  0  0  0  0  0  0
   -5.9146    1.5609   -1.8193 H   0  0  0  0  0  0  0  0  0  0  0  0
   -5.3522    0.8113   -0.4239 H   0  0  0  0  0  0  0  0  0  0  0  0
    0.4102   -0.9605    1.3865 C   0  0  0  0  0  0  0  0  0  0  0  0
    1.6193   -0.8471    1.5381 O   0  0  0  0  0  0  0  0  0  0  0  0
   -0.4351   -0.5901    2.4170 N   0  0  0  0  0  0  0  0  0  0  0  0
   -1.4265   -0.7434    2.2671 H   0  0  0  0  0  0  0  0  0  0  0  0
    0.0378   -0.2867    3.7614 C   0  0  0  0  0  0  0  0  0  0  0  0
    0.7370    0.5559    3.7405 H   0  0  0  0  0  0  0  0  0  0  0  0
   -0.8038   -0.0198    4.4075 H   0  0  0  0  0  0  0  0  0  0  0  0
    0.5455   -1.1560    4.1924 H   0  0  0  0  0  0  0  0  0  0  0  0
  1  2  1  0  0  0  0
  2  3  1  0  0  0  0
  2  4  1  0  0  0  0
  2  5  1  0  0  0  0
  5  6  2  0  0  0  0
  5  7  1  0  0  0  0
  7  8  1  0  0  0  0
  7  9  1  0  0  0  0
  9 10  1  0  0  0  0
  9 11  1  0  0  0  0
  9 26  1  0  0  0  0
 11 12  1  0  0  0  0
 11 13  1  0  0  0  0
 11 14  1  0  0  0  0
 14 15  1  0  0  0  0
 14 16  1  0  0  0  0
 14 17  1  0  0  0  0
 17 18  1  0  0  0  0
 17 19  1  0  0  0  0
 17 20  1  0  0  0  0
 20 21  1  0  0  0  0
 20 22  1  0  0  0  0
 20 23  1  0  0  0  0
 23 24  1  0  0  0  0
 23 25  1  0  0  0  0
 26 27  2  0  0  0  0
 26 28  1  0  0  0  0
 28 29  1  0  0  0  0
 28 30  1  0  0  0  0
 30 31  1  0  0  0  0
 30 32  1  0  0  0  0
 30 33  1  0  0  0  0
M  END
$$$$

  -OEChem-03222214063D

 33 32  0     1  0  0  0  0  0999 V2000
   -2.6427   -5.1370    0.7646 H   0  0  0  0  0  0  0  0  0  0  0  0
   -2.7622   -4.1397    0.3312 C   0  0  0  0  0  0  0  0  0  0  0  0
   -3.5666   -3.6217    0.8587 H   0  0  0  0  0  0  0  0  0  0  0  0
   -3.0329   -4.2455   -0.7222 H   0  0  0  0  0  0  0  0  0  0  0  0
   -1.4684   -3.3577    0.4575 C   0  0  0  0  0  0  0  0  0  0  0  0
   -0.5001   -3.8692    0.9892 O   0  0  0  0  0  0  0  0  0  0  0  0
   -1.3987   -2.0686   -0.0327 N   0  0  0  0  0  0  0  0  0  0  0  0
   -2.2293   -1.7004   -0.4851 H   0  0  0  0  0  0  0  0  0  0  0  0
   -0.1824   -1.2322   -0.0224 C   0  0  1  0  0  0  0  0  0  0  0  0
    0.5858   -1.8082   -0.5510 H   0  0  0  0  0  0  0  0  0  0  0  0
   -0.3507    0.1027   -0.7957 C   0  0  0  0  0  0  0  0  0  0  0  0
   -0.3823    0.9340   -0.0825 H   0  0  0  0  0  0  0  0  0  0  0  0
    0.5585    0.2472   -1.3891 H   0  0  0  0  0  0  0  0  0  0  0  0
   -1.5672    0.2164   -1.7441 C   0  0  0  0  0  0  0  0  0  0  0  0
   -1.2242    0.6988   -2.6658 H   0  0  0  0  0  0  0  0  0  0  0  0
   -1.9594   -0.7594   -2.0418 H   0  0  0  0  0  0  0  0  0  0  0  0
   -2.6672    1.0993   -1.1415 C   0  0  0  0  0  0  0  0  0  0  0  0
   -3.0096    0.6646   -0.1969 H   0  0  0  0  0  0  0  0  0  0  0  0
   -2.2656    2.0959   -0.9289 H   0  0  0  0  0  0  0  0  0  0  0  0
   -3.8478    1.2310   -2.0993 C   0  0  0  0  0  0  0  0  0  0  0  0
   -3.5156    1.6740   -3.0449 H   0  0  0  0  0  0  0  0  0  0  0  0
   -4.2711    0.2441   -2.3161 H   0  0  0  0  0  0  0  0  0  0  0  0
   -4.8600    2.0885   -1.4762 N   0  0  0  0  0  0  0  0  0  0  0  0
   -5.6585    2.2323   -2.0953 H   0  0  0  0  0  0  0  0  0  0  0  0
   -5.1588    1.7177   -0.5745 H   0  0  0  0  0  0  0  0  0  0  0  0
    0.3937   -0.9570    1.3844 C   0  0  0  0  0  0  0  0  0  0  0  0
    1.6014   -0.8226    1.5296 O   0  0  0  0  0  0  0  0  0  0  0  0
   -0.4519   -0.5996    2.4193 N   0  0  0  0  0  0  0  0  0  0  0  0
   -1.4400   -0.7795    2.2784 H   0  0  0  0  0  0  0  0  0  0  0  0
    0.0247   -0.2861    3.7604 C   0  0  0  0  0  0  0  0  0  0  0  0
    0.7347    0.5472    3.7305 H   0  0  0  0  0  0  0  0  0  0  0  0
   -0.8134   -0.0004    4.4029 H   0  0  0  0  0  0  0  0  0  0  0  0
    0.5211   -1.1565    4.2018 H   0  0  0  0  0  0  0  0  0  0  0  0
  1  2  1  0  0  0  0
  2  3  1  0  0  0  0
  2  4  1  0  0  0  0
  2  5  1  0  0  0  0
  5  6  2  0  0  0  0
  5  7  1  0  0  0  0
  7  8  1  0  0  0  0
  7  9  1  0  0  0  0
  9 10  1  0  0  0  0
  9 11  1  0  0  0  0
  9 26  1  0  0  0  0
 11 12  1  0  0  0  0
 11 13  1  0  0  0  0
 11 14  1  0  0  0  0
 14 15  1  0  0  0  0
 14 16  1  0  0  0  0
 14 17  1  0  0  0  0
 17 18  1  0  0  0  0
 17 19  1  0  0  0  0
 17 20  1  0  0  0  0
 20 21  1  0  0  0  0
 20 22  1  0  0  0  0
 20 23  1  0  0  0  0
 23 24  1  0  0  0  0
 23 25  1  0  0  0  0
 26 27  2  0  0  0  0
 26 28  1  0  0  0  0
 28 29  1  0  0  0  0
 28 30  1  0  0  0  0
 30 31  1  0  0  0  0
 30 32  1  0  0  0  0
 30 33  1  0  0  0  0
M  END
$$$$

  -OEChem-03222214063D

 33 32  0     1  0  0  0  0  0999 V2000
   -2.5822   -5.1848    0.8146 H   0  0  0  0  0  0  0  0  0  0  0  0
   -2.7279   -4.1932    0.3762 C   0  0  0  0  0  0  0  0  0  0  0  0
   -3.5273   -3.6832    0.9189 H   0  0  0  0  0  0  0  0  0  0  0  0
   -3.0224   -4.3123   -0.6693 H   0  0  0  0  0  0  0  0  0  0  0  0
   -1.4436   -3.3899    0.4654 C   0  0  0  0  0  0  0  0  0  0  0  0
   -0.4527   -3.8857    0.9698 O   0  0  0  0  0  0  0  0  0  0  0  0
   -1.4085   -2.0989   -0.0244 N   0  0  0  0  0  0  0  0  0  0  0  0
   -2.2609   -1.7408   -0.4423 H   0  0  0  0  0  0  0  0  0  0  0  0
   -0.2100   -1.2372   -0.0289 C   0  0  1  0  0  0  0  0  0  0  0  0
    0.5626   -1.8028   -0.5626 H   0  0  0  0  0  0  0  0  0  0  0  0
   -0.3933    0.0968   -0.8042 C   0  0  0  0  0  0  0  0  0  0  0  0
   -0.4447    0.9123   -0.0742 H   0  0  0  0  0  0  0  0  0  0  0  0
    0.5198    0.2704   -1.3841 H   0  0  0  0  0  0  0  0  0  0  0  0
   -1.6072    0.2266   -1.7591 C   0  0  0  0  0  0  0  0  0  0  0  0
   -1.2223    0.4375   -2.7626 H   0  0  0  0  0  0  0  0  0  0  0  0
   -2.1867   -0.6939   -1.8446 H   0  0  0  0  0  0  0  0  0  0  0  0
   -2.5260    1.3819   -1.3407 C   0  0  0  0  0  0  0  0  0  0  0  0
   -2.9255    1.1895   -0.3397 H   0  0  0  0  0  0  0  0  0  0  0  0
   -1.9518    2.3139   -1.3030 H   0  0  0  0  0  0  0  0  0  0  0  0
   -3.6790    1.5468   -2.3266 C   0  0  0  0  0  0  0  0  0  0  0  0
   -3.2868    1.7420   -3.3310 H   0  0  0  0  0  0  0  0  0  0  0  0
   -4.2759    0.6290   -2.3663 H   0  0  0  0  0  0  0  0  0  0  0  0
   -4.5101    2.6717   -1.8888 N   0  0  0  0  0  0  0  0  0  0  0  0
   -5.2760    2.8447   -2.5404 H   0  0  0  0  0  0  0  0  0  0  0  0
   -4.8608    2.5281   -0.9421 H   0  0  0  0  0  0  0  0  0  0  0  0
    0.3754   -0.9538    1.3730 C   0  0  0  0  0  0  0  0  0  0  0  0
    1.5813   -0.7945    1.5070 O   0  0  0  0  0  0  0  0  0  0  0  0
   -0.4673   -0.6168    2.4172 N   0  0  0  0  0  0  0  0  0  0  0  0
   -1.4534   -0.8121    2.2839 H   0  0  0  0  0  0  0  0  0  0  0  0
    0.0143   -0.2935    3.7541 C   0  0  0  0  0  0  0  0  0  0  0  0
    0.6930    0.5654    3.7208 H   0  0  0  0  0  0  0  0  0  0  0  0
   -0.8262   -0.0423    4.4080 H   0  0  0  0  0  0  0  0  0  0  0  0
    0.5479   -1.1476    4.1844 H   0  0  0  0  0  0  0  0  0  0  0  0
  1  2  1  0  0  0  0
  2  3  1  0  0  0  0
  2  4  1  0  0  0  0
  2  5  1  0  0  0  0
  5  6  2  0  0  0  0
  5  7  1  0  0  0  0
  7  8  1  0  0  0  0
  7  9  1  0  0  0  0
  9 10  1  0  0  0  0
  9 11  1  0  0  0  0
  9 26  1  0  0  0  0
 11 12  1  0  0  0  0
 11 13  1  0  0  0  0
 11 14  1  0  0  0  0
 14 15  1  0  0  0  0
 14 16  1  0  0  0  0
 14 17  1  0  0  0  0
 17 18  1  0  0  0  0
 17 19  1  0  0  0  0
 17 20  1  0  0  0  0
 20 21  1  0  0  0  0
 20 22  1  0  0  0  0
 20 23  1  0  0  0  0
 23 24  1  0  0  0  0
 23 25  1  0  0  0  0
 26 27  2  0  0  0  0
 26 28  1  0  0  0  0
 28 29  1  0  0  0  0
 28 30  1  0  0  0  0
 30 31  1  0  0  0  0
 30 32  1  0  0  0  0
 30 33  1  0  0  0  0
M  END
$$$$

  -OEChem-03222214063D

 33 32  0     1  0  0  0  0  0999 V2000
   -2.5506   -5.2086    0.8322 H   0  0  0  0  0  0  0  0  0  0  0  0
   -2.7126   -4.2206    0.3915 C   0  0  0  0  0  0  0  0  0  0  0  0
   -3.5189   -3.7221    0.9346 H   0  0  0  0  0  0  0  0  0  0  0  0
   -3.0069   -4.3465   -0.6533 H   0  0  0  0  0  0  0  0  0  0  0  0
   -1.4413   -3.3972    0.4765 C   0  0  0  0  0  0  0  0  0  0  0  0
   -0.4441   -3.8748    0.9859 O   0  0  0  0  0  0  0  0  0  0  0  0
   -1.4270   -2.1075   -0.0182 N   0  0  0  0  0  0  0  0  0  0  0  0
   -2.2790   -1.7746   -0.4559 H   0  0  0  0  0  0  0  0  0  0  0  0
   -0.2373   -1.2334   -0.0352 C   0  0  1  0  0  0  0  0  0  0  0  0
    0.5357   -1.7970   -0.5699 H   0  0  0  0  0  0  0  0  0  0  0  0
   -0.4235    0.0972   -0.8184 C   0  0  0  0  0  0  0  0  0  0  0  0
   -0.5004    0.9000   -0.0765 H   0  0  0  0  0  0  0  0  0  0  0  0
    0.4927    0.2955   -1.3846 H   0  0  0  0  0  0  0  0  0  0  0  0
   -1.6351    0.2299   -1.7758 C   0  0  0  0  0  0  0  0  0  0  0  0
   -1.2777    0.1279   -2.8061 H   0  0  0  0  0  0  0  0  0  0  0  0
   -2.3832   -0.5478   -1.6208 H   0  0  0  0  0  0  0  0  0  0  0  0
   -2.3305    1.5863   -1.5986 C   0  0  0  0  0  0  0  0  0  0  0  0
   -2.7157    1.6724   -0.5773 H   0  0  0  0  0  0  0  0  0  0  0  0
   -1.6060    2.3924   -1.7565 H   0  0  0  0  0  0  0  0  0  0  0  0
   -3.4805    1.7476   -2.5894 C   0  0  0  0  0  0  0  0  0  0  0  0
   -3.1052    1.6691   -3.6159 H   0  0  0  0  0  0  0  0  0  0  0  0
   -4.2237    0.9572   -2.4368 H   0  0  0  0  0  0  0  0  0  0  0  0
   -4.0928    3.0627   -2.3816 N   0  0  0  0  0  0  0  0  0  0  0  0
   -4.8609    3.2234   -3.0335 H   0  0  0  0  0  0  0  0  0  0  0  0
   -4.4019    3.1793   -1.4166 H   0  0  0  0  0  0  0  0  0  0  0  0
    0.3550   -0.9416    1.3628 C   0  0  0  0  0  0  0  0  0  0  0  0
    1.5604   -0.7716    1.4884 O   0  0  0  0  0  0  0  0  0  0  0  0
   -0.4834   -0.6113    2.4128 N   0  0  0  0  0  0  0  0  0  0  0  0
   -1.4673   -0.8237    2.2888 H   0  0  0  0  0  0  0  0  0  0  0  0
    0.0053   -0.2865    3.7470 C   0  0  0  0  0  0  0  0  0  0  0  0
    0.6909    0.5665    3.7079 H   0  0  0  0  0  0  0  0  0  0  0  0
   -0.8307   -0.0244    4.4022 H   0  0  0  0  0  0  0  0  0  0  0  0
    0.5328   -1.1430    4.1798 H   0  0  0  0  0  0  0  0  0  0  0  0
  1  2  1  0  0  0  0
  2  3  1  0  0  0  0
  2  4  1  0  0  0  0
  2  5  1  0  0  0  0
  5  6  2  0  0  0  0
  5  7  1  0  0  0  0
  7  8  1  0  0  0  0
  7  9  1  0  0  0  0
  9 10  1  0  0  0  0
  9 11  1  0  0  0  0
  9 26  1  0  0  0  0
 11 12  1  0  0  0  0
 11 13  1  0  0  0  0
 11 14  1  0  0  0  0
 14 15  1  0  0  0  0
 14 16  1  0  0  0  0
 14 17  1  0  0  0  0
 17 18  1  0  0  0  0
 17 19  1  0  0  0  0
 17 20  1  0  0  0  0
 20 21  1  0  0  0  0
 20 22  1  0  0  0  0
 20 23  1  0  0  0  0
 23 24  1  0  0  0  0
 23 25  1  0  0  0  0
 26 27  2  0  0  0  0
 26 28  1  0  0  0  0
 28 29  1  0  0  0  0
 28 30  1  0  0  0  0
 30 31  1  0  0  0  0
 30 32  1  0  0  0  0
 30 33  1  0  0  0  0
M  END
$$$$

  -OEChem-03222214063D

 33 32  0     1  0  0  0  0  0999 V2000
   -2.5796   -5.1956    0.8013 H   0  0  0  0  0  0  0  0  0  0  0  0
   -2.7311   -4.2096    0.3525 C   0  0  0  0  0  0  0  0  0  0  0  0
   -3.5658   -3.7184    0.8582 H   0  0  0  0  0  0  0  0  0  0  0  0
   -2.9768   -4.3392   -0.7042 H   0  0  0  0  0  0  0  0  0  0  0  0
   -1.4734   -3.3734    0.4940 C   0  0  0  0  0  0  0  0  0  0  0  0
   -0.4984   -3.8374    1.0562 O   0  0  0  0  0  0  0  0  0  0  0  0
   -1.4479   -2.0881   -0.0116 N   0  0  0  0  0  0  0  0  0  0  0  0
   -2.2628   -1.7931   -0.5380 H   0  0  0  0  0  0  0  0  0  0  0  0
   -0.2481   -1.2276   -0.0380 C   0  0  1  0  0  0  0  0  0  0  0  0
    0.5178   -1.7998   -0.5739 H   0  0  0  0  0  0  0  0  0  0  0  0
   -0.4316    0.1005   -0.8248 C   0  0  0  0  0  0  0  0  0  0  0  0
   -0.5119    0.9052   -0.0851 H   0  0  0  0  0  0  0  0  0  0  0  0
    0.4789    0.2997   -1.3998 H   0  0  0  0  0  0  0  0  0  0  0  0
   -1.6541    0.2196   -1.7639 C   0  0  0  0  0  0  0  0  0  0  0  0
   -1.3910   -0.1755   -2.7508 H   0  0  0  0  0  0  0  0  0  0  0  0
   -2.5075   -0.3495   -1.3911 H   0  0  0  0  0  0  0  0  0  0  0  0
   -2.1147    1.6794   -1.8693 C   0  0  0  0  0  0  0  0  0  0  0  0
   -2.4258    2.0429   -0.8844 H   0  0  0  0  0  0  0  0  0  0  0  0
   -1.2803    2.3015   -2.2108 H   0  0  0  0  0  0  0  0  0  0  0  0
   -3.2752    1.8174   -2.8508 C   0  0  0  0  0  0  0  0  0  0  0  0
   -2.9737    1.4564   -3.8404 H   0  0  0  0  0  0  0  0  0  0  0  0
   -4.1274    1.2172   -2.5137 H   0  0  0  0  0  0  0  0  0  0  0  0
   -3.6532    3.2310   -2.9304 N   0  0  0  0  0  0  0  0  0  0  0  0
   -4.4182    3.3756   -3.5897 H   0  0  0  0  0  0  0  0  0  0  0  0
   -3.8885    3.6035   -2.0105 H   0  0  0  0  0  0  0  0  0  0  0  0
    0.3522   -0.9306    1.3555 C   0  0  0  0  0  0  0  0  0  0  0  0
    1.5592   -0.7666    1.4738 O   0  0  0  0  0  0  0  0  0  0  0  0
   -0.4799   -0.5824    2.4044 N   0  0  0  0  0  0  0  0  0  0  0  0
   -1.4632   -0.8017    2.2879 H   0  0  0  0  0  0  0  0  0  0  0  0
    0.0153   -0.2563    3.7356 C   0  0  0  0  0  0  0  0  0  0  0  0
    0.7088    0.5901    3.6906 H   0  0  0  0  0  0  0  0  0  0  0  0
   -0.8169    0.0161    4.3916 H   0  0  0  0  0  0  0  0  0  0  0  0
    0.5358   -1.1157    4.1714 H   0  0  0  0  0  0  0  0  0  0  0  0
  1  2  1  0  0  0  0
  2  3  1  0  0  0  0
  2  4  1  0  0  0  0
  2  5  1  0  0  0  0
  5  6  2  0  0  0  0
  5  7  1  0  0  0  0
  7  8  1  0  0  0  0
  7  9  1  0  0  0  0
  9 10  1  0  0  0  0
  9 11  1  0  0  0  0
  9 26  1  0  0  0  0
 11 12  1  0  0  0  0
 11 13  1  0  0  0  0
 11 14  1  0  0  0  0
 14 15  1  0  0  0  0
 14 16  1  0  0  0  0
 14 17  1  0  0  0  0
 17 18  1  0  0  0  0
 17 19  1  0  0  0  0
 17 20  1  0  0  0  0
 20 21  1  0  0  0  0
 20 22  1  0  0  0  0
 20 23  1  0  0  0  0
 23 24  1  0  0  0  0
 23 25  1  0  0  0  0
 26 27  2  0  0  0  0
 26 28  1  0  0  0  0
 28 29  1  0  0  0  0
 28 30  1  0  0  0  0
 30 31  1  0  0  0  0
 30 32  1  0  0  0  0
 30 33  1  0  0  0  0
M  END
$$$$

  -OEChem-03222214063D

 33 32  0     1  0  0  0  0  0999 V2000
   -2.6392   -5.1471    0.7703 H   0  0  0  0  0  0  0  0  0  0  0  0
   -2.7705   -4.1611    0.3150 C   0  0  0  0  0  0  0  0  0  0  0  0
   -3.6141   -3.6613    0.7969 H   0  0  0  0  0  0  0  0  0  0  0  0
   -2.9901   -4.2929   -0.7471 H   0  0  0  0  0  0  0  0  0  0  0  0
   -1.5089   -3.3356    0.4875 C   0  0  0  0  0  0  0  0  0  0  0  0
   -0.5547   -3.8066    1.0788 O   0  0  0  0  0  0  0  0  0  0  0  0
   -1.4542   -2.0538   -0.0252 N   0  0  0  0  0  0  0  0  0  0  0  0
   -2.2448   -1.7593   -0.5885 H   0  0  0  0  0  0  0  0  0  0  0  0
   -0.2371   -1.2164   -0.0455 C   0  0  1  0  0  0  0  0  0  0  0  0
    0.5239   -1.7983   -0.5782 H   0  0  0  0  0  0  0  0  0  0  0  0
   -0.4127    0.1111   -0.8309 C   0  0  0  0  0  0  0  0  0  0  0  0
   -0.4855    0.9267   -0.1028 H   0  0  0  0  0  0  0  0  0  0  0  0
    0.4929    0.2944   -1.4194 H   0  0  0  0  0  0  0  0  0  0  0  0
   -1.6444    0.2072   -1.7528 C   0  0  0  0  0  0  0  0  0  0  0  0
   -1.4931   -0.4224   -2.6360 H   0  0  0  0  0  0  0  0  0  0  0  0
   -2.5439   -0.1356   -1.2339 H   0  0  0  0  0  0  0  0  0  0  0  0
   -1.8874    1.6640   -2.1642 C   0  0  0  0  0  0  0  0  0  0  0  0
   -2.0705    2.2751   -1.2745 H   0  0  0  0  0  0  0  0  0  0  0  0
   -0.9948    2.0549   -2.6645 H   0  0  0  0  0  0  0  0  0  0  0  0
   -3.0808    1.7739   -3.1087 C   0  0  0  0  0  0  0  0  0  0  0  0
   -2.9113    1.1611   -4.0011 H   0  0  0  0  0  0  0  0  0  0  0  0
   -3.9878    1.4108   -2.6129 H   0  0  0  0  0  0  0  0  0  0  0  0
   -3.2424    3.1785   -3.4934 N   0  0  0  0  0  0  0  0  0  0  0  0
   -4.0251    3.3011   -4.1359 H   0  0  0  0  0  0  0  0  0  0  0  0
   -3.3453    3.7768   -2.6737 H   0  0  0  0  0  0  0  0  0  0  0  0
    0.3588   -0.9213    1.3500 C   0  0  0  0  0  0  0  0  0  0  0  0
    1.5676   -0.7760    1.4751 O   0  0  0  0  0  0  0  0  0  0  0  0
   -0.4755   -0.5501    2.3892 N   0  0  0  0  0  0  0  0  0  0  0  0
   -1.4592   -0.7670    2.2699 H   0  0  0  0  0  0  0  0  0  0  0  0
    0.0168   -0.2360    3.7242 C   0  0  0  0  0  0  0  0  0  0  0  0
    0.7380    0.5872    3.6844 H   0  0  0  0  0  0  0  0  0  0  0  0
   -0.8120    0.0651    4.3717 H   0  0  0  0  0  0  0  0  0  0  0  0
    0.5048   -1.1111    4.1662 H   0  0  0  0  0  0  0  0  0  0  0  0
  1  2  1  0  0  0  0
  2  3  1  0  0  0  0
  2  4  1  0  0  0  0
  2  5  1  0  0  0  0
  5  6  2  0  0  0  0
  5  7  1  0  0  0  0
  7  8  1  0  0  0  0
  7  9  1  0  0  0  0
  9 10  1  0  0  0  0
  9 11  1  0  0  0  0
  9 26  1  0  0  0  0
 11 12  1  0  0  0  0
 11 13  1  0  0  0  0
 11 14  1  0  0  0  0
 14 15  1  0  0  0  0
 14 16  1  0  0  0  0
 14 17  1  0  0  0  0
 17 18  1  0  0  0  0
 17 19  1  0  0  0  0
 17 20  1  0  0  0  0
 20 21  1  0  0  0  0
 20 22  1  0  0  0  0
 20 23  1  0  0  0  0
 23 24  1  0  0  0  0
 23 25  1  0  0  0  0
 26 27  2  0  0  0  0
 26 28  1  0  0  0  0
 28 29  1  0  0  0  0
 28 30  1  0  0  0  0
 30 31  1  0  0  0  0
 30 32  1  0  0  0  0
 30 33  1  0  0  0  0
M  END
$$$$

  -OEChem-03222214063D

 33 32  0     1  0  0  0  0  0999 V2000
   -2.6616   -5.1091    0.7428 H   0  0  0  0  0  0  0  0  0  0  0  0
   -2.7802   -4.1195    0.2922 C   0  0  0  0  0  0  0  0  0  0  0  0
   -3.6160   -3.6105    0.7779 H   0  0  0  0  0  0  0  0  0  0  0  0
   -3.0029   -4.2433   -0.7704 H   0  0  0  0  0  0  0  0  0  0  0  0
   -1.5078   -3.3116    0.4664 C   0  0  0  0  0  0  0  0  0  0  0  0
   -0.5630   -3.7939    1.0638 O   0  0  0  0  0  0  0  0  0  0  0  0
   -1.4351   -2.0308   -0.0464 N   0  0  0  0  0  0  0  0  0  0  0  0
   -2.2224   -1.7209   -0.6066 H   0  0  0  0  0  0  0  0  0  0  0  0
   -0.2094   -1.2054   -0.0564 C   0  0  1  0  0  0  0  0  0  0  0  0
    0.5586   -1.7826   -0.5840 H   0  0  0  0  0  0  0  0  0  0  0  0
   -0.3897    0.1308   -0.8262 C   0  0  0  0  0  0  0  0  0  0  0  0
   -0.1647    0.9693   -0.1572 H   0  0  0  0  0  0  0  0  0  0  0  0
    0.3545    0.1607   -1.6296 H   0  0  0  0  0  0  0  0  0  0  0  0
   -1.7819    0.3674   -1.4364 C   0  0  0  0  0  0  0  0  0  0  0  0
   -2.0167   -0.4313   -2.1480 H   0  0  0  0  0  0  0  0  0  0  0  0
   -2.5388    0.3639   -0.6448 H   0  0  0  0  0  0  0  0  0  0  0  0
   -1.8174    1.7164   -2.1626 C   0  0  0  0  0  0  0  0  0  0  0  0
   -1.5742    2.5197   -1.4596 H   0  0  0  0  0  0  0  0  0  0  0  0
   -1.0641    1.7248   -2.9575 H   0  0  0  0  0  0  0  0  0  0  0  0
   -3.1927    1.9753   -2.7698 C   0  0  0  0  0  0  0  0  0  0  0  0
   -3.4524    1.1723   -3.4686 H   0  0  0  0  0  0  0  0  0  0  0  0
   -3.9532    2.0012   -1.9814 H   0  0  0  0  0  0  0  0  0  0  0  0
   -3.1546    3.2577   -3.4777 N   0  0  0  0  0  0  0  0  0  0  0  0
   -4.0579    3.4781   -3.8974 H   0  0  0  0  0  0  0  0  0  0  0  0
   -2.8450    4.0101   -2.8617 H   0  0  0  0  0  0  0  0  0  0  0  0
    0.3671   -0.9219    1.3496 C   0  0  0  0  0  0  0  0  0  0  0  0
    1.5756   -0.7950    1.4958 O   0  0  0  0  0  0  0  0  0  0  0  0
   -0.4795   -0.5459    2.3772 N   0  0  0  0  0  0  0  0  0  0  0  0
   -1.4638   -0.7494    2.2404 H   0  0  0  0  0  0  0  0  0  0  0  0
   -0.0038   -0.2600    3.7245 C   0  0  0  0  0  0  0  0  0  0  0  0
    0.7376    0.5459    3.7073 H   0  0  0  0  0  0  0  0  0  0  0  0
   -0.8365    0.0526    4.3616 H   0  0  0  0  0  0  0  0  0  0  0  0
    0.4555   -1.1522    4.1631 H   0  0  0  0  0  0  0  0  0  0  0  0
  1  2  1  0  0  0  0
  2  3  1  0  0  0  0
  2  4  1  0  0  0  0
  2  5  1  0  0  0  0
  5  6  2  0  0  0  0
  5  7  1  0  0  0  0
  7  8  1  0  0  0  0
  7  9  1  0  0  0  0
  9 10  1  0  0  0  0
  9 11  1  0  0  0  0
  9 26  1  0  0  0  0
 11 12  1  0  0  0  0
 11 13  1  0  0  0  0
 11 14  1  0  0  0  0
 14 15  1  0  0  0  0
 14 16  1  0  0  0  0
 14 17  1  0  0  0  0
 17 18  1  0  0  0  0
 17 19  1  0  0  0  0
 17 20  1  0  0  0  0
 20 21  1  0  0  0  0
 20 22  1  0  0  0  0
 20 23  1  0  0  0  0
 23 24  1  0  0  0  0
 23 25  1  0  0  0  0
 26 27  2  0  0  0  0
 26 28  1  0  0  0  0
 28 29  1  0  0  0  0
 28 30  1  0  0  0  0
 30 31  1  0  0  0  0
 30 32  1  0  0  0  0
 30 33  1  0  0  0  0
M  END
$$$$

  -OEChem-03222214063D

 33 32  0     1  0  0  0  0  0999 V2000
   -2.6641   -5.1126    0.7732 H   0  0  0  0  0  0  0  0  0  0  0  0
   -2.7865   -4.1239    0.3216 C   0  0  0  0  0  0  0  0  0  0  0  0
   -3.6154   -3.6121    0.8161 H   0  0  0  0  0  0  0  0  0  0  0  0
   -3.0221   -4.2488   -0.7380 H   0  0  0  0  0  0  0  0  0  0  0  0
   -1.5105   -3.3185    0.4775 C   0  0  0  0  0  0  0  0  0  0  0  0
   -0.5567   -3.8021    1.0591 O   0  0  0  0  0  0  0  0  0  0  0  0
   -1.4439   -2.0382   -0.0369 N   0  0  0  0  0  0  0  0  0  0  0  0
   -2.2446   -1.7218   -0.5740 H   0  0  0  0  0  0  0  0  0  0  0  0
   -0.2216   -1.2082   -0.0556 C   0  0  1  0  0  0  0  0  0  0  0  0
    0.5443   -1.7877   -0.5838 H   0  0  0  0  0  0  0  0  0  0  0  0
   -0.4021    0.1254   -0.8311 C   0  0  0  0  0  0  0  0  0  0  0  0
   -0.1657    0.9720   -0.1768 H   0  0  0  0  0  0  0  0  0  0  0  0
    0.3421    0.1336   -1.6347 H   0  0  0  0  0  0  0  0  0  0  0  0
   -1.7921    0.3715   -1.4477 C   0  0  0  0  0  0  0  0  0  0  0  0
   -2.1353   -0.5240   -1.9750 H   0  0  0  0  0  0  0  0  0  0  0  0
   -2.5115    0.6072   -0.6562 H   0  0  0  0  0  0  0  0  0  0  0  0
   -1.7262    1.5116   -2.4704 C   0  0  0  0  0  0  0  0  0  0  0  0
   -1.3468    2.4174   -1.9865 H   0  0  0  0  0  0  0  0  0  0  0  0
   -1.0342    1.2441   -3.2761 H   0  0  0  0  0  0  0  0  0  0  0  0
   -3.1030    1.7949   -3.0646 C   0  0  0  0  0  0  0  0  0  0  0  0
   -3.5023    0.8910   -3.5378 H   0  0  0  0  0  0  0  0  0  0  0  0
   -3.7973    2.1013   -2.2744 H   0  0  0  0  0  0  0  0  0  0  0  0
   -2.9700    2.8602   -4.0618 N   0  0  0  0  0  0  0  0  0  0  0  0
   -3.8709    3.0941   -4.4794 H   0  0  0  0  0  0  0  0  0  0  0  0
   -2.5291    3.6878   -3.6599 H   0  0  0  0  0  0  0  0  0  0  0  0
    0.3630   -0.9203    1.3461 C   0  0  0  0  0  0  0  0  0  0  0  0
    1.5717   -0.7847    1.4830 O   0  0  0  0  0  0  0  0  0  0  0  0
   -0.4769   -0.5459    2.3797 N   0  0  0  0  0  0  0  0  0  0  0  0
   -1.4608   -0.7568    2.2525 H   0  0  0  0  0  0  0  0  0  0  0  0
    0.0089   -0.2518    3.7219 C   0  0  0  0  0  0  0  0  0  0  0  0
    0.7332    0.5690    3.6970 H   0  0  0  0  0  0  0  0  0  0  0  0
   -0.8223    0.0431    4.3693 H   0  0  0  0  0  0  0  0  0  0  0  0
    0.4920   -1.1343    4.1542 H   0  0  0  0  0  0  0  0  0  0  0  0
  1  2  1  0  0  0  0
  2  3  1  0  0  0  0
  2  4  1  0  0  0  0
  2  5  1  0  0  0  0
  5  6  2  0  0  0  0
  5  7  1  0  0  0  0
  7  8  1  0  0  0  0
  7  9  1  0  0  0  0
  9 10  1  0  0  0  0
  9 11  1  0  0  0  0
  9 26  1  0  0  0  0
 11 12  1  0  0  0  0
 11 13  1  0  0  0  0
 11 14  1  0  0  0  0
 14 15  1  0  0  0  0
 14 16  1  0  0  0  0
 14 17  1  0  0  0  0
 17 18  1  0  0  0  0
 17 19  1  0  0  0  0
 17 20  1  0  0  0  0
 20 21  1  0  0  0  0
 20 22  1  0  0  0  0
 20 23  1  0  0  0  0
 23 24  1  0  0  0  0
 23 25  1  0  0  0  0
 26 27  2  0  0  0  0
 26 28  1  0  0  0  0
 28 29  1  0  0  0  0
 28 30  1  0  0  0  0
 30 31  1  0  0  0  0
 30 32  1  0  0  0  0
 30 33  1  0  0  0  0
M  END
$$$$

  -OEChem-03222214063D

 33 32  0     1  0  0  0  0  0999 V2000
   -2.6319   -5.1471    0.8317 H   0  0  0  0  0  0  0  0  0  0  0  0
   -2.7738   -4.1622    0.3777 C   0  0  0  0  0  0  0  0  0  0  0  0
   -3.6002   -3.6575    0.8833 H   0  0  0  0  0  0  0  0  0  0  0  0
   -3.0255   -4.2958   -0.6772 H   0  0  0  0  0  0  0  0  0  0  0  0
   -1.5051   -3.3409    0.5087 C   0  0  0  0  0  0  0  0  0  0  0  0
   -0.5350   -3.8122    1.0735 O   0  0  0  0  0  0  0  0  0  0  0  0
   -1.4619   -2.0623   -0.0125 N   0  0  0  0  0  0  0  0  0  0  0  0
   -2.2783   -1.7549   -0.5303 H   0  0  0  0  0  0  0  0  0  0  0  0
   -0.2502   -1.2186   -0.0531 C   0  0  1  0  0  0  0  0  0  0  0  0
    0.5133   -1.7994   -0.5833 H   0  0  0  0  0  0  0  0  0  0  0  0
   -0.4345    0.1093   -0.8403 C   0  0  0  0  0  0  0  0  0  0  0  0
   -0.1861    0.9620   -0.1986 H   0  0  0  0  0  0  0  0  0  0  0  0
    0.3147    0.0986   -1.6397 H   0  0  0  0  0  0  0  0  0  0  0  0
   -1.8193    0.3800   -1.4692 C   0  0  0  0  0  0  0  0  0  0  0  0
   -2.3008   -0.5498   -1.7810 H   0  0  0  0  0  0  0  0  0  0  0  0
   -2.4659    0.8729   -0.7356 H   0  0  0  0  0  0  0  0  0  0  0  0
   -1.6738    1.2351   -2.7334 C   0  0  0  0  0  0  0  0  0  0  0  0
   -1.1394    2.1594   -2.4907 H   0  0  0  0  0  0  0  0  0  0  0  0
   -1.0856    0.6908   -3.4798 H   0  0  0  0  0  0  0  0  0  0  0  0
   -3.0380    1.5804   -3.3233 C   0  0  0  0  0  0  0  0  0  0  0  0
   -3.5933    0.6639   -3.5518 H   0  0  0  0  0  0  0  0  0  0  0  0
   -3.6227    2.1629   -2.6026 H   0  0  0  0  0  0  0  0  0  0  0  0
   -2.8292    2.3541   -4.5499 N   0  0  0  0  0  0  0  0  0  0  0  0
   -3.7162    2.6161   -4.9803 H   0  0  0  0  0  0  0  0  0  0  0  0
   -2.2534    3.1775   -4.3721 H   0  0  0  0  0  0  0  0  0  0  0  0
    0.3515   -0.9173    1.3387 C   0  0  0  0  0  0  0  0  0  0  0  0
    1.5606   -0.7691    1.4576 O   0  0  0  0  0  0  0  0  0  0  0  0
   -0.4762   -0.5475    2.3838 N   0  0  0  0  0  0  0  0  0  0  0  0
   -1.4606   -0.7646    2.2720 H   0  0  0  0  0  0  0  0  0  0  0  0
    0.0274   -0.2420    3.7168 C   0  0  0  0  0  0  0  0  0  0  0  0
    0.7295    0.5975    3.6786 H   0  0  0  0  0  0  0  0  0  0  0  0
   -0.7984    0.0306    4.3807 H   0  0  0  0  0  0  0  0  0  0  0  0
    0.5413   -1.1120    4.1388 H   0  0  0  0  0  0  0  0  0  0  0  0
  1  2  1  0  0  0  0
  2  3  1  0  0  0  0
  2  4  1  0  0  0  0
  2  5  1  0  0  0  0
  5  6  2  0  0  0  0
  5  7  1  0  0  0  0
  7  8  1  0  0  0  0
  7  9  1  0  0  0  0
  9 10  1  0  0  0  0
  9 11  1  0  0  0  0
  9 26  1  0  0  0  0
 11 12  1  0  0  0  0
 11 13  1  0  0  0  0
 11 14  1  0  0  0  0
 14 15  1  0  0  0  0
 14 16  1  0  0  0  0
 14 17  1  0  0  0  0
 17 18  1  0  0  0  0
 17 19  1  0  0  0  0
 17 20  1  0  0  0  0
 20 21  1  0  0  0  0
 20 22  1  0  0  0  0
 20 23  1  0  0  0  0
 23 24  1  0  0  0  0
 23 25  1  0  0  0  0
 26 27  2  0  0  0  0
 26 28  1  0  0  0  0
 28 29  1  0  0  0  0
 28 30  1  0  0  0  0
 30 31  1  0  0  0  0
 30 32  1  0  0  0  0
 30 33  1  0  0  0  0
M  END
$$$$

  -OEChem-03222214063D

 33 32  0     1  0  0  0  0  0999 V2000
   -2.6249   -5.1694    0.8775 H   0  0  0  0  0  0  0  0  0  0  0  0
   -2.7716   -4.1882    0.4169 C   0  0  0  0  0  0  0  0  0  0  0  0
   -3.6068   -3.6883    0.9131 H   0  0  0  0  0  0  0  0  0  0  0  0
   -3.0137   -4.3294   -0.6393 H   0  0  0  0  0  0  0  0  0  0  0  0
   -1.5116   -3.3544    0.5530 C   0  0  0  0  0  0  0  0  0  0  0  0
   -0.5438   -3.8103    1.1342 O   0  0  0  0  0  0  0  0  0  0  0  0
   -1.4765   -2.0820    0.0165 N   0  0  0  0  0  0  0  0  0  0  0  0
   -2.2829   -1.8050   -0.5324 H   0  0  0  0  0  0  0  0  0  0  0  0
   -0.2662   -1.2378   -0.0495 C   0  0  1  0  0  0  0  0  0  0  0  0
    0.4907   -1.8273   -0.5800 H   0  0  0  0  0  0  0  0  0  0  0  0
   -0.4448    0.0871   -0.8478 C   0  0  0  0  0  0  0  0  0  0  0  0
   -0.1825    0.9383   -0.2096 H   0  0  0  0  0  0  0  0  0  0  0  0
    0.3085    0.0662   -1.6428 H   0  0  0  0  0  0  0  0  0  0  0  0
   -1.8245    0.3948   -1.4819 C   0  0  0  0  0  0  0  0  0  0  0  0
   -2.4647   -0.4863   -1.5355 H   0  0  0  0  0  0  0  0  0  0  0  0
   -2.3410    1.1408   -0.8686 H   0  0  0  0  0  0  0  0  0  0  0  0
   -1.6600    0.9068   -2.9184 C   0  0  0  0  0  0  0  0  0  0  0  0
   -0.9893    1.7725   -2.9264 H   0  0  0  0  0  0  0  0  0  0  0  0
   -1.2092    0.1234   -3.5374 H   0  0  0  0  0  0  0  0  0  0  0  0
   -3.0071    1.3078   -3.5136 C   0  0  0  0  0  0  0  0  0  0  0  0
   -3.7004    0.4600   -3.4839 H   0  0  0  0  0  0  0  0  0  0  0  0
   -3.4449    2.1267   -2.9324 H   0  0  0  0  0  0  0  0  0  0  0  0
   -2.7962    1.7278   -4.9012 N   0  0  0  0  0  0  0  0  0  0  0  0
   -3.6717    2.0131   -5.3402 H   0  0  0  0  0  0  0  0  0  0  0  0
   -2.1011    2.4726   -4.9585 H   0  0  0  0  0  0  0  0  0  0  0  0
    0.3490   -0.9236    1.3343 C   0  0  0  0  0  0  0  0  0  0  0  0
    1.5590   -0.7714    1.4396 O   0  0  0  0  0  0  0  0  0  0  0  0
   -0.4690   -0.5448    2.3839 N   0  0  0  0  0  0  0  0  0  0  0  0
   -1.4543   -0.7636    2.2820 H   0  0  0  0  0  0  0  0  0  0  0  0
    0.0462   -0.2303    3.7107 C   0  0  0  0  0  0  0  0  0  0  0  0
    0.7367    0.6183    3.6631 H   0  0  0  0  0  0  0  0  0  0  0  0
   -0.7759    0.0323    4.3832 H   0  0  0  0  0  0  0  0  0  0  0  0
    0.5760   -1.0928    4.1289 H   0  0  0  0  0  0  0  0  0  0  0  0
  1  2  1  0  0  0  0
  2  3  1  0  0  0  0
  2  4  1  0  0  0  0
  2  5  1  0  0  0  0
  5  6  2  0  0  0  0
  5  7  1  0  0  0  0
  7  8  1  0  0  0  0
  7  9  1  0  0  0  0
  9 10  1  0  0  0  0
  9 11  1  0  0  0  0
  9 26  1  0  0  0  0
 11 12  1  0  0  0  0
 11 13  1  0  0  0  0
 11 14  1  0  0  0  0
 14 15  1  0  0  0  0
 14 16  1  0  0  0  0
 14 17  1  0  0  0  0
 17 18  1  0  0  0  0
 17 19  1  0  0  0  0
 17 20  1  0  0  0  0
 20 21  1  0  0  0  0
 20 22  1  0  0  0  0
 20 23  1  0  0  0  0
 23 24  1  0  0  0  0
 23 25  1  0  0  0  0
 26 27  2  0  0  0  0
 26 28  1  0  0  0  0
 28 29  1  0  0  0  0
 28 30  1  0  0  0  0
 30 31  1  0  0  0  0
 30 32  1  0  0  0  0
 30 33  1  0  0  0  0
M  END
$$$$

  -OEChem-03222214063D

 33 32  0     1  0  0  0  0  0999 V2000
   -2.6569   -5.1570    0.8781 H   0  0  0  0  0  0  0  0  0  0  0  0
   -2.7896   -4.1828    0.3988 C   0  0  0  0  0  0  0  0  0  0  0  0
   -3.6493   -3.6827    0.8511 H   0  0  0  0  0  0  0  0  0  0  0  0
   -2.9837   -4.3392   -0.6651 H   0  0  0  0  0  0  0  0  0  0  0  0
   -1.5420   -3.3385    0.5797 C   0  0  0  0  0  0  0  0  0  0  0  0
   -0.5987   -3.7834    1.2078 O   0  0  0  0  0  0  0  0  0  0  0  0
   -1.4914   -2.0707    0.0321 N   0  0  0  0  0  0  0  0  0  0  0  0
   -2.2546   -1.8318   -0.5918 H   0  0  0  0  0  0  0  0  0  0  0  0
   -0.2657   -1.2493   -0.0411 C   0  0  1  0  0  0  0  0  0  0  0  0
    0.4794   -1.8535   -0.5714 H   0  0  0  0  0  0  0  0  0  0  0  0
   -0.4236    0.0771   -0.8438 C   0  0  0  0  0  0  0  0  0  0  0  0
   -0.1627    0.9169   -0.1896 H   0  0  0  0  0  0  0  0  0  0  0  0
    0.3397    0.0682   -1.6293 H   0  0  0  0  0  0  0  0  0  0  0  0
   -1.7993    0.4149   -1.4751 C   0  0  0  0  0  0  0  0  0  0  0  0
   -2.5724   -0.3176   -1.2439 H   0  0  0  0  0  0  0  0  0  0  0  0
   -2.1407    1.3689   -1.0589 H   0  0  0  0  0  0  0  0  0  0  0  0
   -1.6855    0.5541   -2.9983 C   0  0  0  0  0  0  0  0  0  0  0  0
   -0.9328    1.3096   -3.2467 H   0  0  0  0  0  0  0  0  0  0  0  0
   -1.3617   -0.4004   -3.4268 H   0  0  0  0  0  0  0  0  0  0  0  0
   -3.0230    0.9555   -3.6144 C   0  0  0  0  0  0  0  0  0  0  0  0
   -3.7974    0.2297   -3.3427 H   0  0  0  0  0  0  0  0  0  0  0  0
   -3.3299    1.9380   -3.2384 H   0  0  0  0  0  0  0  0  0  0  0  0
   -2.8699    0.9946   -5.0711 N   0  0  0  0  0  0  0  0  0  0  0  0
   -3.7387    1.2715   -5.5287 H   0  0  0  0  0  0  0  0  0  0  0  0
   -2.1035    1.6108   -5.3434 H   0  0  0  0  0  0  0  0  0  0  0  0
    0.3574   -0.9362    1.3397 C   0  0  0  0  0  0  0  0  0  0  0  0
    1.5703   -0.8057    1.4415 O   0  0  0  0  0  0  0  0  0  0  0  0
   -0.4524   -0.5350    2.3870 N   0  0  0  0  0  0  0  0  0  0  0  0
   -1.4400   -0.7458    2.2888 H   0  0  0  0  0  0  0  0  0  0  0  0
    0.0699   -0.2266    3.7123 C   0  0  0  0  0  0  0  0  0  0  0  0
    0.7908    0.5961    3.6595 H   0  0  0  0  0  0  0  0  0  0  0  0
   -0.7440    0.0718    4.3795 H   0  0  0  0  0  0  0  0  0  0  0  0
    0.5673   -1.1036    4.1402 H   0  0  0  0  0  0  0  0  0  0  0  0
  1  2  1  0  0  0  0
  2  3  1  0  0  0  0
  2  4  1  0  0  0  0
  2  5  1  0  0  0  0
  5  6  2  0  0  0  0
  5  7  1  0  0  0  0
  7  8  1  0  0  0  0
  7  9  1  0  0  0  0
  9 10  1  0  0  0  0
  9 11  1  0  0  0  0
  9 26  1  0  0  0  0
 11 12  1  0  0  0  0
 11 13  1  0  0  0  0
 11 14  1  0  0  0  0
 14 15  1  0  0  0  0
 14 16  1  0  0  0  0
 14 17  1  0  0  0  0
 17 18  1  0  0  0  0
 17 19  1  0  0  0  0
 17 20  1  0  0  0  0
 20 21  1  0  0  0  0
 20 22  1  0  0  0  0
 20 23  1  0  0  0  0
 23 24  1  0  0  0  0
 23 25  1  0  0  0  0
 26 27  2  0  0  0  0
 26 28  1  0  0  0  0
 28 29  1  0  0  0  0
 28 30  1  0  0  0  0
 30 31  1  0  0  0  0
 30 32  1  0  0  0  0
 30 33  1  0  0  0  0
M  END
$$$$

  -OEChem-03222214063D

 33 32  0     1  0  0  0  0  0999 V2000
   -2.7188   -5.1102    0.8139 H   0  0  0  0  0  0  0  0  0  0  0  0
   -2.8215   -4.1321    0.3351 C   0  0  0  0  0  0  0  0  0  0  0  0
   -3.6882   -3.6215    0.7612 H   0  0  0  0  0  0  0  0  0  0  0  0
   -2.9828   -4.2807   -0.7354 H   0  0  0  0  0  0  0  0  0  0  0  0
   -1.5687   -3.3071    0.5605 C   0  0  0  0  0  0  0  0  0  0  0  0
   -0.6521   -3.7666    1.2170 O   0  0  0  0  0  0  0  0  0  0  0  0
   -1.4834   -2.0390    0.0192 N   0  0  0  0  0  0  0  0  0  0  0  0
   -2.2193   -1.7924   -0.6353 H   0  0  0  0  0  0  0  0  0  0  0  0
   -0.2402   -1.2433   -0.0323 C   0  0  1  0  0  0  0  0  0  0  0  0
    0.5000   -1.8569   -0.5586 H   0  0  0  0  0  0  0  0  0  0  0  0
   -0.3802    0.0838   -0.8340 C   0  0  0  0  0  0  0  0  0  0  0  0
   -0.1402    0.9149   -0.1612 H   0  0  0  0  0  0  0  0  0  0  0  0
    0.3925    0.0963   -1.6098 H   0  0  0  0  0  0  0  0  0  0  0  0
   -1.7547    0.4140   -1.4645 C   0  0  0  0  0  0  0  0  0  0  0  0
   -2.5837   -0.1203   -0.9963 H   0  0  0  0  0  0  0  0  0  0  0  0
   -1.9487    1.4785   -1.2953 H   0  0  0  0  0  0  0  0  0  0  0  0
   -1.7373    0.1823   -2.9796 C   0  0  0  0  0  0  0  0  0  0  0  0
   -0.9436    0.7802   -3.4395 H   0  0  0  0  0  0  0  0  0  0  0  0
   -1.5261   -0.8733   -3.1810 H   0  0  0  0  0  0  0  0  0  0  0  0
   -3.0774    0.5583   -3.6053 C   0  0  0  0  0  0  0  0  0  0  0  0
   -3.8908    0.0105   -3.1166 H   0  0  0  0  0  0  0  0  0  0  0  0
   -3.2636    1.6305   -3.4772 H   0  0  0  0  0  0  0  0  0  0  0  0
   -3.0353    0.2155   -5.0290 N   0  0  0  0  0  0  0  0  0  0  0  0
   -3.9074    0.4642   -5.4967 H   0  0  0  0  0  0  0  0  0  0  0  0
   -2.2383    0.6561   -5.4893 H   0  0  0  0  0  0  0  0  0  0  0  0
    0.3740   -0.9451    1.3558 C   0  0  0  0  0  0  0  0  0  0  0  0
    1.5882   -0.8380    1.4699 O   0  0  0  0  0  0  0  0  0  0  0  0
   -0.4383   -0.5287    2.3954 N   0  0  0  0  0  0  0  0  0  0  0  0
   -1.4288   -0.7203    2.2876 H   0  0  0  0  0  0  0  0  0  0  0  0
    0.0767   -0.2317    3.7261 C   0  0  0  0  0  0  0  0  0  0  0  0
    0.8180    0.5731    3.6803 H   0  0  0  0  0  0  0  0  0  0  0  0
   -0.7371    0.0876    4.3839 H   0  0  0  0  0  0  0  0  0  0  0  0
    0.5473   -1.1202    4.1604 H   0  0  0  0  0  0  0  0  0  0  0  0
  1  2  1  0  0  0  0
  2  3  1  0  0  0  0
  2  4  1  0  0  0  0
  2  5  1  0  0  0  0
  5  6  2  0  0  0  0
  5  7  1  0  0  0  0
  7  8  1  0  0  0  0
  7  9  1  0  0  0  0
  9 10  1  0  0  0  0
  9 11  1  0  0  0  0
  9 26  1  0  0  0  0
 11 12  1  0  0  0  0
 11 13  1  0  0  0  0
 11 14  1  0  0  0  0
 14 15  1  0  0  0  0
 14 16  1  0  0  0  0
 14 17  1  0  0  0  0
 17 18  1  0  0  0  0
 17 19  1  0  0  0  0
 17 20  1  0  0  0  0
 20 21  1  0  0  0  0
 20 22  1  0  0  0  0
 20 23  1  0  0  0  0
 23 24  1  0  0  0  0
 23 25  1  0  0  0  0
 26 27  2  0  0  0  0
 26 28  1  0  0  0  0
 28 29  1  0  0  0  0
 28 30  1  0  0  0  0
 30 31  1  0  0  0  0
 30 32  1  0  0  0  0
 30 33  1  0  0  0  0
M  END
$$$$

  -OEChem-03222214063D

 33 32  0     1  0  0  0  0  0999 V2000
   -2.7718   -5.0623    0.7384 H   0  0  0  0  0  0  0  0  0  0  0  0
   -2.8496   -4.0766    0.2707 C   0  0  0  0  0  0  0  0  0  0  0  0
   -3.7154   -3.5567    0.6876 H   0  0  0  0  0  0  0  0  0  0  0  0
   -2.9940   -4.2084   -0.8044 H   0  0  0  0  0  0  0  0  0  0  0  0
   -1.5879   -3.2755    0.5297 C   0  0  0  0  0  0  0  0  0  0  0  0
   -0.6952   -3.7535    1.2057 O   0  0  0  0  0  0  0  0  0  0  0  0
   -1.4673   -2.0077   -0.0042 N   0  0  0  0  0  0  0  0  0  0  0  0
   -2.1841   -1.7443   -0.6743 H   0  0  0  0  0  0  0  0  0  0  0  0
   -0.2090   -1.2349   -0.0293 C   0  0  1  0  0  0  0  0  0  0  0  0
    0.5305   -1.8550   -0.5487 H   0  0  0  0  0  0  0  0  0  0  0  0
   -0.3310    0.0952   -0.8263 C   0  0  0  0  0  0  0  0  0  0  0  0
   -0.0974    0.9246   -0.1496 H   0  0  0  0  0  0  0  0  0  0  0  0
    0.4409    0.1104   -1.6028 H   0  0  0  0  0  0  0  0  0  0  0  0
   -1.7046    0.4099   -1.4554 C   0  0  0  0  0  0  0  0  0  0  0  0
   -2.5332    0.0780   -0.8235 H   0  0  0  0  0  0  0  0  0  0  0  0
   -1.7941    1.4987   -1.5316 H   0  0  0  0  0  0  0  0  0  0  0  0
   -1.8093   -0.1632   -2.8731 C   0  0  0  0  0  0  0  0  0  0  0  0
   -1.0095    0.2435   -3.5003 H   0  0  0  0  0  0  0  0  0  0  0  0
   -1.6873   -1.2508   -2.8364 H   0  0  0  0  0  0  0  0  0  0  0  0
   -3.1609    0.1717   -3.4966 C   0  0  0  0  0  0  0  0  0  0  0  0
   -3.9733   -0.1557   -2.8384 H   0  0  0  0  0  0  0  0  0  0  0  0
   -3.2521    1.2546   -3.6371 H   0  0  0  0  0  0  0  0  0  0  0  0
   -3.2587   -0.5207   -4.7837 N   0  0  0  0  0  0  0  0  0  0  0  0
   -4.1414   -0.3115   -5.2509 H   0  0  0  0  0  0  0  0  0  0  0  0
   -2.4672   -0.2903   -5.3852 H   0  0  0  0  0  0  0  0  0  0  0  0
    0.3873   -0.9510    1.3691 C   0  0  0  0  0  0  0  0  0  0  0  0
    1.6011   -0.8648    1.5029 O   0  0  0  0  0  0  0  0  0  0  0  0
   -0.4353   -0.5223    2.3952 N   0  0  0  0  0  0  0  0  0  0  0  0
   -1.4263   -0.7006    2.2712 H   0  0  0  0  0  0  0  0  0  0  0  0
    0.0621   -0.2345    3.7344 C   0  0  0  0  0  0  0  0  0  0  0  0
    0.8145    0.5606    3.7024 H   0  0  0  0  0  0  0  0  0  0  0  0
   -0.7580    0.0941    4.3796 H   0  0  0  0  0  0  0  0  0  0  0  0
    0.5139   -1.1298    4.1745 H   0  0  0  0  0  0  0  0  0  0  0  0
  1  2  1  0  0  0  0
  2  3  1  0  0  0  0
  2  4  1  0  0  0  0
  2  5  1  0  0  0  0
  5  6  2  0  0  0  0
  5  7  1  0  0  0  0
  7  8  1  0  0  0  0
  7  9  1  0  0  0  0
  9 10  1  0  0  0  0
  9 11  1  0  0  0  0
  9 26  1  0  0  0  0
 11 12  1  0  0  0  0
 11 13  1  0  0  0  0
 11 14  1  0  0  0  0
 14 15  1  0  0  0  0
 14 16  1  0  0  0  0
 14 17  1  0  0  0  0
 17 18  1  0  0  0  0
 17 19  1  0  0  0  0
 17 20  1  0  0  0  0
 20 21  1  0  0  0  0
 20 22  1  0  0  0  0
 20 23  1  0  0  0  0
 23 24  1  0  0  0  0
 23 25  1  0  0  0  0
 26 27  2  0  0  0  0
 26 28  1  0  0  0  0
 28 29  1  0  0  0  0
 28 30  1  0  0  0  0
 30 31  1  0  0  0  0
 30 32  1  0  0  0  0
 30 33  1  0  0  0  0
M  END
$$$$

  -OEChem-03222214063D

 33 32  0     1  0  0  0  0  0999 V2000
   -2.7835   -5.0511    0.7373 H   0  0  0  0  0  0  0  0  0  0  0  0
   -2.8482   -4.0639    0.2710 C   0  0  0  0  0  0  0  0  0  0  0  0
   -3.7054   -3.5319    0.6902 H   0  0  0  0  0  0  0  0  0  0  0  0
   -2.9971   -4.1925   -0.8041 H   0  0  0  0  0  0  0  0  0  0  0  0
   -1.5746   -3.2807    0.5272 C   0  0  0  0  0  0  0  0  0  0  0  0
   -0.6890   -3.7671    1.2071 O   0  0  0  0  0  0  0  0  0  0  0  0
   -1.4369   -2.0166   -0.0109 N   0  0  0  0  0  0  0  0  0  0  0  0
   -2.1574   -1.7356   -0.6701 H   0  0  0  0  0  0  0  0  0  0  0  0
   -0.1777   -1.2454   -0.0202 C   0  0  1  0  0  0  0  0  0  0  0  0
    0.5705   -1.8682   -0.5236 H   0  0  0  0  0  0  0  0  0  0  0  0
   -0.2862    0.0814   -0.8255 C   0  0  0  0  0  0  0  0  0  0  0  0
   -0.0534    0.9173   -0.1564 H   0  0  0  0  0  0  0  0  0  0  0  0
    0.4886    0.0814   -1.5995 H   0  0  0  0  0  0  0  0  0  0  0  0
   -1.6455    0.3968   -1.4811 C   0  0  0  0  0  0  0  0  0  0  0  0
   -2.4529    0.2693   -0.7524 H   0  0  0  0  0  0  0  0  0  0  0  0
   -1.6468    1.4512   -1.7776 H   0  0  0  0  0  0  0  0  0  0  0  0
   -1.9044   -0.4552   -2.7347 C   0  0  0  0  0  0  0  0  0  0  0  0
   -1.1318   -0.2493   -3.4828 H   0  0  0  0  0  0  0  0  0  0  0  0
   -1.8545   -1.5208   -2.4971 H   0  0  0  0  0  0  0  0  0  0  0  0
   -3.2763   -0.1416   -3.3241 C   0  0  0  0  0  0  0  0  0  0  0  0
   -4.0511   -0.2388   -2.5554 H   0  0  0  0  0  0  0  0  0  0  0  0
   -3.2975    0.8870   -3.7010 H   0  0  0  0  0  0  0  0  0  0  0  0
   -3.5374   -1.0908   -4.4088 N   0  0  0  0  0  0  0  0  0  0  0  0
   -4.4404   -0.9106   -4.8492 H   0  0  0  0  0  0  0  0  0  0  0  0
   -2.7875   -1.0717   -5.1009 H   0  0  0  0  0  0  0  0  0  0  0  0
    0.3923   -0.9552    1.3872 C   0  0  0  0  0  0  0  0  0  0  0  0
    1.6031   -0.8676    1.5451 O   0  0  0  0  0  0  0  0  0  0  0  0
   -0.4510   -0.5205    2.3937 N   0  0  0  0  0  0  0  0  0  0  0  0
   -1.4393   -0.6996    2.2499 H   0  0  0  0  0  0  0  0  0  0  0  0
    0.0181   -0.2234    3.7409 C   0  0  0  0  0  0  0  0  0  0  0  0
    0.7636    0.5782    3.7196 H   0  0  0  0  0  0  0  0  0  0  0  0
   -0.8168    0.1001    4.3695 H   0  0  0  0  0  0  0  0  0  0  0  0
    0.4698   -1.1127    4.1926 H   0  0  0  0  0  0  0  0  0  0  0  0
  1  2  1  0  0  0  0
  2  3  1  0  0  0  0
  2  4  1  0  0  0  0
  2  5  1  0  0  0  0
  5  6  2  0  0  0  0
  5  7  1  0  0  0  0
  7  8  1  0  0  0  0
  7  9  1  0  0  0  0
  9 10  1  0  0  0  0
  9 11  1  0  0  0  0
  9 26  1  0  0  0  0
 11 12  1  0  0  0  0
 11 13  1  0  0  0  0
 11 14  1  0  0  0  0
 14 15  1  0  0  0  0
 14 16  1  0  0  0  0
 14 17  1  0  0  0  0
 17 18  1  0  0  0  0
 17 19  1  0  0  0  0
 17 20  1  0  0  0  0
 20 21  1  0  0  0  0
 20 22  1  0  0  0  0
 20 23  1  0  0  0  0
 23 24  1  0  0  0  0
 23 25  1  0  0  0  0
 26 27  2  0  0  0  0
 26 28  1  0  0  0  0
 28 29  1  0  0  0  0
 28 30  1  0  0  0  0
 30 31  1  0  0  0  0
 30 32  1  0  0  0  0
 30 33  1  0  0  0  0
M  END
$$$$

  -OEChem-03222214063D

 33 32  0     1  0  0  0  0  0999 V2000
   -2.5805   -5.1755    1.0263 H   0  0  0  0  0  0  0  0  0  0  0  0
   -2.7036   -4.2196    0.5093 C   0  0  0  0  0  0  0  0  0  0  0  0
   -3.5403   -3.6811    0.9606 H   0  0  0  0  0  0  0  0  0  0  0  0
   -2.9287   -4.4147   -0.5422 H   0  0  0  0  0  0  0  0  0  0  0  0
   -1.4333   -3.3979    0.6222 C   0  0  0  0  0  0  0  0  0  0  0  0
   -0.4610   -3.8558    1.1951 O   0  0  0  0  0  0  0  0  0  0  0  0
   -1.3928   -2.1308    0.0755 N   0  0  0  0  0  0  0  0  0  0  0  0
   -2.2165   -1.8288   -0.4353 H   0  0  0  0  0  0  0  0  0  0  0  0
   -0.1952   -1.2756    0.0188 C   0  0  1  0  0  0  0  0  0  0  0  0
    0.5755   -1.8641   -0.4920 H   0  0  0  0  0  0  0  0  0  0  0  0
   -0.3831    0.0271   -0.8111 C   0  0  0  0  0  0  0  0  0  0  0  0
   -0.1634    0.8853   -0.1663 H   0  0  0  0  0  0  0  0  0  0  0  0
    0.3848    0.0273   -1.5919 H   0  0  0  0  0  0  0  0  0  0  0  0
   -1.7403    0.3208   -1.4905 C   0  0  0  0  0  0  0  0  0  0  0  0
   -2.5104    0.4214   -0.7188 H   0  0  0  0  0  0  0  0  0  0  0  0
   -1.6532    1.2913   -1.9906 H   0  0  0  0  0  0  0  0  0  0  0  0
   -2.2004   -0.7256   -2.5260 C   0  0  0  0  0  0  0  0  0  0  0  0
   -1.3716   -0.9532   -3.2044 H   0  0  0  0  0  0  0  0  0  0  0  0
   -2.5111   -1.6588   -2.0570 H   0  0  0  0  0  0  0  0  0  0  0  0
   -3.3801   -0.1929   -3.3338 C   0  0  0  0  0  0  0  0  0  0  0  0
   -4.1897    0.1126   -2.6616 H   0  0  0  0  0  0  0  0  0  0  0  0
   -3.0743    0.6817   -3.9190 H   0  0  0  0  0  0  0  0  0  0  0  0
   -3.8487   -1.2614   -4.2202 N   0  0  0  0  0  0  0  0  0  0  0  0
   -4.6472   -0.9553   -4.7773 H   0  0  0  0  0  0  0  0  0  0  0  0
   -3.0950   -1.5952   -4.8221 H   0  0  0  0  0  0  0  0  0  0  0  0
    0.3964   -0.9374    1.4063 C   0  0  0  0  0  0  0  0  0  0  0  0
    1.6015   -0.7582    1.5242 O   0  0  0  0  0  0  0  0  0  0  0  0
   -0.4422   -0.5562    2.4384 N   0  0  0  0  0  0  0  0  0  0  0  0
   -1.4212   -0.7988    2.3293 H   0  0  0  0  0  0  0  0  0  0  0  0
    0.0492   -0.2010    3.7637 C   0  0  0  0  0  0  0  0  0  0  0  0
    0.7156    0.6660    3.7057 H   0  0  0  0  0  0  0  0  0  0  0  0
   -0.7873    0.0510    4.4225 H   0  0  0  0  0  0  0  0  0  0  0  0
    0.5993   -1.0391    4.2044 H   0  0  0  0  0  0  0  0  0  0  0  0
  1  2  1  0  0  0  0
  2  3  1  0  0  0  0
  2  4  1  0  0  0  0
  2  5  1  0  0  0  0
  5  6  2  0  0  0  0
  5  7  1  0  0  0  0
  7  8  1  0  0  0  0
  7  9  1  0  0  0  0
  9 10  1  0  0  0  0
  9 11  1  0  0  0  0
  9 26  1  0  0  0  0
 11 12  1  0  0  0  0
 11 13  1  0  0  0  0
 11 14  1  0  0  0  0
 14 15  1  0  0  0  0
 14 16  1  0  0  0  0
 14 17  1  0  0  0  0
 17 18  1  0  0  0  0
 17 19  1  0  0  0  0
 17 20  1  0  0  0  0
 20 21  1  0  0  0  0
 20 22  1  0  0  0  0
 20 23  1  0  0  0  0
 23 24  1  0  0  0  0
 23 25  1  0  0  0  0
 26 27  2  0  0  0  0
 26 28  1  0  0  0  0
 28 29  1  0  0  0  0
 28 30  1  0  0  0  0
 30 31  1  0  0  0  0
 30 32  1  0  0  0  0
 30 33  1  0  0  0  0
M  END
$$$$

  -OEChem-03222214063D

 33 32  0     1  0  0  0  0  0999 V2000
   -2.3559   -5.3033    1.1203 H   0  0  0  0  0  0  0  0  0  0  0  0
   -2.5594   -4.3397    0.6444 C   0  0  0  0  0  0  0  0  0  0  0  0
   -3.3803   -3.8517    1.1751 H   0  0  0  0  0  0  0  0  0  0  0  0
   -2.8585   -4.5159   -0.3919 H   0  0  0  0  0  0  0  0  0  0  0  0
   -1.3205   -3.4650    0.6848 C   0  0  0  0  0  0  0  0  0  0  0  0
   -0.2971   -3.8825    1.1962 O   0  0  0  0  0  0  0  0  0  0  0  0
   -1.3674   -2.1959    0.1429 N   0  0  0  0  0  0  0  0  0  0  0  0
   -2.2328   -1.9279   -0.3117 H   0  0  0  0  0  0  0  0  0  0  0  0
   -0.2188   -1.2823    0.0339 C   0  0  1  0  0  0  0  0  0  0  0  0
    0.5559   -1.8328   -0.5121 H   0  0  0  0  0  0  0  0  0  0  0  0
   -0.4903    0.0235   -0.7730 C   0  0  0  0  0  0  0  0  0  0  0  0
   -0.2461    0.8851   -0.1414 H   0  0  0  0  0  0  0  0  0  0  0  0
    0.2386    0.0319   -1.5903 H   0  0  0  0  0  0  0  0  0  0  0  0
   -1.8715    0.3200   -1.4099 C   0  0  0  0  0  0  0  0  0  0  0  0
   -2.5546    0.6503   -0.6203 H   0  0  0  0  0  0  0  0  0  0  0  0
   -1.7325    1.1684   -2.0888 H   0  0  0  0  0  0  0  0  0  0  0  0
   -2.5545   -0.8287   -2.1765 C   0  0  0  0  0  0  0  0  0  0  0  0
   -1.7952   -1.4684   -2.6381 H   0  0  0  0  0  0  0  0  0  0  0  0
   -3.1620   -1.4350   -1.5009 H   0  0  0  0  0  0  0  0  0  0  0  0
   -3.4804   -0.2878   -3.2618 C   0  0  0  0  0  0  0  0  0  0  0  0
   -4.2228    0.3863   -2.8200 H   0  0  0  0  0  0  0  0  0  0  0  0
   -2.9062    0.2769   -4.0051 H   0  0  0  0  0  0  0  0  0  0  0  0
   -4.1525   -1.4253   -3.8961 N   0  0  0  0  0  0  0  0  0  0  0  0
   -4.8237   -1.1117   -4.5981 H   0  0  0  0  0  0  0  0  0  0  0  0
   -3.4749   -2.0682   -4.3072 H   0  0  0  0  0  0  0  0  0  0  0  0
    0.4135   -0.9235    1.3983 C   0  0  0  0  0  0  0  0  0  0  0  0
    1.6123   -0.6850    1.4673 O   0  0  0  0  0  0  0  0  0  0  0  0
   -0.3995   -0.5909    2.4670 N   0  0  0  0  0  0  0  0  0  0  0  0
   -1.3725   -0.8685    2.3925 H   0  0  0  0  0  0  0  0  0  0  0  0
    0.1249   -0.2048    3.7706 C   0  0  0  0  0  0  0  0  0  0  0  0
    0.7181    0.7118    3.6883 H   0  0  0  0  0  0  0  0  0  0  0  0
   -0.6965   -0.0223    4.4697 H   0  0  0  0  0  0  0  0  0  0  0  0
    0.7586   -0.9994    4.1784 H   0  0  0  0  0  0  0  0  0  0  0  0
  1  2  1  0  0  0  0
  2  3  1  0  0  0  0
  2  4  1  0  0  0  0
  2  5  1  0  0  0  0
  5  6  2  0  0  0  0
  5  7  1  0  0  0  0
  7  8  1  0  0  0  0
  7  9  1  0  0  0  0
  9 10  1  0  0  0  0
  9 11  1  0  0  0  0
  9 26  1  0  0  0  0
 11 12  1  0  0  0  0
 11 13  1  0  0  0  0
 11 14  1  0  0  0  0
 14 15  1  0  0  0  0
 14 16  1  0  0  0  0
 14 17  1  0  0  0  0
 17 18  1  0  0  0  0
 17 19  1  0  0  0  0
 17 20  1  0  0  0  0
 20 21  1  0  0  0  0
 20 22  1  0  0  0  0
 20 23  1  0  0  0  0
 23 24  1  0  0  0  0
 23 25  1  0  0  0  0
 26 27  2  0  0  0  0
 26 28  1  0  0  0  0
 28 29  1  0  0  0  0
 28 30  1  0  0  0  0
 30 31  1  0  0  0  0
 30 32  1  0  0  0  0
 30 33  1  0  0  0  0
M  END
$$$$

  -OEChem-03222214063D

 33 32  0     1  0  0  0  0  0999 V2000
   -2.6162   -5.1578    0.9254 H   0  0  0  0  0  0  0  0  0  0  0  0
   -2.7110   -4.2391    0.3396 C   0  0  0  0  0  0  0  0  0  0  0  0
   -3.6173   -3.7141    0.6498 H   0  0  0  0  0  0  0  0  0  0  0  0
   -2.7954   -4.5033   -0.7172 H   0  0  0  0  0  0  0  0  0  0  0  0
   -1.4997   -3.3522    0.5560 C   0  0  0  0  0  0  0  0  0  0  0  0
   -0.6186   -3.7202    1.3133 O   0  0  0  0  0  0  0  0  0  0  0  0
   -1.4050   -2.1378   -0.0974 N   0  0  0  0  0  0  0  0  0  0  0  0
   -2.1153   -1.9751   -0.8122 H   0  0  0  0  0  0  0  0  0  0  0  0
   -0.1889   -1.2988   -0.1020 C   0  0  1  0  0  0  0  0  0  0  0  0
    0.6162   -1.9489   -0.4627 H   0  0  0  0  0  0  0  0  0  0  0  0
   -0.1759   -0.0351   -1.0254 C   0  0  0  0  0  0  0  0  0  0  0  0
    0.0763    0.8415   -0.4180 H   0  0  0  0  0  0  0  0  0  0  0  0
    0.6775   -0.1845   -1.6958 H   0  0  0  0  0  0  0  0  0  0  0  0
   -1.3541    0.3983   -1.9389 C   0  0  0  0  0  0  0  0  0  0  0  0
   -1.9636    1.1201   -1.3846 H   0  0  0  0  0  0  0  0  0  0  0  0
   -0.9184    0.9489   -2.7795 H   0  0  0  0  0  0  0  0  0  0  0  0
   -2.2823   -0.6783   -2.5203 C   0  0  0  0  0  0  0  0  0  0  0  0
   -1.7559   -1.6362   -2.5702 H   0  0  0  0  0  0  0  0  0  0  0  0
   -2.5310   -0.4123   -3.5528 H   0  0  0  0  0  0  0  0  0  0  0  0
   -3.5954   -0.7821   -1.7381 C   0  0  0  0  0  0  0  0  0  0  0  0
   -3.4492   -0.5145   -0.6854 H   0  0  0  0  0  0  0  0  0  0  0  0
   -4.3339   -0.0883   -2.1559 H   0  0  0  0  0  0  0  0  0  0  0  0
   -4.0682   -2.1650   -1.8252 N   0  0  0  0  0  0  0  0  0  0  0  0
   -4.9710   -2.2715   -1.3582 H   0  0  0  0  0  0  0  0  0  0  0  0
   -4.1371   -2.4617   -2.8012 H   0  0  0  0  0  0  0  0  0  0  0  0
    0.2406   -0.8637    1.3194 C   0  0  0  0  0  0  0  0  0  0  0  0
    1.4264   -0.6844    1.5681 O   0  0  0  0  0  0  0  0  0  0  0  0
   -0.7101   -0.4003    2.2112 N   0  0  0  0  0  0  0  0  0  0  0  0
   -1.6685   -0.6634    2.0060 H   0  0  0  0  0  0  0  0  0  0  0  0
   -0.3768    0.0309    3.5627 C   0  0  0  0  0  0  0  0  0  0  0  0
    0.3259    0.8704    3.5351 H   0  0  0  0  0  0  0  0  0  0  0  0
   -1.2792    0.3551    4.0896 H   0  0  0  0  0  0  0  0  0  0  0  0
    0.0782   -0.7917    4.1245 H   0  0  0  0  0  0  0  0  0  0  0  0
  1  2  1  0  0  0  0
  2  3  1  0  0  0  0
  2  4  1  0  0  0  0
  2  5  1  0  0  0  0
  5  6  2  0  0  0  0
  5  7  1  0  0  0  0
  7  8  1  0  0  0  0
  7  9  1  0  0  0  0
  9 10  1  0  0  0  0
  9 11  1  0  0  0  0
  9 26  1  0  0  0  0
 11 12  1  0  0  0  0
 11 13  1  0  0  0  0
 11 14  1  0  0  0  0
 14 15  1  0  0  0  0
 14 16  1  0  0  0  0
 14 17  1  0  0  0  0
 17 18  1  0  0  0  0
 17 19  1  0  0  0  0
 17 20  1  0  0  0  0
 20 21  1  0  0  0  0
 20 22  1  0  0  0  0
 20 23  1  0  0  0  0
 23 24  1  0  0  0  0
 23 25  1  0  0  0  0
 26 27  2  0  0  0  0
 26 28  1  0  0  0  0
 28 29  1  0  0  0  0
 28 30  1  0  0  0  0
 30 31  1  0  0  0  0
 30 32  1  0  0  0  0
 30 33  1  0  0  0  0
M  END
$$$$

  -OEChem-03222214063D

 33 32  0     1  0  0  0  0  0999 V2000
   -2.0576   -5.3417    0.5392 H   0  0  0  0  0  0  0  0  0  0  0  0
   -2.4132   -4.3442    0.2652 C   0  0  0  0  0  0  0  0  0  0  0  0
   -3.1689   -4.0302    0.9894 H   0  0  0  0  0  0  0  0  0  0  0  0
   -2.8653   -4.3934   -0.7282 H   0  0  0  0  0  0  0  0  0  0  0  0
   -1.2566   -3.3623    0.2614 C   0  0  0  0  0  0  0  0  0  0  0  0
   -0.1264   -3.7579    0.4793 O   0  0  0  0  0  0  0  0  0  0  0  0
   -1.4984   -2.0278    0.0006 N   0  0  0  0  0  0  0  0  0  0  0  0
   -2.4403   -1.7911   -0.2876 H   0  0  0  0  0  0  0  0  0  0  0  0
   -0.4553   -1.0026   -0.1589 C   0  0  1  0  0  0  0  0  0  0  0  0
    0.2147   -1.3759   -0.9420 H   0  0  0  0  0  0  0  0  0  0  0  0
   -0.9288    0.4152   -0.6206 C   0  0  0  0  0  0  0  0  0  0  0  0
   -0.5538    1.1524    0.0987 H   0  0  0  0  0  0  0  0  0  0  0  0
   -0.3754    0.6063   -1.5462 H   0  0  0  0  0  0  0  0  0  0  0  0
   -2.4022    0.8276   -0.9251 C   0  0  0  0  0  0  0  0  0  0  0  0
   -2.7250    1.4469   -0.0813 H   0  0  0  0  0  0  0  0  0  0  0  0
   -2.3842    1.4853   -1.8009 H   0  0  0  0  0  0  0  0  0  0  0  0
   -3.5277   -0.1993   -1.1344 C   0  0  0  0  0  0  0  0  0  0  0  0
   -3.6728   -0.8126   -0.2431 H   0  0  0  0  0  0  0  0  0  0  0  0
   -4.4648    0.3512   -1.2693 H   0  0  0  0  0  0  0  0  0  0  0  0
   -3.3062   -1.0448   -2.3917 C   0  0  0  0  0  0  0  0  0  0  0  0
   -3.3584   -0.4008   -3.2768 H   0  0  0  0  0  0  0  0  0  0  0  0
   -2.3192   -1.5171   -2.3896 H   0  0  0  0  0  0  0  0  0  0  0  0
   -4.3569   -2.0659   -2.4561 N   0  0  0  0  0  0  0  0  0  0  0  0
   -4.3129   -2.5898   -3.3318 H   0  0  0  0  0  0  0  0  0  0  0  0
   -4.3331   -2.6920   -1.6537 H   0  0  0  0  0  0  0  0  0  0  0  0
    0.4329   -0.8452    1.0980 C   0  0  0  0  0  0  0  0  0  0  0  0
    1.6092   -0.5302    0.9736 O   0  0  0  0  0  0  0  0  0  0  0  0
   -0.1484   -0.7953    2.3521 N   0  0  0  0  0  0  0  0  0  0  0  0
   -1.1076   -1.1194    2.4171 H   0  0  0  0  0  0  0  0  0  0  0  0
    0.6214   -0.6166    3.5761 C   0  0  0  0  0  0  0  0  0  0  0  0
    1.1500    0.3423    3.5598 H   0  0  0  0  0  0  0  0  0  0  0  0
   -0.0426   -0.6292    4.4453 H   0  0  0  0  0  0  0  0  0  0  0  0
    1.3549   -1.4222    3.6871 H   0  0  0  0  0  0  0  0  0  0  0  0
  1  2  1  0  0  0  0
  2  3  1  0  0  0  0
  2  4  1  0  0  0  0
  2  5  1  0  0  0  0
  5  6  2  0  0  0  0
  5  7  1  0  0  0  0
  7  8  1  0  0  0  0
  7  9  1  0  0  0  0
  9 10  1  0  0  0  0
  9 11  1  0  0  0  0
  9 26  1  0  0  0  0
 11 12  1  0  0  0  0
 11 13  1  0  0  0  0
 11 14  1  0  0  0  0
 14 15  1  0  0  0  0
 14 16  1  0  0  0  0
 14 17  1  0  0  0  0
 17 18  1  0  0  0  0
 17 19  1  0  0  0  0
 17 20  1  0  0  0  0
 20 21  1  0  0  0  0
 20 22  1  0  0  0  0
 20 23  1  0  0  0  0
 23 24  1  0  0  0  0
 23 25  1  0  0  0  0
 26 27  2  0  0  0  0
 26 28  1  0  0  0  0
 28 29  1  0  0  0  0
 28 30  1  0  0  0  0
 30 31  1  0  0  0  0
 30 32  1  0  0  0  0
 30 33  1  0  0  0  0
M  END
$$$$

  -OEChem-03222214063D

 33 32  0     1  0  0  0  0  0999 V2000
   -2.0532   -5.4486    1.2267 H   0  0  0  0  0  0  0  0  0  0  0  0
   -2.3064   -4.5147    0.7169 C   0  0  0  0  0  0  0  0  0  0  0  0
   -3.1469   -4.0478    1.2358 H   0  0  0  0  0  0  0  0  0  0  0  0
   -2.6024   -4.7432   -0.3098 H   0  0  0  0  0  0  0  0  0  0  0  0
   -1.1112   -3.5801    0.7154 C   0  0  0  0  0  0  0  0  0  0  0  0
   -0.0515   -3.9488    1.1889 O   0  0  0  0  0  0  0  0  0  0  0  0
   -1.2365   -2.3167    0.1727 N   0  0  0  0  0  0  0  0  0  0  0  0
   -2.1320   -2.0904   -0.2462 H   0  0  0  0  0  0  0  0  0  0  0  0
   -0.1442   -1.3361    0.0561 C   0  0  1  0  0  0  0  0  0  0  0  0
    0.6592   -1.8546   -0.4798 H   0  0  0  0  0  0  0  0  0  0  0  0
   -0.4360   -0.0321   -0.7603 C   0  0  0  0  0  0  0  0  0  0  0  0
   -0.2222    0.8200   -0.1049 H   0  0  0  0  0  0  0  0  0  0  0  0
    0.3305    0.0052   -1.5419 H   0  0  0  0  0  0  0  0  0  0  0  0
   -1.7866    0.3118   -1.4594 C   0  0  0  0  0  0  0  0  0  0  0  0
   -2.1231    1.2714   -1.0520 H   0  0  0  0  0  0  0  0  0  0  0  0
   -1.5658    0.4806   -2.5190 H   0  0  0  0  0  0  0  0  0  0  0  0
   -2.9764   -0.6532   -1.3896 C   0  0  0  0  0  0  0  0  0  0  0  0
   -2.7030   -1.6092   -1.8476 H   0  0  0  0  0  0  0  0  0  0  0  0
   -3.2633   -0.8140   -0.3457 H   0  0  0  0  0  0  0  0  0  0  0  0
   -4.1841   -0.0873   -2.1289 C   0  0  0  0  0  0  0  0  0  0  0  0
   -4.5015    0.8524   -1.6632 H   0  0  0  0  0  0  0  0  0  0  0  0
   -3.9312    0.1195   -3.1749 H   0  0  0  0  0  0  0  0  0  0  0  0
   -5.2632   -1.0766   -2.0530 N   0  0  0  0  0  0  0  0  0  0  0  0
   -6.1315   -0.7026   -2.4380 H   0  0  0  0  0  0  0  0  0  0  0  0
   -5.0024   -1.9409   -2.5280 H   0  0  0  0  0  0  0  0  0  0  0  0
    0.4628   -0.9493    1.4253 C   0  0  0  0  0  0  0  0  0  0  0  0
    1.6489   -0.6558    1.5027 O   0  0  0  0  0  0  0  0  0  0  0  0
   -0.3686   -0.6703    2.4954 N   0  0  0  0  0  0  0  0  0  0  0  0
   -1.3313   -0.9790    2.4099 H   0  0  0  0  0  0  0  0  0  0  0  0
    0.1305   -0.2709    3.8051 C   0  0  0  0  0  0  0  0  0  0  0  0
    0.7175    0.6503    3.7277 H   0  0  0  0  0  0  0  0  0  0  0  0
   -0.7038   -0.0902    4.4895 H   0  0  0  0  0  0  0  0  0  0  0  0
    0.7637   -1.0579    4.2282 H   0  0  0  0  0  0  0  0  0  0  0  0
  1  2  1  0  0  0  0
  2  3  1  0  0  0  0
  2  4  1  0  0  0  0
  2  5  1  0  0  0  0
  5  6  2  0  0  0  0
  5  7  1  0  0  0  0
  7  8  1  0  0  0  0
  7  9  1  0  0  0  0
  9 10  1  0  0  0  0
  9 11  1  0  0  0  0
  9 26  1  0  0  0  0
 11 12  1  0  0  0  0
 11 13  1  0  0  0  0
 11 14  1  0  0  0  0
 14 15  1  0  0  0  0
 14 16  1  0  0  0  0
 14 17  1  0  0  0  0
 17 18  1  0  0  0  0
 17 19  1  0  0  0  0
 17 20  1  0  0  0  0
 20 21  1  0  0  0  0
 20 22  1  0  0  0  0
 20 23  1  0  0  0  0
 23 24  1  0  0  0  0
 23 25  1  0  0  0  0
 26 27  2  0  0  0  0
 26 28  1  0  0  0  0
 28 29  1  0  0  0  0
 28 30  1  0  0  0  0
 30 31  1  0  0  0  0
 30 32  1  0  0  0  0
 30 33  1  0  0  0  0
M  END
$$$$

  -OEChem-03222214063D

 33 32  0     1  0  0  0  0  0999 V2000
   -2.4594   -5.2631    1.1440 H   0  0  0  0  0  0  0  0  0  0  0  0
   -2.6437   -4.3129    0.6350 C   0  0  0  0  0  0  0  0  0  0  0  0
   -3.4166   -3.7646    1.1785 H   0  0  0  0  0  0  0  0  0  0  0  0
   -2.9970   -4.5181   -0.3784 H   0  0  0  0  0  0  0  0  0  0  0  0
   -1.3690   -3.4927    0.5800 C   0  0  0  0  0  0  0  0  0  0  0  0
   -0.3604   -3.9036    1.1275 O   0  0  0  0  0  0  0  0  0  0  0  0
   -1.3622   -2.2854   -0.0887 N   0  0  0  0  0  0  0  0  0  0  0  0
   -2.2802   -1.9429   -0.3807 H   0  0  0  0  0  0  0  0  0  0  0  0
   -0.2344   -1.3377   -0.0729 C   0  0  1  0  0  0  0  0  0  0  0  0
    0.6375   -1.9271   -0.3793 H   0  0  0  0  0  0  0  0  0  0  0  0
   -0.2779   -0.1260   -1.0629 C   0  0  0  0  0  0  0  0  0  0  0  0
   -0.2066    0.7792   -0.4499 H   0  0  0  0  0  0  0  0  0  0  0  0
    0.6513   -0.1616   -1.6416 H   0  0  0  0  0  0  0  0  0  0  0  0
   -1.4269    0.1655   -2.0754 C   0  0  0  0  0  0  0  0  0  0  0  0
   -1.5977    1.2474   -2.0850 H   0  0  0  0  0  0  0  0  0  0  0  0
   -1.0420   -0.0972   -3.0664 H   0  0  0  0  0  0  0  0  0  0  0  0
   -2.7896   -0.5282   -1.9543 C   0  0  0  0  0  0  0  0  0  0  0  0
   -3.4201   -0.2131   -2.7916 H   0  0  0  0  0  0  0  0  0  0  0  0
   -2.6679   -1.6090   -2.0637 H   0  0  0  0  0  0  0  0  0  0  0  0
   -3.5041   -0.1533   -0.6524 C   0  0  0  0  0  0  0  0  0  0  0  0
   -2.7875    0.1733    0.1084 H   0  0  0  0  0  0  0  0  0  0  0  0
   -4.1920    0.6801   -0.8340 H   0  0  0  0  0  0  0  0  0  0  0  0
   -4.2302   -1.3307   -0.1656 N   0  0  0  0  0  0  0  0  0  0  0  0
   -4.7538   -1.1072    0.6834 H   0  0  0  0  0  0  0  0  0  0  0  0
   -4.8646   -1.6823   -0.8864 H   0  0  0  0  0  0  0  0  0  0  0  0
    0.0982   -0.8469    1.3549 C   0  0  0  0  0  0  0  0  0  0  0  0
    1.2486   -0.5510    1.6503 O   0  0  0  0  0  0  0  0  0  0  0  0
   -0.9285   -0.4667    2.2015 N   0  0  0  0  0  0  0  0  0  0  0  0
   -1.8565   -0.7929    1.9511 H   0  0  0  0  0  0  0  0  0  0  0  0
   -0.6970    0.0359    3.5499 C   0  0  0  0  0  0  0  0  0  0  0  0
   -0.1059    0.9575    3.5193 H   0  0  0  0  0  0  0  0  0  0  0  0
   -1.6497    0.2539    4.0416 H   0  0  0  0  0  0  0  0  0  0  0  0
   -0.1594   -0.7075    4.1479 H   0  0  0  0  0  0  0  0  0  0  0  0
  1  2  1  0  0  0  0
  2  3  1  0  0  0  0
  2  4  1  0  0  0  0
  2  5  1  0  0  0  0
  5  6  2  0  0  0  0
  5  7  1  0  0  0  0
  7  8  1  0  0  0  0
  7  9  1  0  0  0  0
  9 10  1  0  0  0  0
  9 11  1  0  0  0  0
  9 26  1  0  0  0  0
 11 12  1  0  0  0  0
 11 13  1  0  0  0  0
 11 14  1  0  0  0  0
 14 15  1  0  0  0  0
 14 16  1  0  0  0  0
 14 17  1  0  0  0  0
 17 18  1  0  0  0  0
 17 19  1  0  0  0  0
 17 20  1  0  0  0  0
 20 21  1  0  0  0  0
 20 22  1  0  0  0  0
 20 23  1  0  0  0  0
 23 24  1  0  0  0  0
 23 25  1  0  0  0  0
 26 27  2  0  0  0  0
 26 28  1  0  0  0  0
 28 29  1  0  0  0  0
 28 30  1  0  0  0  0
 30 31  1  0  0  0  0
 30 32  1  0  0  0  0
 30 33  1  0  0  0  0
M  END
$$$$

  -OEChem-03222214063D

 33 32  0     1  0  0  0  0  0999 V2000
   -1.7080   -5.4929    0.9107 H   0  0  0  0  0  0  0  0  0  0  0  0
   -2.0478   -4.5489    0.4749 C   0  0  0  0  0  0  0  0  0  0  0  0
   -2.9300   -4.2071    1.0214 H   0  0  0  0  0  0  0  0  0  0  0  0
   -2.3169   -4.7216   -0.5699 H   0  0  0  0  0  0  0  0  0  0  0  0
   -0.9475   -3.5081    0.5622 C   0  0  0  0  0  0  0  0  0  0  0  0
    0.1119   -3.7898    1.0917 O   0  0  0  0  0  0  0  0  0  0  0  0
   -1.1637   -2.2439    0.0493 N   0  0  0  0  0  0  0  0  0  0  0  0
   -2.0291   -2.1043   -0.4573 H   0  0  0  0  0  0  0  0  0  0  0  0
   -0.1454   -1.1839   -0.0238 C   0  0  1  0  0  0  0  0  0  0  0  0
    0.7004   -1.6194   -0.5682 H   0  0  0  0  0  0  0  0  0  0  0  0
   -0.5532    0.1041   -0.8081 C   0  0  0  0  0  0  0  0  0  0  0  0
   -0.4564    0.9442   -0.1110 H   0  0  0  0  0  0  0  0  0  0  0  0
    0.2101    0.2671   -1.5763 H   0  0  0  0  0  0  0  0  0  0  0  0
   -1.9369    0.3056   -1.4872 C   0  0  0  0  0  0  0  0  0  0  0  0
   -2.1123    1.3864   -1.5289 H   0  0  0  0  0  0  0  0  0  0  0  0
   -1.8521   -0.0399   -2.5229 H   0  0  0  0  0  0  0  0  0  0  0  0
   -3.1810   -0.3737   -0.8886 C   0  0  0  0  0  0  0  0  0  0  0  0
   -3.1268   -0.3523    0.2047 H   0  0  0  0  0  0  0  0  0  0  0  0
   -3.2437   -1.4113   -1.2274 H   0  0  0  0  0  0  0  0  0  0  0  0
   -4.4524    0.3436   -1.3367 C   0  0  0  0  0  0  0  0  0  0  0  0
   -4.4454    1.3818   -0.9863 H   0  0  0  0  0  0  0  0  0  0  0  0
   -4.5119    0.3571   -2.4309 H   0  0  0  0  0  0  0  0  0  0  0  0
   -5.6116   -0.3609   -0.7822 N   0  0  0  0  0  0  0  0  0  0  0  0
   -5.6022   -0.3466    0.2377 H   0  0  0  0  0  0  0  0  0  0  0  0
   -5.6728   -1.3152   -1.1361 H   0  0  0  0  0  0  0  0  0  0  0  0
    0.4190   -0.7841    1.3599 C   0  0  0  0  0  0  0  0  0  0  0  0
    1.5799   -0.4080    1.4557 O   0  0  0  0  0  0  0  0  0  0  0  0
   -0.4406   -0.5916    2.4265 N   0  0  0  0  0  0  0  0  0  0  0  0
   -1.3705   -0.9843    2.3276 H   0  0  0  0  0  0  0  0  0  0  0  0
    0.0235   -0.2093    3.7536 C   0  0  0  0  0  0  0  0  0  0  0  0
    0.5403    0.7554    3.7164 H   0  0  0  0  0  0  0  0  0  0  0  0
   -0.8240   -0.1197    4.4393 H   0  0  0  0  0  0  0  0  0  0  0  0
    0.7128   -0.9634    4.1479 H   0  0  0  0  0  0  0  0  0  0  0  0
  1  2  1  0  0  0  0
  2  3  1  0  0  0  0
  2  4  1  0  0  0  0
  2  5  1  0  0  0  0
  5  6  2  0  0  0  0
  5  7  1  0  0  0  0
  7  8  1  0  0  0  0
  7  9  1  0  0  0  0
  9 10  1  0  0  0  0
  9 11  1  0  0  0  0
  9 26  1  0  0  0  0
 11 12  1  0  0  0  0
 11 13  1  0  0  0  0
 11 14  1  0  0  0  0
 14 15  1  0  0  0  0
 14 16  1  0  0  0  0
 14 17  1  0  0  0  0
 17 18  1  0  0  0  0
 17 19  1  0  0  0  0
 17 20  1  0  0  0  0
 20 21  1  0  0  0  0
 20 22  1  0  0  0  0
 20 23  1  0  0  0  0
 23 24  1  0  0  0  0
 23 25  1  0  0  0  0
 26 27  2  0  0  0  0
 26 28  1  0  0  0  0
 28 29  1  0  0  0  0
 28 30  1  0  0  0  0
 30 31  1  0  0  0  0
 30 32  1  0  0  0  0
 30 33  1  0  0  0  0
M  END
$$$$

  -OEChem-03222214063D

 33 32  0     1  0  0  0  0  0999 V2000
   -2.1366   -5.4149    1.0242 H   0  0  0  0  0  0  0  0  0  0  0  0
   -2.3667   -4.4553    0.5527 C   0  0  0  0  0  0  0  0  0  0  0  0
   -3.1920   -3.9863    1.0939 H   0  0  0  0  0  0  0  0  0  0  0  0
   -2.6717   -4.6354   -0.4808 H   0  0  0  0  0  0  0  0  0  0  0  0
   -1.1477   -3.5531    0.5842 C   0  0  0  0  0  0  0  0  0  0  0  0
   -0.1149   -3.9448    1.0966 O   0  0  0  0  0  0  0  0  0  0  0  0
   -1.2239   -2.2896    0.0331 N   0  0  0  0  0  0  0  0  0  0  0  0
   -2.0898   -2.0452   -0.4327 H   0  0  0  0  0  0  0  0  0  0  0  0
   -0.1116   -1.3284   -0.0286 C   0  0  1  0  0  0  0  0  0  0  0  0
    0.7124   -1.8364   -0.5424 H   0  0  0  0  0  0  0  0  0  0  0  0
   -0.4177   -0.0295   -0.8350 C   0  0  0  0  0  0  0  0  0  0  0  0
   -0.2609    0.8246   -0.1667 H   0  0  0  0  0  0  0  0  0  0  0  0
    0.3451    0.0548   -1.6163 H   0  0  0  0  0  0  0  0  0  0  0  0
   -1.7945    0.2070   -1.5057 C   0  0  0  0  0  0  0  0  0  0  0  0
   -1.8239    1.2590   -1.8100 H   0  0  0  0  0  0  0  0  0  0  0  0
   -1.8436   -0.3923   -2.4208 H   0  0  0  0  0  0  0  0  0  0  0  0
   -3.0461   -0.1112   -0.6637 C   0  0  0  0  0  0  0  0  0  0  0  0
   -3.3668   -1.1425   -0.8317 H   0  0  0  0  0  0  0  0  0  0  0  0
   -2.8202    0.0191    0.3999 H   0  0  0  0  0  0  0  0  0  0  0  0
   -4.2053    0.8104   -1.0309 C   0  0  0  0  0  0  0  0  0  0  0  0
   -3.9401    1.8505   -0.8097 H   0  0  0  0  0  0  0  0  0  0  0  0
   -4.4266    0.7350   -2.1014 H   0  0  0  0  0  0  0  0  0  0  0  0
   -5.3764    0.4147   -0.2427 N   0  0  0  0  0  0  0  0  0  0  0  0
   -6.1466    1.0717   -0.3725 H   0  0  0  0  0  0  0  0  0  0  0  0
   -5.6704   -0.5351   -0.4688 H   0  0  0  0  0  0  0  0  0  0  0  0
    0.4322   -0.9457    1.3675 C   0  0  0  0  0  0  0  0  0  0  0  0
    1.6172   -0.6721    1.5061 O   0  0  0  0  0  0  0  0  0  0  0  0
   -0.4514   -0.6493    2.3901 N   0  0  0  0  0  0  0  0  0  0  0  0
   -1.4200   -0.9154    2.2455 H   0  0  0  0  0  0  0  0  0  0  0  0
   -0.0254   -0.2205    3.7155 C   0  0  0  0  0  0  0  0  0  0  0  0
    0.5412    0.7145    3.6521 H   0  0  0  0  0  0  0  0  0  0  0  0
   -0.8963   -0.0529    4.3563 H   0  0  0  0  0  0  0  0  0  0  0  0
    0.6060   -0.9855    4.1798 H   0  0  0  0  0  0  0  0  0  0  0  0
  1  2  1  0  0  0  0
  2  3  1  0  0  0  0
  2  4  1  0  0  0  0
  2  5  1  0  0  0  0
  5  6  2  0  0  0  0
  5  7  1  0  0  0  0
  7  8  1  0  0  0  0
  7  9  1  0  0  0  0
  9 10  1  0  0  0  0
  9 11  1  0  0  0  0
  9 26  1  0  0  0  0
 11 12  1  0  0  0  0
 11 13  1  0  0  0  0
 11 14  1  0  0  0  0
 14 15  1  0  0  0  0
 14 16  1  0  0  0  0
 14 17  1  0  0  0  0
 17 18  1  0  0  0  0
 17 19  1  0  0  0  0
 17 20  1  0  0  0  0
 20 21  1  0  0  0  0
 20 22  1  0  0  0  0
 20 23  1  0  0  0  0
 23 24  1  0  0  0  0
 23 25  1  0  0  0  0
 26 27  2  0  0  0  0
 26 28  1  0  0  0  0
 28 29  1  0  0  0  0
 28 30  1  0  0  0  0
 30 31  1  0  0  0  0
 30 32  1  0  0  0  0
 30 33  1  0  0  0  0
M  END
$$$$

  -OEChem-03222214063D

 33 32  0     1  0  0  0  0  0999 V2000
   -2.3368   -5.3160    0.8817 H   0  0  0  0  0  0  0  0  0  0  0  0
   -2.5200   -4.3383    0.4266 C   0  0  0  0  0  0  0  0  0  0  0  0
   -3.3467   -3.8556    0.9530 H   0  0  0  0  0  0  0  0  0  0  0  0
   -2.7968   -4.4845   -0.6201 H   0  0  0  0  0  0  0  0  0  0  0  0
   -1.2734   -3.4786    0.5185 C   0  0  0  0  0  0  0  0  0  0  0  0
   -0.2700   -3.9220    1.0468 O   0  0  0  0  0  0  0  0  0  0  0  0
   -1.2911   -2.1957    0.0073 N   0  0  0  0  0  0  0  0  0  0  0  0
   -2.1265   -1.9139   -0.4948 H   0  0  0  0  0  0  0  0  0  0  0  0
   -0.1308   -1.2898   -0.0258 C   0  0  1  0  0  0  0  0  0  0  0  0
    0.6652   -1.8165   -0.5644 H   0  0  0  0  0  0  0  0  0  0  0  0
   -0.3981    0.0403   -0.7876 C   0  0  0  0  0  0  0  0  0  0  0  0
   -0.1926    0.8798   -0.1137 H   0  0  0  0  0  0  0  0  0  0  0  0
    0.3427    0.1060   -1.5910 H   0  0  0  0  0  0  0  0  0  0  0  0
   -1.7858    0.3014   -1.4166 C   0  0  0  0  0  0  0  0  0  0  0  0
   -1.7361    1.2765   -1.9133 H   0  0  0  0  0  0  0  0  0  0  0  0
   -1.9788   -0.4475   -2.1916 H   0  0  0  0  0  0  0  0  0  0  0  0
   -2.9646    0.3135   -0.4223 C   0  0  0  0  0  0  0  0  0  0  0  0
   -3.2618   -0.6963   -0.1367 H   0  0  0  0  0  0  0  0  0  0  0  0
   -2.6698    0.8490    0.4865 H   0  0  0  0  0  0  0  0  0  0  0  0
   -4.1742    1.0113   -1.0384 C   0  0  0  0  0  0  0  0  0  0  0  0
   -3.9286    2.0555   -1.2627 H   0  0  0  0  0  0  0  0  0  0  0  0
   -4.4588    0.5200   -1.9755 H   0  0  0  0  0  0  0  0  0  0  0  0
   -5.2836    0.9556   -0.0823 N   0  0  0  0  0  0  0  0  0  0  0  0
   -6.0851    1.4926   -0.4157 H   0  0  0  0  0  0  0  0  0  0  0  0
   -5.5514   -0.0069    0.1210 H   0  0  0  0  0  0  0  0  0  0  0  0
    0.4450   -0.9705    1.3733 C   0  0  0  0  0  0  0  0  0  0  0  0
    1.6458   -0.7722    1.5057 O   0  0  0  0  0  0  0  0  0  0  0  0
   -0.4080   -0.6560    2.4160 N   0  0  0  0  0  0  0  0  0  0  0  0
   -1.3927   -0.8546    2.2744 H   0  0  0  0  0  0  0  0  0  0  0  0
    0.0590   -0.2963    3.7484 C   0  0  0  0  0  0  0  0  0  0  0  0
    0.6845    0.6015    3.7060 H   0  0  0  0  0  0  0  0  0  0  0  0
   -0.7916   -0.0923    4.4055 H   0  0  0  0  0  0  0  0  0  0  0  0
    0.6443   -1.1141    4.1814 H   0  0  0  0  0  0  0  0  0  0  0  0
  1  2  1  0  0  0  0
  2  3  1  0  0  0  0
  2  4  1  0  0  0  0
  2  5  1  0  0  0  0
  5  6  2  0  0  0  0
  5  7  1  0  0  0  0
  7  8  1  0  0  0  0
  7  9  1  0  0  0  0
  9 10  1  0  0  0  0
  9 11  1  0  0  0  0
  9 26  1  0  0  0  0
 11 12  1  0  0  0  0
 11 13  1  0  0  0  0
 11 14  1  0  0  0  0
 14 15  1  0  0  0  0
 14 16  1  0  0  0  0
 14 17  1  0  0  0  0
 17 18  1  0  0  0  0
 17 19  1  0  0  0  0
 17 20  1  0  0  0  0
 20 21  1  0  0  0  0
 20 22  1  0  0  0  0
 20 23  1  0  0  0  0
 23 24  1  0  0  0  0
 23 25  1  0  0  0  0
 26 27  2  0  0  0  0
 26 28  1  0  0  0  0
 28 29  1  0  0  0  0
 28 30  1  0  0  0  0
 30 31  1  0  0  0  0
 30 32  1  0  0  0  0
 30 33  1  0  0  0  0
M  END
$$$$

  -OEChem-03222214063D

 33 32  0     1  0  0  0  0  0999 V2000
   -2.6081   -5.1375    0.7620 H   0  0  0  0  0  0  0  0  0  0  0  0
   -2.7239   -4.1407    0.3263 C   0  0  0  0  0  0  0  0  0  0  0  0
   -3.5207   -3.6157    0.8581 H   0  0  0  0  0  0  0  0  0  0  0  0
   -3.0030   -4.2470   -0.7248 H   0  0  0  0  0  0  0  0  0  0  0  0
   -1.4239   -3.3672    0.4418 C   0  0  0  0  0  0  0  0  0  0  0  0
   -0.4544   -3.8863    0.9641 O   0  0  0  0  0  0  0  0  0  0  0  0
   -1.3517   -2.0782   -0.0480 N   0  0  0  0  0  0  0  0  0  0  0  0
   -2.1793   -1.7114   -0.5069 H   0  0  0  0  0  0  0  0  0  0  0  0
   -0.1358   -1.2421   -0.0390 C   0  0  1  0  0  0  0  0  0  0  0  0
    0.6411   -1.8048   -0.5691 H   0  0  0  0  0  0  0  0  0  0  0  0
   -0.3202    0.1075   -0.7881 C   0  0  0  0  0  0  0  0  0  0  0  0
   -0.0740    0.9404   -0.1198 H   0  0  0  0  0  0  0  0  0  0  0  0
    0.4211    0.1316   -1.5939 H   0  0  0  0  0  0  0  0  0  0  0  0
   -1.7001    0.3850   -1.4179 C   0  0  0  0  0  0  0  0  0  0  0  0
   -1.5932    1.2272   -2.1100 H   0  0  0  0  0  0  0  0  0  0  0  0
   -2.0280   -0.4755   -2.0098 H   0  0  0  0  0  0  0  0  0  0  0  0
   -2.7594    0.7572   -0.3664 C   0  0  0  0  0  0  0  0  0  0  0  0
   -2.9060   -0.0587    0.3452 H   0  0  0  0  0  0  0  0  0  0  0  0
   -2.4184    1.6313    0.1985 H   0  0  0  0  0  0  0  0  0  0  0  0
   -4.0908    1.0859   -1.0359 C   0  0  0  0  0  0  0  0  0  0  0  0
   -3.9679    1.9377   -1.7144 H   0  0  0  0  0  0  0  0  0  0  0  0
   -4.4401    0.2309   -1.6250 H   0  0  0  0  0  0  0  0  0  0  0  0
   -5.0687    1.4139    0.0054 N   0  0  0  0  0  0  0  0  0  0  0  0
   -5.9588    1.7061   -0.3996 H   0  0  0  0  0  0  0  0  0  0  0  0
   -5.2001    0.6374    0.6527 H   0  0  0  0  0  0  0  0  0  0  0  0
    0.4259   -0.9782    1.3769 C   0  0  0  0  0  0  0  0  0  0  0  0
    1.6334   -0.8655    1.5420 O   0  0  0  0  0  0  0  0  0  0  0  0
   -0.4296   -0.6275    2.4061 N   0  0  0  0  0  0  0  0  0  0  0  0
   -1.4217   -0.7544    2.2373 H   0  0  0  0  0  0  0  0  0  0  0  0
    0.0279   -0.3365    3.7586 C   0  0  0  0  0  0  0  0  0  0  0  0
    0.7100    0.5203    3.7565 H   0  0  0  0  0  0  0  0  0  0  0  0
   -0.8237   -0.0982    4.4031 H   0  0  0  0  0  0  0  0  0  0  0  0
    0.5501   -1.2021    4.1796 H   0  0  0  0  0  0  0  0  0  0  0  0
  1  2  1  0  0  0  0
  2  3  1  0  0  0  0
  2  4  1  0  0  0  0
  2  5  1  0  0  0  0
  5  6  2  0  0  0  0
  5  7  1  0  0  0  0
  7  8  1  0  0  0  0
  7  9  1  0  0  0  0
  9 10  1  0  0  0  0
  9 11  1  0  0  0  0
  9 26  1  0  0  0  0
 11 12  1  0  0  0  0
 11 13  1  0  0  0  0
 11 14  1  0  0  0  0
 14 15  1  0  0  0  0
 14 16  1  0  0  0  0
 14 17  1  0  0  0  0
 17 18  1  0  0  0  0
 17 19  1  0  0  0  0
 17 20  1  0  0  0  0
 20 21  1  0  0  0  0
 20 22  1  0  0  0  0
 20 23  1  0  0  0  0
 23 24  1  0  0  0  0
 23 25  1  0  0  0  0
 26 27  2  0  0  0  0
 26 28  1  0  0  0  0
 28 29  1  0  0  0  0
 28 30  1  0  0  0  0
 30 31  1  0  0  0  0
 30 32  1  0  0  0  0
 30 33  1  0  0  0  0
M  END
$$$$

  -OEChem-03222214063D

 33 32  0     1  0  0  0  0  0999 V2000
   -2.6398   -5.1244    0.7347 H   0  0  0  0  0  0  0  0  0  0  0  0
   -2.7509   -4.1244    0.3057 C   0  0  0  0  0  0  0  0  0  0  0  0
   -3.5427   -3.5973    0.8432 H   0  0  0  0  0  0  0  0  0  0  0  0
   -3.0340   -4.2231   -0.7450 H   0  0  0  0  0  0  0  0  0  0  0  0
   -1.4460   -3.3595    0.4212 C   0  0  0  0  0  0  0  0  0  0  0  0
   -0.4785   -3.8848    0.9408 O   0  0  0  0  0  0  0  0  0  0  0  0
   -1.3679   -2.0692   -0.0643 N   0  0  0  0  0  0  0  0  0  0  0  0
   -2.2018   -1.6889   -0.4996 H   0  0  0  0  0  0  0  0  0  0  0  0
   -0.1500   -1.2352   -0.0425 C   0  0  1  0  0  0  0  0  0  0  0  0
    0.6293   -1.8004   -0.5664 H   0  0  0  0  0  0  0  0  0  0  0  0
   -0.3198    0.1162   -0.7910 C   0  0  0  0  0  0  0  0  0  0  0  0
   -0.0612    0.9502   -0.1285 H   0  0  0  0  0  0  0  0  0  0  0  0
    0.4250    0.1254   -1.5937 H   0  0  0  0  0  0  0  0  0  0  0  0
   -1.6940    0.3930   -1.4366 C   0  0  0  0  0  0  0  0  0  0  0  0
   -1.5332    1.0670   -2.2849 H   0  0  0  0  0  0  0  0  0  0  0  0
   -2.1473   -0.5134   -1.8468 H   0  0  0  0  0  0  0  0  0  0  0  0
   -2.6346    1.1018   -0.4539 C   0  0  0  0  0  0  0  0  0  0  0  0
   -2.7841    0.4745    0.4303 H   0  0  0  0  0  0  0  0  0  0  0  0
   -2.1842    2.0444   -0.1247 H   0  0  0  0  0  0  0  0  0  0  0  0
   -3.9834    1.3925   -1.1055 C   0  0  0  0  0  0  0  0  0  0  0  0
   -3.8451    2.0389   -1.9795 H   0  0  0  0  0  0  0  0  0  0  0  0
   -4.4492    0.4598   -1.4423 H   0  0  0  0  0  0  0  0  0  0  0  0
   -4.8420    2.0593   -0.1228 N   0  0  0  0  0  0  0  0  0  0  0  0
   -5.7433    2.3139   -0.5279 H   0  0  0  0  0  0  0  0  0  0  0  0
   -4.9652    1.4889    0.7132 H   0  0  0  0  0  0  0  0  0  0  0  0
    0.4023   -0.9748    1.3774 C   0  0  0  0  0  0  0  0  0  0  0  0
    1.6082   -0.8553    1.5484 O   0  0  0  0  0  0  0  0  0  0  0  0
   -0.4606   -0.6245    2.4005 N   0  0  0  0  0  0  0  0  0  0  0  0
   -1.4487   -0.7792    2.2337 H   0  0  0  0  0  0  0  0  0  0  0  0
   -0.0106   -0.3201    3.7524 C   0  0  0  0  0  0  0  0  0  0  0  0
    0.6965    0.5161    3.7425 H   0  0  0  0  0  0  0  0  0  0  0  0
   -0.8620   -0.0428    4.3813 H   0  0  0  0  0  0  0  0  0  0  0  0
    0.4805   -1.1925    4.1960 H   0  0  0  0  0  0  0  0  0  0  0  0
  1  2  1  0  0  0  0
  2  3  1  0  0  0  0
  2  4  1  0  0  0  0
  2  5  1  0  0  0  0
  5  6  2  0  0  0  0
  5  7  1  0  0  0  0
  7  8  1  0  0  0  0
  7  9  1  0  0  0  0
  9 10  1  0  0  0  0
  9 11  1  0  0  0  0
  9 26  1  0  0  0  0
 11 12  1  0  0  0  0
 11 13  1  0  0  0  0
 11 14  1  0  0  0  0
 14 15  1  0  0  0  0
 14 16  1  0  0  0  0
 14 17  1  0  0  0  0
 17 18  1  0  0  0  0
 17 19  1  0  0  0  0
 17 20  1  0  0  0  0
 20 21  1  0  0  0  0
 20 22  1  0  0  0  0
 20 23  1  0  0  0  0
 23 24  1  0  0  0  0
 23 25  1  0  0  0  0
 26 27  2  0  0  0  0
 26 28  1  0  0  0  0
 28 29  1  0  0  0  0
 28 30  1  0  0  0  0
 30 31  1  0  0  0  0
 30 32  1  0  0  0  0
 30 33  1  0  0  0  0
M  END
$$$$

  -OEChem-03222214063D

 33 32  0     1  0  0  0  0  0999 V2000
   -2.5569   -5.1922    0.7582 H   0  0  0  0  0  0  0  0  0  0  0  0
   -2.7020   -4.1952    0.3319 C   0  0  0  0  0  0  0  0  0  0  0  0
   -3.5062   -3.6943    0.8762 H   0  0  0  0  0  0  0  0  0  0  0  0
   -2.9889   -4.3008   -0.7172 H   0  0  0  0  0  0  0  0  0  0  0  0
   -1.4203   -3.3908    0.4400 C   0  0  0  0  0  0  0  0  0  0  0  0
   -0.4378   -3.8858    0.9612 O   0  0  0  0  0  0  0  0  0  0  0  0
   -1.3783   -2.1018   -0.0551 N   0  0  0  0  0  0  0  0  0  0  0  0
   -2.2189   -1.7547   -0.5038 H   0  0  0  0  0  0  0  0  0  0  0  0
   -0.1776   -1.2422   -0.0501 C   0  0  1  0  0  0  0  0  0  0  0  0
    0.6088   -1.7978   -0.5741 H   0  0  0  0  0  0  0  0  0  0  0  0
   -0.3582    0.1096   -0.7988 C   0  0  0  0  0  0  0  0  0  0  0  0
   -0.0893    0.9397   -0.1357 H   0  0  0  0  0  0  0  0  0  0  0  0
    0.3872    0.1191   -1.6010 H   0  0  0  0  0  0  0  0  0  0  0  0
   -1.7294    0.4063   -1.4516 C   0  0  0  0  0  0  0  0  0  0  0  0
   -1.5396    0.8533   -2.4336 H   0  0  0  0  0  0  0  0  0  0  0  0
   -2.3211   -0.4915   -1.6383 H   0  0  0  0  0  0  0  0  0  0  0  0
   -2.5210    1.4267   -0.6244 C   0  0  0  0  0  0  0  0  0  0  0  0
   -2.6948    1.0264    0.3795 H   0  0  0  0  0  0  0  0  0  0  0  0
   -1.9415    2.3509   -0.5237 H   0  0  0  0  0  0  0  0  0  0  0  0
   -3.8593    1.7471   -1.2835 C   0  0  0  0  0  0  0  0  0  0  0  0
   -3.6954    2.1497   -2.2893 H   0  0  0  0  0  0  0  0  0  0  0  0
   -4.4626    0.8373   -1.3750 H   0  0  0  0  0  0  0  0  0  0  0  0
   -4.5587    2.7367   -0.4593 N   0  0  0  0  0  0  0  0  0  0  0  0
   -5.4533    3.0010   -0.8728 H   0  0  0  0  0  0  0  0  0  0  0  0
   -4.6813    2.4051    0.4973 H   0  0  0  0  0  0  0  0  0  0  0  0
    0.3743   -0.9684    1.3677 C   0  0  0  0  0  0  0  0  0  0  0  0
    1.5773   -0.8182    1.5346 O   0  0  0  0  0  0  0  0  0  0  0  0
   -0.4943   -0.6343    2.3915 N   0  0  0  0  0  0  0  0  0  0  0  0
   -1.4775   -0.8206    2.2283 H   0  0  0  0  0  0  0  0  0  0  0  0
   -0.0482   -0.3277    3.7442 C   0  0  0  0  0  0  0  0  0  0  0  0
    0.6420    0.5227    3.7375 H   0  0  0  0  0  0  0  0  0  0  0  0
   -0.9040   -0.0714    4.3758 H   0  0  0  0  0  0  0  0  0  0  0  0
    0.4615   -1.1921    4.1825 H   0  0  0  0  0  0  0  0  0  0  0  0
  1  2  1  0  0  0  0
  2  3  1  0  0  0  0
  2  4  1  0  0  0  0
  2  5  1  0  0  0  0
  5  6  2  0  0  0  0
  5  7  1  0  0  0  0
  7  8  1  0  0  0  0
  7  9  1  0  0  0  0
  9 10  1  0  0  0  0
  9 11  1  0  0  0  0
  9 26  1  0  0  0  0
 11 12  1  0  0  0  0
 11 13  1  0  0  0  0
 11 14  1  0  0  0  0
 14 15  1  0  0  0  0
 14 16  1  0  0  0  0
 14 17  1  0  0  0  0
 17 18  1  0  0  0  0
 17 19  1  0  0  0  0
 17 20  1  0  0  0  0
 20 21  1  0  0  0  0
 20 22  1  0  0  0  0
 20 23  1  0  0  0  0
 23 24  1  0  0  0  0
 23 25  1  0  0  0  0
 26 27  2  0  0  0  0
 26 28  1  0  0  0  0
 28 29  1  0  0  0  0
 28 30  1  0  0  0  0
 30 31  1  0  0  0  0
 30 32  1  0  0  0  0
 30 33  1  0  0  0  0
M  END
$$$$

  -OEChem-03222214063D

 33 32  0     1  0  0  0  0  0999 V2000
   -2.5159   -5.2354    0.7640 H   0  0  0  0  0  0  0  0  0  0  0  0
   -2.6769   -4.2450    0.3281 C   0  0  0  0  0  0  0  0  0  0  0  0
   -3.5082   -3.7634    0.8484 H   0  0  0  0  0  0  0  0  0  0  0  0
   -2.9339   -4.3639   -0.7273 H   0  0  0  0  0  0  0  0  0  0  0  0
   -1.4201   -3.4059    0.4639 C   0  0  0  0  0  0  0  0  0  0  0  0
   -0.4365   -3.8747    1.0068 O   0  0  0  0  0  0  0  0  0  0  0  0
   -1.4014   -2.1170   -0.0334 N   0  0  0  0  0  0  0  0  0  0  0  0
   -2.2303   -1.8098   -0.5296 H   0  0  0  0  0  0  0  0  0  0  0  0
   -0.2111   -1.2423   -0.0433 C   0  0  1  0  0  0  0  0  0  0  0  0
    0.5748   -1.7947   -0.5714 H   0  0  0  0  0  0  0  0  0  0  0  0
   -0.4001    0.1057   -0.8012 C   0  0  0  0  0  0  0  0  0  0  0  0
   -0.1459    0.9291   -0.1241 H   0  0  0  0  0  0  0  0  0  0  0  0
    0.3558    0.1346   -1.5930 H   0  0  0  0  0  0  0  0  0  0  0  0
   -1.7692    0.4131   -1.4612 C   0  0  0  0  0  0  0  0  0  0  0  0
   -1.6058    0.5654   -2.5334 H   0  0  0  0  0  0  0  0  0  0  0  0
   -2.4857   -0.4028   -1.3695 H   0  0  0  0  0  0  0  0  0  0  0  0
   -2.3860    1.6879   -0.8713 C   0  0  0  0  0  0  0  0  0  0  0  0
   -2.5430    1.5547    0.2040 H   0  0  0  0  0  0  0  0  0  0  0  0
   -1.6977    2.5287   -1.0113 H   0  0  0  0  0  0  0  0  0  0  0  0
   -3.7176    2.0155   -1.5410 C   0  0  0  0  0  0  0  0  0  0  0  0
   -3.5729    2.1523   -2.6186 H   0  0  0  0  0  0  0  0  0  0  0  0
   -4.4260    1.1930   -1.3936 H   0  0  0  0  0  0  0  0  0  0  0  0
   -4.2455    3.2471   -0.9480 N   0  0  0  0  0  0  0  0  0  0  0  0
   -5.1356    3.5126   -1.3701 H   0  0  0  0  0  0  0  0  0  0  0  0
   -4.3317    3.1632    0.0649 H   0  0  0  0  0  0  0  0  0  0  0  0
    0.3558   -0.9590    1.3675 C   0  0  0  0  0  0  0  0  0  0  0  0
    1.5592   -0.7940    1.5183 O   0  0  0  0  0  0  0  0  0  0  0  0
   -0.5029   -0.6338    2.4023 N   0  0  0  0  0  0  0  0  0  0  0  0
   -1.4854   -0.8367    2.2535 H   0  0  0  0  0  0  0  0  0  0  0  0
   -0.0421   -0.3194    3.7485 C   0  0  0  0  0  0  0  0  0  0  0  0
    0.6366    0.5398    3.7308 H   0  0  0  0  0  0  0  0  0  0  0  0
   -0.8924   -0.0724    4.3909 H   0  0  0  0  0  0  0  0  0  0  0  0
    0.4846   -1.1760    4.1818 H   0  0  0  0  0  0  0  0  0  0  0  0
  1  2  1  0  0  0  0
  2  3  1  0  0  0  0
  2  4  1  0  0  0  0
  2  5  1  0  0  0  0
  5  6  2  0  0  0  0
  5  7  1  0  0  0  0
  7  8  1  0  0  0  0
  7  9  1  0  0  0  0
  9 10  1  0  0  0  0
  9 11  1  0  0  0  0
  9 26  1  0  0  0  0
 11 12  1  0  0  0  0
 11 13  1  0  0  0  0
 11 14  1  0  0  0  0
 14 15  1  0  0  0  0
 14 16  1  0  0  0  0
 14 17  1  0  0  0  0
 17 18  1  0  0  0  0
 17 19  1  0  0  0  0
 17 20  1  0  0  0  0
 20 21  1  0  0  0  0
 20 22  1  0  0  0  0
 20 23  1  0  0  0  0
 23 24  1  0  0  0  0
 23 25  1  0  0  0  0
 26 27  2  0  0  0  0
 26 28  1  0  0  0  0
 28 29  1  0  0  0  0
 28 30  1  0  0  0  0
 30 31  1  0  0  0  0
 30 32  1  0  0  0  0
 30 33  1  0  0  0  0
M  END
$$$$

  -OEChem-03222214063D

 33 32  0     1  0  0  0  0  0999 V2000
   -2.5250   -5.2342    0.7564 H   0  0  0  0  0  0  0  0  0  0  0  0
   -2.6780   -4.2523    0.2991 C   0  0  0  0  0  0  0  0  0  0  0  0
   -3.5405   -3.7754    0.7706 H   0  0  0  0  0  0  0  0  0  0  0  0
   -2.8812   -4.3889   -0.7658 H   0  0  0  0  0  0  0  0  0  0  0  0
   -1.4423   -3.3920    0.4851 C   0  0  0  0  0  0  0  0  0  0  0  0
   -0.4780   -3.8410    1.0771 O   0  0  0  0  0  0  0  0  0  0  0  0
   -1.4229   -2.1067   -0.0221 N   0  0  0  0  0  0  0  0  0  0  0  0
   -2.2117   -1.8433   -0.6026 H   0  0  0  0  0  0  0  0  0  0  0  0
   -0.2276   -1.2385   -0.0418 C   0  0  1  0  0  0  0  0  0  0  0  0
    0.5531   -1.7958   -0.5719 H   0  0  0  0  0  0  0  0  0  0  0  0
   -0.4211    0.1057   -0.8064 C   0  0  0  0  0  0  0  0  0  0  0  0
   -0.1865    0.9233   -0.1151 H   0  0  0  0  0  0  0  0  0  0  0  0
    0.3376    0.1578   -1.5942 H   0  0  0  0  0  0  0  0  0  0  0  0
   -1.7980    0.4025   -1.4530 C   0  0  0  0  0  0  0  0  0  0  0  0
   -1.7304    0.2381   -2.5335 H   0  0  0  0  0  0  0  0  0  0  0  0
   -2.5846   -0.2482   -1.0694 H   0  0  0  0  0  0  0  0  0  0  0  0
   -2.2357    1.8439   -1.1602 C   0  0  0  0  0  0  0  0  0  0  0  0
   -2.3263    1.9891   -0.0787 H   0  0  0  0  0  0  0  0  0  0  0  0
   -1.4756    2.5392   -1.5326 H   0  0  0  0  0  0  0  0  0  0  0  0
   -3.5718    2.1596   -1.8268 C   0  0  0  0  0  0  0  0  0  0  0  0
   -3.4952    2.0142   -2.9101 H   0  0  0  0  0  0  0  0  0  0  0  0
   -4.3503    1.4891   -1.4465 H   0  0  0  0  0  0  0  0  0  0  0  0
   -3.9189    3.5530   -1.5346 N   0  0  0  0  0  0  0  0  0  0  0  0
   -4.8062    3.8146   -1.9646 H   0  0  0  0  0  0  0  0  0  0  0  0
   -3.9336    3.7280   -0.5297 H   0  0  0  0  0  0  0  0  0  0  0  0
    0.3482   -0.9474    1.3643 C   0  0  0  0  0  0  0  0  0  0  0  0
    1.5529   -0.7830    1.5048 O   0  0  0  0  0  0  0  0  0  0  0  0
   -0.5029   -0.6098    2.4013 N   0  0  0  0  0  0  0  0  0  0  0  0
   -1.4836   -0.8301    2.2656 H   0  0  0  0  0  0  0  0  0  0  0  0
   -0.0312   -0.2899    3.7425 C   0  0  0  0  0  0  0  0  0  0  0  0
    0.6621    0.5574    3.7135 H   0  0  0  0  0  0  0  0  0  0  0  0
   -0.8745   -0.0219    4.3859 H   0  0  0  0  0  0  0  0  0  0  0  0
    0.4827   -1.1512    4.1819 H   0  0  0  0  0  0  0  0  0  0  0  0
  1  2  1  0  0  0  0
  2  3  1  0  0  0  0
  2  4  1  0  0  0  0
  2  5  1  0  0  0  0
  5  6  2  0  0  0  0
  5  7  1  0  0  0  0
  7  8  1  0  0  0  0
  7  9  1  0  0  0  0
  9 10  1  0  0  0  0
  9 11  1  0  0  0  0
  9 26  1  0  0  0  0
 11 12  1  0  0  0  0
 11 13  1  0  0  0  0
 11 14  1  0  0  0  0
 14 15  1  0  0  0  0
 14 16  1  0  0  0  0
 14 17  1  0  0  0  0
 17 18  1  0  0  0  0
 17 19  1  0  0  0  0
 17 20  1  0  0  0  0
 20 21  1  0  0  0  0
 20 22  1  0  0  0  0
 20 23  1  0  0  0  0
 23 24  1  0  0  0  0
 23 25  1  0  0  0  0
 26 27  2  0  0  0  0
 26 28  1  0  0  0  0
 28 29  1  0  0  0  0
 28 30  1  0  0  0  0
 30 31  1  0  0  0  0
 30 32  1  0  0  0  0
 30 33  1  0  0  0  0
M  END
$$$$

  -OEChem-03222214063D

 33 32  0     1  0  0  0  0  0999 V2000
   -2.5900   -5.1809    0.7376 H   0  0  0  0  0  0  0  0  0  0  0  0
   -2.7226   -4.1967    0.2790 C   0  0  0  0  0  0  0  0  0  0  0  0
   -3.5811   -3.7056    0.7432 H   0  0  0  0  0  0  0  0  0  0  0  0
   -2.9187   -4.3300   -0.7875 H   0  0  0  0  0  0  0  0  0  0  0  0
   -1.4743   -3.3573    0.4765 C   0  0  0  0  0  0  0  0  0  0  0  0
   -0.5244   -3.8203    1.0809 O   0  0  0  0  0  0  0  0  0  0  0  0
   -1.4290   -2.0726   -0.0301 N   0  0  0  0  0  0  0  0  0  0  0  0
   -2.2058   -1.7976   -0.6221 H   0  0  0  0  0  0  0  0  0  0  0  0
   -0.2191   -1.2248   -0.0443 C   0  0  1  0  0  0  0  0  0  0  0  0
    0.5548   -1.7904   -0.5758 H   0  0  0  0  0  0  0  0  0  0  0  0
   -0.4097    0.1170   -0.8099 C   0  0  0  0  0  0  0  0  0  0  0  0
   -0.1881    0.9362   -0.1161 H   0  0  0  0  0  0  0  0  0  0  0  0
    0.3445    0.1763   -1.6017 H   0  0  0  0  0  0  0  0  0  0  0  0
   -1.7960    0.3870   -1.4377 C   0  0  0  0  0  0  0  0  0  0  0  0
   -1.8365   -0.0484   -2.4417 H   0  0  0  0  0  0  0  0  0  0  0  0
   -2.5931   -0.0599   -0.8384 H   0  0  0  0  0  0  0  0  0  0  0  0
   -2.0842    1.8930   -1.4820 C   0  0  0  0  0  0  0  0  0  0  0  0
   -2.0832    2.3015   -0.4658 H   0  0  0  0  0  0  0  0  0  0  0  0
   -1.2956    2.3979   -2.0502 H   0  0  0  0  0  0  0  0  0  0  0  0
   -3.4331    2.1734   -2.1385 C   0  0  0  0  0  0  0  0  0  0  0  0
   -3.4499    1.7598   -3.1530 H   0  0  0  0  0  0  0  0  0  0  0  0
   -4.2373    1.7005   -1.5640 H   0  0  0  0  0  0  0  0  0  0  0  0
   -3.6338    3.6241   -2.1881 N   0  0  0  0  0  0  0  0  0  0  0  0
   -4.5235    3.8628   -2.6264 H   0  0  0  0  0  0  0  0  0  0  0  0
   -3.5612    4.0394   -1.2592 H   0  0  0  0  0  0  0  0  0  0  0  0
    0.3596   -0.9401    1.3616 C   0  0  0  0  0  0  0  0  0  0  0  0
    1.5666   -0.7937    1.5026 O   0  0  0  0  0  0  0  0  0  0  0  0
   -0.4877   -0.5862    2.3965 N   0  0  0  0  0  0  0  0  0  0  0  0
   -1.4705   -0.7979    2.2620 H   0  0  0  0  0  0  0  0  0  0  0  0
   -0.0121   -0.2740    3.7382 C   0  0  0  0  0  0  0  0  0  0  0  0
    0.6949    0.5619    3.7107 H   0  0  0  0  0  0  0  0  0  0  0  0
   -0.8517    0.0077    4.3806 H   0  0  0  0  0  0  0  0  0  0  0  0
    0.4874   -1.1435    4.1782 H   0  0  0  0  0  0  0  0  0  0  0  0
  1  2  1  0  0  0  0
  2  3  1  0  0  0  0
  2  4  1  0  0  0  0
  2  5  1  0  0  0  0
  5  6  2  0  0  0  0
  5  7  1  0  0  0  0
  7  8  1  0  0  0  0
  7  9  1  0  0  0  0
  9 10  1  0  0  0  0
  9 11  1  0  0  0  0
  9 26  1  0  0  0  0
 11 12  1  0  0  0  0
 11 13  1  0  0  0  0
 11 14  1  0  0  0  0
 14 15  1  0  0  0  0
 14 16  1  0  0  0  0
 14 17  1  0  0  0  0
 17 18  1  0  0  0  0
 17 19  1  0  0  0  0
 17 20  1  0  0  0  0
 20 21  1  0  0  0  0
 20 22  1  0  0  0  0
 20 23  1  0  0  0  0
 23 24  1  0  0  0  0
 23 25  1  0  0  0  0
 26 27  2  0  0  0  0
 26 28  1  0  0  0  0
 28 29  1  0  0  0  0
 28 30  1  0  0  0  0
 30 31  1  0  0  0  0
 30 32  1  0  0  0  0
 30 33  1  0  0  0  0
M  END
$$$$

  -OEChem-03222214063D

 33 32  0     1  0  0  0  0  0999 V2000
   -2.6487   -5.1307    0.7234 H   0  0  0  0  0  0  0  0  0  0  0  0
   -2.7648   -4.1426    0.2688 C   0  0  0  0  0  0  0  0  0  0  0  0
   -3.6143   -3.6390    0.7361 H   0  0  0  0  0  0  0  0  0  0  0  0
   -2.9648   -4.2687   -0.7979 H   0  0  0  0  0  0  0  0  0  0  0  0
   -1.5016   -3.3256    0.4667 C   0  0  0  0  0  0  0  0  0  0  0  0
   -0.5607   -3.8046    1.0729 O   0  0  0  0  0  0  0  0  0  0  0  0
   -1.4329   -2.0424   -0.0406 N   0  0  0  0  0  0  0  0  0  0  0  0
   -2.2087   -1.7473   -0.6245 H   0  0  0  0  0  0  0  0  0  0  0  0
   -0.2098   -1.2131   -0.0482 C   0  0  1  0  0  0  0  0  0  0  0  0
    0.5588   -1.7873   -0.5782 H   0  0  0  0  0  0  0  0  0  0  0  0
   -0.3915    0.1266   -0.8152 C   0  0  0  0  0  0  0  0  0  0  0  0
   -0.1725    0.9539   -0.1306 H   0  0  0  0  0  0  0  0  0  0  0  0
    0.3576    0.1755   -1.6125 H   0  0  0  0  0  0  0  0  0  0  0  0
   -1.7821    0.3744   -1.4307 C   0  0  0  0  0  0  0  0  0  0  0  0
   -1.9203   -0.2716   -2.3043 H   0  0  0  0  0  0  0  0  0  0  0  0
   -2.5640    0.1441   -0.7001 H   0  0  0  0  0  0  0  0  0  0  0  0
   -1.9392    1.8477   -1.8249 C   0  0  0  0  0  0  0  0  0  0  0  0
   -1.8222    2.4831   -0.9410 H   0  0  0  0  0  0  0  0  0  0  0  0
   -1.1569    2.1192   -2.5416 H   0  0  0  0  0  0  0  0  0  0  0  0
   -3.3063    2.1025   -2.4529 C   0  0  0  0  0  0  0  0  0  0  0  0
   -3.4414    1.4622   -3.3318 H   0  0  0  0  0  0  0  0  0  0  0  0
   -4.1000    1.8680   -1.7349 H   0  0  0  0  0  0  0  0  0  0  0  0
   -3.3814    3.5117   -2.8471 N   0  0  0  0  0  0  0  0  0  0  0  0
   -4.2803    3.7310   -3.2768 H   0  0  0  0  0  0  0  0  0  0  0  0
   -3.1959    4.1269   -2.0546 H   0  0  0  0  0  0  0  0  0  0  0  0
    0.3683   -0.9331    1.3584 C   0  0  0  0  0  0  0  0  0  0  0  0
    1.5766   -0.8022    1.5030 O   0  0  0  0  0  0  0  0  0  0  0  0
   -0.4775   -0.5636    2.3888 N   0  0  0  0  0  0  0  0  0  0  0  0
   -1.4620   -0.7650    2.2518 H   0  0  0  0  0  0  0  0  0  0  0  0
   -0.0027   -0.2615    3.7328 C   0  0  0  0  0  0  0  0  0  0  0  0
    0.7153    0.5650    3.7101 H   0  0  0  0  0  0  0  0  0  0  0  0
   -0.8408    0.0292    4.3732 H   0  0  0  0  0  0  0  0  0  0  0  0
    0.4836   -1.1388    4.1721 H   0  0  0  0  0  0  0  0  0  0  0  0
  1  2  1  0  0  0  0
  2  3  1  0  0  0  0
  2  4  1  0  0  0  0
  2  5  1  0  0  0  0
  5  6  2  0  0  0  0
  5  7  1  0  0  0  0
  7  8  1  0  0  0  0
  7  9  1  0  0  0  0
  9 10  1  0  0  0  0
  9 11  1  0  0  0  0
  9 26  1  0  0  0  0
 11 12  1  0  0  0  0
 11 13  1  0  0  0  0
 11 14  1  0  0  0  0
 14 15  1  0  0  0  0
 14 16  1  0  0  0  0
 14 17  1  0  0  0  0
 17 18  1  0  0  0  0
 17 19  1  0  0  0  0
 17 20  1  0  0  0  0
 20 21  1  0  0  0  0
 20 22  1  0  0  0  0
 20 23  1  0  0  0  0
 23 24  1  0  0  0  0
 23 25  1  0  0  0  0
 26 27  2  0  0  0  0
 26 28  1  0  0  0  0
 28 29  1  0  0  0  0
 28 30  1  0  0  0  0
 30 31  1  0  0  0  0
 30 32  1  0  0  0  0
 30 33  1  0  0  0  0
M  END
$$$$

  -OEChem-03222214063D

 33 32  0     1  0  0  0  0  0999 V2000
   -2.6667   -5.0991    0.7061 H   0  0  0  0  0  0  0  0  0  0  0  0
   -2.7757   -4.1065    0.2596 C   0  0  0  0  0  0  0  0  0  0  0  0
   -3.6164   -3.5970    0.7363 H   0  0  0  0  0  0  0  0  0  0  0  0
   -2.9845   -4.2233   -0.8065 H   0  0  0  0  0  0  0  0  0  0  0  0
   -1.5026   -3.3045    0.4552 C   0  0  0  0  0  0  0  0  0  0  0  0
   -0.5716   -3.7891    1.0720 O   0  0  0  0  0  0  0  0  0  0  0  0
   -1.4153   -2.0269   -0.0632 N   0  0  0  0  0  0  0  0  0  0  0  0
   -2.1872   -1.7240   -0.6482 H   0  0  0  0  0  0  0  0  0  0  0  0
   -0.1845   -1.2090   -0.0653 C   0  0  1  0  0  0  0  0  0  0  0  0
    0.5941   -1.7781   -0.5860 H   0  0  0  0  0  0  0  0  0  0  0  0
   -0.3685    0.1364   -0.8171 C   0  0  0  0  0  0  0  0  0  0  0  0
    0.1300    0.9405   -0.2637 H   0  0  0  0  0  0  0  0  0  0  0  0
    0.1483    0.0513   -1.7790 H   0  0  0  0  0  0  0  0  0  0  0  0
   -1.8245    0.5491   -1.0973 C   0  0  0  0  0  0  0  0  0  0  0  0
   -2.3177   -0.2072   -1.7161 H   0  0  0  0  0  0  0  0  0  0  0  0
   -2.3701    0.6348   -0.1516 H   0  0  0  0  0  0  0  0  0  0  0  0
   -1.8639    1.8894   -1.8397 C   0  0  0  0  0  0  0  0  0  0  0  0
   -1.3582    2.6554   -1.2428 H   0  0  0  0  0  0  0  0  0  0  0  0
   -1.3313    1.7980   -2.7922 H   0  0  0  0  0  0  0  0  0  0  0  0
   -3.3023    2.3244   -2.1055 C   0  0  0  0  0  0  0  0  0  0  0  0
   -3.8251    1.5584   -2.6886 H   0  0  0  0  0  0  0  0  0  0  0  0
   -3.8370    2.4557   -1.1582 H   0  0  0  0  0  0  0  0  0  0  0  0
   -3.2769    3.5857   -2.8510 N   0  0  0  0  0  0  0  0  0  0  0  0
   -4.2201    3.9267   -3.0374 H   0  0  0  0  0  0  0  0  0  0  0  0
   -2.7248    4.2912   -2.3627 H   0  0  0  0  0  0  0  0  0  0  0  0
    0.3709   -0.9279    1.3506 C   0  0  0  0  0  0  0  0  0  0  0  0
    1.5781   -0.8164    1.5185 O   0  0  0  0  0  0  0  0  0  0  0  0
   -0.4871   -0.5449    2.3661 N   0  0  0  0  0  0  0  0  0  0  0  0
   -1.4712   -0.7360    2.2125 H   0  0  0  0  0  0  0  0  0  0  0  0
   -0.0297   -0.2715    3.7227 C   0  0  0  0  0  0  0  0  0  0  0  0
    0.7027    0.5429    3.7251 H   0  0  0  0  0  0  0  0  0  0  0  0
   -0.8731    0.0233    4.3543 H   0  0  0  0  0  0  0  0  0  0  0  0
    0.4346   -1.1638    4.1559 H   0  0  0  0  0  0  0  0  0  0  0  0
  1  2  1  0  0  0  0
  2  3  1  0  0  0  0
  2  4  1  0  0  0  0
  2  5  1  0  0  0  0
  5  6  2  0  0  0  0
  5  7  1  0  0  0  0
  7  8  1  0  0  0  0
  7  9  1  0  0  0  0
  9 10  1  0  0  0  0
  9 11  1  0  0  0  0
  9 26  1  0  0  0  0
 11 12  1  0  0  0  0
 11 13  1  0  0  0  0
 11 14  1  0  0  0  0
 14 15  1  0  0  0  0
 14 16  1  0  0  0  0
 14 17  1  0  0  0  0
 17 18  1  0  0  0  0
 17 19  1  0  0  0  0
 17 20  1  0  0  0  0
 20 21  1  0  0  0  0
 20 22  1  0  0  0  0
 20 23  1  0  0  0  0
 23 24  1  0  0  0  0
 23 25  1  0  0  0  0
 26 27  2  0  0  0  0
 26 28  1  0  0  0  0
 28 29  1  0  0  0  0
 28 30  1  0  0  0  0
 30 31  1  0  0  0  0
 30 32  1  0  0  0  0
 30 33  1  0  0  0  0
M  END
$$$$

  -OEChem-03222214063D

 33 32  0     1  0  0  0  0  0999 V2000
   -2.6266   -5.1364    0.7570 H   0  0  0  0  0  0  0  0  0  0  0  0
   -2.7530   -4.1496    0.3023 C   0  0  0  0  0  0  0  0  0  0  0  0
   -3.5978   -3.6483    0.7806 H   0  0  0  0  0  0  0  0  0  0  0  0
   -2.9678   -4.2790   -0.7611 H   0  0  0  0  0  0  0  0  0  0  0  0
   -1.4905   -3.3271    0.4809 C   0  0  0  0  0  0  0  0  0  0  0  0
   -0.5434   -3.7975    1.0841 O   0  0  0  0  0  0  0  0  0  0  0  0
   -1.4288   -2.0496   -0.0417 N   0  0  0  0  0  0  0  0  0  0  0  0
   -2.2107   -1.7633   -0.6214 H   0  0  0  0  0  0  0  0  0  0  0  0
   -0.2095   -1.2154   -0.0632 C   0  0  1  0  0  0  0  0  0  0  0  0
    0.5681   -1.7821   -0.5877 H   0  0  0  0  0  0  0  0  0  0  0  0
   -0.4021    0.1273   -0.8207 C   0  0  0  0  0  0  0  0  0  0  0  0
    0.1067    0.9380   -0.2865 H   0  0  0  0  0  0  0  0  0  0  0  0
    0.1107    0.0196   -1.7824 H   0  0  0  0  0  0  0  0  0  0  0  0
   -1.8541    0.5580   -1.1087 C   0  0  0  0  0  0  0  0  0  0  0  0
   -2.4351   -0.2753   -1.5126 H   0  0  0  0  0  0  0  0  0  0  0  0
   -2.3272    0.8917   -0.1793 H   0  0  0  0  0  0  0  0  0  0  0  0
   -1.8775    1.6762   -2.1571 C   0  0  0  0  0  0  0  0  0  0  0  0
   -1.2649    2.5154   -1.8117 H   0  0  0  0  0  0  0  0  0  0  0  0
   -1.4492    1.3092   -3.0962 H   0  0  0  0  0  0  0  0  0  0  0  0
   -3.3020    2.1621   -2.4107 C   0  0  0  0  0  0  0  0  0  0  0  0
   -3.9319    1.3285   -2.7403 H   0  0  0  0  0  0  0  0  0  0  0  0
   -3.7303    2.5690   -1.4880 H   0  0  0  0  0  0  0  0  0  0  0  0
   -3.2617    3.1952   -3.4491 N   0  0  0  0  0  0  0  0  0  0  0  0
   -4.1934    3.5600   -3.6477 H   0  0  0  0  0  0  0  0  0  0  0  0
   -2.6227    3.9487   -3.1939 H   0  0  0  0  0  0  0  0  0  0  0  0
    0.3605   -0.9246    1.3449 C   0  0  0  0  0  0  0  0  0  0  0  0
    1.5684   -0.7948    1.4957 O   0  0  0  0  0  0  0  0  0  0  0  0
   -0.4894   -0.5515    2.3710 N   0  0  0  0  0  0  0  0  0  0  0  0
   -1.4730   -0.7571    2.2317 H   0  0  0  0  0  0  0  0  0  0  0  0
   -0.0173   -0.2639    3.7196 C   0  0  0  0  0  0  0  0  0  0  0  0
    0.7026    0.5609    3.7062 H   0  0  0  0  0  0  0  0  0  0  0  0
   -0.8559    0.0223    4.3611 H   0  0  0  0  0  0  0  0  0  0  0  0
    0.4660   -1.1467    4.1512 H   0  0  0  0  0  0  0  0  0  0  0  0
  1  2  1  0  0  0  0
  2  3  1  0  0  0  0
  2  4  1  0  0  0  0
  2  5  1  0  0  0  0
  5  6  2  0  0  0  0
  5  7  1  0  0  0  0
  7  8  1  0  0  0  0
  7  9  1  0  0  0  0
  9 10  1  0  0  0  0
  9 11  1  0  0  0  0
  9 26  1  0  0  0  0
 11 12  1  0  0  0  0
 11 13  1  0  0  0  0
 11 14  1  0  0  0  0
 14 15  1  0  0  0  0
 14 16  1  0  0  0  0
 14 17  1  0  0  0  0
 17 18  1  0  0  0  0
 17 19  1  0  0  0  0
 17 20  1  0  0  0  0
 20 21  1  0  0  0  0
 20 22  1  0  0  0  0
 20 23  1  0  0  0  0
 23 24  1  0  0  0  0
 23 25  1  0  0  0  0
 26 27  2  0  0  0  0
 26 28  1  0  0  0  0
 28 29  1  0  0  0  0
 28 30  1  0  0  0  0
 30 31  1  0  0  0  0
 30 32  1  0  0  0  0
 30 33  1  0  0  0  0
M  END
$$$$

  -OEChem-03222214063D

 33 32  0     1  0  0  0  0  0999 V2000
   -2.5990   -5.1679    0.8101 H   0  0  0  0  0  0  0  0  0  0  0  0
   -2.7364   -4.1873    0.3451 C   0  0  0  0  0  0  0  0  0  0  0  0
   -3.5916   -3.6938    0.8129 H   0  0  0  0  0  0  0  0  0  0  0  0
   -2.9415   -4.3301   -0.7186 H   0  0  0  0  0  0  0  0  0  0  0  0
   -1.4875   -3.3443    0.5241 C   0  0  0  0  0  0  0  0  0  0  0  0
   -0.5419   -3.7913    1.1473 O   0  0  0  0  0  0  0  0  0  0  0  0
   -1.4390   -2.0740   -0.0180 N   0  0  0  0  0  0  0  0  0  0  0  0
   -2.2101   -1.8225   -0.6273 H   0  0  0  0  0  0  0  0  0  0  0  0
   -0.2239   -1.2345   -0.0659 C   0  0  1  0  0  0  0  0  0  0  0  0
    0.5509   -1.8051   -0.5911 H   0  0  0  0  0  0  0  0  0  0  0  0
   -0.4190    0.1077   -0.8277 C   0  0  0  0  0  0  0  0  0  0  0  0
    0.1123    0.9178   -0.3154 H   0  0  0  0  0  0  0  0  0  0  0  0
    0.0845   -0.0236   -1.7913 H   0  0  0  0  0  0  0  0  0  0  0  0
   -1.8651    0.5730   -1.1151 C   0  0  0  0  0  0  0  0  0  0  0  0
   -2.5439   -0.2695   -1.2579 H   0  0  0  0  0  0  0  0  0  0  0  0
   -2.2305    1.1577   -0.2643 H   0  0  0  0  0  0  0  0  0  0  0  0
   -1.9177    1.4022   -2.4038 C   0  0  0  0  0  0  0  0  0  0  0  0
   -1.2189    2.2418   -2.3282 H   0  0  0  0  0  0  0  0  0  0  0  0
   -1.6115    0.7828   -3.2537 H   0  0  0  0  0  0  0  0  0  0  0  0
   -3.3254    1.9372   -2.6521 C   0  0  0  0  0  0  0  0  0  0  0  0
   -4.0405    1.1085   -2.7001 H   0  0  0  0  0  0  0  0  0  0  0  0
   -3.6260    2.5993   -1.8323 H   0  0  0  0  0  0  0  0  0  0  0  0
   -3.3275    2.6687   -3.9217 N   0  0  0  0  0  0  0  0  0  0  0  0
   -4.2514    3.0475   -4.1306 H   0  0  0  0  0  0  0  0  0  0  0  0
   -2.6232    3.4071   -3.9216 H   0  0  0  0  0  0  0  0  0  0  0  0
    0.3557   -0.9250    1.3341 C   0  0  0  0  0  0  0  0  0  0  0  0
    1.5639   -0.7868    1.4748 O   0  0  0  0  0  0  0  0  0  0  0  0
   -0.4895   -0.5442    2.3610 N   0  0  0  0  0  0  0  0  0  0  0  0
   -1.4713   -0.7628    2.2295 H   0  0  0  0  0  0  0  0  0  0  0  0
   -0.0109   -0.2543    3.7067 C   0  0  0  0  0  0  0  0  0  0  0  0
    0.7058    0.5734    3.6896 H   0  0  0  0  0  0  0  0  0  0  0  0
   -0.8474    0.0283    4.3527 H   0  0  0  0  0  0  0  0  0  0  0  0
    0.4785   -1.1352    4.1354 H   0  0  0  0  0  0  0  0  0  0  0  0
  1  2  1  0  0  0  0
  2  3  1  0  0  0  0
  2  4  1  0  0  0  0
  2  5  1  0  0  0  0
  5  6  2  0  0  0  0
  5  7  1  0  0  0  0
  7  8  1  0  0  0  0
  7  9  1  0  0  0  0
  9 10  1  0  0  0  0
  9 11  1  0  0  0  0
  9 26  1  0  0  0  0
 11 12  1  0  0  0  0
 11 13  1  0  0  0  0
 11 14  1  0  0  0  0
 14 15  1  0  0  0  0
 14 16  1  0  0  0  0
 14 17  1  0  0  0  0
 17 18  1  0  0  0  0
 17 19  1  0  0  0  0
 17 20  1  0  0  0  0
 20 21  1  0  0  0  0
 20 22  1  0  0  0  0
 20 23  1  0  0  0  0
 23 24  1  0  0  0  0
 23 25  1  0  0  0  0
 26 27  2  0  0  0  0
 26 28  1  0  0  0  0
 28 29  1  0  0  0  0
 28 30  1  0  0  0  0
 30 31  1  0  0  0  0
 30 32  1  0  0  0  0
 30 33  1  0  0  0  0
M  END
$$$$

  -OEChem-03222214063D

 33 32  0     1  0  0  0  0  0999 V2000
   -2.6073   -5.1697    0.8341 H   0  0  0  0  0  0  0  0  0  0  0  0
   -2.7401   -4.1943    0.3571 C   0  0  0  0  0  0  0  0  0  0  0  0
   -3.6031   -3.6973    0.8063 H   0  0  0  0  0  0  0  0  0  0  0  0
   -2.9291   -4.3483   -0.7079 H   0  0  0  0  0  0  0  0  0  0  0  0
   -1.4957   -3.3473    0.5471 C   0  0  0  0  0  0  0  0  0  0  0  0
   -0.5547   -3.7897    1.1804 O   0  0  0  0  0  0  0  0  0  0  0  0
   -1.4456   -2.0800   -0.0012 N   0  0  0  0  0  0  0  0  0  0  0  0
   -2.2046   -1.8426   -0.6318 H   0  0  0  0  0  0  0  0  0  0  0  0
   -0.2273   -1.2467   -0.0582 C   0  0  1  0  0  0  0  0  0  0  0  0
    0.5423   -1.8237   -0.5837 H   0  0  0  0  0  0  0  0  0  0  0  0
   -0.4177    0.0936   -0.8261 C   0  0  0  0  0  0  0  0  0  0  0  0
    0.1216    0.8995   -0.3152 H   0  0  0  0  0  0  0  0  0  0  0  0
    0.0915   -0.0426   -1.7862 H   0  0  0  0  0  0  0  0  0  0  0  0
   -1.8591    0.5827   -1.1187 C   0  0  0  0  0  0  0  0  0  0  0  0
   -2.6091   -0.1944   -0.9682 H   0  0  0  0  0  0  0  0  0  0  0  0
   -2.0976    1.3957   -0.4247 H   0  0  0  0  0  0  0  0  0  0  0  0
   -1.9893    1.0750   -2.5652 C   0  0  0  0  0  0  0  0  0  0  0  0
   -1.2440    1.8538   -2.7577 H   0  0  0  0  0  0  0  0  0  0  0  0
   -1.7974    0.2449   -3.2534 H   0  0  0  0  0  0  0  0  0  0  0  0
   -3.3846    1.6343   -2.8290 C   0  0  0  0  0  0  0  0  0  0  0  0
   -4.1431    0.8747   -2.6092 H   0  0  0  0  0  0  0  0  0  0  0  0
   -3.5710    2.4995   -2.1831 H   0  0  0  0  0  0  0  0  0  0  0  0
   -3.4683    2.0256   -4.2385 N   0  0  0  0  0  0  0  0  0  0  0  0
   -4.3832    2.4185   -4.4611 H   0  0  0  0  0  0  0  0  0  0  0  0
   -2.7236    2.6789   -4.4830 H   0  0  0  0  0  0  0  0  0  0  0  0
    0.3604   -0.9335    1.3381 C   0  0  0  0  0  0  0  0  0  0  0  0
    1.5701   -0.8008    1.4714 O   0  0  0  0  0  0  0  0  0  0  0  0
   -0.4770   -0.5438    2.3683 N   0  0  0  0  0  0  0  0  0  0  0  0
   -1.4607   -0.7579    2.2439 H   0  0  0  0  0  0  0  0  0  0  0  0
    0.0110   -0.2506    3.7097 C   0  0  0  0  0  0  0  0  0  0  0  0
    0.7404    0.5658    3.6835 H   0  0  0  0  0  0  0  0  0  0  0  0
   -0.8184    0.0498    4.3568 H   0  0  0  0  0  0  0  0  0  0  0  0
    0.4882   -1.1357    4.1435 H   0  0  0  0  0  0  0  0  0  0  0  0
  1  2  1  0  0  0  0
  2  3  1  0  0  0  0
  2  4  1  0  0  0  0
  2  5  1  0  0  0  0
  5  6  2  0  0  0  0
  5  7  1  0  0  0  0
  7  8  1  0  0  0  0
  7  9  1  0  0  0  0
  9 10  1  0  0  0  0
  9 11  1  0  0  0  0
  9 26  1  0  0  0  0
 11 12  1  0  0  0  0
 11 13  1  0  0  0  0
 11 14  1  0  0  0  0
 14 15  1  0  0  0  0
 14 16  1  0  0  0  0
 14 17  1  0  0  0  0
 17 18  1  0  0  0  0
 17 19  1  0  0  0  0
 17 20  1  0  0  0  0
 20 21  1  0  0  0  0
 20 22  1  0  0  0  0
 20 23  1  0  0  0  0
 23 24  1  0  0  0  0
 23 25  1  0  0  0  0
 26 27  2  0  0  0  0
 26 28  1  0  0  0  0
 28 29  1  0  0  0  0
 28 30  1  0  0  0  0
 30 31  1  0  0  0  0
 30 32  1  0  0  0  0
 30 33  1  0  0  0  0
M  END
$$$$

  -OEChem-03222214063D

 33 32  0     1  0  0  0  0  0999 V2000
   -2.6585   -5.1362    0.8086 H   0  0  0  0  0  0  0  0  0  0  0  0
   -2.7723   -4.1582    0.3322 C   0  0  0  0  0  0  0  0  0  0  0  0
   -3.6347   -3.6514    0.7716 H   0  0  0  0  0  0  0  0  0  0  0  0
   -2.9491   -4.3072   -0.7357 H   0  0  0  0  0  0  0  0  0  0  0  0
   -1.5196   -3.3281    0.5401 C   0  0  0  0  0  0  0  0  0  0  0  0
   -0.5939   -3.7841    1.1860 O   0  0  0  0  0  0  0  0  0  0  0  0
   -1.4439   -2.0605   -0.0040 N   0  0  0  0  0  0  0  0  0  0  0  0
   -2.1898   -1.8109   -0.6463 H   0  0  0  0  0  0  0  0  0  0  0  0
   -0.2111   -1.2483   -0.0500 C   0  0  1  0  0  0  0  0  0  0  0  0
    0.5511   -1.8360   -0.5743 H   0  0  0  0  0  0  0  0  0  0  0  0
   -0.3844    0.0922   -0.8211 C   0  0  0  0  0  0  0  0  0  0  0  0
    0.1421    0.8898   -0.2844 H   0  0  0  0  0  0  0  0  0  0  0  0
    0.1460   -0.0227   -1.7725 H   0  0  0  0  0  0  0  0  0  0  0  0
   -1.8237    0.5874   -1.1163 C   0  0  0  0  0  0  0  0  0  0  0  0
   -2.5950   -0.0464   -0.6758 H   0  0  0  0  0  0  0  0  0  0  0  0
   -1.9412    1.5741   -0.6554 H   0  0  0  0  0  0  0  0  0  0  0  0
   -2.0676    0.7225   -2.6237 C   0  0  0  0  0  0  0  0  0  0  0  0
   -1.3251    1.3986   -3.0601 H   0  0  0  0  0  0  0  0  0  0  0  0
   -1.9544   -0.2574   -3.0996 H   0  0  0  0  0  0  0  0  0  0  0  0
   -3.4675    1.2608   -2.9043 C   0  0  0  0  0  0  0  0  0  0  0  0
   -4.2204    0.6202   -2.4317 H   0  0  0  0  0  0  0  0  0  0  0  0
   -3.5718    2.2704   -2.4917 H   0  0  0  0  0  0  0  0  0  0  0  0
   -3.6734    1.2802   -4.3546 N   0  0  0  0  0  0  0  0  0  0  0  0
   -4.5966    1.6435   -4.5932 H   0  0  0  0  0  0  0  0  0  0  0  0
   -2.9406    1.8154   -4.8217 H   0  0  0  0  0  0  0  0  0  0  0  0
    0.3758   -0.9466    1.3491 C   0  0  0  0  0  0  0  0  0  0  0  0
    1.5870   -0.8332    1.4871 O   0  0  0  0  0  0  0  0  0  0  0  0
   -0.4595   -0.5437    2.3758 N   0  0  0  0  0  0  0  0  0  0  0  0
   -1.4459   -0.7430    2.2473 H   0  0  0  0  0  0  0  0  0  0  0  0
    0.0272   -0.2550    3.7190 C   0  0  0  0  0  0  0  0  0  0  0  0
    0.7700    0.5494    3.6947 H   0  0  0  0  0  0  0  0  0  0  0  0
   -0.8004    0.0611    4.3610 H   0  0  0  0  0  0  0  0  0  0  0  0
    0.4880   -1.1465    4.1578 H   0  0  0  0  0  0  0  0  0  0  0  0
  1  2  1  0  0  0  0
  2  3  1  0  0  0  0
  2  4  1  0  0  0  0
  2  5  1  0  0  0  0
  5  6  2  0  0  0  0
  5  7  1  0  0  0  0
  7  8  1  0  0  0  0
  7  9  1  0  0  0  0
  9 10  1  0  0  0  0
  9 11  1  0  0  0  0
  9 26  1  0  0  0  0
 11 12  1  0  0  0  0
 11 13  1  0  0  0  0
 11 14  1  0  0  0  0
 14 15  1  0  0  0  0
 14 16  1  0  0  0  0
 14 17  1  0  0  0  0
 17 18  1  0  0  0  0
 17 19  1  0  0  0  0
 17 20  1  0  0  0  0
 20 21  1  0  0  0  0
 20 22  1  0  0  0  0
 20 23  1  0  0  0  0
 23 24  1  0  0  0  0
 23 25  1  0  0  0  0
 26 27  2  0  0  0  0
 26 28  1  0  0  0  0
 28 29  1  0  0  0  0
 28 30  1  0  0  0  0
 30 31  1  0  0  0  0
 30 32  1  0  0  0  0
 30 33  1  0  0  0  0
M  END
$$$$

  -OEChem-03222214063D

 33 32  0     1  0  0  0  0  0999 V2000
   -2.7361   -5.0753    0.7476 H   0  0  0  0  0  0  0  0  0  0  0  0
   -2.8181   -4.0908    0.2784 C   0  0  0  0  0  0  0  0  0  0  0  0
   -3.6736   -3.5662    0.7100 H   0  0  0  0  0  0  0  0  0  0  0  0
   -2.9830   -4.2250   -0.7935 H   0  0  0  0  0  0  0  0  0  0  0  0
   -1.5483   -3.2947    0.5121 C   0  0  0  0  0  0  0  0  0  0  0  0
   -0.6448   -3.7758    1.1712 O   0  0  0  0  0  0  0  0  0  0  0  0
   -1.4326   -2.0268   -0.0232 N   0  0  0  0  0  0  0  0  0  0  0  0
   -2.1636   -1.7521   -0.6734 H   0  0  0  0  0  0  0  0  0  0  0  0
   -0.1817   -1.2414   -0.0448 C   0  0  1  0  0  0  0  0  0  0  0  0
    0.5764   -1.8393   -0.5629 H   0  0  0  0  0  0  0  0  0  0  0  0
   -0.3343    0.0991   -0.8170 C   0  0  0  0  0  0  0  0  0  0  0  0
    0.1729    0.8907   -0.2537 H   0  0  0  0  0  0  0  0  0  0  0  0
    0.2121    0.0076   -1.7616 H   0  0  0  0  0  0  0  0  0  0  0  0
   -1.7747    0.5801   -1.1114 C   0  0  0  0  0  0  0  0  0  0  0  0
   -2.5131    0.1301   -0.4426 H   0  0  0  0  0  0  0  0  0  0  0  0
   -1.8099    1.6580   -0.9191 H   0  0  0  0  0  0  0  0  0  0  0  0
   -2.1488    0.3599   -2.5813 C   0  0  0  0  0  0  0  0  0  0  0  0
   -1.4421    0.8879   -3.2298 H   0  0  0  0  0  0  0  0  0  0  0  0
   -2.0884   -0.7083   -2.8144 H   0  0  0  0  0  0  0  0  0  0  0  0
   -3.5627    0.8584   -2.8634 C   0  0  0  0  0  0  0  0  0  0  0  0
   -4.2738    0.3904   -2.1737 H   0  0  0  0  0  0  0  0  0  0  0  0
   -3.6141    1.9436   -2.7206 H   0  0  0  0  0  0  0  0  0  0  0  0
   -3.9083    0.5082   -4.2433 N   0  0  0  0  0  0  0  0  0  0  0  0
   -4.8458    0.8316   -4.4835 H   0  0  0  0  0  0  0  0  0  0  0  0
   -3.2190    0.8771   -4.8993 H   0  0  0  0  0  0  0  0  0  0  0  0
    0.3923   -0.9566    1.3631 C   0  0  0  0  0  0  0  0  0  0  0  0
    1.6034   -0.8667    1.5173 O   0  0  0  0  0  0  0  0  0  0  0  0
   -0.4479   -0.5389    2.3796 N   0  0  0  0  0  0  0  0  0  0  0  0
   -1.4362   -0.7197    2.2391 H   0  0  0  0  0  0  0  0  0  0  0  0
    0.0280   -0.2557    3.7276 C   0  0  0  0  0  0  0  0  0  0  0  0
    0.7792    0.5411    3.7105 H   0  0  0  0  0  0  0  0  0  0  0  0
   -0.8023    0.0687    4.3615 H   0  0  0  0  0  0  0  0  0  0  0  0
    0.4746   -1.1520    4.1710 H   0  0  0  0  0  0  0  0  0  0  0  0
  1  2  1  0  0  0  0
  2  3  1  0  0  0  0
  2  4  1  0  0  0  0
  2  5  1  0  0  0  0
  5  6  2  0  0  0  0
  5  7  1  0  0  0  0
  7  8  1  0  0  0  0
  7  9  1  0  0  0  0
  9 10  1  0  0  0  0
  9 11  1  0  0  0  0
  9 26  1  0  0  0  0
 11 12  1  0  0  0  0
 11 13  1  0  0  0  0
 11 14  1  0  0  0  0
 14 15  1  0  0  0  0
 14 16  1  0  0  0  0
 14 17  1  0  0  0  0
 17 18  1  0  0  0  0
 17 19  1  0  0  0  0
 17 20  1  0  0  0  0
 20 21  1  0  0  0  0
 20 22  1  0  0  0  0
 20 23  1  0  0  0  0
 23 24  1  0  0  0  0
 23 25  1  0  0  0  0
 26 27  2  0  0  0  0
 26 28  1  0  0  0  0
 28 29  1  0  0  0  0
 28 30  1  0  0  0  0
 30 31  1  0  0  0  0
 30 32  1  0  0  0  0
 30 33  1  0  0  0  0
M  END
$$$$

  -OEChem-03222214063D

 33 32  0     1  0  0  0  0  0999 V2000
   -2.7977   -5.0297    0.6732 H   0  0  0  0  0  0  0  0  0  0  0  0
   -2.8611   -4.0293    0.2352 C   0  0  0  0  0  0  0  0  0  0  0  0
   -3.7040   -3.5000    0.6858 H   0  0  0  0  0  0  0  0  0  0  0  0
   -3.0341   -4.1277   -0.8395 H   0  0  0  0  0  0  0  0  0  0  0  0
   -1.5739   -3.2662    0.4859 C   0  0  0  0  0  0  0  0  0  0  0  0
   -0.6871   -3.7723    1.1492 O   0  0  0  0  0  0  0  0  0  0  0  0
   -1.4238   -1.9988   -0.0408 N   0  0  0  0  0  0  0  0  0  0  0  0
   -2.1528   -1.6931   -0.6796 H   0  0  0  0  0  0  0  0  0  0  0  0
   -0.1599   -1.2339   -0.0410 C   0  0  1  0  0  0  0  0  0  0  0  0
    0.5956   -1.8430   -0.5499 H   0  0  0  0  0  0  0  0  0  0  0  0
   -0.2836    0.1077   -0.8168 C   0  0  0  0  0  0  0  0  0  0  0  0
    0.2173    0.8952   -0.2427 H   0  0  0  0  0  0  0  0  0  0  0  0
    0.2705    0.0176   -1.7571 H   0  0  0  0  0  0  0  0  0  0  0  0
   -1.7174    0.5867   -1.1239 C   0  0  0  0  0  0  0  0  0  0  0  0
   -2.4017    0.3285   -0.3095 H   0  0  0  0  0  0  0  0  0  0  0  0
   -1.7049    1.6801   -1.1871 H   0  0  0  0  0  0  0  0  0  0  0  0
   -2.2176    0.0456   -2.4702 C   0  0  0  0  0  0  0  0  0  0  0  0
   -1.5831    0.4216   -3.2795 H   0  0  0  0  0  0  0  0  0  0  0  0
   -2.1551   -1.0466   -2.4789 H   0  0  0  0  0  0  0  0  0  0  0  0
   -3.6624    0.4659   -2.7202 C   0  0  0  0  0  0  0  0  0  0  0  0
   -4.2919    0.1814   -1.8697 H   0  0  0  0  0  0  0  0  0  0  0  0
   -3.7232    1.5535   -2.8408 H   0  0  0  0  0  0  0  0  0  0  0  0
   -4.1342   -0.2121   -3.9300 N   0  0  0  0  0  0  0  0  0  0  0  0
   -5.1017    0.0360   -4.1396 H   0  0  0  0  0  0  0  0  0  0  0  0
   -3.5281   -0.0069   -4.7252 H   0  0  0  0  0  0  0  0  0  0  0  0
    0.3994   -0.9626    1.3749 C   0  0  0  0  0  0  0  0  0  0  0  0
    1.6095   -0.8886    1.5452 O   0  0  0  0  0  0  0  0  0  0  0  0
   -0.4494   -0.5341    2.3796 N   0  0  0  0  0  0  0  0  0  0  0  0
   -1.4369   -0.7098    2.2278 H   0  0  0  0  0  0  0  0  0  0  0  0
    0.0115   -0.2558    3.7337 C   0  0  0  0  0  0  0  0  0  0  0  0
    0.7916    0.5128    3.7245 H   0  0  0  0  0  0  0  0  0  0  0  0
   -0.8180    0.1053    4.3490 H   0  0  0  0  0  0  0  0  0  0  0  0
    0.4173   -1.1635    4.1924 H   0  0  0  0  0  0  0  0  0  0  0  0
  1  2  1  0  0  0  0
  2  3  1  0  0  0  0
  2  4  1  0  0  0  0
  2  5  1  0  0  0  0
  5  6  2  0  0  0  0
  5  7  1  0  0  0  0
  7  8  1  0  0  0  0
  7  9  1  0  0  0  0
  9 10  1  0  0  0  0
  9 11  1  0  0  0  0
  9 26  1  0  0  0  0
 11 12  1  0  0  0  0
 11 13  1  0  0  0  0
 11 14  1  0  0  0  0
 14 15  1  0  0  0  0
 14 16  1  0  0  0  0
 14 17  1  0  0  0  0
 17 18  1  0  0  0  0
 17 19  1  0  0  0  0
 17 20  1  0  0  0  0
 20 21  1  0  0  0  0
 20 22  1  0  0  0  0
 20 23  1  0  0  0  0
 23 24  1  0  0  0  0
 23 25  1  0  0  0  0
 26 27  2  0  0  0  0
 26 28  1  0  0  0  0
 28 29  1  0  0  0  0
 28 30  1  0  0  0  0
 30 31  1  0  0  0  0
 30 32  1  0  0  0  0
 30 33  1  0  0  0  0
M  END
$$$$

  -OEChem-03222214063D

 33 32  0     1  0  0  0  0  0999 V2000
   -2.7564   -5.0603    0.7427 H   0  0  0  0  0  0  0  0  0  0  0  0
   -2.8308   -4.0598    0.3068 C   0  0  0  0  0  0  0  0  0  0  0  0
   -3.6522   -3.5250    0.7891 H   0  0  0  0  0  0  0  0  0  0  0  0
   -3.0450   -4.1568   -0.7605 H   0  0  0  0  0  0  0  0  0  0  0  0
   -1.5306   -3.3047    0.5078 C   0  0  0  0  0  0  0  0  0  0  0  0
   -0.6249   -3.8119    1.1444 O   0  0  0  0  0  0  0  0  0  0  0  0
   -1.3903   -2.0420   -0.0320 N   0  0  0  0  0  0  0  0  0  0  0  0
   -2.1576   -1.7106   -0.6096 H   0  0  0  0  0  0  0  0  0  0  0  0
   -0.1422   -1.2557   -0.0294 C   0  0  1  0  0  0  0  0  0  0  0  0
    0.6279   -1.8680   -0.5122 H   0  0  0  0  0  0  0  0  0  0  0  0
   -0.2449    0.0748   -0.8314 C   0  0  0  0  0  0  0  0  0  0  0  0
    0.2530    0.8691   -0.2638 H   0  0  0  0  0  0  0  0  0  0  0  0
    0.3271   -0.0454   -1.7574 H   0  0  0  0  0  0  0  0  0  0  0  0
   -1.6535    0.5790   -1.2074 C   0  0  0  0  0  0  0  0  0  0  0  0
   -2.2901    0.5377   -0.3173 H   0  0  0  0  0  0  0  0  0  0  0  0
   -1.5794    1.6310   -1.5030 H   0  0  0  0  0  0  0  0  0  0  0  0
   -2.3092   -0.2006   -2.3644 C   0  0  0  0  0  0  0  0  0  0  0  0
   -1.7779    0.0277   -3.2940 H   0  0  0  0  0  0  0  0  0  0  0  0
   -2.2439   -1.2797   -2.2221 H   0  0  0  0  0  0  0  0  0  0  0  0
   -3.7767    0.1895   -2.5107 C   0  0  0  0  0  0  0  0  0  0  0  0
   -4.2974    0.0737   -1.5536 H   0  0  0  0  0  0  0  0  0  0  0  0
   -3.8592    1.2379   -2.8185 H   0  0  0  0  0  0  0  0  0  0  0  0
   -4.3858   -0.6917   -3.5099 N   0  0  0  0  0  0  0  0  0  0  0  0
   -5.3735   -0.4720   -3.6439 H   0  0  0  0  0  0  0  0  0  0  0  0
   -3.8816   -0.6443   -4.3963 H   0  0  0  0  0  0  0  0  0  0  0  0
    0.3881   -0.9609    1.3928 C   0  0  0  0  0  0  0  0  0  0  0  0
    1.5935   -0.8665    1.5845 O   0  0  0  0  0  0  0  0  0  0  0  0
   -0.4855   -0.5380    2.3787 N   0  0  0  0  0  0  0  0  0  0  0  0
   -1.4680   -0.7240    2.2081 H   0  0  0  0  0  0  0  0  0  0  0  0
   -0.0551   -0.2432    3.7393 C   0  0  0  0  0  0  0  0  0  0  0  0
    0.7085    0.5416    3.7398 H   0  0  0  0  0  0  0  0  0  0  0  0
   -0.9035    0.1032    4.3374 H   0  0  0  0  0  0  0  0  0  0  0  0
    0.3612   -1.1399    4.2103 H   0  0  0  0  0  0  0  0  0  0  0  0
  1  2  1  0  0  0  0
  2  3  1  0  0  0  0
  2  4  1  0  0  0  0
  2  5  1  0  0  0  0
  5  6  2  0  0  0  0
  5  7  1  0  0  0  0
  7  8  1  0  0  0  0
  7  9  1  0  0  0  0
  9 10  1  0  0  0  0
  9 11  1  0  0  0  0
  9 26  1  0  0  0  0
 11 12  1  0  0  0  0
 11 13  1  0  0  0  0
 11 14  1  0  0  0  0
 14 15  1  0  0  0  0
 14 16  1  0  0  0  0
 14 17  1  0  0  0  0
 17 18  1  0  0  0  0
 17 19  1  0  0  0  0
 17 20  1  0  0  0  0
 20 21  1  0  0  0  0
 20 22  1  0  0  0  0
 20 23  1  0  0  0  0
 23 24  1  0  0  0  0
 23 25  1  0  0  0  0
 26 27  2  0  0  0  0
 26 28  1  0  0  0  0
 28 29  1  0  0  0  0
 28 30  1  0  0  0  0
 30 31  1  0  0  0  0
 30 32  1  0  0  0  0
 30 33  1  0  0  0  0
M  END
$$$$

  -OEChem-03222214063D

 33 32  0     1  0  0  0  0  0999 V2000
   -2.3396   -5.3095    0.9735 H   0  0  0  0  0  0  0  0  0  0  0  0
   -2.5402   -4.3375    0.5139 C   0  0  0  0  0  0  0  0  0  0  0  0
   -3.3847   -3.8729    1.0285 H   0  0  0  0  0  0  0  0  0  0  0  0
   -2.8019   -4.4924   -0.5358 H   0  0  0  0  0  0  0  0  0  0  0  0
   -1.3148   -3.4488    0.6167 C   0  0  0  0  0  0  0  0  0  0  0  0
   -0.3076   -3.8652    1.1601 O   0  0  0  0  0  0  0  0  0  0  0  0
   -1.3541   -2.1728    0.0903 N   0  0  0  0  0  0  0  0  0  0  0  0
   -2.1889   -1.9272   -0.4288 H   0  0  0  0  0  0  0  0  0  0  0  0
   -0.1984   -1.2649    0.0012 C   0  0  1  0  0  0  0  0  0  0  0  0
    0.5845   -1.7940   -0.5539 H   0  0  0  0  0  0  0  0  0  0  0  0
   -0.4834    0.0642   -0.7583 C   0  0  0  0  0  0  0  0  0  0  0  0
    0.0138    0.8869   -0.2315 H   0  0  0  0  0  0  0  0  0  0  0  0
    0.0148   -0.0172   -1.7298 H   0  0  0  0  0  0  0  0  0  0  0  0
   -1.9379    0.5093   -1.0422 C   0  0  0  0  0  0  0  0  0  0  0  0
   -2.4516    0.6832   -0.0908 H   0  0  0  0  0  0  0  0  0  0  0  0
   -1.8779    1.4748   -1.5559 H   0  0  0  0  0  0  0  0  0  0  0  0
   -2.7873   -0.4522   -1.8968 C   0  0  0  0  0  0  0  0  0  0  0  0
   -2.1434   -0.9917   -2.5991 H   0  0  0  0  0  0  0  0  0  0  0  0
   -3.3007   -1.1795   -1.2638 H   0  0  0  0  0  0  0  0  0  0  0  0
   -3.8545    0.3074   -2.6795 C   0  0  0  0  0  0  0  0  0  0  0  0
   -4.4941    0.8714   -1.9911 H   0  0  0  0  0  0  0  0  0  0  0  0
   -3.3869    1.0176   -3.3708 H   0  0  0  0  0  0  0  0  0  0  0  0
   -4.6568   -0.6690   -3.4217 N   0  0  0  0  0  0  0  0  0  0  0  0
   -5.4249   -0.2144   -3.9169 H   0  0  0  0  0  0  0  0  0  0  0  0
   -4.0769   -1.2033   -4.0694 H   0  0  0  0  0  0  0  0  0  0  0  0
    0.4190   -0.9351    1.3805 C   0  0  0  0  0  0  0  0  0  0  0  0
    1.6211   -0.7210    1.4711 O   0  0  0  0  0  0  0  0  0  0  0  0
   -0.4025   -0.6152    2.4466 N   0  0  0  0  0  0  0  0  0  0  0  0
   -1.3763   -0.8852    2.3553 H   0  0  0  0  0  0  0  0  0  0  0  0
    0.1133   -0.2821    3.7682 C   0  0  0  0  0  0  0  0  0  0  0  0
    0.7567    0.6027    3.7171 H   0  0  0  0  0  0  0  0  0  0  0  0
   -0.7120   -0.0684    4.4538 H   0  0  0  0  0  0  0  0  0  0  0  0
    0.6947   -1.1174    4.1727 H   0  0  0  0  0  0  0  0  0  0  0  0
  1  2  1  0  0  0  0
  2  3  1  0  0  0  0
  2  4  1  0  0  0  0
  2  5  1  0  0  0  0
  5  6  2  0  0  0  0
  5  7  1  0  0  0  0
  7  8  1  0  0  0  0
  7  9  1  0  0  0  0
  9 10  1  0  0  0  0
  9 11  1  0  0  0  0
  9 26  1  0  0  0  0
 11 12  1  0  0  0  0
 11 13  1  0  0  0  0
 11 14  1  0  0  0  0
 14 15  1  0  0  0  0
 14 16  1  0  0  0  0
 14 17  1  0  0  0  0
 17 18  1  0  0  0  0
 17 19  1  0  0  0  0
 17 20  1  0  0  0  0
 20 21  1  0  0  0  0
 20 22  1  0  0  0  0
 20 23  1  0  0  0  0
 23 24  1  0  0  0  0
 23 25  1  0  0  0  0
 26 27  2  0  0  0  0
 26 28  1  0  0  0  0
 28 29  1  0  0  0  0
 28 30  1  0  0  0  0
 30 31  1  0  0  0  0
 30 32  1  0  0  0  0
 30 33  1  0  0  0  0
M  END
$$$$

  -OEChem-03222214063D

 33 32  0     1  0  0  0  0  0999 V2000
   -1.8558   -5.4779    0.9092 H   0  0  0  0  0  0  0  0  0  0  0  0
   -2.1613   -4.5180    0.4833 C   0  0  0  0  0  0  0  0  0  0  0  0
   -3.0120   -4.1354    1.0523 H   0  0  0  0  0  0  0  0  0  0  0  0
   -2.4664   -4.6748   -0.5542 H   0  0  0  0  0  0  0  0  0  0  0  0
   -1.0113   -3.5303    0.5421 C   0  0  0  0  0  0  0  0  0  0  0  0
    0.0571   -3.8709    1.0168 O   0  0  0  0  0  0  0  0  0  0  0  0
   -1.1902   -2.2515    0.0523 N   0  0  0  0  0  0  0  0  0  0  0  0
   -2.0717   -2.0706   -0.4158 H   0  0  0  0  0  0  0  0  0  0  0  0
   -0.1319   -1.2329   -0.0522 C   0  0  1  0  0  0  0  0  0  0  0  0
    0.6798   -1.6746   -0.6414 H   0  0  0  0  0  0  0  0  0  0  0  0
   -0.5306    0.1073   -0.7497 C   0  0  0  0  0  0  0  0  0  0  0  0
   -0.0284    0.9387   -0.2420 H   0  0  0  0  0  0  0  0  0  0  0  0
   -0.0712    0.0464   -1.7419 H   0  0  0  0  0  0  0  0  0  0  0  0
   -1.9966    0.5506   -1.0168 C   0  0  0  0  0  0  0  0  0  0  0  0
   -2.3183    1.1447   -0.1547 H   0  0  0  0  0  0  0  0  0  0  0  0
   -1.9727    1.2274   -1.8778 H   0  0  0  0  0  0  0  0  0  0  0  0
   -3.0827   -0.5076   -1.2577 C   0  0  0  0  0  0  0  0  0  0  0  0
   -2.7154   -1.2597   -1.9636 H   0  0  0  0  0  0  0  0  0  0  0  0
   -3.3480   -0.9927   -0.3138 H   0  0  0  0  0  0  0  0  0  0  0  0
   -4.3491    0.1271   -1.8223 C   0  0  0  0  0  0  0  0  0  0  0  0
   -4.7380    0.8737   -1.1207 H   0  0  0  0  0  0  0  0  0  0  0  0
   -4.1346    0.6298   -2.7720 H   0  0  0  0  0  0  0  0  0  0  0  0
   -5.3371   -0.9365   -2.0244 N   0  0  0  0  0  0  0  0  0  0  0  0
   -6.2396   -0.5506   -2.3048 H   0  0  0  0  0  0  0  0  0  0  0  0
   -5.0087   -1.6169   -2.7099 H   0  0  0  0  0  0  0  0  0  0  0  0
    0.4875   -0.8911    1.3237 C   0  0  0  0  0  0  0  0  0  0  0  0
    1.6672   -0.5716    1.3980 O   0  0  0  0  0  0  0  0  0  0  0  0
   -0.3349   -0.6875    2.4174 N   0  0  0  0  0  0  0  0  0  0  0  0
   -1.2852   -1.0325    2.3318 H   0  0  0  0  0  0  0  0  0  0  0  0
    0.1750   -0.3494    3.7397 C   0  0  0  0  0  0  0  0  0  0  0  0
    0.7349    0.5911    3.7062 H   0  0  0  0  0  0  0  0  0  0  0  0
   -0.6528   -0.2319    4.4453 H   0  0  0  0  0  0  0  0  0  0  0  0
    0.8366   -1.1408    4.1075 H   0  0  0  0  0  0  0  0  0  0  0  0
  1  2  1  0  0  0  0
  2  3  1  0  0  0  0
  2  4  1  0  0  0  0
  2  5  1  0  0  0  0
  5  6  2  0  0  0  0
  5  7  1  0  0  0  0
  7  8  1  0  0  0  0
  7  9  1  0  0  0  0
  9 10  1  0  0  0  0
  9 11  1  0  0  0  0
  9 26  1  0  0  0  0
 11 12  1  0  0  0  0
 11 13  1  0  0  0  0
 11 14  1  0  0  0  0
 14 15  1  0  0  0  0
 14 16  1  0  0  0  0
 14 17  1  0  0  0  0
 17 18  1  0  0  0  0
 17 19  1  0  0  0  0
 17 20  1  0  0  0  0
 20 21  1  0  0  0  0
 20 22  1  0  0  0  0
 20 23  1  0  0  0  0
 23 24  1  0  0  0  0
 23 25  1  0  0  0  0
 26 27  2  0  0  0  0
 26 28  1  0  0  0  0
 28 29  1  0  0  0  0
 28 30  1  0  0  0  0
 30 31  1  0  0  0  0
 30 32  1  0  0  0  0
 30 33  1  0  0  0  0
M  END
$$$$

  -OEChem-03222214063D

 33 32  0     1  0  0  0  0  0999 V2000
   -2.0322   -5.4498    1.1247 H   0  0  0  0  0  0  0  0  0  0  0  0
   -2.2770   -4.5099    0.6216 C   0  0  0  0  0  0  0  0  0  0  0  0
   -3.1279   -4.0500    1.1300 H   0  0  0  0  0  0  0  0  0  0  0  0
   -2.5522   -4.7262   -0.4135 H   0  0  0  0  0  0  0  0  0  0  0  0
   -1.0838   -3.5739    0.6557 C   0  0  0  0  0  0  0  0  0  0  0  0
   -0.0384   -3.9413    1.1608 O   0  0  0  0  0  0  0  0  0  0  0  0
   -1.1957   -2.3110    0.1088 N   0  0  0  0  0  0  0  0  0  0  0  0
   -2.0756   -2.0906   -0.3451 H   0  0  0  0  0  0  0  0  0  0  0  0
   -0.1017   -1.3300    0.0178 C   0  0  1  0  0  0  0  0  0  0  0  0
    0.7235   -1.8224   -0.5095 H   0  0  0  0  0  0  0  0  0  0  0  0
   -0.4139   -0.0073   -0.7552 C   0  0  0  0  0  0  0  0  0  0  0  0
    0.0966    0.8237   -0.2549 H   0  0  0  0  0  0  0  0  0  0  0  0
    0.0998   -0.1283   -1.7148 H   0  0  0  0  0  0  0  0  0  0  0  0
   -1.8414    0.4922   -1.1301 C   0  0  0  0  0  0  0  0  0  0  0  0
   -2.0658    1.3279   -0.4584 H   0  0  0  0  0  0  0  0  0  0  0  0
   -1.7869    0.9071   -2.1424 H   0  0  0  0  0  0  0  0  0  0  0  0
   -3.0480   -0.4539   -1.0648 C   0  0  0  0  0  0  0  0  0  0  0  0
   -2.8680   -1.3247   -1.7036 H   0  0  0  0  0  0  0  0  0  0  0  0
   -3.2096   -0.7829   -0.0337 H   0  0  0  0  0  0  0  0  0  0  0  0
   -4.3180    0.2476   -1.5365 C   0  0  0  0  0  0  0  0  0  0  0  0
   -4.5323    1.1066   -0.8905 H   0  0  0  0  0  0  0  0  0  0  0  0
   -4.1948    0.6146   -2.5616 H   0  0  0  0  0  0  0  0  0  0  0  0
   -5.4211   -0.7160   -1.4723 N   0  0  0  0  0  0  0  0  0  0  0  0
   -6.3155   -0.2631   -1.6651 H   0  0  0  0  0  0  0  0  0  0  0  0
   -5.2668   -1.4939   -2.1136 H   0  0  0  0  0  0  0  0  0  0  0  0
    0.4593   -0.9529    1.4096 C   0  0  0  0  0  0  0  0  0  0  0  0
    1.6449   -0.6731    1.5334 O   0  0  0  0  0  0  0  0  0  0  0  0
   -0.4076   -0.6810    2.4531 N   0  0  0  0  0  0  0  0  0  0  0  0
   -1.3691   -0.9793    2.3277 H   0  0  0  0  0  0  0  0  0  0  0  0
    0.0463   -0.3042    3.7857 C   0  0  0  0  0  0  0  0  0  0  0  0
    0.6591    0.6023    3.7405 H   0  0  0  0  0  0  0  0  0  0  0  0
   -0.8116   -0.1069    4.4354 H   0  0  0  0  0  0  0  0  0  0  0  0
    0.6409   -1.1099    4.2289 H   0  0  0  0  0  0  0  0  0  0  0  0
  1  2  1  0  0  0  0
  2  3  1  0  0  0  0
  2  4  1  0  0  0  0
  2  5  1  0  0  0  0
  5  6  2  0  0  0  0
  5  7  1  0  0  0  0
  7  8  1  0  0  0  0
  7  9  1  0  0  0  0
  9 10  1  0  0  0  0
  9 11  1  0  0  0  0
  9 26  1  0  0  0  0
 11 12  1  0  0  0  0
 11 13  1  0  0  0  0
 11 14  1  0  0  0  0
 14 15  1  0  0  0  0
 14 16  1  0  0  0  0
 14 17  1  0  0  0  0
 17 18  1  0  0  0  0
 17 19  1  0  0  0  0
 17 20  1  0  0  0  0
 20 21  1  0  0  0  0
 20 22  1  0  0  0  0
 20 23  1  0  0  0  0
 23 24  1  0  0  0  0
 23 25  1  0  0  0  0
 26 27  2  0  0  0  0
 26 28  1  0  0  0  0
 28 29  1  0  0  0  0
 28 30  1  0  0  0  0
 30 31  1  0  0  0  0
 30 32  1  0  0  0  0
 30 33  1  0  0  0  0
M  END
$$$$

  -OEChem-03222214063D

 33 32  0     1  0  0  0  0  0999 V2000
   -2.2820   -5.2694    1.1619 H   0  0  0  0  0  0  0  0  0  0  0  0
   -2.5311   -4.2918    0.7398 C   0  0  0  0  0  0  0  0  0  0  0  0
   -3.2486   -3.7958    1.3972 H   0  0  0  0  0  0  0  0  0  0  0  0
   -2.9877   -4.4383   -0.2419 H   0  0  0  0  0  0  0  0  0  0  0  0
   -1.2797   -3.4446    0.6078 C   0  0  0  0  0  0  0  0  0  0  0  0
   -0.2338   -3.8333    1.0989 O   0  0  0  0  0  0  0  0  0  0  0  0
   -1.3343   -2.2380   -0.0612 N   0  0  0  0  0  0  0  0  0  0  0  0
   -2.2774   -1.9052   -0.2724 H   0  0  0  0  0  0  0  0  0  0  0  0
   -0.2381   -1.2537   -0.0644 C   0  0  1  0  0  0  0  0  0  0  0  0
    0.6535   -1.8087   -0.3795 H   0  0  0  0  0  0  0  0  0  0  0  0
   -0.3440   -0.0490   -1.0561 C   0  0  0  0  0  0  0  0  0  0  0  0
    0.0339    0.8388   -0.5370 H   0  0  0  0  0  0  0  0  0  0  0  0
    0.3894   -0.2597   -1.8417 H   0  0  0  0  0  0  0  0  0  0  0  0
   -1.6362    0.3994   -1.8066 C   0  0  0  0  0  0  0  0  0  0  0  0
   -1.8088    1.4537   -1.5644 H   0  0  0  0  0  0  0  0  0  0  0  0
   -1.4069    0.3635   -2.8770 H   0  0  0  0  0  0  0  0  0  0  0  0
   -2.9686   -0.3386   -1.6227 C   0  0  0  0  0  0  0  0  0  0  0  0
   -3.6803    0.0354   -2.3658 H   0  0  0  0  0  0  0  0  0  0  0  0
   -2.8395   -1.4017   -1.8416 H   0  0  0  0  0  0  0  0  0  0  0  0
   -3.5689   -0.0954   -0.2361 C   0  0  0  0  0  0  0  0  0  0  0  0
   -2.7977    0.2267    0.4693 H   0  0  0  0  0  0  0  0  0  0  0  0
   -4.3142    0.7061   -0.2917 H   0  0  0  0  0  0  0  0  0  0  0  0
   -4.1835   -1.3406    0.2356 N   0  0  0  0  0  0  0  0  0  0  0  0
   -4.6347   -1.2003    1.1422 H   0  0  0  0  0  0  0  0  0  0  0  0
   -4.8656   -1.6823   -0.4455 H   0  0  0  0  0  0  0  0  0  0  0  0
    0.1025   -0.7571    1.3602 C   0  0  0  0  0  0  0  0  0  0  0  0
    1.2491   -0.4314    1.6387 O   0  0  0  0  0  0  0  0  0  0  0  0
   -0.9164   -0.4131    2.2309 N   0  0  0  0  0  0  0  0  0  0  0  0
   -1.8373   -0.7726    2.0000 H   0  0  0  0  0  0  0  0  0  0  0  0
   -0.6703    0.0772    3.5810 C   0  0  0  0  0  0  0  0  0  0  0  0
   -0.1012    1.0124    3.5517 H   0  0  0  0  0  0  0  0  0  0  0  0
   -1.6180    0.2669    4.0935 H   0  0  0  0  0  0  0  0  0  0  0  0
   -0.1046   -0.6613    4.1588 H   0  0  0  0  0  0  0  0  0  0  0  0
  1  2  1  0  0  0  0
  2  3  1  0  0  0  0
  2  4  1  0  0  0  0
  2  5  1  0  0  0  0
  5  6  2  0  0  0  0
  5  7  1  0  0  0  0
  7  8  1  0  0  0  0
  7  9  1  0  0  0  0
  9 10  1  0  0  0  0
  9 11  1  0  0  0  0
  9 26  1  0  0  0  0
 11 12  1  0  0  0  0
 11 13  1  0  0  0  0
 11 14  1  0  0  0  0
 14 15  1  0  0  0  0
 14 16  1  0  0  0  0
 14 17  1  0  0  0  0
 17 18  1  0  0  0  0
 17 19  1  0  0  0  0
 17 20  1  0  0  0  0
 20 21  1  0  0  0  0
 20 22  1  0  0  0  0
 20 23  1  0  0  0  0
 23 24  1  0  0  0  0
 23 25  1  0  0  0  0
 26 27  2  0  0  0  0
 26 28  1  0  0  0  0
 28 29  1  0  0  0  0
 28 30  1  0  0  0  0
 30 31  1  0  0  0  0
 30 32  1  0  0  0  0
 30 33  1  0  0  0  0
M  END
$$$$

  -OEChem-03222214063D

 33 32  0     1  0  0  0  0  0999 V2000
   -2.3657   -5.1877    0.3944 H   0  0  0  0  0  0  0  0  0  0  0  0
   -2.6028   -4.1415    0.1810 C   0  0  0  0  0  0  0  0  0  0  0  0
   -3.3674   -3.8039    0.8840 H   0  0  0  0  0  0  0  0  0  0  0  0
   -2.9968   -4.0716   -0.8361 H   0  0  0  0  0  0  0  0  0  0  0  0
   -1.3569   -3.2859    0.3160 C   0  0  0  0  0  0  0  0  0  0  0  0
   -0.3214   -3.7821    0.7205 O   0  0  0  0  0  0  0  0  0  0  0  0
   -1.4111   -1.9455   -0.0129 N   0  0  0  0  0  0  0  0  0  0  0  0
   -2.2924   -1.6067   -0.3841 H   0  0  0  0  0  0  0  0  0  0  0  0
   -0.2615   -1.0246    0.0020 C   0  0  1  0  0  0  0  0  0  0  0  0
    0.5087   -1.4765   -0.6339 H   0  0  0  0  0  0  0  0  0  0  0  0
   -0.5187    0.4120   -0.5598 C   0  0  0  0  0  0  0  0  0  0  0  0
    0.0169    1.1177    0.0860 H   0  0  0  0  0  0  0  0  0  0  0  0
   -0.0022    0.4525   -1.5246 H   0  0  0  0  0  0  0  0  0  0  0  0
   -1.9258    1.0360   -0.8061 C   0  0  0  0  0  0  0  0  0  0  0  0
   -1.8753    2.0670   -0.4391 H   0  0  0  0  0  0  0  0  0  0  0  0
   -2.0775    1.1075   -1.8888 H   0  0  0  0  0  0  0  0  0  0  0  0
   -3.1859    0.4041   -0.1899 C   0  0  0  0  0  0  0  0  0  0  0  0
   -3.8827    1.2057    0.0763 H   0  0  0  0  0  0  0  0  0  0  0  0
   -2.9374   -0.1056    0.7446 H   0  0  0  0  0  0  0  0  0  0  0  0
   -3.9058   -0.5205   -1.1764 C   0  0  0  0  0  0  0  0  0  0  0  0
   -4.4468    0.0722   -1.9229 H   0  0  0  0  0  0  0  0  0  0  0  0
   -3.1934   -1.1476   -1.7222 H   0  0  0  0  0  0  0  0  0  0  0  0
   -4.8366   -1.3635   -0.4223 N   0  0  0  0  0  0  0  0  0  0  0  0
   -5.6840   -0.8453   -0.1827 H   0  0  0  0  0  0  0  0  0  0  0  0
   -4.4047   -1.7457    0.4178 H   0  0  0  0  0  0  0  0  0  0  0  0
    0.3836   -0.9068    1.4036 C   0  0  0  0  0  0  0  0  0  0  0  0
    1.5879   -0.7120    1.5057 O   0  0  0  0  0  0  0  0  0  0  0  0
   -0.4175   -0.7595    2.5218 N   0  0  0  0  0  0  0  0  0  0  0  0
   -1.3975   -0.9914    2.4050 H   0  0  0  0  0  0  0  0  0  0  0  0
    0.1199   -0.6333    3.8702 C   0  0  0  0  0  0  0  0  0  0  0  0
    0.7492    0.2593    3.9508 H   0  0  0  0  0  0  0  0  0  0  0  0
   -0.6949   -0.5471    4.5955 H   0  0  0  0  0  0  0  0  0  0  0  0
    0.7205   -1.5129    4.1253 H   0  0  0  0  0  0  0  0  0  0  0  0
  1  2  1  0  0  0  0
  2  3  1  0  0  0  0
  2  4  1  0  0  0  0
  2  5  1  0  0  0  0
  5  6  2  0  0  0  0
  5  7  1  0  0  0  0
  7  8  1  0  0  0  0
  7  9  1  0  0  0  0
  9 10  1  0  0  0  0
  9 11  1  0  0  0  0
  9 26  1  0  0  0  0
 11 12  1  0  0  0  0
 11 13  1  0  0  0  0
 11 14  1  0  0  0  0
 14 15  1  0  0  0  0
 14 16  1  0  0  0  0
 14 17  1  0  0  0  0
 17 18  1  0  0  0  0
 17 19  1  0  0  0  0
 17 20  1  0  0  0  0
 20 21  1  0  0  0  0
 20 22  1  0  0  0  0
 20 23  1  0  0  0  0
 23 24  1  0  0  0  0
 23 25  1  0  0  0  0
 26 27  2  0  0  0  0
 26 28  1  0  0  0  0
 28 29  1  0  0  0  0
 28 30  1  0  0  0  0
 30 31  1  0  0  0  0
 30 32  1  0  0  0  0
 30 33  1  0  0  0  0
M  END
$$$$

  -OEChem-03222214063D

 33 32  0     1  0  0  0  0  0999 V2000
   -2.0849   -5.4291    0.8941 H   0  0  0  0  0  0  0  0  0  0  0  0
   -2.3211   -4.4616    0.4420 C   0  0  0  0  0  0  0  0  0  0  0  0
   -3.1611   -4.0174    0.9813 H   0  0  0  0  0  0  0  0  0  0  0  0
   -2.6073   -4.6208   -0.6003 H   0  0  0  0  0  0  0  0  0  0  0  0
   -1.1148   -3.5450    0.5139 C   0  0  0  0  0  0  0  0  0  0  0  0
   -0.0802   -3.9429    1.0179 O   0  0  0  0  0  0  0  0  0  0  0  0
   -1.2022   -2.2649    0.0041 N   0  0  0  0  0  0  0  0  0  0  0  0
   -2.0643   -2.0182   -0.4689 H   0  0  0  0  0  0  0  0  0  0  0  0
   -0.0936   -1.2978   -0.0342 C   0  0  1  0  0  0  0  0  0  0  0  0
    0.7342   -1.7791   -0.5673 H   0  0  0  0  0  0  0  0  0  0  0  0
   -0.4203    0.0247   -0.7923 C   0  0  0  0  0  0  0  0  0  0  0  0
    0.0109    0.8514   -0.2163 H   0  0  0  0  0  0  0  0  0  0  0  0
    0.1369   -0.0028   -1.7345 H   0  0  0  0  0  0  0  0  0  0  0  0
   -1.8720    0.4493   -1.1471 C   0  0  0  0  0  0  0  0  0  0  0  0
   -1.8748    1.5426   -1.2173 H   0  0  0  0  0  0  0  0  0  0  0  0
   -2.1034    0.0672   -2.1468 H   0  0  0  0  0  0  0  0  0  0  0  0
   -3.0140    0.0063   -0.2132 C   0  0  0  0  0  0  0  0  0  0  0  0
   -3.3546   -0.9981   -0.4761 H   0  0  0  0  0  0  0  0  0  0  0  0
   -2.6661    0.0021    0.8242 H   0  0  0  0  0  0  0  0  0  0  0  0
   -4.2058    0.9528   -0.3220 C   0  0  0  0  0  0  0  0  0  0  0  0
   -3.9175    1.9564    0.0107 H   0  0  0  0  0  0  0  0  0  0  0  0
   -4.5427    1.0226   -1.3623 H   0  0  0  0  0  0  0  0  0  0  0  0
   -5.2842    0.4352    0.5260 N   0  0  0  0  0  0  0  0  0  0  0  0
   -6.0622    1.0941    0.5752 H   0  0  0  0  0  0  0  0  0  0  0  0
   -5.6039   -0.4771    0.2019 H   0  0  0  0  0  0  0  0  0  0  0  0
    0.4582   -0.9598    1.3715 C   0  0  0  0  0  0  0  0  0  0  0  0
    1.6470   -0.7017    1.5105 O   0  0  0  0  0  0  0  0  0  0  0  0
   -0.4116   -0.6995    2.4155 N   0  0  0  0  0  0  0  0  0  0  0  0
   -1.3829   -0.9568    2.2725 H   0  0  0  0  0  0  0  0  0  0  0  0
    0.0360   -0.3441    3.7556 C   0  0  0  0  0  0  0  0  0  0  0  0
    0.6370    0.5710    3.7294 H   0  0  0  0  0  0  0  0  0  0  0  0
   -0.8248   -0.1720    4.4085 H   0  0  0  0  0  0  0  0  0  0  0  0
    0.6406   -1.1514    4.1822 H   0  0  0  0  0  0  0  0  0  0  0  0
  1  2  1  0  0  0  0
  2  3  1  0  0  0  0
  2  4  1  0  0  0  0
  2  5  1  0  0  0  0
  5  6  2  0  0  0  0
  5  7  1  0  0  0  0
  7  8  1  0  0  0  0
  7  9  1  0  0  0  0
  9 10  1  0  0  0  0
  9 11  1  0  0  0  0
  9 26  1  0  0  0  0
 11 12  1  0  0  0  0
 11 13  1  0  0  0  0
 11 14  1  0  0  0  0
 14 15  1  0  0  0  0
 14 16  1  0  0  0  0
 14 17  1  0  0  0  0
 17 18  1  0  0  0  0
 17 19  1  0  0  0  0
 17 20  1  0  0  0  0
 20 21  1  0  0  0  0
 20 22  1  0  0  0  0
 20 23  1  0  0  0  0
 23 24  1  0  0  0  0
 23 25  1  0  0  0  0
 26 27  2  0  0  0  0
 26 28  1  0  0  0  0
 28 29  1  0  0  0  0
 28 30  1  0  0  0  0
 30 31  1  0  0  0  0
 30 32  1  0  0  0  0
 30 33  1  0  0  0  0
M  END
$$$$

  -OEChem-03222214063D

 33 32  0     1  0  0  0  0  0999 V2000
   -2.2584   -5.3443    0.8054 H   0  0  0  0  0  0  0  0  0  0  0  0
   -2.4583   -4.3580    0.3767 C   0  0  0  0  0  0  0  0  0  0  0  0
   -3.2737   -3.8911    0.9342 H   0  0  0  0  0  0  0  0  0  0  0  0
   -2.7613   -4.4828   -0.6655 H   0  0  0  0  0  0  0  0  0  0  0  0
   -1.2141   -3.4937    0.4556 C   0  0  0  0  0  0  0  0  0  0  0  0
   -0.1936   -3.9444    0.9434 O   0  0  0  0  0  0  0  0  0  0  0  0
   -1.2510   -2.2004   -0.0275 N   0  0  0  0  0  0  0  0  0  0  0  0
   -2.1093   -1.9009   -0.4781 H   0  0  0  0  0  0  0  0  0  0  0  0
   -0.1043   -1.2773   -0.0450 C   0  0  1  0  0  0  0  0  0  0  0  0
    0.7045   -1.7747   -0.5928 H   0  0  0  0  0  0  0  0  0  0  0  0
   -0.4018    0.0620   -0.7783 C   0  0  0  0  0  0  0  0  0  0  0  0
    0.0512    0.8760   -0.2007 H   0  0  0  0  0  0  0  0  0  0  0  0
    0.1343    0.0332   -1.7324 H   0  0  0  0  0  0  0  0  0  0  0  0
   -1.8574    0.4865   -1.0948 C   0  0  0  0  0  0  0  0  0  0  0  0
   -1.8277    1.5377   -1.4014 H   0  0  0  0  0  0  0  0  0  0  0  0
   -2.2104   -0.0901   -1.9561 H   0  0  0  0  0  0  0  0  0  0  0  0
   -2.8848    0.3230    0.0429 C   0  0  0  0  0  0  0  0  0  0  0  0
   -3.2236   -0.7107    0.1290 H   0  0  0  0  0  0  0  0  0  0  0  0
   -2.4279    0.6174    0.9928 H   0  0  0  0  0  0  0  0  0  0  0  0
   -4.1058    1.2045   -0.2055 C   0  0  0  0  0  0  0  0  0  0  0  0
   -3.8088    2.2594   -0.2173 H   0  0  0  0  0  0  0  0  0  0  0  0
   -4.5552    0.9663   -1.1762 H   0  0  0  0  0  0  0  0  0  0  0  0
   -5.0742    0.9718    0.8702 N   0  0  0  0  0  0  0  0  0  0  0  0
   -5.8596    1.6206    0.8060 H   0  0  0  0  0  0  0  0  0  0  0  0
   -5.4016    0.0063    0.8726 H   0  0  0  0  0  0  0  0  0  0  0  0
    0.4644   -0.9863    1.3637 C   0  0  0  0  0  0  0  0  0  0  0  0
    1.6635   -0.7839    1.5044 O   0  0  0  0  0  0  0  0  0  0  0  0
   -0.3916   -0.7105    2.4147 N   0  0  0  0  0  0  0  0  0  0  0  0
   -1.3766   -0.9017    2.2633 H   0  0  0  0  0  0  0  0  0  0  0  0
    0.0689   -0.3824    3.7571 C   0  0  0  0  0  0  0  0  0  0  0  0
    0.6905    0.5189    3.7395 H   0  0  0  0  0  0  0  0  0  0  0  0
   -0.7856   -0.1992    4.4154 H   0  0  0  0  0  0  0  0  0  0  0  0
    0.6565   -1.2084    4.1713 H   0  0  0  0  0  0  0  0  0  0  0  0
  1  2  1  0  0  0  0
  2  3  1  0  0  0  0
  2  4  1  0  0  0  0
  2  5  1  0  0  0  0
  5  6  2  0  0  0  0
  5  7  1  0  0  0  0
  7  8  1  0  0  0  0
  7  9  1  0  0  0  0
  9 10  1  0  0  0  0
  9 11  1  0  0  0  0
  9 26  1  0  0  0  0
 11 12  1  0  0  0  0
 11 13  1  0  0  0  0
 11 14  1  0  0  0  0
 14 15  1  0  0  0  0
 14 16  1  0  0  0  0
 14 17  1  0  0  0  0
 17 18  1  0  0  0  0
 17 19  1  0  0  0  0
 17 20  1  0  0  0  0
 20 21  1  0  0  0  0
 20 22  1  0  0  0  0
 20 23  1  0  0  0  0
 23 24  1  0  0  0  0
 23 25  1  0  0  0  0
 26 27  2  0  0  0  0
 26 28  1  0  0  0  0
 28 29  1  0  0  0  0
 28 30  1  0  0  0  0
 30 31  1  0  0  0  0
 30 32  1  0  0  0  0
 30 33  1  0  0  0  0
M  END
$$$$

  -OEChem-03222214063D

 33 32  0     1  0  0  0  0  0999 V2000
   -2.5279   -5.1860    0.7261 H   0  0  0  0  0  0  0  0  0  0  0  0
   -2.6583   -4.1859    0.3025 C   0  0  0  0  0  0  0  0  0  0  0  0
   -3.4474   -3.6706    0.8552 H   0  0  0  0  0  0  0  0  0  0  0  0
   -2.9572   -4.2838   -0.7441 H   0  0  0  0  0  0  0  0  0  0  0  0
   -1.3612   -3.4054    0.4004 C   0  0  0  0  0  0  0  0  0  0  0  0
   -0.3765   -3.9259    0.8919 O   0  0  0  0  0  0  0  0  0  0  0  0
   -1.3088   -2.1086   -0.0710 N   0  0  0  0  0  0  0  0  0  0  0  0
   -2.1505   -1.7382   -0.5002 H   0  0  0  0  0  0  0  0  0  0  0  0
   -0.1060   -1.2553   -0.0524 C   0  0  1  0  0  0  0  0  0  0  0  0
    0.6850   -1.7878   -0.5929 H   0  0  0  0  0  0  0  0  0  0  0  0
   -0.3303    0.1047   -0.7696 C   0  0  0  0  0  0  0  0  0  0  0  0
    0.1576    0.9003   -0.1949 H   0  0  0  0  0  0  0  0  0  0  0  0
    0.1940    0.0533   -1.7293 H   0  0  0  0  0  0  0  0  0  0  0  0
   -1.7790    0.5470   -1.0693 C   0  0  0  0  0  0  0  0  0  0  0  0
   -1.7339    1.5110   -1.5873 H   0  0  0  0  0  0  0  0  0  0  0  0
   -2.2456   -0.1670   -1.7557 H   0  0  0  0  0  0  0  0  0  0  0  0
   -2.6554    0.6998    0.1879 C   0  0  0  0  0  0  0  0  0  0  0  0
   -2.8407   -0.2648    0.6631 H   0  0  0  0  0  0  0  0  0  0  0  0
   -2.1379    1.3359    0.9140 H   0  0  0  0  0  0  0  0  0  0  0  0
   -3.9956    1.3391   -0.1651 C   0  0  0  0  0  0  0  0  0  0  0  0
   -3.8342    2.3402   -0.5807 H   0  0  0  0  0  0  0  0  0  0  0  0
   -4.5159    0.7379   -0.9188 H   0  0  0  0  0  0  0  0  0  0  0  0
   -4.8037    1.4292    1.0546 N   0  0  0  0  0  0  0  0  0  0  0  0
   -5.6725    1.9380    0.8869 H   0  0  0  0  0  0  0  0  0  0  0  0
   -4.9922    0.5073    1.4465 H   0  0  0  0  0  0  0  0  0  0  0  0
    0.4508   -1.0061    1.3689 C   0  0  0  0  0  0  0  0  0  0  0  0
    1.6571   -0.8838    1.5363 O   0  0  0  0  0  0  0  0  0  0  0  0
   -0.4064   -0.6840    2.4058 N   0  0  0  0  0  0  0  0  0  0  0  0
   -1.4004   -0.7765    2.2265 H   0  0  0  0  0  0  0  0  0  0  0  0
    0.0471   -0.3691    3.7540 C   0  0  0  0  0  0  0  0  0  0  0  0
    0.7049    0.5061    3.7426 H   0  0  0  0  0  0  0  0  0  0  0  0
   -0.8090   -0.1485    4.3989 H   0  0  0  0  0  0  0  0  0  0  0  0
    0.5945   -1.2164    4.1804 H   0  0  0  0  0  0  0  0  0  0  0  0
  1  2  1  0  0  0  0
  2  3  1  0  0  0  0
  2  4  1  0  0  0  0
  2  5  1  0  0  0  0
  5  6  2  0  0  0  0
  5  7  1  0  0  0  0
  7  8  1  0  0  0  0
  7  9  1  0  0  0  0
  9 10  1  0  0  0  0
  9 11  1  0  0  0  0
  9 26  1  0  0  0  0
 11 12  1  0  0  0  0
 11 13  1  0  0  0  0
 11 14  1  0  0  0  0
 14 15  1  0  0  0  0
 14 16  1  0  0  0  0
 14 17  1  0  0  0  0
 17 18  1  0  0  0  0
 17 19  1  0  0  0  0
 17 20  1  0  0  0  0
 20 21  1  0  0  0  0
 20 22  1  0  0  0  0
 20 23  1  0  0  0  0
 23 24  1  0  0  0  0
 23 25  1  0  0  0  0
 26 27  2  0  0  0  0
 26 28  1  0  0  0  0
 28 29  1  0  0  0  0
 28 30  1  0  0  0  0
 30 31  1  0  0  0  0
 30 32  1  0  0  0  0
 30 33  1  0  0  0  0
M  END
$$$$

  -OEChem-03222214063D

 33 32  0     1  0  0  0  0  0999 V2000
   -2.6158   -5.1345    0.6958 H   0  0  0  0  0  0  0  0  0  0  0  0
   -2.7307   -4.1307    0.2765 C   0  0  0  0  0  0  0  0  0  0  0  0
   -3.5206   -3.6105    0.8232 H   0  0  0  0  0  0  0  0  0  0  0  0
   -3.0192   -4.2201   -0.7735 H   0  0  0  0  0  0  0  0  0  0  0  0
   -1.4263   -3.3646    0.3925 C   0  0  0  0  0  0  0  0  0  0  0  0
   -0.4554   -3.8957    0.8998 O   0  0  0  0  0  0  0  0  0  0  0  0
   -1.3529   -2.0664   -0.0729 N   0  0  0  0  0  0  0  0  0  0  0  0
   -2.1849   -1.6860   -0.5112 H   0  0  0  0  0  0  0  0  0  0  0  0
   -0.1352   -1.2322   -0.0418 C   0  0  1  0  0  0  0  0  0  0  0  0
    0.6478   -1.7838   -0.5748 H   0  0  0  0  0  0  0  0  0  0  0  0
   -0.3179    0.1266   -0.7716 C   0  0  0  0  0  0  0  0  0  0  0  0
    0.1831    0.9237   -0.2103 H   0  0  0  0  0  0  0  0  0  0  0  0
    0.2095    0.0464   -1.7276 H   0  0  0  0  0  0  0  0  0  0  0  0
   -1.7616    0.5651   -1.0900 C   0  0  0  0  0  0  0  0  0  0  0  0
   -1.7055    1.3958   -1.8020 H   0  0  0  0  0  0  0  0  0  0  0  0
   -2.3194   -0.2354   -1.5850 H   0  0  0  0  0  0  0  0  0  0  0  0
   -2.5019    1.0585    0.1603 C   0  0  0  0  0  0  0  0  0  0  0  0
   -2.6256    0.2345    0.8683 H   0  0  0  0  0  0  0  0  0  0  0  0
   -1.9154    1.8414    0.6528 H   0  0  0  0  0  0  0  0  0  0  0  0
   -3.8738    1.6169   -0.2074 C   0  0  0  0  0  0  0  0  0  0  0  0
   -3.7605    2.4731   -0.8821 H   0  0  0  0  0  0  0  0  0  0  0  0
   -4.4673    0.8538   -0.7232 H   0  0  0  0  0  0  0  0  0  0  0  0
   -4.5519    2.0374    1.0220 N   0  0  0  0  0  0  0  0  0  0  0  0
   -5.4536    2.4708    0.8200 H   0  0  0  0  0  0  0  0  0  0  0  0
   -4.6586    1.2609    1.6738 H   0  0  0  0  0  0  0  0  0  0  0  0
    0.4260   -0.9923    1.3794 C   0  0  0  0  0  0  0  0  0  0  0  0
    1.6345   -0.8858    1.5423 O   0  0  0  0  0  0  0  0  0  0  0  0
   -0.4213   -0.6575    2.4201 N   0  0  0  0  0  0  0  0  0  0  0  0
   -1.4152   -0.7703    2.2548 H   0  0  0  0  0  0  0  0  0  0  0  0
    0.0460   -0.3694    3.7698 C   0  0  0  0  0  0  0  0  0  0  0  0
    0.7417    0.4763    3.7626 H   0  0  0  0  0  0  0  0  0  0  0  0
   -0.7988   -0.1147    4.4166 H   0  0  0  0  0  0  0  0  0  0  0  0
    0.5563   -1.2421    4.1912 H   0  0  0  0  0  0  0  0  0  0  0  0
  1  2  1  0  0  0  0
  2  3  1  0  0  0  0
  2  4  1  0  0  0  0
  2  5  1  0  0  0  0
  5  6  2  0  0  0  0
  5  7  1  0  0  0  0
  7  8  1  0  0  0  0
  7  9  1  0  0  0  0
  9 10  1  0  0  0  0
  9 11  1  0  0  0  0
  9 26  1  0  0  0  0
 11 12  1  0  0  0  0
 11 13  1  0  0  0  0
 11 14  1  0  0  0  0
 14 15  1  0  0  0  0
 14 16  1  0  0  0  0
 14 17  1  0  0  0  0
 17 18  1  0  0  0  0
 17 19  1  0  0  0  0
 17 20  1  0  0  0  0
 20 21  1  0  0  0  0
 20 22  1  0  0  0  0
 20 23  1  0  0  0  0
 23 24  1  0  0  0  0
 23 25  1  0  0  0  0
 26 27  2  0  0  0  0
 26 28  1  0  0  0  0
 28 29  1  0  0  0  0
 28 30  1  0  0  0  0
 30 31  1  0  0  0  0
 30 32  1  0  0  0  0
 30 33  1  0  0  0  0
M  END
$$$$

  -OEChem-03222214063D

 33 32  0     1  0  0  0  0  0999 V2000
   -2.6000   -5.1627    0.6691 H   0  0  0  0  0  0  0  0  0  0  0  0
   -2.7245   -4.1581    0.2549 C   0  0  0  0  0  0  0  0  0  0  0  0
   -3.5390   -3.6578    0.7839 H   0  0  0  0  0  0  0  0  0  0  0  0
   -2.9831   -4.2443   -0.8032 H   0  0  0  0  0  0  0  0  0  0  0  0
   -1.4394   -3.3673    0.4123 C   0  0  0  0  0  0  0  0  0  0  0  0
   -0.4784   -3.8764    0.9593 O   0  0  0  0  0  0  0  0  0  0  0  0
   -1.3737   -2.0727   -0.0644 N   0  0  0  0  0  0  0  0  0  0  0  0
   -2.1867   -1.7293   -0.5635 H   0  0  0  0  0  0  0  0  0  0  0  0
   -0.1592   -1.2332   -0.0435 C   0  0  1  0  0  0  0  0  0  0  0  0
    0.6257   -1.7874   -0.5711 H   0  0  0  0  0  0  0  0  0  0  0  0
   -0.3342    0.1273   -0.7750 C   0  0  0  0  0  0  0  0  0  0  0  0
    0.1918    0.9200   -0.2306 H   0  0  0  0  0  0  0  0  0  0  0  0
    0.1840    0.0256   -1.7341 H   0  0  0  0  0  0  0  0  0  0  0  0
   -1.7717    0.5895   -1.1004 C   0  0  0  0  0  0  0  0  0  0  0  0
   -1.7175    1.2361   -1.9830 H   0  0  0  0  0  0  0  0  0  0  0  0
   -2.4294   -0.2400   -1.3687 H   0  0  0  0  0  0  0  0  0  0  0  0
   -2.3644    1.4201    0.0443 C   0  0  0  0  0  0  0  0  0  0  0  0
   -2.4274    0.8080    0.9487 H   0  0  0  0  0  0  0  0  0  0  0  0
   -1.7125    2.2737    0.2589 H   0  0  0  0  0  0  0  0  0  0  0  0
   -3.7558    1.9318   -0.3188 C   0  0  0  0  0  0  0  0  0  0  0  0
   -3.7024    2.5553   -1.2183 H   0  0  0  0  0  0  0  0  0  0  0  0
   -4.4249    1.0897   -0.5280 H   0  0  0  0  0  0  0  0  0  0  0  0
   -4.2714    2.7207    0.8036 N   0  0  0  0  0  0  0  0  0  0  0  0
   -5.1958    3.1013    0.5988 H   0  0  0  0  0  0  0  0  0  0  0  0
   -4.2821    2.1780    1.6669 H   0  0  0  0  0  0  0  0  0  0  0  0
    0.3970   -0.9851    1.3780 C   0  0  0  0  0  0  0  0  0  0  0  0
    1.6039   -0.8667    1.5445 O   0  0  0  0  0  0  0  0  0  0  0  0
   -0.4588   -0.6492    2.4114 N   0  0  0  0  0  0  0  0  0  0  0  0
   -1.4468   -0.8100    2.2499 H   0  0  0  0  0  0  0  0  0  0  0  0
    0.0010   -0.3712    3.7659 C   0  0  0  0  0  0  0  0  0  0  0  0
    0.7000    0.4718    3.7685 H   0  0  0  0  0  0  0  0  0  0  0  0
   -0.8470   -0.1166    4.4086 H   0  0  0  0  0  0  0  0  0  0  0  0
    0.5052   -1.2483    4.1853 H   0  0  0  0  0  0  0  0  0  0  0  0
  1  2  1  0  0  0  0
  2  3  1  0  0  0  0
  2  4  1  0  0  0  0
  2  5  1  0  0  0  0
  5  6  2  0  0  0  0
  5  7  1  0  0  0  0
  7  8  1  0  0  0  0
  7  9  1  0  0  0  0
  9 10  1  0  0  0  0
  9 11  1  0  0  0  0
  9 26  1  0  0  0  0
 11 12  1  0  0  0  0
 11 13  1  0  0  0  0
 11 14  1  0  0  0  0
 14 15  1  0  0  0  0
 14 16  1  0  0  0  0
 14 17  1  0  0  0  0
 17 18  1  0  0  0  0
 17 19  1  0  0  0  0
 17 20  1  0  0  0  0
 20 21  1  0  0  0  0
 20 22  1  0  0  0  0
 20 23  1  0  0  0  0
 23 24  1  0  0  0  0
 23 25  1  0  0  0  0
 26 27  2  0  0  0  0
 26 28  1  0  0  0  0
 28 29  1  0  0  0  0
 28 30  1  0  0  0  0
 30 31  1  0  0  0  0
 30 32  1  0  0  0  0
 30 33  1  0  0  0  0
M  END
$$$$

  -OEChem-03222214063D

 33 32  0     1  0  0  0  0  0999 V2000
   -2.5675   -5.1991    0.6770 H   0  0  0  0  0  0  0  0  0  0  0  0
   -2.6968   -4.2079    0.2330 C   0  0  0  0  0  0  0  0  0  0  0  0
   -3.5508   -3.7189    0.7075 H   0  0  0  0  0  0  0  0  0  0  0  0
   -2.8980   -4.3261   -0.8342 H   0  0  0  0  0  0  0  0  0  0  0  0
   -1.4428   -3.3781    0.4363 C   0  0  0  0  0  0  0  0  0  0  0  0
   -0.4990   -3.8500    1.0433 O   0  0  0  0  0  0  0  0  0  0  0  0
   -1.3850   -2.0943   -0.0717 N   0  0  0  0  0  0  0  0  0  0  0  0
   -2.1602   -1.8104   -0.6609 H   0  0  0  0  0  0  0  0  0  0  0  0
   -0.1749   -1.2470   -0.0618 C   0  0  1  0  0  0  0  0  0  0  0  0
    0.6198   -1.7979   -0.5777 H   0  0  0  0  0  0  0  0  0  0  0  0
   -0.3540    0.1163   -0.7901 C   0  0  0  0  0  0  0  0  0  0  0  0
    0.1906    0.9034   -0.2553 H   0  0  0  0  0  0  0  0  0  0  0  0
    0.1545    0.0088   -1.7537 H   0  0  0  0  0  0  0  0  0  0  0  0
   -1.7899    0.5976   -1.1121 C   0  0  0  0  0  0  0  0  0  0  0  0
   -1.7897    1.0079   -2.1279 H   0  0  0  0  0  0  0  0  0  0  0  0
   -2.5286   -0.2048   -1.1023 H   0  0  0  0  0  0  0  0  0  0  0  0
   -2.2109    1.7167   -0.1517 C   0  0  0  0  0  0  0  0  0  0  0  0
   -2.1748    1.3489    0.8787 H   0  0  0  0  0  0  0  0  0  0  0  0
   -1.5121    2.5561   -0.2350 H   0  0  0  0  0  0  0  0  0  0  0  0
   -3.6213    2.2067   -0.4656 C   0  0  0  0  0  0  0  0  0  0  0  0
   -3.6717    2.5701   -1.4982 H   0  0  0  0  0  0  0  0  0  0  0  0
   -4.3380    1.3852   -0.3573 H   0  0  0  0  0  0  0  0  0  0  0  0
   -3.9540    3.2922    0.4606 N   0  0  0  0  0  0  0  0  0  0  0  0
   -4.8898    3.6584    0.2850 H   0  0  0  0  0  0  0  0  0  0  0  0
   -3.8534    2.9954    1.4313 H   0  0  0  0  0  0  0  0  0  0  0  0
    0.3569   -0.9714    1.3645 C   0  0  0  0  0  0  0  0  0  0  0  0
    1.5597   -0.8402    1.5503 O   0  0  0  0  0  0  0  0  0  0  0  0
   -0.5224   -0.6222    2.3739 N   0  0  0  0  0  0  0  0  0  0  0  0
   -1.5047   -0.8014    2.1965 H   0  0  0  0  0  0  0  0  0  0  0  0
   -0.0936   -0.3163    3.7325 C   0  0  0  0  0  0  0  0  0  0  0  0
    0.6057    0.5265    3.7338 H   0  0  0  0  0  0  0  0  0  0  0  0
   -0.9561   -0.0475    4.3497 H   0  0  0  0  0  0  0  0  0  0  0  0
    0.3998   -1.1844    4.1823 H   0  0  0  0  0  0  0  0  0  0  0  0
  1  2  1  0  0  0  0
  2  3  1  0  0  0  0
  2  4  1  0  0  0  0
  2  5  1  0  0  0  0
  5  6  2  0  0  0  0
  5  7  1  0  0  0  0
  7  8  1  0  0  0  0
  7  9  1  0  0  0  0
  9 10  1  0  0  0  0
  9 11  1  0  0  0  0
  9 26  1  0  0  0  0
 11 12  1  0  0  0  0
 11 13  1  0  0  0  0
 11 14  1  0  0  0  0
 14 15  1  0  0  0  0
 14 16  1  0  0  0  0
 14 17  1  0  0  0  0
 17 18  1  0  0  0  0
 17 19  1  0  0  0  0
 17 20  1  0  0  0  0
 20 21  1  0  0  0  0
 20 22  1  0  0  0  0
 20 23  1  0  0  0  0
 23 24  1  0  0  0  0
 23 25  1  0  0  0  0
 26 27  2  0  0  0  0
 26 28  1  0  0  0  0
 28 29  1  0  0  0  0
 28 30  1  0  0  0  0
 30 31  1  0  0  0  0
 30 32  1  0  0  0  0
 30 33  1  0  0  0  0
M  END
$$$$

  -OEChem-03222214063D

 33 32  0     1  0  0  0  0  0999 V2000
   -2.5649   -5.2023    0.6891 H   0  0  0  0  0  0  0  0  0  0  0  0
   -2.6906   -4.2186    0.2277 C   0  0  0  0  0  0  0  0  0  0  0  0
   -3.5573   -3.7283    0.6773 H   0  0  0  0  0  0  0  0  0  0  0  0
   -2.8687   -4.3533   -0.8418 H   0  0  0  0  0  0  0  0  0  0  0  0
   -1.4464   -3.3779    0.4450 C   0  0  0  0  0  0  0  0  0  0  0  0
   -0.5073   -3.8386    1.0677 O   0  0  0  0  0  0  0  0  0  0  0  0
   -1.3926   -2.0963   -0.0687 N   0  0  0  0  0  0  0  0  0  0  0  0
   -2.1556   -1.8293   -0.6818 H   0  0  0  0  0  0  0  0  0  0  0  0
   -0.1848   -1.2458   -0.0632 C   0  0  1  0  0  0  0  0  0  0  0  0
    0.6106   -1.7952   -0.5797 H   0  0  0  0  0  0  0  0  0  0  0  0
   -0.3737    0.1155   -0.7939 C   0  0  0  0  0  0  0  0  0  0  0  0
    0.1591    0.8998   -0.2433 H   0  0  0  0  0  0  0  0  0  0  0  0
    0.1457    0.0287   -1.7541 H   0  0  0  0  0  0  0  0  0  0  0  0
   -1.8152    0.5910   -1.1108 C   0  0  0  0  0  0  0  0  0  0  0  0
   -1.9163    0.7106   -2.1947 H   0  0  0  0  0  0  0  0  0  0  0  0
   -2.5783   -0.1203   -0.7927 H   0  0  0  0  0  0  0  0  0  0  0  0
   -2.1009    1.9338   -0.4265 C   0  0  0  0  0  0  0  0  0  0  0  0
   -1.9782    1.8277    0.6566 H   0  0  0  0  0  0  0  0  0  0  0  0
   -1.3827    2.6830   -0.7760 H   0  0  0  0  0  0  0  0  0  0  0  0
   -3.5160    2.4165   -0.7324 C   0  0  0  0  0  0  0  0  0  0  0  0
   -3.6533    2.5122   -1.8152 H   0  0  0  0  0  0  0  0  0  0  0  0
   -4.2498    1.6943   -0.3579 H   0  0  0  0  0  0  0  0  0  0  0  0
   -3.7148    3.7183   -0.0894 N   0  0  0  0  0  0  0  0  0  0  0  0
   -4.6486    4.0860   -0.2721 H   0  0  0  0  0  0  0  0  0  0  0  0
   -3.5308    3.6689    0.9128 H   0  0  0  0  0  0  0  0  0  0  0  0
    0.3485   -0.9619    1.3609 C   0  0  0  0  0  0  0  0  0  0  0  0
    1.5509   -0.8219    1.5431 O   0  0  0  0  0  0  0  0  0  0  0  0
   -0.5318   -0.6102    2.3685 N   0  0  0  0  0  0  0  0  0  0  0  0
   -1.5120   -0.8053    2.1963 H   0  0  0  0  0  0  0  0  0  0  0  0
   -0.1013   -0.2942    3.7240 C   0  0  0  0  0  0  0  0  0  0  0  0
    0.5985    0.5482    3.7177 H   0  0  0  0  0  0  0  0  0  0  0  0
   -0.9629   -0.0206    4.3400 H   0  0  0  0  0  0  0  0  0  0  0  0
    0.3926   -1.1590    4.1791 H   0  0  0  0  0  0  0  0  0  0  0  0
  1  2  1  0  0  0  0
  2  3  1  0  0  0  0
  2  4  1  0  0  0  0
  2  5  1  0  0  0  0
  5  6  2  0  0  0  0
  5  7  1  0  0  0  0
  7  8  1  0  0  0  0
  7  9  1  0  0  0  0
  9 10  1  0  0  0  0
  9 11  1  0  0  0  0
  9 26  1  0  0  0  0
 11 12  1  0  0  0  0
 11 13  1  0  0  0  0
 11 14  1  0  0  0  0
 14 15  1  0  0  0  0
 14 16  1  0  0  0  0
 14 17  1  0  0  0  0
 17 18  1  0  0  0  0
 17 19  1  0  0  0  0
 17 20  1  0  0  0  0
 20 21  1  0  0  0  0
 20 22  1  0  0  0  0
 20 23  1  0  0  0  0
 23 24  1  0  0  0  0
 23 25  1  0  0  0  0
 26 27  2  0  0  0  0
 26 28  1  0  0  0  0
 28 29  1  0  0  0  0
 28 30  1  0  0  0  0
 30 31  1  0  0  0  0
 30 32  1  0  0  0  0
 30 33  1  0  0  0  0
M  END
$$$$

  -OEChem-03222214063D

 33 32  0     1  0  0  0  0  0999 V2000
   -2.5822   -5.1764    0.6915 H   0  0  0  0  0  0  0  0  0  0  0  0
   -2.7086   -4.1899    0.2362 C   0  0  0  0  0  0  0  0  0  0  0  0
   -3.5680   -3.6975    0.6973 H   0  0  0  0  0  0  0  0  0  0  0  0
   -2.8990   -4.3190   -0.8320 H   0  0  0  0  0  0  0  0  0  0  0  0
   -1.4584   -3.3561    0.4453 C   0  0  0  0  0  0  0  0  0  0  0  0
   -0.5197   -3.8213    1.0652 O   0  0  0  0  0  0  0  0  0  0  0  0
   -1.3985   -2.0744   -0.0675 N   0  0  0  0  0  0  0  0  0  0  0  0
   -2.1638   -1.7976   -0.6739 H   0  0  0  0  0  0  0  0  0  0  0  0
   -0.1852   -1.2308   -0.0640 C   0  0  1  0  0  0  0  0  0  0  0  0
    0.6061   -1.7827   -0.5835 H   0  0  0  0  0  0  0  0  0  0  0  0
   -0.3784    0.1246   -0.8023 C   0  0  0  0  0  0  0  0  0  0  0  0
    0.1340    0.9094   -0.2336 H   0  0  0  0  0  0  0  0  0  0  0  0
    0.1496    0.0597   -1.7592 H   0  0  0  0  0  0  0  0  0  0  0  0
   -1.8272    0.5770   -1.1078 C   0  0  0  0  0  0  0  0  0  0  0  0
   -2.0522    0.3979   -2.1646 H   0  0  0  0  0  0  0  0  0  0  0  0
   -2.5561    0.0257   -0.5095 H   0  0  0  0  0  0  0  0  0  0  0  0
   -2.0102    2.0607   -0.7640 C   0  0  0  0  0  0  0  0  0  0  0  0
   -1.7963    2.2223    0.2977 H   0  0  0  0  0  0  0  0  0  0  0  0
   -1.3019    2.6600   -1.3461 H   0  0  0  0  0  0  0  0  0  0  0  0
   -3.4313    2.5247   -1.0701 C   0  0  0  0  0  0  0  0  0  0  0  0
   -3.6598    2.3617   -2.1292 H   0  0  0  0  0  0  0  0  0  0  0  0
   -4.1508    1.9527   -0.4740 H   0  0  0  0  0  0  0  0  0  0  0  0
   -3.5326    3.9514   -0.7519 N   0  0  0  0  0  0  0  0  0  0  0  0
   -4.4704    4.3086   -0.9349 H   0  0  0  0  0  0  0  0  0  0  0  0
   -3.2527    4.1361    0.2117 H   0  0  0  0  0  0  0  0  0  0  0  0
    0.3544   -0.9502    1.3585 C   0  0  0  0  0  0  0  0  0  0  0  0
    1.5579   -0.8156    1.5368 O   0  0  0  0  0  0  0  0  0  0  0  0
   -0.5211   -0.5935    2.3686 N   0  0  0  0  0  0  0  0  0  0  0  0
   -1.5007   -0.7973    2.2033 H   0  0  0  0  0  0  0  0  0  0  0  0
   -0.0841   -0.2923    3.7256 C   0  0  0  0  0  0  0  0  0  0  0  0
    0.6351    0.5335    3.7226 H   0  0  0  0  0  0  0  0  0  0  0  0
   -0.9394   -0.0005    4.3423 H   0  0  0  0  0  0  0  0  0  0  0  0
    0.3888   -1.1705    4.1777 H   0  0  0  0  0  0  0  0  0  0  0  0
  1  2  1  0  0  0  0
  2  3  1  0  0  0  0
  2  4  1  0  0  0  0
  2  5  1  0  0  0  0
  5  6  2  0  0  0  0
  5  7  1  0  0  0  0
  7  8  1  0  0  0  0
  7  9  1  0  0  0  0
  9 10  1  0  0  0  0
  9 11  1  0  0  0  0
  9 26  1  0  0  0  0
 11 12  1  0  0  0  0
 11 13  1  0  0  0  0
 11 14  1  0  0  0  0
 14 15  1  0  0  0  0
 14 16  1  0  0  0  0
 14 17  1  0  0  0  0
 17 18  1  0  0  0  0
 17 19  1  0  0  0  0
 17 20  1  0  0  0  0
 20 21  1  0  0  0  0
 20 22  1  0  0  0  0
 20 23  1  0  0  0  0
 23 24  1  0  0  0  0
 23 25  1  0  0  0  0
 26 27  2  0  0  0  0
 26 28  1  0  0  0  0
 28 29  1  0  0  0  0
 28 30  1  0  0  0  0
 30 31  1  0  0  0  0
 30 32  1  0  0  0  0
 30 33  1  0  0  0  0
M  END
$$$$

  -OEChem-03222214063D

 33 32  0     1  0  0  0  0  0999 V2000
   -2.6273   -5.1339    0.6846 H   0  0  0  0  0  0  0  0  0  0  0  0
   -2.7430   -4.1419    0.2378 C   0  0  0  0  0  0  0  0  0  0  0  0
   -3.5950   -3.6433    0.7058 H   0  0  0  0  0  0  0  0  0  0  0  0
   -2.9385   -4.2598   -0.8307 H   0  0  0  0  0  0  0  0  0  0  0  0
   -1.4819   -3.3246    0.4474 C   0  0  0  0  0  0  0  0  0  0  0  0
   -0.5510   -3.8006    1.0709 O   0  0  0  0  0  0  0  0  0  0  0  0
   -1.4028   -2.0452   -0.0691 N   0  0  0  0  0  0  0  0  0  0  0  0
   -2.1683   -1.7529   -0.6683 H   0  0  0  0  0  0  0  0  0  0  0  0
   -0.1771   -1.2192   -0.0671 C   0  0  1  0  0  0  0  0  0  0  0  0
    0.6073   -1.7808   -0.5875 H   0  0  0  0  0  0  0  0  0  0  0  0
   -0.3668    0.1318   -0.8103 C   0  0  0  0  0  0  0  0  0  0  0  0
    0.1330    0.9197   -0.2350 H   0  0  0  0  0  0  0  0  0  0  0  0
    0.1586    0.0752   -1.7692 H   0  0  0  0  0  0  0  0  0  0  0  0
   -1.8220    0.5599   -1.0956 C   0  0  0  0  0  0  0  0  0  0  0  0
   -2.1578    0.1297   -2.0451 H   0  0  0  0  0  0  0  0  0  0  0  0
   -2.4863    0.2048   -0.3022 H   0  0  0  0  0  0  0  0  0  0  0  0
   -1.9365    2.0887   -1.1204 C   0  0  0  0  0  0  0  0  0  0  0  0
   -1.6288    2.4981   -0.1526 H   0  0  0  0  0  0  0  0  0  0  0  0
   -1.2665    2.4928   -1.8868 H   0  0  0  0  0  0  0  0  0  0  0  0
   -3.3669    2.5268   -1.4210 C   0  0  0  0  0  0  0  0  0  0  0  0
   -3.6914    2.1165   -2.3838 H   0  0  0  0  0  0  0  0  0  0  0  0
   -4.0453    2.1542   -0.6456 H   0  0  0  0  0  0  0  0  0  0  0  0
   -3.4049    3.9910   -1.4649 N   0  0  0  0  0  0  0  0  0  0  0  0
   -4.3469    4.3341   -1.6538 H   0  0  0  0  0  0  0  0  0  0  0  0
   -3.0347    4.3957   -0.6046 H   0  0  0  0  0  0  0  0  0  0  0  0
    0.3669   -0.9412    1.3540 C   0  0  0  0  0  0  0  0  0  0  0  0
    1.5720   -0.8202    1.5312 O   0  0  0  0  0  0  0  0  0  0  0  0
   -0.5040   -0.5686    2.3624 N   0  0  0  0  0  0  0  0  0  0  0  0
   -1.4849   -0.7683    2.1991 H   0  0  0  0  0  0  0  0  0  0  0  0
   -0.0629   -0.2846    3.7217 C   0  0  0  0  0  0  0  0  0  0  0  0
    0.6749    0.5247    3.7255 H   0  0  0  0  0  0  0  0  0  0  0  0
   -0.9128    0.0223    4.3387 H   0  0  0  0  0  0  0  0  0  0  0  0
    0.3892   -1.1760    4.1692 H   0  0  0  0  0  0  0  0  0  0  0  0
  1  2  1  0  0  0  0
  2  3  1  0  0  0  0
  2  4  1  0  0  0  0
  2  5  1  0  0  0  0
  5  6  2  0  0  0  0
  5  7  1  0  0  0  0
  7  8  1  0  0  0  0
  7  9  1  0  0  0  0
  9 10  1  0  0  0  0
  9 11  1  0  0  0  0
  9 26  1  0  0  0  0
 11 12  1  0  0  0  0
 11 13  1  0  0  0  0
 11 14  1  0  0  0  0
 14 15  1  0  0  0  0
 14 16  1  0  0  0  0
 14 17  1  0  0  0  0
 17 18  1  0  0  0  0
 17 19  1  0  0  0  0
 17 20  1  0  0  0  0
 20 21  1  0  0  0  0
 20 22  1  0  0  0  0
 20 23  1  0  0  0  0
 23 24  1  0  0  0  0
 23 25  1  0  0  0  0
 26 27  2  0  0  0  0
 26 28  1  0  0  0  0
 28 29  1  0  0  0  0
 28 30  1  0  0  0  0
 30 31  1  0  0  0  0
 30 32  1  0  0  0  0
 30 33  1  0  0  0  0
M  END
$$$$

  -OEChem-03222214063D

 33 32  0     1  0  0  0  0  0999 V2000
   -2.6785   -5.0884    0.6857 H   0  0  0  0  0  0  0  0  0  0  0  0
   -2.7779   -4.0958    0.2371 C   0  0  0  0  0  0  0  0  0  0  0  0
   -3.6189   -3.5805    0.7068 H   0  0  0  0  0  0  0  0  0  0  0  0
   -2.9791   -4.2123   -0.8305 H   0  0  0  0  0  0  0  0  0  0  0  0
   -1.5014   -3.3015    0.4415 C   0  0  0  0  0  0  0  0  0  0  0  0
   -0.5744   -3.7952    1.0570 O   0  0  0  0  0  0  0  0  0  0  0  0
   -1.4043   -2.0224   -0.0715 N   0  0  0  0  0  0  0  0  0  0  0  0
   -2.1737   -1.7101   -0.6550 H   0  0  0  0  0  0  0  0  0  0  0  0
   -0.1695   -1.2100   -0.0649 C   0  0  1  0  0  0  0  0  0  0  0  0
    0.6095   -1.7787   -0.5851 H   0  0  0  0  0  0  0  0  0  0  0  0
   -0.3523    0.1377   -0.8131 C   0  0  0  0  0  0  0  0  0  0  0  0
    0.1412    0.9337   -0.2430 H   0  0  0  0  0  0  0  0  0  0  0  0
    0.1697    0.0716   -1.7735 H   0  0  0  0  0  0  0  0  0  0  0  0
   -1.8103    0.5482   -1.0914 C   0  0  0  0  0  0  0  0  0  0  0  0
   -2.2276   -0.0752   -1.8890 H   0  0  0  0  0  0  0  0  0  0  0  0
   -2.4129    0.4060   -0.1879 H   0  0  0  0  0  0  0  0  0  0  0  0
   -1.8844    2.0269   -1.4872 C   0  0  0  0  0  0  0  0  0  0  0  0
   -1.4762    2.6480   -0.6830 H   0  0  0  0  0  0  0  0  0  0  0  0
   -1.2788    2.1954   -2.3840 H   0  0  0  0  0  0  0  0  0  0  0  0
   -3.3251    2.4447   -1.7670 C   0  0  0  0  0  0  0  0  0  0  0  0
   -3.7486    1.8240   -2.5645 H   0  0  0  0  0  0  0  0  0  0  0  0
   -3.9370    2.3099   -0.8682 H   0  0  0  0  0  0  0  0  0  0  0  0
   -3.3301    3.8519   -2.1752 N   0  0  0  0  0  0  0  0  0  0  0  0
   -4.2764    4.1801   -2.3692 H   0  0  0  0  0  0  0  0  0  0  0  0
   -2.8765    4.4399   -1.4755 H   0  0  0  0  0  0  0  0  0  0  0  0
    0.3789   -0.9374    1.3550 C   0  0  0  0  0  0  0  0  0  0  0  0
    1.5854   -0.8313    1.5326 O   0  0  0  0  0  0  0  0  0  0  0  0
   -0.4877   -0.5549    2.3630 N   0  0  0  0  0  0  0  0  0  0  0  0
   -1.4707   -0.7414    2.1983 H   0  0  0  0  0  0  0  0  0  0  0  0
   -0.0445   -0.2767    3.7226 C   0  0  0  0  0  0  0  0  0  0  0  0
    0.6939    0.5319    3.7279 H   0  0  0  0  0  0  0  0  0  0  0  0
   -0.8935    0.0288    4.3413 H   0  0  0  0  0  0  0  0  0  0  0  0
    0.4074   -1.1700    4.1664 H   0  0  0  0  0  0  0  0  0  0  0  0
  1  2  1  0  0  0  0
  2  3  1  0  0  0  0
  2  4  1  0  0  0  0
  2  5  1  0  0  0  0
  5  6  2  0  0  0  0
  5  7  1  0  0  0  0
  7  8  1  0  0  0  0
  7  9  1  0  0  0  0
  9 10  1  0  0  0  0
  9 11  1  0  0  0  0
  9 26  1  0  0  0  0
 11 12  1  0  0  0  0
 11 13  1  0  0  0  0
 11 14  1  0  0  0  0
 14 15  1  0  0  0  0
 14 16  1  0  0  0  0
 14 17  1  0  0  0  0
 17 18  1  0  0  0  0
 17 19  1  0  0  0  0
 17 20  1  0  0  0  0
 20 21  1  0  0  0  0
 20 22  1  0  0  0  0
 20 23  1  0  0  0  0
 23 24  1  0  0  0  0
 23 25  1  0  0  0  0
 26 27  2  0  0  0  0
 26 28  1  0  0  0  0
 28 29  1  0  0  0  0
 28 30  1  0  0  0  0
 30 31  1  0  0  0  0
 30 32  1  0  0  0  0
 30 33  1  0  0  0  0
M  END
$$$$

  -OEChem-03222214063D

 33 32  0     1  0  0  0  0  0999 V2000
   -2.6907   -5.0750    0.6587 H   0  0  0  0  0  0  0  0  0  0  0  0
   -2.7872   -4.0792    0.2165 C   0  0  0  0  0  0  0  0  0  0  0  0
   -3.6296   -3.5656    0.6860 H   0  0  0  0  0  0  0  0  0  0  0  0
   -2.9838   -4.1883   -0.8528 H   0  0  0  0  0  0  0  0  0  0  0  0
   -1.5110   -3.2876    0.4322 C   0  0  0  0  0  0  0  0  0  0  0  0
   -0.5923   -3.7815    1.0602 O   0  0  0  0  0  0  0  0  0  0  0  0
   -1.4070   -2.0085   -0.0793 N   0  0  0  0  0  0  0  0  0  0  0  0
   -2.1650   -1.7019   -0.6809 H   0  0  0  0  0  0  0  0  0  0  0  0
   -0.1687   -1.2028   -0.0659 C   0  0  1  0  0  0  0  0  0  0  0  0
    0.6118   -1.7690   -0.5867 H   0  0  0  0  0  0  0  0  0  0  0  0
   -0.3497    0.1464   -0.8033 C   0  0  0  0  0  0  0  0  0  0  0  0
    0.3607    0.8794   -0.4041 H   0  0  0  0  0  0  0  0  0  0  0  0
   -0.0849   -0.0116   -1.8539 H   0  0  0  0  0  0  0  0  0  0  0  0
   -1.7723    0.7341   -0.7595 C   0  0  0  0  0  0  0  0  0  0  0  0
   -2.4860    0.0450   -1.2209 H   0  0  0  0  0  0  0  0  0  0  0  0
   -2.0710    0.8934    0.2820 H   0  0  0  0  0  0  0  0  0  0  0  0
   -1.8186    2.0635   -1.5206 C   0  0  0  0  0  0  0  0  0  0  0  0
   -1.0968    2.7619   -1.0847 H   0  0  0  0  0  0  0  0  0  0  0  0
   -1.5382    1.8982   -2.5663 H   0  0  0  0  0  0  0  0  0  0  0  0
   -3.2139    2.6791   -1.4640 C   0  0  0  0  0  0  0  0  0  0  0  0
   -3.9493    1.9841   -1.8844 H   0  0  0  0  0  0  0  0  0  0  0  0
   -3.4929    2.8834   -0.4242 H   0  0  0  0  0  0  0  0  0  0  0  0
   -3.2059    3.9226   -2.2391 N   0  0  0  0  0  0  0  0  0  0  0  0
   -4.1180    4.3792   -2.2178 H   0  0  0  0  0  0  0  0  0  0  0  0
   -2.4750    4.5551   -1.9118 H   0  0  0  0  0  0  0  0  0  0  0  0
    0.3777   -0.9327    1.3556 C   0  0  0  0  0  0  0  0  0  0  0  0
    1.5848   -0.8320    1.5325 O   0  0  0  0  0  0  0  0  0  0  0  0
   -0.4841   -0.5457    2.3666 N   0  0  0  0  0  0  0  0  0  0  0  0
   -1.4674   -0.7372    2.2079 H   0  0  0  0  0  0  0  0  0  0  0  0
   -0.0335   -0.2831    3.7277 C   0  0  0  0  0  0  0  0  0  0  0  0
    0.7175    0.5141    3.7377 H   0  0  0  0  0  0  0  0  0  0  0  0
   -0.8760    0.0313    4.3508 H   0  0  0  0  0  0  0  0  0  0  0  0
    0.4053   -1.1863    4.1648 H   0  0  0  0  0  0  0  0  0  0  0  0
  1  2  1  0  0  0  0
  2  3  1  0  0  0  0
  2  4  1  0  0  0  0
  2  5  1  0  0  0  0
  5  6  2  0  0  0  0
  5  7  1  0  0  0  0
  7  8  1  0  0  0  0
  7  9  1  0  0  0  0
  9 10  1  0  0  0  0
  9 11  1  0  0  0  0
  9 26  1  0  0  0  0
 11 12  1  0  0  0  0
 11 13  1  0  0  0  0
 11 14  1  0  0  0  0
 14 15  1  0  0  0  0
 14 16  1  0  0  0  0
 14 17  1  0  0  0  0
 17 18  1  0  0  0  0
 17 19  1  0  0  0  0
 17 20  1  0  0  0  0
 20 21  1  0  0  0  0
 20 22  1  0  0  0  0
 20 23  1  0  0  0  0
 23 24  1  0  0  0  0
 23 25  1  0  0  0  0
 26 27  2  0  0  0  0
 26 28  1  0  0  0  0
 28 29  1  0  0  0  0
 28 30  1  0  0  0  0
 30 31  1  0  0  0  0
 30 32  1  0  0  0  0
 30 33  1  0  0  0  0
M  END
$$$$

  -OEChem-03222214063D

 33 32  0     1  0  0  0  0  0999 V2000
   -2.6587   -5.1072    0.7040 H   0  0  0  0  0  0  0  0  0  0  0  0
   -2.7662   -4.1193    0.2467 C   0  0  0  0  0  0  0  0  0  0  0  0
   -3.6176   -3.6109    0.7053 H   0  0  0  0  0  0  0  0  0  0  0  0
   -2.9569   -4.2469   -0.8215 H   0  0  0  0  0  0  0  0  0  0  0  0
   -1.5011   -3.3076    0.4558 C   0  0  0  0  0  0  0  0  0  0  0  0
   -0.5763   -3.7839    1.0883 O   0  0  0  0  0  0  0  0  0  0  0  0
   -1.4146   -2.0311   -0.0660 N   0  0  0  0  0  0  0  0  0  0  0  0
   -2.1684   -1.7496   -0.6848 H   0  0  0  0  0  0  0  0  0  0  0  0
   -0.1838   -1.2142   -0.0699 C   0  0  1  0  0  0  0  0  0  0  0  0
    0.5972   -1.7770   -0.5935 H   0  0  0  0  0  0  0  0  0  0  0  0
   -0.3730    0.1372   -0.8046 C   0  0  0  0  0  0  0  0  0  0  0  0
    0.3480    0.8725   -0.4294 H   0  0  0  0  0  0  0  0  0  0  0  0
   -0.1214   -0.0408   -1.8556 H   0  0  0  0  0  0  0  0  0  0  0  0
   -1.7900    0.7445   -0.7603 C   0  0  0  0  0  0  0  0  0  0  0  0
   -2.5513   -0.0078   -0.9808 H   0  0  0  0  0  0  0  0  0  0  0  0
   -1.9832    1.1403    0.2423 H   0  0  0  0  0  0  0  0  0  0  0  0
   -1.9244    1.8545   -1.8083 C   0  0  0  0  0  0  0  0  0  0  0  0
   -1.1533    2.6134   -1.6398 H   0  0  0  0  0  0  0  0  0  0  0  0
   -1.7744    1.4363   -2.8093 H   0  0  0  0  0  0  0  0  0  0  0  0
   -3.3011    2.5086   -1.7366 C   0  0  0  0  0  0  0  0  0  0  0  0
   -4.0844    1.7557   -1.8767 H   0  0  0  0  0  0  0  0  0  0  0  0
   -3.4455    2.9722   -0.7544 H   0  0  0  0  0  0  0  0  0  0  0  0
   -3.3907    3.5204   -2.7926 N   0  0  0  0  0  0  0  0  0  0  0  0
   -4.2960    3.9906   -2.7804 H   0  0  0  0  0  0  0  0  0  0  0  0
   -2.6295    4.1960   -2.7193 H   0  0  0  0  0  0  0  0  0  0  0  0
    0.3696   -0.9316    1.3464 C   0  0  0  0  0  0  0  0  0  0  0  0
    1.5771   -0.8206    1.5145 O   0  0  0  0  0  0  0  0  0  0  0  0
   -0.4887   -0.5469    2.3611 N   0  0  0  0  0  0  0  0  0  0  0  0
   -1.4718   -0.7445    2.2083 H   0  0  0  0  0  0  0  0  0  0  0  0
   -0.0306   -0.2747    3.7174 C   0  0  0  0  0  0  0  0  0  0  0  0
    0.7104    0.5316    3.7183 H   0  0  0  0  0  0  0  0  0  0  0  0
   -0.8715    0.0310    4.3468 H   0  0  0  0  0  0  0  0  0  0  0  0
    0.4238   -1.1705    4.1533 H   0  0  0  0  0  0  0  0  0  0  0  0
  1  2  1  0  0  0  0
  2  3  1  0  0  0  0
  2  4  1  0  0  0  0
  2  5  1  0  0  0  0
  5  6  2  0  0  0  0
  5  7  1  0  0  0  0
  7  8  1  0  0  0  0
  7  9  1  0  0  0  0
  9 10  1  0  0  0  0
  9 11  1  0  0  0  0
  9 26  1  0  0  0  0
 11 12  1  0  0  0  0
 11 13  1  0  0  0  0
 11 14  1  0  0  0  0
 14 15  1  0  0  0  0
 14 16  1  0  0  0  0
 14 17  1  0  0  0  0
 17 18  1  0  0  0  0
 17 19  1  0  0  0  0
 17 20  1  0  0  0  0
 20 21  1  0  0  0  0
 20 22  1  0  0  0  0
 20 23  1  0  0  0  0
 23 24  1  0  0  0  0
 23 25  1  0  0  0  0
 26 27  2  0  0  0  0
 26 28  1  0  0  0  0
 28 29  1  0  0  0  0
 28 30  1  0  0  0  0
 30 31  1  0  0  0  0
 30 32  1  0  0  0  0
 30 33  1  0  0  0  0
M  END
$$$$

  -OEChem-03222214063D

 33 32  0     1  0  0  0  0  0999 V2000
   -2.6337   -5.1359    0.7298 H   0  0  0  0  0  0  0  0  0  0  0  0
   -2.7490   -4.1515    0.2666 C   0  0  0  0  0  0  0  0  0  0  0  0
   -3.6122   -3.6521    0.7127 H   0  0  0  0  0  0  0  0  0  0  0  0
   -2.9263   -4.2862   -0.8032 H   0  0  0  0  0  0  0  0  0  0  0  0
   -1.4972   -3.3222    0.4850 C   0  0  0  0  0  0  0  0  0  0  0  0
   -0.5720   -3.7834    1.1278 O   0  0  0  0  0  0  0  0  0  0  0  0
   -1.4210   -2.0492   -0.0466 N   0  0  0  0  0  0  0  0  0  0  0  0
   -2.1743   -1.7833   -0.6733 H   0  0  0  0  0  0  0  0  0  0  0  0
   -0.1943   -1.2268   -0.0669 C   0  0  1  0  0  0  0  0  0  0  0  0
    0.5845   -1.7906   -0.5927 H   0  0  0  0  0  0  0  0  0  0  0  0
   -0.3879    0.1234   -0.8051 C   0  0  0  0  0  0  0  0  0  0  0  0
    0.3448    0.8583   -0.4517 H   0  0  0  0  0  0  0  0  0  0  0  0
   -0.1438   -0.0743   -1.8542 H   0  0  0  0  0  0  0  0  0  0  0  0
   -1.7998    0.7525   -0.7640 C   0  0  0  0  0  0  0  0  0  0  0  0
   -2.5854   -0.0032   -0.7042 H   0  0  0  0  0  0  0  0  0  0  0  0
   -1.8817    1.3829    0.1278 H   0  0  0  0  0  0  0  0  0  0  0  0
   -2.0593    1.5792   -2.0285 C   0  0  0  0  0  0  0  0  0  0  0  0
   -1.2701    2.3294   -2.1460 H   0  0  0  0  0  0  0  0  0  0  0  0
   -2.0374    0.9256   -2.9070 H   0  0  0  0  0  0  0  0  0  0  0  0
   -3.4138    2.2780   -1.9529 C   0  0  0  0  0  0  0  0  0  0  0  0
   -4.2113    1.5417   -1.8029 H   0  0  0  0  0  0  0  0  0  0  0  0
   -3.4303    2.9751   -1.1076 H   0  0  0  0  0  0  0  0  0  0  0  0
   -3.6329    2.9991   -3.2091 N   0  0  0  0  0  0  0  0  0  0  0  0
   -4.5248    3.4941   -3.2019 H   0  0  0  0  0  0  0  0  0  0  0  0
   -2.8634    3.6408   -3.4021 H   0  0  0  0  0  0  0  0  0  0  0  0
    0.3678   -0.9330    1.3434 C   0  0  0  0  0  0  0  0  0  0  0  0
    1.5759   -0.8137    1.5020 O   0  0  0  0  0  0  0  0  0  0  0  0
   -0.4855   -0.5459    2.3614 N   0  0  0  0  0  0  0  0  0  0  0  0
   -1.4682   -0.7523    2.2175 H   0  0  0  0  0  0  0  0  0  0  0  0
   -0.0191   -0.2700    3.7143 C   0  0  0  0  0  0  0  0  0  0  0  0
    0.7114    0.5459    3.7098 H   0  0  0  0  0  0  0  0  0  0  0  0
   -0.8584    0.0235    4.3519 H   0  0  0  0  0  0  0  0  0  0  0  0
    0.4503   -1.1610    4.1448 H   0  0  0  0  0  0  0  0  0  0  0  0
  1  2  1  0  0  0  0
  2  3  1  0  0  0  0
  2  4  1  0  0  0  0
  2  5  1  0  0  0  0
  5  6  2  0  0  0  0
  5  7  1  0  0  0  0
  7  8  1  0  0  0  0
  7  9  1  0  0  0  0
  9 10  1  0  0  0  0
  9 11  1  0  0  0  0
  9 26  1  0  0  0  0
 11 12  1  0  0  0  0
 11 13  1  0  0  0  0
 11 14  1  0  0  0  0
 14 15  1  0  0  0  0
 14 16  1  0  0  0  0
 14 17  1  0  0  0  0
 17 18  1  0  0  0  0
 17 19  1  0  0  0  0
 17 20  1  0  0  0  0
 20 21  1  0  0  0  0
 20 22  1  0  0  0  0
 20 23  1  0  0  0  0
 23 24  1  0  0  0  0
 23 25  1  0  0  0  0
 26 27  2  0  0  0  0
 26 28  1  0  0  0  0
 28 29  1  0  0  0  0
 28 30  1  0  0  0  0
 30 31  1  0  0  0  0
 30 32  1  0  0  0  0
 30 33  1  0  0  0  0
M  END
$$$$

  -OEChem-03222214063D

 33 32  0     1  0  0  0  0  0999 V2000
   -2.6594   -5.1217    0.7396 H   0  0  0  0  0  0  0  0  0  0  0  0
   -2.7641   -4.1374    0.2739 C   0  0  0  0  0  0  0  0  0  0  0  0
   -3.6212   -3.6273    0.7198 H   0  0  0  0  0  0  0  0  0  0  0  0
   -2.9435   -4.2724   -0.7955 H   0  0  0  0  0  0  0  0  0  0  0  0
   -1.5032   -3.3214    0.4888 C   0  0  0  0  0  0  0  0  0  0  0  0
   -0.5817   -3.7905    1.1315 O   0  0  0  0  0  0  0  0  0  0  0  0
   -1.4164   -2.0495   -0.0434 N   0  0  0  0  0  0  0  0  0  0  0  0
   -2.1672   -1.7764   -0.6706 H   0  0  0  0  0  0  0  0  0  0  0  0
   -0.1840   -1.2358   -0.0629 C   0  0  1  0  0  0  0  0  0  0  0  0
    0.5913   -1.8053   -0.5880 H   0  0  0  0  0  0  0  0  0  0  0  0
   -0.3726    0.1142   -0.8028 C   0  0  0  0  0  0  0  0  0  0  0  0
    0.3621    0.8443   -0.4443 H   0  0  0  0  0  0  0  0  0  0  0  0
   -0.1187   -0.0815   -1.8498 H   0  0  0  0  0  0  0  0  0  0  0  0
   -1.7818    0.7558   -0.7648 C   0  0  0  0  0  0  0  0  0  0  0  0
   -2.5489    0.0642   -0.4119 H   0  0  0  0  0  0  0  0  0  0  0  0
   -1.7620    1.5910   -0.0568 H   0  0  0  0  0  0  0  0  0  0  0  0
   -2.1956    1.2628   -2.1512 C   0  0  0  0  0  0  0  0  0  0  0  0
   -1.4414    1.9608   -2.5292 H   0  0  0  0  0  0  0  0  0  0  0  0
   -2.2554    0.4192   -2.8472 H   0  0  0  0  0  0  0  0  0  0  0  0
   -3.5497    1.9641   -2.0926 C   0  0  0  0  0  0  0  0  0  0  0  0
   -4.3071    1.2900   -1.6773 H   0  0  0  0  0  0  0  0  0  0  0  0
   -3.4888    2.8468   -1.4462 H   0  0  0  0  0  0  0  0  0  0  0  0
   -3.9266    2.3561   -3.4530 N   0  0  0  0  0  0  0  0  0  0  0  0
   -4.8238    2.8419   -3.4636 H   0  0  0  0  0  0  0  0  0  0  0  0
   -3.1998    2.9277   -3.8845 H   0  0  0  0  0  0  0  0  0  0  0  0
    0.3793   -0.9440    1.3472 C   0  0  0  0  0  0  0  0  0  0  0  0
    1.5881   -0.8339    1.5066 O   0  0  0  0  0  0  0  0  0  0  0  0
   -0.4720   -0.5497    2.3640 N   0  0  0  0  0  0  0  0  0  0  0  0
   -1.4565   -0.7462    2.2190 H   0  0  0  0  0  0  0  0  0  0  0  0
   -0.0055   -0.2715    3.7163 C   0  0  0  0  0  0  0  0  0  0  0  0
    0.7347    0.5356    3.7085 H   0  0  0  0  0  0  0  0  0  0  0  0
   -0.8426    0.0361    4.3503 H   0  0  0  0  0  0  0  0  0  0  0  0
    0.4522   -1.1656    4.1529 H   0  0  0  0  0  0  0  0  0  0  0  0
  1  2  1  0  0  0  0
  2  3  1  0  0  0  0
  2  4  1  0  0  0  0
  2  5  1  0  0  0  0
  5  6  2  0  0  0  0
  5  7  1  0  0  0  0
  7  8  1  0  0  0  0
  7  9  1  0  0  0  0
  9 10  1  0  0  0  0
  9 11  1  0  0  0  0
  9 26  1  0  0  0  0
 11 12  1  0  0  0  0
 11 13  1  0  0  0  0
 11 14  1  0  0  0  0
 14 15  1  0  0  0  0
 14 16  1  0  0  0  0
 14 17  1  0  0  0  0
 17 18  1  0  0  0  0
 17 19  1  0  0  0  0
 17 20  1  0  0  0  0
 20 21  1  0  0  0  0
 20 22  1  0  0  0  0
 20 23  1  0  0  0  0
 23 24  1  0  0  0  0
 23 25  1  0  0  0  0
 26 27  2  0  0  0  0
 26 28  1  0  0  0  0
 28 29  1  0  0  0  0
 28 30  1  0  0  0  0
 30 31  1  0  0  0  0
 30 32  1  0  0  0  0
 30 33  1  0  0  0  0
M  END
$$$$

  -OEChem-03222214063D

 33 32  0     1  0  0  0  0  0999 V2000
   -2.7257   -5.0732    0.7089 H   0  0  0  0  0  0  0  0  0  0  0  0
   -2.8058   -4.0846    0.2474 C   0  0  0  0  0  0  0  0  0  0  0  0
   -3.6559   -3.5587    0.6885 H   0  0  0  0  0  0  0  0  0  0  0  0
   -2.9793   -4.2112   -0.8240 H   0  0  0  0  0  0  0  0  0  0  0  0
   -1.5297   -3.2961    0.4768 C   0  0  0  0  0  0  0  0  0  0  0  0
   -0.6229   -3.7874    1.1240 O   0  0  0  0  0  0  0  0  0  0  0  0
   -1.4102   -2.0250   -0.0505 N   0  0  0  0  0  0  0  0  0  0  0  0
   -2.1537   -1.7274   -0.6760 H   0  0  0  0  0  0  0  0  0  0  0  0
   -0.1617   -1.2358   -0.0564 C   0  0  1  0  0  0  0  0  0  0  0  0
    0.6078   -1.8163   -0.5777 H   0  0  0  0  0  0  0  0  0  0  0  0
   -0.3342    0.1121   -0.8022 C   0  0  0  0  0  0  0  0  0  0  0  0
    0.3927    0.8366   -0.4174 H   0  0  0  0  0  0  0  0  0  0  0  0
   -0.0590   -0.0649   -1.8472 H   0  0  0  0  0  0  0  0  0  0  0  0
   -1.7432    0.7525   -0.7642 C   0  0  0  0  0  0  0  0  0  0  0  0
   -2.4410    0.1912   -0.1381 H   0  0  0  0  0  0  0  0  0  0  0  0
   -1.6515    1.7438   -0.3076 H   0  0  0  0  0  0  0  0  0  0  0  0
   -2.3210    0.9178   -2.1741 C   0  0  0  0  0  0  0  0  0  0  0  0
   -1.6424    1.5225   -2.7849 H   0  0  0  0  0  0  0  0  0  0  0  0
   -2.4156   -0.0657   -2.6461 H   0  0  0  0  0  0  0  0  0  0  0  0
   -3.6910    1.5874   -2.1262 C   0  0  0  0  0  0  0  0  0  0  0  0
   -4.3653    1.0225   -1.4728 H   0  0  0  0  0  0  0  0  0  0  0  0
   -3.5996    2.6032   -1.7249 H   0  0  0  0  0  0  0  0  0  0  0  0
   -4.2339    1.6233   -3.4865 N   0  0  0  0  0  0  0  0  0  0  0  0
   -5.1488    2.0747   -3.5078 H   0  0  0  0  0  0  0  0  0  0  0  0
   -3.5873    2.0852   -4.1268 H   0  0  0  0  0  0  0  0  0  0  0  0
    0.3973   -0.9565    1.3580 C   0  0  0  0  0  0  0  0  0  0  0  0
    1.6067   -0.8671    1.5257 O   0  0  0  0  0  0  0  0  0  0  0  0
   -0.4546   -0.5464    2.3680 N   0  0  0  0  0  0  0  0  0  0  0  0
   -1.4406   -0.7299    2.2166 H   0  0  0  0  0  0  0  0  0  0  0  0
    0.0062   -0.2703    3.7225 C   0  0  0  0  0  0  0  0  0  0  0  0
    0.7565    0.5273    3.7177 H   0  0  0  0  0  0  0  0  0  0  0  0
   -0.8316    0.0498    4.3492 H   0  0  0  0  0  0  0  0  0  0  0  0
    0.4494   -1.1688    4.1649 H   0  0  0  0  0  0  0  0  0  0  0  0
  1  2  1  0  0  0  0
  2  3  1  0  0  0  0
  2  4  1  0  0  0  0
  2  5  1  0  0  0  0
  5  6  2  0  0  0  0
  5  7  1  0  0  0  0
  7  8  1  0  0  0  0
  7  9  1  0  0  0  0
  9 10  1  0  0  0  0
  9 11  1  0  0  0  0
  9 26  1  0  0  0  0
 11 12  1  0  0  0  0
 11 13  1  0  0  0  0
 11 14  1  0  0  0  0
 14 15  1  0  0  0  0
 14 16  1  0  0  0  0
 14 17  1  0  0  0  0
 17 18  1  0  0  0  0
 17 19  1  0  0  0  0
 17 20  1  0  0  0  0
 20 21  1  0  0  0  0
 20 22  1  0  0  0  0
 20 23  1  0  0  0  0
 23 24  1  0  0  0  0
 23 25  1  0  0  0  0
 26 27  2  0  0  0  0
 26 28  1  0  0  0  0
 28 29  1  0  0  0  0
 28 30  1  0  0  0  0
 30 31  1  0  0  0  0
 30 32  1  0  0  0  0
 30 33  1  0  0  0  0
M  END
$$$$

  -OEChem-03222214063D

 33 32  0     1  0  0  0  0  0999 V2000
   -2.8137   -5.0037    0.6439 H   0  0  0  0  0  0  0  0  0  0  0  0
   -2.8656   -4.0029    0.2055 C   0  0  0  0  0  0  0  0  0  0  0  0
   -3.6976   -3.4608    0.6614 H   0  0  0  0  0  0  0  0  0  0  0  0
   -3.0468   -4.0993   -0.8680 H   0  0  0  0  0  0  0  0  0  0  0  0
   -1.5663   -3.2584    0.4482 C   0  0  0  0  0  0  0  0  0  0  0  0
   -0.6794   -3.7803    1.0990 O   0  0  0  0  0  0  0  0  0  0  0  0
   -1.4061   -1.9878   -0.0674 N   0  0  0  0  0  0  0  0  0  0  0  0
   -2.1412   -1.6580   -0.6873 H   0  0  0  0  0  0  0  0  0  0  0  0
   -0.1399   -1.2273   -0.0498 C   0  0  1  0  0  0  0  0  0  0  0  0
    0.6232   -1.8217   -0.5646 H   0  0  0  0  0  0  0  0  0  0  0  0
   -0.2866    0.1195   -0.8012 C   0  0  0  0  0  0  0  0  0  0  0  0
    0.4283    0.8370   -0.3830 H   0  0  0  0  0  0  0  0  0  0  0  0
    0.0121   -0.0365   -1.8431 H   0  0  0  0  0  0  0  0  0  0  0  0
   -1.6963    0.7520   -0.7676 C   0  0  0  0  0  0  0  0  0  0  0  0
   -2.2976    0.3564    0.0565 H   0  0  0  0  0  0  0  0  0  0  0  0
   -1.5829    1.8252   -0.5802 H   0  0  0  0  0  0  0  0  0  0  0  0
   -2.4190    0.5805   -2.1091 C   0  0  0  0  0  0  0  0  0  0  0  0
   -1.8460    1.0669   -2.9055 H   0  0  0  0  0  0  0  0  0  0  0  0
   -2.4923   -0.4850   -2.3498 H   0  0  0  0  0  0  0  0  0  0  0  0
   -3.8209    1.1791   -2.0538 C   0  0  0  0  0  0  0  0  0  0  0  0
   -4.3793    0.7571   -1.2108 H   0  0  0  0  0  0  0  0  0  0  0  0
   -3.7619    2.2644   -1.9143 H   0  0  0  0  0  0  0  0  0  0  0  0
   -4.5058    0.8601   -3.3089 N   0  0  0  0  0  0  0  0  0  0  0  0
   -5.4547    1.2354   -3.3184 H   0  0  0  0  0  0  0  0  0  0  0  0
   -3.9752    1.1986   -4.1122 H   0  0  0  0  0  0  0  0  0  0  0  0
    0.4100   -0.9663    1.3717 C   0  0  0  0  0  0  0  0  0  0  0  0
    1.6194   -0.9008    1.5503 O   0  0  0  0  0  0  0  0  0  0  0  0
   -0.4413   -0.5411    2.3757 N   0  0  0  0  0  0  0  0  0  0  0  0
   -1.4293   -0.7090    2.2186 H   0  0  0  0  0  0  0  0  0  0  0  0
    0.0158   -0.2693    3.7326 C   0  0  0  0  0  0  0  0  0  0  0  0
    0.7941    0.5013    3.7294 H   0  0  0  0  0  0  0  0  0  0  0  0
   -0.8159    0.0865    4.3478 H   0  0  0  0  0  0  0  0  0  0  0  0
    0.4224   -1.1786    4.1874 H   0  0  0  0  0  0  0  0  0  0  0  0
  1  2  1  0  0  0  0
  2  3  1  0  0  0  0
  2  4  1  0  0  0  0
  2  5  1  0  0  0  0
  5  6  2  0  0  0  0
  5  7  1  0  0  0  0
  7  8  1  0  0  0  0
  7  9  1  0  0  0  0
  9 10  1  0  0  0  0
  9 11  1  0  0  0  0
  9 26  1  0  0  0  0
 11 12  1  0  0  0  0
 11 13  1  0  0  0  0
 11 14  1  0  0  0  0
 14 15  1  0  0  0  0
 14 16  1  0  0  0  0
 14 17  1  0  0  0  0
 17 18  1  0  0  0  0
 17 19  1  0  0  0  0
 17 20  1  0  0  0  0
 20 21  1  0  0  0  0
 20 22  1  0  0  0  0
 20 23  1  0  0  0  0
 23 24  1  0  0  0  0
 23 25  1  0  0  0  0
 26 27  2  0  0  0  0
 26 28  1  0  0  0  0
 28 29  1  0  0  0  0
 28 30  1  0  0  0  0
 30 31  1  0  0  0  0
 30 32  1  0  0  0  0
 30 33  1  0  0  0  0
M  END
$$$$

  -OEChem-03222214063D

 33 32  0     1  0  0  0  0  0999 V2000
   -2.8164   -5.0018    0.6737 H   0  0  0  0  0  0  0  0  0  0  0  0
   -2.8686   -4.0001    0.2377 C   0  0  0  0  0  0  0  0  0  0  0  0
   -3.6864   -3.4516    0.7111 H   0  0  0  0  0  0  0  0  0  0  0  0
   -3.0724   -4.0930   -0.8319 H   0  0  0  0  0  0  0  0  0  0  0  0
   -1.5581   -3.2677    0.4540 C   0  0  0  0  0  0  0  0  0  0  0  0
   -0.6623   -3.7974    1.0862 O   0  0  0  0  0  0  0  0  0  0  0  0
   -1.3969   -1.9987   -0.0646 N   0  0  0  0  0  0  0  0  0  0  0  0
   -2.1548   -1.6466   -0.6421 H   0  0  0  0  0  0  0  0  0  0  0  0
   -0.1353   -1.2337   -0.0456 C   0  0  1  0  0  0  0  0  0  0  0  0
    0.6305   -1.8360   -0.5471 H   0  0  0  0  0  0  0  0  0  0  0  0
   -0.2564    0.1091   -0.8129 C   0  0  0  0  0  0  0  0  0  0  0  0
    0.4564    0.8234   -0.3852 H   0  0  0  0  0  0  0  0  0  0  0  0
    0.0555   -0.0542   -1.8497 H   0  0  0  0  0  0  0  0  0  0  0  0
   -1.6559    0.7572   -0.8154 C   0  0  0  0  0  0  0  0  0  0  0  0
   -2.1645    0.5532    0.1326 H   0  0  0  0  0  0  0  0  0  0  0  0
   -1.5341    1.8433   -0.8868 H   0  0  0  0  0  0  0  0  0  0  0  0
   -2.5148    0.2954   -2.0047 C   0  0  0  0  0  0  0  0  0  0  0  0
   -2.0591    0.6402   -2.9387 H   0  0  0  0  0  0  0  0  0  0  0  0
   -2.5639   -0.7950   -2.0495 H   0  0  0  0  0  0  0  0  0  0  0  0
   -3.9311    0.8512   -1.8971 C   0  0  0  0  0  0  0  0  0  0  0  0
   -4.3658    0.5944   -0.9248 H   0  0  0  0  0  0  0  0  0  0  0  0
   -3.9157    1.9434   -1.9849 H   0  0  0  0  0  0  0  0  0  0  0  0
   -4.7363    0.2594   -2.9684 N   0  0  0  0  0  0  0  0  0  0  0  0
   -5.6995    0.5953   -2.9354 H   0  0  0  0  0  0  0  0  0  0  0  0
   -4.3212    0.4428   -3.8827 H   0  0  0  0  0  0  0  0  0  0  0  0
    0.4027   -0.9683    1.3794 C   0  0  0  0  0  0  0  0  0  0  0  0
    1.6102   -0.8932    1.5665 O   0  0  0  0  0  0  0  0  0  0  0  0
   -0.4586   -0.5450    2.3760 N   0  0  0  0  0  0  0  0  0  0  0  0
   -1.4441   -0.7210    2.2126 H   0  0  0  0  0  0  0  0  0  0  0  0
   -0.0133   -0.2678    3.7356 C   0  0  0  0  0  0  0  0  0  0  0  0
    0.7535    0.5140    3.7365 H   0  0  0  0  0  0  0  0  0  0  0  0
   -0.8537    0.0749    4.3464 H   0  0  0  0  0  0  0  0  0  0  0  0
    0.4042   -1.1715    4.1922 H   0  0  0  0  0  0  0  0  0  0  0  0
  1  2  1  0  0  0  0
  2  3  1  0  0  0  0
  2  4  1  0  0  0  0
  2  5  1  0  0  0  0
  5  6  2  0  0  0  0
  5  7  1  0  0  0  0
  7  8  1  0  0  0  0
  7  9  1  0  0  0  0
  9 10  1  0  0  0  0
  9 11  1  0  0  0  0
  9 26  1  0  0  0  0
 11 12  1  0  0  0  0
 11 13  1  0  0  0  0
 11 14  1  0  0  0  0
 14 15  1  0  0  0  0
 14 16  1  0  0  0  0
 14 17  1  0  0  0  0
 17 18  1  0  0  0  0
 17 19  1  0  0  0  0
 17 20  1  0  0  0  0
 20 21  1  0  0  0  0
 20 22  1  0  0  0  0
 20 23  1  0  0  0  0
 23 24  1  0  0  0  0
 23 25  1  0  0  0  0
 26 27  2  0  0  0  0
 26 28  1  0  0  0  0
 28 29  1  0  0  0  0
 28 30  1  0  0  0  0
 30 31  1  0  0  0  0
 30 32  1  0  0  0  0
 30 33  1  0  0  0  0
M  END
$$$$

  -OEChem-03222214063D

 33 32  0     1  0  0  0  0  0999 V2000
   -2.4641   -5.2363    0.8448 H   0  0  0  0  0  0  0  0  0  0  0  0
   -2.6127   -4.2594    0.3760 C   0  0  0  0  0  0  0  0  0  0  0  0
   -3.4680   -3.7694    0.8473 H   0  0  0  0  0  0  0  0  0  0  0  0
   -2.8255   -4.4080   -0.6854 H   0  0  0  0  0  0  0  0  0  0  0  0
   -1.3691   -3.4066    0.5418 C   0  0  0  0  0  0  0  0  0  0  0  0
   -0.4066   -3.8499    1.1417 O   0  0  0  0  0  0  0  0  0  0  0  0
   -1.3430   -2.1318    0.0113 N   0  0  0  0  0  0  0  0  0  0  0  0
   -2.1319   -1.8750   -0.5711 H   0  0  0  0  0  0  0  0  0  0  0  0
   -0.1521   -1.2662   -0.0298 C   0  0  1  0  0  0  0  0  0  0  0  0
    0.6385   -1.8075   -0.5615 H   0  0  0  0  0  0  0  0  0  0  0  0
   -0.3907    0.0730   -0.7779 C   0  0  0  0  0  0  0  0  0  0  0  0
    0.3087    0.8200   -0.3852 H   0  0  0  0  0  0  0  0  0  0  0  0
   -0.1151   -0.0820   -1.8260 H   0  0  0  0  0  0  0  0  0  0  0  0
   -1.8078    0.6897   -0.7572 C   0  0  0  0  0  0  0  0  0  0  0  0
   -2.1821    0.7138    0.2714 H   0  0  0  0  0  0  0  0  0  0  0  0
   -1.7055    1.7289   -1.0881 H   0  0  0  0  0  0  0  0  0  0  0  0
   -2.8425    0.0003   -1.6672 C   0  0  0  0  0  0  0  0  0  0  0  0
   -2.3808   -0.2543   -2.6267 H   0  0  0  0  0  0  0  0  0  0  0  0
   -3.2169   -0.9182   -1.2132 H   0  0  0  0  0  0  0  0  0  0  0  0
   -4.0384    0.9160   -1.9119 C   0  0  0  0  0  0  0  0  0  0  0  0
   -4.4873    1.2107   -0.9567 H   0  0  0  0  0  0  0  0  0  0  0  0
   -3.7204    1.8258   -2.4336 H   0  0  0  0  0  0  0  0  0  0  0  0
   -5.0172    0.1819   -2.7187 N   0  0  0  0  0  0  0  0  0  0  0  0
   -5.8587    0.7385   -2.8734 H   0  0  0  0  0  0  0  0  0  0  0  0
   -4.6119   -0.1131   -3.6075 H   0  0  0  0  0  0  0  0  0  0  0  0
    0.4154   -0.9562    1.3752 C   0  0  0  0  0  0  0  0  0  0  0  0
    1.6192   -0.7867    1.5203 O   0  0  0  0  0  0  0  0  0  0  0  0
   -0.4416   -0.6049    2.4028 N   0  0  0  0  0  0  0  0  0  0  0  0
   -1.4177   -0.8457    2.2669 H   0  0  0  0  0  0  0  0  0  0  0  0
    0.0243   -0.2977    3.7491 C   0  0  0  0  0  0  0  0  0  0  0  0
    0.6873    0.5739    3.7363 H   0  0  0  0  0  0  0  0  0  0  0  0
   -0.8257   -0.0745    4.4011 H   0  0  0  0  0  0  0  0  0  0  0  0
    0.5701   -1.1497    4.1687 H   0  0  0  0  0  0  0  0  0  0  0  0
  1  2  1  0  0  0  0
  2  3  1  0  0  0  0
  2  4  1  0  0  0  0
  2  5  1  0  0  0  0
  5  6  2  0  0  0  0
  5  7  1  0  0  0  0
  7  8  1  0  0  0  0
  7  9  1  0  0  0  0
  9 10  1  0  0  0  0
  9 11  1  0  0  0  0
  9 26  1  0  0  0  0
 11 12  1  0  0  0  0
 11 13  1  0  0  0  0
 11 14  1  0  0  0  0
 14 15  1  0  0  0  0
 14 16  1  0  0  0  0
 14 17  1  0  0  0  0
 17 18  1  0  0  0  0
 17 19  1  0  0  0  0
 17 20  1  0  0  0  0
 20 21  1  0  0  0  0
 20 22  1  0  0  0  0
 20 23  1  0  0  0  0
 23 24  1  0  0  0  0
 23 25  1  0  0  0  0
 26 27  2  0  0  0  0
 26 28  1  0  0  0  0
 28 29  1  0  0  0  0
 28 30  1  0  0  0  0
 30 31  1  0  0  0  0
 30 32  1  0  0  0  0
 30 33  1  0  0  0  0
M  END
$$$$

  -OEChem-03222214063D

 33 32  0     1  0  0  0  0  0999 V2000
   -2.8522   -4.9483    0.6919 H   0  0  0  0  0  0  0  0  0  0  0  0
   -2.9267   -3.9512    0.2492 C   0  0  0  0  0  0  0  0  0  0  0  0
   -3.7499   -3.4136    0.7247 H   0  0  0  0  0  0  0  0  0  0  0  0
   -3.1372   -4.0547   -0.8180 H   0  0  0  0  0  0  0  0  0  0  0  0
   -1.6295   -3.1909    0.4483 C   0  0  0  0  0  0  0  0  0  0  0  0
   -0.7450   -3.6790    1.1297 O   0  0  0  0  0  0  0  0  0  0  0  0
   -1.4594   -1.9534   -0.1410 N   0  0  0  0  0  0  0  0  0  0  0  0
   -2.2186   -1.6415   -0.7483 H   0  0  0  0  0  0  0  0  0  0  0  0
   -0.2013   -1.1803   -0.1159 C   0  0  1  0  0  0  0  0  0  0  0  0
    0.5837   -1.8206   -0.5338 H   0  0  0  0  0  0  0  0  0  0  0  0
   -0.2073    0.1387   -0.9422 C   0  0  0  0  0  0  0  0  0  0  0  0
    0.5430    0.8202   -0.5256 H   0  0  0  0  0  0  0  0  0  0  0  0
    0.1421   -0.1226   -1.9464 H   0  0  0  0  0  0  0  0  0  0  0  0
   -1.5197    0.9334   -1.1306 C   0  0  0  0  0  0  0  0  0  0  0  0
   -1.8512    1.3023   -0.1546 H   0  0  0  0  0  0  0  0  0  0  0  0
   -1.2804    1.8165   -1.7325 H   0  0  0  0  0  0  0  0  0  0  0  0
   -2.6639    0.1841   -1.8355 C   0  0  0  0  0  0  0  0  0  0  0  0
   -2.2738   -0.7263   -2.3027 H   0  0  0  0  0  0  0  0  0  0  0  0
   -3.0507    0.8055   -2.6495 H   0  0  0  0  0  0  0  0  0  0  0  0
   -3.8259   -0.1315   -0.8885 C   0  0  0  0  0  0  0  0  0  0  0  0
   -3.4829   -0.2122    0.1489 H   0  0  0  0  0  0  0  0  0  0  0  0
   -4.5696    0.6724   -0.9301 H   0  0  0  0  0  0  0  0  0  0  0  0
   -4.4113   -1.4086   -1.3025 N   0  0  0  0  0  0  0  0  0  0  0  0
   -5.2309   -1.6347   -0.7356 H   0  0  0  0  0  0  0  0  0  0  0  0
   -4.6618   -1.3857   -2.2933 H   0  0  0  0  0  0  0  0  0  0  0  0
    0.2515   -0.8416    1.3234 C   0  0  0  0  0  0  0  0  0  0  0  0
    1.4446   -0.7434    1.5814 O   0  0  0  0  0  0  0  0  0  0  0  0
   -0.6735   -0.3754    2.2404 N   0  0  0  0  0  0  0  0  0  0  0  0
   -1.6449   -0.5716    2.0243 H   0  0  0  0  0  0  0  0  0  0  0  0
   -0.3170   -0.0126    3.6056 C   0  0  0  0  0  0  0  0  0  0  0  0
    0.4090    0.8072    3.6068 H   0  0  0  0  0  0  0  0  0  0  0  0
   -1.2054    0.3140    4.1541 H   0  0  0  0  0  0  0  0  0  0  0  0
    0.1193   -0.8710    4.1272 H   0  0  0  0  0  0  0  0  0  0  0  0
  1  2  1  0  0  0  0
  2  3  1  0  0  0  0
  2  4  1  0  0  0  0
  2  5  1  0  0  0  0
  5  6  2  0  0  0  0
  5  7  1  0  0  0  0
  7  8  1  0  0  0  0
  7  9  1  0  0  0  0
  9 10  1  0  0  0  0
  9 11  1  0  0  0  0
  9 26  1  0  0  0  0
 11 12  1  0  0  0  0
 11 13  1  0  0  0  0
 11 14  1  0  0  0  0
 14 15  1  0  0  0  0
 14 16  1  0  0  0  0
 14 17  1  0  0  0  0
 17 18  1  0  0  0  0
 17 19  1  0  0  0  0
 17 20  1  0  0  0  0
 20 21  1  0  0  0  0
 20 22  1  0  0  0  0
 20 23  1  0  0  0  0
 23 24  1  0  0  0  0
 23 25  1  0  0  0  0
 26 27  2  0  0  0  0
 26 28  1  0  0  0  0
 28 29  1  0  0  0  0
 28 30  1  0  0  0  0
 30 31  1  0  0  0  0
 30 32  1  0  0  0  0
 30 33  1  0  0  0  0
M  END
$$$$

  -OEChem-03222214063D

 33 32  0     1  0  0  0  0  0999 V2000
   -2.1034   -5.3873    0.8241 H   0  0  0  0  0  0  0  0  0  0  0  0
   -2.3419   -4.4138    0.3863 C   0  0  0  0  0  0  0  0  0  0  0  0
   -3.1859   -3.9814    0.9287 H   0  0  0  0  0  0  0  0  0  0  0  0
   -2.6244   -4.5580   -0.6592 H   0  0  0  0  0  0  0  0  0  0  0  0
   -1.1400   -3.4929    0.4756 C   0  0  0  0  0  0  0  0  0  0  0  0
   -0.1023   -3.8963    0.9689 O   0  0  0  0  0  0  0  0  0  0  0  0
   -1.2350   -2.2035   -0.0094 N   0  0  0  0  0  0  0  0  0  0  0  0
   -2.0985   -1.9625   -0.4856 H   0  0  0  0  0  0  0  0  0  0  0  0
   -0.1206   -1.2436   -0.0749 C   0  0  1  0  0  0  0  0  0  0  0  0
    0.6842   -1.7081   -0.6559 H   0  0  0  0  0  0  0  0  0  0  0  0
   -0.4622    0.1176   -0.7486 C   0  0  0  0  0  0  0  0  0  0  0  0
    0.2471    0.8753   -0.3965 H   0  0  0  0  0  0  0  0  0  0  0  0
   -0.2496   -0.0260   -1.8128 H   0  0  0  0  0  0  0  0  0  0  0  0
   -1.8846    0.7346   -0.6918 C   0  0  0  0  0  0  0  0  0  0  0  0
   -2.0207    1.1741    0.3021 H   0  0  0  0  0  0  0  0  0  0  0  0
   -1.9009    1.5595   -1.4121 H   0  0  0  0  0  0  0  0  0  0  0  0
   -3.0920   -0.1756   -0.9652 C   0  0  0  0  0  0  0  0  0  0  0  0
   -2.8791   -0.8233   -1.8219 H   0  0  0  0  0  0  0  0  0  0  0  0
   -3.3020   -0.7951   -0.0889 H   0  0  0  0  0  0  0  0  0  0  0  0
   -4.3433    0.6463   -1.2578 C   0  0  0  0  0  0  0  0  0  0  0  0
   -4.5748    1.2921   -0.4031 H   0  0  0  0  0  0  0  0  0  0  0  0
   -4.1866    1.2843   -2.1348 H   0  0  0  0  0  0  0  0  0  0  0  0
   -5.4501   -0.2840   -1.4996 N   0  0  0  0  0  0  0  0  0  0  0  0
   -6.3341    0.2159   -1.6041 H   0  0  0  0  0  0  0  0  0  0  0  0
   -5.2675   -0.8667   -2.3167 H   0  0  0  0  0  0  0  0  0  0  0  0
    0.4765   -0.9431    1.3197 C   0  0  0  0  0  0  0  0  0  0  0  0
    1.6703   -0.6952    1.4321 O   0  0  0  0  0  0  0  0  0  0  0  0
   -0.3659   -0.7011    2.3901 N   0  0  0  0  0  0  0  0  0  0  0  0
   -1.3321   -0.9869    2.2709 H   0  0  0  0  0  0  0  0  0  0  0  0
    0.1215   -0.4080    3.7315 C   0  0  0  0  0  0  0  0  0  0  0  0
    0.7581    0.4832    3.7230 H   0  0  0  0  0  0  0  0  0  0  0  0
   -0.7192   -0.2231    4.4068 H   0  0  0  0  0  0  0  0  0  0  0  0
    0.7015   -1.2521    4.1192 H   0  0  0  0  0  0  0  0  0  0  0  0
  1  2  1  0  0  0  0
  2  3  1  0  0  0  0
  2  4  1  0  0  0  0
  2  5  1  0  0  0  0
  5  6  2  0  0  0  0
  5  7  1  0  0  0  0
  7  8  1  0  0  0  0
  7  9  1  0  0  0  0
  9 10  1  0  0  0  0
  9 11  1  0  0  0  0
  9 26  1  0  0  0  0
 11 12  1  0  0  0  0
 11 13  1  0  0  0  0
 11 14  1  0  0  0  0
 14 15  1  0  0  0  0
 14 16  1  0  0  0  0
 14 17  1  0  0  0  0
 17 18  1  0  0  0  0
 17 19  1  0  0  0  0
 17 20  1  0  0  0  0
 20 21  1  0  0  0  0
 20 22  1  0  0  0  0
 20 23  1  0  0  0  0
 23 24  1  0  0  0  0
 23 25  1  0  0  0  0
 26 27  2  0  0  0  0
 26 28  1  0  0  0  0
 28 29  1  0  0  0  0
 28 30  1  0  0  0  0
 30 31  1  0  0  0  0
 30 32  1  0  0  0  0
 30 33  1  0  0  0  0
M  END
$$$$

  -OEChem-03222214063D

 33 32  0     1  0  0  0  0  0999 V2000
   -2.1408   -5.3994    0.9438 H   0  0  0  0  0  0  0  0  0  0  0  0
   -2.3559   -4.4401    0.4643 C   0  0  0  0  0  0  0  0  0  0  0  0
   -3.1938   -3.9676    0.9829 H   0  0  0  0  0  0  0  0  0  0  0  0
   -2.6359   -4.6217   -0.5760 H   0  0  0  0  0  0  0  0  0  0  0  0
   -1.1345   -3.5421    0.5232 C   0  0  0  0  0  0  0  0  0  0  0  0
   -0.1008   -3.9547    1.0172 O   0  0  0  0  0  0  0  0  0  0  0  0
   -1.2079   -2.2615    0.0124 N   0  0  0  0  0  0  0  0  0  0  0  0
   -2.0820   -1.9977   -0.4307 H   0  0  0  0  0  0  0  0  0  0  0  0
   -0.0896   -1.3051   -0.0363 C   0  0  1  0  0  0  0  0  0  0  0  0
    0.7315   -1.7848   -0.5811 H   0  0  0  0  0  0  0  0  0  0  0  0
   -0.3951    0.0486   -0.7449 C   0  0  0  0  0  0  0  0  0  0  0  0
    0.3205    0.8018   -0.3955 H   0  0  0  0  0  0  0  0  0  0  0  0
   -0.1523   -0.1303   -1.7975 H   0  0  0  0  0  0  0  0  0  0  0  0
   -1.8039    0.7053   -0.7643 C   0  0  0  0  0  0  0  0  0  0  0  0
   -1.8567    1.3709    0.1039 H   0  0  0  0  0  0  0  0  0  0  0  0
   -1.8541    1.3396   -1.6560 H   0  0  0  0  0  0  0  0  0  0  0  0
   -3.0602   -0.1759   -0.7215 C   0  0  0  0  0  0  0  0  0  0  0  0
   -3.0088   -0.9290   -1.5144 H   0  0  0  0  0  0  0  0  0  0  0  0
   -3.1362   -0.6747    0.2492 H   0  0  0  0  0  0  0  0  0  0  0  0
   -4.3196    0.6627   -0.9136 C   0  0  0  0  0  0  0  0  0  0  0  0
   -4.3976    1.4088   -0.1147 H   0  0  0  0  0  0  0  0  0  0  0  0
   -4.2840    1.1927   -1.8722 H   0  0  0  0  0  0  0  0  0  0  0  0
   -5.4760   -0.2373   -0.8748 N   0  0  0  0  0  0  0  0  0  0  0  0
   -6.3509    0.2887   -0.8871 H   0  0  0  0  0  0  0  0  0  0  0  0
   -5.4475   -0.9051   -1.6452 H   0  0  0  0  0  0  0  0  0  0  0  0
    0.4630   -0.9810    1.3711 C   0  0  0  0  0  0  0  0  0  0  0  0
    1.6536   -0.7353    1.5178 O   0  0  0  0  0  0  0  0  0  0  0  0
   -0.4110   -0.7175    2.4109 N   0  0  0  0  0  0  0  0  0  0  0  0
   -1.3785   -0.9856    2.2641 H   0  0  0  0  0  0  0  0  0  0  0  0
    0.0340   -0.3879    3.7587 C   0  0  0  0  0  0  0  0  0  0  0  0
    0.6585    0.5116    3.7479 H   0  0  0  0  0  0  0  0  0  0  0  0
   -0.8279   -0.2003    4.4060 H   0  0  0  0  0  0  0  0  0  0  0  0
    0.6141   -1.2145    4.1820 H   0  0  0  0  0  0  0  0  0  0  0  0
  1  2  1  0  0  0  0
  2  3  1  0  0  0  0
  2  4  1  0  0  0  0
  2  5  1  0  0  0  0
  5  6  2  0  0  0  0
  5  7  1  0  0  0  0
  7  8  1  0  0  0  0
  7  9  1  0  0  0  0
  9 10  1  0  0  0  0
  9 11  1  0  0  0  0
  9 26  1  0  0  0  0
 11 12  1  0  0  0  0
 11 13  1  0  0  0  0
 11 14  1  0  0  0  0
 14 15  1  0  0  0  0
 14 16  1  0  0  0  0
 14 17  1  0  0  0  0
 17 18  1  0  0  0  0
 17 19  1  0  0  0  0
 17 20  1  0  0  0  0
 20 21  1  0  0  0  0
 20 22  1  0  0  0  0
 20 23  1  0  0  0  0
 23 24  1  0  0  0  0
 23 25  1  0  0  0  0
 26 27  2  0  0  0  0
 26 28  1  0  0  0  0
 28 29  1  0  0  0  0
 28 30  1  0  0  0  0
 30 31  1  0  0  0  0
 30 32  1  0  0  0  0
 30 33  1  0  0  0  0
M  END
$$$$

  -OEChem-03222214063D

 33 32  0     1  0  0  0  0  0999 V2000
   -2.0366   -5.4233    0.9119 H   0  0  0  0  0  0  0  0  0  0  0  0
   -2.2731   -4.4668    0.4369 C   0  0  0  0  0  0  0  0  0  0  0  0
   -3.1083   -4.0066    0.9702 H   0  0  0  0  0  0  0  0  0  0  0  0
   -2.5673   -4.6516   -0.5989 H   0  0  0  0  0  0  0  0  0  0  0  0
   -1.0636   -3.5522    0.4764 C   0  0  0  0  0  0  0  0  0  0  0  0
   -0.0135   -3.9546    0.9437 O   0  0  0  0  0  0  0  0  0  0  0  0
   -1.1650   -2.2684   -0.0219 N   0  0  0  0  0  0  0  0  0  0  0  0
   -2.0568   -2.0031   -0.4262 H   0  0  0  0  0  0  0  0  0  0  0  0
   -0.0674   -1.2874   -0.0538 C   0  0  1  0  0  0  0  0  0  0  0  0
    0.7678   -1.7434   -0.5973 H   0  0  0  0  0  0  0  0  0  0  0  0
   -0.3959    0.0666   -0.7512 C   0  0  0  0  0  0  0  0  0  0  0  0
    0.3073    0.8273   -0.3929 H   0  0  0  0  0  0  0  0  0  0  0  0
   -0.1412   -0.1004   -1.8029 H   0  0  0  0  0  0  0  0  0  0  0  0
   -1.8154    0.7052   -0.7804 C   0  0  0  0  0  0  0  0  0  0  0  0
   -1.7884    1.5455   -0.0782 H   0  0  0  0  0  0  0  0  0  0  0  0
   -1.9698    1.1313   -1.7775 H   0  0  0  0  0  0  0  0  0  0  0  0
   -3.0503   -0.1303   -0.4154 C   0  0  0  0  0  0  0  0  0  0  0  0
   -3.1699   -0.9448   -1.1363 H   0  0  0  0  0  0  0  0  0  0  0  0
   -2.9371   -0.5465    0.5901 H   0  0  0  0  0  0  0  0  0  0  0  0
   -4.3129    0.7254   -0.4316 C   0  0  0  0  0  0  0  0  0  0  0  0
   -4.2326    1.5256    0.3131 H   0  0  0  0  0  0  0  0  0  0  0  0
   -4.4495    1.1886   -1.4154 H   0  0  0  0  0  0  0  0  0  0  0  0
   -5.4521   -0.1417   -0.1155 N   0  0  0  0  0  0  0  0  0  0  0  0
   -6.3074    0.4034    0.0008 H   0  0  0  0  0  0  0  0  0  0  0  0
   -5.5774   -0.8591   -0.8294 H   0  0  0  0  0  0  0  0  0  0  0  0
    0.4675   -0.9688    1.3619 C   0  0  0  0  0  0  0  0  0  0  0  0
    1.6518   -0.7031    1.5224 O   0  0  0  0  0  0  0  0  0  0  0  0
   -0.4195   -0.7370    2.3983 N   0  0  0  0  0  0  0  0  0  0  0  0
   -1.3837   -1.0095    2.2378 H   0  0  0  0  0  0  0  0  0  0  0  0
    0.0064   -0.4096    3.7524 C   0  0  0  0  0  0  0  0  0  0  0  0
    0.5990    0.5112    3.7559 H   0  0  0  0  0  0  0  0  0  0  0  0
   -0.8648   -0.2608    4.3973 H   0  0  0  0  0  0  0  0  0  0  0  0
    0.6129   -1.2209    4.1682 H   0  0  0  0  0  0  0  0  0  0  0  0
  1  2  1  0  0  0  0
  2  3  1  0  0  0  0
  2  4  1  0  0  0  0
  2  5  1  0  0  0  0
  5  6  2  0  0  0  0
  5  7  1  0  0  0  0
  7  8  1  0  0  0  0
  7  9  1  0  0  0  0
  9 10  1  0  0  0  0
  9 11  1  0  0  0  0
  9 26  1  0  0  0  0
 11 12  1  0  0  0  0
 11 13  1  0  0  0  0
 11 14  1  0  0  0  0
 14 15  1  0  0  0  0
 14 16  1  0  0  0  0
 14 17  1  0  0  0  0
 17 18  1  0  0  0  0
 17 19  1  0  0  0  0
 17 20  1  0  0  0  0
 20 21  1  0  0  0  0
 20 22  1  0  0  0  0
 20 23  1  0  0  0  0
 23 24  1  0  0  0  0
 23 25  1  0  0  0  0
 26 27  2  0  0  0  0
 26 28  1  0  0  0  0
 28 29  1  0  0  0  0
 28 30  1  0  0  0  0
 30 31  1  0  0  0  0
 30 32  1  0  0  0  0
 30 33  1  0  0  0  0
M  END
$$$$

  -OEChem-03222214063D

 33 32  0     1  0  0  0  0  0999 V2000
   -2.4346   -5.0824    0.8083 H   0  0  0  0  0  0  0  0  0  0  0  0
   -2.6738   -4.0517    0.5324 C   0  0  0  0  0  0  0  0  0  0  0  0
   -3.2925   -3.6112    1.3176 H   0  0  0  0  0  0  0  0  0  0  0  0
   -3.2358   -4.0582   -0.4043 H   0  0  0  0  0  0  0  0  0  0  0  0
   -1.4001   -3.2458    0.3631 C   0  0  0  0  0  0  0  0  0  0  0  0
   -0.3208   -3.7847    0.5372 O   0  0  0  0  0  0  0  0  0  0  0  0
   -1.4674   -1.9106    0.0152 N   0  0  0  0  0  0  0  0  0  0  0  0
   -2.4058   -1.5101   -0.0289 H   0  0  0  0  0  0  0  0  0  0  0  0
   -0.2957   -1.0138   -0.0382 C   0  0  1  0  0  0  0  0  0  0  0  0
    0.4354   -1.4924   -0.6998 H   0  0  0  0  0  0  0  0  0  0  0  0
   -0.5187    0.4248   -0.5992 C   0  0  0  0  0  0  0  0  0  0  0  0
    0.2815    1.0680   -0.2152 H   0  0  0  0  0  0  0  0  0  0  0  0
   -0.3347    0.3382   -1.6751 H   0  0  0  0  0  0  0  0  0  0  0  0
   -1.8516    1.2193   -0.4803 C   0  0  0  0  0  0  0  0  0  0  0  0
   -1.6120    2.1300    0.0790 H   0  0  0  0  0  0  0  0  0  0  0  0
   -2.1560    1.5466   -1.4804 H   0  0  0  0  0  0  0  0  0  0  0  0
   -3.0599    0.5927    0.2246 C   0  0  0  0  0  0  0  0  0  0  0  0
   -3.7004    1.3911    0.6129 H   0  0  0  0  0  0  0  0  0  0  0  0
   -2.7312    0.0133    1.0910 H   0  0  0  0  0  0  0  0  0  0  0  0
   -3.8926   -0.2444   -0.7497 C   0  0  0  0  0  0  0  0  0  0  0  0
   -4.6572    0.3822   -1.2226 H   0  0  0  0  0  0  0  0  0  0  0  0
   -3.2644   -0.6561   -1.5481 H   0  0  0  0  0  0  0  0  0  0  0  0
   -4.5059   -1.3405    0.0036 N   0  0  0  0  0  0  0  0  0  0  0  0
   -5.0602   -0.9762    0.7813 H   0  0  0  0  0  0  0  0  0  0  0  0
   -5.0904   -1.9158   -0.6066 H   0  0  0  0  0  0  0  0  0  0  0  0
    0.4083   -0.9018    1.3345 C   0  0  0  0  0  0  0  0  0  0  0  0
    1.6211   -0.7424    1.3903 O   0  0  0  0  0  0  0  0  0  0  0  0
   -0.3416   -0.7266    2.4842 N   0  0  0  0  0  0  0  0  0  0  0  0
   -1.3360   -0.9116    2.4070 H   0  0  0  0  0  0  0  0  0  0  0  0
    0.2516   -0.5852    3.8074 C   0  0  0  0  0  0  0  0  0  0  0  0
    0.8997    0.2965    3.8445 H   0  0  0  0  0  0  0  0  0  0  0  0
   -0.5315   -0.4695    4.5626 H   0  0  0  0  0  0  0  0  0  0  0  0
    0.8465   -1.4706    4.0557 H   0  0  0  0  0  0  0  0  0  0  0  0
  1  2  1  0  0  0  0
  2  3  1  0  0  0  0
  2  4  1  0  0  0  0
  2  5  1  0  0  0  0
  5  6  2  0  0  0  0
  5  7  1  0  0  0  0
  7  8  1  0  0  0  0
  7  9  1  0  0  0  0
  9 10  1  0  0  0  0
  9 11  1  0  0  0  0
  9 26  1  0  0  0  0
 11 12  1  0  0  0  0
 11 13  1  0  0  0  0
 11 14  1  0  0  0  0
 14 15  1  0  0  0  0
 14 16  1  0  0  0  0
 14 17  1  0  0  0  0
 17 18  1  0  0  0  0
 17 19  1  0  0  0  0
 17 20  1  0  0  0  0
 20 21  1  0  0  0  0
 20 22  1  0  0  0  0
 20 23  1  0  0  0  0
 23 24  1  0  0  0  0
 23 25  1  0  0  0  0
 26 27  2  0  0  0  0
 26 28  1  0  0  0  0
 28 29  1  0  0  0  0
 28 30  1  0  0  0  0
 30 31  1  0  0  0  0
 30 32  1  0  0  0  0
 30 33  1  0  0  0  0
M  END
$$$$

  -OEChem-03222214063D

 33 32  0     1  0  0  0  0  0999 V2000
   -2.1500   -5.4034    0.7397 H   0  0  0  0  0  0  0  0  0  0  0  0
   -2.3699   -4.4147    0.3266 C   0  0  0  0  0  0  0  0  0  0  0  0
   -3.1925   -3.9719    0.8933 H   0  0  0  0  0  0  0  0  0  0  0  0
   -2.6739   -4.5293   -0.7166 H   0  0  0  0  0  0  0  0  0  0  0  0
   -1.1423   -3.5278    0.4151 C   0  0  0  0  0  0  0  0  0  0  0  0
   -0.1075   -3.9677    0.8829 O   0  0  0  0  0  0  0  0  0  0  0  0
   -1.2135   -2.2235   -0.0315 N   0  0  0  0  0  0  0  0  0  0  0  0
   -2.0849   -1.9310   -0.4607 H   0  0  0  0  0  0  0  0  0  0  0  0
   -0.0901   -1.2733   -0.0335 C   0  0  1  0  0  0  0  0  0  0  0  0
    0.7261   -1.7438   -0.5938 H   0  0  0  0  0  0  0  0  0  0  0  0
   -0.4111    0.0692   -0.7497 C   0  0  0  0  0  0  0  0  0  0  0  0
    0.2535    0.8324   -0.3283 H   0  0  0  0  0  0  0  0  0  0  0  0
   -0.1002   -0.0546   -1.7921 H   0  0  0  0  0  0  0  0  0  0  0  0
   -1.8416    0.6807   -0.7940 C   0  0  0  0  0  0  0  0  0  0  0  0
   -1.7283    1.7567   -0.6231 H   0  0  0  0  0  0  0  0  0  0  0  0
   -2.2276    0.5629   -1.8122 H   0  0  0  0  0  0  0  0  0  0  0  0
   -2.9206    0.1510    0.1667 C   0  0  0  0  0  0  0  0  0  0  0  0
   -3.3133   -0.8030   -0.1926 H   0  0  0  0  0  0  0  0  0  0  0  0
   -2.4980    0.0070    1.1631 H   0  0  0  0  0  0  0  0  0  0  0  0
   -4.0817    1.1345    0.2758 C   0  0  0  0  0  0  0  0  0  0  0  0
   -3.7291    2.0838    0.6947 H   0  0  0  0  0  0  0  0  0  0  0  0
   -4.5052    1.3358   -0.7146 H   0  0  0  0  0  0  0  0  0  0  0  0
   -5.0993    0.5478    1.1530 N   0  0  0  0  0  0  0  0  0  0  0  0
   -5.8454    1.2162    1.3496 H   0  0  0  0  0  0  0  0  0  0  0  0
   -5.4795   -0.3107    0.7554 H   0  0  0  0  0  0  0  0  0  0  0  0
    0.4941   -0.9987    1.3737 C   0  0  0  0  0  0  0  0  0  0  0  0
    1.6905   -0.7681    1.4948 O   0  0  0  0  0  0  0  0  0  0  0  0
   -0.3405   -0.7668    2.4519 N   0  0  0  0  0  0  0  0  0  0  0  0
   -1.3209   -0.9969    2.3255 H   0  0  0  0  0  0  0  0  0  0  0  0
    0.1470   -0.4664    3.7914 C   0  0  0  0  0  0  0  0  0  0  0  0
    0.7637    0.4385    3.7818 H   0  0  0  0  0  0  0  0  0  0  0  0
   -0.6943   -0.3022    4.4712 H   0  0  0  0  0  0  0  0  0  0  0  0
    0.7469   -1.2985    4.1746 H   0  0  0  0  0  0  0  0  0  0  0  0
  1  2  1  0  0  0  0
  2  3  1  0  0  0  0
  2  4  1  0  0  0  0
  2  5  1  0  0  0  0
  5  6  2  0  0  0  0
  5  7  1  0  0  0  0
  7  8  1  0  0  0  0
  7  9  1  0  0  0  0
  9 10  1  0  0  0  0
  9 11  1  0  0  0  0
  9 26  1  0  0  0  0
 11 12  1  0  0  0  0
 11 13  1  0  0  0  0
 11 14  1  0  0  0  0
 14 15  1  0  0  0  0
 14 16  1  0  0  0  0
 14 17  1  0  0  0  0
 17 18  1  0  0  0  0
 17 19  1  0  0  0  0
 17 20  1  0  0  0  0
 20 21  1  0  0  0  0
 20 22  1  0  0  0  0
 20 23  1  0  0  0  0
 23 24  1  0  0  0  0
 23 25  1  0  0  0  0
 26 27  2  0  0  0  0
 26 28  1  0  0  0  0
 28 29  1  0  0  0  0
 28 30  1  0  0  0  0
 30 31  1  0  0  0  0
 30 32  1  0  0  0  0
 30 33  1  0  0  0  0
M  END
$$$$

  -OEChem-03222214063D

 33 32  0     1  0  0  0  0  0999 V2000
   -2.2921   -5.3304    0.6841 H   0  0  0  0  0  0  0  0  0  0  0  0
   -2.4848   -4.3279    0.2914 C   0  0  0  0  0  0  0  0  0  0  0  0
   -3.2898   -3.8717    0.8723 H   0  0  0  0  0  0  0  0  0  0  0  0
   -2.7982   -4.4135   -0.7517 H   0  0  0  0  0  0  0  0  0  0  0  0
   -1.2305   -3.4803    0.3885 C   0  0  0  0  0  0  0  0  0  0  0  0
   -0.2064   -3.9635    0.8362 O   0  0  0  0  0  0  0  0  0  0  0  0
   -1.2617   -2.1652   -0.0314 N   0  0  0  0  0  0  0  0  0  0  0  0
   -2.1264   -1.8325   -0.4453 H   0  0  0  0  0  0  0  0  0  0  0  0
   -0.1030   -1.2577   -0.0269 C   0  0  1  0  0  0  0  0  0  0  0  0
    0.6891   -1.7479   -0.6044 H   0  0  0  0  0  0  0  0  0  0  0  0
   -0.3967    0.0942   -0.7325 C   0  0  0  0  0  0  0  0  0  0  0  0
    0.2778    0.8413   -0.2989 H   0  0  0  0  0  0  0  0  0  0  0  0
   -0.0941   -0.0163   -1.7790 H   0  0  0  0  0  0  0  0  0  0  0  0
   -1.8198    0.7152   -0.7452 C   0  0  0  0  0  0  0  0  0  0  0  0
   -1.6987    1.7990   -0.8492 H   0  0  0  0  0  0  0  0  0  0  0  0
   -2.3315    0.3625   -1.6466 H   0  0  0  0  0  0  0  0  0  0  0  0
   -2.7516    0.4332    0.4478 C   0  0  0  0  0  0  0  0  0  0  0  0
   -3.1109   -0.5968    0.4372 H   0  0  0  0  0  0  0  0  0  0  0  0
   -2.2131    0.6080    1.3821 H   0  0  0  0  0  0  0  0  0  0  0  0
   -3.9628    1.3611    0.4126 C   0  0  0  0  0  0  0  0  0  0  0  0
   -3.6370    2.4044    0.4931 H   0  0  0  0  0  0  0  0  0  0  0  0
   -4.5041    1.2459   -0.5331 H   0  0  0  0  0  0  0  0  0  0  0  0
   -4.8358    1.0224    1.5407 N   0  0  0  0  0  0  0  0  0  0  0  0
   -5.6032    1.6899    1.6275 H   0  0  0  0  0  0  0  0  0  0  0  0
   -5.1913    0.0702    1.4619 H   0  0  0  0  0  0  0  0  0  0  0  0
    0.5127   -1.0290    1.3751 C   0  0  0  0  0  0  0  0  0  0  0  0
    1.7201   -0.8570    1.4813 O   0  0  0  0  0  0  0  0  0  0  0  0
   -0.2930   -0.7851    2.4722 N   0  0  0  0  0  0  0  0  0  0  0  0
   -1.2893   -0.9344    2.3508 H   0  0  0  0  0  0  0  0  0  0  0  0
    0.2265   -0.5195    3.8071 C   0  0  0  0  0  0  0  0  0  0  0  0
    0.8713    0.3655    3.7990 H   0  0  0  0  0  0  0  0  0  0  0  0
   -0.5975   -0.3393    4.5039 H   0  0  0  0  0  0  0  0  0  0  0  0
    0.8064   -1.3757    4.1678 H   0  0  0  0  0  0  0  0  0  0  0  0
  1  2  1  0  0  0  0
  2  3  1  0  0  0  0
  2  4  1  0  0  0  0
  2  5  1  0  0  0  0
  5  6  2  0  0  0  0
  5  7  1  0  0  0  0
  7  8  1  0  0  0  0
  7  9  1  0  0  0  0
  9 10  1  0  0  0  0
  9 11  1  0  0  0  0
  9 26  1  0  0  0  0
 11 12  1  0  0  0  0
 11 13  1  0  0  0  0
 11 14  1  0  0  0  0
 14 15  1  0  0  0  0
 14 16  1  0  0  0  0
 14 17  1  0  0  0  0
 17 18  1  0  0  0  0
 17 19  1  0  0  0  0
 17 20  1  0  0  0  0
 20 21  1  0  0  0  0
 20 22  1  0  0  0  0
 20 23  1  0  0  0  0
 23 24  1  0  0  0  0
 23 25  1  0  0  0  0
 26 27  2  0  0  0  0
 26 28  1  0  0  0  0
 28 29  1  0  0  0  0
 28 30  1  0  0  0  0
 30 31  1  0  0  0  0
 30 32  1  0  0  0  0
 30 33  1  0  0  0  0
M  END
$$$$

  -OEChem-03222214063D

 33 32  0     1  0  0  0  0  0999 V2000
   -2.5313   -5.1869    0.6431 H   0  0  0  0  0  0  0  0  0  0  0  0
   -2.6611   -4.1755    0.2469 C   0  0  0  0  0  0  0  0  0  0  0  0
   -3.4425   -3.6717    0.8208 H   0  0  0  0  0  0  0  0  0  0  0  0
   -2.9710   -4.2447   -0.7986 H   0  0  0  0  0  0  0  0  0  0  0  0
   -1.3592   -3.4039    0.3520 C   0  0  0  0  0  0  0  0  0  0  0  0
   -0.3673   -3.9484    0.8015 O   0  0  0  0  0  0  0  0  0  0  0  0
   -1.3104   -2.0871   -0.0610 N   0  0  0  0  0  0  0  0  0  0  0  0
   -2.1564   -1.6951   -0.4615 H   0  0  0  0  0  0  0  0  0  0  0  0
   -0.1021   -1.2435   -0.0260 C   0  0  1  0  0  0  0  0  0  0  0  0
    0.6742   -1.7673   -0.5958 H   0  0  0  0  0  0  0  0  0  0  0  0
   -0.3321    0.1197   -0.7288 C   0  0  0  0  0  0  0  0  0  0  0  0
    0.3598    0.8483   -0.2914 H   0  0  0  0  0  0  0  0  0  0  0  0
   -0.0359    0.0038   -1.7764 H   0  0  0  0  0  0  0  0  0  0  0  0
   -1.7467    0.7476   -0.7261 C   0  0  0  0  0  0  0  0  0  0  0  0
   -1.6518    1.7845   -1.0658 H   0  0  0  0  0  0  0  0  0  0  0  0
   -2.3598    0.2204   -1.4642 H   0  0  0  0  0  0  0  0  0  0  0  0
   -2.4928    0.7310    0.6193 C   0  0  0  0  0  0  0  0  0  0  0  0
   -2.7288   -0.2876    0.9309 H   0  0  0  0  0  0  0  0  0  0  0  0
   -1.8606    1.1874    1.3875 H   0  0  0  0  0  0  0  0  0  0  0  0
   -3.7938    1.5228    0.5225 C   0  0  0  0  0  0  0  0  0  0  0  0
   -3.5770    2.5710    0.2870 H   0  0  0  0  0  0  0  0  0  0  0  0
   -4.4267    1.1186   -0.2756 H   0  0  0  0  0  0  0  0  0  0  0  0
   -4.4884    1.4319    1.8102 N   0  0  0  0  0  0  0  0  0  0  0  0
   -5.3164    2.0286    1.8272 H   0  0  0  0  0  0  0  0  0  0  0  0
   -4.7315    0.4677    2.0345 H   0  0  0  0  0  0  0  0  0  0  0  0
    0.5027   -1.0488    1.3858 C   0  0  0  0  0  0  0  0  0  0  0  0
    1.7161   -0.9455    1.5104 O   0  0  0  0  0  0  0  0  0  0  0  0
   -0.3035   -0.7617    2.4723 N   0  0  0  0  0  0  0  0  0  0  0  0
   -1.3067   -0.8123    2.3297 H   0  0  0  0  0  0  0  0  0  0  0  0
    0.2118   -0.4805    3.8055 C   0  0  0  0  0  0  0  0  0  0  0  0
    0.8862    0.3820    3.7819 H   0  0  0  0  0  0  0  0  0  0  0  0
   -0.6119   -0.2553    4.4895 H   0  0  0  0  0  0  0  0  0  0  0  0
    0.7591   -1.3462    4.1933 H   0  0  0  0  0  0  0  0  0  0  0  0
  1  2  1  0  0  0  0
  2  3  1  0  0  0  0
  2  4  1  0  0  0  0
  2  5  1  0  0  0  0
  5  6  2  0  0  0  0
  5  7  1  0  0  0  0
  7  8  1  0  0  0  0
  7  9  1  0  0  0  0
  9 10  1  0  0  0  0
  9 11  1  0  0  0  0
  9 26  1  0  0  0  0
 11 12  1  0  0  0  0
 11 13  1  0  0  0  0
 11 14  1  0  0  0  0
 14 15  1  0  0  0  0
 14 16  1  0  0  0  0
 14 17  1  0  0  0  0
 17 18  1  0  0  0  0
 17 19  1  0  0  0  0
 17 20  1  0  0  0  0
 20 21  1  0  0  0  0
 20 22  1  0  0  0  0
 20 23  1  0  0  0  0
 23 24  1  0  0  0  0
 23 25  1  0  0  0  0
 26 27  2  0  0  0  0
 26 28  1  0  0  0  0
 28 29  1  0  0  0  0
 28 30  1  0  0  0  0
 30 31  1  0  0  0  0
 30 32  1  0  0  0  0
 30 33  1  0  0  0  0
M  END
$$$$

  -OEChem-03222214063D

 33 32  0     1  0  0  0  0  0999 V2000
   -2.5940   -5.1554    0.5934 H   0  0  0  0  0  0  0  0  0  0  0  0
   -2.7146   -4.1386    0.2080 C   0  0  0  0  0  0  0  0  0  0  0  0
   -3.5092   -3.6416    0.7694 H   0  0  0  0  0  0  0  0  0  0  0  0
   -2.9996   -4.1947   -0.8453 H   0  0  0  0  0  0  0  0  0  0  0  0
   -1.4154   -3.3686    0.3539 C   0  0  0  0  0  0  0  0  0  0  0  0
   -0.4396   -3.9148    0.8354 O   0  0  0  0  0  0  0  0  0  0  0  0
   -1.3500   -2.0523   -0.0585 N   0  0  0  0  0  0  0  0  0  0  0  0
   -2.1810   -1.6606   -0.4893 H   0  0  0  0  0  0  0  0  0  0  0  0
   -0.1312   -1.2233   -0.0108 C   0  0  1  0  0  0  0  0  0  0  0  0
    0.6419   -1.7647   -0.5681 H   0  0  0  0  0  0  0  0  0  0  0  0
   -0.3293    0.1313   -0.7367 C   0  0  0  0  0  0  0  0  0  0  0  0
    0.3621    0.8674   -0.3112 H   0  0  0  0  0  0  0  0  0  0  0  0
   -0.0317   -0.0104   -1.7808 H   0  0  0  0  0  0  0  0  0  0  0  0
   -1.7500    0.7347   -0.7492 C   0  0  0  0  0  0  0  0  0  0  0  0
   -1.7029    1.6770   -1.3055 H   0  0  0  0  0  0  0  0  0  0  0  0
   -2.4320    0.0744   -1.2941 H   0  0  0  0  0  0  0  0  0  0  0  0
   -2.3171    1.0185    0.6478 C   0  0  0  0  0  0  0  0  0  0  0  0
   -2.5412    0.0777    1.1563 H   0  0  0  0  0  0  0  0  0  0  0  0
   -1.5777    1.5642    1.2436 H   0  0  0  0  0  0  0  0  0  0  0  0
   -3.5941    1.8490    0.5576 C   0  0  0  0  0  0  0  0  0  0  0  0
   -3.3729    2.8271    0.1152 H   0  0  0  0  0  0  0  0  0  0  0  0
   -4.3294    1.3459   -0.0801 H   0  0  0  0  0  0  0  0  0  0  0  0
   -4.1344    2.0219    1.9092 N   0  0  0  0  0  0  0  0  0  0  0  0
   -4.9542    2.6298    1.9062 H   0  0  0  0  0  0  0  0  0  0  0  0
   -4.3487    1.1242    2.3421 H   0  0  0  0  0  0  0  0  0  0  0  0
    0.4740   -1.0281    1.4008 C   0  0  0  0  0  0  0  0  0  0  0  0
    1.6885   -0.9338    1.5234 O   0  0  0  0  0  0  0  0  0  0  0  0
   -0.3259   -0.7270    2.4878 N   0  0  0  0  0  0  0  0  0  0  0  0
   -1.3285   -0.7961    2.3542 H   0  0  0  0  0  0  0  0  0  0  0  0
    0.1964   -0.4568    3.8209 C   0  0  0  0  0  0  0  0  0  0  0  0
    0.8723    0.4046    3.8006 H   0  0  0  0  0  0  0  0  0  0  0  0
   -0.6237   -0.2354    4.5106 H   0  0  0  0  0  0  0  0  0  0  0  0
    0.7441   -1.3261    4.1997 H   0  0  0  0  0  0  0  0  0  0  0  0
  1  2  1  0  0  0  0
  2  3  1  0  0  0  0
  2  4  1  0  0  0  0
  2  5  1  0  0  0  0
  5  6  2  0  0  0  0
  5  7  1  0  0  0  0
  7  8  1  0  0  0  0
  7  9  1  0  0  0  0
  9 10  1  0  0  0  0
  9 11  1  0  0  0  0
  9 26  1  0  0  0  0
 11 12  1  0  0  0  0
 11 13  1  0  0  0  0
 11 14  1  0  0  0  0
 14 15  1  0  0  0  0
 14 16  1  0  0  0  0
 14 17  1  0  0  0  0
 17 18  1  0  0  0  0
 17 19  1  0  0  0  0
 17 20  1  0  0  0  0
 20 21  1  0  0  0  0
 20 22  1  0  0  0  0
 20 23  1  0  0  0  0
 23 24  1  0  0  0  0
 23 25  1  0  0  0  0
 26 27  2  0  0  0  0
 26 28  1  0  0  0  0
 28 29  1  0  0  0  0
 28 30  1  0  0  0  0
 30 31  1  0  0  0  0
 30 32  1  0  0  0  0
 30 33  1  0  0  0  0
M  END
$$$$

  -OEChem-03222214063D

 33 32  0     1  0  0  0  0  0999 V2000
   -2.5945   -5.1651    0.5779 H   0  0  0  0  0  0  0  0  0  0  0  0
   -2.7207   -4.1495    0.1919 C   0  0  0  0  0  0  0  0  0  0  0  0
   -3.5335   -3.6650    0.7381 H   0  0  0  0  0  0  0  0  0  0  0  0
   -2.9836   -4.2070   -0.8671 H   0  0  0  0  0  0  0  0  0  0  0  0
   -1.4347   -3.3636    0.3663 C   0  0  0  0  0  0  0  0  0  0  0  0
   -0.4662   -3.8951    0.8780 O   0  0  0  0  0  0  0  0  0  0  0  0
   -1.3744   -2.0489   -0.0521 N   0  0  0  0  0  0  0  0  0  0  0  0
   -2.1930   -1.6793   -0.5237 H   0  0  0  0  0  0  0  0  0  0  0  0
   -0.1562   -1.2177   -0.0129 C   0  0  1  0  0  0  0  0  0  0  0  0
    0.6157   -1.7616   -0.5698 H   0  0  0  0  0  0  0  0  0  0  0  0
   -0.3469    0.1393   -0.7372 C   0  0  0  0  0  0  0  0  0  0  0  0
    0.3616    0.8722   -0.3348 H   0  0  0  0  0  0  0  0  0  0  0  0
   -0.0672   -0.0196   -1.7837 H   0  0  0  0  0  0  0  0  0  0  0  0
   -1.7648    0.7492   -0.7447 C   0  0  0  0  0  0  0  0  0  0  0  0
   -1.7661    1.5531   -1.4884 H   0  0  0  0  0  0  0  0  0  0  0  0
   -2.5113    0.0191   -1.0692 H   0  0  0  0  0  0  0  0  0  0  0  0
   -2.1624    1.3554    0.6060 C   0  0  0  0  0  0  0  0  0  0  0  0
   -2.3346    0.5554    1.3295 H   0  0  0  0  0  0  0  0  0  0  0  0
   -1.3535    1.9908    0.9828 H   0  0  0  0  0  0  0  0  0  0  0  0
   -3.4353    2.1874    0.4752 C   0  0  0  0  0  0  0  0  0  0  0  0
   -3.2720    3.0133   -0.2262 H   0  0  0  0  0  0  0  0  0  0  0  0
   -4.2530    1.5685    0.0892 H   0  0  0  0  0  0  0  0  0  0  0  0
   -3.7848    2.7184    1.7957 N   0  0  0  0  0  0  0  0  0  0  0  0
   -4.6148    3.3103    1.7514 H   0  0  0  0  0  0  0  0  0  0  0  0
   -3.9055    1.9702    2.4776 H   0  0  0  0  0  0  0  0  0  0  0  0
    0.4487   -1.0206    1.3977 C   0  0  0  0  0  0  0  0  0  0  0  0
    1.6623   -0.9178    1.5208 O   0  0  0  0  0  0  0  0  0  0  0  0
   -0.3562   -0.7196    2.4807 N   0  0  0  0  0  0  0  0  0  0  0  0
   -1.3548   -0.8404    2.3530 H   0  0  0  0  0  0  0  0  0  0  0  0
    0.1625   -0.4696    3.8189 C   0  0  0  0  0  0  0  0  0  0  0  0
    0.8440    0.3875    3.8117 H   0  0  0  0  0  0  0  0  0  0  0  0
   -0.6587   -0.2514    4.5082 H   0  0  0  0  0  0  0  0  0  0  0  0
    0.7027   -1.3473    4.1887 H   0  0  0  0  0  0  0  0  0  0  0  0
  1  2  1  0  0  0  0
  2  3  1  0  0  0  0
  2  4  1  0  0  0  0
  2  5  1  0  0  0  0
  5  6  2  0  0  0  0
  5  7  1  0  0  0  0
  7  8  1  0  0  0  0
  7  9  1  0  0  0  0
  9 10  1  0  0  0  0
  9 11  1  0  0  0  0
  9 26  1  0  0  0  0
 11 12  1  0  0  0  0
 11 13  1  0  0  0  0
 11 14  1  0  0  0  0
 14 15  1  0  0  0  0
 14 16  1  0  0  0  0
 14 17  1  0  0  0  0
 17 18  1  0  0  0  0
 17 19  1  0  0  0  0
 17 20  1  0  0  0  0
 20 21  1  0  0  0  0
 20 22  1  0  0  0  0
 20 23  1  0  0  0  0
 23 24  1  0  0  0  0
 23 25  1  0  0  0  0
 26 27  2  0  0  0  0
 26 28  1  0  0  0  0
 28 29  1  0  0  0  0
 28 30  1  0  0  0  0
 30 31  1  0  0  0  0
 30 32  1  0  0  0  0
 30 33  1  0  0  0  0
M  END
$$$$

  -OEChem-03222214063D

 33 32  0     1  0  0  0  0  0999 V2000
   -2.6472   -5.1403    0.5803 H   0  0  0  0  0  0  0  0  0  0  0  0
   -2.7535   -4.1320    0.1698 C   0  0  0  0  0  0  0  0  0  0  0  0
   -3.5877   -3.6350    0.6704 H   0  0  0  0  0  0  0  0  0  0  0  0
   -2.9699   -4.2091   -0.8984 H   0  0  0  0  0  0  0  0  0  0  0  0
   -1.4746   -3.3449    0.3849 C   0  0  0  0  0  0  0  0  0  0  0  0
   -0.5287   -3.8696    0.9435 O   0  0  0  0  0  0  0  0  0  0  0  0
   -1.3961   -2.0374   -0.0538 N   0  0  0  0  0  0  0  0  0  0  0  0
   -2.1814   -1.6949   -0.5972 H   0  0  0  0  0  0  0  0  0  0  0  0
   -0.1688   -1.2181   -0.0177 C   0  0  1  0  0  0  0  0  0  0  0  0
    0.6042   -1.7742   -0.5609 H   0  0  0  0  0  0  0  0  0  0  0  0
   -0.3335    0.1432   -0.7435 C   0  0  0  0  0  0  0  0  0  0  0  0
    0.3994    0.8602   -0.3561 H   0  0  0  0  0  0  0  0  0  0  0  0
   -0.0637   -0.0348   -1.7895 H   0  0  0  0  0  0  0  0  0  0  0  0
   -1.7384    0.7886   -0.7590 C   0  0  0  0  0  0  0  0  0  0  0  0
   -1.8080    1.4030   -1.6630 H   0  0  0  0  0  0  0  0  0  0  0  0
   -2.5352    0.0446   -0.8251 H   0  0  0  0  0  0  0  0  0  0  0  0
   -1.9653    1.7088    0.4466 C   0  0  0  0  0  0  0  0  0  0  0  0
   -1.9319    1.1285    1.3710 H   0  0  0  0  0  0  0  0  0  0  0  0
   -1.1714    2.4619    0.4913 H   0  0  0  0  0  0  0  0  0  0  0  0
   -3.3171    2.4102    0.3473 C   0  0  0  0  0  0  0  0  0  0  0  0
   -3.3705    2.9958   -0.5773 H   0  0  0  0  0  0  0  0  0  0  0  0
   -4.1249    1.6702    0.3289 H   0  0  0  0  0  0  0  0  0  0  0  0
   -3.4696    3.2949    1.5052 N   0  0  0  0  0  0  0  0  0  0  0  0
   -4.3614    3.7898    1.4816 H   0  0  0  0  0  0  0  0  0  0  0  0
   -3.3576    2.7834    2.3803 H   0  0  0  0  0  0  0  0  0  0  0  0
    0.4141   -1.0143    1.4007 C   0  0  0  0  0  0  0  0  0  0  0  0
    1.6258   -0.9156    1.5449 O   0  0  0  0  0  0  0  0  0  0  0  0
   -0.4114   -0.6933    2.4624 N   0  0  0  0  0  0  0  0  0  0  0  0
   -1.4046   -0.8412    2.3213 H   0  0  0  0  0  0  0  0  0  0  0  0
    0.0836   -0.4484    3.8105 C   0  0  0  0  0  0  0  0  0  0  0  0
    0.7890    0.3893    3.8135 H   0  0  0  0  0  0  0  0  0  0  0  0
   -0.7464   -0.2017    4.4791 H   0  0  0  0  0  0  0  0  0  0  0  0
    0.5909   -1.3381    4.1983 H   0  0  0  0  0  0  0  0  0  0  0  0
  1  2  1  0  0  0  0
  2  3  1  0  0  0  0
  2  4  1  0  0  0  0
  2  5  1  0  0  0  0
  5  6  2  0  0  0  0
  5  7  1  0  0  0  0
  7  8  1  0  0  0  0
  7  9  1  0  0  0  0
  9 10  1  0  0  0  0
  9 11  1  0  0  0  0
  9 26  1  0  0  0  0
 11 12  1  0  0  0  0
 11 13  1  0  0  0  0
 11 14  1  0  0  0  0
 14 15  1  0  0  0  0
 14 16  1  0  0  0  0
 14 17  1  0  0  0  0
 17 18  1  0  0  0  0
 17 19  1  0  0  0  0
 17 20  1  0  0  0  0
 20 21  1  0  0  0  0
 20 22  1  0  0  0  0
 20 23  1  0  0  0  0
 23 24  1  0  0  0  0
 23 25  1  0  0  0  0
 26 27  2  0  0  0  0
 26 28  1  0  0  0  0
 28 29  1  0  0  0  0
 28 30  1  0  0  0  0
 30 31  1  0  0  0  0
 30 32  1  0  0  0  0
 30 33  1  0  0  0  0
M  END
$$$$

  -OEChem-03222214063D

 33 32  0     1  0  0  0  0  0999 V2000
   -2.6658   -5.1251    0.6068 H   0  0  0  0  0  0  0  0  0  0  0  0
   -2.7584   -4.1289    0.1647 C   0  0  0  0  0  0  0  0  0  0  0  0
   -3.6084   -3.6185    0.6237 H   0  0  0  0  0  0  0  0  0  0  0  0
   -2.9407   -4.2369   -0.9072 H   0  0  0  0  0  0  0  0  0  0  0  0
   -1.4876   -3.3340    0.3986 C   0  0  0  0  0  0  0  0  0  0  0  0
   -0.5646   -3.8375    1.0120 O   0  0  0  0  0  0  0  0  0  0  0  0
   -1.3910   -2.0444   -0.0874 N   0  0  0  0  0  0  0  0  0  0  0  0
   -2.1465   -1.7333   -0.6894 H   0  0  0  0  0  0  0  0  0  0  0  0
   -0.1606   -1.2283   -0.0495 C   0  0  1  0  0  0  0  0  0  0  0  0
    0.6279   -1.7871   -0.5663 H   0  0  0  0  0  0  0  0  0  0  0  0
   -0.3201    0.1350   -0.7727 C   0  0  0  0  0  0  0  0  0  0  0  0
    0.4225    0.8459   -0.3921 H   0  0  0  0  0  0  0  0  0  0  0  0
   -0.0560   -0.0445   -1.8199 H   0  0  0  0  0  0  0  0  0  0  0  0
   -1.7253    0.7847   -0.7824 C   0  0  0  0  0  0  0  0  0  0  0  0
   -1.9203    1.1696   -1.7892 H   0  0  0  0  0  0  0  0  0  0  0  0
   -2.5204    0.0729   -0.5540 H   0  0  0  0  0  0  0  0  0  0  0  0
   -1.7917    1.9601    0.2010 C   0  0  0  0  0  0  0  0  0  0  0  0
   -1.5435    1.6166    1.2093 H   0  0  0  0  0  0  0  0  0  0  0  0
   -1.0564    2.7196   -0.0855 H   0  0  0  0  0  0  0  0  0  0  0  0
   -3.1828    2.5868    0.2111 C   0  0  0  0  0  0  0  0  0  0  0  0
   -3.4505    2.9248   -0.7962 H   0  0  0  0  0  0  0  0  0  0  0  0
   -3.9258    1.8483    0.5317 H   0  0  0  0  0  0  0  0  0  0  0  0
   -3.1744    3.7259    1.1324 N   0  0  0  0  0  0  0  0  0  0  0  0
   -4.0907    4.1714    1.1831 H   0  0  0  0  0  0  0  0  0  0  0  0
   -2.8499    3.4497    2.0594 H   0  0  0  0  0  0  0  0  0  0  0  0
    0.3694   -0.9831    1.3827 C   0  0  0  0  0  0  0  0  0  0  0  0
    1.5743   -0.8802    1.5738 O   0  0  0  0  0  0  0  0  0  0  0  0
   -0.5033   -0.6248    2.3946 N   0  0  0  0  0  0  0  0  0  0  0  0
   -1.4892   -0.7819    2.2155 H   0  0  0  0  0  0  0  0  0  0  0  0
   -0.0684   -0.3367    3.7552 C   0  0  0  0  0  0  0  0  0  0  0  0
    0.6481    0.4914    3.7618 H   0  0  0  0  0  0  0  0  0  0  0  0
   -0.9250   -0.0547    4.3745 H   0  0  0  0  0  0  0  0  0  0  0  0
    0.4071   -1.2178    4.1989 H   0  0  0  0  0  0  0  0  0  0  0  0
  1  2  1  0  0  0  0
  2  3  1  0  0  0  0
  2  4  1  0  0  0  0
  2  5  1  0  0  0  0
  5  6  2  0  0  0  0
  5  7  1  0  0  0  0
  7  8  1  0  0  0  0
  7  9  1  0  0  0  0
  9 10  1  0  0  0  0
  9 11  1  0  0  0  0
  9 26  1  0  0  0  0
 11 12  1  0  0  0  0
 11 13  1  0  0  0  0
 11 14  1  0  0  0  0
 14 15  1  0  0  0  0
 14 16  1  0  0  0  0
 14 17  1  0  0  0  0
 17 18  1  0  0  0  0
 17 19  1  0  0  0  0
 17 20  1  0  0  0  0
 20 21  1  0  0  0  0
 20 22  1  0  0  0  0
 20 23  1  0  0  0  0
 23 24  1  0  0  0  0
 23 25  1  0  0  0  0
 26 27  2  0  0  0  0
 26 28  1  0  0  0  0
 28 29  1  0  0  0  0
 28 30  1  0  0  0  0
 30 31  1  0  0  0  0
 30 32  1  0  0  0  0
 30 33  1  0  0  0  0
M  END
$$$$

  -OEChem-03222214063D

 33 32  0     1  0  0  0  0  0999 V2000
   -2.6580   -5.1196    0.6248 H   0  0  0  0  0  0  0  0  0  0  0  0
   -2.7530   -4.1266    0.1762 C   0  0  0  0  0  0  0  0  0  0  0  0
   -3.6058   -3.6164    0.6300 H   0  0  0  0  0  0  0  0  0  0  0  0
   -2.9326   -4.2422   -0.8953 H   0  0  0  0  0  0  0  0  0  0  0  0
   -1.4849   -3.3261    0.4072 C   0  0  0  0  0  0  0  0  0  0  0  0
   -0.5691   -3.8152    1.0429 O   0  0  0  0  0  0  0  0  0  0  0  0
   -1.3839   -2.0459   -0.1028 N   0  0  0  0  0  0  0  0  0  0  0  0
   -2.1340   -1.7452   -0.7172 H   0  0  0  0  0  0  0  0  0  0  0  0
   -0.1538   -1.2285   -0.0687 C   0  0  1  0  0  0  0  0  0  0  0  0
    0.6416   -1.7849   -0.5774 H   0  0  0  0  0  0  0  0  0  0  0  0
   -0.3264    0.1331   -0.7902 C   0  0  0  0  0  0  0  0  0  0  0  0
    0.4088    0.8455   -0.3976 H   0  0  0  0  0  0  0  0  0  0  0  0
   -0.0579   -0.0262   -1.8394 H   0  0  0  0  0  0  0  0  0  0  0  0
   -1.7411    0.7629   -0.7805 C   0  0  0  0  0  0  0  0  0  0  0  0
   -2.0913    0.8765   -1.8120 H   0  0  0  0  0  0  0  0  0  0  0  0
   -2.4665    0.1393   -0.2531 H   0  0  0  0  0  0  0  0  0  0  0  0
   -1.7122    2.1361   -0.0978 C   0  0  0  0  0  0  0  0  0  0  0  0
   -1.3313    2.0313    0.9235 H   0  0  0  0  0  0  0  0  0  0  0  0
   -1.0357    2.8024   -0.6437 H   0  0  0  0  0  0  0  0  0  0  0  0
   -3.1048    2.7586   -0.0569 C   0  0  0  0  0  0  0  0  0  0  0  0
   -3.5020    2.8592   -1.0732 H   0  0  0  0  0  0  0  0  0  0  0  0
   -3.7860    2.1181    0.5141 H   0  0  0  0  0  0  0  0  0  0  0  0
   -3.0065    4.0783    0.5723 N   0  0  0  0  0  0  0  0  0  0  0  0
   -3.9192    4.5288    0.6387 H   0  0  0  0  0  0  0  0  0  0  0  0
   -2.5609    4.0184    1.4882 H   0  0  0  0  0  0  0  0  0  0  0  0
    0.3581   -0.9583    1.3655 C   0  0  0  0  0  0  0  0  0  0  0  0
    1.5599   -0.8509    1.5718 O   0  0  0  0  0  0  0  0  0  0  0  0
   -0.5311   -0.5825    2.3568 N   0  0  0  0  0  0  0  0  0  0  0  0
   -1.5120   -0.7572    2.1678 H   0  0  0  0  0  0  0  0  0  0  0  0
   -0.1171   -0.2850    3.7217 C   0  0  0  0  0  0  0  0  0  0  0  0
    0.6119    0.5321    3.7322 H   0  0  0  0  0  0  0  0  0  0  0  0
   -0.9807    0.0176    4.3213 H   0  0  0  0  0  0  0  0  0  0  0  0
    0.3367   -1.1677    4.1842 H   0  0  0  0  0  0  0  0  0  0  0  0
  1  2  1  0  0  0  0
  2  3  1  0  0  0  0
  2  4  1  0  0  0  0
  2  5  1  0  0  0  0
  5  6  2  0  0  0  0
  5  7  1  0  0  0  0
  7  8  1  0  0  0  0
  7  9  1  0  0  0  0
  9 10  1  0  0  0  0
  9 11  1  0  0  0  0
  9 26  1  0  0  0  0
 11 12  1  0  0  0  0
 11 13  1  0  0  0  0
 11 14  1  0  0  0  0
 14 15  1  0  0  0  0
 14 16  1  0  0  0  0
 14 17  1  0  0  0  0
 17 18  1  0  0  0  0
 17 19  1  0  0  0  0
 17 20  1  0  0  0  0
 20 21  1  0  0  0  0
 20 22  1  0  0  0  0
 20 23  1  0  0  0  0
 23 24  1  0  0  0  0
 23 25  1  0  0  0  0
 26 27  2  0  0  0  0
 26 28  1  0  0  0  0
 28 29  1  0  0  0  0
 28 30  1  0  0  0  0
 30 31  1  0  0  0  0
 30 32  1  0  0  0  0
 30 33  1  0  0  0  0
M  END
$$$$

  -OEChem-03222214063D

 33 32  0     1  0  0  0  0  0999 V2000
   -2.6903   -5.0839    0.6219 H   0  0  0  0  0  0  0  0  0  0  0  0
   -2.7782   -4.0887    0.1763 C   0  0  0  0  0  0  0  0  0  0  0  0
   -3.6261   -3.5728    0.6330 H   0  0  0  0  0  0  0  0  0  0  0  0
   -2.9603   -4.1997   -0.8955 H   0  0  0  0  0  0  0  0  0  0  0  0
   -1.5031   -3.2997    0.4094 C   0  0  0  0  0  0  0  0  0  0  0  0
   -0.5953   -3.7964    1.0504 O   0  0  0  0  0  0  0  0  0  0  0  0
   -1.3865   -2.0215   -0.1020 N   0  0  0  0  0  0  0  0  0  0  0  0
   -2.1346   -1.7102   -0.7140 H   0  0  0  0  0  0  0  0  0  0  0  0
   -0.1462   -1.2183   -0.0694 C   0  0  1  0  0  0  0  0  0  0  0  0
    0.6430   -1.7801   -0.5818 H   0  0  0  0  0  0  0  0  0  0  0  0
   -0.3217    0.1381   -0.7965 C   0  0  0  0  0  0  0  0  0  0  0  0
    0.4010    0.8531   -0.3858 H   0  0  0  0  0  0  0  0  0  0  0  0
   -0.0467   -0.0022   -1.8469 H   0  0  0  0  0  0  0  0  0  0  0  0
   -1.7440    0.7427   -0.7656 C   0  0  0  0  0  0  0  0  0  0  0  0
   -2.2359    0.5786   -1.7302 H   0  0  0  0  0  0  0  0  0  0  0  0
   -2.3528    0.2693    0.0099 H   0  0  0  0  0  0  0  0  0  0  0  0
   -1.6878    2.2395   -0.4396 C   0  0  0  0  0  0  0  0  0  0  0  0
   -1.2066    2.3867    0.5332 H   0  0  0  0  0  0  0  0  0  0  0  0
   -1.0869    2.7561   -1.1957 H   0  0  0  0  0  0  0  0  0  0  0  0
   -3.0880    2.8444   -0.4075 C   0  0  0  0  0  0  0  0  0  0  0  0
   -3.5868    2.6909   -1.3709 H   0  0  0  0  0  0  0  0  0  0  0  0
   -3.6888    2.3589    0.3696 H   0  0  0  0  0  0  0  0  0  0  0  0
   -2.9683    4.2782   -0.1316 N   0  0  0  0  0  0  0  0  0  0  0  0
   -3.8834    4.7267   -0.0897 H   0  0  0  0  0  0  0  0  0  0  0  0
   -2.4398    4.4455    0.7251 H   0  0  0  0  0  0  0  0  0  0  0  0
    0.3738   -0.9497    1.3625 C   0  0  0  0  0  0  0  0  0  0  0  0
    1.5775   -0.8578    1.5651 O   0  0  0  0  0  0  0  0  0  0  0  0
   -0.5078   -0.5604    2.3553 N   0  0  0  0  0  0  0  0  0  0  0  0
   -1.4895   -0.7378    2.1735 H   0  0  0  0  0  0  0  0  0  0  0  0
   -0.0862   -0.2809    3.7217 C   0  0  0  0  0  0  0  0  0  0  0  0
    0.6533    0.5268    3.7379 H   0  0  0  0  0  0  0  0  0  0  0  0
   -0.9442    0.0270    4.3266 H   0  0  0  0  0  0  0  0  0  0  0  0
    0.3566   -1.1746    4.1740 H   0  0  0  0  0  0  0  0  0  0  0  0
  1  2  1  0  0  0  0
  2  3  1  0  0  0  0
  2  4  1  0  0  0  0
  2  5  1  0  0  0  0
  5  6  2  0  0  0  0
  5  7  1  0  0  0  0
  7  8  1  0  0  0  0
  7  9  1  0  0  0  0
  9 10  1  0  0  0  0
  9 11  1  0  0  0  0
  9 26  1  0  0  0  0
 11 12  1  0  0  0  0
 11 13  1  0  0  0  0
 11 14  1  0  0  0  0
 14 15  1  0  0  0  0
 14 16  1  0  0  0  0
 14 17  1  0  0  0  0
 17 18  1  0  0  0  0
 17 19  1  0  0  0  0
 17 20  1  0  0  0  0
 20 21  1  0  0  0  0
 20 22  1  0  0  0  0
 20 23  1  0  0  0  0
 23 24  1  0  0  0  0
 23 25  1  0  0  0  0
 26 27  2  0  0  0  0
 26 28  1  0  0  0  0
 28 29  1  0  0  0  0
 28 30  1  0  0  0  0
 30 31  1  0  0  0  0
 30 32  1  0  0  0  0
 30 33  1  0  0  0  0
M  END
$$$$

  -OEChem-03222214063D

 33 32  0     1  0  0  0  0  0999 V2000
   -2.7164   -5.0548    0.6232 H   0  0  0  0  0  0  0  0  0  0  0  0
   -2.7985   -4.0557    0.1849 C   0  0  0  0  0  0  0  0  0  0  0  0
   -3.6369   -3.5339    0.6526 H   0  0  0  0  0  0  0  0  0  0  0  0
   -2.9919   -4.1575   -0.8857 H   0  0  0  0  0  0  0  0  0  0  0  0
   -1.5137   -3.2805    0.4091 C   0  0  0  0  0  0  0  0  0  0  0  0
   -0.6060   -3.7863    1.0433 O   0  0  0  0  0  0  0  0  0  0  0  0
   -1.3897   -2.0021   -0.1000 N   0  0  0  0  0  0  0  0  0  0  0  0
   -2.1408   -1.6799   -0.7022 H   0  0  0  0  0  0  0  0  0  0  0  0
   -0.1436   -1.2084   -0.0681 C   0  0  1  0  0  0  0  0  0  0  0  0
    0.6401   -1.7769   -0.5817 H   0  0  0  0  0  0  0  0  0  0  0  0
   -0.3162    0.1437   -0.8018 C   0  0  0  0  0  0  0  0  0  0  0  0
    0.3954    0.8631   -0.3800 H   0  0  0  0  0  0  0  0  0  0  0  0
   -0.0372    0.0097   -1.8519 H   0  0  0  0  0  0  0  0  0  0  0  0
   -1.7419    0.7305   -0.7611 C   0  0  0  0  0  0  0  0  0  0  0  0
   -2.3299    0.3363   -1.5966 H   0  0  0  0  0  0  0  0  0  0  0  0
   -2.2382    0.4439    0.1715 H   0  0  0  0  0  0  0  0  0  0  0  0
   -1.6981    2.2619   -0.8108 C   0  0  0  0  0  0  0  0  0  0  0  0
   -1.1253    2.6424    0.0416 H   0  0  0  0  0  0  0  0  0  0  0  0
   -1.1929    2.5831   -1.7279 H   0  0  0  0  0  0  0  0  0  0  0  0
   -3.1050    2.8517   -0.7758 C   0  0  0  0  0  0  0  0  0  0  0  0
   -3.6938    2.4699   -1.6171 H   0  0  0  0  0  0  0  0  0  0  0  0
   -3.6100    2.5635    0.1529 H   0  0  0  0  0  0  0  0  0  0  0  0
   -3.0003    4.3107   -0.8624 N   0  0  0  0  0  0  0  0  0  0  0  0
   -3.9192    4.7524   -0.8283 H   0  0  0  0  0  0  0  0  0  0  0  0
   -2.3908    4.6800   -0.1319 H   0  0  0  0  0  0  0  0  0  0  0  0
    0.3832   -0.9453    1.3620 C   0  0  0  0  0  0  0  0  0  0  0  0
    1.5881   -0.8578    1.5587 O   0  0  0  0  0  0  0  0  0  0  0  0
   -0.4915   -0.5509    2.3588 N   0  0  0  0  0  0  0  0  0  0  0  0
   -1.4743   -0.7278    2.1825 H   0  0  0  0  0  0  0  0  0  0  0  0
   -0.0618   -0.2837    3.7253 C   0  0  0  0  0  0  0  0  0  0  0  0
    0.6951    0.5076    3.7428 H   0  0  0  0  0  0  0  0  0  0  0  0
   -0.9119    0.0415    4.3323 H   0  0  0  0  0  0  0  0  0  0  0  0
    0.3627   -1.1877    4.1748 H   0  0  0  0  0  0  0  0  0  0  0  0
  1  2  1  0  0  0  0
  2  3  1  0  0  0  0
  2  4  1  0  0  0  0
  2  5  1  0  0  0  0
  5  6  2  0  0  0  0
  5  7  1  0  0  0  0
  7  8  1  0  0  0  0
  7  9  1  0  0  0  0
  9 10  1  0  0  0  0
  9 11  1  0  0  0  0
  9 26  1  0  0  0  0
 11 12  1  0  0  0  0
 11 13  1  0  0  0  0
 11 14  1  0  0  0  0
 14 15  1  0  0  0  0
 14 16  1  0  0  0  0
 14 17  1  0  0  0  0
 17 18  1  0  0  0  0
 17 19  1  0  0  0  0
 17 20  1  0  0  0  0
 20 21  1  0  0  0  0
 20 22  1  0  0  0  0
 20 23  1  0  0  0  0
 23 24  1  0  0  0  0
 23 25  1  0  0  0  0
 26 27  2  0  0  0  0
 26 28  1  0  0  0  0
 28 29  1  0  0  0  0
 28 30  1  0  0  0  0
 30 31  1  0  0  0  0
 30 32  1  0  0  0  0
 30 33  1  0  0  0  0
M  END
$$$$

  -OEChem-03222214063D

 33 32  0     1  0  0  0  0  0999 V2000
   -2.7220   -5.0444    0.6408 H   0  0  0  0  0  0  0  0  0  0  0  0
   -2.8049   -4.0465    0.2006 C   0  0  0  0  0  0  0  0  0  0  0  0
   -3.6365   -3.5211    0.6760 H   0  0  0  0  0  0  0  0  0  0  0  0
   -3.0092   -4.1506   -0.8677 H   0  0  0  0  0  0  0  0  0  0  0  0
   -1.5148   -3.2759    0.4103 C   0  0  0  0  0  0  0  0  0  0  0  0
   -0.6000   -3.7860    1.0309 O   0  0  0  0  0  0  0  0  0  0  0  0
   -1.3932   -1.9962   -0.0962 N   0  0  0  0  0  0  0  0  0  0  0  0
   -2.1525   -1.6679   -0.6845 H   0  0  0  0  0  0  0  0  0  0  0  0
   -0.1479   -1.2014   -0.0681 C   0  0  1  0  0  0  0  0  0  0  0  0
    0.6339   -1.7703   -0.5844 H   0  0  0  0  0  0  0  0  0  0  0  0
   -0.3215    0.1486   -0.8047 C   0  0  0  0  0  0  0  0  0  0  0  0
    0.3847    0.8756   -0.3871 H   0  0  0  0  0  0  0  0  0  0  0  0
   -0.0464    0.0077   -1.8552 H   0  0  0  0  0  0  0  0  0  0  0  0
   -1.7474    0.7270   -0.7606 C   0  0  0  0  0  0  0  0  0  0  0  0
   -2.4033    0.1572   -1.4268 H   0  0  0  0  0  0  0  0  0  0  0  0
   -2.1432    0.6531    0.2576 H   0  0  0  0  0  0  0  0  0  0  0  0
   -1.7400    2.2012   -1.1789 C   0  0  0  0  0  0  0  0  0  0  0  0
   -1.0883    2.7714   -0.5089 H   0  0  0  0  0  0  0  0  0  0  0  0
   -1.3416    2.2916   -2.1951 H   0  0  0  0  0  0  0  0  0  0  0  0
   -3.1472    2.7896   -1.1334 C   0  0  0  0  0  0  0  0  0  0  0  0
   -3.8148    2.2207   -1.7899 H   0  0  0  0  0  0  0  0  0  0  0  0
   -3.5439    2.7359   -0.1136 H   0  0  0  0  0  0  0  0  0  0  0  0
   -3.0829    4.1846   -1.5772 N   0  0  0  0  0  0  0  0  0  0  0  0
   -4.0024    4.6257   -1.5520 H   0  0  0  0  0  0  0  0  0  0  0  0
   -2.4093    4.7156   -1.0243 H   0  0  0  0  0  0  0  0  0  0  0  0
    0.3858   -0.9403    1.3599 C   0  0  0  0  0  0  0  0  0  0  0  0
    1.5915   -0.8494    1.5504 O   0  0  0  0  0  0  0  0  0  0  0  0
   -0.4847   -0.5489    2.3615 N   0  0  0  0  0  0  0  0  0  0  0  0
   -1.4679   -0.7291    2.1900 H   0  0  0  0  0  0  0  0  0  0  0  0
   -0.0491   -0.2858    3.7269 C   0  0  0  0  0  0  0  0  0  0  0  0
    0.7141    0.4995    3.7428 H   0  0  0  0  0  0  0  0  0  0  0  0
   -0.8953    0.0456    4.3363 H   0  0  0  0  0  0  0  0  0  0  0  0
    0.3693   -1.1932    4.1749 H   0  0  0  0  0  0  0  0  0  0  0  0
  1  2  1  0  0  0  0
  2  3  1  0  0  0  0
  2  4  1  0  0  0  0
  2  5  1  0  0  0  0
  5  6  2  0  0  0  0
  5  7  1  0  0  0  0
  7  8  1  0  0  0  0
  7  9  1  0  0  0  0
  9 10  1  0  0  0  0
  9 11  1  0  0  0  0
  9 26  1  0  0  0  0
 11 12  1  0  0  0  0
 11 13  1  0  0  0  0
 11 14  1  0  0  0  0
 14 15  1  0  0  0  0
 14 16  1  0  0  0  0
 14 17  1  0  0  0  0
 17 18  1  0  0  0  0
 17 19  1  0  0  0  0
 17 20  1  0  0  0  0
 20 21  1  0  0  0  0
 20 22  1  0  0  0  0
 20 23  1  0  0  0  0
 23 24  1  0  0  0  0
 23 25  1  0  0  0  0
 26 27  2  0  0  0  0
 26 28  1  0  0  0  0
 28 29  1  0  0  0  0
 28 30  1  0  0  0  0
 30 31  1  0  0  0  0
 30 32  1  0  0  0  0
 30 33  1  0  0  0  0
M  END
$$$$

  -OEChem-03222214063D

 33 32  0     1  0  0  0  0  0999 V2000
   -2.7516   -5.0202    0.5877 H   0  0  0  0  0  0  0  0  0  0  0  0
   -2.8256   -4.0157    0.1611 C   0  0  0  0  0  0  0  0  0  0  0  0
   -3.6609   -3.4936    0.6337 H   0  0  0  0  0  0  0  0  0  0  0  0
   -3.0178   -4.1033   -0.9108 H   0  0  0  0  0  0  0  0  0  0  0  0
   -1.5358   -3.2531    0.3975 C   0  0  0  0  0  0  0  0  0  0  0  0
   -0.6300   -3.7745    1.0219 O   0  0  0  0  0  0  0  0  0  0  0  0
   -1.4063   -1.9657   -0.0857 N   0  0  0  0  0  0  0  0  0  0  0  0
   -2.1561   -1.6291   -0.6817 H   0  0  0  0  0  0  0  0  0  0  0  0
   -0.1558   -1.1830   -0.0438 C   0  0  1  0  0  0  0  0  0  0  0  0
    0.6170   -1.7558   -0.5692 H   0  0  0  0  0  0  0  0  0  0  0  0
   -0.3228    0.1623   -0.7826 C   0  0  0  0  0  0  0  0  0  0  0  0
    0.5389    0.8017   -0.5594 H   0  0  0  0  0  0  0  0  0  0  0  0
   -0.3042   -0.0388   -1.8586 H   0  0  0  0  0  0  0  0  0  0  0  0
   -1.6237    0.9191   -0.4568 C   0  0  0  0  0  0  0  0  0  0  0  0
   -2.4956    0.3121   -0.7181 H   0  0  0  0  0  0  0  0  0  0  0  0
   -1.6673    1.1342    0.6154 H   0  0  0  0  0  0  0  0  0  0  0  0
   -1.6829    2.2335   -1.2419 C   0  0  0  0  0  0  0  0  0  0  0  0
   -0.8077    2.8456   -1.0009 H   0  0  0  0  0  0  0  0  0  0  0  0
   -1.6610    2.0218   -2.3160 H   0  0  0  0  0  0  0  0  0  0  0  0
   -2.9523    3.0110   -0.9055 C   0  0  0  0  0  0  0  0  0  0  0  0
   -3.8362    2.4008   -1.1222 H   0  0  0  0  0  0  0  0  0  0  0  0
   -2.9662    3.2641    0.1606 H   0  0  0  0  0  0  0  0  0  0  0  0
   -2.9804    4.2317   -1.7158 N   0  0  0  0  0  0  0  0  0  0  0  0
   -3.8102    4.7906   -1.5160 H   0  0  0  0  0  0  0  0  0  0  0  0
   -2.1312    4.7812   -1.5809 H   0  0  0  0  0  0  0  0  0  0  0  0
    0.3947   -0.9443    1.3818 C   0  0  0  0  0  0  0  0  0  0  0  0
    1.6034   -0.8595    1.5560 O   0  0  0  0  0  0  0  0  0  0  0  0
   -0.4570   -0.5596    2.4021 N   0  0  0  0  0  0  0  0  0  0  0  0
   -1.4427   -0.7416    2.2472 H   0  0  0  0  0  0  0  0  0  0  0  0
    0.0038   -0.3226    3.7642 C   0  0  0  0  0  0  0  0  0  0  0  0
    0.7671    0.4624    3.7811 H   0  0  0  0  0  0  0  0  0  0  0  0
   -0.8304   -0.0036    4.3959 H   0  0  0  0  0  0  0  0  0  0  0  0
    0.4308   -1.2383    4.1866 H   0  0  0  0  0  0  0  0  0  0  0  0
  1  2  1  0  0  0  0
  2  3  1  0  0  0  0
  2  4  1  0  0  0  0
  2  5  1  0  0  0  0
  5  6  2  0  0  0  0
  5  7  1  0  0  0  0
  7  8  1  0  0  0  0
  7  9  1  0  0  0  0
  9 10  1  0  0  0  0
  9 11  1  0  0  0  0
  9 26  1  0  0  0  0
 11 12  1  0  0  0  0
 11 13  1  0  0  0  0
 11 14  1  0  0  0  0
 14 15  1  0  0  0  0
 14 16  1  0  0  0  0
 14 17  1  0  0  0  0
 17 18  1  0  0  0  0
 17 19  1  0  0  0  0
 17 20  1  0  0  0  0
 20 21  1  0  0  0  0
 20 22  1  0  0  0  0
 20 23  1  0  0  0  0
 23 24  1  0  0  0  0
 23 25  1  0  0  0  0
 26 27  2  0  0  0  0
 26 28  1  0  0  0  0
 28 29  1  0  0  0  0
 28 30  1  0  0  0  0
 30 31  1  0  0  0  0
 30 32  1  0  0  0  0
 30 33  1  0  0  0  0
M  END
$$$$

  -OEChem-03222214063D

 33 32  0     1  0  0  0  0  0999 V2000
   -2.7303   -5.0449    0.6086 H   0  0  0  0  0  0  0  0  0  0  0  0
   -2.8113   -4.0438    0.1756 C   0  0  0  0  0  0  0  0  0  0  0  0
   -3.6541   -3.5267    0.6406 H   0  0  0  0  0  0  0  0  0  0  0  0
   -2.9963   -4.1395   -0.8972 H   0  0  0  0  0  0  0  0  0  0  0  0
   -1.5298   -3.2677    0.4140 C   0  0  0  0  0  0  0  0  0  0  0  0
   -0.6211   -3.7775    1.0437 O   0  0  0  0  0  0  0  0  0  0  0  0
   -1.4100   -1.9830   -0.0785 N   0  0  0  0  0  0  0  0  0  0  0  0
   -2.1592   -1.6608   -0.6837 H   0  0  0  0  0  0  0  0  0  0  0  0
   -0.1638   -1.1930   -0.0494 C   0  0  1  0  0  0  0  0  0  0  0  0
    0.6089   -1.7624   -0.5786 H   0  0  0  0  0  0  0  0  0  0  0  0
   -0.3396    0.1555   -0.7816 C   0  0  0  0  0  0  0  0  0  0  0  0
    0.5251    0.7982   -0.5815 H   0  0  0  0  0  0  0  0  0  0  0  0
   -0.3363   -0.0597   -1.8552 H   0  0  0  0  0  0  0  0  0  0  0  0
   -1.6356    0.9219   -0.4489 C   0  0  0  0  0  0  0  0  0  0  0  0
   -2.5018    0.2550   -0.4576 H   0  0  0  0  0  0  0  0  0  0  0  0
   -1.5542    1.3545    0.5536 H   0  0  0  0  0  0  0  0  0  0  0  0
   -1.8778    2.0282   -1.4813 C   0  0  0  0  0  0  0  0  0  0  0  0
   -1.0115    2.6972   -1.5115 H   0  0  0  0  0  0  0  0  0  0  0  0
   -1.9972    1.5845   -2.4752 H   0  0  0  0  0  0  0  0  0  0  0  0
   -3.1271    2.8337   -1.1362 C   0  0  0  0  0  0  0  0  0  0  0  0
   -3.9986    2.1722   -1.0789 H   0  0  0  0  0  0  0  0  0  0  0  0
   -3.0033    3.3200   -0.1620 H   0  0  0  0  0  0  0  0  0  0  0  0
   -3.3350    3.8392   -2.1817 N   0  0  0  0  0  0  0  0  0  0  0  0
   -4.1576    4.4107   -1.9880 H   0  0  0  0  0  0  0  0  0  0  0  0
   -2.5066    4.4234   -2.2984 H   0  0  0  0  0  0  0  0  0  0  0  0
    0.3919   -0.9428    1.3717 C   0  0  0  0  0  0  0  0  0  0  0  0
    1.6009   -0.8525    1.5407 O   0  0  0  0  0  0  0  0  0  0  0  0
   -0.4584   -0.5565    2.3927 N   0  0  0  0  0  0  0  0  0  0  0  0
   -1.4439   -0.7440    2.2421 H   0  0  0  0  0  0  0  0  0  0  0  0
    0.0063   -0.3074    3.7513 C   0  0  0  0  0  0  0  0  0  0  0  0
    0.7671    0.4803    3.7589 H   0  0  0  0  0  0  0  0  0  0  0  0
   -0.8267    0.0138    4.3835 H   0  0  0  0  0  0  0  0  0  0  0  0
    0.4377   -1.2183    4.1794 H   0  0  0  0  0  0  0  0  0  0  0  0
  1  2  1  0  0  0  0
  2  3  1  0  0  0  0
  2  4  1  0  0  0  0
  2  5  1  0  0  0  0
  5  6  2  0  0  0  0
  5  7  1  0  0  0  0
  7  8  1  0  0  0  0
  7  9  1  0  0  0  0
  9 10  1  0  0  0  0
  9 11  1  0  0  0  0
  9 26  1  0  0  0  0
 11 12  1  0  0  0  0
 11 13  1  0  0  0  0
 11 14  1  0  0  0  0
 14 15  1  0  0  0  0
 14 16  1  0  0  0  0
 14 17  1  0  0  0  0
 17 18  1  0  0  0  0
 17 19  1  0  0  0  0
 17 20  1  0  0  0  0
 20 21  1  0  0  0  0
 20 22  1  0  0  0  0
 20 23  1  0  0  0  0
 23 24  1  0  0  0  0
 23 25  1  0  0  0  0
 26 27  2  0  0  0  0
 26 28  1  0  0  0  0
 28 29  1  0  0  0  0
 28 30  1  0  0  0  0
 30 31  1  0  0  0  0
 30 32  1  0  0  0  0
 30 33  1  0  0  0  0
M  END
$$$$

  -OEChem-03222214063D

 33 32  0     1  0  0  0  0  0999 V2000
   -2.7275   -5.0551    0.6383 H   0  0  0  0  0  0  0  0  0  0  0  0
   -2.8084   -4.0600    0.1916 C   0  0  0  0  0  0  0  0  0  0  0  0
   -3.6542   -3.5387    0.6462 H   0  0  0  0  0  0  0  0  0  0  0  0
   -2.9889   -4.1703   -0.8804 H   0  0  0  0  0  0  0  0  0  0  0  0
   -1.5288   -3.2788    0.4252 C   0  0  0  0  0  0  0  0  0  0  0  0
   -0.6193   -3.7835    1.0580 O   0  0  0  0  0  0  0  0  0  0  0  0
   -1.4090   -1.9976   -0.0773 N   0  0  0  0  0  0  0  0  0  0  0  0
   -2.1576   -1.6803   -0.6861 H   0  0  0  0  0  0  0  0  0  0  0  0
   -0.1616   -1.2077   -0.0564 C   0  0  1  0  0  0  0  0  0  0  0  0
    0.6100   -1.7779   -0.5859 H   0  0  0  0  0  0  0  0  0  0  0  0
   -0.3371    0.1438   -0.7845 C   0  0  0  0  0  0  0  0  0  0  0  0
    0.5326    0.7836   -0.5976 H   0  0  0  0  0  0  0  0  0  0  0  0
   -0.3398   -0.0793   -1.8566 H   0  0  0  0  0  0  0  0  0  0  0  0
   -1.6272    0.9236   -0.4475 C   0  0  0  0  0  0  0  0  0  0  0  0
   -2.4475    0.2520   -0.1840 H   0  0  0  0  0  0  0  0  0  0  0  0
   -1.4380    1.5651    0.4198 H   0  0  0  0  0  0  0  0  0  0  0  0
   -2.0772    1.7706   -1.6428 C   0  0  0  0  0  0  0  0  0  0  0  0
   -1.2656    2.4410   -1.9443 H   0  0  0  0  0  0  0  0  0  0  0  0
   -2.3091    1.1172   -2.4907 H   0  0  0  0  0  0  0  0  0  0  0  0
   -3.3115    2.5963   -1.2917 C   0  0  0  0  0  0  0  0  0  0  0  0
   -4.1202    1.9406   -0.9506 H   0  0  0  0  0  0  0  0  0  0  0  0
   -3.0773    3.2973   -0.4827 H   0  0  0  0  0  0  0  0  0  0  0  0
   -3.7356    3.3253   -2.4897 N   0  0  0  0  0  0  0  0  0  0  0  0
   -4.5605    3.8960   -2.3035 H   0  0  0  0  0  0  0  0  0  0  0  0
   -2.9751    3.8965   -2.8591 H   0  0  0  0  0  0  0  0  0  0  0  0
    0.3929   -0.9497    1.3635 C   0  0  0  0  0  0  0  0  0  0  0  0
    1.6019   -0.8612    1.5342 O   0  0  0  0  0  0  0  0  0  0  0  0
   -0.4596   -0.5564    2.3801 N   0  0  0  0  0  0  0  0  0  0  0  0
   -1.4461   -0.7353    2.2258 H   0  0  0  0  0  0  0  0  0  0  0  0
    0.0014   -0.2928    3.7371 C   0  0  0  0  0  0  0  0  0  0  0  0
    0.7528    0.5040    3.7390 H   0  0  0  0  0  0  0  0  0  0  0  0
   -0.8358    0.0225    4.3669 H   0  0  0  0  0  0  0  0  0  0  0  0
    0.4441   -1.1952    4.1716 H   0  0  0  0  0  0  0  0  0  0  0  0
  1  2  1  0  0  0  0
  2  3  1  0  0  0  0
  2  4  1  0  0  0  0
  2  5  1  0  0  0  0
  5  6  2  0  0  0  0
  5  7  1  0  0  0  0
  7  8  1  0  0  0  0
  7  9  1  0  0  0  0
  9 10  1  0  0  0  0
  9 11  1  0  0  0  0
  9 26  1  0  0  0  0
 11 12  1  0  0  0  0
 11 13  1  0  0  0  0
 11 14  1  0  0  0  0
 14 15  1  0  0  0  0
 14 16  1  0  0  0  0
 14 17  1  0  0  0  0
 17 18  1  0  0  0  0
 17 19  1  0  0  0  0
 17 20  1  0  0  0  0
 20 21  1  0  0  0  0
 20 22  1  0  0  0  0
 20 23  1  0  0  0  0
 23 24  1  0  0  0  0
 23 25  1  0  0  0  0
 26 27  2  0  0  0  0
 26 28  1  0  0  0  0
 28 29  1  0  0  0  0
 28 30  1  0  0  0  0
 30 31  1  0  0  0  0
 30 32  1  0  0  0  0
 30 33  1  0  0  0  0
M  END
$$$$

  -OEChem-03222214063D

 33 32  0     1  0  0  0  0  0999 V2000
   -2.7715   -5.0245    0.6244 H   0  0  0  0  0  0  0  0  0  0  0  0
   -2.8365   -4.0240    0.1869 C   0  0  0  0  0  0  0  0  0  0  0  0
   -3.6697   -3.4903    0.6501 H   0  0  0  0  0  0  0  0  0  0  0  0
   -3.0246   -4.1209   -0.8851 H   0  0  0  0  0  0  0  0  0  0  0  0
   -1.5421   -3.2682    0.4201 C   0  0  0  0  0  0  0  0  0  0  0  0
   -0.6406   -3.7896    1.0510 O   0  0  0  0  0  0  0  0  0  0  0  0
   -1.4020   -1.9883   -0.0788 N   0  0  0  0  0  0  0  0  0  0  0  0
   -2.1509   -1.6519   -0.6775 H   0  0  0  0  0  0  0  0  0  0  0  0
   -0.1464   -1.2122   -0.0503 C   0  0  1  0  0  0  0  0  0  0  0  0
    0.6219   -1.7882   -0.5786 H   0  0  0  0  0  0  0  0  0  0  0  0
   -0.3170    0.1376   -0.7814 C   0  0  0  0  0  0  0  0  0  0  0  0
    0.5534    0.7748   -0.5879 H   0  0  0  0  0  0  0  0  0  0  0  0
   -0.3079   -0.0842   -1.8537 H   0  0  0  0  0  0  0  0  0  0  0  0
   -1.6079    0.9218   -0.4463 C   0  0  0  0  0  0  0  0  0  0  0  0
   -2.3342    0.3028    0.0864 H   0  0  0  0  0  0  0  0  0  0  0  0
   -1.3498    1.7510    0.2210 H   0  0  0  0  0  0  0  0  0  0  0  0
   -2.2679    1.4666   -1.7181 C   0  0  0  0  0  0  0  0  0  0  0  0
   -1.5575    2.1006   -2.2588 H   0  0  0  0  0  0  0  0  0  0  0  0
   -2.5443    0.6334   -2.3730 H   0  0  0  0  0  0  0  0  0  0  0  0
   -3.5169    2.2766   -1.3823 C   0  0  0  0  0  0  0  0  0  0  0  0
   -4.2179    1.6671   -0.8011 H   0  0  0  0  0  0  0  0  0  0  0  0
   -3.2471    3.1519   -0.7809 H   0  0  0  0  0  0  0  0  0  0  0  0
   -4.1467    2.6965   -2.6370 N   0  0  0  0  0  0  0  0  0  0  0  0
   -4.9903    3.2436   -2.4629 H   0  0  0  0  0  0  0  0  0  0  0  0
   -3.4907    3.2178   -3.2195 H   0  0  0  0  0  0  0  0  0  0  0  0
    0.4083   -0.9586    1.3703 C   0  0  0  0  0  0  0  0  0  0  0  0
    1.6177   -0.8788    1.5417 O   0  0  0  0  0  0  0  0  0  0  0  0
   -0.4413   -0.5553    2.3851 N   0  0  0  0  0  0  0  0  0  0  0  0
   -1.4280   -0.7346    2.2332 H   0  0  0  0  0  0  0  0  0  0  0  0
    0.0216   -0.2919    3.7417 C   0  0  0  0  0  0  0  0  0  0  0  0
    0.7918    0.4865    3.7409 H   0  0  0  0  0  0  0  0  0  0  0  0
   -0.8098    0.0493    4.3656 H   0  0  0  0  0  0  0  0  0  0  0  0
    0.4407   -1.2013    4.1851 H   0  0  0  0  0  0  0  0  0  0  0  0
  1  2  1  0  0  0  0
  2  3  1  0  0  0  0
  2  4  1  0  0  0  0
  2  5  1  0  0  0  0
  5  6  2  0  0  0  0
  5  7  1  0  0  0  0
  7  8  1  0  0  0  0
  7  9  1  0  0  0  0
  9 10  1  0  0  0  0
  9 11  1  0  0  0  0
  9 26  1  0  0  0  0
 11 12  1  0  0  0  0
 11 13  1  0  0  0  0
 11 14  1  0  0  0  0
 14 15  1  0  0  0  0
 14 16  1  0  0  0  0
 14 17  1  0  0  0  0
 17 18  1  0  0  0  0
 17 19  1  0  0  0  0
 17 20  1  0  0  0  0
 20 21  1  0  0  0  0
 20 22  1  0  0  0  0
 20 23  1  0  0  0  0
 23 24  1  0  0  0  0
 23 25  1  0  0  0  0
 26 27  2  0  0  0  0
 26 28  1  0  0  0  0
 28 29  1  0  0  0  0
 28 30  1  0  0  0  0
 30 31  1  0  0  0  0
 30 32  1  0  0  0  0
 30 33  1  0  0  0  0
M  END
$$$$

  -OEChem-03222214063D

 33 32  0     1  0  0  0  0  0999 V2000
   -2.8366   -4.9685    0.6079 H   0  0  0  0  0  0  0  0  0  0  0  0
   -2.8784   -3.9655    0.1742 C   0  0  0  0  0  0  0  0  0  0  0  0
   -3.7006   -3.4157    0.6384 H   0  0  0  0  0  0  0  0  0  0  0  0
   -3.0668   -4.0549   -0.8983 H   0  0  0  0  0  0  0  0  0  0  0  0
   -1.5680   -3.2389    0.4112 C   0  0  0  0  0  0  0  0  0  0  0  0
   -0.6794   -3.7795    1.0441 O   0  0  0  0  0  0  0  0  0  0  0  0
   -1.3993   -1.9609   -0.0828 N   0  0  0  0  0  0  0  0  0  0  0  0
   -2.1442   -1.5998   -0.6725 H   0  0  0  0  0  0  0  0  0  0  0  0
   -0.1306   -1.2074   -0.0436 C   0  0  1  0  0  0  0  0  0  0  0  0
    0.6316   -1.7962   -0.5666 H   0  0  0  0  0  0  0  0  0  0  0  0
   -0.2856    0.1366   -0.7864 C   0  0  0  0  0  0  0  0  0  0  0  0
    0.5812    0.7695   -0.5653 H   0  0  0  0  0  0  0  0  0  0  0  0
   -0.2522   -0.0704   -1.8612 H   0  0  0  0  0  0  0  0  0  0  0  0
   -1.5773    0.9185   -0.4548 C   0  0  0  0  0  0  0  0  0  0  0  0
   -2.1694    0.4113    0.3122 H   0  0  0  0  0  0  0  0  0  0  0  0
   -1.2957    1.8928   -0.0412 H   0  0  0  0  0  0  0  0  0  0  0  0
   -2.4327    1.1384   -1.7076 C   0  0  0  0  0  0  0  0  0  0  0  0
   -1.8563    1.6901   -2.4574 H   0  0  0  0  0  0  0  0  0  0  0  0
   -2.7062    0.1691   -2.1372 H   0  0  0  0  0  0  0  0  0  0  0  0
   -3.7026    1.9141   -1.3725 C   0  0  0  0  0  0  0  0  0  0  0  0
   -4.2621    1.4001   -0.5829 H   0  0  0  0  0  0  0  0  0  0  0  0
   -3.4469    2.9167   -1.0116 H   0  0  0  0  0  0  0  0  0  0  0  0
   -4.5220    2.0002   -2.5842 N   0  0  0  0  0  0  0  0  0  0  0  0
   -5.3880    2.5110   -2.4096 H   0  0  0  0  0  0  0  0  0  0  0  0
   -3.9995    2.4255   -3.3506 H   0  0  0  0  0  0  0  0  0  0  0  0
    0.4216   -0.9650    1.3800 C   0  0  0  0  0  0  0  0  0  0  0  0
    1.6315   -0.9024    1.5557 O   0  0  0  0  0  0  0  0  0  0  0  0
   -0.4247   -0.5481    2.3920 N   0  0  0  0  0  0  0  0  0  0  0  0
   -1.4132   -0.7153    2.2381 H   0  0  0  0  0  0  0  0  0  0  0  0
    0.0380   -0.2963    3.7507 C   0  0  0  0  0  0  0  0  0  0  0  0
    0.8130    0.4776    3.7547 H   0  0  0  0  0  0  0  0  0  0  0  0
   -0.7925    0.0453    4.3760 H   0  0  0  0  0  0  0  0  0  0  0  0
    0.4512   -1.2112    4.1886 H   0  0  0  0  0  0  0  0  0  0  0  0
  1  2  1  0  0  0  0
  2  3  1  0  0  0  0
  2  4  1  0  0  0  0
  2  5  1  0  0  0  0
  5  6  2  0  0  0  0
  5  7  1  0  0  0  0
  7  8  1  0  0  0  0
  7  9  1  0  0  0  0
  9 10  1  0  0  0  0
  9 11  1  0  0  0  0
  9 26  1  0  0  0  0
 11 12  1  0  0  0  0
 11 13  1  0  0  0  0
 11 14  1  0  0  0  0
 14 15  1  0  0  0  0
 14 16  1  0  0  0  0
 14 17  1  0  0  0  0
 17 18  1  0  0  0  0
 17 19  1  0  0  0  0
 17 20  1  0  0  0  0
 20 21  1  0  0  0  0
 20 22  1  0  0  0  0
 20 23  1  0  0  0  0
 23 24  1  0  0  0  0
 23 25  1  0  0  0  0
 26 27  2  0  0  0  0
 26 28  1  0  0  0  0
 28 29  1  0  0  0  0
 28 30  1  0  0  0  0
 30 31  1  0  0  0  0
 30 32  1  0  0  0  0
 30 33  1  0  0  0  0
M  END
$$$$

  -OEChem-03222214063D

 33 32  0     1  0  0  0  0  0999 V2000
   -2.8851   -4.9287    0.6005 H   0  0  0  0  0  0  0  0  0  0  0  0
   -2.9140   -3.9217    0.1747 C   0  0  0  0  0  0  0  0  0  0  0  0
   -3.7210   -3.3610    0.6521 H   0  0  0  0  0  0  0  0  0  0  0  0
   -3.1165   -3.9994   -0.8964 H   0  0  0  0  0  0  0  0  0  0  0  0
   -1.5885   -3.2199    0.4029 C   0  0  0  0  0  0  0  0  0  0  0  0
   -0.7016   -3.7806    1.0209 O   0  0  0  0  0  0  0  0  0  0  0  0
   -1.4045   -1.9401   -0.0802 N   0  0  0  0  0  0  0  0  0  0  0  0
   -2.1531   -1.5570   -0.6508 H   0  0  0  0  0  0  0  0  0  0  0  0
   -0.1298   -1.1986   -0.0313 C   0  0  1  0  0  0  0  0  0  0  0  0
    0.6268   -1.7969   -0.5509 H   0  0  0  0  0  0  0  0  0  0  0  0
   -0.2665    0.1405   -0.7877 C   0  0  0  0  0  0  0  0  0  0  0  0
    0.5971    0.7680   -0.5396 H   0  0  0  0  0  0  0  0  0  0  0  0
   -0.2095   -0.0566   -1.8633 H   0  0  0  0  0  0  0  0  0  0  0  0
   -1.5578    0.9261   -0.4737 C   0  0  0  0  0  0  0  0  0  0  0  0
   -2.0103    0.5806    0.4608 H   0  0  0  0  0  0  0  0  0  0  0  0
   -1.2978    1.9805   -0.3325 H   0  0  0  0  0  0  0  0  0  0  0  0
   -2.5675    0.8255   -1.6249 C   0  0  0  0  0  0  0  0  0  0  0  0
   -2.1352    1.2554   -2.5345 H   0  0  0  0  0  0  0  0  0  0  0  0
   -2.7953   -0.2257   -1.8263 H   0  0  0  0  0  0  0  0  0  0  0  0
   -3.8601    1.5591   -1.2827 C   0  0  0  0  0  0  0  0  0  0  0  0
   -4.2686    1.1843   -0.3376 H   0  0  0  0  0  0  0  0  0  0  0  0
   -3.6670    2.6317   -1.1688 H   0  0  0  0  0  0  0  0  0  0  0  0
   -4.8194    1.3232   -2.3645 N   0  0  0  0  0  0  0  0  0  0  0  0
   -5.7085    1.7881   -2.1776 H   0  0  0  0  0  0  0  0  0  0  0  0
   -4.4384    1.6210   -3.2632 H   0  0  0  0  0  0  0  0  0  0  0  0
    0.4268   -0.9676    1.3930 C   0  0  0  0  0  0  0  0  0  0  0  0
    1.6378   -0.9194    1.5652 O   0  0  0  0  0  0  0  0  0  0  0  0
   -0.4095   -0.5483    2.4124 N   0  0  0  0  0  0  0  0  0  0  0  0
   -1.4013   -0.6987    2.2617 H   0  0  0  0  0  0  0  0  0  0  0  0
    0.0638   -0.3078    3.7700 C   0  0  0  0  0  0  0  0  0  0  0  0
    0.8468    0.4581    3.7746 H   0  0  0  0  0  0  0  0  0  0  0  0
   -0.7593    0.0390    4.4017 H   0  0  0  0  0  0  0  0  0  0  0  0
    0.4699   -1.2286    4.2017 H   0  0  0  0  0  0  0  0  0  0  0  0
  1  2  1  0  0  0  0
  2  3  1  0  0  0  0
  2  4  1  0  0  0  0
  2  5  1  0  0  0  0
  5  6  2  0  0  0  0
  5  7  1  0  0  0  0
  7  8  1  0  0  0  0
  7  9  1  0  0  0  0
  9 10  1  0  0  0  0
  9 11  1  0  0  0  0
  9 26  1  0  0  0  0
 11 12  1  0  0  0  0
 11 13  1  0  0  0  0
 11 14  1  0  0  0  0
 14 15  1  0  0  0  0
 14 16  1  0  0  0  0
 14 17  1  0  0  0  0
 17 18  1  0  0  0  0
 17 19  1  0  0  0  0
 17 20  1  0  0  0  0
 20 21  1  0  0  0  0
 20 22  1  0  0  0  0
 20 23  1  0  0  0  0
 23 24  1  0  0  0  0
 23 25  1  0  0  0  0
 26 27  2  0  0  0  0
 26 28  1  0  0  0  0
 28 29  1  0  0  0  0
 28 30  1  0  0  0  0
 30 31  1  0  0  0  0
 30 32  1  0  0  0  0
 30 33  1  0  0  0  0
M  END
$$$$

  -OEChem-03222214063D

 33 32  0     1  0  0  0  0  0999 V2000
   -2.7447   -5.0455    0.7011 H   0  0  0  0  0  0  0  0  0  0  0  0
   -2.8097   -4.0540    0.2441 C   0  0  0  0  0  0  0  0  0  0  0  0
   -3.6332   -3.5062    0.7085 H   0  0  0  0  0  0  0  0  0  0  0  0
   -3.0151   -4.1714   -0.8227 H   0  0  0  0  0  0  0  0  0  0  0  0
   -1.5074   -3.3014    0.4414 C   0  0  0  0  0  0  0  0  0  0  0  0
   -0.5884   -3.8249    1.0450 O   0  0  0  0  0  0  0  0  0  0  0  0
   -1.3799   -2.0207   -0.0578 N   0  0  0  0  0  0  0  0  0  0  0  0
   -2.1526   -1.6736   -0.6167 H   0  0  0  0  0  0  0  0  0  0  0  0
   -0.1362   -1.2309   -0.0330 C   0  0  1  0  0  0  0  0  0  0  0  0
    0.6362   -1.8139   -0.5472 H   0  0  0  0  0  0  0  0  0  0  0  0
   -0.2869    0.1079   -0.7946 C   0  0  0  0  0  0  0  0  0  0  0  0
    0.5733    0.7389   -0.5443 H   0  0  0  0  0  0  0  0  0  0  0  0
   -0.2248   -0.0927   -1.8689 H   0  0  0  0  0  0  0  0  0  0  0  0
   -1.5757    0.9087   -0.5126 C   0  0  0  0  0  0  0  0  0  0  0  0
   -1.8834    0.7679    0.5278 H   0  0  0  0  0  0  0  0  0  0  0  0
   -1.3477    1.9722   -0.6406 H   0  0  0  0  0  0  0  0  0  0  0  0
   -2.7368    0.5543   -1.4568 C   0  0  0  0  0  0  0  0  0  0  0  0
   -2.4353    0.7401   -2.4927 H   0  0  0  0  0  0  0  0  0  0  0  0
   -3.0041   -0.5000   -1.3734 H   0  0  0  0  0  0  0  0  0  0  0  0
   -3.9679    1.3932   -1.1287 C   0  0  0  0  0  0  0  0  0  0  0  0
   -4.2472    1.2559   -0.0780 H   0  0  0  0  0  0  0  0  0  0  0  0
   -3.7555    2.4562   -1.2884 H   0  0  0  0  0  0  0  0  0  0  0  0
   -5.0660    0.9555   -1.9947 N   0  0  0  0  0  0  0  0  0  0  0  0
   -5.9267    1.4613   -1.7822 H   0  0  0  0  0  0  0  0  0  0  0  0
   -4.8199    1.0608   -2.9795 H   0  0  0  0  0  0  0  0  0  0  0  0
    0.4133   -0.9725    1.3896 C   0  0  0  0  0  0  0  0  0  0  0  0
    1.6211   -0.8712    1.5619 O   0  0  0  0  0  0  0  0  0  0  0  0
   -0.4412   -0.5811    2.4048 N   0  0  0  0  0  0  0  0  0  0  0  0
   -1.4268   -0.7659    2.2512 H   0  0  0  0  0  0  0  0  0  0  0  0
    0.0168   -0.2984    3.7589 C   0  0  0  0  0  0  0  0  0  0  0  0
    0.7336    0.5295    3.7566 H   0  0  0  0  0  0  0  0  0  0  0  0
   -0.8296   -0.0189    4.3935 H   0  0  0  0  0  0  0  0  0  0  0  0
    0.4996   -1.1814    4.1909 H   0  0  0  0  0  0  0  0  0  0  0  0
  1  2  1  0  0  0  0
  2  3  1  0  0  0  0
  2  4  1  0  0  0  0
  2  5  1  0  0  0  0
  5  6  2  0  0  0  0
  5  7  1  0  0  0  0
  7  8  1  0  0  0  0
  7  9  1  0  0  0  0
  9 10  1  0  0  0  0
  9 11  1  0  0  0  0
  9 26  1  0  0  0  0
 11 12  1  0  0  0  0
 11 13  1  0  0  0  0
 11 14  1  0  0  0  0
 14 15  1  0  0  0  0
 14 16  1  0  0  0  0
 14 17  1  0  0  0  0
 17 18  1  0  0  0  0
 17 19  1  0  0  0  0
 17 20  1  0  0  0  0
 20 21  1  0  0  0  0
 20 22  1  0  0  0  0
 20 23  1  0  0  0  0
 23 24  1  0  0  0  0
 23 25  1  0  0  0  0
 26 27  2  0  0  0  0
 26 28  1  0  0  0  0
 28 29  1  0  0  0  0
 28 30  1  0  0  0  0
 30 31  1  0  0  0  0
 30 32  1  0  0  0  0
 30 33  1  0  0  0  0
M  END
$$$$

  -OEChem-03222214063D

 33 32  0     1  0  0  0  0  0999 V2000
   -2.5517   -5.1721    0.7439 H   0  0  0  0  0  0  0  0  0  0  0  0
   -2.6591   -4.1949    0.2647 C   0  0  0  0  0  0  0  0  0  0  0  0
   -3.5081   -3.6741    0.7140 H   0  0  0  0  0  0  0  0  0  0  0  0
   -2.8540   -4.3448   -0.7998 H   0  0  0  0  0  0  0  0  0  0  0  0
   -1.3928   -3.3803    0.4503 C   0  0  0  0  0  0  0  0  0  0  0  0
   -0.4356   -3.8677    1.0241 O   0  0  0  0  0  0  0  0  0  0  0  0
   -1.3407   -2.0870   -0.0302 N   0  0  0  0  0  0  0  0  0  0  0  0
   -2.1339   -1.7795   -0.5845 H   0  0  0  0  0  0  0  0  0  0  0  0
   -0.1382   -1.2383   -0.0288 C   0  0  1  0  0  0  0  0  0  0  0  0
    0.6461   -1.7719   -0.5775 H   0  0  0  0  0  0  0  0  0  0  0  0
   -0.3702    0.1143   -0.7469 C   0  0  0  0  0  0  0  0  0  0  0  0
    0.4793    0.7680   -0.5191 H   0  0  0  0  0  0  0  0  0  0  0  0
   -0.3419   -0.0674   -1.8260 H   0  0  0  0  0  0  0  0  0  0  0  0
   -1.6698    0.8893   -0.4291 C   0  0  0  0  0  0  0  0  0  0  0  0
   -1.8049    0.9596    0.6547 H   0  0  0  0  0  0  0  0  0  0  0  0
   -1.5303    1.9095   -0.8020 H   0  0  0  0  0  0  0  0  0  0  0  0
   -2.9476    0.3192   -1.0694 C   0  0  0  0  0  0  0  0  0  0  0  0
   -2.7495    0.0415   -2.1096 H   0  0  0  0  0  0  0  0  0  0  0  0
   -3.2842   -0.5692   -0.5317 H   0  0  0  0  0  0  0  0  0  0  0  0
   -4.0783    1.3420   -1.0276 C   0  0  0  0  0  0  0  0  0  0  0  0
   -4.2723    1.6436    0.0077 H   0  0  0  0  0  0  0  0  0  0  0  0
   -3.8047    2.2370   -1.5975 H   0  0  0  0  0  0  0  0  0  0  0  0
   -5.2755    0.7202   -1.6006 N   0  0  0  0  0  0  0  0  0  0  0  0
   -6.0804    1.3446   -1.5370 H   0  0  0  0  0  0  0  0  0  0  0  0
   -5.1144    0.4370   -2.5674 H   0  0  0  0  0  0  0  0  0  0  0  0
    0.4363   -0.9789    1.3836 C   0  0  0  0  0  0  0  0  0  0  0  0
    1.6430   -0.8283    1.5265 O   0  0  0  0  0  0  0  0  0  0  0  0
   -0.4080   -0.6477    2.4287 N   0  0  0  0  0  0  0  0  0  0  0  0
   -1.3899   -0.8661    2.2951 H   0  0  0  0  0  0  0  0  0  0  0  0
    0.0732   -0.3663    3.7752 C   0  0  0  0  0  0  0  0  0  0  0  0
    0.7568    0.4893    3.7673 H   0  0  0  0  0  0  0  0  0  0  0  0
   -0.7664   -0.1293    4.4354 H   0  0  0  0  0  0  0  0  0  0  0  0
    0.6012   -1.2355    4.1814 H   0  0  0  0  0  0  0  0  0  0  0  0
  1  2  1  0  0  0  0
  2  3  1  0  0  0  0
  2  4  1  0  0  0  0
  2  5  1  0  0  0  0
  5  6  2  0  0  0  0
  5  7  1  0  0  0  0
  7  8  1  0  0  0  0
  7  9  1  0  0  0  0
  9 10  1  0  0  0  0
  9 11  1  0  0  0  0
  9 26  1  0  0  0  0
 11 12  1  0  0  0  0
 11 13  1  0  0  0  0
 11 14  1  0  0  0  0
 14 15  1  0  0  0  0
 14 16  1  0  0  0  0
 14 17  1  0  0  0  0
 17 18  1  0  0  0  0
 17 19  1  0  0  0  0
 17 20  1  0  0  0  0
 20 21  1  0  0  0  0
 20 22  1  0  0  0  0
 20 23  1  0  0  0  0
 23 24  1  0  0  0  0
 23 25  1  0  0  0  0
 26 27  2  0  0  0  0
 26 28  1  0  0  0  0
 28 29  1  0  0  0  0
 28 30  1  0  0  0  0
 30 31  1  0  0  0  0
 30 32  1  0  0  0  0
 30 33  1  0  0  0  0
M  END
$$$$

  -OEChem-03222214063D

 33 32  0     1  0  0  0  0  0999 V2000
   -2.4346   -5.2409    0.7694 H   0  0  0  0  0  0  0  0  0  0  0  0
   -2.5797   -4.2583    0.3113 C   0  0  0  0  0  0  0  0  0  0  0  0
   -3.4155   -3.7589    0.8073 H   0  0  0  0  0  0  0  0  0  0  0  0
   -2.8203   -4.3951   -0.7456 H   0  0  0  0  0  0  0  0  0  0  0  0
   -1.3193   -3.4257    0.4513 C   0  0  0  0  0  0  0  0  0  0  0  0
   -0.3326   -3.9020    0.9831 O   0  0  0  0  0  0  0  0  0  0  0  0
   -1.3031   -2.1310   -0.0280 N   0  0  0  0  0  0  0  0  0  0  0  0
   -2.1351   -1.8153   -0.5179 H   0  0  0  0  0  0  0  0  0  0  0  0
   -0.1222   -1.2527   -0.0408 C   0  0  1  0  0  0  0  0  0  0  0  0
    0.6680   -1.7676   -0.5986 H   0  0  0  0  0  0  0  0  0  0  0  0
   -0.3773    0.1080   -0.7388 C   0  0  0  0  0  0  0  0  0  0  0  0
    0.4780    0.7628   -0.5363 H   0  0  0  0  0  0  0  0  0  0  0  0
   -0.3760   -0.0818   -1.8170 H   0  0  0  0  0  0  0  0  0  0  0  0
   -1.6708    0.8972   -0.4205 C   0  0  0  0  0  0  0  0  0  0  0  0
   -1.6623    1.1796    0.6371 H   0  0  0  0  0  0  0  0  0  0  0  0
   -1.6260    1.8247   -1.0010 H   0  0  0  0  0  0  0  0  0  0  0  0
   -3.0045    0.1986   -0.7318 C   0  0  0  0  0  0  0  0  0  0  0  0
   -2.9420   -0.3008   -1.7040 H   0  0  0  0  0  0  0  0  0  0  0  0
   -3.2307   -0.5461    0.0355 H   0  0  0  0  0  0  0  0  0  0  0  0
   -4.1530    1.2023   -0.7526 C   0  0  0  0  0  0  0  0  0  0  0  0
   -4.2254    1.7072    0.2175 H   0  0  0  0  0  0  0  0  0  0  0  0
   -3.9809    1.9642   -1.5212 H   0  0  0  0  0  0  0  0  0  0  0  0
   -5.3926    0.4711   -1.0312 N   0  0  0  0  0  0  0  0  0  0  0  0
   -6.2047    1.0859   -0.9639 H   0  0  0  0  0  0  0  0  0  0  0  0
   -5.3559    0.0221   -1.9465 H   0  0  0  0  0  0  0  0  0  0  0  0
    0.4533   -0.9877    1.3694 C   0  0  0  0  0  0  0  0  0  0  0  0
    1.6569   -0.8132    1.5111 O   0  0  0  0  0  0  0  0  0  0  0  0
   -0.3974   -0.6830    2.4172 N   0  0  0  0  0  0  0  0  0  0  0  0
   -1.3766   -0.9092    2.2774 H   0  0  0  0  0  0  0  0  0  0  0  0
    0.0756   -0.4080    3.7676 C   0  0  0  0  0  0  0  0  0  0  0  0
    0.7592    0.4474    3.7683 H   0  0  0  0  0  0  0  0  0  0  0  0
   -0.7682   -0.1742    4.4234 H   0  0  0  0  0  0  0  0  0  0  0  0
    0.6007   -1.2794    4.1725 H   0  0  0  0  0  0  0  0  0  0  0  0
  1  2  1  0  0  0  0
  2  3  1  0  0  0  0
  2  4  1  0  0  0  0
  2  5  1  0  0  0  0
  5  6  2  0  0  0  0
  5  7  1  0  0  0  0
  7  8  1  0  0  0  0
  7  9  1  0  0  0  0
  9 10  1  0  0  0  0
  9 11  1  0  0  0  0
  9 26  1  0  0  0  0
 11 12  1  0  0  0  0
 11 13  1  0  0  0  0
 11 14  1  0  0  0  0
 14 15  1  0  0  0  0
 14 16  1  0  0  0  0
 14 17  1  0  0  0  0
 17 18  1  0  0  0  0
 17 19  1  0  0  0  0
 17 20  1  0  0  0  0
 20 21  1  0  0  0  0
 20 22  1  0  0  0  0
 20 23  1  0  0  0  0
 23 24  1  0  0  0  0
 23 25  1  0  0  0  0
 26 27  2  0  0  0  0
 26 28  1  0  0  0  0
 28 29  1  0  0  0  0
 28 30  1  0  0  0  0
 30 31  1  0  0  0  0
 30 32  1  0  0  0  0
 30 33  1  0  0  0  0
M  END
$$$$

  -OEChem-03222214063D

 33 32  0     1  0  0  0  0  0999 V2000
   -2.3562   -5.2806    0.7924 H   0  0  0  0  0  0  0  0  0  0  0  0
   -2.5186   -4.2990    0.3384 C   0  0  0  0  0  0  0  0  0  0  0  0
   -3.3287   -3.7948    0.8709 H   0  0  0  0  0  0  0  0  0  0  0  0
   -2.8083   -4.4385   -0.7059 H   0  0  0  0  0  0  0  0  0  0  0  0
   -1.2507   -3.4701    0.4185 C   0  0  0  0  0  0  0  0  0  0  0  0
   -0.2405   -3.9484    0.9020 O   0  0  0  0  0  0  0  0  0  0  0  0
   -1.2562   -2.1736   -0.0555 N   0  0  0  0  0  0  0  0  0  0  0  0
   -2.1193   -1.8429   -0.4763 H   0  0  0  0  0  0  0  0  0  0  0  0
   -0.0932   -1.2704   -0.0574 C   0  0  1  0  0  0  0  0  0  0  0  0
    0.7113   -1.7661   -0.6124 H   0  0  0  0  0  0  0  0  0  0  0  0
   -0.3590    0.0978   -0.7397 C   0  0  0  0  0  0  0  0  0  0  0  0
    0.4973    0.7543   -0.5481 H   0  0  0  0  0  0  0  0  0  0  0  0
   -0.3631   -0.0996   -1.8163 H   0  0  0  0  0  0  0  0  0  0  0  0
   -1.6535    0.8982   -0.4416 C   0  0  0  0  0  0  0  0  0  0  0  0
   -1.5329    1.3754    0.5366 H   0  0  0  0  0  0  0  0  0  0  0  0
   -1.7157    1.7000   -1.1850 H   0  0  0  0  0  0  0  0  0  0  0  0
   -2.9902    0.1423   -0.4266 C   0  0  0  0  0  0  0  0  0  0  0  0
   -3.0785   -0.4691   -1.3303 H   0  0  0  0  0  0  0  0  0  0  0  0
   -3.0456   -0.5060    0.4523 H   0  0  0  0  0  0  0  0  0  0  0  0
   -4.1644    1.1134   -0.3598 C   0  0  0  0  0  0  0  0  0  0  0  0
   -4.0906    1.7253    0.5464 H   0  0  0  0  0  0  0  0  0  0  0  0
   -4.1569    1.7851   -1.2256 H   0  0  0  0  0  0  0  0  0  0  0  0
   -5.4028    0.3292   -0.3355 N   0  0  0  0  0  0  0  0  0  0  0  0
   -6.2133    0.9280   -0.1716 H   0  0  0  0  0  0  0  0  0  0  0  0
   -5.5178   -0.2034   -1.1979 H   0  0  0  0  0  0  0  0  0  0  0  0
    0.4622   -1.0025    1.3602 C   0  0  0  0  0  0  0  0  0  0  0  0
    1.6611   -0.8119    1.5180 O   0  0  0  0  0  0  0  0  0  0  0  0
   -0.4048   -0.7212    2.4013 N   0  0  0  0  0  0  0  0  0  0  0  0
   -1.3828   -0.9422    2.2456 H   0  0  0  0  0  0  0  0  0  0  0  0
    0.0467   -0.4329    3.7562 C   0  0  0  0  0  0  0  0  0  0  0  0
    0.7116    0.4371    3.7628 H   0  0  0  0  0  0  0  0  0  0  0  0
   -0.8090   -0.2155    4.4020 H   0  0  0  0  0  0  0  0  0  0  0  0
    0.5859   -1.2916    4.1694 H   0  0  0  0  0  0  0  0  0  0  0  0
  1  2  1  0  0  0  0
  2  3  1  0  0  0  0
  2  4  1  0  0  0  0
  2  5  1  0  0  0  0
  5  6  2  0  0  0  0
  5  7  1  0  0  0  0
  7  8  1  0  0  0  0
  7  9  1  0  0  0  0
  9 10  1  0  0  0  0
  9 11  1  0  0  0  0
  9 26  1  0  0  0  0
 11 12  1  0  0  0  0
 11 13  1  0  0  0  0
 11 14  1  0  0  0  0
 14 15  1  0  0  0  0
 14 16  1  0  0  0  0
 14 17  1  0  0  0  0
 17 18  1  0  0  0  0
 17 19  1  0  0  0  0
 17 20  1  0  0  0  0
 20 21  1  0  0  0  0
 20 22  1  0  0  0  0
 20 23  1  0  0  0  0
 23 24  1  0  0  0  0
 23 25  1  0  0  0  0
 26 27  2  0  0  0  0
 26 28  1  0  0  0  0
 28 29  1  0  0  0  0
 28 30  1  0  0  0  0
 30 31  1  0  0  0  0
 30 32  1  0  0  0  0
 30 33  1  0  0  0  0
M  END
$$$$

  -OEChem-03222214063D

 33 32  0     1  0  0  0  0  0999 V2000
   -2.2860   -5.3217    0.7745 H   0  0  0  0  0  0  0  0  0  0  0  0
   -2.4664   -4.3380    0.3315 C   0  0  0  0  0  0  0  0  0  0  0  0
   -3.2714   -3.8466    0.8835 H   0  0  0  0  0  0  0  0  0  0  0  0
   -2.7739   -4.4715   -0.7085 H   0  0  0  0  0  0  0  0  0  0  0  0
   -1.2047   -3.4982    0.3949 C   0  0  0  0  0  0  0  0  0  0  0  0
   -0.1841   -3.9704    0.8621 O   0  0  0  0  0  0  0  0  0  0  0  0
   -1.2260   -2.1999   -0.0745 N   0  0  0  0  0  0  0  0  0  0  0  0
   -2.1014   -1.8660   -0.4651 H   0  0  0  0  0  0  0  0  0  0  0  0
   -0.0746   -1.2815   -0.0622 C   0  0  1  0  0  0  0  0  0  0  0  0
    0.7404   -1.7667   -0.6112 H   0  0  0  0  0  0  0  0  0  0  0  0
   -0.3450    0.0871   -0.7430 C   0  0  0  0  0  0  0  0  0  0  0  0
    0.5093    0.7469   -0.5527 H   0  0  0  0  0  0  0  0  0  0  0  0
   -0.3406   -0.1183   -1.8183 H   0  0  0  0  0  0  0  0  0  0  0  0
   -1.6455    0.8922   -0.4709 C   0  0  0  0  0  0  0  0  0  0  0  0
   -1.4335    1.5560    0.3742 H   0  0  0  0  0  0  0  0  0  0  0  0
   -1.8308    1.5308   -1.3414 H   0  0  0  0  0  0  0  0  0  0  0  0
   -2.9392    0.1387   -0.1295 C   0  0  0  0  0  0  0  0  0  0  0  0
   -3.1899   -0.5491   -0.9428 H   0  0  0  0  0  0  0  0  0  0  0  0
   -2.8123   -0.4297    0.7958 H   0  0  0  0  0  0  0  0  0  0  0  0
   -4.0966    1.1107    0.0741 C   0  0  0  0  0  0  0  0  0  0  0  0
   -3.8694    1.7947    0.8997 H   0  0  0  0  0  0  0  0  0  0  0  0
   -4.2575    1.7089   -0.8298 H   0  0  0  0  0  0  0  0  0  0  0  0
   -5.2968    0.3292    0.3865 N   0  0  0  0  0  0  0  0  0  0  0  0
   -6.0720    0.9373    0.6538 H   0  0  0  0  0  0  0  0  0  0  0  0
   -5.5614   -0.2675   -0.3971 H   0  0  0  0  0  0  0  0  0  0  0  0
    0.4660   -1.0119    1.3607 C   0  0  0  0  0  0  0  0  0  0  0  0
    1.6617   -0.8101    1.5300 O   0  0  0  0  0  0  0  0  0  0  0  0
   -0.4116   -0.7457    2.3967 N   0  0  0  0  0  0  0  0  0  0  0  0
   -1.3893   -0.9576    2.2276 H   0  0  0  0  0  0  0  0  0  0  0  0
    0.0233   -0.4512    3.7556 C   0  0  0  0  0  0  0  0  0  0  0  0
    0.6860    0.4205    3.7664 H   0  0  0  0  0  0  0  0  0  0  0  0
   -0.8412   -0.2335    4.3900 H   0  0  0  0  0  0  0  0  0  0  0  0
    0.5596   -1.3070    4.1789 H   0  0  0  0  0  0  0  0  0  0  0  0
  1  2  1  0  0  0  0
  2  3  1  0  0  0  0
  2  4  1  0  0  0  0
  2  5  1  0  0  0  0
  5  6  2  0  0  0  0
  5  7  1  0  0  0  0
  7  8  1  0  0  0  0
  7  9  1  0  0  0  0
  9 10  1  0  0  0  0
  9 11  1  0  0  0  0
  9 26  1  0  0  0  0
 11 12  1  0  0  0  0
 11 13  1  0  0  0  0
 11 14  1  0  0  0  0
 14 15  1  0  0  0  0
 14 16  1  0  0  0  0
 14 17  1  0  0  0  0
 17 18  1  0  0  0  0
 17 19  1  0  0  0  0
 17 20  1  0  0  0  0
 20 21  1  0  0  0  0
 20 22  1  0  0  0  0
 20 23  1  0  0  0  0
 23 24  1  0  0  0  0
 23 25  1  0  0  0  0
 26 27  2  0  0  0  0
 26 28  1  0  0  0  0
 28 29  1  0  0  0  0
 28 30  1  0  0  0  0
 30 31  1  0  0  0  0
 30 32  1  0  0  0  0
 30 33  1  0  0  0  0
M  END
$$$$

  -OEChem-03222214063D

 33 32  0     1  0  0  0  0  0999 V2000
   -2.2506   -5.3540    0.6975 H   0  0  0  0  0  0  0  0  0  0  0  0
   -2.4434   -4.3601    0.2833 C   0  0  0  0  0  0  0  0  0  0  0  0
   -3.2568   -3.8962    0.8465 H   0  0  0  0  0  0  0  0  0  0  0  0
   -2.7454   -4.4670   -0.7612 H   0  0  0  0  0  0  0  0  0  0  0  0
   -1.1933   -3.5058    0.3760 C   0  0  0  0  0  0  0  0  0  0  0  0
   -0.1683   -3.9768    0.8352 O   0  0  0  0  0  0  0  0  0  0  0  0
   -1.2287   -2.1966   -0.0605 N   0  0  0  0  0  0  0  0  0  0  0  0
   -2.1055   -1.8614   -0.4458 H   0  0  0  0  0  0  0  0  0  0  0  0
   -0.0837   -1.2714   -0.0311 C   0  0  1  0  0  0  0  0  0  0  0  0
    0.7293   -1.7528   -0.5864 H   0  0  0  0  0  0  0  0  0  0  0  0
   -0.3607    0.0868   -0.7278 C   0  0  0  0  0  0  0  0  0  0  0  0
    0.4835    0.7561   -0.5276 H   0  0  0  0  0  0  0  0  0  0  0  0
   -0.3303   -0.1286   -1.8006 H   0  0  0  0  0  0  0  0  0  0  0  0
   -1.6740    0.8867   -0.4952 C   0  0  0  0  0  0  0  0  0  0  0  0
   -1.4085    1.7305    0.1511 H   0  0  0  0  0  0  0  0  0  0  0  0
   -1.9908    1.3102   -1.4541 H   0  0  0  0  0  0  0  0  0  0  0  0
   -2.8807    0.1942    0.1570 C   0  0  0  0  0  0  0  0  0  0  0  0
   -3.2710   -0.5733   -0.5178 H   0  0  0  0  0  0  0  0  0  0  0  0
   -2.5911   -0.2761    1.0988 H   0  0  0  0  0  0  0  0  0  0  0  0
   -3.9891    1.2003    0.4510 C   0  0  0  0  0  0  0  0  0  0  0  0
   -3.6300    1.9553    1.1596 H   0  0  0  0  0  0  0  0  0  0  0  0
   -4.2931    1.7135   -0.4683 H   0  0  0  0  0  0  0  0  0  0  0  0
   -5.1249    0.4744    1.0273 N   0  0  0  0  0  0  0  0  0  0  0  0
   -5.8460    1.1195    1.3534 H   0  0  0  0  0  0  0  0  0  0  0  0
   -5.5130   -0.1918    0.3599 H   0  0  0  0  0  0  0  0  0  0  0  0
    0.4849   -1.0157    1.3845 C   0  0  0  0  0  0  0  0  0  0  0  0
    1.6839   -0.8110    1.5245 O   0  0  0  0  0  0  0  0  0  0  0  0
   -0.3607   -0.7701    2.4511 N   0  0  0  0  0  0  0  0  0  0  0  0
   -1.3418   -0.9893    2.3122 H   0  0  0  0  0  0  0  0  0  0  0  0
    0.1155   -0.4904    3.7994 C   0  0  0  0  0  0  0  0  0  0  0  0
    0.7550    0.3985    3.8046 H   0  0  0  0  0  0  0  0  0  0  0  0
   -0.7307   -0.3089    4.4687 H   0  0  0  0  0  0  0  0  0  0  0  0
    0.6891   -1.3399    4.1848 H   0  0  0  0  0  0  0  0  0  0  0  0
  1  2  1  0  0  0  0
  2  3  1  0  0  0  0
  2  4  1  0  0  0  0
  2  5  1  0  0  0  0
  5  6  2  0  0  0  0
  5  7  1  0  0  0  0
  7  8  1  0  0  0  0
  7  9  1  0  0  0  0
  9 10  1  0  0  0  0
  9 11  1  0  0  0  0
  9 26  1  0  0  0  0
 11 12  1  0  0  0  0
 11 13  1  0  0  0  0
 11 14  1  0  0  0  0
 14 15  1  0  0  0  0
 14 16  1  0  0  0  0
 14 17  1  0  0  0  0
 17 18  1  0  0  0  0
 17 19  1  0  0  0  0
 17 20  1  0  0  0  0
 20 21  1  0  0  0  0
 20 22  1  0  0  0  0
 20 23  1  0  0  0  0
 23 24  1  0  0  0  0
 23 25  1  0  0  0  0
 26 27  2  0  0  0  0
 26 28  1  0  0  0  0
 28 29  1  0  0  0  0
 28 30  1  0  0  0  0
 30 31  1  0  0  0  0
 30 32  1  0  0  0  0
 30 33  1  0  0  0  0
M  END
$$$$

  -OEChem-03222214063D

 33 32  0     1  0  0  0  0  0999 V2000
   -2.3523   -5.2886    0.6020 H   0  0  0  0  0  0  0  0  0  0  0  0
   -2.5187   -4.3057    0.1518 C   0  0  0  0  0  0  0  0  0  0  0  0
   -3.3739   -3.8347    0.6422 H   0  0  0  0  0  0  0  0  0  0  0  0
   -2.7405   -4.4376   -0.9099 H   0  0  0  0  0  0  0  0  0  0  0  0
   -1.2846   -3.4398    0.3187 C   0  0  0  0  0  0  0  0  0  0  0  0
   -0.2813   -3.9071    0.8283 O   0  0  0  0  0  0  0  0  0  0  0  0
   -1.3099   -2.1287   -0.1122 N   0  0  0  0  0  0  0  0  0  0  0  0
   -2.1800   -1.7923   -0.5084 H   0  0  0  0  0  0  0  0  0  0  0  0
   -0.2116   -1.1698    0.0747 C   0  0  1  0  0  0  0  0  0  0  0  0
    0.6799   -1.6692   -0.3227 H   0  0  0  0  0  0  0  0  0  0  0  0
   -0.3492    0.1212   -0.7783 C   0  0  0  0  0  0  0  0  0  0  0  0
    0.4215    0.8156   -0.4255 H   0  0  0  0  0  0  0  0  0  0  0  0
   -0.0536   -0.1663   -1.7926 H   0  0  0  0  0  0  0  0  0  0  0  0
   -1.6643    0.9461   -0.9393 C   0  0  0  0  0  0  0  0  0  0  0  0
   -1.4444    1.9829   -0.6626 H   0  0  0  0  0  0  0  0  0  0  0  0
   -1.8834    0.9592   -2.0125 H   0  0  0  0  0  0  0  0  0  0  0  0
   -2.9783    0.5406   -0.2438 C   0  0  0  0  0  0  0  0  0  0  0  0
   -3.1575   -0.5298   -0.3120 H   0  0  0  0  0  0  0  0  0  0  0  0
   -3.8057    1.0118   -0.7841 H   0  0  0  0  0  0  0  0  0  0  0  0
   -3.0485    1.0295    1.2025 C   0  0  0  0  0  0  0  0  0  0  0  0
   -2.0511    1.2794    1.5760 H   0  0  0  0  0  0  0  0  0  0  0  0
   -3.6451    1.9474    1.2516 H   0  0  0  0  0  0  0  0  0  0  0  0
   -3.6607   -0.0191    2.0288 N   0  0  0  0  0  0  0  0  0  0  0  0
   -3.7172    0.2775    3.0054 H   0  0  0  0  0  0  0  0  0  0  0  0
   -4.5896   -0.2578    1.6780 H   0  0  0  0  0  0  0  0  0  0  0  0
    0.1622   -0.9060    1.5526 C   0  0  0  0  0  0  0  0  0  0  0  0
    1.3310   -0.6836    1.8435 O   0  0  0  0  0  0  0  0  0  0  0  0
   -0.8031   -0.6950    2.5178 N   0  0  0  0  0  0  0  0  0  0  0  0
   -1.7803   -0.7677    2.2257 H   0  0  0  0  0  0  0  0  0  0  0  0
   -0.5002   -0.3651    3.9036 C   0  0  0  0  0  0  0  0  0  0  0  0
    0.0088    0.6023    3.9652 H   0  0  0  0  0  0  0  0  0  0  0  0
   -1.4234   -0.3103    4.4878 H   0  0  0  0  0  0  0  0  0  0  0  0
    0.1439   -1.1319    4.3468 H   0  0  0  0  0  0  0  0  0  0  0  0
  1  2  1  0  0  0  0
  2  3  1  0  0  0  0
  2  4  1  0  0  0  0
  2  5  1  0  0  0  0
  5  6  2  0  0  0  0
  5  7  1  0  0  0  0
  7  8  1  0  0  0  0
  7  9  1  0  0  0  0
  9 10  1  0  0  0  0
  9 11  1  0  0  0  0
  9 26  1  0  0  0  0
 11 12  1  0  0  0  0
 11 13  1  0  0  0  0
 11 14  1  0  0  0  0
 14 15  1  0  0  0  0
 14 16  1  0  0  0  0
 14 17  1  0  0  0  0
 17 18  1  0  0  0  0
 17 19  1  0  0  0  0
 17 20  1  0  0  0  0
 20 21  1  0  0  0  0
 20 22  1  0  0  0  0
 20 23  1  0  0  0  0
 23 24  1  0  0  0  0
 23 25  1  0  0  0  0
 26 27  2  0  0  0  0
 26 28  1  0  0  0  0
 28 29  1  0  0  0  0
 28 30  1  0  0  0  0
 30 31  1  0  0  0  0
 30 32  1  0  0  0  0
 30 33  1  0  0  0  0
M  END
$$$$

  -OEChem-03222214063D

 33 32  0     1  0  0  0  0  0999 V2000
   -2.3888   -5.2947    0.5753 H   0  0  0  0  0  0  0  0  0  0  0  0
   -2.5632   -4.2734    0.2245 C   0  0  0  0  0  0  0  0  0  0  0  0
   -3.3509   -3.8232    0.8331 H   0  0  0  0  0  0  0  0  0  0  0  0
   -2.8912   -4.3107   -0.8170 H   0  0  0  0  0  0  0  0  0  0  0  0
   -1.2883   -3.4589    0.3375 C   0  0  0  0  0  0  0  0  0  0  0  0
   -0.2655   -3.9860    0.7358 O   0  0  0  0  0  0  0  0  0  0  0  0
   -1.2990   -2.1227   -0.0100 N   0  0  0  0  0  0  0  0  0  0  0  0
   -2.1672   -1.7469   -0.3778 H   0  0  0  0  0  0  0  0  0  0  0  0
   -0.1183   -1.2439    0.0117 C   0  0  1  0  0  0  0  0  0  0  0  0
    0.6423   -1.7449   -0.5983 H   0  0  0  0  0  0  0  0  0  0  0  0
   -0.3873    0.1119   -0.6891 C   0  0  0  0  0  0  0  0  0  0  0  0
    0.4586    0.7658   -0.4479 H   0  0  0  0  0  0  0  0  0  0  0  0
   -0.3340   -0.0700   -1.7673 H   0  0  0  0  0  0  0  0  0  0  0  0
   -1.6855    0.9286   -0.4369 C   0  0  0  0  0  0  0  0  0  0  0  0
   -1.3992    1.9833   -0.3631 H   0  0  0  0  0  0  0  0  0  0  0  0
   -2.3098    0.8313   -1.3315 H   0  0  0  0  0  0  0  0  0  0  0  0
   -2.5708    0.5838    0.7723 C   0  0  0  0  0  0  0  0  0  0  0  0
   -2.9762   -0.4257    0.6902 H   0  0  0  0  0  0  0  0  0  0  0  0
   -1.9837    0.6576    1.6890 H   0  0  0  0  0  0  0  0  0  0  0  0
   -3.7373    1.5618    0.8790 C   0  0  0  0  0  0  0  0  0  0  0  0
   -3.3596    2.5805    1.0231 H   0  0  0  0  0  0  0  0  0  0  0  0
   -4.3328    1.5465   -0.0407 H   0  0  0  0  0  0  0  0  0  0  0  0
   -4.5650    1.1685    2.0234 N   0  0  0  0  0  0  0  0  0  0  0  0
   -5.3055    1.8498    2.1948 H   0  0  0  0  0  0  0  0  0  0  0  0
   -4.9539    0.2348    1.8961 H   0  0  0  0  0  0  0  0  0  0  0  0
    0.5647   -1.0837    1.3920 C   0  0  0  0  0  0  0  0  0  0  0  0
    1.7788   -0.9325    1.4415 O   0  0  0  0  0  0  0  0  0  0  0  0
   -0.1723   -0.8699    2.5417 N   0  0  0  0  0  0  0  0  0  0  0  0
   -1.1768   -0.9978    2.4731 H   0  0  0  0  0  0  0  0  0  0  0  0
    0.4265   -0.6549    3.8523 C   0  0  0  0  0  0  0  0  0  0  0  0
    1.0782    0.2250    3.8369 H   0  0  0  0  0  0  0  0  0  0  0  0
   -0.3533   -0.4925    4.6023 H   0  0  0  0  0  0  0  0  0  0  0  0
    1.0184   -1.5272    4.1487 H   0  0  0  0  0  0  0  0  0  0  0  0
  1  2  1  0  0  0  0
  2  3  1  0  0  0  0
  2  4  1  0  0  0  0
  2  5  1  0  0  0  0
  5  6  2  0  0  0  0
  5  7  1  0  0  0  0
  7  8  1  0  0  0  0
  7  9  1  0  0  0  0
  9 10  1  0  0  0  0
  9 11  1  0  0  0  0
  9 26  1  0  0  0  0
 11 12  1  0  0  0  0
 11 13  1  0  0  0  0
 11 14  1  0  0  0  0
 14 15  1  0  0  0  0
 14 16  1  0  0  0  0
 14 17  1  0  0  0  0
 17 18  1  0  0  0  0
 17 19  1  0  0  0  0
 17 20  1  0  0  0  0
 20 21  1  0  0  0  0
 20 22  1  0  0  0  0
 20 23  1  0  0  0  0
 23 24  1  0  0  0  0
 23 25  1  0  0  0  0
 26 27  2  0  0  0  0
 26 28  1  0  0  0  0
 28 29  1  0  0  0  0
 28 30  1  0  0  0  0
 30 31  1  0  0  0  0
 30 32  1  0  0  0  0
 30 33  1  0  0  0  0
M  END
$$$$

  -OEChem-03222214063D

 33 32  0     1  0  0  0  0  0999 V2000
   -2.5745   -5.1797    0.5236 H   0  0  0  0  0  0  0  0  0  0  0  0
   -2.6974   -4.1493    0.1776 C   0  0  0  0  0  0  0  0  0  0  0  0
   -3.4700   -3.6663    0.7803 H   0  0  0  0  0  0  0  0  0  0  0  0
   -3.0149   -4.1652   -0.8678 H   0  0  0  0  0  0  0  0  0  0  0  0
   -1.3874   -3.3954    0.3104 C   0  0  0  0  0  0  0  0  0  0  0  0
   -0.3941   -3.9731    0.7130 O   0  0  0  0  0  0  0  0  0  0  0  0
   -1.3322   -2.0572   -0.0255 N   0  0  0  0  0  0  0  0  0  0  0  0
   -2.1807   -1.6348   -0.3885 H   0  0  0  0  0  0  0  0  0  0  0  0
   -0.1112   -1.2344    0.0219 C   0  0  1  0  0  0  0  0  0  0  0  0
    0.6351   -1.7631   -0.5828 H   0  0  0  0  0  0  0  0  0  0  0  0
   -0.3291    0.1264   -0.6831 C   0  0  0  0  0  0  0  0  0  0  0  0
    0.5256    0.7609   -0.4229 H   0  0  0  0  0  0  0  0  0  0  0  0
   -0.2699   -0.0460   -1.7627 H   0  0  0  0  0  0  0  0  0  0  0  0
   -1.6157    0.9512   -0.4220 C   0  0  0  0  0  0  0  0  0  0  0  0
   -1.3834    2.0056   -0.6066 H   0  0  0  0  0  0  0  0  0  0  0  0
   -2.3541    0.6492   -1.1719 H   0  0  0  0  0  0  0  0  0  0  0  0
   -2.2851    0.8245    0.9550 C   0  0  0  0  0  0  0  0  0  0  0  0
   -2.5901   -0.2046    1.1523 H   0  0  0  0  0  0  0  0  0  0  0  0
   -1.5782    1.1356    1.7294 H   0  0  0  0  0  0  0  0  0  0  0  0
   -3.5161    1.7229    1.0391 C   0  0  0  0  0  0  0  0  0  0  0  0
   -3.2217    2.7717    0.9185 H   0  0  0  0  0  0  0  0  0  0  0  0
   -4.2250    1.4753    0.2411 H   0  0  0  0  0  0  0  0  0  0  0  0
   -4.1440    1.5251    2.3490 N   0  0  0  0  0  0  0  0  0  0  0  0
   -4.9180    2.1753    2.4903 H   0  0  0  0  0  0  0  0  0  0  0  0
   -4.4530    0.5614    2.4712 H   0  0  0  0  0  0  0  0  0  0  0  0
    0.5641   -1.1125    1.4104 C   0  0  0  0  0  0  0  0  0  0  0  0
    1.7837   -1.0246    1.4729 O   0  0  0  0  0  0  0  0  0  0  0  0
   -0.1717   -0.8708    2.5556 N   0  0  0  0  0  0  0  0  0  0  0  0
   -1.1823   -0.8951    2.4693 H   0  0  0  0  0  0  0  0  0  0  0  0
    0.4240   -0.6428    3.8655 C   0  0  0  0  0  0  0  0  0  0  0  0
    1.0827    0.2315    3.8404 H   0  0  0  0  0  0  0  0  0  0  0  0
   -0.3575   -0.4646    4.6102 H   0  0  0  0  0  0  0  0  0  0  0  0
    1.0076   -1.5155    4.1766 H   0  0  0  0  0  0  0  0  0  0  0  0
  1  2  1  0  0  0  0
  2  3  1  0  0  0  0
  2  4  1  0  0  0  0
  2  5  1  0  0  0  0
  5  6  2  0  0  0  0
  5  7  1  0  0  0  0
  7  8  1  0  0  0  0
  7  9  1  0  0  0  0
  9 10  1  0  0  0  0
  9 11  1  0  0  0  0
  9 26  1  0  0  0  0
 11 12  1  0  0  0  0
 11 13  1  0  0  0  0
 11 14  1  0  0  0  0
 14 15  1  0  0  0  0
 14 16  1  0  0  0  0
 14 17  1  0  0  0  0
 17 18  1  0  0  0  0
 17 19  1  0  0  0  0
 17 20  1  0  0  0  0
 20 21  1  0  0  0  0
 20 22  1  0  0  0  0
 20 23  1  0  0  0  0
 23 24  1  0  0  0  0
 23 25  1  0  0  0  0
 26 27  2  0  0  0  0
 26 28  1  0  0  0  0
 28 29  1  0  0  0  0
 28 30  1  0  0  0  0
 30 31  1  0  0  0  0
 30 32  1  0  0  0  0
 30 33  1  0  0  0  0
M  END
$$$$

  -OEChem-03222214063D

 33 32  0     1  0  0  0  0  0999 V2000
   -3.0390   -4.8015    0.7553 H   0  0  0  0  0  0  0  0  0  0  0  0
   -3.0497   -3.7927    0.3323 C   0  0  0  0  0  0  0  0  0  0  0  0
   -3.8407   -3.2163    0.8179 H   0  0  0  0  0  0  0  0  0  0  0  0
   -3.2619   -3.8634   -0.7373 H   0  0  0  0  0  0  0  0  0  0  0  0
   -1.7072   -3.1214    0.5524 C   0  0  0  0  0  0  0  0  0  0  0  0
   -0.8328   -3.7030    1.1681 O   0  0  0  0  0  0  0  0  0  0  0  0
   -1.4968   -1.8425    0.0751 N   0  0  0  0  0  0  0  0  0  0  0  0
   -2.2274   -1.4527   -0.5123 H   0  0  0  0  0  0  0  0  0  0  0  0
   -0.1929   -1.1583    0.0883 C   0  0  1  0  0  0  0  0  0  0  0  0
    0.5065   -1.8352   -0.4160 H   0  0  0  0  0  0  0  0  0  0  0  0
   -0.2328    0.1148   -0.7887 C   0  0  0  0  0  0  0  0  0  0  0  0
    0.6806    0.6798   -0.5714 H   0  0  0  0  0  0  0  0  0  0  0  0
   -0.1571   -0.2078   -1.8323 H   0  0  0  0  0  0  0  0  0  0  0  0
   -1.4173    1.1128   -0.7154 C   0  0  0  0  0  0  0  0  0  0  0  0
   -1.0965    2.0191   -1.2401 H   0  0  0  0  0  0  0  0  0  0  0  0
   -2.2524    0.6993   -1.2895 H   0  0  0  0  0  0  0  0  0  0  0  0
   -1.9494    1.5421    0.6658 C   0  0  0  0  0  0  0  0  0  0  0  0
   -2.3132    2.5697    0.5584 H   0  0  0  0  0  0  0  0  0  0  0  0
   -1.1302    1.5812    1.3865 H   0  0  0  0  0  0  0  0  0  0  0  0
   -3.1185    0.7173    1.2084 C   0  0  0  0  0  0  0  0  0  0  0  0
   -3.9102    0.6456    0.4547 H   0  0  0  0  0  0  0  0  0  0  0  0
   -2.8058   -0.2926    1.4717 H   0  0  0  0  0  0  0  0  0  0  0  0
   -3.6327    1.3850    2.4062 N   0  0  0  0  0  0  0  0  0  0  0  0
   -4.3962    0.8600    2.8339 H   0  0  0  0  0  0  0  0  0  0  0  0
   -2.8892    1.5703    3.0805 H   0  0  0  0  0  0  0  0  0  0  0  0
    0.4549   -0.9525    1.4807 C   0  0  0  0  0  0  0  0  0  0  0  0
    1.6753   -0.9760    1.5744 O   0  0  0  0  0  0  0  0  0  0  0  0
   -0.2765   -0.5042    2.5650 N   0  0  0  0  0  0  0  0  0  0  0  0
   -1.2854   -0.5404    2.4758 H   0  0  0  0  0  0  0  0  0  0  0  0
    0.3073   -0.2659    3.8785 C   0  0  0  0  0  0  0  0  0  0  0  0
    1.0694    0.5183    3.8219 H   0  0  0  0  0  0  0  0  0  0  0  0
   -0.4655    0.0542    4.5835 H   0  0  0  0  0  0  0  0  0  0  0  0
    0.7702   -1.1811    4.2625 H   0  0  0  0  0  0  0  0  0  0  0  0
  1  2  1  0  0  0  0
  2  3  1  0  0  0  0
  2  4  1  0  0  0  0
  2  5  1  0  0  0  0
  5  6  2  0  0  0  0
  5  7  1  0  0  0  0
  7  8  1  0  0  0  0
  7  9  1  0  0  0  0
  9 10  1  0  0  0  0
  9 11  1  0  0  0  0
  9 26  1  0  0  0  0
 11 12  1  0  0  0  0
 11 13  1  0  0  0  0
 11 14  1  0  0  0  0
 14 15  1  0  0  0  0
 14 16  1  0  0  0  0
 14 17  1  0  0  0  0
 17 18  1  0  0  0  0
 17 19  1  0  0  0  0
 17 20  1  0  0  0  0
 20 21  1  0  0  0  0
 20 22  1  0  0  0  0
 20 23  1  0  0  0  0
 23 24  1  0  0  0  0
 23 25  1  0  0  0  0
 26 27  2  0  0  0  0
 26 28  1  0  0  0  0
 28 29  1  0  0  0  0
 28 30  1  0  0  0  0
 30 31  1  0  0  0  0
 30 32  1  0  0  0  0
 30 33  1  0  0  0  0
M  END
$$$$

  -OEChem-03222214063D

 33 32  0     1  0  0  0  0  0999 V2000
   -2.5478   -5.1963    0.5113 H   0  0  0  0  0  0  0  0  0  0  0  0
   -2.6962   -4.1607    0.1918 C   0  0  0  0  0  0  0  0  0  0  0  0
   -3.4766   -3.7109    0.8100 H   0  0  0  0  0  0  0  0  0  0  0  0
   -3.0183   -4.1580   -0.8523 H   0  0  0  0  0  0  0  0  0  0  0  0
   -1.4039   -3.3797    0.3380 C   0  0  0  0  0  0  0  0  0  0  0  0
   -0.4077   -3.9329    0.7670 O   0  0  0  0  0  0  0  0  0  0  0  0
   -1.3698   -2.0437   -0.0101 N   0  0  0  0  0  0  0  0  0  0  0  0
   -2.2171   -1.6469   -0.4032 H   0  0  0  0  0  0  0  0  0  0  0  0
   -0.1592   -1.2043    0.0286 C   0  0  1  0  0  0  0  0  0  0  0  0
    0.5918   -1.7394   -0.5644 H   0  0  0  0  0  0  0  0  0  0  0  0
   -0.3835    0.1318   -0.7169 C   0  0  0  0  0  0  0  0  0  0  0  0
    0.4564    0.7981   -0.4904 H   0  0  0  0  0  0  0  0  0  0  0  0
   -0.3386   -0.0790   -1.7902 H   0  0  0  0  0  0  0  0  0  0  0  0
   -1.6996    0.8950   -0.4571 C   0  0  0  0  0  0  0  0  0  0  0  0
   -1.6757    1.7984   -1.0760 H   0  0  0  0  0  0  0  0  0  0  0  0
   -2.5500    0.2959   -0.7967 H   0  0  0  0  0  0  0  0  0  0  0  0
   -1.9267    1.3093    0.9999 C   0  0  0  0  0  0  0  0  0  0  0  0
   -0.9992    1.7098    1.4230 H   0  0  0  0  0  0  0  0  0  0  0  0
   -2.2291    0.4360    1.5820 H   0  0  0  0  0  0  0  0  0  0  0  0
   -3.0201    2.3693    1.1036 C   0  0  0  0  0  0  0  0  0  0  0  0
   -2.7187    3.2717    0.5599 H   0  0  0  0  0  0  0  0  0  0  0  0
   -3.9495    1.9980    0.6579 H   0  0  0  0  0  0  0  0  0  0  0  0
   -3.2316    2.6877    2.5186 N   0  0  0  0  0  0  0  0  0  0  0  0
   -3.9187    3.4332    2.6324 H   0  0  0  0  0  0  0  0  0  0  0  0
   -3.4992    1.8602    3.0505 H   0  0  0  0  0  0  0  0  0  0  0  0
    0.5258   -1.0540    1.4097 C   0  0  0  0  0  0  0  0  0  0  0  0
    1.7430   -0.9309    1.4575 O   0  0  0  0  0  0  0  0  0  0  0  0
   -0.2029   -0.8087    2.5583 N   0  0  0  0  0  0  0  0  0  0  0  0
   -1.2094   -0.9102    2.4935 H   0  0  0  0  0  0  0  0  0  0  0  0
    0.4023   -0.5474    3.8576 C   0  0  0  0  0  0  0  0  0  0  0  0
    1.0566    0.3293    3.8063 H   0  0  0  0  0  0  0  0  0  0  0  0
   -0.3740   -0.3545    4.6040 H   0  0  0  0  0  0  0  0  0  0  0  0
    0.9926   -1.4100    4.1841 H   0  0  0  0  0  0  0  0  0  0  0  0
  1  2  1  0  0  0  0
  2  3  1  0  0  0  0
  2  4  1  0  0  0  0
  2  5  1  0  0  0  0
  5  6  2  0  0  0  0
  5  7  1  0  0  0  0
  7  8  1  0  0  0  0
  7  9  1  0  0  0  0
  9 10  1  0  0  0  0
  9 11  1  0  0  0  0
  9 26  1  0  0  0  0
 11 12  1  0  0  0  0
 11 13  1  0  0  0  0
 11 14  1  0  0  0  0
 14 15  1  0  0  0  0
 14 16  1  0  0  0  0
 14 17  1  0  0  0  0
 17 18  1  0  0  0  0
 17 19  1  0  0  0  0
 17 20  1  0  0  0  0
 20 21  1  0  0  0  0
 20 22  1  0  0  0  0
 20 23  1  0  0  0  0
 23 24  1  0  0  0  0
 23 25  1  0  0  0  0
 26 27  2  0  0  0  0
 26 28  1  0  0  0  0
 28 29  1  0  0  0  0
 28 30  1  0  0  0  0
 30 31  1  0  0  0  0
 30 32  1  0  0  0  0
 30 33  1  0  0  0  0
M  END
$$$$

  -OEChem-03222214063D

 33 32  0     1  0  0  0  0  0999 V2000
   -2.6443   -5.1453    0.4478 H   0  0  0  0  0  0  0  0  0  0  0  0
   -2.7610   -4.1111    0.1114 C   0  0  0  0  0  0  0  0  0  0  0  0
   -3.5699   -3.6460    0.6798 H   0  0  0  0  0  0  0  0  0  0  0  0
   -3.0235   -4.1144   -0.9493 H   0  0  0  0  0  0  0  0  0  0  0  0
   -1.4685   -3.3459    0.3242 C   0  0  0  0  0  0  0  0  0  0  0  0
   -0.5035   -3.9096    0.8071 O   0  0  0  0  0  0  0  0  0  0  0  0
   -1.4001   -2.0106   -0.0213 N   0  0  0  0  0  0  0  0  0  0  0  0
   -2.2116   -1.6168   -0.4864 H   0  0  0  0  0  0  0  0  0  0  0  0
   -0.1715   -1.1971    0.0367 C   0  0  1  0  0  0  0  0  0  0  0  0
    0.5779   -1.7422   -0.5495 H   0  0  0  0  0  0  0  0  0  0  0  0
   -0.3580    0.1547   -0.6915 C   0  0  0  0  0  0  0  0  0  0  0  0
    0.5020    0.7975   -0.4723 H   0  0  0  0  0  0  0  0  0  0  0  0
   -0.3261   -0.0559   -1.7653 H   0  0  0  0  0  0  0  0  0  0  0  0
   -1.6588    0.9434   -0.4269 C   0  0  0  0  0  0  0  0  0  0  0  0
   -1.7266    1.7134   -1.2028 H   0  0  0  0  0  0  0  0  0  0  0  0
   -2.5346    0.2985   -0.5406 H   0  0  0  0  0  0  0  0  0  0  0  0
   -1.7033    1.6406    0.9380 C   0  0  0  0  0  0  0  0  0  0  0  0
   -1.9064    0.9080    1.7202 H   0  0  0  0  0  0  0  0  0  0  0  0
   -0.7376    2.1125    1.1490 H   0  0  0  0  0  0  0  0  0  0  0  0
   -2.7995    2.7029    0.9694 C   0  0  0  0  0  0  0  0  0  0  0  0
   -2.6067    3.4642    0.2050 H   0  0  0  0  0  0  0  0  0  0  0  0
   -3.7721    2.2452    0.7572 H   0  0  0  0  0  0  0  0  0  0  0  0
   -2.8131    3.3238    2.2969 N   0  0  0  0  0  0  0  0  0  0  0  0
   -3.5291    4.0476    2.3623 H   0  0  0  0  0  0  0  0  0  0  0  0
   -2.9292    2.6263    3.0315 H   0  0  0  0  0  0  0  0  0  0  0  0
    0.4858   -1.0717    1.4325 C   0  0  0  0  0  0  0  0  0  0  0  0
    1.7045   -0.9837    1.5096 O   0  0  0  0  0  0  0  0  0  0  0  0
   -0.2662   -0.8170    2.5639 N   0  0  0  0  0  0  0  0  0  0  0  0
   -1.2679   -0.9500    2.4795 H   0  0  0  0  0  0  0  0  0  0  0  0
    0.3168   -0.6586    3.8901 C   0  0  0  0  0  0  0  0  0  0  0  0
    1.0100    0.1890    3.9057 H   0  0  0  0  0  0  0  0  0  0  0  0
   -0.4682   -0.4748    4.6296 H   0  0  0  0  0  0  0  0  0  0  0  0
    0.8605   -1.5644    4.1785 H   0  0  0  0  0  0  0  0  0  0  0  0
  1  2  1  0  0  0  0
  2  3  1  0  0  0  0
  2  4  1  0  0  0  0
  2  5  1  0  0  0  0
  5  6  2  0  0  0  0
  5  7  1  0  0  0  0
  7  8  1  0  0  0  0
  7  9  1  0  0  0  0
  9 10  1  0  0  0  0
  9 11  1  0  0  0  0
  9 26  1  0  0  0  0
 11 12  1  0  0  0  0
 11 13  1  0  0  0  0
 11 14  1  0  0  0  0
 14 15  1  0  0  0  0
 14 16  1  0  0  0  0
 14 17  1  0  0  0  0
 17 18  1  0  0  0  0
 17 19  1  0  0  0  0
 17 20  1  0  0  0  0
 20 21  1  0  0  0  0
 20 22  1  0  0  0  0
 20 23  1  0  0  0  0
 23 24  1  0  0  0  0
 23 25  1  0  0  0  0
 26 27  2  0  0  0  0
 26 28  1  0  0  0  0
 28 29  1  0  0  0  0
 28 30  1  0  0  0  0
 30 31  1  0  0  0  0
 30 32  1  0  0  0  0
 30 33  1  0  0  0  0
M  END
$$$$

  -OEChem-03222214063D

 33 32  0     1  0  0  0  0  0999 V2000
   -2.7375   -5.0758    0.4940 H   0  0  0  0  0  0  0  0  0  0  0  0
   -2.8141   -4.0571    0.1031 C   0  0  0  0  0  0  0  0  0  0  0  0
   -3.6446   -3.5512    0.6009 H   0  0  0  0  0  0  0  0  0  0  0  0
   -3.0154   -4.1076   -0.9696 H   0  0  0  0  0  0  0  0  0  0  0  0
   -1.5207   -3.3048    0.3535 C   0  0  0  0  0  0  0  0  0  0  0  0
   -0.5889   -3.8691    0.8972 O   0  0  0  0  0  0  0  0  0  0  0  0
   -1.4129   -1.9838   -0.0357 N   0  0  0  0  0  0  0  0  0  0  0  0
   -2.1906   -1.6022   -0.5649 H   0  0  0  0  0  0  0  0  0  0  0  0
   -0.1652   -1.1981    0.0213 C   0  0  1  0  0  0  0  0  0  0  0  0
    0.5874   -1.7659   -0.5376 H   0  0  0  0  0  0  0  0  0  0  0  0
   -0.3109    0.1543   -0.7171 C   0  0  0  0  0  0  0  0  0  0  0  0
    0.5715    0.7716   -0.5152 H   0  0  0  0  0  0  0  0  0  0  0  0
   -0.2922   -0.0737   -1.7876 H   0  0  0  0  0  0  0  0  0  0  0  0
   -1.5920    0.9795   -0.4603 C   0  0  0  0  0  0  0  0  0  0  0  0
   -1.7937    1.5681   -1.3617 H   0  0  0  0  0  0  0  0  0  0  0  0
   -2.4572    0.3308   -0.3005 H   0  0  0  0  0  0  0  0  0  0  0  0
   -1.4481    1.9555    0.7150 C   0  0  0  0  0  0  0  0  0  0  0  0
   -1.3004    1.4119    1.6479 H   0  0  0  0  0  0  0  0  0  0  0  0
   -0.5723    2.5936    0.5558 H   0  0  0  0  0  0  0  0  0  0  0  0
   -2.6903    2.8321    0.8467 C   0  0  0  0  0  0  0  0  0  0  0  0
   -2.8643    3.3834   -0.0841 H   0  0  0  0  0  0  0  0  0  0  0  0
   -3.5696    2.2092    1.0438 H   0  0  0  0  0  0  0  0  0  0  0  0
   -2.4813    3.7739    1.9496 N   0  0  0  0  0  0  0  0  0  0  0  0
   -3.2980    4.3679    2.0931 H   0  0  0  0  0  0  0  0  0  0  0  0
   -2.2267    3.2868    2.8090 H   0  0  0  0  0  0  0  0  0  0  0  0
    0.4422   -1.0573    1.4371 C   0  0  0  0  0  0  0  0  0  0  0  0
    1.6578   -0.9879    1.5637 O   0  0  0  0  0  0  0  0  0  0  0  0
   -0.3573   -0.7549    2.5240 N   0  0  0  0  0  0  0  0  0  0  0  0
   -1.3550   -0.8845    2.3971 H   0  0  0  0  0  0  0  0  0  0  0  0
    0.1666   -0.5725    3.8714 C   0  0  0  0  0  0  0  0  0  0  0  0
    0.8763    0.2610    3.8967 H   0  0  0  0  0  0  0  0  0  0  0  0
   -0.6480   -0.3527    4.5679 H   0  0  0  0  0  0  0  0  0  0  0  0
    0.6769   -1.4809    4.2085 H   0  0  0  0  0  0  0  0  0  0  0  0
  1  2  1  0  0  0  0
  2  3  1  0  0  0  0
  2  4  1  0  0  0  0
  2  5  1  0  0  0  0
  5  6  2  0  0  0  0
  5  7  1  0  0  0  0
  7  8  1  0  0  0  0
  7  9  1  0  0  0  0
  9 10  1  0  0  0  0
  9 11  1  0  0  0  0
  9 26  1  0  0  0  0
 11 12  1  0  0  0  0
 11 13  1  0  0  0  0
 11 14  1  0  0  0  0
 14 15  1  0  0  0  0
 14 16  1  0  0  0  0
 14 17  1  0  0  0  0
 17 18  1  0  0  0  0
 17 19  1  0  0  0  0
 17 20  1  0  0  0  0
 20 21  1  0  0  0  0
 20 22  1  0  0  0  0
 20 23  1  0  0  0  0
 23 24  1  0  0  0  0
 23 25  1  0  0  0  0
 26 27  2  0  0  0  0
 26 28  1  0  0  0  0
 28 29  1  0  0  0  0
 28 30  1  0  0  0  0
 30 31  1  0  0  0  0
 30 32  1  0  0  0  0
 30 33  1  0  0  0  0
M  END
$$$$

  -OEChem-03222214063D

 33 32  0     1  0  0  0  0  0999 V2000
   -2.7611   -5.0377    0.5349 H   0  0  0  0  0  0  0  0  0  0  0  0
   -2.8267   -4.0274    0.1205 C   0  0  0  0  0  0  0  0  0  0  0  0
   -3.6684   -3.5100    0.5866 H   0  0  0  0  0  0  0  0  0  0  0  0
   -3.0020   -4.1007   -0.9554 H   0  0  0  0  0  0  0  0  0  0  0  0
   -1.5394   -3.2702    0.3865 C   0  0  0  0  0  0  0  0  0  0  0  0
   -0.6468   -3.8006    1.0219 O   0  0  0  0  0  0  0  0  0  0  0  0
   -1.3933   -1.9824   -0.0919 N   0  0  0  0  0  0  0  0  0  0  0  0
   -2.1315   -1.6393   -0.6985 H   0  0  0  0  0  0  0  0  0  0  0  0
   -0.1372   -1.2083   -0.0308 C   0  0  1  0  0  0  0  0  0  0  0  0
    0.6389   -1.7910   -0.5402 H   0  0  0  0  0  0  0  0  0  0  0  0
   -0.2699    0.1397   -0.7780 C   0  0  0  0  0  0  0  0  0  0  0  0
    0.6147    0.7554   -0.5782 H   0  0  0  0  0  0  0  0  0  0  0  0
   -0.2524   -0.0889   -1.8485 H   0  0  0  0  0  0  0  0  0  0  0  0
   -1.5577    0.9513   -0.5070 C   0  0  0  0  0  0  0  0  0  0  0  0
   -1.9449    1.3266   -1.4600 H   0  0  0  0  0  0  0  0  0  0  0  0
   -2.3391    0.3308   -0.0610 H   0  0  0  0  0  0  0  0  0  0  0  0
   -1.2743    2.1501    0.4084 C   0  0  0  0  0  0  0  0  0  0  0  0
   -0.7916    1.8151    1.3302 H   0  0  0  0  0  0  0  0  0  0  0  0
   -0.5878    2.8383   -0.0960 H   0  0  0  0  0  0  0  0  0  0  0  0
   -2.5621    2.8895    0.7573 C   0  0  0  0  0  0  0  0  0  0  0  0
   -3.0637    3.2262   -0.1569 H   0  0  0  0  0  0  0  0  0  0  0  0
   -3.2439    2.2215    1.2950 H   0  0  0  0  0  0  0  0  0  0  0  0
   -2.2226    4.0431    1.5941 N   0  0  0  0  0  0  0  0  0  0  0  0
   -3.0573    4.5533    1.8826 H   0  0  0  0  0  0  0  0  0  0  0  0
   -1.6680    3.7613    2.4030 H   0  0  0  0  0  0  0  0  0  0  0  0
    0.3856   -0.9828    1.4067 C   0  0  0  0  0  0  0  0  0  0  0  0
    1.5910   -0.9205    1.6097 O   0  0  0  0  0  0  0  0  0  0  0  0
   -0.4846   -0.5981    2.4111 N   0  0  0  0  0  0  0  0  0  0  0  0
   -1.4721   -0.7339    2.2247 H   0  0  0  0  0  0  0  0  0  0  0  0
   -0.0537   -0.3389    3.7782 C   0  0  0  0  0  0  0  0  0  0  0  0
    0.6889    0.4656    3.8001 H   0  0  0  0  0  0  0  0  0  0  0  0
   -0.9067   -0.0360    4.3928 H   0  0  0  0  0  0  0  0  0  0  0  0
    0.3890   -1.2396    4.2160 H   0  0  0  0  0  0  0  0  0  0  0  0
  1  2  1  0  0  0  0
  2  3  1  0  0  0  0
  2  4  1  0  0  0  0
  2  5  1  0  0  0  0
  5  6  2  0  0  0  0
  5  7  1  0  0  0  0
  7  8  1  0  0  0  0
  7  9  1  0  0  0  0
  9 10  1  0  0  0  0
  9 11  1  0  0  0  0
  9 26  1  0  0  0  0
 11 12  1  0  0  0  0
 11 13  1  0  0  0  0
 11 14  1  0  0  0  0
 14 15  1  0  0  0  0
 14 16  1  0  0  0  0
 14 17  1  0  0  0  0
 17 18  1  0  0  0  0
 17 19  1  0  0  0  0
 17 20  1  0  0  0  0
 20 21  1  0  0  0  0
 20 22  1  0  0  0  0
 20 23  1  0  0  0  0
 23 24  1  0  0  0  0
 23 25  1  0  0  0  0
 26 27  2  0  0  0  0
 26 28  1  0  0  0  0
 28 29  1  0  0  0  0
 28 30  1  0  0  0  0
 30 31  1  0  0  0  0
 30 32  1  0  0  0  0
 30 33  1  0  0  0  0
M  END
$$$$

  -OEChem-03222214063D

 33 32  0     1  0  0  0  0  0999 V2000
   -2.7598   -5.0301    0.5530 H   0  0  0  0  0  0  0  0  0  0  0  0
   -2.8254   -4.0243    0.1279 C   0  0  0  0  0  0  0  0  0  0  0  0
   -3.6652   -3.5011    0.5911 H   0  0  0  0  0  0  0  0  0  0  0  0
   -3.0034   -4.1091   -0.9468 H   0  0  0  0  0  0  0  0  0  0  0  0
   -1.5363   -3.2662    0.3834 C   0  0  0  0  0  0  0  0  0  0  0  0
   -0.6470   -3.7884    1.0305 O   0  0  0  0  0  0  0  0  0  0  0  0
   -1.3855   -1.9861   -0.1136 N   0  0  0  0  0  0  0  0  0  0  0  0
   -2.1197   -1.6496   -0.7289 H   0  0  0  0  0  0  0  0  0  0  0  0
   -0.1300   -1.2111   -0.0506 C   0  0  1  0  0  0  0  0  0  0  0  0
    0.6522   -1.7884   -0.5564 H   0  0  0  0  0  0  0  0  0  0  0  0
   -0.2769    0.1383   -0.7870 C   0  0  0  0  0  0  0  0  0  0  0  0
    0.6015    0.7579   -0.5711 H   0  0  0  0  0  0  0  0  0  0  0  0
   -0.2533   -0.0652   -1.8623 H   0  0  0  0  0  0  0  0  0  0  0  0
   -1.5772    0.9197   -0.4853 C   0  0  0  0  0  0  0  0  0  0  0  0
   -2.1416    1.0531   -1.4142 H   0  0  0  0  0  0  0  0  0  0  0  0
   -2.2163    0.3743    0.2143 H   0  0  0  0  0  0  0  0  0  0  0  0
   -1.2575    2.2928    0.1191 C   0  0  0  0  0  0  0  0  0  0  0  0
   -0.6594    2.1645    1.0276 H   0  0  0  0  0  0  0  0  0  0  0  0
   -0.6665    2.8779   -0.5936 H   0  0  0  0  0  0  0  0  0  0  0  0
   -2.5348    3.0551    0.4602 C   0  0  0  0  0  0  0  0  0  0  0  0
   -3.1493    3.1831   -0.4378 H   0  0  0  0  0  0  0  0  0  0  0  0
   -3.1203    2.4950    1.1974 H   0  0  0  0  0  0  0  0  0  0  0  0
   -2.1631    4.3654    1.0004 N   0  0  0  0  0  0  0  0  0  0  0  0
   -2.9857    4.9026    1.2747 H   0  0  0  0  0  0  0  0  0  0  0  0
   -1.5117    4.2709    1.7803 H   0  0  0  0  0  0  0  0  0  0  0  0
    0.3840   -0.9583    1.3858 C   0  0  0  0  0  0  0  0  0  0  0  0
    1.5879   -0.8875    1.5953 O   0  0  0  0  0  0  0  0  0  0  0  0
   -0.4941   -0.5541    2.3757 N   0  0  0  0  0  0  0  0  0  0  0  0
   -1.4787   -0.7084    2.1882 H   0  0  0  0  0  0  0  0  0  0  0  0
   -0.0734   -0.2766    3.7427 C   0  0  0  0  0  0  0  0  0  0  0  0
    0.6858    0.5125    3.7582 H   0  0  0  0  0  0  0  0  0  0  0  0
   -0.9270    0.0561    4.3408 H   0  0  0  0  0  0  0  0  0  0  0  0
    0.3453   -1.1775    4.2031 H   0  0  0  0  0  0  0  0  0  0  0  0
  1  2  1  0  0  0  0
  2  3  1  0  0  0  0
  2  4  1  0  0  0  0
  2  5  1  0  0  0  0
  5  6  2  0  0  0  0
  5  7  1  0  0  0  0
  7  8  1  0  0  0  0
  7  9  1  0  0  0  0
  9 10  1  0  0  0  0
  9 11  1  0  0  0  0
  9 26  1  0  0  0  0
 11 12  1  0  0  0  0
 11 13  1  0  0  0  0
 11 14  1  0  0  0  0
 14 15  1  0  0  0  0
 14 16  1  0  0  0  0
 14 17  1  0  0  0  0
 17 18  1  0  0  0  0
 17 19  1  0  0  0  0
 17 20  1  0  0  0  0
 20 21  1  0  0  0  0
 20 22  1  0  0  0  0
 20 23  1  0  0  0  0
 23 24  1  0  0  0  0
 23 25  1  0  0  0  0
 26 27  2  0  0  0  0
 26 28  1  0  0  0  0
 28 29  1  0  0  0  0
 28 30  1  0  0  0  0
 30 31  1  0  0  0  0
 30 32  1  0  0  0  0
 30 33  1  0  0  0  0
M  END
$$$$

  -OEChem-03222214063D

 33 32  0     1  0  0  0  0  0999 V2000
   -2.7837   -5.0044    0.5481 H   0  0  0  0  0  0  0  0  0  0  0  0
   -2.8420   -3.9968    0.1262 C   0  0  0  0  0  0  0  0  0  0  0  0
   -3.6737   -3.4666    0.5962 H   0  0  0  0  0  0  0  0  0  0  0  0
   -3.0280   -4.0765   -0.9475 H   0  0  0  0  0  0  0  0  0  0  0  0
   -1.5444   -3.2515    0.3753 C   0  0  0  0  0  0  0  0  0  0  0  0
   -0.6553   -3.7829    1.0152 O   0  0  0  0  0  0  0  0  0  0  0  0
   -1.3890   -1.9677   -0.1105 N   0  0  0  0  0  0  0  0  0  0  0  0
   -2.1243   -1.6197   -0.7182 H   0  0  0  0  0  0  0  0  0  0  0  0
   -0.1294   -1.2006   -0.0427 C   0  0  1  0  0  0  0  0  0  0  0  0
    0.6482   -1.7798   -0.5536 H   0  0  0  0  0  0  0  0  0  0  0  0
   -0.2794    0.1448   -0.7838 C   0  0  0  0  0  0  0  0  0  0  0  0
    0.5893    0.7675   -0.5411 H   0  0  0  0  0  0  0  0  0  0  0  0
   -0.2390   -0.0415   -1.8617 H   0  0  0  0  0  0  0  0  0  0  0  0
   -1.5855    0.9093   -0.4758 C   0  0  0  0  0  0  0  0  0  0  0  0
   -2.2838    0.7921   -1.3111 H   0  0  0  0  0  0  0  0  0  0  0  0
   -2.0671    0.5050    0.4193 H   0  0  0  0  0  0  0  0  0  0  0  0
   -1.3024    2.3958   -0.2298 C   0  0  0  0  0  0  0  0  0  0  0  0
   -0.6024    2.5036    0.6057 H   0  0  0  0  0  0  0  0  0  0  0  0
   -0.8367    2.8321   -1.1199 H   0  0  0  0  0  0  0  0  0  0  0  0
   -2.5875    3.1535    0.0904 C   0  0  0  0  0  0  0  0  0  0  0  0
   -3.3043    3.0459   -0.7313 H   0  0  0  0  0  0  0  0  0  0  0  0
   -3.0458    2.7472    0.9989 H   0  0  0  0  0  0  0  0  0  0  0  0
   -2.2583    4.5683    0.2811 N   0  0  0  0  0  0  0  0  0  0  0  0
   -3.0861    5.1140    0.5206 H   0  0  0  0  0  0  0  0  0  0  0  0
   -1.5289    4.6843    0.9851 H   0  0  0  0  0  0  0  0  0  0  0  0
    0.3967   -0.9594    1.3919 C   0  0  0  0  0  0  0  0  0  0  0  0
    1.6029   -0.8971    1.5904 O   0  0  0  0  0  0  0  0  0  0  0  0
   -0.4681   -0.5569    2.3942 N   0  0  0  0  0  0  0  0  0  0  0  0
   -1.4549   -0.7123    2.2198 H   0  0  0  0  0  0  0  0  0  0  0  0
   -0.0291   -0.2965    3.7588 C   0  0  0  0  0  0  0  0  0  0  0  0
    0.7381    0.4848    3.7721 H   0  0  0  0  0  0  0  0  0  0  0  0
   -0.8720    0.0394    4.3697 H   0  0  0  0  0  0  0  0  0  0  0  0
    0.3855   -1.2061    4.2061 H   0  0  0  0  0  0  0  0  0  0  0  0
  1  2  1  0  0  0  0
  2  3  1  0  0  0  0
  2  4  1  0  0  0  0
  2  5  1  0  0  0  0
  5  6  2  0  0  0  0
  5  7  1  0  0  0  0
  7  8  1  0  0  0  0
  7  9  1  0  0  0  0
  9 10  1  0  0  0  0
  9 11  1  0  0  0  0
  9 26  1  0  0  0  0
 11 12  1  0  0  0  0
 11 13  1  0  0  0  0
 11 14  1  0  0  0  0
 14 15  1  0  0  0  0
 14 16  1  0  0  0  0
 14 17  1  0  0  0  0
 17 18  1  0  0  0  0
 17 19  1  0  0  0  0
 17 20  1  0  0  0  0
 20 21  1  0  0  0  0
 20 22  1  0  0  0  0
 20 23  1  0  0  0  0
 23 24  1  0  0  0  0
 23 25  1  0  0  0  0
 26 27  2  0  0  0  0
 26 28  1  0  0  0  0
 28 29  1  0  0  0  0
 28 30  1  0  0  0  0
 30 31  1  0  0  0  0
 30 32  1  0  0  0  0
 30 33  1  0  0  0  0
M  END
$$$$

  -OEChem-03222214063D

 33 32  0     1  0  0  0  0  0999 V2000
   -2.7787   -5.0069    0.5323 H   0  0  0  0  0  0  0  0  0  0  0  0
   -2.8430   -3.9964    0.1182 C   0  0  0  0  0  0  0  0  0  0  0  0
   -3.6801   -3.4760    0.5893 H   0  0  0  0  0  0  0  0  0  0  0  0
   -3.0242   -4.0693   -0.9568 H   0  0  0  0  0  0  0  0  0  0  0  0
   -1.5516   -3.2441    0.3784 C   0  0  0  0  0  0  0  0  0  0  0  0
   -0.6591   -3.7773    1.0120 O   0  0  0  0  0  0  0  0  0  0  0  0
   -1.4034   -1.9548   -0.0948 N   0  0  0  0  0  0  0  0  0  0  0  0
   -2.1423   -1.6042   -0.6964 H   0  0  0  0  0  0  0  0  0  0  0  0
   -0.1442   -1.1875   -0.0308 C   0  0  1  0  0  0  0  0  0  0  0  0
    0.6279   -1.7666   -0.5504 H   0  0  0  0  0  0  0  0  0  0  0  0
   -0.2972    0.1550   -0.7754 C   0  0  0  0  0  0  0  0  0  0  0  0
    0.5658    0.7819   -0.5233 H   0  0  0  0  0  0  0  0  0  0  0  0
   -0.2522   -0.0267   -1.8541 H   0  0  0  0  0  0  0  0  0  0  0  0
   -1.6036    0.9123   -0.4643 C   0  0  0  0  0  0  0  0  0  0  0  0
   -2.3934    0.5821   -1.1469 H   0  0  0  0  0  0  0  0  0  0  0  0
   -1.9318    0.6968    0.5566 H   0  0  0  0  0  0  0  0  0  0  0  0
   -1.3932    2.4258   -0.5889 C   0  0  0  0  0  0  0  0  0  0  0  0
   -0.6109    2.7484    0.1062 H   0  0  0  0  0  0  0  0  0  0  0  0
   -1.0626    2.6658   -1.6051 H   0  0  0  0  0  0  0  0  0  0  0  0
   -2.6808    3.1861   -0.2848 C   0  0  0  0  0  0  0  0  0  0  0  0
   -3.4786    2.8637   -0.9629 H   0  0  0  0  0  0  0  0  0  0  0  0
   -3.0031    2.9832    0.7425 H   0  0  0  0  0  0  0  0  0  0  0  0
   -2.4264    4.6181   -0.4620 N   0  0  0  0  0  0  0  0  0  0  0  0
   -3.2561    5.1723   -0.2501 H   0  0  0  0  0  0  0  0  0  0  0  0
   -1.6318    4.9222    0.1013 H   0  0  0  0  0  0  0  0  0  0  0  0
    0.4000   -0.9591    1.3997 C   0  0  0  0  0  0  0  0  0  0  0  0
    1.6087   -0.8937    1.5809 O   0  0  0  0  0  0  0  0  0  0  0  0
   -0.4502   -0.5672    2.4186 N   0  0  0  0  0  0  0  0  0  0  0  0
   -1.4382   -0.7319    2.2601 H   0  0  0  0  0  0  0  0  0  0  0  0
    0.0092   -0.3206    3.7793 C   0  0  0  0  0  0  0  0  0  0  0  0
    0.7730    0.4643    3.7908 H   0  0  0  0  0  0  0  0  0  0  0  0
   -0.8257    0.0039    4.4075 H   0  0  0  0  0  0  0  0  0  0  0  0
    0.4353   -1.2332    4.2094 H   0  0  0  0  0  0  0  0  0  0  0  0
  1  2  1  0  0  0  0
  2  3  1  0  0  0  0
  2  4  1  0  0  0  0
  2  5  1  0  0  0  0
  5  6  2  0  0  0  0
  5  7  1  0  0  0  0
  7  8  1  0  0  0  0
  7  9  1  0  0  0  0
  9 10  1  0  0  0  0
  9 11  1  0  0  0  0
  9 26  1  0  0  0  0
 11 12  1  0  0  0  0
 11 13  1  0  0  0  0
 11 14  1  0  0  0  0
 14 15  1  0  0  0  0
 14 16  1  0  0  0  0
 14 17  1  0  0  0  0
 17 18  1  0  0  0  0
 17 19  1  0  0  0  0
 17 20  1  0  0  0  0
 20 21  1  0  0  0  0
 20 22  1  0  0  0  0
 20 23  1  0  0  0  0
 23 24  1  0  0  0  0
 23 25  1  0  0  0  0
 26 27  2  0  0  0  0
 26 28  1  0  0  0  0
 28 29  1  0  0  0  0
 28 30  1  0  0  0  0
 30 31  1  0  0  0  0
 30 32  1  0  0  0  0
 30 33  1  0  0  0  0
M  END
$$$$

  -OEChem-03222214063D

 33 32  0     1  0  0  0  0  0999 V2000
   -2.7623   -5.0164    0.5485 H   0  0  0  0  0  0  0  0  0  0  0  0
   -2.8344   -4.0072    0.1324 C   0  0  0  0  0  0  0  0  0  0  0  0
   -3.6747   -3.4918    0.6034 H   0  0  0  0  0  0  0  0  0  0  0  0
   -3.0170   -4.0836   -0.9421 H   0  0  0  0  0  0  0  0  0  0  0  0
   -1.5480   -3.2448    0.3881 C   0  0  0  0  0  0  0  0  0  0  0  0
   -0.6494   -3.7707    1.0191 O   0  0  0  0  0  0  0  0  0  0  0  0
   -1.4116   -1.9540   -0.0847 N   0  0  0  0  0  0  0  0  0  0  0  0
   -2.1534   -1.6125   -0.6880 H   0  0  0  0  0  0  0  0  0  0  0  0
   -0.1559   -1.1801   -0.0315 C   0  0  1  0  0  0  0  0  0  0  0  0
    0.6140   -1.7566   -0.5566 H   0  0  0  0  0  0  0  0  0  0  0  0
   -0.3148    0.1630   -0.7750 C   0  0  0  0  0  0  0  0  0  0  0  0
    0.5454    0.7964   -0.5301 H   0  0  0  0  0  0  0  0  0  0  0  0
   -0.2782   -0.0235   -1.8529 H   0  0  0  0  0  0  0  0  0  0  0  0
   -1.6182    0.9188   -0.4578 C   0  0  0  0  0  0  0  0  0  0  0  0
   -2.4652    0.4255   -0.9452 H   0  0  0  0  0  0  0  0  0  0  0  0
   -1.7988    0.9167    0.6213 H   0  0  0  0  0  0  0  0  0  0  0  0
   -1.5205    2.3719   -0.9354 C   0  0  0  0  0  0  0  0  0  0  0  0
   -0.6754    2.8659   -0.4447 H   0  0  0  0  0  0  0  0  0  0  0  0
   -1.3413    2.3900   -2.0157 H   0  0  0  0  0  0  0  0  0  0  0  0
   -2.8026    3.1386   -0.6232 C   0  0  0  0  0  0  0  0  0  0  0  0
   -3.6612    2.6449   -1.0922 H   0  0  0  0  0  0  0  0  0  0  0  0
   -2.9715    3.1612    0.4592 H   0  0  0  0  0  0  0  0  0  0  0  0
   -2.6693    4.5025   -1.1426 N   0  0  0  0  0  0  0  0  0  0  0  0
   -3.5008    5.0588   -0.9428 H   0  0  0  0  0  0  0  0  0  0  0  0
   -1.8318    4.9553   -0.7752 H   0  0  0  0  0  0  0  0  0  0  0  0
    0.3972   -0.9532    1.3954 C   0  0  0  0  0  0  0  0  0  0  0  0
    1.6070   -0.8800    1.5679 O   0  0  0  0  0  0  0  0  0  0  0  0
   -0.4490   -0.5690    2.4204 N   0  0  0  0  0  0  0  0  0  0  0  0
   -1.4362   -0.7457    2.2686 H   0  0  0  0  0  0  0  0  0  0  0  0
    0.0178   -0.3307    3.7799 C   0  0  0  0  0  0  0  0  0  0  0  0
    0.7781    0.4573    3.7916 H   0  0  0  0  0  0  0  0  0  0  0  0
   -0.8147   -0.0144    4.4155 H   0  0  0  0  0  0  0  0  0  0  0  0
    0.4508   -1.2445    4.2001 H   0  0  0  0  0  0  0  0  0  0  0  0
  1  2  1  0  0  0  0
  2  3  1  0  0  0  0
  2  4  1  0  0  0  0
  2  5  1  0  0  0  0
  5  6  2  0  0  0  0
  5  7  1  0  0  0  0
  7  8  1  0  0  0  0
  7  9  1  0  0  0  0
  9 10  1  0  0  0  0
  9 11  1  0  0  0  0
  9 26  1  0  0  0  0
 11 12  1  0  0  0  0
 11 13  1  0  0  0  0
 11 14  1  0  0  0  0
 14 15  1  0  0  0  0
 14 16  1  0  0  0  0
 14 17  1  0  0  0  0
 17 18  1  0  0  0  0
 17 19  1  0  0  0  0
 17 20  1  0  0  0  0
 20 21  1  0  0  0  0
 20 22  1  0  0  0  0
 20 23  1  0  0  0  0
 23 24  1  0  0  0  0
 23 25  1  0  0  0  0
 26 27  2  0  0  0  0
 26 28  1  0  0  0  0
 28 29  1  0  0  0  0
 28 30  1  0  0  0  0
 30 31  1  0  0  0  0
 30 32  1  0  0  0  0
 30 33  1  0  0  0  0
M  END
$$$$

  -OEChem-03222214063D

 33 32  0     1  0  0  0  0  0999 V2000
   -2.8001   -4.9804    0.4996 H   0  0  0  0  0  0  0  0  0  0  0  0
   -2.8600   -3.9641    0.0994 C   0  0  0  0  0  0  0  0  0  0  0  0
   -3.6949   -3.4464    0.5772 H   0  0  0  0  0  0  0  0  0  0  0  0
   -3.0425   -4.0213   -0.9763 H   0  0  0  0  0  0  0  0  0  0  0  0
   -1.5644   -3.2214    0.3683 C   0  0  0  0  0  0  0  0  0  0  0  0
   -0.6660   -3.7731    0.9775 O   0  0  0  0  0  0  0  0  0  0  0  0
   -1.4172   -1.9203   -0.0718 N   0  0  0  0  0  0  0  0  0  0  0  0
   -2.1652   -1.5491   -0.6496 H   0  0  0  0  0  0  0  0  0  0  0  0
   -0.1563   -1.1578   -0.0027 C   0  0  1  0  0  0  0  0  0  0  0  0
    0.6020   -1.7402   -0.5384 H   0  0  0  0  0  0  0  0  0  0  0  0
   -0.3078    0.1788   -0.7552 C   0  0  0  0  0  0  0  0  0  0  0  0
    0.6510    0.7082   -0.7187 H   0  0  0  0  0  0  0  0  0  0  0  0
   -0.5205   -0.0366   -1.8073 H   0  0  0  0  0  0  0  0  0  0  0  0
   -1.4094    1.0999   -0.2033 C   0  0  0  0  0  0  0  0  0  0  0  0
   -2.3798    0.5955   -0.2414 H   0  0  0  0  0  0  0  0  0  0  0  0
   -1.1969    1.3513    0.8399 H   0  0  0  0  0  0  0  0  0  0  0  0
   -1.4740    2.3938   -1.0213 C   0  0  0  0  0  0  0  0  0  0  0  0
   -0.5000    2.8932   -0.9978 H   0  0  0  0  0  0  0  0  0  0  0  0
   -1.7066    2.1575   -2.0649 H   0  0  0  0  0  0  0  0  0  0  0  0
   -2.5377    3.3367   -0.4670 C   0  0  0  0  0  0  0  0  0  0  0  0
   -3.5154    2.8419   -0.4621 H   0  0  0  0  0  0  0  0  0  0  0  0
   -2.2914    3.6159    0.5636 H   0  0  0  0  0  0  0  0  0  0  0  0
   -2.5878    4.5299   -1.3161 N   0  0  0  0  0  0  0  0  0  0  0  0
   -3.2806    5.1972   -0.9764 H   0  0  0  0  0  0  0  0  0  0  0  0
   -1.6683    4.9666   -1.3880 H   0  0  0  0  0  0  0  0  0  0  0  0
    0.4125   -0.9642    1.4227 C   0  0  0  0  0  0  0  0  0  0  0  0
    1.6242   -0.8920    1.5811 O   0  0  0  0  0  0  0  0  0  0  0  0
   -0.4191   -0.5963    2.4658 N   0  0  0  0  0  0  0  0  0  0  0  0
   -1.4095   -0.7632    2.3226 H   0  0  0  0  0  0  0  0  0  0  0  0
    0.0658   -0.3838    3.8236 C   0  0  0  0  0  0  0  0  0  0  0  0
    0.8255    0.4046    3.8409 H   0  0  0  0  0  0  0  0  0  0  0  0
   -0.7582   -0.0812    4.4765 H   0  0  0  0  0  0  0  0  0  0  0  0
    0.5050   -1.3049    4.2207 H   0  0  0  0  0  0  0  0  0  0  0  0
  1  2  1  0  0  0  0
  2  3  1  0  0  0  0
  2  4  1  0  0  0  0
  2  5  1  0  0  0  0
  5  6  2  0  0  0  0
  5  7  1  0  0  0  0
  7  8  1  0  0  0  0
  7  9  1  0  0  0  0
  9 10  1  0  0  0  0
  9 11  1  0  0  0  0
  9 26  1  0  0  0  0
 11 12  1  0  0  0  0
 11 13  1  0  0  0  0
 11 14  1  0  0  0  0
 14 15  1  0  0  0  0
 14 16  1  0  0  0  0
 14 17  1  0  0  0  0
 17 18  1  0  0  0  0
 17 19  1  0  0  0  0
 17 20  1  0  0  0  0
 20 21  1  0  0  0  0
 20 22  1  0  0  0  0
 20 23  1  0  0  0  0
 23 24  1  0  0  0  0
 23 25  1  0  0  0  0
 26 27  2  0  0  0  0
 26 28  1  0  0  0  0
 28 29  1  0  0  0  0
 28 30  1  0  0  0  0
 30 31  1  0  0  0  0
 30 32  1  0  0  0  0
 30 33  1  0  0  0  0
M  END
$$$$

  -OEChem-03222214063D

 33 32  0     1  0  0  0  0  0999 V2000
   -2.8113   -4.9724    0.5336 H   0  0  0  0  0  0  0  0  0  0  0  0
   -2.8649   -3.9606    0.1213 C   0  0  0  0  0  0  0  0  0  0  0  0
   -3.6925   -3.4298    0.5978 H   0  0  0  0  0  0  0  0  0  0  0  0
   -3.0535   -4.0289   -0.9528 H   0  0  0  0  0  0  0  0  0  0  0  0
   -1.5621   -3.2255    0.3737 C   0  0  0  0  0  0  0  0  0  0  0  0
   -0.6651   -3.7756    0.9863 O   0  0  0  0  0  0  0  0  0  0  0  0
   -1.4082   -1.9315   -0.0836 N   0  0  0  0  0  0  0  0  0  0  0  0
   -2.1546   -1.5636   -0.6660 H   0  0  0  0  0  0  0  0  0  0  0  0
   -0.1453   -1.1716   -0.0203 C   0  0  1  0  0  0  0  0  0  0  0  0
    0.6143   -1.7548   -0.5531 H   0  0  0  0  0  0  0  0  0  0  0  0
   -0.3002    0.1685   -0.7654 C   0  0  0  0  0  0  0  0  0  0  0  0
    0.6568    0.7017   -0.7512 H   0  0  0  0  0  0  0  0  0  0  0  0
   -0.5298   -0.0553   -1.8123 H   0  0  0  0  0  0  0  0  0  0  0  0
   -1.3976    1.0874   -0.1975 C   0  0  0  0  0  0  0  0  0  0  0  0
   -2.3084    0.5169    0.0071 H   0  0  0  0  0  0  0  0  0  0  0  0
   -1.0559    1.5264    0.7457 H   0  0  0  0  0  0  0  0  0  0  0  0
   -1.7313    2.2010   -1.1958 C   0  0  0  0  0  0  0  0  0  0  0  0
   -0.8242    2.7674   -1.4320 H   0  0  0  0  0  0  0  0  0  0  0  0
   -2.1068    1.7609   -2.1256 H   0  0  0  0  0  0  0  0  0  0  0  0
   -2.7842    3.1463   -0.6247 C   0  0  0  0  0  0  0  0  0  0  0  0
   -3.6882    2.5875   -0.3584 H   0  0  0  0  0  0  0  0  0  0  0  0
   -2.4031    3.6295    0.2817 H   0  0  0  0  0  0  0  0  0  0  0  0
   -3.1033    4.1533   -1.6401 N   0  0  0  0  0  0  0  0  0  0  0  0
   -3.8013    4.8145   -1.2989 H   0  0  0  0  0  0  0  0  0  0  0  0
   -2.2620    4.6413   -1.9484 H   0  0  0  0  0  0  0  0  0  0  0  0
    0.4165   -0.9603    1.4050 C   0  0  0  0  0  0  0  0  0  0  0  0
    1.6273   -0.8943    1.5715 O   0  0  0  0  0  0  0  0  0  0  0  0
   -0.4220   -0.5752    2.4363 N   0  0  0  0  0  0  0  0  0  0  0  0
   -1.4119   -0.7379    2.2864 H   0  0  0  0  0  0  0  0  0  0  0  0
    0.0522   -0.3486    3.7955 C   0  0  0  0  0  0  0  0  0  0  0  0
    0.8199    0.4322    3.8092 H   0  0  0  0  0  0  0  0  0  0  0  0
   -0.7747   -0.0283    4.4362 H   0  0  0  0  0  0  0  0  0  0  0  0
    0.4781   -1.2688    4.2089 H   0  0  0  0  0  0  0  0  0  0  0  0
  1  2  1  0  0  0  0
  2  3  1  0  0  0  0
  2  4  1  0  0  0  0
  2  5  1  0  0  0  0
  5  6  2  0  0  0  0
  5  7  1  0  0  0  0
  7  8  1  0  0  0  0
  7  9  1  0  0  0  0
  9 10  1  0  0  0  0
  9 11  1  0  0  0  0
  9 26  1  0  0  0  0
 11 12  1  0  0  0  0
 11 13  1  0  0  0  0
 11 14  1  0  0  0  0
 14 15  1  0  0  0  0
 14 16  1  0  0  0  0
 14 17  1  0  0  0  0
 17 18  1  0  0  0  0
 17 19  1  0  0  0  0
 17 20  1  0  0  0  0
 20 21  1  0  0  0  0
 20 22  1  0  0  0  0
 20 23  1  0  0  0  0
 23 24  1  0  0  0  0
 23 25  1  0  0  0  0
 26 27  2  0  0  0  0
 26 28  1  0  0  0  0
 28 29  1  0  0  0  0
 28 30  1  0  0  0  0
 30 31  1  0  0  0  0
 30 32  1  0  0  0  0
 30 33  1  0  0  0  0
M  END
$$$$

  -OEChem-03222214063D

 33 32  0     1  0  0  0  0  0999 V2000
   -2.8313   -4.9612    0.5422 H   0  0  0  0  0  0  0  0  0  0  0  0
   -2.8753   -3.9507    0.1260 C   0  0  0  0  0  0  0  0  0  0  0  0
   -3.7010   -3.4120    0.5970 H   0  0  0  0  0  0  0  0  0  0  0  0
   -3.0598   -4.0215   -0.9486 H   0  0  0  0  0  0  0  0  0  0  0  0
   -1.5681   -3.2243    0.3809 C   0  0  0  0  0  0  0  0  0  0  0  0
   -0.6787   -3.7742    1.0050 O   0  0  0  0  0  0  0  0  0  0  0  0
   -1.4034   -1.9352   -0.0858 N   0  0  0  0  0  0  0  0  0  0  0  0
   -2.1475   -1.5653   -0.6703 H   0  0  0  0  0  0  0  0  0  0  0  0
   -0.1367   -1.1814   -0.0250 C   0  0  1  0  0  0  0  0  0  0  0  0
    0.6214   -1.7680   -0.5559 H   0  0  0  0  0  0  0  0  0  0  0  0
   -0.2915    0.1579   -0.7705 C   0  0  0  0  0  0  0  0  0  0  0  0
    0.6650    0.6921   -0.7664 H   0  0  0  0  0  0  0  0  0  0  0  0
   -0.5252   -0.0742   -1.8149 H   0  0  0  0  0  0  0  0  0  0  0  0
   -1.3867    1.0792   -0.1971 C   0  0  0  0  0  0  0  0  0  0  0  0
   -2.1915    0.4917    0.2537 H   0  0  0  0  0  0  0  0  0  0  0  0
   -0.9542    1.7052    0.5907 H   0  0  0  0  0  0  0  0  0  0  0  0
   -1.9929    1.9564   -1.2977 C   0  0  0  0  0  0  0  0  0  0  0  0
   -1.2005    2.5373   -1.7810 H   0  0  0  0  0  0  0  0  0  0  0  0
   -2.4611    1.3229   -2.0586 H   0  0  0  0  0  0  0  0  0  0  0  0
   -3.0390    2.9062   -0.7218 C   0  0  0  0  0  0  0  0  0  0  0  0
   -3.8218    2.3377   -0.2076 H   0  0  0  0  0  0  0  0  0  0  0  0
   -2.5742    3.5807    0.0059 H   0  0  0  0  0  0  0  0  0  0  0  0
   -3.6253    3.6729   -1.8244 N   0  0  0  0  0  0  0  0  0  0  0  0
   -4.3324    4.3260   -1.4861 H   0  0  0  0  0  0  0  0  0  0  0  0
   -2.9039    4.1626   -2.3543 H   0  0  0  0  0  0  0  0  0  0  0  0
    0.4237   -0.9606    1.3994 C   0  0  0  0  0  0  0  0  0  0  0  0
    1.6347   -0.8993    1.5674 O   0  0  0  0  0  0  0  0  0  0  0  0
   -0.4148   -0.5621    2.4258 N   0  0  0  0  0  0  0  0  0  0  0  0
   -1.4050   -0.7231    2.2760 H   0  0  0  0  0  0  0  0  0  0  0  0
    0.0578   -0.3299    3.7846 C   0  0  0  0  0  0  0  0  0  0  0  0
    0.8264    0.4501    3.7963 H   0  0  0  0  0  0  0  0  0  0  0  0
   -0.7698   -0.0062    4.4227 H   0  0  0  0  0  0  0  0  0  0  0  0
    0.4818   -1.2487    4.2033 H   0  0  0  0  0  0  0  0  0  0  0  0
  1  2  1  0  0  0  0
  2  3  1  0  0  0  0
  2  4  1  0  0  0  0
  2  5  1  0  0  0  0
  5  6  2  0  0  0  0
  5  7  1  0  0  0  0
  7  8  1  0  0  0  0
  7  9  1  0  0  0  0
  9 10  1  0  0  0  0
  9 11  1  0  0  0  0
  9 26  1  0  0  0  0
 11 12  1  0  0  0  0
 11 13  1  0  0  0  0
 11 14  1  0  0  0  0
 14 15  1  0  0  0  0
 14 16  1  0  0  0  0
 14 17  1  0  0  0  0
 17 18  1  0  0  0  0
 17 19  1  0  0  0  0
 17 20  1  0  0  0  0
 20 21  1  0  0  0  0
 20 22  1  0  0  0  0
 20 23  1  0  0  0  0
 23 24  1  0  0  0  0
 23 25  1  0  0  0  0
 26 27  2  0  0  0  0
 26 28  1  0  0  0  0
 28 29  1  0  0  0  0
 28 30  1  0  0  0  0
 30 31  1  0  0  0  0
 30 32  1  0  0  0  0
 30 33  1  0  0  0  0
M  END
$$$$

  -OEChem-03222214063D

 33 32  0     1  0  0  0  0  0999 V2000
   -2.8659   -4.9340    0.5474 H   0  0  0  0  0  0  0  0  0  0  0  0
   -2.8991   -3.9224    0.1326 C   0  0  0  0  0  0  0  0  0  0  0  0
   -3.7118   -3.3720    0.6127 H   0  0  0  0  0  0  0  0  0  0  0  0
   -3.0961   -3.9891   -0.9402 H   0  0  0  0  0  0  0  0  0  0  0  0
   -1.5788   -3.2154    0.3748 C   0  0  0  0  0  0  0  0  0  0  0  0
   -0.6898   -3.7805    0.9857 O   0  0  0  0  0  0  0  0  0  0  0  0
   -1.4032   -1.9251   -0.0836 N   0  0  0  0  0  0  0  0  0  0  0  0
   -2.1512   -1.5369   -0.6512 H   0  0  0  0  0  0  0  0  0  0  0  0
   -0.1316   -1.1805   -0.0173 C   0  0  1  0  0  0  0  0  0  0  0  0
    0.6225   -1.7714   -0.5500 H   0  0  0  0  0  0  0  0  0  0  0  0
   -0.2810    0.1567   -0.7669 C   0  0  0  0  0  0  0  0  0  0  0  0
    0.6770    0.6880   -0.7529 H   0  0  0  0  0  0  0  0  0  0  0  0
   -0.4996   -0.0739   -1.8149 H   0  0  0  0  0  0  0  0  0  0  0  0
   -1.3770    1.0835   -0.1994 C   0  0  0  0  0  0  0  0  0  0  0  0
   -2.0379    0.5364    0.4791 H   0  0  0  0  0  0  0  0  0  0  0  0
   -0.9048    1.8836    0.3809 H   0  0  0  0  0  0  0  0  0  0  0  0
   -2.2290    1.6823   -1.3237 C   0  0  0  0  0  0  0  0  0  0  0  0
   -1.5874    2.2372   -2.0162 H   0  0  0  0  0  0  0  0  0  0  0  0
   -2.7157    0.8768   -1.8838 H   0  0  0  0  0  0  0  0  0  0  0  0
   -3.2942    2.6177   -0.7593 C   0  0  0  0  0  0  0  0  0  0  0  0
   -3.9199    2.0846   -0.0347 H   0  0  0  0  0  0  0  0  0  0  0  0
   -2.8191    3.4601   -0.2441 H   0  0  0  0  0  0  0  0  0  0  0  0
   -4.1209    3.1005   -1.8686 N   0  0  0  0  0  0  0  0  0  0  0  0
   -4.8516    3.7311   -1.5374 H   0  0  0  0  0  0  0  0  0  0  0  0
   -3.5483    3.5530   -2.5817 H   0  0  0  0  0  0  0  0  0  0  0  0
    0.4350   -0.9681    1.4059 C   0  0  0  0  0  0  0  0  0  0  0  0
    1.6471   -0.9162    1.5685 O   0  0  0  0  0  0  0  0  0  0  0  0
   -0.3947   -0.5676    2.4383 N   0  0  0  0  0  0  0  0  0  0  0  0
   -1.3870   -0.7206    2.2939 H   0  0  0  0  0  0  0  0  0  0  0  0
    0.0876   -0.3396    3.7945 C   0  0  0  0  0  0  0  0  0  0  0  0
    0.8647    0.4319    3.8010 H   0  0  0  0  0  0  0  0  0  0  0  0
   -0.7329   -0.0058    4.4367 H   0  0  0  0  0  0  0  0  0  0  0  0
    0.5044   -1.2624    4.2115 H   0  0  0  0  0  0  0  0  0  0  0  0
  1  2  1  0  0  0  0
  2  3  1  0  0  0  0
  2  4  1  0  0  0  0
  2  5  1  0  0  0  0
  5  6  2  0  0  0  0
  5  7  1  0  0  0  0
  7  8  1  0  0  0  0
  7  9  1  0  0  0  0
  9 10  1  0  0  0  0
  9 11  1  0  0  0  0
  9 26  1  0  0  0  0
 11 12  1  0  0  0  0
 11 13  1  0  0  0  0
 11 14  1  0  0  0  0
 14 15  1  0  0  0  0
 14 16  1  0  0  0  0
 14 17  1  0  0  0  0
 17 18  1  0  0  0  0
 17 19  1  0  0  0  0
 17 20  1  0  0  0  0
 20 21  1  0  0  0  0
 20 22  1  0  0  0  0
 20 23  1  0  0  0  0
 23 24  1  0  0  0  0
 23 25  1  0  0  0  0
 26 27  2  0  0  0  0
 26 28  1  0  0  0  0
 28 29  1  0  0  0  0
 28 30  1  0  0  0  0
 30 31  1  0  0  0  0
 30 32  1  0  0  0  0
 30 33  1  0  0  0  0
M  END
$$$$

  -OEChem-03222214063D

 33 32  0     1  0  0  0  0  0999 V2000
   -2.9047   -4.8983    0.5501 H   0  0  0  0  0  0  0  0  0  0  0  0
   -2.9273   -3.8845    0.1405 C   0  0  0  0  0  0  0  0  0  0  0  0
   -3.7272   -3.3244    0.6309 H   0  0  0  0  0  0  0  0  0  0  0  0
   -3.1352   -3.9433   -0.9307 H   0  0  0  0  0  0  0  0  0  0  0  0
   -1.5949   -3.1979    0.3727 C   0  0  0  0  0  0  0  0  0  0  0  0
   -0.7034   -3.7813    0.9627 O   0  0  0  0  0  0  0  0  0  0  0  0
   -1.4103   -1.9039   -0.0708 N   0  0  0  0  0  0  0  0  0  0  0  0
   -2.1664   -1.4923   -0.6109 H   0  0  0  0  0  0  0  0  0  0  0  0
   -0.1338   -1.1698   -0.0010 C   0  0  1  0  0  0  0  0  0  0  0  0
    0.6125   -1.7684   -0.5359 H   0  0  0  0  0  0  0  0  0  0  0  0
   -0.2745    0.1610   -0.7638 C   0  0  0  0  0  0  0  0  0  0  0  0
    0.6860    0.6866   -0.7244 H   0  0  0  0  0  0  0  0  0  0  0  0
   -0.4671   -0.0626   -1.8182 H   0  0  0  0  0  0  0  0  0  0  0  0
   -1.3711    1.0960   -0.2109 C   0  0  0  0  0  0  0  0  0  0  0  0
   -1.8588    0.6559    0.6629 H   0  0  0  0  0  0  0  0  0  0  0  0
   -0.9091    2.0349    0.1127 H   0  0  0  0  0  0  0  0  0  0  0  0
   -2.4338    1.3896   -1.2760 C   0  0  0  0  0  0  0  0  0  0  0  0
   -1.9657    1.8647   -2.1443 H   0  0  0  0  0  0  0  0  0  0  0  0
   -2.8884    0.4504   -1.6077 H   0  0  0  0  0  0  0  0  0  0  0  0
   -3.5220    2.3039   -0.7220 C   0  0  0  0  0  0  0  0  0  0  0  0
   -3.9710    1.8572    0.1721 H   0  0  0  0  0  0  0  0  0  0  0  0
   -3.0932    3.2722   -0.4404 H   0  0  0  0  0  0  0  0  0  0  0  0
   -4.5448    2.4801   -1.7564 N   0  0  0  0  0  0  0  0  0  0  0  0
   -5.3010    3.0823   -1.4295 H   0  0  0  0  0  0  0  0  0  0  0  0
   -4.1362    2.8476   -2.6161 H   0  0  0  0  0  0  0  0  0  0  0  0
    0.4472   -0.9738    1.4195 C   0  0  0  0  0  0  0  0  0  0  0  0
    1.6613   -0.9322    1.5694 O   0  0  0  0  0  0  0  0  0  0  0  0
   -0.3661   -0.5774    2.4665 N   0  0  0  0  0  0  0  0  0  0  0  0
   -1.3610   -0.7242    2.3341 H   0  0  0  0  0  0  0  0  0  0  0  0
    0.1346   -0.3667    3.8189 C   0  0  0  0  0  0  0  0  0  0  0  0
    0.9154    0.4013    3.8248 H   0  0  0  0  0  0  0  0  0  0  0  0
   -0.6763   -0.0367    4.4752 H   0  0  0  0  0  0  0  0  0  0  0  0
    0.5520   -1.2962    4.2202 H   0  0  0  0  0  0  0  0  0  0  0  0
  1  2  1  0  0  0  0
  2  3  1  0  0  0  0
  2  4  1  0  0  0  0
  2  5  1  0  0  0  0
  5  6  2  0  0  0  0
  5  7  1  0  0  0  0
  7  8  1  0  0  0  0
  7  9  1  0  0  0  0
  9 10  1  0  0  0  0
  9 11  1  0  0  0  0
  9 26  1  0  0  0  0
 11 12  1  0  0  0  0
 11 13  1  0  0  0  0
 11 14  1  0  0  0  0
 14 15  1  0  0  0  0
 14 16  1  0  0  0  0
 14 17  1  0  0  0  0
 17 18  1  0  0  0  0
 17 19  1  0  0  0  0
 17 20  1  0  0  0  0
 20 21  1  0  0  0  0
 20 22  1  0  0  0  0
 20 23  1  0  0  0  0
 23 24  1  0  0  0  0
 23 25  1  0  0  0  0
 26 27  2  0  0  0  0
 26 28  1  0  0  0  0
 28 29  1  0  0  0  0
 28 30  1  0  0  0  0
 30 31  1  0  0  0  0
 30 32  1  0  0  0  0
 30 33  1  0  0  0  0
M  END
$$$$

  -OEChem-03222214063D

 33 32  0     1  0  0  0  0  0999 V2000
   -2.9132   -4.8906    0.5833 H   0  0  0  0  0  0  0  0  0  0  0  0
   -2.9357   -3.8780    0.1707 C   0  0  0  0  0  0  0  0  0  0  0  0
   -3.7235   -3.3110    0.6725 H   0  0  0  0  0  0  0  0  0  0  0  0
   -3.1620   -3.9379   -0.8965 H   0  0  0  0  0  0  0  0  0  0  0  0
   -1.5948   -3.1991    0.3779 C   0  0  0  0  0  0  0  0  0  0  0  0
   -0.6917   -3.7926    0.9396 O   0  0  0  0  0  0  0  0  0  0  0  0
   -1.4145   -1.9014   -0.0562 N   0  0  0  0  0  0  0  0  0  0  0  0
   -2.1871   -1.4733   -0.5585 H   0  0  0  0  0  0  0  0  0  0  0  0
   -0.1399   -1.1651    0.0084 C   0  0  1  0  0  0  0  0  0  0  0  0
    0.6021   -1.7681   -0.5271 H   0  0  0  0  0  0  0  0  0  0  0  0
   -0.2707    0.1612   -0.7671 C   0  0  0  0  0  0  0  0  0  0  0  0
    0.6934    0.6782   -0.7071 H   0  0  0  0  0  0  0  0  0  0  0  0
   -0.4448   -0.0568   -1.8259 H   0  0  0  0  0  0  0  0  0  0  0  0
   -1.3629    1.1131   -0.2376 C   0  0  0  0  0  0  0  0  0  0  0  0
   -1.6619    0.8448    0.7783 H   0  0  0  0  0  0  0  0  0  0  0  0
   -0.9544    2.1284   -0.1982 H   0  0  0  0  0  0  0  0  0  0  0  0
   -2.5917    1.1134   -1.1561 C   0  0  0  0  0  0  0  0  0  0  0  0
   -2.3072    1.4650   -2.1533 H   0  0  0  0  0  0  0  0  0  0  0  0
   -2.9798    0.0954   -1.2558 H   0  0  0  0  0  0  0  0  0  0  0  0
   -3.6908    2.0101   -0.5963 C   0  0  0  0  0  0  0  0  0  0  0  0
   -3.9501    1.6982    0.4216 H   0  0  0  0  0  0  0  0  0  0  0  0
   -3.3470    3.0499   -0.5566 H   0  0  0  0  0  0  0  0  0  0  0  0
   -4.8644    1.8906   -1.4657 N   0  0  0  0  0  0  0  0  0  0  0  0
   -5.6394    2.4573   -1.1195 H   0  0  0  0  0  0  0  0  0  0  0  0
   -4.6346    2.1420   -2.4276 H   0  0  0  0  0  0  0  0  0  0  0  0
    0.4502   -0.9802    1.4270 C   0  0  0  0  0  0  0  0  0  0  0  0
    1.6653   -0.9323    1.5679 O   0  0  0  0  0  0  0  0  0  0  0  0
   -0.3558   -0.5954    2.4840 N   0  0  0  0  0  0  0  0  0  0  0  0
   -1.3518   -0.7410    2.3580 H   0  0  0  0  0  0  0  0  0  0  0  0
    0.1545   -0.3886    3.8332 C   0  0  0  0  0  0  0  0  0  0  0  0
    0.9351    0.3795    3.8355 H   0  0  0  0  0  0  0  0  0  0  0  0
   -0.6516   -0.0603    4.4960 H   0  0  0  0  0  0  0  0  0  0  0  0
    0.5742   -1.3194    4.2294 H   0  0  0  0  0  0  0  0  0  0  0  0
  1  2  1  0  0  0  0
  2  3  1  0  0  0  0
  2  4  1  0  0  0  0
  2  5  1  0  0  0  0
  5  6  2  0  0  0  0
  5  7  1  0  0  0  0
  7  8  1  0  0  0  0
  7  9  1  0  0  0  0
  9 10  1  0  0  0  0
  9 11  1  0  0  0  0
  9 26  1  0  0  0  0
 11 12  1  0  0  0  0
 11 13  1  0  0  0  0
 11 14  1  0  0  0  0
 14 15  1  0  0  0  0
 14 16  1  0  0  0  0
 14 17  1  0  0  0  0
 17 18  1  0  0  0  0
 17 19  1  0  0  0  0
 17 20  1  0  0  0  0
 20 21  1  0  0  0  0
 20 22  1  0  0  0  0
 20 23  1  0  0  0  0
 23 24  1  0  0  0  0
 23 25  1  0  0  0  0
 26 27  2  0  0  0  0
 26 28  1  0  0  0  0
 28 29  1  0  0  0  0
 28 30  1  0  0  0  0
 30 31  1  0  0  0  0
 30 32  1  0  0  0  0
 30 33  1  0  0  0  0
M  END
$$$$

  -OEChem-03222214063D

 33 32  0     1  0  0  0  0  0999 V2000
   -2.7707   -5.0184    0.6192 H   0  0  0  0  0  0  0  0  0  0  0  0
   -2.8340   -4.0129    0.1934 C   0  0  0  0  0  0  0  0  0  0  0  0
   -3.6516   -3.4761    0.6803 H   0  0  0  0  0  0  0  0  0  0  0  0
   -3.0465   -4.0960   -0.8750 H   0  0  0  0  0  0  0  0  0  0  0  0
   -1.5266   -3.2732    0.4058 C   0  0  0  0  0  0  0  0  0  0  0  0
   -0.5981   -3.8279    0.9657 O   0  0  0  0  0  0  0  0  0  0  0  0
   -1.4012   -1.9704   -0.0330 N   0  0  0  0  0  0  0  0  0  0  0  0
   -2.1852   -1.5859   -0.5518 H   0  0  0  0  0  0  0  0  0  0  0  0
   -0.1532   -1.1896    0.0103 C   0  0  1  0  0  0  0  0  0  0  0  0
    0.6003   -1.7715   -0.5324 H   0  0  0  0  0  0  0  0  0  0  0  0
   -0.3125    0.1421   -0.7558 C   0  0  0  0  0  0  0  0  0  0  0  0
    0.6470    0.6676   -0.6973 H   0  0  0  0  0  0  0  0  0  0  0  0
   -0.4896   -0.0733   -1.8144 H   0  0  0  0  0  0  0  0  0  0  0  0
   -1.4076    1.0985   -0.2380 C   0  0  0  0  0  0  0  0  0  0  0  0
   -1.5030    1.0306    0.8483 H   0  0  0  0  0  0  0  0  0  0  0  0
   -1.0944    2.1223   -0.4685 H   0  0  0  0  0  0  0  0  0  0  0  0
   -2.7719    0.8576   -0.9016 C   0  0  0  0  0  0  0  0  0  0  0  0
   -2.6701    0.9260   -1.9897 H   0  0  0  0  0  0  0  0  0  0  0  0
   -3.1438   -0.1399   -0.6585 H   0  0  0  0  0  0  0  0  0  0  0  0
   -3.7943    1.8833   -0.4241 C   0  0  0  0  0  0  0  0  0  0  0  0
   -3.8852    1.8440    0.6672 H   0  0  0  0  0  0  0  0  0  0  0  0
   -3.4764    2.8942   -0.7028 H   0  0  0  0  0  0  0  0  0  0  0  0
   -5.0835    1.5651   -1.0443 N   0  0  0  0  0  0  0  0  0  0  0  0
   -5.8152    2.1976   -0.7182 H   0  0  0  0  0  0  0  0  0  0  0  0
   -5.0151    1.5872   -2.0622 H   0  0  0  0  0  0  0  0  0  0  0  0
    0.4443   -0.9874    1.4232 C   0  0  0  0  0  0  0  0  0  0  0  0
    1.6583   -0.8964    1.5528 O   0  0  0  0  0  0  0  0  0  0  0  0
   -0.3646   -0.6330    2.4883 N   0  0  0  0  0  0  0  0  0  0  0  0
   -1.3577   -0.8041    2.3690 H   0  0  0  0  0  0  0  0  0  0  0  0
    0.1517   -0.4027    3.8318 C   0  0  0  0  0  0  0  0  0  0  0  0
    0.8783    0.4168    3.8289 H   0  0  0  0  0  0  0  0  0  0  0  0
   -0.6644   -0.1361    4.5100 H   0  0  0  0  0  0  0  0  0  0  0  0
    0.6404   -1.3057    4.2129 H   0  0  0  0  0  0  0  0  0  0  0  0
  1  2  1  0  0  0  0
  2  3  1  0  0  0  0
  2  4  1  0  0  0  0
  2  5  1  0  0  0  0
  5  6  2  0  0  0  0
  5  7  1  0  0  0  0
  7  8  1  0  0  0  0
  7  9  1  0  0  0  0
  9 10  1  0  0  0  0
  9 11  1  0  0  0  0
  9 26  1  0  0  0  0
 11 12  1  0  0  0  0
 11 13  1  0  0  0  0
 11 14  1  0  0  0  0
 14 15  1  0  0  0  0
 14 16  1  0  0  0  0
 14 17  1  0  0  0  0
 17 18  1  0  0  0  0
 17 19  1  0  0  0  0
 17 20  1  0  0  0  0
 20 21  1  0  0  0  0
 20 22  1  0  0  0  0
 20 23  1  0  0  0  0
 23 24  1  0  0  0  0
 23 25  1  0  0  0  0
 26 27  2  0  0  0  0
 26 28  1  0  0  0  0
 28 29  1  0  0  0  0
 28 30  1  0  0  0  0
 30 31  1  0  0  0  0
 30 32  1  0  0  0  0
 30 33  1  0  0  0  0
M  END
$$$$

  -OEChem-03222214063D

 33 32  0     1  0  0  0  0  0999 V2000
   -2.6582   -5.0931    0.6537 H   0  0  0  0  0  0  0  0  0  0  0  0
   -2.7474   -4.0934    0.2192 C   0  0  0  0  0  0  0  0  0  0  0  0
   -3.5572   -3.5614    0.7244 H   0  0  0  0  0  0  0  0  0  0  0  0
   -2.9904   -4.1920   -0.8415 H   0  0  0  0  0  0  0  0  0  0  0  0
   -1.4442   -3.3343    0.3847 C   0  0  0  0  0  0  0  0  0  0  0  0
   -0.4867   -3.8781    0.9053 O   0  0  0  0  0  0  0  0  0  0  0  0
   -1.3570   -2.0266   -0.0492 N   0  0  0  0  0  0  0  0  0  0  0  0
   -2.1708   -1.6446   -0.5226 H   0  0  0  0  0  0  0  0  0  0  0  0
   -0.1321   -1.2106   -0.0134 C   0  0  1  0  0  0  0  0  0  0  0  0
    0.6344   -1.7605   -0.5712 H   0  0  0  0  0  0  0  0  0  0  0  0
   -0.3313    0.1400   -0.7398 C   0  0  0  0  0  0  0  0  0  0  0  0
    0.6221    0.6784   -0.6967 H   0  0  0  0  0  0  0  0  0  0  0  0
   -0.5339   -0.0600   -1.7967 H   0  0  0  0  0  0  0  0  0  0  0  0
   -1.4282    1.0832   -0.1976 C   0  0  0  0  0  0  0  0  0  0  0  0
   -1.3266    1.2025    0.8846 H   0  0  0  0  0  0  0  0  0  0  0  0
   -1.2546    2.0683   -0.6437 H   0  0  0  0  0  0  0  0  0  0  0  0
   -2.8631    0.6536   -0.5403 C   0  0  0  0  0  0  0  0  0  0  0  0
   -2.9351    0.4164   -1.6066 H   0  0  0  0  0  0  0  0  0  0  0  0
   -3.1401   -0.2346    0.0318 H   0  0  0  0  0  0  0  0  0  0  0  0
   -3.8554    1.7608   -0.1992 C   0  0  0  0  0  0  0  0  0  0  0  0
   -3.7814    2.0157    0.8641 H   0  0  0  0  0  0  0  0  0  0  0  0
   -3.6352    2.6627   -0.7810 H   0  0  0  0  0  0  0  0  0  0  0  0
   -5.2044    1.2750   -0.5045 N   0  0  0  0  0  0  0  0  0  0  0  0
   -5.9120    1.9539   -0.2221 H   0  0  0  0  0  0  0  0  0  0  0  0
   -5.2974    1.0491   -1.4950 H   0  0  0  0  0  0  0  0  0  0  0  0
    0.4567   -1.0070    1.4019 C   0  0  0  0  0  0  0  0  0  0  0  0
    1.6672   -0.8860    1.5386 O   0  0  0  0  0  0  0  0  0  0  0  0
   -0.3697   -0.6857    2.4644 N   0  0  0  0  0  0  0  0  0  0  0  0
   -1.3602   -0.8613    2.3310 H   0  0  0  0  0  0  0  0  0  0  0  0
    0.1274   -0.4417    3.8123 C   0  0  0  0  0  0  0  0  0  0  0  0
    0.8372    0.3920    3.8141 H   0  0  0  0  0  0  0  0  0  0  0  0
   -0.7008   -0.1895    4.4811 H   0  0  0  0  0  0  0  0  0  0  0  0
    0.6299   -1.3336    4.2009 H   0  0  0  0  0  0  0  0  0  0  0  0
  1  2  1  0  0  0  0
  2  3  1  0  0  0  0
  2  4  1  0  0  0  0
  2  5  1  0  0  0  0
  5  6  2  0  0  0  0
  5  7  1  0  0  0  0
  7  8  1  0  0  0  0
  7  9  1  0  0  0  0
  9 10  1  0  0  0  0
  9 11  1  0  0  0  0
  9 26  1  0  0  0  0
 11 12  1  0  0  0  0
 11 13  1  0  0  0  0
 11 14  1  0  0  0  0
 14 15  1  0  0  0  0
 14 16  1  0  0  0  0
 14 17  1  0  0  0  0
 17 18  1  0  0  0  0
 17 19  1  0  0  0  0
 17 20  1  0  0  0  0
 20 21  1  0  0  0  0
 20 22  1  0  0  0  0
 20 23  1  0  0  0  0
 23 24  1  0  0  0  0
 23 25  1  0  0  0  0
 26 27  2  0  0  0  0
 26 28  1  0  0  0  0
 28 29  1  0  0  0  0
 28 30  1  0  0  0  0
 30 31  1  0  0  0  0
 30 32  1  0  0  0  0
 30 33  1  0  0  0  0
M  END
$$$$

  -OEChem-03222214063D

 33 32  0     1  0  0  0  0  0999 V2000
   -2.5884   -5.1340    0.6734 H   0  0  0  0  0  0  0  0  0  0  0  0
   -2.6980   -4.1317    0.2492 C   0  0  0  0  0  0  0  0  0  0  0  0
   -3.4869   -3.6045    0.7911 H   0  0  0  0  0  0  0  0  0  0  0  0
   -2.9841   -4.2241   -0.8012 H   0  0  0  0  0  0  0  0  0  0  0  0
   -1.3911   -3.3707    0.3650 C   0  0  0  0  0  0  0  0  0  0  0  0
   -0.4115   -3.9141    0.8428 O   0  0  0  0  0  0  0  0  0  0  0  0
   -1.3226   -2.0629   -0.0715 N   0  0  0  0  0  0  0  0  0  0  0  0
   -2.1660   -1.6663   -0.4762 H   0  0  0  0  0  0  0  0  0  0  0  0
   -0.1099   -1.2278   -0.0375 C   0  0  1  0  0  0  0  0  0  0  0  0
    0.6649   -1.7615   -0.5994 H   0  0  0  0  0  0  0  0  0  0  0  0
   -0.3228    0.1343   -0.7389 C   0  0  0  0  0  0  0  0  0  0  0  0
    0.6296    0.6752   -0.7164 H   0  0  0  0  0  0  0  0  0  0  0  0
   -0.5500   -0.0652   -1.7909 H   0  0  0  0  0  0  0  0  0  0  0  0
   -1.4162    1.0793   -0.1890 C   0  0  0  0  0  0  0  0  0  0  0  0
   -1.1558    1.3776    0.8314 H   0  0  0  0  0  0  0  0  0  0  0  0
   -1.3968    1.9867   -0.8015 H   0  0  0  0  0  0  0  0  0  0  0  0
   -2.8468    0.5219   -0.1961 C   0  0  0  0  0  0  0  0  0  0  0  0
   -3.0697    0.0905   -1.1770 H   0  0  0  0  0  0  0  0  0  0  0  0
   -2.9516   -0.2568    0.5634 H   0  0  0  0  0  0  0  0  0  0  0  0
   -3.8585    1.6187    0.1170 C   0  0  0  0  0  0  0  0  0  0  0  0
   -3.6420    2.0574    1.0976 H   0  0  0  0  0  0  0  0  0  0  0  0
   -3.8024    2.4159   -0.6327 H   0  0  0  0  0  0  0  0  0  0  0  0
   -5.1953    1.0173    0.1215 N   0  0  0  0  0  0  0  0  0  0  0  0
   -5.9000    1.6914    0.4233 H   0  0  0  0  0  0  0  0  0  0  0  0
   -5.4300    0.6377   -0.7957 H   0  0  0  0  0  0  0  0  0  0  0  0
    0.4673   -1.0180    1.3813 C   0  0  0  0  0  0  0  0  0  0  0  0
    1.6754   -0.8878    1.5307 O   0  0  0  0  0  0  0  0  0  0  0  0
   -0.3742   -0.7099    2.4359 N   0  0  0  0  0  0  0  0  0  0  0  0
   -1.3641   -0.8753    2.2854 H   0  0  0  0  0  0  0  0  0  0  0  0
    0.1028   -0.4706    3.7917 C   0  0  0  0  0  0  0  0  0  0  0  0
    0.8010    0.3729    3.8101 H   0  0  0  0  0  0  0  0  0  0  0  0
   -0.7374   -0.2358    4.4519 H   0  0  0  0  0  0  0  0  0  0  0  0
    0.6122   -1.3591    4.1795 H   0  0  0  0  0  0  0  0  0  0  0  0
  1  2  1  0  0  0  0
  2  3  1  0  0  0  0
  2  4  1  0  0  0  0
  2  5  1  0  0  0  0
  5  6  2  0  0  0  0
  5  7  1  0  0  0  0
  7  8  1  0  0  0  0
  7  9  1  0  0  0  0
  9 10  1  0  0  0  0
  9 11  1  0  0  0  0
  9 26  1  0  0  0  0
 11 12  1  0  0  0  0
 11 13  1  0  0  0  0
 11 14  1  0  0  0  0
 14 15  1  0  0  0  0
 14 16  1  0  0  0  0
 14 17  1  0  0  0  0
 17 18  1  0  0  0  0
 17 19  1  0  0  0  0
 17 20  1  0  0  0  0
 20 21  1  0  0  0  0
 20 22  1  0  0  0  0
 20 23  1  0  0  0  0
 23 24  1  0  0  0  0
 23 25  1  0  0  0  0
 26 27  2  0  0  0  0
 26 28  1  0  0  0  0
 28 29  1  0  0  0  0
 28 30  1  0  0  0  0
 30 31  1  0  0  0  0
 30 32  1  0  0  0  0
 30 33  1  0  0  0  0
M  END
$$$$

  -OEChem-03222214063D

 33 32  0     1  0  0  0  0  0999 V2000
   -2.5316   -5.1771    0.6691 H   0  0  0  0  0  0  0  0  0  0  0  0
   -2.6551   -4.1730    0.2535 C   0  0  0  0  0  0  0  0  0  0  0  0
   -3.4336   -3.6527    0.8166 H   0  0  0  0  0  0  0  0  0  0  0  0
   -2.9655   -4.2605   -0.7905 H   0  0  0  0  0  0  0  0  0  0  0  0
   -1.3489   -3.4070    0.3435 C   0  0  0  0  0  0  0  0  0  0  0  0
   -0.3583   -3.9460    0.8034 O   0  0  0  0  0  0  0  0  0  0  0  0
   -1.2955   -2.0972   -0.0890 N   0  0  0  0  0  0  0  0  0  0  0  0
   -2.1528   -1.6964   -0.4576 H   0  0  0  0  0  0  0  0  0  0  0  0
   -0.0943   -1.2460   -0.0419 C   0  0  1  0  0  0  0  0  0  0  0  0
    0.6909   -1.7700   -0.5985 H   0  0  0  0  0  0  0  0  0  0  0  0
   -0.3098    0.1191   -0.7385 C   0  0  0  0  0  0  0  0  0  0  0  0
    0.6413    0.6631   -0.7253 H   0  0  0  0  0  0  0  0  0  0  0  0
   -0.5375   -0.0936   -1.7878 H   0  0  0  0  0  0  0  0  0  0  0  0
   -1.4120    1.0733   -0.2146 C   0  0  0  0  0  0  0  0  0  0  0  0
   -1.0393    1.5477    0.6996 H   0  0  0  0  0  0  0  0  0  0  0  0
   -1.5458    1.8666   -0.9576 H   0  0  0  0  0  0  0  0  0  0  0  0
   -2.7820    0.4542    0.1009 C   0  0  0  0  0  0  0  0  0  0  0  0
   -3.1535   -0.0818   -0.7782 H   0  0  0  0  0  0  0  0  0  0  0  0
   -2.6991   -0.2486    0.9334 H   0  0  0  0  0  0  0  0  0  0  0  0
   -3.7871    1.5300    0.4983 C   0  0  0  0  0  0  0  0  0  0  0  0
   -3.4311    2.0628    1.3876 H   0  0  0  0  0  0  0  0  0  0  0  0
   -3.9076    2.2600   -0.3101 H   0  0  0  0  0  0  0  0  0  0  0  0
   -5.0656    0.8725    0.7860 N   0  0  0  0  0  0  0  0  0  0  0  0
   -5.7395    1.5336    1.1741 H   0  0  0  0  0  0  0  0  0  0  0  0
   -5.4427    0.4220   -0.0477 H   0  0  0  0  0  0  0  0  0  0  0  0
    0.4732   -1.0282    1.3797 C   0  0  0  0  0  0  0  0  0  0  0  0
    1.6793   -0.8871    1.5340 O   0  0  0  0  0  0  0  0  0  0  0  0
   -0.3729   -0.7314    2.4336 N   0  0  0  0  0  0  0  0  0  0  0  0
   -1.3631   -0.8915    2.2796 H   0  0  0  0  0  0  0  0  0  0  0  0
    0.0995   -0.4773    3.7882 C   0  0  0  0  0  0  0  0  0  0  0  0
    0.7867    0.3751    3.8013 H   0  0  0  0  0  0  0  0  0  0  0  0
   -0.7443   -0.2493    4.4463 H   0  0  0  0  0  0  0  0  0  0  0  0
    0.6207   -1.3563    4.1819 H   0  0  0  0  0  0  0  0  0  0  0  0
  1  2  1  0  0  0  0
  2  3  1  0  0  0  0
  2  4  1  0  0  0  0
  2  5  1  0  0  0  0
  5  6  2  0  0  0  0
  5  7  1  0  0  0  0
  7  8  1  0  0  0  0
  7  9  1  0  0  0  0
  9 10  1  0  0  0  0
  9 11  1  0  0  0  0
  9 26  1  0  0  0  0
 11 12  1  0  0  0  0
 11 13  1  0  0  0  0
 11 14  1  0  0  0  0
 14 15  1  0  0  0  0
 14 16  1  0  0  0  0
 14 17  1  0  0  0  0
 17 18  1  0  0  0  0
 17 19  1  0  0  0  0
 17 20  1  0  0  0  0
 20 21  1  0  0  0  0
 20 22  1  0  0  0  0
 20 23  1  0  0  0  0
 23 24  1  0  0  0  0
 23 25  1  0  0  0  0
 26 27  2  0  0  0  0
 26 28  1  0  0  0  0
 28 29  1  0  0  0  0
 28 30  1  0  0  0  0
 30 31  1  0  0  0  0
 30 32  1  0  0  0  0
 30 33  1  0  0  0  0
M  END
$$$$

  -OEChem-03222214063D

 33 32  0     1  0  0  0  0  0999 V2000
   -2.4651   -5.2275    0.6013 H   0  0  0  0  0  0  0  0  0  0  0  0
   -2.6114   -4.2145    0.2159 C   0  0  0  0  0  0  0  0  0  0  0  0
   -3.3878   -3.7228    0.8070 H   0  0  0  0  0  0  0  0  0  0  0  0
   -2.9386   -4.2776   -0.8246 H   0  0  0  0  0  0  0  0  0  0  0  0
   -1.3154   -3.4310    0.3042 C   0  0  0  0  0  0  0  0  0  0  0  0
   -0.3063   -3.9691    0.7232 O   0  0  0  0  0  0  0  0  0  0  0  0
   -1.2931   -2.1052   -0.0783 N   0  0  0  0  0  0  0  0  0  0  0  0
   -2.1658   -1.7017   -0.4046 H   0  0  0  0  0  0  0  0  0  0  0  0
   -0.1070   -1.2351   -0.0099 C   0  0  1  0  0  0  0  0  0  0  0  0
    0.6769   -1.7471   -0.5799 H   0  0  0  0  0  0  0  0  0  0  0  0
   -0.3297    0.1241   -0.7144 C   0  0  0  0  0  0  0  0  0  0  0  0
    0.6147    0.6791   -0.6964 H   0  0  0  0  0  0  0  0  0  0  0  0
   -0.5371   -0.1069   -1.7642 H   0  0  0  0  0  0  0  0  0  0  0  0
   -1.4541    1.0789   -0.2360 C   0  0  0  0  0  0  0  0  0  0  0  0
   -1.0142    1.7328    0.5250 H   0  0  0  0  0  0  0  0  0  0  0  0
   -1.7453    1.7151   -1.0786 H   0  0  0  0  0  0  0  0  0  0  0  0
   -2.7167    0.4558    0.3809 C   0  0  0  0  0  0  0  0  0  0  0  0
   -2.4667   -0.1650    1.2417 H   0  0  0  0  0  0  0  0  0  0  0  0
   -3.2135   -0.1705   -0.3660 H   0  0  0  0  0  0  0  0  0  0  0  0
   -3.6843    1.5387    0.8451 C   0  0  0  0  0  0  0  0  0  0  0  0
   -3.2098    2.1599    1.6133 H   0  0  0  0  0  0  0  0  0  0  0  0
   -3.9638    2.1871    0.0070 H   0  0  0  0  0  0  0  0  0  0  0  0
   -4.8722    0.8798    1.3964 N   0  0  0  0  0  0  0  0  0  0  0  0
   -5.5031    1.5583    1.8249 H   0  0  0  0  0  0  0  0  0  0  0  0
   -5.3578    0.3383    0.6815 H   0  0  0  0  0  0  0  0  0  0  0  0
    0.5006   -1.0385    1.3998 C   0  0  0  0  0  0  0  0  0  0  0  0
    1.7094   -0.8786    1.5116 O   0  0  0  0  0  0  0  0  0  0  0  0
   -0.3009   -0.7845    2.4980 N   0  0  0  0  0  0  0  0  0  0  0  0
   -1.2947   -0.9557    2.3868 H   0  0  0  0  0  0  0  0  0  0  0  0
    0.2258   -0.5344    3.8332 C   0  0  0  0  0  0  0  0  0  0  0  0
    0.8573    0.3601    3.8343 H   0  0  0  0  0  0  0  0  0  0  0  0
   -0.5949   -0.3784    4.5398 H   0  0  0  0  0  0  0  0  0  0  0  0
    0.8213   -1.3873    4.1753 H   0  0  0  0  0  0  0  0  0  0  0  0
  1  2  1  0  0  0  0
  2  3  1  0  0  0  0
  2  4  1  0  0  0  0
  2  5  1  0  0  0  0
  5  6  2  0  0  0  0
  5  7  1  0  0  0  0
  7  8  1  0  0  0  0
  7  9  1  0  0  0  0
  9 10  1  0  0  0  0
  9 11  1  0  0  0  0
  9 26  1  0  0  0  0
 11 12  1  0  0  0  0
 11 13  1  0  0  0  0
 11 14  1  0  0  0  0
 14 15  1  0  0  0  0
 14 16  1  0  0  0  0
 14 17  1  0  0  0  0
 17 18  1  0  0  0  0
 17 19  1  0  0  0  0
 17 20  1  0  0  0  0
 20 21  1  0  0  0  0
 20 22  1  0  0  0  0
 20 23  1  0  0  0  0
 23 24  1  0  0  0  0
 23 25  1  0  0  0  0
 26 27  2  0  0  0  0
 26 28  1  0  0  0  0
 28 29  1  0  0  0  0
 28 30  1  0  0  0  0
 30 31  1  0  0  0  0
 30 32  1  0  0  0  0
 30 33  1  0  0  0  0
M  END
$$$$

  -OEChem-03222214063D

 33 32  0     1  0  0  0  0  0999 V2000
   -2.5937   -5.2178    0.4898 H   0  0  0  0  0  0  0  0  0  0  0  0
   -2.7019   -4.1945    0.1191 C   0  0  0  0  0  0  0  0  0  0  0  0
   -3.5169   -3.7082    0.6607 H   0  0  0  0  0  0  0  0  0  0  0  0
   -2.9486   -4.2304   -0.9446 H   0  0  0  0  0  0  0  0  0  0  0  0
   -1.4109   -3.4257    0.3277 C   0  0  0  0  0  0  0  0  0  0  0  0
   -0.4611   -3.9702    0.8624 O   0  0  0  0  0  0  0  0  0  0  0  0
   -1.3241   -2.1133   -0.0917 N   0  0  0  0  0  0  0  0  0  0  0  0
   -2.1555   -1.7064   -0.5068 H   0  0  0  0  0  0  0  0  0  0  0  0
   -0.1653   -1.2388    0.1480 C   0  0  1  0  0  0  0  0  0  0  0  0
    0.6975   -1.8039   -0.2241 H   0  0  0  0  0  0  0  0  0  0  0  0
   -0.1805    0.0515   -0.7121 C   0  0  0  0  0  0  0  0  0  0  0  0
    0.7640    0.5738   -0.5229 H   0  0  0  0  0  0  0  0  0  0  0  0
   -0.1376   -0.2912   -1.7512 H   0  0  0  0  0  0  0  0  0  0  0  0
   -1.3122    1.1207   -0.6576 C   0  0  0  0  0  0  0  0  0  0  0  0
   -0.8994    2.0173   -0.1830 H   0  0  0  0  0  0  0  0  0  0  0  0
   -1.5229    1.4015   -1.6950 H   0  0  0  0  0  0  0  0  0  0  0  0
   -2.6684    0.8072    0.0066 C   0  0  0  0  0  0  0  0  0  0  0  0
   -2.8835   -0.2575   -0.0079 H   0  0  0  0  0  0  0  0  0  0  0  0
   -3.4591    1.2791   -0.5855 H   0  0  0  0  0  0  0  0  0  0  0  0
   -2.7722    1.3635    1.4276 C   0  0  0  0  0  0  0  0  0  0  0  0
   -1.7799    1.4971    1.8697 H   0  0  0  0  0  0  0  0  0  0  0  0
   -3.2497    2.3498    1.4062 H   0  0  0  0  0  0  0  0  0  0  0  0
   -3.5628    0.4263    2.2354 N   0  0  0  0  0  0  0  0  0  0  0  0
   -3.6225    0.7441    3.2048 H   0  0  0  0  0  0  0  0  0  0  0  0
   -4.4976    0.3087    1.8418 H   0  0  0  0  0  0  0  0  0  0  0  0
    0.1801   -1.0039    1.6369 C   0  0  0  0  0  0  0  0  0  0  0  0
    1.3541   -0.8732    1.9609 O   0  0  0  0  0  0  0  0  0  0  0  0
   -0.7915   -0.7221    2.5785 N   0  0  0  0  0  0  0  0  0  0  0  0
   -1.7616   -0.6782    2.2606 H   0  0  0  0  0  0  0  0  0  0  0  0
   -0.4942   -0.4028    3.9683 C   0  0  0  0  0  0  0  0  0  0  0  0
    0.0650    0.5360    4.0345 H   0  0  0  0  0  0  0  0  0  0  0  0
   -1.4229   -0.2963    4.5364 H   0  0  0  0  0  0  0  0  0  0  0  0
    0.1000   -1.2010    4.4256 H   0  0  0  0  0  0  0  0  0  0  0  0
  1  2  1  0  0  0  0
  2  3  1  0  0  0  0
  2  4  1  0  0  0  0
  2  5  1  0  0  0  0
  5  6  2  0  0  0  0
  5  7  1  0  0  0  0
  7  8  1  0  0  0  0
  7  9  1  0  0  0  0
  9 10  1  0  0  0  0
  9 11  1  0  0  0  0
  9 26  1  0  0  0  0
 11 12  1  0  0  0  0
 11 13  1  0  0  0  0
 11 14  1  0  0  0  0
 14 15  1  0  0  0  0
 14 16  1  0  0  0  0
 14 17  1  0  0  0  0
 17 18  1  0  0  0  0
 17 19  1  0  0  0  0
 17 20  1  0  0  0  0
 20 21  1  0  0  0  0
 20 22  1  0  0  0  0
 20 23  1  0  0  0  0
 23 24  1  0  0  0  0
 23 25  1  0  0  0  0
 26 27  2  0  0  0  0
 26 28  1  0  0  0  0
 28 29  1  0  0  0  0
 28 30  1  0  0  0  0
 30 31  1  0  0  0  0
 30 32  1  0  0  0  0
 30 33  1  0  0  0  0
M  END
$$$$

  -OEChem-03222214063D

 33 32  0     1  0  0  0  0  0999 V2000
   -2.5211   -5.2539    0.2226 H   0  0  0  0  0  0  0  0  0  0  0  0
   -2.6493   -4.2158   -0.0971 C   0  0  0  0  0  0  0  0  0  0  0  0
   -3.4704   -3.7719    0.4709 H   0  0  0  0  0  0  0  0  0  0  0  0
   -2.9006   -4.2037   -1.1604 H   0  0  0  0  0  0  0  0  0  0  0  0
   -1.3709   -3.4349    0.1432 C   0  0  0  0  0  0  0  0  0  0  0  0
   -0.3991   -3.9939    0.6200 O   0  0  0  0  0  0  0  0  0  0  0  0
   -1.3201   -2.0938   -0.1808 N   0  0  0  0  0  0  0  0  0  0  0  0
   -2.1687   -1.6733   -0.5465 H   0  0  0  0  0  0  0  0  0  0  0  0
   -0.1682   -1.2173    0.0908 C   0  0  1  0  0  0  0  0  0  0  0  0
    0.6941   -1.7299   -0.3520 H   0  0  0  0  0  0  0  0  0  0  0  0
   -0.2714    0.1164   -0.6880 C   0  0  0  0  0  0  0  0  0  0  0  0
    0.6487    0.6718   -0.4759 H   0  0  0  0  0  0  0  0  0  0  0  0
   -0.2354   -0.1398   -1.7521 H   0  0  0  0  0  0  0  0  0  0  0  0
   -1.4527    1.1126   -0.5038 C   0  0  0  0  0  0  0  0  0  0  0  0
   -1.0348    2.0971   -0.2660 H   0  0  0  0  0  0  0  0  0  0  0  0
   -1.9215    1.2146   -1.4883 H   0  0  0  0  0  0  0  0  0  0  0  0
   -2.5915    0.8028    0.4873 C   0  0  0  0  0  0  0  0  0  0  0  0
   -2.6668   -0.2603    0.7027 H   0  0  0  0  0  0  0  0  0  0  0  0
   -3.5432    1.0957    0.0324 H   0  0  0  0  0  0  0  0  0  0  0  0
   -2.4328    1.5889    1.7872 C   0  0  0  0  0  0  0  0  0  0  0  0
   -1.3922    1.5698    2.1273 H   0  0  0  0  0  0  0  0  0  0  0  0
   -2.7073    2.6378    1.6291 H   0  0  0  0  0  0  0  0  0  0  0  0
   -3.3038    0.9711    2.7925 N   0  0  0  0  0  0  0  0  0  0  0  0
   -3.1860    1.4201    3.7022 H   0  0  0  0  0  0  0  0  0  0  0  0
   -4.2810    1.0063    2.4997 H   0  0  0  0  0  0  0  0  0  0  0  0
    0.2342   -1.0721    1.5790 C   0  0  0  0  0  0  0  0  0  0  0  0
    1.4203   -0.9525    1.8597 O   0  0  0  0  0  0  0  0  0  0  0  0
   -0.6953   -0.8698    2.5833 N   0  0  0  0  0  0  0  0  0  0  0  0
   -1.6722   -0.7694    2.3126 H   0  0  0  0  0  0  0  0  0  0  0  0
   -0.3321   -0.6180    3.9717 C   0  0  0  0  0  0  0  0  0  0  0  0
    0.2450    0.3086    4.0556 H   0  0  0  0  0  0  0  0  0  0  0  0
   -1.2336   -0.5218    4.5841 H   0  0  0  0  0  0  0  0  0  0  0  0
    0.2672   -1.4454    4.3662 H   0  0  0  0  0  0  0  0  0  0  0  0
  1  2  1  0  0  0  0
  2  3  1  0  0  0  0
  2  4  1  0  0  0  0
  2  5  1  0  0  0  0
  5  6  2  0  0  0  0
  5  7  1  0  0  0  0
  7  8  1  0  0  0  0
  7  9  1  0  0  0  0
  9 10  1  0  0  0  0
  9 11  1  0  0  0  0
  9 26  1  0  0  0  0
 11 12  1  0  0  0  0
 11 13  1  0  0  0  0
 11 14  1  0  0  0  0
 14 15  1  0  0  0  0
 14 16  1  0  0  0  0
 14 17  1  0  0  0  0
 17 18  1  0  0  0  0
 17 19  1  0  0  0  0
 17 20  1  0  0  0  0
 20 21  1  0  0  0  0
 20 22  1  0  0  0  0
 20 23  1  0  0  0  0
 23 24  1  0  0  0  0
 23 25  1  0  0  0  0
 26 27  2  0  0  0  0
 26 28  1  0  0  0  0
 28 29  1  0  0  0  0
 28 30  1  0  0  0  0
 30 31  1  0  0  0  0
 30 32  1  0  0  0  0
 30 33  1  0  0  0  0
M  END
$$$$

  -OEChem-03222214063D

 33 32  0     1  0  0  0  0  0999 V2000
   -2.6431   -5.1550    0.4260 H   0  0  0  0  0  0  0  0  0  0  0  0
   -2.7544   -4.1105    0.1205 C   0  0  0  0  0  0  0  0  0  0  0  0
   -3.5103   -3.6386    0.7525 H   0  0  0  0  0  0  0  0  0  0  0  0
   -3.0870   -4.0825   -0.9200 H   0  0  0  0  0  0  0  0  0  0  0  0
   -1.4305   -3.3827    0.2607 C   0  0  0  0  0  0  0  0  0  0  0  0
   -0.4355   -3.9965    0.6012 O   0  0  0  0  0  0  0  0  0  0  0  0
   -1.3639   -2.0275    0.0041 N   0  0  0  0  0  0  0  0  0  0  0  0
   -2.2163   -1.5716   -0.3052 H   0  0  0  0  0  0  0  0  0  0  0  0
   -0.1281   -1.2280    0.0623 C   0  0  1  0  0  0  0  0  0  0  0  0
    0.5840   -1.7640   -0.5763 H   0  0  0  0  0  0  0  0  0  0  0  0
   -0.3205    0.1342   -0.6456 C   0  0  0  0  0  0  0  0  0  0  0  0
    0.6456    0.6478   -0.5890 H   0  0  0  0  0  0  0  0  0  0  0  0
   -0.5029   -0.0649   -1.7069 H   0  0  0  0  0  0  0  0  0  0  0  0
   -1.3961    1.1459   -0.1706 C   0  0  0  0  0  0  0  0  0  0  0  0
   -0.9621    2.1508   -0.2139 H   0  0  0  0  0  0  0  0  0  0  0  0
   -2.2060    1.1167   -0.9069 H   0  0  0  0  0  0  0  0  0  0  0  0
   -2.0327    0.9496    1.2111 C   0  0  0  0  0  0  0  0  0  0  0  0
   -2.4316   -0.0617    1.3153 H   0  0  0  0  0  0  0  0  0  0  0  0
   -1.2768    1.1178    1.9820 H   0  0  0  0  0  0  0  0  0  0  0  0
   -3.1642    1.9499    1.4319 C   0  0  0  0  0  0  0  0  0  0  0  0
   -2.7712    2.9721    1.3904 H   0  0  0  0  0  0  0  0  0  0  0  0
   -3.9238    1.8458    0.6491 H   0  0  0  0  0  0  0  0  0  0  0  0
   -3.7596    1.6940    2.7471 N   0  0  0  0  0  0  0  0  0  0  0  0
   -4.4594    2.3998    2.9796 H   0  0  0  0  0  0  0  0  0  0  0  0
   -4.1584    0.7573    2.7985 H   0  0  0  0  0  0  0  0  0  0  0  0
    0.6108   -1.1852    1.4236 C   0  0  0  0  0  0  0  0  0  0  0  0
    1.8328   -1.1075    1.4290 O   0  0  0  0  0  0  0  0  0  0  0  0
   -0.0606   -0.9964    2.6172 N   0  0  0  0  0  0  0  0  0  0  0  0
   -1.0744   -0.9939    2.5823 H   0  0  0  0  0  0  0  0  0  0  0  0
    0.6055   -0.8149    3.9003 C   0  0  0  0  0  0  0  0  0  0  0  0
    1.2612    0.0616    3.8706 H   0  0  0  0  0  0  0  0  0  0  0  0
   -0.1342   -0.6659    4.6923 H   0  0  0  0  0  0  0  0  0  0  0  0
    1.2054   -1.6968    4.1477 H   0  0  0  0  0  0  0  0  0  0  0  0
  1  2  1  0  0  0  0
  2  3  1  0  0  0  0
  2  4  1  0  0  0  0
  2  5  1  0  0  0  0
  5  6  2  0  0  0  0
  5  7  1  0  0  0  0
  7  8  1  0  0  0  0
  7  9  1  0  0  0  0
  9 10  1  0  0  0  0
  9 11  1  0  0  0  0
  9 26  1  0  0  0  0
 11 12  1  0  0  0  0
 11 13  1  0  0  0  0
 11 14  1  0  0  0  0
 14 15  1  0  0  0  0
 14 16  1  0  0  0  0
 14 17  1  0  0  0  0
 17 18  1  0  0  0  0
 17 19  1  0  0  0  0
 17 20  1  0  0  0  0
 20 21  1  0  0  0  0
 20 22  1  0  0  0  0
 20 23  1  0  0  0  0
 23 24  1  0  0  0  0
 23 25  1  0  0  0  0
 26 27  2  0  0  0  0
 26 28  1  0  0  0  0
 28 29  1  0  0  0  0
 28 30  1  0  0  0  0
 30 31  1  0  0  0  0
 30 32  1  0  0  0  0
 30 33  1  0  0  0  0
M  END
$$$$

  -OEChem-03222214063D

 33 32  0     1  0  0  0  0  0999 V2000
   -1.9158   -5.4471    0.3984 H   0  0  0  0  0  0  0  0  0  0  0  0
   -2.2046   -4.4384    0.0890 C   0  0  0  0  0  0  0  0  0  0  0  0
   -3.0848   -4.1339    0.6600 H   0  0  0  0  0  0  0  0  0  0  0  0
   -2.4548   -4.4552   -0.9744 H   0  0  0  0  0  0  0  0  0  0  0  0
   -1.0635   -3.4702    0.3374 C   0  0  0  0  0  0  0  0  0  0  0  0
   -0.0228   -3.8725    0.8260 O   0  0  0  0  0  0  0  0  0  0  0  0
   -1.2116   -2.1389    0.0024 N   0  0  0  0  0  0  0  0  0  0  0  0
   -2.1064   -1.8547   -0.3838 H   0  0  0  0  0  0  0  0  0  0  0  0
   -0.1883   -1.1052    0.2292 C   0  0  1  0  0  0  0  0  0  0  0  0
    0.7240   -1.5354   -0.2014 H   0  0  0  0  0  0  0  0  0  0  0  0
   -0.4484    0.1249   -0.6729 C   0  0  0  0  0  0  0  0  0  0  0  0
    0.3641    0.8310   -0.4703 H   0  0  0  0  0  0  0  0  0  0  0  0
   -0.3338   -0.1916   -1.7149 H   0  0  0  0  0  0  0  0  0  0  0  0
   -1.7737    0.9194   -0.5717 C   0  0  0  0  0  0  0  0  0  0  0  0
   -1.5995    1.9364   -0.9388 H   0  0  0  0  0  0  0  0  0  0  0  0
   -2.4700    0.4485   -1.2732 H   0  0  0  0  0  0  0  0  0  0  0  0
   -2.5059    0.9878    0.7717 C   0  0  0  0  0  0  0  0  0  0  0  0
   -3.5303    1.3277    0.5882 H   0  0  0  0  0  0  0  0  0  0  0  0
   -2.5798   -0.0048    1.2183 H   0  0  0  0  0  0  0  0  0  0  0  0
   -1.8463    1.9796    1.7282 C   0  0  0  0  0  0  0  0  0  0  0  0
   -0.7898    1.7346    1.8760 H   0  0  0  0  0  0  0  0  0  0  0  0
   -1.8944    2.9921    1.3124 H   0  0  0  0  0  0  0  0  0  0  0  0
   -2.5679    1.9213    3.0037 N   0  0  0  0  0  0  0  0  0  0  0  0
   -2.1136    2.5051    3.7071 H   0  0  0  0  0  0  0  0  0  0  0  0
   -3.5436    2.1933    2.8847 H   0  0  0  0  0  0  0  0  0  0  0  0
    0.2591   -0.8608    1.6931 C   0  0  0  0  0  0  0  0  0  0  0  0
    1.4216   -0.5363    1.9022 O   0  0  0  0  0  0  0  0  0  0  0  0
   -0.6371   -0.7659    2.7418 N   0  0  0  0  0  0  0  0  0  0  0  0
   -1.6247   -0.8353    2.5184 H   0  0  0  0  0  0  0  0  0  0  0  0
   -0.2557   -0.3730    4.0925 C   0  0  0  0  0  0  0  0  0  0  0  0
    0.1591    0.6400    4.0948 H   0  0  0  0  0  0  0  0  0  0  0  0
   -1.1301   -0.3898    4.7501 H   0  0  0  0  0  0  0  0  0  0  0  0
    0.4939   -1.0625    4.4947 H   0  0  0  0  0  0  0  0  0  0  0  0
  1  2  1  0  0  0  0
  2  3  1  0  0  0  0
  2  4  1  0  0  0  0
  2  5  1  0  0  0  0
  5  6  2  0  0  0  0
  5  7  1  0  0  0  0
  7  8  1  0  0  0  0
  7  9  1  0  0  0  0
  9 10  1  0  0  0  0
  9 11  1  0  0  0  0
  9 26  1  0  0  0  0
 11 12  1  0  0  0  0
 11 13  1  0  0  0  0
 11 14  1  0  0  0  0
 14 15  1  0  0  0  0
 14 16  1  0  0  0  0
 14 17  1  0  0  0  0
 17 18  1  0  0  0  0
 17 19  1  0  0  0  0
 17 20  1  0  0  0  0
 20 21  1  0  0  0  0
 20 22  1  0  0  0  0
 20 23  1  0  0  0  0
 23 24  1  0  0  0  0
 23 25  1  0  0  0  0
 26 27  2  0  0  0  0
 26 28  1  0  0  0  0
 28 29  1  0  0  0  0
 28 30  1  0  0  0  0
 30 31  1  0  0  0  0
 30 32  1  0  0  0  0
 30 33  1  0  0  0  0
M  END
$$$$

  -OEChem-03222214063D

 33 32  0     1  0  0  0  0  0999 V2000
   -3.4692   -4.5174    0.4597 H   0  0  0  0  0  0  0  0  0  0  0  0
   -3.3475   -3.4861    0.1163 C   0  0  0  0  0  0  0  0  0  0  0  0
   -4.0962   -2.8610    0.6084 H   0  0  0  0  0  0  0  0  0  0  0  0
   -3.5083   -3.4551   -0.9639 H   0  0  0  0  0  0  0  0  0  0  0  0
   -1.9539   -2.9872    0.4491 C   0  0  0  0  0  0  0  0  0  0  0  0
   -1.1830   -3.7039    1.0611 O   0  0  0  0  0  0  0  0  0  0  0  0
   -1.5775   -1.7110    0.0788 N   0  0  0  0  0  0  0  0  0  0  0  0
   -2.2320   -1.1964   -0.5020 H   0  0  0  0  0  0  0  0  0  0  0  0
   -0.2078   -1.1825    0.2036 C   0  0  1  0  0  0  0  0  0  0  0  0
    0.4206   -1.9378   -0.2834 H   0  0  0  0  0  0  0  0  0  0  0  0
   -0.0221    0.0694   -0.6866 C   0  0  0  0  0  0  0  0  0  0  0  0
    1.0220    0.3799   -0.5687 H   0  0  0  0  0  0  0  0  0  0  0  0
   -0.1403   -0.2433   -1.7293 H   0  0  0  0  0  0  0  0  0  0  0  0
   -0.8921    1.3348   -0.4870 C   0  0  0  0  0  0  0  0  0  0  0  0
   -0.4141    2.1402   -1.0547 H   0  0  0  0  0  0  0  0  0  0  0  0
   -1.8683    1.1618   -0.9514 H   0  0  0  0  0  0  0  0  0  0  0  0
   -1.1167    1.8472    0.9424 C   0  0  0  0  0  0  0  0  0  0  0  0
   -1.1688    2.9405    0.9106 H   0  0  0  0  0  0  0  0  0  0  0  0
   -0.2569    1.5976    1.5680 H   0  0  0  0  0  0  0  0  0  0  0  0
   -2.4262    1.3494    1.5557 C   0  0  0  0  0  0  0  0  0  0  0  0
   -3.2777    1.7668    1.0069 H   0  0  0  0  0  0  0  0  0  0  0  0
   -2.4966    0.2615    1.4981 H   0  0  0  0  0  0  0  0  0  0  0  0
   -2.4707    1.7804    2.9548 N   0  0  0  0  0  0  0  0  0  0  0  0
   -3.2972    1.4254    3.4363 H   0  0  0  0  0  0  0  0  0  0  0  0
   -1.6135    1.5274    3.4496 H   0  0  0  0  0  0  0  0  0  0  0  0
    0.4064   -1.1377    1.6266 C   0  0  0  0  0  0  0  0  0  0  0  0
    1.6147   -1.2926    1.7481 O   0  0  0  0  0  0  0  0  0  0  0  0
   -0.3016   -0.6829    2.7243 N   0  0  0  0  0  0  0  0  0  0  0  0
   -1.3078   -0.6176    2.6154 H   0  0  0  0  0  0  0  0  0  0  0  0
    0.2686   -0.6058    4.0635 C   0  0  0  0  0  0  0  0  0  0  0  0
    1.1002    0.1062    4.0844 H   0  0  0  0  0  0  0  0  0  0  0  0
   -0.4888   -0.2733    4.7796 H   0  0  0  0  0  0  0  0  0  0  0  0
    0.6366   -1.5881    4.3788 H   0  0  0  0  0  0  0  0  0  0  0  0
  1  2  1  0  0  0  0
  2  3  1  0  0  0  0
  2  4  1  0  0  0  0
  2  5  1  0  0  0  0
  5  6  2  0  0  0  0
  5  7  1  0  0  0  0
  7  8  1  0  0  0  0
  7  9  1  0  0  0  0
  9 10  1  0  0  0  0
  9 11  1  0  0  0  0
  9 26  1  0  0  0  0
 11 12  1  0  0  0  0
 11 13  1  0  0  0  0
 11 14  1  0  0  0  0
 14 15  1  0  0  0  0
 14 16  1  0  0  0  0
 14 17  1  0  0  0  0
 17 18  1  0  0  0  0
 17 19  1  0  0  0  0
 17 20  1  0  0  0  0
 20 21  1  0  0  0  0
 20 22  1  0  0  0  0
 20 23  1  0  0  0  0
 23 24  1  0  0  0  0
 23 25  1  0  0  0  0
 26 27  2  0  0  0  0
 26 28  1  0  0  0  0
 28 29  1  0  0  0  0
 28 30  1  0  0  0  0
 30 31  1  0  0  0  0
 30 32  1  0  0  0  0
 30 33  1  0  0  0  0
M  END
$$$$

  -OEChem-03222214063D

 33 32  0     1  0  0  0  0  0999 V2000
   -3.1512   -4.6889    0.5493 H   0  0  0  0  0  0  0  0  0  0  0  0
   -3.1232   -3.6583    0.1841 C   0  0  0  0  0  0  0  0  0  0  0  0
   -3.9105   -3.0871    0.6816 H   0  0  0  0  0  0  0  0  0  0  0  0
   -3.3093   -3.6633   -0.8927 H   0  0  0  0  0  0  0  0  0  0  0  0
   -1.7689   -3.0394    0.4742 C   0  0  0  0  0  0  0  0  0  0  0  0
   -0.9284   -3.6771    1.0818 O   0  0  0  0  0  0  0  0  0  0  0  0
   -1.5048   -1.7476    0.0631 N   0  0  0  0  0  0  0  0  0  0  0  0
   -2.2148   -1.2996   -0.5077 H   0  0  0  0  0  0  0  0  0  0  0  0
   -0.1791   -1.1084    0.1400 C   0  0  1  0  0  0  0  0  0  0  0  0
    0.4994   -1.8194   -0.3465 H   0  0  0  0  0  0  0  0  0  0  0  0
   -0.1235    0.1352   -0.7790 C   0  0  0  0  0  0  0  0  0  0  0  0
    0.8926    0.5407   -0.7209 H   0  0  0  0  0  0  0  0  0  0  0  0
   -0.2680   -0.2075   -1.8087 H   0  0  0  0  0  0  0  0  0  0  0  0
   -1.1085    1.3006   -0.5401 C   0  0  0  0  0  0  0  0  0  0  0  0
   -0.8993    2.0604   -1.3009 H   0  0  0  0  0  0  0  0  0  0  0  0
   -2.1277    0.9470   -0.7245 H   0  0  0  0  0  0  0  0  0  0  0  0
   -1.0388    1.9893    0.8306 C   0  0  0  0  0  0  0  0  0  0  0  0
   -0.9757    3.0718    0.6792 H   0  0  0  0  0  0  0  0  0  0  0  0
   -0.1274    1.6978    1.3578 H   0  0  0  0  0  0  0  0  0  0  0  0
   -2.2826    1.7038    1.6725 C   0  0  0  0  0  0  0  0  0  0  0  0
   -3.1568    2.1884    1.2232 H   0  0  0  0  0  0  0  0  0  0  0  0
   -2.4810    0.6284    1.7114 H   0  0  0  0  0  0  0  0  0  0  0  0
   -2.0567    2.2248    3.0221 N   0  0  0  0  0  0  0  0  0  0  0  0
   -2.8460    2.0322    3.6386 H   0  0  0  0  0  0  0  0  0  0  0  0
   -1.1847    1.8638    3.4132 H   0  0  0  0  0  0  0  0  0  0  0  0
    0.4517   -0.9825    1.5496 C   0  0  0  0  0  0  0  0  0  0  0  0
    1.6699   -1.0355    1.6577 O   0  0  0  0  0  0  0  0  0  0  0  0
   -0.2812   -0.5589    2.6428 N   0  0  0  0  0  0  0  0  0  0  0  0
   -1.2895   -0.6036    2.5461 H   0  0  0  0  0  0  0  0  0  0  0  0
    0.2899   -0.4280    3.9772 C   0  0  0  0  0  0  0  0  0  0  0  0
    1.1023    0.3065    3.9760 H   0  0  0  0  0  0  0  0  0  0  0  0
   -0.4749   -0.0947    4.6850 H   0  0  0  0  0  0  0  0  0  0  0  0
    0.6849   -1.3900    4.3202 H   0  0  0  0  0  0  0  0  0  0  0  0
  1  2  1  0  0  0  0
  2  3  1  0  0  0  0
  2  4  1  0  0  0  0
  2  5  1  0  0  0  0
  5  6  2  0  0  0  0
  5  7  1  0  0  0  0
  7  8  1  0  0  0  0
  7  9  1  0  0  0  0
  9 10  1  0  0  0  0
  9 11  1  0  0  0  0
  9 26  1  0  0  0  0
 11 12  1  0  0  0  0
 11 13  1  0  0  0  0
 11 14  1  0  0  0  0
 14 15  1  0  0  0  0
 14 16  1  0  0  0  0
 14 17  1  0  0  0  0
 17 18  1  0  0  0  0
 17 19  1  0  0  0  0
 17 20  1  0  0  0  0
 20 21  1  0  0  0  0
 20 22  1  0  0  0  0
 20 23  1  0  0  0  0
 23 24  1  0  0  0  0
 23 25  1  0  0  0  0
 26 27  2  0  0  0  0
 26 28  1  0  0  0  0
 28 29  1  0  0  0  0
 28 30  1  0  0  0  0
 30 31  1  0  0  0  0
 30 32  1  0  0  0  0
 30 33  1  0  0  0  0
M  END
$$$$

  -OEChem-03222214063D

 33 32  0     1  0  0  0  0  0999 V2000
   -2.7504   -5.0933    0.3494 H   0  0  0  0  0  0  0  0  0  0  0  0
   -2.8393   -4.0471    0.0428 C   0  0  0  0  0  0  0  0  0  0  0  0
   -3.6326   -3.5763    0.6281 H   0  0  0  0  0  0  0  0  0  0  0  0
   -3.1056   -4.0130   -1.0162 H   0  0  0  0  0  0  0  0  0  0  0  0
   -1.5245   -3.3249    0.2699 C   0  0  0  0  0  0  0  0  0  0  0  0
   -0.5664   -3.9360    0.7072 O   0  0  0  0  0  0  0  0  0  0  0  0
   -1.4272   -1.9760   -0.0108 N   0  0  0  0  0  0  0  0  0  0  0  0
   -2.2386   -1.5361   -0.4331 H   0  0  0  0  0  0  0  0  0  0  0  0
   -0.1791   -1.1960    0.0726 C   0  0  1  0  0  0  0  0  0  0  0  0
    0.5482   -1.7486   -0.5337 H   0  0  0  0  0  0  0  0  0  0  0  0
   -0.3367    0.1590   -0.6529 C   0  0  0  0  0  0  0  0  0  0  0  0
    0.6294    0.6751   -0.6278 H   0  0  0  0  0  0  0  0  0  0  0  0
   -0.5482   -0.0613   -1.7043 H   0  0  0  0  0  0  0  0  0  0  0  0
   -1.4262    1.1352   -0.1619 C   0  0  0  0  0  0  0  0  0  0  0  0
   -1.5542    1.8867   -0.9483 H   0  0  0  0  0  0  0  0  0  0  0  0
   -2.3814    0.6123   -0.0561 H   0  0  0  0  0  0  0  0  0  0  0  0
   -1.0961    1.8666    1.1470 C   0  0  0  0  0  0  0  0  0  0  0  0
   -1.2897    1.2172    1.9997 H   0  0  0  0  0  0  0  0  0  0  0  0
   -0.0379    2.1490    1.1612 H   0  0  0  0  0  0  0  0  0  0  0  0
   -1.9508    3.1227    1.2983 C   0  0  0  0  0  0  0  0  0  0  0  0
   -1.7627    3.8090    0.4651 H   0  0  0  0  0  0  0  0  0  0  0  0
   -3.0134    2.8564    1.2879 H   0  0  0  0  0  0  0  0  0  0  0  0
   -1.6062    3.7746    2.5649 N   0  0  0  0  0  0  0  0  0  0  0  0
   -2.1638    4.6154    2.7155 H   0  0  0  0  0  0  0  0  0  0  0  0
   -1.6957    3.1297    3.3498 H   0  0  0  0  0  0  0  0  0  0  0  0
    0.4964   -1.1536    1.4639 C   0  0  0  0  0  0  0  0  0  0  0  0
    1.7168   -1.0844    1.5303 O   0  0  0  0  0  0  0  0  0  0  0  0
   -0.2395   -0.9375    2.6141 N   0  0  0  0  0  0  0  0  0  0  0  0
   -1.2436   -1.0559    2.5366 H   0  0  0  0  0  0  0  0  0  0  0  0
    0.3609   -0.8343    3.9380 C   0  0  0  0  0  0  0  0  0  0  0  0
    1.0742   -0.0041    3.9717 H   0  0  0  0  0  0  0  0  0  0  0  0
   -0.4119   -0.6543    4.6912 H   0  0  0  0  0  0  0  0  0  0  0  0
    0.8862   -1.7610    4.1923 H   0  0  0  0  0  0  0  0  0  0  0  0
  1  2  1  0  0  0  0
  2  3  1  0  0  0  0
  2  4  1  0  0  0  0
  2  5  1  0  0  0  0
  5  6  2  0  0  0  0
  5  7  1  0  0  0  0
  7  8  1  0  0  0  0
  7  9  1  0  0  0  0
  9 10  1  0  0  0  0
  9 11  1  0  0  0  0
  9 26  1  0  0  0  0
 11 12  1  0  0  0  0
 11 13  1  0  0  0  0
 11 14  1  0  0  0  0
 14 15  1  0  0  0  0
 14 16  1  0  0  0  0
 14 17  1  0  0  0  0
 17 18  1  0  0  0  0
 17 19  1  0  0  0  0
 17 20  1  0  0  0  0
 20 21  1  0  0  0  0
 20 22  1  0  0  0  0
 20 23  1  0  0  0  0
 23 24  1  0  0  0  0
 23 25  1  0  0  0  0
 26 27  2  0  0  0  0
 26 28  1  0  0  0  0
 28 29  1  0  0  0  0
 28 30  1  0  0  0  0
 30 31  1  0  0  0  0
 30 32  1  0  0  0  0
 30 33  1  0  0  0  0
M  END
$$$$

  -OEChem-03222214063D

 33 32  0     1  0  0  0  0  0999 V2000
   -2.8905   -4.9346    0.4968 H   0  0  0  0  0  0  0  0  0  0  0  0
   -2.9036   -3.9225    0.0820 C   0  0  0  0  0  0  0  0  0  0  0  0
   -3.7236   -3.3654    0.5408 H   0  0  0  0  0  0  0  0  0  0  0  0
   -3.0716   -3.9870   -0.9956 H   0  0  0  0  0  0  0  0  0  0  0  0
   -1.5838   -3.2280    0.3597 C   0  0  0  0  0  0  0  0  0  0  0  0
   -0.6957   -3.8259    0.9392 O   0  0  0  0  0  0  0  0  0  0  0  0
   -1.4025   -1.9198   -0.0454 N   0  0  0  0  0  0  0  0  0  0  0  0
   -2.1480   -1.5092   -0.5991 H   0  0  0  0  0  0  0  0  0  0  0  0
   -0.1220   -1.1908    0.0348 C   0  0  1  0  0  0  0  0  0  0  0  0
    0.6199   -1.7998   -0.4941 H   0  0  0  0  0  0  0  0  0  0  0  0
   -0.2217    0.1360   -0.7539 C   0  0  0  0  0  0  0  0  0  0  0  0
    0.7589    0.6251   -0.7482 H   0  0  0  0  0  0  0  0  0  0  0  0
   -0.4378   -0.1233   -1.7953 H   0  0  0  0  0  0  0  0  0  0  0  0
   -1.2932    1.1461   -0.2937 C   0  0  0  0  0  0  0  0  0  0  0  0
   -1.6254    1.7224   -1.1637 H   0  0  0  0  0  0  0  0  0  0  0  0
   -2.1653    0.6141    0.0975 H   0  0  0  0  0  0  0  0  0  0  0  0
   -0.7697    2.1341    0.7608 C   0  0  0  0  0  0  0  0  0  0  0  0
   -0.2913    1.6146    1.5900 H   0  0  0  0  0  0  0  0  0  0  0  0
   -0.0108    2.7761    0.3010 H   0  0  0  0  0  0  0  0  0  0  0  0
   -1.9012    3.0014    1.3037 C   0  0  0  0  0  0  0  0  0  0  0  0
   -2.4002    3.5282    0.4828 H   0  0  0  0  0  0  0  0  0  0  0  0
   -2.6439    2.3739    1.8084 H   0  0  0  0  0  0  0  0  0  0  0  0
   -1.3353    3.9699    2.2465 N   0  0  0  0  0  0  0  0  0  0  0  0
   -2.0616    4.5481    2.6686 H   0  0  0  0  0  0  0  0  0  0  0  0
   -0.7758    3.5043    2.9618 H   0  0  0  0  0  0  0  0  0  0  0  0
    0.4409   -1.0619    1.4694 C   0  0  0  0  0  0  0  0  0  0  0  0
    1.6525   -1.0373    1.6415 O   0  0  0  0  0  0  0  0  0  0  0  0
   -0.3892   -0.7099    2.5193 N   0  0  0  0  0  0  0  0  0  0  0  0
   -1.3847   -0.8132    2.3560 H   0  0  0  0  0  0  0  0  0  0  0  0
    0.0870   -0.5448    3.8863 C   0  0  0  0  0  0  0  0  0  0  0  0
    0.8388    0.2498    3.9362 H   0  0  0  0  0  0  0  0  0  0  0  0
   -0.7433   -0.2758    4.5461 H   0  0  0  0  0  0  0  0  0  0  0  0
    0.5333   -1.4762    4.2504 H   0  0  0  0  0  0  0  0  0  0  0  0
  1  2  1  0  0  0  0
  2  3  1  0  0  0  0
  2  4  1  0  0  0  0
  2  5  1  0  0  0  0
  5  6  2  0  0  0  0
  5  7  1  0  0  0  0
  7  8  1  0  0  0  0
  7  9  1  0  0  0  0
  9 10  1  0  0  0  0
  9 11  1  0  0  0  0
  9 26  1  0  0  0  0
 11 12  1  0  0  0  0
 11 13  1  0  0  0  0
 11 14  1  0  0  0  0
 14 15  1  0  0  0  0
 14 16  1  0  0  0  0
 14 17  1  0  0  0  0
 17 18  1  0  0  0  0
 17 19  1  0  0  0  0
 17 20  1  0  0  0  0
 20 21  1  0  0  0  0
 20 22  1  0  0  0  0
 20 23  1  0  0  0  0
 23 24  1  0  0  0  0
 23 25  1  0  0  0  0
 26 27  2  0  0  0  0
 26 28  1  0  0  0  0
 28 29  1  0  0  0  0
 28 30  1  0  0  0  0
 30 31  1  0  0  0  0
 30 32  1  0  0  0  0
 30 33  1  0  0  0  0
M  END
$$$$

  -OEChem-03222214063D

 33 32  0     1  0  0  0  0  0999 V2000
   -2.8581   -4.9493    0.4960 H   0  0  0  0  0  0  0  0  0  0  0  0
   -2.8899   -3.9339    0.0902 C   0  0  0  0  0  0  0  0  0  0  0  0
   -3.7177   -3.3943    0.5565 H   0  0  0  0  0  0  0  0  0  0  0  0
   -3.0612   -3.9923   -0.9874 H   0  0  0  0  0  0  0  0  0  0  0  0
   -1.5804   -3.2204    0.3696 C   0  0  0  0  0  0  0  0  0  0  0  0
   -0.7100   -3.7816    1.0096 O   0  0  0  0  0  0  0  0  0  0  0  0
   -1.3895   -1.9346   -0.0974 N   0  0  0  0  0  0  0  0  0  0  0  0
   -2.1174   -1.5547   -0.6947 H   0  0  0  0  0  0  0  0  0  0  0  0
   -0.1145   -1.1971   -0.0073 C   0  0  1  0  0  0  0  0  0  0  0  0
    0.6483   -1.8049   -0.5068 H   0  0  0  0  0  0  0  0  0  0  0  0
   -0.2194    0.1297   -0.7868 C   0  0  0  0  0  0  0  0  0  0  0  0
    0.7549    0.6310   -0.7723 H   0  0  0  0  0  0  0  0  0  0  0  0
   -0.4316   -0.1134   -1.8329 H   0  0  0  0  0  0  0  0  0  0  0  0
   -1.3163    1.0918   -0.2845 C   0  0  0  0  0  0  0  0  0  0  0  0
   -1.8568    1.4953   -1.1471 H   0  0  0  0  0  0  0  0  0  0  0  0
   -2.0439    0.5621    0.3373 H   0  0  0  0  0  0  0  0  0  0  0  0
   -0.7128    2.2639    0.5017 C   0  0  0  0  0  0  0  0  0  0  0  0
   -0.0614    1.8900    1.2971 H   0  0  0  0  0  0  0  0  0  0  0  0
   -0.1001    2.8743   -0.1702 H   0  0  0  0  0  0  0  0  0  0  0  0
   -1.8075    3.1301    1.1166 C   0  0  0  0  0  0  0  0  0  0  0  0
   -2.4788    3.5021    0.3348 H   0  0  0  0  0  0  0  0  0  0  0  0
   -2.4004    2.5384    1.8227 H   0  0  0  0  0  0  0  0  0  0  0  0
   -1.1753    4.2562    1.8089 N   0  0  0  0  0  0  0  0  0  0  0  0
   -1.8674    4.8453    2.2717 H   0  0  0  0  0  0  0  0  0  0  0  0
   -0.4709    3.9306    2.4718 H   0  0  0  0  0  0  0  0  0  0  0  0
    0.4081   -0.9819    1.4324 C   0  0  0  0  0  0  0  0  0  0  0  0
    1.6143   -0.9412    1.6360 O   0  0  0  0  0  0  0  0  0  0  0  0
   -0.4521   -0.5713    2.4359 N   0  0  0  0  0  0  0  0  0  0  0  0
   -1.4418   -0.6987    2.2554 H   0  0  0  0  0  0  0  0  0  0  0  0
   -0.0121   -0.3196    3.8021 C   0  0  0  0  0  0  0  0  0  0  0  0
    0.7512    0.4653    3.8211 H   0  0  0  0  0  0  0  0  0  0  0  0
   -0.8558    0.0063    4.4175 H   0  0  0  0  0  0  0  0  0  0  0  0
    0.4086   -1.2301    4.2414 H   0  0  0  0  0  0  0  0  0  0  0  0
  1  2  1  0  0  0  0
  2  3  1  0  0  0  0
  2  4  1  0  0  0  0
  2  5  1  0  0  0  0
  5  6  2  0  0  0  0
  5  7  1  0  0  0  0
  7  8  1  0  0  0  0
  7  9  1  0  0  0  0
  9 10  1  0  0  0  0
  9 11  1  0  0  0  0
  9 26  1  0  0  0  0
 11 12  1  0  0  0  0
 11 13  1  0  0  0  0
 11 14  1  0  0  0  0
 14 15  1  0  0  0  0
 14 16  1  0  0  0  0
 14 17  1  0  0  0  0
 17 18  1  0  0  0  0
 17 19  1  0  0  0  0
 17 20  1  0  0  0  0
 20 21  1  0  0  0  0
 20 22  1  0  0  0  0
 20 23  1  0  0  0  0
 23 24  1  0  0  0  0
 23 25  1  0  0  0  0
 26 27  2  0  0  0  0
 26 28  1  0  0  0  0
 28 29  1  0  0  0  0
 28 30  1  0  0  0  0
 30 31  1  0  0  0  0
 30 32  1  0  0  0  0
 30 33  1  0  0  0  0
M  END
$$$$

  -OEChem-03222214063D

 33 32  0     1  0  0  0  0  0999 V2000
   -2.8523   -4.9583    0.4770 H   0  0  0  0  0  0  0  0  0  0  0  0
   -2.8880   -3.9414    0.0756 C   0  0  0  0  0  0  0  0  0  0  0  0
   -3.7183   -3.4080    0.5444 H   0  0  0  0  0  0  0  0  0  0  0  0
   -3.0591   -3.9956   -1.0022 H   0  0  0  0  0  0  0  0  0  0  0  0
   -1.5821   -3.2228    0.3587 C   0  0  0  0  0  0  0  0  0  0  0  0
   -0.7107   -3.7802    1.0009 O   0  0  0  0  0  0  0  0  0  0  0  0
   -1.3971   -1.9340   -0.1021 N   0  0  0  0  0  0  0  0  0  0  0  0
   -2.1246   -1.5550   -0.7006 H   0  0  0  0  0  0  0  0  0  0  0  0
   -0.1255   -1.1927   -0.0049 C   0  0  1  0  0  0  0  0  0  0  0  0
    0.6381   -1.7954   -0.5096 H   0  0  0  0  0  0  0  0  0  0  0  0
   -0.2358    0.1363   -0.7765 C   0  0  0  0  0  0  0  0  0  0  0  0
    0.7366    0.6405   -0.7374 H   0  0  0  0  0  0  0  0  0  0  0  0
   -0.4306   -0.0874   -1.8303 H   0  0  0  0  0  0  0  0  0  0  0  0
   -1.3440    1.0790   -0.2607 C   0  0  0  0  0  0  0  0  0  0  0  0
   -2.0581    1.2648   -1.0696 H   0  0  0  0  0  0  0  0  0  0  0  0
   -1.9005    0.6203    0.5610 H   0  0  0  0  0  0  0  0  0  0  0  0
   -0.7560    2.4155    0.2058 C   0  0  0  0  0  0  0  0  0  0  0  0
   -0.0006    2.2336    0.9777 H   0  0  0  0  0  0  0  0  0  0  0  0
   -0.2660    2.9156   -0.6364 H   0  0  0  0  0  0  0  0  0  0  0  0
   -1.8430    3.3231    0.7724 C   0  0  0  0  0  0  0  0  0  0  0  0
   -2.6177    3.5015    0.0184 H   0  0  0  0  0  0  0  0  0  0  0  0
   -2.3133    2.8462    1.6396 H   0  0  0  0  0  0  0  0  0  0  0  0
   -1.2289    4.5935    1.1665 N   0  0  0  0  0  0  0  0  0  0  0  0
   -1.9130    5.2228    1.5861 H   0  0  0  0  0  0  0  0  0  0  0  0
   -0.4405    4.4397    1.7960 H   0  0  0  0  0  0  0  0  0  0  0  0
    0.4097   -0.9727    1.4305 C   0  0  0  0  0  0  0  0  0  0  0  0
    1.6182   -0.9250    1.6188 O   0  0  0  0  0  0  0  0  0  0  0  0
   -0.4383   -0.5640    2.4448 N   0  0  0  0  0  0  0  0  0  0  0  0
   -1.4287   -0.7093    2.2824 H   0  0  0  0  0  0  0  0  0  0  0  0
    0.0197   -0.3106    3.8045 C   0  0  0  0  0  0  0  0  0  0  0  0
    0.7842    0.4736    3.8120 H   0  0  0  0  0  0  0  0  0  0  0  0
   -0.8157    0.0179    4.4299 H   0  0  0  0  0  0  0  0  0  0  0  0
    0.4444   -1.2214    4.2397 H   0  0  0  0  0  0  0  0  0  0  0  0
  1  2  1  0  0  0  0
  2  3  1  0  0  0  0
  2  4  1  0  0  0  0
  2  5  1  0  0  0  0
  5  6  2  0  0  0  0
  5  7  1  0  0  0  0
  7  8  1  0  0  0  0
  7  9  1  0  0  0  0
  9 10  1  0  0  0  0
  9 11  1  0  0  0  0
  9 26  1  0  0  0  0
 11 12  1  0  0  0  0
 11 13  1  0  0  0  0
 11 14  1  0  0  0  0
 14 15  1  0  0  0  0
 14 16  1  0  0  0  0
 14 17  1  0  0  0  0
 17 18  1  0  0  0  0
 17 19  1  0  0  0  0
 17 20  1  0  0  0  0
 20 21  1  0  0  0  0
 20 22  1  0  0  0  0
 20 23  1  0  0  0  0
 23 24  1  0  0  0  0
 23 25  1  0  0  0  0
 26 27  2  0  0  0  0
 26 28  1  0  0  0  0
 28 29  1  0  0  0  0
 28 30  1  0  0  0  0
 30 31  1  0  0  0  0
 30 32  1  0  0  0  0
 30 33  1  0  0  0  0
M  END
$$$$

  -OEChem-03222214063D

 33 32  0     1  0  0  0  0  0999 V2000
   -2.8431   -4.9673    0.4533 H   0  0  0  0  0  0  0  0  0  0  0  0
   -2.8848   -3.9468    0.0618 C   0  0  0  0  0  0  0  0  0  0  0  0
   -3.7186   -3.4229    0.5350 H   0  0  0  0  0  0  0  0  0  0  0  0
   -3.0546   -3.9916   -1.0166 H   0  0  0  0  0  0  0  0  0  0  0  0
   -1.5831   -3.2234    0.3524 C   0  0  0  0  0  0  0  0  0  0  0  0
   -0.7036   -3.7872    0.9778 O   0  0  0  0  0  0  0  0  0  0  0  0
   -1.4103   -1.9242   -0.0835 N   0  0  0  0  0  0  0  0  0  0  0  0
   -2.1451   -1.5390   -0.6687 H   0  0  0  0  0  0  0  0  0  0  0  0
   -0.1417   -1.1786    0.0136 C   0  0  1  0  0  0  0  0  0  0  0  0
    0.6178   -1.7758   -0.5041 H   0  0  0  0  0  0  0  0  0  0  0  0
   -0.2592    0.1508   -0.7571 C   0  0  0  0  0  0  0  0  0  0  0  0
    0.7117    0.6554   -0.6935 H   0  0  0  0  0  0  0  0  0  0  0  0
   -0.4354   -0.0601   -1.8168 H   0  0  0  0  0  0  0  0  0  0  0  0
   -1.3692    1.0932   -0.2462 C   0  0  0  0  0  0  0  0  0  0  0  0
   -2.2197    1.0524   -0.9343 H   0  0  0  0  0  0  0  0  0  0  0  0
   -1.7312    0.7752    0.7342 H   0  0  0  0  0  0  0  0  0  0  0  0
   -0.8610    2.5354   -0.1360 C   0  0  0  0  0  0  0  0  0  0  0  0
    0.0006    2.5711    0.5392 H   0  0  0  0  0  0  0  0  0  0  0  0
   -0.5342    2.8850   -1.1211 H   0  0  0  0  0  0  0  0  0  0  0  0
   -1.9524    3.4607    0.3941 C   0  0  0  0  0  0  0  0  0  0  0  0
   -2.8287    3.4247   -0.2625 H   0  0  0  0  0  0  0  0  0  0  0  0
   -2.2623    3.1393    1.3947 H   0  0  0  0  0  0  0  0  0  0  0  0
   -1.4231    4.8264    0.4443 N   0  0  0  0  0  0  0  0  0  0  0  0
   -2.1144    5.4797    0.8128 H   0  0  0  0  0  0  0  0  0  0  0  0
   -0.5599    4.8654    0.9873 H   0  0  0  0  0  0  0  0  0  0  0  0
    0.4147   -0.9830    1.4451 C   0  0  0  0  0  0  0  0  0  0  0  0
    1.6259   -0.9288    1.6142 O   0  0  0  0  0  0  0  0  0  0  0  0
   -0.4174   -0.5991    2.4818 N   0  0  0  0  0  0  0  0  0  0  0  0
   -1.4095   -0.7484    2.3335 H   0  0  0  0  0  0  0  0  0  0  0  0
    0.0610   -0.3700    3.8389 C   0  0  0  0  0  0  0  0  0  0  0  0
    0.8185    0.4208    3.8504 H   0  0  0  0  0  0  0  0  0  0  0  0
   -0.7670   -0.0620    4.4842 H   0  0  0  0  0  0  0  0  0  0  0  0
    0.5004   -1.2855    4.2487 H   0  0  0  0  0  0  0  0  0  0  0  0
  1  2  1  0  0  0  0
  2  3  1  0  0  0  0
  2  4  1  0  0  0  0
  2  5  1  0  0  0  0
  5  6  2  0  0  0  0
  5  7  1  0  0  0  0
  7  8  1  0  0  0  0
  7  9  1  0  0  0  0
  9 10  1  0  0  0  0
  9 11  1  0  0  0  0
  9 26  1  0  0  0  0
 11 12  1  0  0  0  0
 11 13  1  0  0  0  0
 11 14  1  0  0  0  0
 14 15  1  0  0  0  0
 14 16  1  0  0  0  0
 14 17  1  0  0  0  0
 17 18  1  0  0  0  0
 17 19  1  0  0  0  0
 17 20  1  0  0  0  0
 20 21  1  0  0  0  0
 20 22  1  0  0  0  0
 20 23  1  0  0  0  0
 23 24  1  0  0  0  0
 23 25  1  0  0  0  0
 26 27  2  0  0  0  0
 26 28  1  0  0  0  0
 28 29  1  0  0  0  0
 28 30  1  0  0  0  0
 30 31  1  0  0  0  0
 30 32  1  0  0  0  0
 30 33  1  0  0  0  0
M  END
$$$$

  -OEChem-03222214063D

 33 32  0     1  0  0  0  0  0999 V2000
   -2.8147   -4.9823    0.4408 H   0  0  0  0  0  0  0  0  0  0  0  0
   -2.8709   -3.9586    0.0590 C   0  0  0  0  0  0  0  0  0  0  0  0
   -3.7108   -3.4498    0.5379 H   0  0  0  0  0  0  0  0  0  0  0  0
   -3.0415   -3.9959   -1.0195 H   0  0  0  0  0  0  0  0  0  0  0  0
   -1.5784   -3.2210    0.3544 C   0  0  0  0  0  0  0  0  0  0  0  0
   -0.6886   -3.7821    0.9675 O   0  0  0  0  0  0  0  0  0  0  0  0
   -1.4236   -1.9143   -0.0664 N   0  0  0  0  0  0  0  0  0  0  0  0
   -2.1658   -1.5317   -0.6443 H   0  0  0  0  0  0  0  0  0  0  0  0
   -0.1599   -1.1599    0.0243 C   0  0  1  0  0  0  0  0  0  0  0  0
    0.5972   -1.7499   -0.5047 H   0  0  0  0  0  0  0  0  0  0  0  0
   -0.2882    0.1708   -0.7429 C   0  0  0  0  0  0  0  0  0  0  0  0
    0.6791    0.6806   -0.6699 H   0  0  0  0  0  0  0  0  0  0  0  0
   -0.4609   -0.0342   -1.8044 H   0  0  0  0  0  0  0  0  0  0  0  0
   -1.3978    1.1084   -0.2286 C   0  0  0  0  0  0  0  0  0  0  0  0
   -2.3400    0.8701   -0.7326 H   0  0  0  0  0  0  0  0  0  0  0  0
   -1.5524    0.9718    0.8436 H   0  0  0  0  0  0  0  0  0  0  0  0
   -1.0228    2.5745   -0.4727 C   0  0  0  0  0  0  0  0  0  0  0  0
   -0.0808    2.8045    0.0364 H   0  0  0  0  0  0  0  0  0  0  0  0
   -0.8769    2.7406   -1.5453 H   0  0  0  0  0  0  0  0  0  0  0  0
   -2.1123    3.5106    0.0416 C   0  0  0  0  0  0  0  0  0  0  0  0
   -3.0669    3.2818   -0.4449 H   0  0  0  0  0  0  0  0  0  0  0  0
   -2.2397    3.3798    1.1220 H   0  0  0  0  0  0  0  0  0  0  0  0
   -1.7186    4.8900   -0.2573 N   0  0  0  0  0  0  0  0  0  0  0  0
   -2.4119    5.5560    0.0835 H   0  0  0  0  0  0  0  0  0  0  0  0
   -0.7955    5.0984    0.1246 H   0  0  0  0  0  0  0  0  0  0  0  0
    0.4106   -0.9815    1.4524 C   0  0  0  0  0  0  0  0  0  0  0  0
    1.6231   -0.9172    1.6075 O   0  0  0  0  0  0  0  0  0  0  0  0
   -0.4122   -0.6201    2.5046 N   0  0  0  0  0  0  0  0  0  0  0  0
   -1.4041   -0.7822    2.3677 H   0  0  0  0  0  0  0  0  0  0  0  0
    0.0825   -0.4123    3.8595 C   0  0  0  0  0  0  0  0  0  0  0  0
    0.8332    0.3848    3.8755 H   0  0  0  0  0  0  0  0  0  0  0  0
   -0.7390   -0.1243    4.5221 H   0  0  0  0  0  0  0  0  0  0  0  0
    0.5358   -1.3314    4.2455 H   0  0  0  0  0  0  0  0  0  0  0  0
  1  2  1  0  0  0  0
  2  3  1  0  0  0  0
  2  4  1  0  0  0  0
  2  5  1  0  0  0  0
  5  6  2  0  0  0  0
  5  7  1  0  0  0  0
  7  8  1  0  0  0  0
  7  9  1  0  0  0  0
  9 10  1  0  0  0  0
  9 11  1  0  0  0  0
  9 26  1  0  0  0  0
 11 12  1  0  0  0  0
 11 13  1  0  0  0  0
 11 14  1  0  0  0  0
 14 15  1  0  0  0  0
 14 16  1  0  0  0  0
 14 17  1  0  0  0  0
 17 18  1  0  0  0  0
 17 19  1  0  0  0  0
 17 20  1  0  0  0  0
 20 21  1  0  0  0  0
 20 22  1  0  0  0  0
 20 23  1  0  0  0  0
 23 24  1  0  0  0  0
 23 25  1  0  0  0  0
 26 27  2  0  0  0  0
 26 28  1  0  0  0  0
 28 29  1  0  0  0  0
 28 30  1  0  0  0  0
 30 31  1  0  0  0  0
 30 32  1  0  0  0  0
 30 33  1  0  0  0  0
M  END
$$$$

  -OEChem-03222214063D

 33 32  0     1  0  0  0  0  0999 V2000
   -2.8032   -4.9833    0.4539 H   0  0  0  0  0  0  0  0  0  0  0  0
   -2.8629   -3.9611    0.0692 C   0  0  0  0  0  0  0  0  0  0  0  0
   -3.7072   -3.4556    0.5437 H   0  0  0  0  0  0  0  0  0  0  0  0
   -3.0291   -4.0023   -1.0099 H   0  0  0  0  0  0  0  0  0  0  0  0
   -1.5755   -3.2156    0.3671 C   0  0  0  0  0  0  0  0  0  0  0  0
   -0.6837   -3.7704    0.9831 O   0  0  0  0  0  0  0  0  0  0  0  0
   -1.4263   -1.9102   -0.0593 N   0  0  0  0  0  0  0  0  0  0  0  0
   -2.1682   -1.5360   -0.6431 H   0  0  0  0  0  0  0  0  0  0  0  0
   -0.1632   -1.1531    0.0190 C   0  0  1  0  0  0  0  0  0  0  0  0
    0.5924   -1.7403   -0.5155 H   0  0  0  0  0  0  0  0  0  0  0  0
   -0.3053    0.1791   -0.7435 C   0  0  0  0  0  0  0  0  0  0  0  0
    0.6578    0.6983   -0.6867 H   0  0  0  0  0  0  0  0  0  0  0  0
   -0.4975   -0.0302   -1.8007 H   0  0  0  0  0  0  0  0  0  0  0  0
   -1.4100    1.1100   -0.2126 C   0  0  0  0  0  0  0  0  0  0  0  0
   -2.3933    0.7157   -0.4880 H   0  0  0  0  0  0  0  0  0  0  0  0
   -1.3634    1.1704    0.8775 H   0  0  0  0  0  0  0  0  0  0  0  0
   -1.2317    2.5244   -0.7768 C   0  0  0  0  0  0  0  0  0  0  0  0
   -0.2468    2.9130   -0.4974 H   0  0  0  0  0  0  0  0  0  0  0  0
   -1.2837    2.4910   -1.8701 H   0  0  0  0  0  0  0  0  0  0  0  0
   -2.3117    3.4638   -0.2485 C   0  0  0  0  0  0  0  0  0  0  0  0
   -3.3045    3.0774   -0.5040 H   0  0  0  0  0  0  0  0  0  0  0  0
   -2.2443    3.5371    0.8426 H   0  0  0  0  0  0  0  0  0  0  0  0
   -2.1192    4.7829   -0.8570 N   0  0  0  0  0  0  0  0  0  0  0  0
   -2.8157    5.4498   -0.5242 H   0  0  0  0  0  0  0  0  0  0  0  0
   -1.1744    5.1299   -0.6888 H   0  0  0  0  0  0  0  0  0  0  0  0
    0.4116   -0.9730    1.4445 C   0  0  0  0  0  0  0  0  0  0  0  0
    1.6244   -0.9094    1.5973 O   0  0  0  0  0  0  0  0  0  0  0  0
   -0.4105   -0.6118    2.4974 N   0  0  0  0  0  0  0  0  0  0  0  0
   -1.4024   -0.7753    2.3609 H   0  0  0  0  0  0  0  0  0  0  0  0
    0.0858   -0.4155    3.8537 C   0  0  0  0  0  0  0  0  0  0  0  0
    0.8331    0.3845    3.8768 H   0  0  0  0  0  0  0  0  0  0  0  0
   -0.7358   -0.1380    4.5206 H   0  0  0  0  0  0  0  0  0  0  0  0
    0.5440   -1.3363    4.2299 H   0  0  0  0  0  0  0  0  0  0  0  0
  1  2  1  0  0  0  0
  2  3  1  0  0  0  0
  2  4  1  0  0  0  0
  2  5  1  0  0  0  0
  5  6  2  0  0  0  0
  5  7  1  0  0  0  0
  7  8  1  0  0  0  0
  7  9  1  0  0  0  0
  9 10  1  0  0  0  0
  9 11  1  0  0  0  0
  9 26  1  0  0  0  0
 11 12  1  0  0  0  0
 11 13  1  0  0  0  0
 11 14  1  0  0  0  0
 14 15  1  0  0  0  0
 14 16  1  0  0  0  0
 14 17  1  0  0  0  0
 17 18  1  0  0  0  0
 17 19  1  0  0  0  0
 17 20  1  0  0  0  0
 20 21  1  0  0  0  0
 20 22  1  0  0  0  0
 20 23  1  0  0  0  0
 23 24  1  0  0  0  0
 23 25  1  0  0  0  0
 26 27  2  0  0  0  0
 26 28  1  0  0  0  0
 28 29  1  0  0  0  0
 28 30  1  0  0  0  0
 30 31  1  0  0  0  0
 30 32  1  0  0  0  0
 30 33  1  0  0  0  0
M  END
$$$$

  -OEChem-03222214063D

 33 32  0     1  0  0  0  0  0999 V2000
   -2.8499   -4.9311    0.4686 H   0  0  0  0  0  0  0  0  0  0  0  0
   -2.8898   -3.9096    0.0794 C   0  0  0  0  0  0  0  0  0  0  0  0
   -3.7044   -3.3760    0.5748 H   0  0  0  0  0  0  0  0  0  0  0  0
   -3.0887   -3.9513   -0.9941 H   0  0  0  0  0  0  0  0  0  0  0  0
   -1.5732   -3.2014    0.3373 C   0  0  0  0  0  0  0  0  0  0  0  0
   -0.6766   -3.7833    0.9207 O   0  0  0  0  0  0  0  0  0  0  0  0
   -1.4075   -1.8933   -0.0744 N   0  0  0  0  0  0  0  0  0  0  0  0
   -2.1618   -1.4867   -0.6197 H   0  0  0  0  0  0  0  0  0  0  0  0
   -0.1391   -1.1471    0.0185 C   0  0  1  0  0  0  0  0  0  0  0  0
    0.6111   -1.7394   -0.5180 H   0  0  0  0  0  0  0  0  0  0  0  0
   -0.2750    0.1840   -0.7482 C   0  0  0  0  0  0  0  0  0  0  0  0
    0.7316    0.5857   -0.9077 H   0  0  0  0  0  0  0  0  0  0  0  0
   -0.7066   -0.0126   -1.7349 H   0  0  0  0  0  0  0  0  0  0  0  0
   -1.1120    1.2521   -0.0256 C   0  0  0  0  0  0  0  0  0  0  0  0
   -2.1209    0.8717    0.1630 H   0  0  0  0  0  0  0  0  0  0  0  0
   -0.6535    1.4977    0.9371 H   0  0  0  0  0  0  0  0  0  0  0  0
   -1.1881    2.5309   -0.8659 C   0  0  0  0  0  0  0  0  0  0  0  0
   -0.1774    2.8996   -1.0694 H   0  0  0  0  0  0  0  0  0  0  0  0
   -1.6686    2.3123   -1.8253 H   0  0  0  0  0  0  0  0  0  0  0  0
   -1.9826    3.6102   -0.1366 C   0  0  0  0  0  0  0  0  0  0  0  0
   -2.9906    3.2469    0.0919 H   0  0  0  0  0  0  0  0  0  0  0  0
   -1.4900    3.8646    0.8087 H   0  0  0  0  0  0  0  0  0  0  0  0
   -2.0634    4.7918   -0.9995 N   0  0  0  0  0  0  0  0  0  0  0  0
   -2.5790    5.5462   -0.5459 H   0  0  0  0  0  0  0  0  0  0  0  0
   -1.1333    5.1051   -1.2785 H   0  0  0  0  0  0  0  0  0  0  0  0
    0.4275   -0.9860    1.4491 C   0  0  0  0  0  0  0  0  0  0  0  0
    1.6389   -0.9245    1.6128 O   0  0  0  0  0  0  0  0  0  0  0  0
   -0.4053   -0.6287    2.4954 N   0  0  0  0  0  0  0  0  0  0  0  0
   -1.3972   -0.7787    2.3448 H   0  0  0  0  0  0  0  0  0  0  0  0
    0.0751   -0.4291    3.8567 C   0  0  0  0  0  0  0  0  0  0  0  0
    0.8348    0.3592    3.8846 H   0  0  0  0  0  0  0  0  0  0  0  0
   -0.7513   -0.1327    4.5096 H   0  0  0  0  0  0  0  0  0  0  0  0
    0.5134   -1.3537    4.2467 H   0  0  0  0  0  0  0  0  0  0  0  0
  1  2  1  0  0  0  0
  2  3  1  0  0  0  0
  2  4  1  0  0  0  0
  2  5  1  0  0  0  0
  5  6  2  0  0  0  0
  5  7  1  0  0  0  0
  7  8  1  0  0  0  0
  7  9  1  0  0  0  0
  9 10  1  0  0  0  0
  9 11  1  0  0  0  0
  9 26  1  0  0  0  0
 11 12  1  0  0  0  0
 11 13  1  0  0  0  0
 11 14  1  0  0  0  0
 14 15  1  0  0  0  0
 14 16  1  0  0  0  0
 14 17  1  0  0  0  0
 17 18  1  0  0  0  0
 17 19  1  0  0  0  0
 17 20  1  0  0  0  0
 20 21  1  0  0  0  0
 20 22  1  0  0  0  0
 20 23  1  0  0  0  0
 23 24  1  0  0  0  0
 23 25  1  0  0  0  0
 26 27  2  0  0  0  0
 26 28  1  0  0  0  0
 28 29  1  0  0  0  0
 28 30  1  0  0  0  0
 30 31  1  0  0  0  0
 30 32  1  0  0  0  0
 30 33  1  0  0  0  0
M  END
$$$$

  -OEChem-03222214063D

 33 32  0     1  0  0  0  0  0999 V2000
   -2.8648   -4.9276    0.4710 H   0  0  0  0  0  0  0  0  0  0  0  0
   -2.9005   -3.9072    0.0784 C   0  0  0  0  0  0  0  0  0  0  0  0
   -3.7203   -3.3719    0.5635 H   0  0  0  0  0  0  0  0  0  0  0  0
   -3.0889   -3.9517   -0.9970 H   0  0  0  0  0  0  0  0  0  0  0  0
   -1.5857   -3.1991    0.3471 C   0  0  0  0  0  0  0  0  0  0  0  0
   -0.6954   -3.7780    0.9432 O   0  0  0  0  0  0  0  0  0  0  0  0
   -1.4122   -1.8958   -0.0753 N   0  0  0  0  0  0  0  0  0  0  0  0
   -2.1614   -1.4919   -0.6297 H   0  0  0  0  0  0  0  0  0  0  0  0
   -0.1406   -1.1545    0.0129 C   0  0  1  0  0  0  0  0  0  0  0  0
    0.6062   -1.7511   -0.5235 H   0  0  0  0  0  0  0  0  0  0  0  0
   -0.2743    0.1764   -0.7517 C   0  0  0  0  0  0  0  0  0  0  0  0
    0.7274    0.5823   -0.9296 H   0  0  0  0  0  0  0  0  0  0  0  0
   -0.7192   -0.0276   -1.7308 H   0  0  0  0  0  0  0  0  0  0  0  0
   -1.1066    1.2379   -0.0145 C   0  0  0  0  0  0  0  0  0  0  0  0
   -2.0160    0.7836    0.3916 H   0  0  0  0  0  0  0  0  0  0  0  0
   -0.5278    1.6457    0.8211 H   0  0  0  0  0  0  0  0  0  0  0  0
   -1.5020    2.3685   -0.9696 C   0  0  0  0  0  0  0  0  0  0  0  0
   -0.6014    2.8117   -1.4073 H   0  0  0  0  0  0  0  0  0  0  0  0
   -2.1112    1.9657   -1.7855 H   0  0  0  0  0  0  0  0  0  0  0  0
   -2.2924    3.4474   -0.2352 C   0  0  0  0  0  0  0  0  0  0  0  0
   -3.1831    3.0112    0.2304 H   0  0  0  0  0  0  0  0  0  0  0  0
   -1.6772    3.8903    0.5560 H   0  0  0  0  0  0  0  0  0  0  0  0
   -2.6895    4.4735   -1.2034 N   0  0  0  0  0  0  0  0  0  0  0  0
   -3.2170    5.2220   -0.7534 H   0  0  0  0  0  0  0  0  0  0  0  0
   -1.8769    4.8474   -1.6943 H   0  0  0  0  0  0  0  0  0  0  0  0
    0.4321   -0.9787    1.4390 C   0  0  0  0  0  0  0  0  0  0  0  0
    1.6446   -0.9178    1.5951 O   0  0  0  0  0  0  0  0  0  0  0  0
   -0.3935   -0.6054    2.4853 N   0  0  0  0  0  0  0  0  0  0  0  0
   -1.3859   -0.7621    2.3449 H   0  0  0  0  0  0  0  0  0  0  0  0
    0.0971   -0.3948    3.8416 C   0  0  0  0  0  0  0  0  0  0  0  0
    0.8607    0.3902    3.8560 H   0  0  0  0  0  0  0  0  0  0  0  0
   -0.7233   -0.0879    4.4973 H   0  0  0  0  0  0  0  0  0  0  0  0
    0.5339   -1.3176    4.2381 H   0  0  0  0  0  0  0  0  0  0  0  0
  1  2  1  0  0  0  0
  2  3  1  0  0  0  0
  2  4  1  0  0  0  0
  2  5  1  0  0  0  0
  5  6  2  0  0  0  0
  5  7  1  0  0  0  0
  7  8  1  0  0  0  0
  7  9  1  0  0  0  0
  9 10  1  0  0  0  0
  9 11  1  0  0  0  0
  9 26  1  0  0  0  0
 11 12  1  0  0  0  0
 11 13  1  0  0  0  0
 11 14  1  0  0  0  0
 14 15  1  0  0  0  0
 14 16  1  0  0  0  0
 14 17  1  0  0  0  0
 17 18  1  0  0  0  0
 17 19  1  0  0  0  0
 17 20  1  0  0  0  0
 20 21  1  0  0  0  0
 20 22  1  0  0  0  0
 20 23  1  0  0  0  0
 23 24  1  0  0  0  0
 23 25  1  0  0  0  0
 26 27  2  0  0  0  0
 26 28  1  0  0  0  0
 28 29  1  0  0  0  0
 28 30  1  0  0  0  0
 30 31  1  0  0  0  0
 30 32  1  0  0  0  0
 30 33  1  0  0  0  0
M  END
$$$$

  -OEChem-03222214063D

 33 32  0     1  0  0  0  0  0999 V2000
   -2.8839   -4.9158    0.4845 H   0  0  0  0  0  0  0  0  0  0  0  0
   -2.9136   -3.8959    0.0902 C   0  0  0  0  0  0  0  0  0  0  0  0
   -3.7232   -3.3519    0.5825 H   0  0  0  0  0  0  0  0  0  0  0  0
   -3.1125   -3.9405   -0.9833 H   0  0  0  0  0  0  0  0  0  0  0  0
   -1.5902   -3.1990    0.3447 C   0  0  0  0  0  0  0  0  0  0  0  0
   -0.6981   -3.7848    0.9310 O   0  0  0  0  0  0  0  0  0  0  0  0
   -1.4124   -1.8958   -0.0759 N   0  0  0  0  0  0  0  0  0  0  0  0
   -2.1669   -1.4816   -0.6155 H   0  0  0  0  0  0  0  0  0  0  0  0
   -0.1389   -1.1581    0.0132 C   0  0  1  0  0  0  0  0  0  0  0  0
    0.6054   -1.7559   -0.5255 H   0  0  0  0  0  0  0  0  0  0  0  0
   -0.2708    0.1735   -0.7498 C   0  0  0  0  0  0  0  0  0  0  0  0
    0.7288    0.5818   -0.9334 H   0  0  0  0  0  0  0  0  0  0  0  0
   -0.7166   -0.0357   -1.7277 H   0  0  0  0  0  0  0  0  0  0  0  0
   -1.1026    1.2365   -0.0106 C   0  0  0  0  0  0  0  0  0  0  0  0
   -1.8701    0.7529    0.6015 H   0  0  0  0  0  0  0  0  0  0  0  0
   -0.4527    1.8118    0.6579 H   0  0  0  0  0  0  0  0  0  0  0  0
   -1.8057    2.1655   -1.0063 C   0  0  0  0  0  0  0  0  0  0  0  0
   -1.0608    2.6419   -1.6522 H   0  0  0  0  0  0  0  0  0  0  0  0
   -2.4809    1.5823   -1.6413 H   0  0  0  0  0  0  0  0  0  0  0  0
   -2.6056    3.2402   -0.2769 C   0  0  0  0  0  0  0  0  0  0  0  0
   -3.3372    2.7757    0.3934 H   0  0  0  0  0  0  0  0  0  0  0  0
   -1.9360    3.8616    0.3280 H   0  0  0  0  0  0  0  0  0  0  0  0
   -3.2964    4.0608   -1.2753 N   0  0  0  0  0  0  0  0  0  0  0  0
   -3.8453    4.7977   -0.8320 H   0  0  0  0  0  0  0  0  0  0  0  0
   -2.6356    4.4548   -1.9454 H   0  0  0  0  0  0  0  0  0  0  0  0
    0.4409   -0.9810    1.4367 C   0  0  0  0  0  0  0  0  0  0  0  0
    1.6547   -0.9312    1.5869 O   0  0  0  0  0  0  0  0  0  0  0  0
   -0.3753   -0.6041    2.4891 N   0  0  0  0  0  0  0  0  0  0  0  0
   -1.3704   -0.7480    2.3545 H   0  0  0  0  0  0  0  0  0  0  0  0
    0.1252   -0.3939    3.8417 C   0  0  0  0  0  0  0  0  0  0  0  0
    0.8936    0.3865    3.8502 H   0  0  0  0  0  0  0  0  0  0  0  0
   -0.6889   -0.0810    4.5021 H   0  0  0  0  0  0  0  0  0  0  0  0
    0.5579   -1.3192    4.2365 H   0  0  0  0  0  0  0  0  0  0  0  0
  1  2  1  0  0  0  0
  2  3  1  0  0  0  0
  2  4  1  0  0  0  0
  2  5  1  0  0  0  0
  5  6  2  0  0  0  0
  5  7  1  0  0  0  0
  7  8  1  0  0  0  0
  7  9  1  0  0  0  0
  9 10  1  0  0  0  0
  9 11  1  0  0  0  0
  9 26  1  0  0  0  0
 11 12  1  0  0  0  0
 11 13  1  0  0  0  0
 11 14  1  0  0  0  0
 14 15  1  0  0  0  0
 14 16  1  0  0  0  0
 14 17  1  0  0  0  0
 17 18  1  0  0  0  0
 17 19  1  0  0  0  0
 17 20  1  0  0  0  0
 20 21  1  0  0  0  0
 20 22  1  0  0  0  0
 20 23  1  0  0  0  0
 23 24  1  0  0  0  0
 23 25  1  0  0  0  0
 26 27  2  0  0  0  0
 26 28  1  0  0  0  0
 28 29  1  0  0  0  0
 28 30  1  0  0  0  0
 30 31  1  0  0  0  0
 30 32  1  0  0  0  0
 30 33  1  0  0  0  0
M  END
$$$$

  -OEChem-03222214063D

 33 32  0     1  0  0  0  0  0999 V2000
   -2.8957   -4.9087    0.4882 H   0  0  0  0  0  0  0  0  0  0  0  0
   -2.9248   -3.8864    0.1005 C   0  0  0  0  0  0  0  0  0  0  0  0
   -3.7302   -3.3433    0.6008 H   0  0  0  0  0  0  0  0  0  0  0  0
   -3.1293   -3.9232   -0.9724 H   0  0  0  0  0  0  0  0  0  0  0  0
   -1.5982   -3.1947    0.3516 C   0  0  0  0  0  0  0  0  0  0  0  0
   -0.7018   -3.7884    0.9235 O   0  0  0  0  0  0  0  0  0  0  0  0
   -1.4227   -1.8869   -0.0545 N   0  0  0  0  0  0  0  0  0  0  0  0
   -2.1845   -1.4620   -0.5756 H   0  0  0  0  0  0  0  0  0  0  0  0
   -0.1484   -1.1518    0.0308 C   0  0  1  0  0  0  0  0  0  0  0  0
    0.5876   -1.7539   -0.5145 H   0  0  0  0  0  0  0  0  0  0  0  0
   -0.2760    0.1756   -0.7400 C   0  0  0  0  0  0  0  0  0  0  0  0
    0.7278    0.5764   -0.9184 H   0  0  0  0  0  0  0  0  0  0  0  0
   -0.7103   -0.0395   -1.7220 H   0  0  0  0  0  0  0  0  0  0  0  0
   -1.1056    1.2546   -0.0170 C   0  0  0  0  0  0  0  0  0  0  0  0
   -1.6949    0.8070    0.7878 H   0  0  0  0  0  0  0  0  0  0  0  0
   -0.4323    1.9928    0.4322 H   0  0  0  0  0  0  0  0  0  0  0  0
   -2.0826    1.9359   -0.9818 C   0  0  0  0  0  0  0  0  0  0  0  0
   -1.5266    2.3896   -1.8087 H   0  0  0  0  0  0  0  0  0  0  0  0
   -2.7657    1.1897   -1.4011 H   0  0  0  0  0  0  0  0  0  0  0  0
   -2.8928    3.0115   -0.2648 C   0  0  0  0  0  0  0  0  0  0  0  0
   -3.4288    2.5752    0.5852 H   0  0  0  0  0  0  0  0  0  0  0  0
   -2.2262    3.7924    0.1176 H   0  0  0  0  0  0  0  0  0  0  0  0
   -3.8511    3.5809   -1.2162 N   0  0  0  0  0  0  0  0  0  0  0  0
   -4.4273    4.2984   -0.7753 H   0  0  0  0  0  0  0  0  0  0  0  0
   -3.3740    3.9535   -2.0375 H   0  0  0  0  0  0  0  0  0  0  0  0
    0.4519   -0.9890    1.4479 C   0  0  0  0  0  0  0  0  0  0  0  0
    1.6679   -0.9346    1.5781 O   0  0  0  0  0  0  0  0  0  0  0  0
   -0.3459   -0.6230    2.5177 N   0  0  0  0  0  0  0  0  0  0  0  0
   -1.3427   -0.7701    2.3990 H   0  0  0  0  0  0  0  0  0  0  0  0
    0.1770   -0.4326    3.8647 C   0  0  0  0  0  0  0  0  0  0  0  0
    0.9390    0.3539    3.8730 H   0  0  0  0  0  0  0  0  0  0  0  0
   -0.6282   -0.1380    4.5444 H   0  0  0  0  0  0  0  0  0  0  0  0
    0.6242   -1.3610    4.2355 H   0  0  0  0  0  0  0  0  0  0  0  0
  1  2  1  0  0  0  0
  2  3  1  0  0  0  0
  2  4  1  0  0  0  0
  2  5  1  0  0  0  0
  5  6  2  0  0  0  0
  5  7  1  0  0  0  0
  7  8  1  0  0  0  0
  7  9  1  0  0  0  0
  9 10  1  0  0  0  0
  9 11  1  0  0  0  0
  9 26  1  0  0  0  0
 11 12  1  0  0  0  0
 11 13  1  0  0  0  0
 11 14  1  0  0  0  0
 14 15  1  0  0  0  0
 14 16  1  0  0  0  0
 14 17  1  0  0  0  0
 17 18  1  0  0  0  0
 17 19  1  0  0  0  0
 17 20  1  0  0  0  0
 20 21  1  0  0  0  0
 20 22  1  0  0  0  0
 20 23  1  0  0  0  0
 23 24  1  0  0  0  0
 23 25  1  0  0  0  0
 26 27  2  0  0  0  0
 26 28  1  0  0  0  0
 28 29  1  0  0  0  0
 28 30  1  0  0  0  0
 30 31  1  0  0  0  0
 30 32  1  0  0  0  0
 30 33  1  0  0  0  0
M  END
$$$$

  -OEChem-03222214063D

 33 32  0     1  0  0  0  0  0999 V2000
   -2.9219   -4.8840    0.5091 H   0  0  0  0  0  0  0  0  0  0  0  0
   -2.9457   -3.8606    0.1240 C   0  0  0  0  0  0  0  0  0  0  0  0
   -3.7334   -3.3085    0.6421 H   0  0  0  0  0  0  0  0  0  0  0  0
   -3.1732   -3.8921   -0.9442 H   0  0  0  0  0  0  0  0  0  0  0  0
   -1.6048   -3.1870    0.3478 C   0  0  0  0  0  0  0  0  0  0  0  0
   -0.6968   -3.8000    0.8797 O   0  0  0  0  0  0  0  0  0  0  0  0
   -1.4289   -1.8725   -0.0354 N   0  0  0  0  0  0  0  0  0  0  0  0
   -2.2074   -1.4226   -0.5089 H   0  0  0  0  0  0  0  0  0  0  0  0
   -0.1534   -1.1403    0.0491 C   0  0  1  0  0  0  0  0  0  0  0  0
    0.5749   -1.7442   -0.5047 H   0  0  0  0  0  0  0  0  0  0  0  0
   -0.2785    0.1829   -0.7300 C   0  0  0  0  0  0  0  0  0  0  0  0
    0.7323    0.5765   -0.8839 H   0  0  0  0  0  0  0  0  0  0  0  0
   -0.6864   -0.0272   -1.7244 H   0  0  0  0  0  0  0  0  0  0  0  0
   -1.1072    1.2764   -0.0262 C   0  0  0  0  0  0  0  0  0  0  0  0
   -1.4761    0.9308    0.9413 H   0  0  0  0  0  0  0  0  0  0  0  0
   -0.4720    2.1499    0.1558 H   0  0  0  0  0  0  0  0  0  0  0  0
   -2.3116    1.6818   -0.8829 C   0  0  0  0  0  0  0  0  0  0  0  0
   -1.9659    2.0701   -1.8466 H   0  0  0  0  0  0  0  0  0  0  0  0
   -2.9363    0.8033   -1.0754 H   0  0  0  0  0  0  0  0  0  0  0  0
   -3.1468    2.7451   -0.1775 C   0  0  0  0  0  0  0  0  0  0  0  0
   -3.4752    2.3785    0.8015 H   0  0  0  0  0  0  0  0  0  0  0  0
   -2.5490    3.6498   -0.0194 H   0  0  0  0  0  0  0  0  0  0  0  0
   -4.3125    3.0433   -1.0140 N   0  0  0  0  0  0  0  0  0  0  0  0
   -4.9126    3.7420   -0.5746 H   0  0  0  0  0  0  0  0  0  0  0  0
   -4.0262    3.3466   -1.9452 H   0  0  0  0  0  0  0  0  0  0  0  0
    0.4675   -1.0008    1.4604 C   0  0  0  0  0  0  0  0  0  0  0  0
    1.6853   -0.9454    1.5711 O   0  0  0  0  0  0  0  0  0  0  0  0
   -0.3106   -0.6527    2.5507 N   0  0  0  0  0  0  0  0  0  0  0  0
   -1.3094   -0.7990    2.4484 H   0  0  0  0  0  0  0  0  0  0  0  0
    0.2372   -0.4776    3.8899 C   0  0  0  0  0  0  0  0  0  0  0  0
    1.0045    0.3038    3.8923 H   0  0  0  0  0  0  0  0  0  0  0  0
   -0.5537   -0.1838    4.5864 H   0  0  0  0  0  0  0  0  0  0  0  0
    0.6849   -1.4120    4.2442 H   0  0  0  0  0  0  0  0  0  0  0  0
  1  2  1  0  0  0  0
  2  3  1  0  0  0  0
  2  4  1  0  0  0  0
  2  5  1  0  0  0  0
  5  6  2  0  0  0  0
  5  7  1  0  0  0  0
  7  8  1  0  0  0  0
  7  9  1  0  0  0  0
  9 10  1  0  0  0  0
  9 11  1  0  0  0  0
  9 26  1  0  0  0  0
 11 12  1  0  0  0  0
 11 13  1  0  0  0  0
 11 14  1  0  0  0  0
 14 15  1  0  0  0  0
 14 16  1  0  0  0  0
 14 17  1  0  0  0  0
 17 18  1  0  0  0  0
 17 19  1  0  0  0  0
 17 20  1  0  0  0  0
 20 21  1  0  0  0  0
 20 22  1  0  0  0  0
 20 23  1  0  0  0  0
 23 24  1  0  0  0  0
 23 25  1  0  0  0  0
 26 27  2  0  0  0  0
 26 28  1  0  0  0  0
 28 29  1  0  0  0  0
 28 30  1  0  0  0  0
 30 31  1  0  0  0  0
 30 32  1  0  0  0  0
 30 33  1  0  0  0  0
M  END
$$$$

  -OEChem-03222214063D

 33 32  0     1  0  0  0  0  0999 V2000
   -2.9086   -4.8906    0.5409 H   0  0  0  0  0  0  0  0  0  0  0  0
   -2.9400   -3.8663    0.1585 C   0  0  0  0  0  0  0  0  0  0  0  0
   -3.7201   -3.3165    0.6903 H   0  0  0  0  0  0  0  0  0  0  0  0
   -3.1846   -3.8961   -0.9059 H   0  0  0  0  0  0  0  0  0  0  0  0
   -1.5965   -3.1916    0.3624 C   0  0  0  0  0  0  0  0  0  0  0  0
   -0.6786   -3.8070    0.8744 O   0  0  0  0  0  0  0  0  0  0  0  0
   -1.4269   -1.8759   -0.0196 N   0  0  0  0  0  0  0  0  0  0  0  0
   -2.2156   -1.4209   -0.4707 H   0  0  0  0  0  0  0  0  0  0  0  0
   -0.1525   -1.1409    0.0541 C   0  0  1  0  0  0  0  0  0  0  0  0
    0.5726   -1.7470   -0.5012 H   0  0  0  0  0  0  0  0  0  0  0  0
   -0.2795    0.1782   -0.7354 C   0  0  0  0  0  0  0  0  0  0  0  0
    0.7365    0.5641   -0.8736 H   0  0  0  0  0  0  0  0  0  0  0  0
   -0.6733   -0.0290   -1.7357 H   0  0  0  0  0  0  0  0  0  0  0  0
   -1.1025    1.2883   -0.0516 C   0  0  0  0  0  0  0  0  0  0  0  0
   -1.2197    1.1052    1.0170 H   0  0  0  0  0  0  0  0  0  0  0  0
   -0.5671    2.2377   -0.1586 H   0  0  0  0  0  0  0  0  0  0  0  0
   -2.4818    1.4276   -0.7066 C   0  0  0  0  0  0  0  0  0  0  0  0
   -2.3655    1.6885   -1.7636 H   0  0  0  0  0  0  0  0  0  0  0  0
   -3.0130    0.4726   -0.6497 H   0  0  0  0  0  0  0  0  0  0  0  0
   -3.3115    2.4993   -0.0072 C   0  0  0  0  0  0  0  0  0  0  0  0
   -3.4040    2.2671    1.0597 H   0  0  0  0  0  0  0  0  0  0  0  0
   -2.8240    3.4761   -0.1019 H   0  0  0  0  0  0  0  0  0  0  0  0
   -4.6393    2.5286   -0.6275 N   0  0  0  0  0  0  0  0  0  0  0  0
   -5.2462    3.2082   -0.1678 H   0  0  0  0  0  0  0  0  0  0  0  0
   -4.5717    2.7230   -1.6268 H   0  0  0  0  0  0  0  0  0  0  0  0
    0.4738   -1.0078    1.4634 C   0  0  0  0  0  0  0  0  0  0  0  0
    1.6922   -0.9589    1.5717 O   0  0  0  0  0  0  0  0  0  0  0  0
   -0.3005   -0.6669    2.5586 N   0  0  0  0  0  0  0  0  0  0  0  0
   -1.3014   -0.7987    2.4556 H   0  0  0  0  0  0  0  0  0  0  0  0
    0.2511   -0.5036    3.8977 C   0  0  0  0  0  0  0  0  0  0  0  0
    1.0042    0.2914    3.9084 H   0  0  0  0  0  0  0  0  0  0  0  0
   -0.5412   -0.2365    4.6033 H   0  0  0  0  0  0  0  0  0  0  0  0
    0.7179   -1.4354    4.2343 H   0  0  0  0  0  0  0  0  0  0  0  0
  1  2  1  0  0  0  0
  2  3  1  0  0  0  0
  2  4  1  0  0  0  0
  2  5  1  0  0  0  0
  5  6  2  0  0  0  0
  5  7  1  0  0  0  0
  7  8  1  0  0  0  0
  7  9  1  0  0  0  0
  9 10  1  0  0  0  0
  9 11  1  0  0  0  0
  9 26  1  0  0  0  0
 11 12  1  0  0  0  0
 11 13  1  0  0  0  0
 11 14  1  0  0  0  0
 14 15  1  0  0  0  0
 14 16  1  0  0  0  0
 14 17  1  0  0  0  0
 17 18  1  0  0  0  0
 17 19  1  0  0  0  0
 17 20  1  0  0  0  0
 20 21  1  0  0  0  0
 20 22  1  0  0  0  0
 20 23  1  0  0  0  0
 23 24  1  0  0  0  0
 23 25  1  0  0  0  0
 26 27  2  0  0  0  0
 26 28  1  0  0  0  0
 28 29  1  0  0  0  0
 28 30  1  0  0  0  0
 30 31  1  0  0  0  0
 30 32  1  0  0  0  0
 30 33  1  0  0  0  0
M  END
$$$$

  -OEChem-03222214063D

 33 32  0     1  0  0  0  0  0999 V2000
   -2.8455   -4.9395    0.5874 H   0  0  0  0  0  0  0  0  0  0  0  0
   -2.8909   -3.9216    0.1895 C   0  0  0  0  0  0  0  0  0  0  0  0
   -3.6658   -3.3689    0.7262 H   0  0  0  0  0  0  0  0  0  0  0  0
   -3.1538   -3.9694   -0.8701 H   0  0  0  0  0  0  0  0  0  0  0  0
   -1.5489   -3.2344    0.3596 C   0  0  0  0  0  0  0  0  0  0  0  0
   -0.6132   -3.8406    0.8498 O   0  0  0  0  0  0  0  0  0  0  0  0
   -1.4001   -1.9193   -0.0328 N   0  0  0  0  0  0  0  0  0  0  0  0
   -2.2048   -1.4720   -0.4625 H   0  0  0  0  0  0  0  0  0  0  0  0
   -0.1378   -1.1631    0.0320 C   0  0  1  0  0  0  0  0  0  0  0  0
    0.5982   -1.7554   -0.5238 H   0  0  0  0  0  0  0  0  0  0  0  0
   -0.2836    0.1638   -0.7446 C   0  0  0  0  0  0  0  0  0  0  0  0
    0.7288    0.5572   -0.8867 H   0  0  0  0  0  0  0  0  0  0  0  0
   -0.6861   -0.0363   -1.7428 H   0  0  0  0  0  0  0  0  0  0  0  0
   -1.1082    1.2694   -0.0560 C   0  0  0  0  0  0  0  0  0  0  0  0
   -0.9785    1.2546    1.0277 H   0  0  0  0  0  0  0  0  0  0  0  0
   -0.7314    2.2367   -0.4045 H   0  0  0  0  0  0  0  0  0  0  0  0
   -2.5956    1.1812   -0.4208 C   0  0  0  0  0  0  0  0  0  0  0  0
   -2.7155    1.2436   -1.5073 H   0  0  0  0  0  0  0  0  0  0  0  0
   -3.0047    0.2235   -0.0881 H   0  0  0  0  0  0  0  0  0  0  0  0
   -3.3830    2.3059    0.2426 C   0  0  0  0  0  0  0  0  0  0  0  0
   -3.2519    2.2654    1.3298 H   0  0  0  0  0  0  0  0  0  0  0  0
   -3.0216    3.2794   -0.1075 H   0  0  0  0  0  0  0  0  0  0  0  0
   -4.7987    2.1348   -0.0964 N   0  0  0  0  0  0  0  0  0  0  0  0
   -5.3764    2.8335    0.3725 H   0  0  0  0  0  0  0  0  0  0  0  0
   -4.9399    2.1690   -1.1063 H   0  0  0  0  0  0  0  0  0  0  0  0
    0.4736   -1.0191    1.4462 C   0  0  0  0  0  0  0  0  0  0  0  0
    1.6895   -0.9484    1.5693 O   0  0  0  0  0  0  0  0  0  0  0  0
   -0.3224   -0.6874    2.5289 N   0  0  0  0  0  0  0  0  0  0  0  0
   -1.3215   -0.8172    2.4074 H   0  0  0  0  0  0  0  0  0  0  0  0
    0.2040   -0.4947    3.8741 C   0  0  0  0  0  0  0  0  0  0  0  0
    0.9411    0.3153    3.8854 H   0  0  0  0  0  0  0  0  0  0  0  0
   -0.6049   -0.2331    4.5627 H   0  0  0  0  0  0  0  0  0  0  0  0
    0.6827   -1.4121    4.2322 H   0  0  0  0  0  0  0  0  0  0  0  0
  1  2  1  0  0  0  0
  2  3  1  0  0  0  0
  2  4  1  0  0  0  0
  2  5  1  0  0  0  0
  5  6  2  0  0  0  0
  5  7  1  0  0  0  0
  7  8  1  0  0  0  0
  7  9  1  0  0  0  0
  9 10  1  0  0  0  0
  9 11  1  0  0  0  0
  9 26  1  0  0  0  0
 11 12  1  0  0  0  0
 11 13  1  0  0  0  0
 11 14  1  0  0  0  0
 14 15  1  0  0  0  0
 14 16  1  0  0  0  0
 14 17  1  0  0  0  0
 17 18  1  0  0  0  0
 17 19  1  0  0  0  0
 17 20  1  0  0  0  0
 20 21  1  0  0  0  0
 20 22  1  0  0  0  0
 20 23  1  0  0  0  0
 23 24  1  0  0  0  0
 23 25  1  0  0  0  0
 26 27  2  0  0  0  0
 26 28  1  0  0  0  0
 28 29  1  0  0  0  0
 28 30  1  0  0  0  0
 30 31  1  0  0  0  0
 30 32  1  0  0  0  0
 30 33  1  0  0  0  0
M  END
$$$$

  -OEChem-03222214063D

 33 32  0     1  0  0  0  0  0999 V2000
   -2.7789   -4.9919    0.5990 H   0  0  0  0  0  0  0  0  0  0  0  0
   -2.8412   -3.9751    0.2010 C   0  0  0  0  0  0  0  0  0  0  0  0
   -3.6094   -3.4282    0.7529 H   0  0  0  0  0  0  0  0  0  0  0  0
   -3.1250   -4.0267   -0.8530 H   0  0  0  0  0  0  0  0  0  0  0  0
   -1.5019   -3.2768    0.3428 C   0  0  0  0  0  0  0  0  0  0  0  0
   -0.5515   -3.8750    0.8141 O   0  0  0  0  0  0  0  0  0  0  0  0
   -1.3711   -1.9621   -0.0577 N   0  0  0  0  0  0  0  0  0  0  0  0
   -2.1924   -1.5151   -0.4550 H   0  0  0  0  0  0  0  0  0  0  0  0
   -0.1192   -1.1882    0.0043 C   0  0  1  0  0  0  0  0  0  0  0  0
    0.6268   -1.7621   -0.5573 H   0  0  0  0  0  0  0  0  0  0  0  0
   -0.2856    0.1545   -0.7420 C   0  0  0  0  0  0  0  0  0  0  0  0
    0.7197    0.5589   -0.9020 H   0  0  0  0  0  0  0  0  0  0  0  0
   -0.7131   -0.0341   -1.7320 H   0  0  0  0  0  0  0  0  0  0  0  0
   -1.1088    1.2465   -0.0293 C   0  0  0  0  0  0  0  0  0  0  0  0
   -0.7669    1.3833    1.0002 H   0  0  0  0  0  0  0  0  0  0  0  0
   -0.9233    2.1915   -0.5507 H   0  0  0  0  0  0  0  0  0  0  0  0
   -2.6186    0.9746   -0.0590 C   0  0  0  0  0  0  0  0  0  0  0  0
   -2.9433    0.8008   -1.0899 H   0  0  0  0  0  0  0  0  0  0  0  0
   -2.8505    0.0833    0.5296 H   0  0  0  0  0  0  0  0  0  0  0  0
   -3.3923    2.1511    0.5258 C   0  0  0  0  0  0  0  0  0  0  0  0
   -3.0740    2.3325    1.5587 H   0  0  0  0  0  0  0  0  0  0  0  0
   -3.1991    3.0603   -0.0545 H   0  0  0  0  0  0  0  0  0  0  0  0
   -4.8199    1.8203    0.4928 N   0  0  0  0  0  0  0  0  0  0  0  0
   -5.3764    2.5502    0.9395 H   0  0  0  0  0  0  0  0  0  0  0  0
   -5.1367    1.6599   -0.4635 H   0  0  0  0  0  0  0  0  0  0  0  0
    0.4780   -1.0338    1.4225 C   0  0  0  0  0  0  0  0  0  0  0  0
    1.6918   -0.9572    1.5604 O   0  0  0  0  0  0  0  0  0  0  0  0
   -0.3357   -0.7090    2.4940 N   0  0  0  0  0  0  0  0  0  0  0  0
   -1.3346   -0.8208    2.3536 H   0  0  0  0  0  0  0  0  0  0  0  0
    0.1694   -0.5005    3.8447 C   0  0  0  0  0  0  0  0  0  0  0  0
    0.8817    0.3310    3.8636 H   0  0  0  0  0  0  0  0  0  0  0  0
   -0.6547   -0.2635    4.5240 H   0  0  0  0  0  0  0  0  0  0  0  0
    0.6713   -1.4031    4.2089 H   0  0  0  0  0  0  0  0  0  0  0  0
  1  2  1  0  0  0  0
  2  3  1  0  0  0  0
  2  4  1  0  0  0  0
  2  5  1  0  0  0  0
  5  6  2  0  0  0  0
  5  7  1  0  0  0  0
  7  8  1  0  0  0  0
  7  9  1  0  0  0  0
  9 10  1  0  0  0  0
  9 11  1  0  0  0  0
  9 26  1  0  0  0  0
 11 12  1  0  0  0  0
 11 13  1  0  0  0  0
 11 14  1  0  0  0  0
 14 15  1  0  0  0  0
 14 16  1  0  0  0  0
 14 17  1  0  0  0  0
 17 18  1  0  0  0  0
 17 19  1  0  0  0  0
 17 20  1  0  0  0  0
 20 21  1  0  0  0  0
 20 22  1  0  0  0  0
 20 23  1  0  0  0  0
 23 24  1  0  0  0  0
 23 25  1  0  0  0  0
 26 27  2  0  0  0  0
 26 28  1  0  0  0  0
 28 29  1  0  0  0  0
 28 30  1  0  0  0  0
 30 31  1  0  0  0  0
 30 32  1  0  0  0  0
 30 33  1  0  0  0  0
M  END
$$$$

  -OEChem-03222214063D

 33 32  0     1  0  0  0  0  0999 V2000
   -2.7342   -5.0357    0.5969 H   0  0  0  0  0  0  0  0  0  0  0  0
   -2.8079   -4.0182    0.2021 C   0  0  0  0  0  0  0  0  0  0  0  0
   -3.5679   -3.4751    0.7690 H   0  0  0  0  0  0  0  0  0  0  0  0
   -3.1103   -4.0691   -0.8466 H   0  0  0  0  0  0  0  0  0  0  0  0
   -1.4693   -3.3146    0.3206 C   0  0  0  0  0  0  0  0  0  0  0  0
   -0.5080   -3.9092    0.7742 O   0  0  0  0  0  0  0  0  0  0  0  0
   -1.3507   -1.9998   -0.0830 N   0  0  0  0  0  0  0  0  0  0  0  0
   -2.1856   -1.5483   -0.4451 H   0  0  0  0  0  0  0  0  0  0  0  0
   -0.1079   -1.2118   -0.0097 C   0  0  1  0  0  0  0  0  0  0  0  0
    0.6482   -1.7773   -0.5663 H   0  0  0  0  0  0  0  0  0  0  0  0
   -0.2710    0.1384   -0.7431 C   0  0  0  0  0  0  0  0  0  0  0  0
    0.7315    0.5467   -0.9105 H   0  0  0  0  0  0  0  0  0  0  0  0
   -0.7078   -0.0512   -1.7289 H   0  0  0  0  0  0  0  0  0  0  0  0
   -1.1019    1.2290   -0.0351 C   0  0  0  0  0  0  0  0  0  0  0  0
   -0.6103    1.5097    0.9019 H   0  0  0  0  0  0  0  0  0  0  0  0
   -1.1023    2.1179   -0.6741 H   0  0  0  0  0  0  0  0  0  0  0  0
   -2.5564    0.8305    0.2533 C   0  0  0  0  0  0  0  0  0  0  0  0
   -3.0417    0.5164   -0.6763 H   0  0  0  0  0  0  0  0  0  0  0  0
   -2.5908   -0.0026    0.9591 H   0  0  0  0  0  0  0  0  0  0  0  0
   -3.3250    1.9987    0.8610 C   0  0  0  0  0  0  0  0  0  0  0  0
   -2.8445    2.3169    1.7931 H   0  0  0  0  0  0  0  0  0  0  0  0
   -3.3304    2.8514    0.1727 H   0  0  0  0  0  0  0  0  0  0  0  0
   -4.6953    1.5533    1.1313 N   0  0  0  0  0  0  0  0  0  0  0  0
   -5.2242    2.2730    1.6258 H   0  0  0  0  0  0  0  0  0  0  0  0
   -5.1706    1.2857    0.2694 H   0  0  0  0  0  0  0  0  0  0  0  0
    0.4778   -1.0425    1.4117 C   0  0  0  0  0  0  0  0  0  0  0  0
    1.6901   -0.9549    1.5568 O   0  0  0  0  0  0  0  0  0  0  0  0
   -0.3437   -0.7204    2.4780 N   0  0  0  0  0  0  0  0  0  0  0  0
   -1.3430   -0.8187    2.3298 H   0  0  0  0  0  0  0  0  0  0  0  0
    0.1515   -0.4842    3.8278 C   0  0  0  0  0  0  0  0  0  0  0  0
    0.8541    0.3558    3.8372 H   0  0  0  0  0  0  0  0  0  0  0  0
   -0.6795   -0.2459    4.4986 H   0  0  0  0  0  0  0  0  0  0  0  0
    0.6616   -1.3751    4.2087 H   0  0  0  0  0  0  0  0  0  0  0  0
  1  2  1  0  0  0  0
  2  3  1  0  0  0  0
  2  4  1  0  0  0  0
  2  5  1  0  0  0  0
  5  6  2  0  0  0  0
  5  7  1  0  0  0  0
  7  8  1  0  0  0  0
  7  9  1  0  0  0  0
  9 10  1  0  0  0  0
  9 11  1  0  0  0  0
  9 26  1  0  0  0  0
 11 12  1  0  0  0  0
 11 13  1  0  0  0  0
 11 14  1  0  0  0  0
 14 15  1  0  0  0  0
 14 16  1  0  0  0  0
 14 17  1  0  0  0  0
 17 18  1  0  0  0  0
 17 19  1  0  0  0  0
 17 20  1  0  0  0  0
 20 21  1  0  0  0  0
 20 22  1  0  0  0  0
 20 23  1  0  0  0  0
 23 24  1  0  0  0  0
 23 25  1  0  0  0  0
 26 27  2  0  0  0  0
 26 28  1  0  0  0  0
 28 29  1  0  0  0  0
 28 30  1  0  0  0  0
 30 31  1  0  0  0  0
 30 32  1  0  0  0  0
 30 33  1  0  0  0  0
M  END
$$$$

  -OEChem-03222214063D

 33 32  0     1  0  0  0  0  0999 V2000
   -2.6601   -5.1171    0.5443 H   0  0  0  0  0  0  0  0  0  0  0  0
   -2.7576   -4.0913    0.1774 C   0  0  0  0  0  0  0  0  0  0  0  0
   -3.5320   -3.5822    0.7561 H   0  0  0  0  0  0  0  0  0  0  0  0
   -3.0554   -4.1213   -0.8734 H   0  0  0  0  0  0  0  0  0  0  0  0
   -1.4370   -3.3589    0.3198 C   0  0  0  0  0  0  0  0  0  0  0  0
   -0.4632   -3.9418    0.7616 O   0  0  0  0  0  0  0  0  0  0  0  0
   -1.3489   -2.0317   -0.0488 N   0  0  0  0  0  0  0  0  0  0  0  0
   -2.1962   -1.5861   -0.3877 H   0  0  0  0  0  0  0  0  0  0  0  0
   -0.1236   -1.2196    0.0445 C   0  0  1  0  0  0  0  0  0  0  0  0
    0.6354   -1.7814   -0.5122 H   0  0  0  0  0  0  0  0  0  0  0  0
   -0.2760    0.1190   -0.7112 C   0  0  0  0  0  0  0  0  0  0  0  0
    0.7262    0.5309   -0.8723 H   0  0  0  0  0  0  0  0  0  0  0  0
   -0.6908   -0.1025   -1.6998 H   0  0  0  0  0  0  0  0  0  0  0  0
   -1.1379    1.2276   -0.0682 C   0  0  0  0  0  0  0  0  0  0  0  0
   -0.5570    1.6760    0.7452 H   0  0  0  0  0  0  0  0  0  0  0  0
   -1.3090    2.0097   -0.8154 H   0  0  0  0  0  0  0  0  0  0  0  0
   -2.4891    0.7707    0.5064 C   0  0  0  0  0  0  0  0  0  0  0  0
   -3.0978    0.3481   -0.2989 H   0  0  0  0  0  0  0  0  0  0  0  0
   -2.3577    0.0024    1.2679 H   0  0  0  0  0  0  0  0  0  0  0  0
   -3.2287    1.9427    1.1410 C   0  0  0  0  0  0  0  0  0  0  0  0
   -2.6354    2.3545    1.9653 H   0  0  0  0  0  0  0  0  0  0  0  0
   -3.3875    2.7384    0.4044 H   0  0  0  0  0  0  0  0  0  0  0  0
   -4.5147    1.4514    1.6456 N   0  0  0  0  0  0  0  0  0  0  0  0
   -5.0064    2.1780    2.1674 H   0  0  0  0  0  0  0  0  0  0  0  0
   -5.0962    1.0978    0.8861 H   0  0  0  0  0  0  0  0  0  0  0  0
    0.4963   -1.0489    1.4529 C   0  0  0  0  0  0  0  0  0  0  0  0
    1.7110   -0.9349    1.5552 O   0  0  0  0  0  0  0  0  0  0  0  0
   -0.2830   -0.7588    2.5583 N   0  0  0  0  0  0  0  0  0  0  0  0
   -1.2856   -0.8794    2.4567 H   0  0  0  0  0  0  0  0  0  0  0  0
    0.2674   -0.5148    3.8852 C   0  0  0  0  0  0  0  0  0  0  0  0
    0.9117    0.3704    3.8750 H   0  0  0  0  0  0  0  0  0  0  0  0
   -0.5399   -0.3464    4.6042 H   0  0  0  0  0  0  0  0  0  0  0  0
    0.8562   -1.3754    4.2193 H   0  0  0  0  0  0  0  0  0  0  0  0
  1  2  1  0  0  0  0
  2  3  1  0  0  0  0
  2  4  1  0  0  0  0
  2  5  1  0  0  0  0
  5  6  2  0  0  0  0
  5  7  1  0  0  0  0
  7  8  1  0  0  0  0
  7  9  1  0  0  0  0
  9 10  1  0  0  0  0
  9 11  1  0  0  0  0
  9 26  1  0  0  0  0
 11 12  1  0  0  0  0
 11 13  1  0  0  0  0
 11 14  1  0  0  0  0
 14 15  1  0  0  0  0
 14 16  1  0  0  0  0
 14 17  1  0  0  0  0
 17 18  1  0  0  0  0
 17 19  1  0  0  0  0
 17 20  1  0  0  0  0
 20 21  1  0  0  0  0
 20 22  1  0  0  0  0
 20 23  1  0  0  0  0
 23 24  1  0  0  0  0
 23 25  1  0  0  0  0
 26 27  2  0  0  0  0
 26 28  1  0  0  0  0
 28 29  1  0  0  0  0
 28 30  1  0  0  0  0
 30 31  1  0  0  0  0
 30 32  1  0  0  0  0
 30 33  1  0  0  0  0
M  END
$$$$

  -OEChem-03222214063D

 33 32  0     1  0  0  0  0  0999 V2000
   -2.8060   -5.0969    0.2275 H   0  0  0  0  0  0  0  0  0  0  0  0
   -2.8430   -4.0462   -0.0739 C   0  0  0  0  0  0  0  0  0  0  0  0
   -3.6370   -3.5474    0.4869 H   0  0  0  0  0  0  0  0  0  0  0  0
   -3.0708   -3.9947   -1.1413 H   0  0  0  0  0  0  0  0  0  0  0  0
   -1.5105   -3.3765    0.2043 C   0  0  0  0  0  0  0  0  0  0  0  0
   -0.5815   -4.0300    0.6442 O   0  0  0  0  0  0  0  0  0  0  0  0
   -1.3634   -2.0244   -0.0313 N   0  0  0  0  0  0  0  0  0  0  0  0
   -2.1751   -1.5218   -0.3768 H   0  0  0  0  0  0  0  0  0  0  0  0
   -0.1202   -1.2683    0.1941 C   0  0  1  0  0  0  0  0  0  0  0  0
    0.6357   -1.8483   -0.3488 H   0  0  0  0  0  0  0  0  0  0  0  0
   -0.1301    0.0911   -0.5406 C   0  0  0  0  0  0  0  0  0  0  0  0
    0.9044    0.4456   -0.6053 H   0  0  0  0  0  0  0  0  0  0  0  0
   -0.4595   -0.1036   -1.5663 H   0  0  0  0  0  0  0  0  0  0  0  0
   -0.9881    1.2563    0.0059 C   0  0  0  0  0  0  0  0  0  0  0  0
   -0.3610    1.8179    0.7071 H   0  0  0  0  0  0  0  0  0  0  0  0
   -1.2314    1.9297   -0.8228 H   0  0  0  0  0  0  0  0  0  0  0  0
   -2.2785    0.8772    0.7514 C   0  0  0  0  0  0  0  0  0  0  0  0
   -2.0820    0.2081    1.5834 H   0  0  0  0  0  0  0  0  0  0  0  0
   -2.9518    0.3629    0.0588 H   0  0  0  0  0  0  0  0  0  0  0  0
   -2.9725    2.1206    1.2977 C   0  0  0  0  0  0  0  0  0  0  0  0
   -2.3186    2.6260    2.0176 H   0  0  0  0  0  0  0  0  0  0  0  0
   -3.1923    2.8226    0.4855 H   0  0  0  0  0  0  0  0  0  0  0  0
   -4.2139    1.7030    1.9576 N   0  0  0  0  0  0  0  0  0  0  0  0
   -4.6637    2.4905    2.4262 H   0  0  0  0  0  0  0  0  0  0  0  0
   -4.8536    1.2638    1.2959 H   0  0  0  0  0  0  0  0  0  0  0  0
    0.4699   -1.2281    1.6268 C   0  0  0  0  0  0  0  0  0  0  0  0
    1.6857   -1.1593    1.7560 O   0  0  0  0  0  0  0  0  0  0  0  0
   -0.3107   -1.0071    2.7463 N   0  0  0  0  0  0  0  0  0  0  0  0
   -1.3161   -1.0768    2.6259 H   0  0  0  0  0  0  0  0  0  0  0  0
    0.2312   -0.8645    4.0916 C   0  0  0  0  0  0  0  0  0  0  0  0
    0.9005    0.0005    4.1452 H   0  0  0  0  0  0  0  0  0  0  0  0
   -0.5796   -0.7187    4.8115 H   0  0  0  0  0  0  0  0  0  0  0  0
    0.7908   -1.7618    4.3760 H   0  0  0  0  0  0  0  0  0  0  0  0
  1  2  1  0  0  0  0
  2  3  1  0  0  0  0
  2  4  1  0  0  0  0
  2  5  1  0  0  0  0
  5  6  2  0  0  0  0
  5  7  1  0  0  0  0
  7  8  1  0  0  0  0
  7  9  1  0  0  0  0
  9 10  1  0  0  0  0
  9 11  1  0  0  0  0
  9 26  1  0  0  0  0
 11 12  1  0  0  0  0
 11 13  1  0  0  0  0
 11 14  1  0  0  0  0
 14 15  1  0  0  0  0
 14 16  1  0  0  0  0
 14 17  1  0  0  0  0
 17 18  1  0  0  0  0
 17 19  1  0  0  0  0
 17 20  1  0  0  0  0
 20 21  1  0  0  0  0
 20 22  1  0  0  0  0
 20 23  1  0  0  0  0
 23 24  1  0  0  0  0
 23 25  1  0  0  0  0
 26 27  2  0  0  0  0
 26 28  1  0  0  0  0
 28 29  1  0  0  0  0
 28 30  1  0  0  0  0
 30 31  1  0  0  0  0
 30 32  1  0  0  0  0
 30 33  1  0  0  0  0
M  END
$$$$

  -OEChem-03222214063D

 33 32  0     1  0  0  0  0  0999 V2000
   -2.5907   -5.1980    0.2599 H   0  0  0  0  0  0  0  0  0  0  0  0
   -2.7186   -4.1509   -0.0292 C   0  0  0  0  0  0  0  0  0  0  0  0
   -3.5030   -3.7087    0.5894 H   0  0  0  0  0  0  0  0  0  0  0  0
   -3.0218   -4.1103   -1.0781 H   0  0  0  0  0  0  0  0  0  0  0  0
   -1.4178   -3.3948    0.1642 C   0  0  0  0  0  0  0  0  0  0  0  0
   -0.4371   -3.9758    0.5937 O   0  0  0  0  0  0  0  0  0  0  0  0
   -1.3563   -2.0505   -0.1446 N   0  0  0  0  0  0  0  0  0  0  0  0
   -2.2144   -1.6079   -0.4588 H   0  0  0  0  0  0  0  0  0  0  0  0
   -0.1763   -1.1992    0.0876 C   0  0  1  0  0  0  0  0  0  0  0  0
    0.6460   -1.7447   -0.3908 H   0  0  0  0  0  0  0  0  0  0  0  0
   -0.2639    0.1165   -0.7210 C   0  0  0  0  0  0  0  0  0  0  0  0
    0.7485    0.5325   -0.7670 H   0  0  0  0  0  0  0  0  0  0  0  0
   -0.5286   -0.1629   -1.7461 H   0  0  0  0  0  0  0  0  0  0  0  0
   -1.2106    1.2745   -0.3054 C   0  0  0  0  0  0  0  0  0  0  0  0
   -0.5811    2.0819    0.0844 H   0  0  0  0  0  0  0  0  0  0  0  0
   -1.6737    1.6656   -1.2175 H   0  0  0  0  0  0  0  0  0  0  0  0
   -2.3350    1.0015    0.7144 C   0  0  0  0  0  0  0  0  0  0  0  0
   -2.4193   -0.0576    0.9478 H   0  0  0  0  0  0  0  0  0  0  0  0
   -3.2904    1.2927    0.2667 H   0  0  0  0  0  0  0  0  0  0  0  0
   -2.1496    1.8015    2.0023 C   0  0  0  0  0  0  0  0  0  0  0  0
   -1.1253    1.6997    2.3761 H   0  0  0  0  0  0  0  0  0  0  0  0
   -2.3304    2.8660    1.8157 H   0  0  0  0  0  0  0  0  0  0  0  0
   -3.0978    1.2795    2.9916 N   0  0  0  0  0  0  0  0  0  0  0  0
   -2.9631    1.7290    3.8984 H   0  0  0  0  0  0  0  0  0  0  0  0
   -4.0598    1.3978    2.6722 H   0  0  0  0  0  0  0  0  0  0  0  0
    0.3186   -1.0623    1.5501 C   0  0  0  0  0  0  0  0  0  0  0  0
    1.5213   -0.9584    1.7566 O   0  0  0  0  0  0  0  0  0  0  0  0
   -0.5409   -0.8459    2.6125 N   0  0  0  0  0  0  0  0  0  0  0  0
   -1.5334   -0.7581    2.4078 H   0  0  0  0  0  0  0  0  0  0  0  0
   -0.0907   -0.6163    3.9791 C   0  0  0  0  0  0  0  0  0  0  0  0
    0.5223    0.2890    4.0341 H   0  0  0  0  0  0  0  0  0  0  0  0
   -0.9520   -0.4928    4.6424 H   0  0  0  0  0  0  0  0  0  0  0  0
    0.5006   -1.4665    4.3350 H   0  0  0  0  0  0  0  0  0  0  0  0
  1  2  1  0  0  0  0
  2  3  1  0  0  0  0
  2  4  1  0  0  0  0
  2  5  1  0  0  0  0
  5  6  2  0  0  0  0
  5  7  1  0  0  0  0
  7  8  1  0  0  0  0
  7  9  1  0  0  0  0
  9 10  1  0  0  0  0
  9 11  1  0  0  0  0
  9 26  1  0  0  0  0
 11 12  1  0  0  0  0
 11 13  1  0  0  0  0
 11 14  1  0  0  0  0
 14 15  1  0  0  0  0
 14 16  1  0  0  0  0
 14 17  1  0  0  0  0
 17 18  1  0  0  0  0
 17 19  1  0  0  0  0
 17 20  1  0  0  0  0
 20 21  1  0  0  0  0
 20 22  1  0  0  0  0
 20 23  1  0  0  0  0
 23 24  1  0  0  0  0
 23 25  1  0  0  0  0
 26 27  2  0  0  0  0
 26 28  1  0  0  0  0
 28 29  1  0  0  0  0
 28 30  1  0  0  0  0
 30 31  1  0  0  0  0
 30 32  1  0  0  0  0
 30 33  1  0  0  0  0
M  END
$$$$

  -OEChem-03222214063D

 33 32  0     1  0  0  0  0  0999 V2000
   -2.6442   -5.1709    0.0983 H   0  0  0  0  0  0  0  0  0  0  0  0
   -2.7480   -4.1181   -0.1789 C   0  0  0  0  0  0  0  0  0  0  0  0
   -3.5619   -3.6806    0.4039 H   0  0  0  0  0  0  0  0  0  0  0  0
   -2.9935   -4.0566   -1.2418 H   0  0  0  0  0  0  0  0  0  0  0  0
   -1.4539   -3.3765    0.0979 C   0  0  0  0  0  0  0  0  0  0  0  0
   -0.4852   -3.9844    0.5174 O   0  0  0  0  0  0  0  0  0  0  0  0
   -1.3856   -2.0157   -0.1267 N   0  0  0  0  0  0  0  0  0  0  0  0
   -2.2335   -1.5563   -0.4442 H   0  0  0  0  0  0  0  0  0  0  0  0
   -0.2103   -1.1807    0.1731 C   0  0  1  0  0  0  0  0  0  0  0  0
    0.6147   -1.7288   -0.2982 H   0  0  0  0  0  0  0  0  0  0  0  0
   -0.2445    0.1335   -0.6430 C   0  0  0  0  0  0  0  0  0  0  0  0
    0.7719    0.5407   -0.6041 H   0  0  0  0  0  0  0  0  0  0  0  0
   -0.4264   -0.1382   -1.6882 H   0  0  0  0  0  0  0  0  0  0  0  0
   -1.2002    1.3054   -0.2947 C   0  0  0  0  0  0  0  0  0  0  0  0
   -0.6026    2.2157   -0.1753 H   0  0  0  0  0  0  0  0  0  0  0  0
   -1.8256    1.4665   -1.1791 H   0  0  0  0  0  0  0  0  0  0  0  0
   -2.1568    1.1749    0.9002 C   0  0  0  0  0  0  0  0  0  0  0  0
   -2.3723    0.1280    1.1173 H   0  0  0  0  0  0  0  0  0  0  0  0
   -3.1115    1.6378    0.6304 H   0  0  0  0  0  0  0  0  0  0  0  0
   -1.6293    1.8983    2.1374 C   0  0  0  0  0  0  0  0  0  0  0  0
   -0.5982    1.5994    2.3526 H   0  0  0  0  0  0  0  0  0  0  0  0
   -1.6286    2.9807    1.9679 H   0  0  0  0  0  0  0  0  0  0  0  0
   -2.5091    1.5578    3.2608 N   0  0  0  0  0  0  0  0  0  0  0  0
   -2.1608    1.9616    4.1314 H   0  0  0  0  0  0  0  0  0  0  0  0
   -3.4657    1.8636    3.0803 H   0  0  0  0  0  0  0  0  0  0  0  0
    0.2727   -1.1256    1.6449 C   0  0  0  0  0  0  0  0  0  0  0  0
    1.4752   -1.0424    1.8627 O   0  0  0  0  0  0  0  0  0  0  0  0
   -0.5889   -0.9716    2.7159 N   0  0  0  0  0  0  0  0  0  0  0  0
   -1.5680   -0.7940    2.5082 H   0  0  0  0  0  0  0  0  0  0  0  0
   -0.1356   -0.8138    4.0921 C   0  0  0  0  0  0  0  0  0  0  0  0
    0.4654    0.0951    4.1968 H   0  0  0  0  0  0  0  0  0  0  0  0
   -0.9955   -0.7409    4.7646 H   0  0  0  0  0  0  0  0  0  0  0  0
    0.4689   -1.6744    4.3968 H   0  0  0  0  0  0  0  0  0  0  0  0
  1  2  1  0  0  0  0
  2  3  1  0  0  0  0
  2  4  1  0  0  0  0
  2  5  1  0  0  0  0
  5  6  2  0  0  0  0
  5  7  1  0  0  0  0
  7  8  1  0  0  0  0
  7  9  1  0  0  0  0
  9 10  1  0  0  0  0
  9 11  1  0  0  0  0
  9 26  1  0  0  0  0
 11 12  1  0  0  0  0
 11 13  1  0  0  0  0
 11 14  1  0  0  0  0
 14 15  1  0  0  0  0
 14 16  1  0  0  0  0
 14 17  1  0  0  0  0
 17 18  1  0  0  0  0
 17 19  1  0  0  0  0
 17 20  1  0  0  0  0
 20 21  1  0  0  0  0
 20 22  1  0  0  0  0
 20 23  1  0  0  0  0
 23 24  1  0  0  0  0
 23 25  1  0  0  0  0
 26 27  2  0  0  0  0
 26 28  1  0  0  0  0
 28 29  1  0  0  0  0
 28 30  1  0  0  0  0
 30 31  1  0  0  0  0
 30 32  1  0  0  0  0
 30 33  1  0  0  0  0
M  END
$$$$

  -OEChem-03222214063D

 33 32  0     1  0  0  0  0  0999 V2000
   -2.1055   -5.4073    0.2949 H   0  0  0  0  0  0  0  0  0  0  0  0
   -2.3325   -4.3777    0.0041 C   0  0  0  0  0  0  0  0  0  0  0  0
   -3.2148   -4.0434    0.5550 H   0  0  0  0  0  0  0  0  0  0  0  0
   -2.5478   -4.3542   -1.0668 H   0  0  0  0  0  0  0  0  0  0  0  0
   -1.1528   -3.4761    0.3151 C   0  0  0  0  0  0  0  0  0  0  0  0
   -0.1469   -3.9449    0.8171 O   0  0  0  0  0  0  0  0  0  0  0  0
   -1.2286   -2.1282    0.0242 N   0  0  0  0  0  0  0  0  0  0  0  0
   -2.0947   -1.7903   -0.3835 H   0  0  0  0  0  0  0  0  0  0  0  0
   -0.1566   -1.1549    0.2903 C   0  0  1  0  0  0  0  0  0  0  0  0
    0.7314   -1.6412   -0.1318 H   0  0  0  0  0  0  0  0  0  0  0  0
   -0.3083    0.0844   -0.6259 C   0  0  0  0  0  0  0  0  0  0  0  0
    0.6546    0.6047   -0.5713 H   0  0  0  0  0  0  0  0  0  0  0  0
   -0.4074   -0.2705   -1.6570 H   0  0  0  0  0  0  0  0  0  0  0  0
   -1.3913    1.1694   -0.3960 C   0  0  0  0  0  0  0  0  0  0  0  0
   -0.9594    2.1501   -0.6223 H   0  0  0  0  0  0  0  0  0  0  0  0
   -2.1604    0.9890   -1.1542 H   0  0  0  0  0  0  0  0  0  0  0  0
   -2.1363    1.2435    0.9404 C   0  0  0  0  0  0  0  0  0  0  0  0
   -3.1008    1.7317    0.7679 H   0  0  0  0  0  0  0  0  0  0  0  0
   -2.3568    0.2430    1.3153 H   0  0  0  0  0  0  0  0  0  0  0  0
   -1.3740    2.0788    1.9687 C   0  0  0  0  0  0  0  0  0  0  0  0
   -0.3695    1.6763    2.1308 H   0  0  0  0  0  0  0  0  0  0  0  0
   -1.2596    3.1064    1.6063 H   0  0  0  0  0  0  0  0  0  0  0  0
   -2.1410    2.0702    3.2192 N   0  0  0  0  0  0  0  0  0  0  0  0
   -1.6331    2.5532    3.9612 H   0  0  0  0  0  0  0  0  0  0  0  0
   -3.0639    2.4831    3.0851 H   0  0  0  0  0  0  0  0  0  0  0  0
    0.2942   -0.9784    1.7622 C   0  0  0  0  0  0  0  0  0  0  0  0
    1.4693   -0.7164    1.9879 O   0  0  0  0  0  0  0  0  0  0  0  0
   -0.6043   -0.8729    2.8076 N   0  0  0  0  0  0  0  0  0  0  0  0
   -1.5919   -0.9203    2.5804 H   0  0  0  0  0  0  0  0  0  0  0  0
   -0.2156   -0.5729    4.1796 C   0  0  0  0  0  0  0  0  0  0  0  0
    0.2785    0.4023    4.2349 H   0  0  0  0  0  0  0  0  0  0  0  0
   -1.0994   -0.5493    4.8237 H   0  0  0  0  0  0  0  0  0  0  0  0
    0.4699   -1.3379    4.5585 H   0  0  0  0  0  0  0  0  0  0  0  0
  1  2  1  0  0  0  0
  2  3  1  0  0  0  0
  2  4  1  0  0  0  0
  2  5  1  0  0  0  0
  5  6  2  0  0  0  0
  5  7  1  0  0  0  0
  7  8  1  0  0  0  0
  7  9  1  0  0  0  0
  9 10  1  0  0  0  0
  9 11  1  0  0  0  0
  9 26  1  0  0  0  0
 11 12  1  0  0  0  0
 11 13  1  0  0  0  0
 11 14  1  0  0  0  0
 14 15  1  0  0  0  0
 14 16  1  0  0  0  0
 14 17  1  0  0  0  0
 17 18  1  0  0  0  0
 17 19  1  0  0  0  0
 17 20  1  0  0  0  0
 20 21  1  0  0  0  0
 20 22  1  0  0  0  0
 20 23  1  0  0  0  0
 23 24  1  0  0  0  0
 23 25  1  0  0  0  0
 26 27  2  0  0  0  0
 26 28  1  0  0  0  0
 28 29  1  0  0  0  0
 28 30  1  0  0  0  0
 30 31  1  0  0  0  0
 30 32  1  0  0  0  0
 30 33  1  0  0  0  0
M  END
$$$$

  -OEChem-03222214063D

 33 32  0     1  0  0  0  0  0999 V2000
   -3.5912   -4.4112    0.4934 H   0  0  0  0  0  0  0  0  0  0  0  0
   -3.4377   -3.3767    0.1724 C   0  0  0  0  0  0  0  0  0  0  0  0
   -4.1402   -2.7347    0.7088 H   0  0  0  0  0  0  0  0  0  0  0  0
   -3.6363   -3.3091   -0.9000 H   0  0  0  0  0  0  0  0  0  0  0  0
   -2.0125   -2.9466    0.4649 C   0  0  0  0  0  0  0  0  0  0  0  0
   -1.2426   -3.7247    0.9980 O   0  0  0  0  0  0  0  0  0  0  0  0
   -1.6029   -1.6667    0.1450 N   0  0  0  0  0  0  0  0  0  0  0  0
   -2.2662   -1.0914   -0.3650 H   0  0  0  0  0  0  0  0  0  0  0  0
   -0.2096   -1.1955    0.2378 C   0  0  1  0  0  0  0  0  0  0  0  0
    0.3544   -1.9735   -0.2909 H   0  0  0  0  0  0  0  0  0  0  0  0
    0.0164    0.0440   -0.6642 C   0  0  0  0  0  0  0  0  0  0  0  0
    1.1047    0.1403   -0.7492 H   0  0  0  0  0  0  0  0  0  0  0  0
   -0.3512   -0.1971   -1.6670 H   0  0  0  0  0  0  0  0  0  0  0  0
   -0.5026    1.4612   -0.3081 C   0  0  0  0  0  0  0  0  0  0  0  0
    0.1738    2.1758   -0.7893 H   0  0  0  0  0  0  0  0  0  0  0  0
   -1.4800    1.5913   -0.7840 H   0  0  0  0  0  0  0  0  0  0  0  0
   -0.6394    1.8765    1.1611 C   0  0  0  0  0  0  0  0  0  0  0  0
   -0.5444    2.9656    1.2193 H   0  0  0  0  0  0  0  0  0  0  0  0
    0.1867    1.4660    1.7445 H   0  0  0  0  0  0  0  0  0  0  0  0
   -2.0006    1.5080    1.7538 C   0  0  0  0  0  0  0  0  0  0  0  0
   -2.7909    2.0838    1.2596 H   0  0  0  0  0  0  0  0  0  0  0  0
   -2.2190    0.4490    1.6013 H   0  0  0  0  0  0  0  0  0  0  0  0
   -1.9774    1.8166    3.1857 N   0  0  0  0  0  0  0  0  0  0  0  0
   -2.8443    1.5429    3.6483 H   0  0  0  0  0  0  0  0  0  0  0  0
   -1.1635    1.3994    3.6412 H   0  0  0  0  0  0  0  0  0  0  0  0
    0.4676   -1.2471    1.6318 C   0  0  0  0  0  0  0  0  0  0  0  0
    1.6736   -1.4489    1.6915 O   0  0  0  0  0  0  0  0  0  0  0  0
   -0.1763   -0.8254    2.7812 N   0  0  0  0  0  0  0  0  0  0  0  0
   -1.1824   -0.7114    2.7184 H   0  0  0  0  0  0  0  0  0  0  0  0
    0.4526   -0.8315    4.0961 C   0  0  0  0  0  0  0  0  0  0  0  0
    1.2996   -0.1376    4.1182 H   0  0  0  0  0  0  0  0  0  0  0  0
   -0.2663   -0.5236    4.8611 H   0  0  0  0  0  0  0  0  0  0  0  0
    0.8123   -1.8359    4.3435 H   0  0  0  0  0  0  0  0  0  0  0  0
  1  2  1  0  0  0  0
  2  3  1  0  0  0  0
  2  4  1  0  0  0  0
  2  5  1  0  0  0  0
  5  6  2  0  0  0  0
  5  7  1  0  0  0  0
  7  8  1  0  0  0  0
  7  9  1  0  0  0  0
  9 10  1  0  0  0  0
  9 11  1  0  0  0  0
  9 26  1  0  0  0  0
 11 12  1  0  0  0  0
 11 13  1  0  0  0  0
 11 14  1  0  0  0  0
 14 15  1  0  0  0  0
 14 16  1  0  0  0  0
 14 17  1  0  0  0  0
 17 18  1  0  0  0  0
 17 19  1  0  0  0  0
 17 20  1  0  0  0  0
 20 21  1  0  0  0  0
 20 22  1  0  0  0  0
 20 23  1  0  0  0  0
 23 24  1  0  0  0  0
 23 25  1  0  0  0  0
 26 27  2  0  0  0  0
 26 28  1  0  0  0  0
 28 29  1  0  0  0  0
 28 30  1  0  0  0  0
 30 31  1  0  0  0  0
 30 32  1  0  0  0  0
 30 33  1  0  0  0  0
M  END
$$$$

  -OEChem-03222214063D

 33 32  0     1  0  0  0  0  0999 V2000
   -3.1884   -4.6478    0.6082 H   0  0  0  0  0  0  0  0  0  0  0  0
   -3.1478   -3.6140    0.2528 C   0  0  0  0  0  0  0  0  0  0  0  0
   -3.8989   -3.0290    0.7886 H   0  0  0  0  0  0  0  0  0  0  0  0
   -3.3775   -3.6007   -0.8154 H   0  0  0  0  0  0  0  0  0  0  0  0
   -1.7674   -3.0330    0.4941 C   0  0  0  0  0  0  0  0  0  0  0  0
   -0.9051   -3.7157    1.0164 O   0  0  0  0  0  0  0  0  0  0  0  0
   -1.5052   -1.7230    0.1432 N   0  0  0  0  0  0  0  0  0  0  0  0
   -2.2422   -1.2283   -0.3499 H   0  0  0  0  0  0  0  0  0  0  0  0
   -0.1689   -1.1041    0.1863 C   0  0  1  0  0  0  0  0  0  0  0  0
    0.4600   -1.8288   -0.3448 H   0  0  0  0  0  0  0  0  0  0  0  0
   -0.1091    0.1274   -0.7518 C   0  0  0  0  0  0  0  0  0  0  0  0
    0.9556    0.3492   -0.8848 H   0  0  0  0  0  0  0  0  0  0  0  0
   -0.4902   -0.1758   -1.7324 H   0  0  0  0  0  0  0  0  0  0  0  0
   -0.7846    1.4693   -0.3837 C   0  0  0  0  0  0  0  0  0  0  0  0
   -0.3932    2.2214   -1.0772 H   0  0  0  0  0  0  0  0  0  0  0  0
   -1.8553    1.3824   -0.5946 H   0  0  0  0  0  0  0  0  0  0  0  0
   -0.6041    2.0164    1.0378 C   0  0  0  0  0  0  0  0  0  0  0  0
   -0.4478    3.0985    0.9807 H   0  0  0  0  0  0  0  0  0  0  0  0
    0.2940    1.5993    1.4981 H   0  0  0  0  0  0  0  0  0  0  0  0
   -1.8475    1.7733    1.8940 C   0  0  0  0  0  0  0  0  0  0  0  0
   -2.6829    2.3743    1.5174 H   0  0  0  0  0  0  0  0  0  0  0  0
   -2.1467    0.7222    1.8453 H   0  0  0  0  0  0  0  0  0  0  0  0
   -1.5404    2.1514    3.2749 N   0  0  0  0  0  0  0  0  0  0  0  0
   -2.3301    1.9819    3.8973 H   0  0  0  0  0  0  0  0  0  0  0  0
   -0.6998    1.6732    3.6046 H   0  0  0  0  0  0  0  0  0  0  0  0
    0.5512   -1.0568    1.5578 C   0  0  0  0  0  0  0  0  0  0  0  0
    1.7730   -1.1298    1.5825 O   0  0  0  0  0  0  0  0  0  0  0  0
   -0.0999   -0.6850    2.7201 N   0  0  0  0  0  0  0  0  0  0  0  0
   -1.1133   -0.7139    2.6915 H   0  0  0  0  0  0  0  0  0  0  0  0
    0.5622   -0.6502    4.0187 C   0  0  0  0  0  0  0  0  0  0  0  0
    1.3707    0.0886    4.0175 H   0  0  0  0  0  0  0  0  0  0  0  0
   -0.1525   -0.3785    4.8013 H   0  0  0  0  0  0  0  0  0  0  0  0
    0.9830   -1.6323    4.2595 H   0  0  0  0  0  0  0  0  0  0  0  0
  1  2  1  0  0  0  0
  2  3  1  0  0  0  0
  2  4  1  0  0  0  0
  2  5  1  0  0  0  0
  5  6  2  0  0  0  0
  5  7  1  0  0  0  0
  7  8  1  0  0  0  0
  7  9  1  0  0  0  0
  9 10  1  0  0  0  0
  9 11  1  0  0  0  0
  9 26  1  0  0  0  0
 11 12  1  0  0  0  0
 11 13  1  0  0  0  0
 11 14  1  0  0  0  0
 14 15  1  0  0  0  0
 14 16  1  0  0  0  0
 14 17  1  0  0  0  0
 17 18  1  0  0  0  0
 17 19  1  0  0  0  0
 17 20  1  0  0  0  0
 20 21  1  0  0  0  0
 20 22  1  0  0  0  0
 20 23  1  0  0  0  0
 23 24  1  0  0  0  0
 23 25  1  0  0  0  0
 26 27  2  0  0  0  0
 26 28  1  0  0  0  0
 28 29  1  0  0  0  0
 28 30  1  0  0  0  0
 30 31  1  0  0  0  0
 30 32  1  0  0  0  0
 30 33  1  0  0  0  0
M  END
$$$$

  -OEChem-03222214063D

 33 32  0     1  0  0  0  0  0999 V2000
   -3.1579   -4.6922    0.4925 H   0  0  0  0  0  0  0  0  0  0  0  0
   -3.1053   -3.6585    0.1389 C   0  0  0  0  0  0  0  0  0  0  0  0
   -3.8698   -3.0715    0.6533 H   0  0  0  0  0  0  0  0  0  0  0  0
   -3.3051   -3.6455   -0.9353 H   0  0  0  0  0  0  0  0  0  0  0  0
   -1.7301   -3.0814    0.4179 C   0  0  0  0  0  0  0  0  0  0  0  0
   -0.8921   -3.7597    0.9833 O   0  0  0  0  0  0  0  0  0  0  0  0
   -1.4416   -1.7853    0.0367 N   0  0  0  0  0  0  0  0  0  0  0  0
   -2.1592   -1.2942   -0.4873 H   0  0  0  0  0  0  0  0  0  0  0  0
   -0.1062   -1.1667    0.1254 C   0  0  1  0  0  0  0  0  0  0  0  0
    0.5652   -1.8726   -0.3774 H   0  0  0  0  0  0  0  0  0  0  0  0
   -0.0663    0.0912   -0.7804 C   0  0  0  0  0  0  0  0  0  0  0  0
    0.9910    0.3412   -0.9219 H   0  0  0  0  0  0  0  0  0  0  0  0
   -0.4565   -0.1911   -1.7638 H   0  0  0  0  0  0  0  0  0  0  0  0
   -0.7749    1.3956   -0.3508 C   0  0  0  0  0  0  0  0  0  0  0  0
   -0.6434    2.1277   -1.1545 H   0  0  0  0  0  0  0  0  0  0  0  0
   -1.8477    1.1860   -0.2893 H   0  0  0  0  0  0  0  0  0  0  0  0
   -0.3117    2.0540    0.9609 C   0  0  0  0  0  0  0  0  0  0  0  0
    0.1131    3.0345    0.7217 H   0  0  0  0  0  0  0  0  0  0  0  0
    0.4940    1.4857    1.4261 H   0  0  0  0  0  0  0  0  0  0  0  0
   -1.4633    2.2641    1.9430 C   0  0  0  0  0  0  0  0  0  0  0  0
   -2.2077    2.9409    1.5091 H   0  0  0  0  0  0  0  0  0  0  0  0
   -1.9593    1.3132    2.1599 H   0  0  0  0  0  0  0  0  0  0  0  0
   -0.9166    2.8408    3.1733 N   0  0  0  0  0  0  0  0  0  0  0  0
   -1.6348    2.9481    3.8890 H   0  0  0  0  0  0  0  0  0  0  0  0
   -0.1330    2.2845    3.5186 H   0  0  0  0  0  0  0  0  0  0  0  0
    0.4968   -1.0968    1.5482 C   0  0  0  0  0  0  0  0  0  0  0  0
    1.7108   -1.1686    1.6876 O   0  0  0  0  0  0  0  0  0  0  0  0
   -0.2701   -0.6921    2.6260 N   0  0  0  0  0  0  0  0  0  0  0  0
   -1.2747   -0.7375    2.4969 H   0  0  0  0  0  0  0  0  0  0  0  0
    0.2588   -0.5912    3.9801 C   0  0  0  0  0  0  0  0  0  0  0  0
    1.0947    0.1155    4.0137 H   0  0  0  0  0  0  0  0  0  0  0  0
   -0.5183   -0.2371    4.6640 H   0  0  0  0  0  0  0  0  0  0  0  0
    0.6097   -1.5686    4.3271 H   0  0  0  0  0  0  0  0  0  0  0  0
  1  2  1  0  0  0  0
  2  3  1  0  0  0  0
  2  4  1  0  0  0  0
  2  5  1  0  0  0  0
  5  6  2  0  0  0  0
  5  7  1  0  0  0  0
  7  8  1  0  0  0  0
  7  9  1  0  0  0  0
  9 10  1  0  0  0  0
  9 11  1  0  0  0  0
  9 26  1  0  0  0  0
 11 12  1  0  0  0  0
 11 13  1  0  0  0  0
 11 14  1  0  0  0  0
 14 15  1  0  0  0  0
 14 16  1  0  0  0  0
 14 17  1  0  0  0  0
 17 18  1  0  0  0  0
 17 19  1  0  0  0  0
 17 20  1  0  0  0  0
 20 21  1  0  0  0  0
 20 22  1  0  0  0  0
 20 23  1  0  0  0  0
 23 24  1  0  0  0  0
 23 25  1  0  0  0  0
 26 27  2  0  0  0  0
 26 28  1  0  0  0  0
 28 29  1  0  0  0  0
 28 30  1  0  0  0  0
 30 31  1  0  0  0  0
 30 32  1  0  0  0  0
 30 33  1  0  0  0  0
M  END
$$$$

  -OEChem-03222214063D

 33 32  0     1  0  0  0  0  0999 V2000
   -3.0421   -4.7989    0.4975 H   0  0  0  0  0  0  0  0  0  0  0  0
   -3.0108   -3.7731    0.1192 C   0  0  0  0  0  0  0  0  0  0  0  0
   -3.7758   -3.1859    0.6327 H   0  0  0  0  0  0  0  0  0  0  0  0
   -3.2283   -3.7879   -0.9515 H   0  0  0  0  0  0  0  0  0  0  0  0
   -1.6404   -3.1693    0.3635 C   0  0  0  0  0  0  0  0  0  0  0  0
   -0.7794   -3.8281    0.9172 O   0  0  0  0  0  0  0  0  0  0  0  0
   -1.3848   -1.8704   -0.0321 N   0  0  0  0  0  0  0  0  0  0  0  0
   -2.1207   -1.3971   -0.5471 H   0  0  0  0  0  0  0  0  0  0  0  0
   -0.0699   -1.2076    0.0653 C   0  0  1  0  0  0  0  0  0  0  0  0
    0.6436   -1.8649   -0.4452 H   0  0  0  0  0  0  0  0  0  0  0  0
   -0.1123    0.0910   -0.7823 C   0  0  0  0  0  0  0  0  0  0  0  0
    0.9219    0.4059   -0.9590 H   0  0  0  0  0  0  0  0  0  0  0  0
   -0.5361   -0.1601   -1.7602 H   0  0  0  0  0  0  0  0  0  0  0  0
   -0.8790    1.3111   -0.2301 C   0  0  0  0  0  0  0  0  0  0  0  0
   -1.0684    2.0109   -1.0509 H   0  0  0  0  0  0  0  0  0  0  0  0
   -1.8526    0.9608    0.1272 H   0  0  0  0  0  0  0  0  0  0  0  0
   -0.1695    2.0830    0.8981 C   0  0  0  0  0  0  0  0  0  0  0  0
    0.4248    1.4345    1.5363 H   0  0  0  0  0  0  0  0  0  0  0  0
    0.5318    2.7906    0.4433 H   0  0  0  0  0  0  0  0  0  0  0  0
   -1.1701    2.8499    1.7571 C   0  0  0  0  0  0  0  0  0  0  0  0
   -1.7769    3.5128    1.1303 H   0  0  0  0  0  0  0  0  0  0  0  0
   -1.8422    2.1489    2.2641 H   0  0  0  0  0  0  0  0  0  0  0  0
   -0.4259    3.6364    2.7439 N   0  0  0  0  0  0  0  0  0  0  0  0
   -1.0533    4.1224    3.3844 H   0  0  0  0  0  0  0  0  0  0  0  0
    0.2377    3.0517    3.2537 H   0  0  0  0  0  0  0  0  0  0  0  0
    0.4731   -1.1190    1.5101 C   0  0  0  0  0  0  0  0  0  0  0  0
    1.6803   -1.1624    1.7069 O   0  0  0  0  0  0  0  0  0  0  0  0
   -0.3601   -0.7322    2.5466 N   0  0  0  0  0  0  0  0  0  0  0  0
   -1.3557   -0.7880    2.3632 H   0  0  0  0  0  0  0  0  0  0  0  0
    0.0963   -0.6118    3.9251 C   0  0  0  0  0  0  0  0  0  0  0  0
    0.9068    0.1209    3.9982 H   0  0  0  0  0  0  0  0  0  0  0  0
   -0.7245   -0.2813    4.5683 H   0  0  0  0  0  0  0  0  0  0  0  0
    0.4595   -1.5774    4.2919 H   0  0  0  0  0  0  0  0  0  0  0  0
  1  2  1  0  0  0  0
  2  3  1  0  0  0  0
  2  4  1  0  0  0  0
  2  5  1  0  0  0  0
  5  6  2  0  0  0  0
  5  7  1  0  0  0  0
  7  8  1  0  0  0  0
  7  9  1  0  0  0  0
  9 10  1  0  0  0  0
  9 11  1  0  0  0  0
  9 26  1  0  0  0  0
 11 12  1  0  0  0  0
 11 13  1  0  0  0  0
 11 14  1  0  0  0  0
 14 15  1  0  0  0  0
 14 16  1  0  0  0  0
 14 17  1  0  0  0  0
 17 18  1  0  0  0  0
 17 19  1  0  0  0  0
 17 20  1  0  0  0  0
 20 21  1  0  0  0  0
 20 22  1  0  0  0  0
 20 23  1  0  0  0  0
 23 24  1  0  0  0  0
 23 25  1  0  0  0  0
 26 27  2  0  0  0  0
 26 28  1  0  0  0  0
 28 29  1  0  0  0  0
 28 30  1  0  0  0  0
 30 31  1  0  0  0  0
 30 32  1  0  0  0  0
 30 33  1  0  0  0  0
M  END
$$$$

  -OEChem-03222214063D

 33 32  0     1  0  0  0  0  0999 V2000
   -2.9538   -4.8726    0.4784 H   0  0  0  0  0  0  0  0  0  0  0  0
   -2.9486   -3.8535    0.0812 C   0  0  0  0  0  0  0  0  0  0  0  0
   -3.7538   -3.2873    0.5552 H   0  0  0  0  0  0  0  0  0  0  0  0
   -3.1262   -3.8964   -0.9961 H   0  0  0  0  0  0  0  0  0  0  0  0
   -1.6122   -3.1917    0.3613 C   0  0  0  0  0  0  0  0  0  0  0  0
   -0.7533   -3.7991    0.9743 O   0  0  0  0  0  0  0  0  0  0  0  0
   -1.3845   -1.8995   -0.0709 N   0  0  0  0  0  0  0  0  0  0  0  0
   -2.1102   -1.4757   -0.6410 H   0  0  0  0  0  0  0  0  0  0  0  0
   -0.0884   -1.2014    0.0318 C   0  0  1  0  0  0  0  0  0  0  0  0
    0.6507   -1.8362   -0.4705 H   0  0  0  0  0  0  0  0  0  0  0  0
   -0.1651    0.1078   -0.7888 C   0  0  0  0  0  0  0  0  0  0  0  0
    0.8550    0.4603   -0.9761 H   0  0  0  0  0  0  0  0  0  0  0  0
   -0.6012   -0.1271   -1.7652 H   0  0  0  0  0  0  0  0  0  0  0  0
   -0.9751    1.2562   -0.1558 C   0  0  0  0  0  0  0  0  0  0  0  0
   -1.4098    1.8639   -0.9563 H   0  0  0  0  0  0  0  0  0  0  0  0
   -1.8044    0.8406    0.4249 H   0  0  0  0  0  0  0  0  0  0  0  0
   -0.1180    2.1766    0.7301 C   0  0  0  0  0  0  0  0  0  0  0  0
    0.5062    1.6007    1.4154 H   0  0  0  0  0  0  0  0  0  0  0  0
    0.5550    2.7583    0.0916 H   0  0  0  0  0  0  0  0  0  0  0  0
   -0.9958    3.1261    1.5390 C   0  0  0  0  0  0  0  0  0  0  0  0
   -1.6481    3.7002    0.8719 H   0  0  0  0  0  0  0  0  0  0  0  0
   -1.6281    2.5538    2.2266 H   0  0  0  0  0  0  0  0  0  0  0  0
   -0.1265    4.0347    2.2912 N   0  0  0  0  0  0  0  0  0  0  0  0
   -0.6662    4.6465    2.9029 H   0  0  0  0  0  0  0  0  0  0  0  0
    0.5756    3.5157    2.8201 H   0  0  0  0  0  0  0  0  0  0  0  0
    0.4411   -1.0446    1.4762 C   0  0  0  0  0  0  0  0  0  0  0  0
    1.6477   -1.0460    1.6812 O   0  0  0  0  0  0  0  0  0  0  0  0
   -0.4090   -0.6399    2.4915 N   0  0  0  0  0  0  0  0  0  0  0  0
   -1.4017   -0.7380    2.3088 H   0  0  0  0  0  0  0  0  0  0  0  0
    0.0375   -0.4297    3.8625 C   0  0  0  0  0  0  0  0  0  0  0  0
    0.8143    0.3414    3.8984 H   0  0  0  0  0  0  0  0  0  0  0  0
   -0.7997   -0.1046    4.4875 H   0  0  0  0  0  0  0  0  0  0  0  0
    0.4431   -1.3579    4.2785 H   0  0  0  0  0  0  0  0  0  0  0  0
  1  2  1  0  0  0  0
  2  3  1  0  0  0  0
  2  4  1  0  0  0  0
  2  5  1  0  0  0  0
  5  6  2  0  0  0  0
  5  7  1  0  0  0  0
  7  8  1  0  0  0  0
  7  9  1  0  0  0  0
  9 10  1  0  0  0  0
  9 11  1  0  0  0  0
  9 26  1  0  0  0  0
 11 12  1  0  0  0  0
 11 13  1  0  0  0  0
 11 14  1  0  0  0  0
 14 15  1  0  0  0  0
 14 16  1  0  0  0  0
 14 17  1  0  0  0  0
 17 18  1  0  0  0  0
 17 19  1  0  0  0  0
 17 20  1  0  0  0  0
 20 21  1  0  0  0  0
 20 22  1  0  0  0  0
 20 23  1  0  0  0  0
 23 24  1  0  0  0  0
 23 25  1  0  0  0  0
 26 27  2  0  0  0  0
 26 28  1  0  0  0  0
 28 29  1  0  0  0  0
 28 30  1  0  0  0  0
 30 31  1  0  0  0  0
 30 32  1  0  0  0  0
 30 33  1  0  0  0  0
M  END
$$$$

  -OEChem-03222214063D

 33 32  0     1  0  0  0  0  0999 V2000
   -2.9119   -4.9128    0.4566 H   0  0  0  0  0  0  0  0  0  0  0  0
   -2.9251   -3.8954    0.0558 C   0  0  0  0  0  0  0  0  0  0  0  0
   -3.7476   -3.3458    0.5195 H   0  0  0  0  0  0  0  0  0  0  0  0
   -3.0900   -3.9464   -1.0232 H   0  0  0  0  0  0  0  0  0  0  0  0
   -1.6070   -3.2034    0.3480 C   0  0  0  0  0  0  0  0  0  0  0  0
   -0.7440   -3.7856    0.9797 O   0  0  0  0  0  0  0  0  0  0  0  0
   -1.4004   -1.9101   -0.0910 N   0  0  0  0  0  0  0  0  0  0  0  0
   -2.1262   -1.5035   -0.6733 H   0  0  0  0  0  0  0  0  0  0  0  0
   -0.1186   -1.1900    0.0241 C   0  0  1  0  0  0  0  0  0  0  0  0
    0.6309   -1.8168   -0.4725 H   0  0  0  0  0  0  0  0  0  0  0  0
   -0.1911    0.1210   -0.7854 C   0  0  0  0  0  0  0  0  0  0  0  0
    0.8289    0.4830   -0.9560 H   0  0  0  0  0  0  0  0  0  0  0  0
   -0.6137   -0.1016   -1.7706 H   0  0  0  0  0  0  0  0  0  0  0  0
   -1.0283    1.2339   -0.1250 C   0  0  0  0  0  0  0  0  0  0  0  0
   -1.6616    1.6968   -0.8894 H   0  0  0  0  0  0  0  0  0  0  0  0
   -1.6964    0.8191    0.6350 H   0  0  0  0  0  0  0  0  0  0  0  0
   -0.1331    2.3235    0.4804 C   0  0  0  0  0  0  0  0  0  0  0  0
    0.5930    1.8723    1.1641 H   0  0  0  0  0  0  0  0  0  0  0  0
    0.4243    2.8249   -0.3176 H   0  0  0  0  0  0  0  0  0  0  0  0
   -0.9634    3.3505    1.2426 C   0  0  0  0  0  0  0  0  0  0  0  0
   -1.7144    3.7958    0.5806 H   0  0  0  0  0  0  0  0  0  0  0  0
   -1.4852    2.8646    2.0744 H   0  0  0  0  0  0  0  0  0  0  0  0
   -0.0646    4.3909    1.7489 N   0  0  0  0  0  0  0  0  0  0  0  0
   -0.5676    5.0739    2.3150 H   0  0  0  0  0  0  0  0  0  0  0  0
    0.7102    3.9819    2.2728 H   0  0  0  0  0  0  0  0  0  0  0  0
    0.4204   -0.9968    1.4625 C   0  0  0  0  0  0  0  0  0  0  0  0
    1.6296   -0.9614    1.6490 O   0  0  0  0  0  0  0  0  0  0  0  0
   -0.4198   -0.5895    2.4845 N   0  0  0  0  0  0  0  0  0  0  0  0
   -1.4128   -0.7212    2.3256 H   0  0  0  0  0  0  0  0  0  0  0  0
    0.0475   -0.3367    3.8414 C   0  0  0  0  0  0  0  0  0  0  0  0
    0.8056    0.4537    3.8449 H   0  0  0  0  0  0  0  0  0  0  0  0
   -0.7850   -0.0166    4.4748 H   0  0  0  0  0  0  0  0  0  0  0  0
    0.4826   -1.2454    4.2704 H   0  0  0  0  0  0  0  0  0  0  0  0
  1  2  1  0  0  0  0
  2  3  1  0  0  0  0
  2  4  1  0  0  0  0
  2  5  1  0  0  0  0
  5  6  2  0  0  0  0
  5  7  1  0  0  0  0
  7  8  1  0  0  0  0
  7  9  1  0  0  0  0
  9 10  1  0  0  0  0
  9 11  1  0  0  0  0
  9 26  1  0  0  0  0
 11 12  1  0  0  0  0
 11 13  1  0  0  0  0
 11 14  1  0  0  0  0
 14 15  1  0  0  0  0
 14 16  1  0  0  0  0
 14 17  1  0  0  0  0
 17 18  1  0  0  0  0
 17 19  1  0  0  0  0
 17 20  1  0  0  0  0
 20 21  1  0  0  0  0
 20 22  1  0  0  0  0
 20 23  1  0  0  0  0
 23 24  1  0  0  0  0
 23 25  1  0  0  0  0
 26 27  2  0  0  0  0
 26 28  1  0  0  0  0
 28 29  1  0  0  0  0
 28 30  1  0  0  0  0
 30 31  1  0  0  0  0
 30 32  1  0  0  0  0
 30 33  1  0  0  0  0
M  END
$$$$

  -OEChem-03222214063D

 33 32  0     1  0  0  0  0  0999 V2000
   -2.8854   -4.9411    0.4029 H   0  0  0  0  0  0  0  0  0  0  0  0
   -2.9136   -3.9129    0.0308 C   0  0  0  0  0  0  0  0  0  0  0  0
   -3.7422   -3.3874    0.5114 H   0  0  0  0  0  0  0  0  0  0  0  0
   -3.0804   -3.9352   -1.0488 H   0  0  0  0  0  0  0  0  0  0  0  0
   -1.6048   -3.2104    0.3387 C   0  0  0  0  0  0  0  0  0  0  0  0
   -0.7357   -3.7925    0.9619 O   0  0  0  0  0  0  0  0  0  0  0  0
   -1.4151   -1.9069   -0.0764 N   0  0  0  0  0  0  0  0  0  0  0  0
   -2.1470   -1.4994   -0.6502 H   0  0  0  0  0  0  0  0  0  0  0  0
   -0.1415   -1.1754    0.0458 C   0  0  1  0  0  0  0  0  0  0  0  0
    0.6088   -1.7947   -0.4593 H   0  0  0  0  0  0  0  0  0  0  0  0
   -0.2153    0.1365   -0.7610 C   0  0  0  0  0  0  0  0  0  0  0  0
    0.8094    0.4968   -0.9051 H   0  0  0  0  0  0  0  0  0  0  0  0
   -0.6131   -0.0790   -1.7577 H   0  0  0  0  0  0  0  0  0  0  0  0
   -1.0638    1.2498   -0.1118 C   0  0  0  0  0  0  0  0  0  0  0  0
   -1.8753    1.5170   -0.7967 H   0  0  0  0  0  0  0  0  0  0  0  0
   -1.5331    0.9053    0.8118 H   0  0  0  0  0  0  0  0  0  0  0  0
   -0.2220    2.5008    0.1641 C   0  0  0  0  0  0  0  0  0  0  0  0
    0.6370    2.2327    0.7885 H   0  0  0  0  0  0  0  0  0  0  0  0
    0.1582    2.9046   -0.7802 H   0  0  0  0  0  0  0  0  0  0  0  0
   -1.0455    3.5672    0.8797 C   0  0  0  0  0  0  0  0  0  0  0  0
   -1.9181    3.8400    0.2758 H   0  0  0  0  0  0  0  0  0  0  0  0
   -1.4026    3.1808    1.8409 H   0  0  0  0  0  0  0  0  0  0  0  0
   -0.1972    4.7428    1.0926 N   0  0  0  0  0  0  0  0  0  0  0  0
   -0.6934    5.4712    1.6055 H   0  0  0  0  0  0  0  0  0  0  0  0
    0.6686    4.4876    1.5689 H   0  0  0  0  0  0  0  0  0  0  0  0
    0.4148   -0.9968    1.4800 C   0  0  0  0  0  0  0  0  0  0  0  0
    1.6263   -0.9486    1.6477 O   0  0  0  0  0  0  0  0  0  0  0  0
   -0.4111   -0.6154    2.5228 N   0  0  0  0  0  0  0  0  0  0  0  0
   -1.4052   -0.7553    2.3783 H   0  0  0  0  0  0  0  0  0  0  0  0
    0.0765   -0.3875    3.8770 C   0  0  0  0  0  0  0  0  0  0  0  0
    0.8267    0.4101    3.8850 H   0  0  0  0  0  0  0  0  0  0  0  0
   -0.7482   -0.0901    4.5315 H   0  0  0  0  0  0  0  0  0  0  0  0
    0.5283   -1.3009    4.2781 H   0  0  0  0  0  0  0  0  0  0  0  0
  1  2  1  0  0  0  0
  2  3  1  0  0  0  0
  2  4  1  0  0  0  0
  2  5  1  0  0  0  0
  5  6  2  0  0  0  0
  5  7  1  0  0  0  0
  7  8  1  0  0  0  0
  7  9  1  0  0  0  0
  9 10  1  0  0  0  0
  9 11  1  0  0  0  0
  9 26  1  0  0  0  0
 11 12  1  0  0  0  0
 11 13  1  0  0  0  0
 11 14  1  0  0  0  0
 14 15  1  0  0  0  0
 14 16  1  0  0  0  0
 14 17  1  0  0  0  0
 17 18  1  0  0  0  0
 17 19  1  0  0  0  0
 17 20  1  0  0  0  0
 20 21  1  0  0  0  0
 20 22  1  0  0  0  0
 20 23  1  0  0  0  0
 23 24  1  0  0  0  0
 23 25  1  0  0  0  0
 26 27  2  0  0  0  0
 26 28  1  0  0  0  0
 28 29  1  0  0  0  0
 28 30  1  0  0  0  0
 30 31  1  0  0  0  0
 30 32  1  0  0  0  0
 30 33  1  0  0  0  0
M  END
$$$$

  -OEChem-03222214063D

 33 32  0     1  0  0  0  0  0999 V2000
   -2.8537   -4.9627    0.3668 H   0  0  0  0  0  0  0  0  0  0  0  0
   -2.8980   -3.9291    0.0114 C   0  0  0  0  0  0  0  0  0  0  0  0
   -3.7363   -3.4261    0.4991 H   0  0  0  0  0  0  0  0  0  0  0  0
   -3.0626   -3.9362   -1.0688 H   0  0  0  0  0  0  0  0  0  0  0  0
   -1.6005   -3.2115    0.3329 C   0  0  0  0  0  0  0  0  0  0  0  0
   -0.7176   -3.7966    0.9338 O   0  0  0  0  0  0  0  0  0  0  0  0
   -1.4314   -1.8959   -0.0523 N   0  0  0  0  0  0  0  0  0  0  0  0
   -2.1724   -1.4849   -0.6121 H   0  0  0  0  0  0  0  0  0  0  0  0
   -0.1630   -1.1554    0.0679 C   0  0  1  0  0  0  0  0  0  0  0  0
    0.5838   -1.7641   -0.4549 H   0  0  0  0  0  0  0  0  0  0  0  0
   -0.2500    0.1636   -0.7272 C   0  0  0  0  0  0  0  0  0  0  0  0
    0.7774    0.5249   -0.8488 H   0  0  0  0  0  0  0  0  0  0  0  0
   -0.6320   -0.0385   -1.7330 H   0  0  0  0  0  0  0  0  0  0  0  0
   -1.0977    1.2787   -0.0795 C   0  0  0  0  0  0  0  0  0  0  0  0
   -2.0590    1.3438   -0.5996 H   0  0  0  0  0  0  0  0  0  0  0  0
   -1.3148    1.0562    0.9656 H   0  0  0  0  0  0  0  0  0  0  0  0
   -0.3775    2.6307   -0.1502 C   0  0  0  0  0  0  0  0  0  0  0  0
    0.5924    2.5574    0.3530 H   0  0  0  0  0  0  0  0  0  0  0  0
   -0.1972    2.8955   -1.1974 H   0  0  0  0  0  0  0  0  0  0  0  0
   -1.2042    3.7272    0.5150 C   0  0  0  0  0  0  0  0  0  0  0  0
   -2.1851    3.8050    0.0330 H   0  0  0  0  0  0  0  0  0  0  0  0
   -1.3619    3.4878    1.5725 H   0  0  0  0  0  0  0  0  0  0  0  0
   -0.4829    4.9966    0.3873 N   0  0  0  0  0  0  0  0  0  0  0  0
   -0.9900    5.7586    0.8374 H   0  0  0  0  0  0  0  0  0  0  0  0
    0.4632    4.9185    0.7618 H   0  0  0  0  0  0  0  0  0  0  0  0
    0.4113   -1.0102    1.4987 C   0  0  0  0  0  0  0  0  0  0  0  0
    1.6245   -0.9515    1.6506 O   0  0  0  0  0  0  0  0  0  0  0  0
   -0.4047   -0.6651    2.5619 N   0  0  0  0  0  0  0  0  0  0  0  0
   -1.3989   -0.8160    2.4271 H   0  0  0  0  0  0  0  0  0  0  0  0
    0.0980   -0.4741    3.9163 C   0  0  0  0  0  0  0  0  0  0  0  0
    0.8335    0.3368    3.9408 H   0  0  0  0  0  0  0  0  0  0  0  0
   -0.7230   -0.2145    4.5912 H   0  0  0  0  0  0  0  0  0  0  0  0
    0.5720   -1.3915    4.2808 H   0  0  0  0  0  0  0  0  0  0  0  0
  1  2  1  0  0  0  0
  2  3  1  0  0  0  0
  2  4  1  0  0  0  0
  2  5  1  0  0  0  0
  5  6  2  0  0  0  0
  5  7  1  0  0  0  0
  7  8  1  0  0  0  0
  7  9  1  0  0  0  0
  9 10  1  0  0  0  0
  9 11  1  0  0  0  0
  9 26  1  0  0  0  0
 11 12  1  0  0  0  0
 11 13  1  0  0  0  0
 11 14  1  0  0  0  0
 14 15  1  0  0  0  0
 14 16  1  0  0  0  0
 14 17  1  0  0  0  0
 17 18  1  0  0  0  0
 17 19  1  0  0  0  0
 17 20  1  0  0  0  0
 20 21  1  0  0  0  0
 20 22  1  0  0  0  0
 20 23  1  0  0  0  0
 23 24  1  0  0  0  0
 23 25  1  0  0  0  0
 26 27  2  0  0  0  0
 26 28  1  0  0  0  0
 28 29  1  0  0  0  0
 28 30  1  0  0  0  0
 30 31  1  0  0  0  0
 30 32  1  0  0  0  0
 30 33  1  0  0  0  0
M  END
$$$$

  -OEChem-03222214063D

 33 32  0     1  0  0  0  0  0999 V2000
   -2.8429   -4.9561    0.3761 H   0  0  0  0  0  0  0  0  0  0  0  0
   -2.8903   -3.9231    0.0199 C   0  0  0  0  0  0  0  0  0  0  0  0
   -3.7248   -3.4196    0.5134 H   0  0  0  0  0  0  0  0  0  0  0  0
   -3.0636   -3.9320   -1.0589 H   0  0  0  0  0  0  0  0  0  0  0  0
   -1.5906   -3.2048    0.3311 C   0  0  0  0  0  0  0  0  0  0  0  0
   -0.7000   -3.7928    0.9173 O   0  0  0  0  0  0  0  0  0  0  0  0
   -1.4291   -1.8855   -0.0452 N   0  0  0  0  0  0  0  0  0  0  0  0
   -2.1783   -1.4722   -0.5922 H   0  0  0  0  0  0  0  0  0  0  0  0
   -0.1625   -1.1397    0.0688 C   0  0  1  0  0  0  0  0  0  0  0  0
    0.5844   -1.7384   -0.4657 H   0  0  0  0  0  0  0  0  0  0  0  0
   -0.2707    0.1840   -0.7167 C   0  0  0  0  0  0  0  0  0  0  0  0
    0.7527    0.5571   -0.8350 H   0  0  0  0  0  0  0  0  0  0  0  0
   -0.6553   -0.0110   -1.7229 H   0  0  0  0  0  0  0  0  0  0  0  0
   -1.1178    1.2881   -0.0541 C   0  0  0  0  0  0  0  0  0  0  0  0
   -2.1658    1.1707   -0.3479 H   0  0  0  0  0  0  0  0  0  0  0  0
   -1.0704    1.2177    1.0336 H   0  0  0  0  0  0  0  0  0  0  0  0
   -0.6030    2.6775   -0.4481 C   0  0  0  0  0  0  0  0  0  0  0  0
    0.4444    2.7836   -0.1470 H   0  0  0  0  0  0  0  0  0  0  0  0
   -0.6557    2.7916   -1.5358 H   0  0  0  0  0  0  0  0  0  0  0  0
   -1.4298    3.7738    0.2175 C   0  0  0  0  0  0  0  0  0  0  0  0
   -2.4846    3.6726   -0.0616 H   0  0  0  0  0  0  0  0  0  0  0  0
   -1.3553    3.6891    1.3074 H   0  0  0  0  0  0  0  0  0  0  0  0
   -0.9202    5.0753   -0.2232 N   0  0  0  0  0  0  0  0  0  0  0  0
   -1.4346    5.8410    0.2123 H   0  0  0  0  0  0  0  0  0  0  0  0
    0.0800    5.1582   -0.0383 H   0  0  0  0  0  0  0  0  0  0  0  0
    0.4164   -1.0079    1.4989 C   0  0  0  0  0  0  0  0  0  0  0  0
    1.6297   -0.9478    1.6488 O   0  0  0  0  0  0  0  0  0  0  0  0
   -0.3995   -0.6773    2.5671 N   0  0  0  0  0  0  0  0  0  0  0  0
   -1.3932   -0.8297    2.4311 H   0  0  0  0  0  0  0  0  0  0  0  0
    0.1036   -0.5091    3.9246 C   0  0  0  0  0  0  0  0  0  0  0  0
    0.8384    0.3018    3.9636 H   0  0  0  0  0  0  0  0  0  0  0  0
   -0.7173   -0.2619    4.6044 H   0  0  0  0  0  0  0  0  0  0  0  0
    0.5782   -1.4324    4.2735 H   0  0  0  0  0  0  0  0  0  0  0  0
  1  2  1  0  0  0  0
  2  3  1  0  0  0  0
  2  4  1  0  0  0  0
  2  5  1  0  0  0  0
  5  6  2  0  0  0  0
  5  7  1  0  0  0  0
  7  8  1  0  0  0  0
  7  9  1  0  0  0  0
  9 10  1  0  0  0  0
  9 11  1  0  0  0  0
  9 26  1  0  0  0  0
 11 12  1  0  0  0  0
 11 13  1  0  0  0  0
 11 14  1  0  0  0  0
 14 15  1  0  0  0  0
 14 16  1  0  0  0  0
 14 17  1  0  0  0  0
 17 18  1  0  0  0  0
 17 19  1  0  0  0  0
 17 20  1  0  0  0  0
 20 21  1  0  0  0  0
 20 22  1  0  0  0  0
 20 23  1  0  0  0  0
 23 24  1  0  0  0  0
 23 25  1  0  0  0  0
 26 27  2  0  0  0  0
 26 28  1  0  0  0  0
 28 29  1  0  0  0  0
 28 30  1  0  0  0  0
 30 31  1  0  0  0  0
 30 32  1  0  0  0  0
 30 33  1  0  0  0  0
M  END
$$$$

  -OEChem-03222214063D

 33 32  0     1  0  0  0  0  0999 V2000
   -2.8301   -4.9548    0.4102 H   0  0  0  0  0  0  0  0  0  0  0  0
   -2.8816   -3.9255    0.0435 C   0  0  0  0  0  0  0  0  0  0  0  0
   -3.7132   -3.4175    0.5374 H   0  0  0  0  0  0  0  0  0  0  0  0
   -3.0619   -3.9453   -1.0339 H   0  0  0  0  0  0  0  0  0  0  0  0
   -1.5809   -3.2023    0.3379 C   0  0  0  0  0  0  0  0  0  0  0  0
   -0.6829   -3.7845    0.9187 O   0  0  0  0  0  0  0  0  0  0  0  0
   -1.4252   -1.8861   -0.0512 N   0  0  0  0  0  0  0  0  0  0  0  0
   -2.1784   -1.4803   -0.5984 H   0  0  0  0  0  0  0  0  0  0  0  0
   -0.1596   -1.1364    0.0487 C   0  0  1  0  0  0  0  0  0  0  0  0
    0.5876   -1.7290   -0.4919 H   0  0  0  0  0  0  0  0  0  0  0  0
   -0.2860    0.1925   -0.7244 C   0  0  0  0  0  0  0  0  0  0  0  0
    0.7297    0.5800   -0.8610 H   0  0  0  0  0  0  0  0  0  0  0  0
   -0.6936   -0.0001   -1.7222 H   0  0  0  0  0  0  0  0  0  0  0  0
   -1.1270    1.2787   -0.0307 C   0  0  0  0  0  0  0  0  0  0  0  0
   -2.1881    1.0148   -0.0801 H   0  0  0  0  0  0  0  0  0  0  0  0
   -0.8473    1.3658    1.0218 H   0  0  0  0  0  0  0  0  0  0  0  0
   -0.8831    2.6412   -0.6888 C   0  0  0  0  0  0  0  0  0  0  0  0
    0.1816    2.8920   -0.6369 H   0  0  0  0  0  0  0  0  0  0  0  0
   -1.1687    2.5934   -1.7449 H   0  0  0  0  0  0  0  0  0  0  0  0
   -1.6905    3.7344    0.0047 C   0  0  0  0  0  0  0  0  0  0  0  0
   -2.7581    3.4900   -0.0229 H   0  0  0  0  0  0  0  0  0  0  0  0
   -1.3867    3.8167    1.0542 H   0  0  0  0  0  0  0  0  0  0  0  0
   -1.4515    5.0014   -0.6919 N   0  0  0  0  0  0  0  0  0  0  0  0
   -1.9610    5.7677   -0.2515 H   0  0  0  0  0  0  0  0  0  0  0  0
   -0.4537    5.2093   -0.7399 H   0  0  0  0  0  0  0  0  0  0  0  0
    0.4190   -0.9958    1.4771 C   0  0  0  0  0  0  0  0  0  0  0  0
    1.6317   -0.9278    1.6284 O   0  0  0  0  0  0  0  0  0  0  0  0
   -0.4029   -0.6600    2.5390 N   0  0  0  0  0  0  0  0  0  0  0  0
   -1.3950   -0.8204    2.4000 H   0  0  0  0  0  0  0  0  0  0  0  0
    0.0943   -0.4842    3.8975 C   0  0  0  0  0  0  0  0  0  0  0  0
    0.8371    0.3196    3.9332 H   0  0  0  0  0  0  0  0  0  0  0  0
   -0.7277   -0.2223    4.5702 H   0  0  0  0  0  0  0  0  0  0  0  0
    0.5579   -1.4089    4.2569 H   0  0  0  0  0  0  0  0  0  0  0  0
  1  2  1  0  0  0  0
  2  3  1  0  0  0  0
  2  4  1  0  0  0  0
  2  5  1  0  0  0  0
  5  6  2  0  0  0  0
  5  7  1  0  0  0  0
  7  8  1  0  0  0  0
  7  9  1  0  0  0  0
  9 10  1  0  0  0  0
  9 11  1  0  0  0  0
  9 26  1  0  0  0  0
 11 12  1  0  0  0  0
 11 13  1  0  0  0  0
 11 14  1  0  0  0  0
 14 15  1  0  0  0  0
 14 16  1  0  0  0  0
 14 17  1  0  0  0  0
 17 18  1  0  0  0  0
 17 19  1  0  0  0  0
 17 20  1  0  0  0  0
 20 21  1  0  0  0  0
 20 22  1  0  0  0  0
 20 23  1  0  0  0  0
 23 24  1  0  0  0  0
 23 25  1  0  0  0  0
 26 27  2  0  0  0  0
 26 28  1  0  0  0  0
 28 29  1  0  0  0  0
 28 30  1  0  0  0  0
 30 31  1  0  0  0  0
 30 32  1  0  0  0  0
 30 33  1  0  0  0  0
M  END
$$$$

  -OEChem-03222214063D

 33 32  0     1  0  0  0  0  0999 V2000
   -2.8804   -4.9038    0.4300 H   0  0  0  0  0  0  0  0  0  0  0  0
   -2.9086   -3.8762    0.0563 C   0  0  0  0  0  0  0  0  0  0  0  0
   -3.7198   -3.3419    0.5564 H   0  0  0  0  0  0  0  0  0  0  0  0
   -3.1029   -3.8990   -1.0186 H   0  0  0  0  0  0  0  0  0  0  0  0
   -1.5863   -3.1854    0.3299 C   0  0  0  0  0  0  0  0  0  0  0  0
   -0.6987   -3.7826    0.9114 O   0  0  0  0  0  0  0  0  0  0  0  0
   -1.4049   -1.8756   -0.0687 N   0  0  0  0  0  0  0  0  0  0  0  0
   -2.1549   -1.4546   -0.6089 H   0  0  0  0  0  0  0  0  0  0  0  0
   -0.1296   -1.1432    0.0364 C   0  0  1  0  0  0  0  0  0  0  0  0
    0.6128   -1.7466   -0.4989 H   0  0  0  0  0  0  0  0  0  0  0  0
   -0.2523    0.1856   -0.7419 C   0  0  0  0  0  0  0  0  0  0  0  0
    0.7458    0.4454   -1.1111 H   0  0  0  0  0  0  0  0  0  0  0  0
   -0.8921    0.0418   -1.6186 H   0  0  0  0  0  0  0  0  0  0  0  0
   -0.7667    1.3726    0.0883 C   0  0  0  0  0  0  0  0  0  0  0  0
   -1.7543    1.1372    0.4982 H   0  0  0  0  0  0  0  0  0  0  0  0
   -0.0862    1.5697    0.9232 H   0  0  0  0  0  0  0  0  0  0  0  0
   -0.8517    2.6341   -0.7764 C   0  0  0  0  0  0  0  0  0  0  0  0
    0.1324    2.8585   -1.2003 H   0  0  0  0  0  0  0  0  0  0  0  0
   -1.5465    2.4657   -1.6058 H   0  0  0  0  0  0  0  0  0  0  0  0
   -1.3293    3.8240    0.0507 C   0  0  0  0  0  0  0  0  0  0  0  0
   -2.3078    3.6066    0.4935 H   0  0  0  0  0  0  0  0  0  0  0  0
   -0.6233    4.0221    0.8650 H   0  0  0  0  0  0  0  0  0  0  0  0
   -1.4281    4.9921   -0.8287 N   0  0  0  0  0  0  0  0  0  0  0  0
   -1.7359    5.8166   -0.3131 H   0  0  0  0  0  0  0  0  0  0  0  0
   -0.5411    5.1702   -1.3003 H   0  0  0  0  0  0  0  0  0  0  0  0
    0.4343   -1.0000    1.4700 C   0  0  0  0  0  0  0  0  0  0  0  0
    1.6456   -0.9522    1.6387 O   0  0  0  0  0  0  0  0  0  0  0  0
   -0.3996   -0.6429    2.5153 N   0  0  0  0  0  0  0  0  0  0  0  0
   -1.3929   -0.7741    2.3572 H   0  0  0  0  0  0  0  0  0  0  0  0
    0.0768   -0.4637    3.8806 C   0  0  0  0  0  0  0  0  0  0  0  0
    0.8283    0.3318    3.9235 H   0  0  0  0  0  0  0  0  0  0  0  0
   -0.7535   -0.1885    4.5380 H   0  0  0  0  0  0  0  0  0  0  0  0
    0.5239   -1.3912    4.2537 H   0  0  0  0  0  0  0  0  0  0  0  0
  1  2  1  0  0  0  0
  2  3  1  0  0  0  0
  2  4  1  0  0  0  0
  2  5  1  0  0  0  0
  5  6  2  0  0  0  0
  5  7  1  0  0  0  0
  7  8  1  0  0  0  0
  7  9  1  0  0  0  0
  9 10  1  0  0  0  0
  9 11  1  0  0  0  0
  9 26  1  0  0  0  0
 11 12  1  0  0  0  0
 11 13  1  0  0  0  0
 11 14  1  0  0  0  0
 14 15  1  0  0  0  0
 14 16  1  0  0  0  0
 14 17  1  0  0  0  0
 17 18  1  0  0  0  0
 17 19  1  0  0  0  0
 17 20  1  0  0  0  0
 20 21  1  0  0  0  0
 20 22  1  0  0  0  0
 20 23  1  0  0  0  0
 23 24  1  0  0  0  0
 23 25  1  0  0  0  0
 26 27  2  0  0  0  0
 26 28  1  0  0  0  0
 28 29  1  0  0  0  0
 28 30  1  0  0  0  0
 30 31  1  0  0  0  0
 30 32  1  0  0  0  0
 30 33  1  0  0  0  0
M  END
$$$$

  -OEChem-03222214063D

 33 32  0     1  0  0  0  0  0999 V2000
   -2.8935   -4.8988    0.4574 H   0  0  0  0  0  0  0  0  0  0  0  0
   -2.9189   -3.8753    0.0727 C   0  0  0  0  0  0  0  0  0  0  0  0
   -3.7173   -3.3291    0.5805 H   0  0  0  0  0  0  0  0  0  0  0  0
   -3.1315   -3.9083   -0.9985 H   0  0  0  0  0  0  0  0  0  0  0  0
   -1.5864   -3.1924    0.3172 C   0  0  0  0  0  0  0  0  0  0  0  0
   -0.6899   -3.7943    0.8799 O   0  0  0  0  0  0  0  0  0  0  0  0
   -1.4066   -1.8817   -0.0789 N   0  0  0  0  0  0  0  0  0  0  0  0
   -2.1683   -1.4492   -0.5930 H   0  0  0  0  0  0  0  0  0  0  0  0
   -0.1330   -1.1466    0.0284 C   0  0  1  0  0  0  0  0  0  0  0  0
    0.6090   -1.7491   -0.5082 H   0  0  0  0  0  0  0  0  0  0  0  0
   -0.2489    0.1835   -0.7469 C   0  0  0  0  0  0  0  0  0  0  0  0
    0.7440    0.4515   -1.1239 H   0  0  0  0  0  0  0  0  0  0  0  0
   -0.8946    0.0357   -1.6187 H   0  0  0  0  0  0  0  0  0  0  0  0
   -0.7652    1.3608    0.0944 C   0  0  0  0  0  0  0  0  0  0  0  0
   -1.6281    1.0396    0.6866 H   0  0  0  0  0  0  0  0  0  0  0  0
    0.0175    1.6958    0.7842 H   0  0  0  0  0  0  0  0  0  0  0  0
   -1.1974    2.5202   -0.8086 C   0  0  0  0  0  0  0  0  0  0  0  0
   -0.3547    2.8331   -1.4334 H   0  0  0  0  0  0  0  0  0  0  0  0
   -2.0058    2.1917   -1.4702 H   0  0  0  0  0  0  0  0  0  0  0  0
   -1.6788    3.7036    0.0248 C   0  0  0  0  0  0  0  0  0  0  0  0
   -2.5105    3.3965    0.6685 H   0  0  0  0  0  0  0  0  0  0  0  0
   -0.8678    4.0659    0.6663 H   0  0  0  0  0  0  0  0  0  0  0  0
   -2.1185    4.7647   -0.8853 N   0  0  0  0  0  0  0  0  0  0  0  0
   -2.4474    5.5808   -0.3691 H   0  0  0  0  0  0  0  0  0  0  0  0
   -1.3739    5.0218   -1.5337 H   0  0  0  0  0  0  0  0  0  0  0  0
    0.4386   -0.9983    1.4591 C   0  0  0  0  0  0  0  0  0  0  0  0
    1.6509   -0.9437    1.6187 O   0  0  0  0  0  0  0  0  0  0  0  0
   -0.3872   -0.6414    2.5113 N   0  0  0  0  0  0  0  0  0  0  0  0
   -1.3816   -0.7779    2.3650 H   0  0  0  0  0  0  0  0  0  0  0  0
    0.1006   -0.4414    3.8698 C   0  0  0  0  0  0  0  0  0  0  0  0
    0.8599    0.3475    3.8937 H   0  0  0  0  0  0  0  0  0  0  0  0
   -0.7221   -0.1453    4.5272 H   0  0  0  0  0  0  0  0  0  0  0  0
    0.5403   -1.3667    4.2567 H   0  0  0  0  0  0  0  0  0  0  0  0
  1  2  1  0  0  0  0
  2  3  1  0  0  0  0
  2  4  1  0  0  0  0
  2  5  1  0  0  0  0
  5  6  2  0  0  0  0
  5  7  1  0  0  0  0
  7  8  1  0  0  0  0
  7  9  1  0  0  0  0
  9 10  1  0  0  0  0
  9 11  1  0  0  0  0
  9 26  1  0  0  0  0
 11 12  1  0  0  0  0
 11 13  1  0  0  0  0
 11 14  1  0  0  0  0
 14 15  1  0  0  0  0
 14 16  1  0  0  0  0
 14 17  1  0  0  0  0
 17 18  1  0  0  0  0
 17 19  1  0  0  0  0
 17 20  1  0  0  0  0
 20 21  1  0  0  0  0
 20 22  1  0  0  0  0
 20 23  1  0  0  0  0
 23 24  1  0  0  0  0
 23 25  1  0  0  0  0
 26 27  2  0  0  0  0
 26 28  1  0  0  0  0
 28 29  1  0  0  0  0
 28 30  1  0  0  0  0
 30 31  1  0  0  0  0
 30 32  1  0  0  0  0
 30 33  1  0  0  0  0
M  END
$$$$

  -OEChem-03222214063D

 33 32  0     1  0  0  0  0  0999 V2000
   -2.8989   -4.9038    0.4496 H   0  0  0  0  0  0  0  0  0  0  0  0
   -2.9266   -3.8769    0.0739 C   0  0  0  0  0  0  0  0  0  0  0  0
   -3.7254   -3.3363    0.5871 H   0  0  0  0  0  0  0  0  0  0  0  0
   -3.1405   -3.9008   -0.9973 H   0  0  0  0  0  0  0  0  0  0  0  0
   -1.5949   -3.1939    0.3220 C   0  0  0  0  0  0  0  0  0  0  0  0
   -0.6933   -3.8013    0.8708 O   0  0  0  0  0  0  0  0  0  0  0  0
   -1.4204   -1.8784   -0.0591 N   0  0  0  0  0  0  0  0  0  0  0  0
   -2.1881   -1.4388   -0.5582 H   0  0  0  0  0  0  0  0  0  0  0  0
   -0.1472   -1.1432    0.0441 C   0  0  1  0  0  0  0  0  0  0  0  0
    0.5868   -1.7489   -0.5003 H   0  0  0  0  0  0  0  0  0  0  0  0
   -0.2568    0.1855   -0.7348 C   0  0  0  0  0  0  0  0  0  0  0  0
    0.7346    0.4487   -1.1187 H   0  0  0  0  0  0  0  0  0  0  0  0
   -0.9028    0.0282   -1.6049 H   0  0  0  0  0  0  0  0  0  0  0  0
   -0.7706    1.3738    0.0966 C   0  0  0  0  0  0  0  0  0  0  0  0
   -1.4676    1.0184    0.8609 H   0  0  0  0  0  0  0  0  0  0  0  0
    0.0699    1.8615    0.6026 H   0  0  0  0  0  0  0  0  0  0  0  0
   -1.5296    2.3724   -0.7839 C   0  0  0  0  0  0  0  0  0  0  0  0
   -0.8724    2.7303   -1.5831 H   0  0  0  0  0  0  0  0  0  0  0  0
   -2.3897    1.8778   -1.2478 H   0  0  0  0  0  0  0  0  0  0  0  0
   -2.0183    3.5589    0.0419 C   0  0  0  0  0  0  0  0  0  0  0  0
   -2.6606    3.2102    0.8581 H   0  0  0  0  0  0  0  0  0  0  0  0
   -1.1655    4.0876    0.4824 H   0  0  0  0  0  0  0  0  0  0  0  0
   -2.7739    4.4569   -0.8362 N   0  0  0  0  0  0  0  0  0  0  0  0
   -3.1278    5.2639   -0.3219 H   0  0  0  0  0  0  0  0  0  0  0  0
   -2.2068    4.7542   -1.6306 H   0  0  0  0  0  0  0  0  0  0  0  0
    0.4474   -1.0067    1.4671 C   0  0  0  0  0  0  0  0  0  0  0  0
    1.6623   -0.9505    1.6052 O   0  0  0  0  0  0  0  0  0  0  0  0
   -0.3578   -0.6619    2.5388 N   0  0  0  0  0  0  0  0  0  0  0  0
   -1.3545   -0.8003    2.4104 H   0  0  0  0  0  0  0  0  0  0  0  0
    0.1554   -0.4739    3.8897 C   0  0  0  0  0  0  0  0  0  0  0  0
    0.9107    0.3188    3.9067 H   0  0  0  0  0  0  0  0  0  0  0  0
   -0.6565   -0.1894    4.5657 H   0  0  0  0  0  0  0  0  0  0  0  0
    0.6077   -1.4002    4.2590 H   0  0  0  0  0  0  0  0  0  0  0  0
  1  2  1  0  0  0  0
  2  3  1  0  0  0  0
  2  4  1  0  0  0  0
  2  5  1  0  0  0  0
  5  6  2  0  0  0  0
  5  7  1  0  0  0  0
  7  8  1  0  0  0  0
  7  9  1  0  0  0  0
  9 10  1  0  0  0  0
  9 11  1  0  0  0  0
  9 26  1  0  0  0  0
 11 12  1  0  0  0  0
 11 13  1  0  0  0  0
 11 14  1  0  0  0  0
 14 15  1  0  0  0  0
 14 16  1  0  0  0  0
 14 17  1  0  0  0  0
 17 18  1  0  0  0  0
 17 19  1  0  0  0  0
 17 20  1  0  0  0  0
 20 21  1  0  0  0  0
 20 22  1  0  0  0  0
 20 23  1  0  0  0  0
 23 24  1  0  0  0  0
 23 25  1  0  0  0  0
 26 27  2  0  0  0  0
 26 28  1  0  0  0  0
 28 29  1  0  0  0  0
 28 30  1  0  0  0  0
 30 31  1  0  0  0  0
 30 32  1  0  0  0  0
 30 33  1  0  0  0  0
M  END
$$$$

  -OEChem-03222214063D

 33 32  0     1  0  0  0  0  0999 V2000
   -2.9022   -4.9046    0.4458 H   0  0  0  0  0  0  0  0  0  0  0  0
   -2.9360   -3.8727    0.0846 C   0  0  0  0  0  0  0  0  0  0  0  0
   -3.7290   -3.3405    0.6154 H   0  0  0  0  0  0  0  0  0  0  0  0
   -3.1633   -3.8818   -0.9842 H   0  0  0  0  0  0  0  0  0  0  0  0
   -1.6015   -3.1923    0.3251 C   0  0  0  0  0  0  0  0  0  0  0  0
   -0.6893   -3.8100    0.8443 O   0  0  0  0  0  0  0  0  0  0  0  0
   -1.4353   -1.8682   -0.0290 N   0  0  0  0  0  0  0  0  0  0  0  0
   -2.2161   -1.4145   -0.4943 H   0  0  0  0  0  0  0  0  0  0  0  0
   -0.1620   -1.1329    0.0694 C   0  0  1  0  0  0  0  0  0  0  0  0
    0.5617   -1.7381   -0.4891 H   0  0  0  0  0  0  0  0  0  0  0  0
   -0.2676    0.1951   -0.7125 C   0  0  0  0  0  0  0  0  0  0  0  0
    0.7291    0.4485   -1.0898 H   0  0  0  0  0  0  0  0  0  0  0  0
   -0.9006    0.0336   -1.5915 H   0  0  0  0  0  0  0  0  0  0  0  0
   -0.7772    1.4031    0.0984 C   0  0  0  0  0  0  0  0  0  0  0  0
   -1.2570    1.0711    1.0211 H   0  0  0  0  0  0  0  0  0  0  0  0
    0.0671    2.0455    0.3717 H   0  0  0  0  0  0  0  0  0  0  0  0
   -1.8244    2.1934   -0.6944 C   0  0  0  0  0  0  0  0  0  0  0  0
   -1.3854    2.5458   -1.6333 H   0  0  0  0  0  0  0  0  0  0  0  0
   -2.6699    1.5416   -0.9385 H   0  0  0  0  0  0  0  0  0  0  0  0
   -2.3282    3.3878    0.1104 C   0  0  0  0  0  0  0  0  0  0  0  0
   -2.7487    3.0492    1.0638 H   0  0  0  0  0  0  0  0  0  0  0  0
   -1.5004    4.0717    0.3279 H   0  0  0  0  0  0  0  0  0  0  0  0
   -3.3606    4.0725   -0.6728 N   0  0  0  0  0  0  0  0  0  0  0  0
   -3.7420    4.8701   -0.1634 H   0  0  0  0  0  0  0  0  0  0  0  0
   -2.9983    4.3628   -1.5812 H   0  0  0  0  0  0  0  0  0  0  0  0
    0.4610   -1.0240    1.4830 C   0  0  0  0  0  0  0  0  0  0  0  0
    1.6786   -0.9664    1.5946 O   0  0  0  0  0  0  0  0  0  0  0  0
   -0.3187   -0.7044    2.5813 N   0  0  0  0  0  0  0  0  0  0  0  0
   -1.3183   -0.8420    2.4743 H   0  0  0  0  0  0  0  0  0  0  0  0
    0.2278   -0.5465    3.9232 C   0  0  0  0  0  0  0  0  0  0  0  0
    0.9735    0.2552    3.9419 H   0  0  0  0  0  0  0  0  0  0  0  0
   -0.5684   -0.2909    4.6286 H   0  0  0  0  0  0  0  0  0  0  0  0
    0.7012   -1.4768    4.2543 H   0  0  0  0  0  0  0  0  0  0  0  0
  1  2  1  0  0  0  0
  2  3  1  0  0  0  0
  2  4  1  0  0  0  0
  2  5  1  0  0  0  0
  5  6  2  0  0  0  0
  5  7  1  0  0  0  0
  7  8  1  0  0  0  0
  7  9  1  0  0  0  0
  9 10  1  0  0  0  0
  9 11  1  0  0  0  0
  9 26  1  0  0  0  0
 11 12  1  0  0  0  0
 11 13  1  0  0  0  0
 11 14  1  0  0  0  0
 14 15  1  0  0  0  0
 14 16  1  0  0  0  0
 14 17  1  0  0  0  0
 17 18  1  0  0  0  0
 17 19  1  0  0  0  0
 17 20  1  0  0  0  0
 20 21  1  0  0  0  0
 20 22  1  0  0  0  0
 20 23  1  0  0  0  0
 23 24  1  0  0  0  0
 23 25  1  0  0  0  0
 26 27  2  0  0  0  0
 26 28  1  0  0  0  0
 28 29  1  0  0  0  0
 28 30  1  0  0  0  0
 30 31  1  0  0  0  0
 30 32  1  0  0  0  0
 30 33  1  0  0  0  0
M  END
$$$$

  -OEChem-03222214063D

 33 32  0     1  0  0  0  0  0999 V2000
   -2.9176   -4.8913    0.4659 H   0  0  0  0  0  0  0  0  0  0  0  0
   -2.9492   -3.8568    0.1121 C   0  0  0  0  0  0  0  0  0  0  0  0
   -3.7291   -3.3220    0.6595 H   0  0  0  0  0  0  0  0  0  0  0  0
   -3.1947   -3.8574   -0.9526 H   0  0  0  0  0  0  0  0  0  0  0  0
   -1.6055   -3.1877    0.3339 C   0  0  0  0  0  0  0  0  0  0  0  0
   -0.6856   -3.8195    0.8216 O   0  0  0  0  0  0  0  0  0  0  0  0
   -1.4377   -1.8597   -0.0055 N   0  0  0  0  0  0  0  0  0  0  0  0
   -2.2277   -1.3912   -0.4398 H   0  0  0  0  0  0  0  0  0  0  0  0
   -0.1612   -1.1295    0.0840 C   0  0  1  0  0  0  0  0  0  0  0  0
    0.5526   -1.7376   -0.4839 H   0  0  0  0  0  0  0  0  0  0  0  0
   -0.2699    0.1964   -0.7027 C   0  0  0  0  0  0  0  0  0  0  0  0
    0.7365    0.4384   -1.0613 H   0  0  0  0  0  0  0  0  0  0  0  0
   -0.8841    0.0367   -1.5952 H   0  0  0  0  0  0  0  0  0  0  0  0
   -0.7703    1.4252    0.0855 C   0  0  0  0  0  0  0  0  0  0  0  0
   -0.9701    1.1804    1.1288 H   0  0  0  0  0  0  0  0  0  0  0  0
    0.0052    2.1987    0.0750 H   0  0  0  0  0  0  0  0  0  0  0  0
   -2.0569    1.9814   -0.5358 C   0  0  0  0  0  0  0  0  0  0  0  0
   -1.8652    2.2893   -1.5690 H   0  0  0  0  0  0  0  0  0  0  0  0
   -2.8230    1.1993   -0.5511 H   0  0  0  0  0  0  0  0  0  0  0  0
   -2.5760    3.1738    0.2618 C   0  0  0  0  0  0  0  0  0  0  0  0
   -2.7466    2.8835    1.3044 H   0  0  0  0  0  0  0  0  0  0  0  0
   -1.8398    3.9852    0.2512 H   0  0  0  0  0  0  0  0  0  0  0  0
   -3.8340    3.6207   -0.3431 N   0  0  0  0  0  0  0  0  0  0  0  0
   -4.2356    4.4019    0.1761 H   0  0  0  0  0  0  0  0  0  0  0  0
   -3.6999    3.8692   -1.3233 H   0  0  0  0  0  0  0  0  0  0  0  0
    0.4797   -1.0416    1.4908 C   0  0  0  0  0  0  0  0  0  0  0  0
    1.6989   -0.9916    1.5883 O   0  0  0  0  0  0  0  0  0  0  0  0
   -0.2847   -0.7346    2.6032 N   0  0  0  0  0  0  0  0  0  0  0  0
   -1.2870   -0.8590    2.5057 H   0  0  0  0  0  0  0  0  0  0  0  0
    0.2789   -0.6002    3.9405 C   0  0  0  0  0  0  0  0  0  0  0  0
    1.0220    0.2038    3.9643 H   0  0  0  0  0  0  0  0  0  0  0  0
   -0.5094   -0.3620    4.6608 H   0  0  0  0  0  0  0  0  0  0  0  0
    0.7606   -1.5345    4.2481 H   0  0  0  0  0  0  0  0  0  0  0  0
  1  2  1  0  0  0  0
  2  3  1  0  0  0  0
  2  4  1  0  0  0  0
  2  5  1  0  0  0  0
  5  6  2  0  0  0  0
  5  7  1  0  0  0  0
  7  8  1  0  0  0  0
  7  9  1  0  0  0  0
  9 10  1  0  0  0  0
  9 11  1  0  0  0  0
  9 26  1  0  0  0  0
 11 12  1  0  0  0  0
 11 13  1  0  0  0  0
 11 14  1  0  0  0  0
 14 15  1  0  0  0  0
 14 16  1  0  0  0  0
 14 17  1  0  0  0  0
 17 18  1  0  0  0  0
 17 19  1  0  0  0  0
 17 20  1  0  0  0  0
 20 21  1  0  0  0  0
 20 22  1  0  0  0  0
 20 23  1  0  0  0  0
 23 24  1  0  0  0  0
 23 25  1  0  0  0  0
 26 27  2  0  0  0  0
 26 28  1  0  0  0  0
 28 29  1  0  0  0  0
 28 30  1  0  0  0  0
 30 31  1  0  0  0  0
 30 32  1  0  0  0  0
 30 33  1  0  0  0  0
M  END
$$$$

  -OEChem-03222214063D

 33 32  0     1  0  0  0  0  0999 V2000
   -2.9126   -4.8783    0.5270 H   0  0  0  0  0  0  0  0  0  0  0  0
   -2.9415   -3.8474    0.1626 C   0  0  0  0  0  0  0  0  0  0  0  0
   -3.6987   -3.2974    0.7263 H   0  0  0  0  0  0  0  0  0  0  0  0
   -3.2171   -3.8553   -0.8947 H   0  0  0  0  0  0  0  0  0  0  0  0
   -1.5845   -3.1928    0.3396 C   0  0  0  0  0  0  0  0  0  0  0  0
   -0.6590   -3.8307    0.8085 O   0  0  0  0  0  0  0  0  0  0  0  0
   -1.4124   -1.8698   -0.0162 N   0  0  0  0  0  0  0  0  0  0  0  0
   -2.2117   -1.3930   -0.4239 H   0  0  0  0  0  0  0  0  0  0  0  0
   -0.1341   -1.1413    0.0631 C   0  0  1  0  0  0  0  0  0  0  0  0
    0.5828   -1.7486   -0.5015 H   0  0  0  0  0  0  0  0  0  0  0  0
   -0.2582    0.1826   -0.7265 C   0  0  0  0  0  0  0  0  0  0  0  0
    0.7513    0.4235   -1.0771 H   0  0  0  0  0  0  0  0  0  0  0  0
   -0.8655    0.0269   -1.6244 H   0  0  0  0  0  0  0  0  0  0  0  0
   -0.7534    1.4164    0.0561 C   0  0  0  0  0  0  0  0  0  0  0  0
   -0.6478    1.2957    1.1342 H   0  0  0  0  0  0  0  0  0  0  0  0
   -0.1346    2.2749   -0.2255 H   0  0  0  0  0  0  0  0  0  0  0  0
   -2.2096    1.7369   -0.2990 C   0  0  0  0  0  0  0  0  0  0  0  0
   -2.2908    1.9608   -1.3678 H   0  0  0  0  0  0  0  0  0  0  0  0
   -2.8375    0.8660   -0.0852 H   0  0  0  0  0  0  0  0  0  0  0  0
   -2.7147    2.9269    0.5106 C   0  0  0  0  0  0  0  0  0  0  0  0
   -2.6145    2.7219    1.5824 H   0  0  0  0  0  0  0  0  0  0  0  0
   -2.1230    3.8195    0.2787 H   0  0  0  0  0  0  0  0  0  0  0  0
   -4.1242    3.1488    0.1756 N   0  0  0  0  0  0  0  0  0  0  0  0
   -4.5168    3.9139    0.7251 H   0  0  0  0  0  0  0  0  0  0  0  0
   -4.2393    3.3249   -0.8225 H   0  0  0  0  0  0  0  0  0  0  0  0
    0.4902   -1.0491    1.4763 C   0  0  0  0  0  0  0  0  0  0  0  0
    1.7079   -1.0028    1.5927 O   0  0  0  0  0  0  0  0  0  0  0  0
   -0.2933   -0.7322    2.5726 N   0  0  0  0  0  0  0  0  0  0  0  0
   -1.2954   -0.8380    2.4529 H   0  0  0  0  0  0  0  0  0  0  0  0
    0.2432   -0.5890    3.9197 C   0  0  0  0  0  0  0  0  0  0  0  0
    0.9900    0.2113    3.9525 H   0  0  0  0  0  0  0  0  0  0  0  0
   -0.5588   -0.3402    4.6211 H   0  0  0  0  0  0  0  0  0  0  0  0
    0.7129   -1.5231    4.2455 H   0  0  0  0  0  0  0  0  0  0  0  0
  1  2  1  0  0  0  0
  2  3  1  0  0  0  0
  2  4  1  0  0  0  0
  2  5  1  0  0  0  0
  5  6  2  0  0  0  0
  5  7  1  0  0  0  0
  7  8  1  0  0  0  0
  7  9  1  0  0  0  0
  9 10  1  0  0  0  0
  9 11  1  0  0  0  0
  9 26  1  0  0  0  0
 11 12  1  0  0  0  0
 11 13  1  0  0  0  0
 11 14  1  0  0  0  0
 14 15  1  0  0  0  0
 14 16  1  0  0  0  0
 14 17  1  0  0  0  0
 17 18  1  0  0  0  0
 17 19  1  0  0  0  0
 17 20  1  0  0  0  0
 20 21  1  0  0  0  0
 20 22  1  0  0  0  0
 20 23  1  0  0  0  0
 23 24  1  0  0  0  0
 23 25  1  0  0  0  0
 26 27  2  0  0  0  0
 26 28  1  0  0  0  0
 28 29  1  0  0  0  0
 28 30  1  0  0  0  0
 30 31  1  0  0  0  0
 30 32  1  0  0  0  0
 30 33  1  0  0  0  0
M  END
$$$$

  -OEChem-03222214063D

 33 32  0     1  0  0  0  0  0999 V2000
   -2.9117   -4.8740    0.5607 H   0  0  0  0  0  0  0  0  0  0  0  0
   -2.9340   -3.8472    0.1846 C   0  0  0  0  0  0  0  0  0  0  0  0
   -3.6792   -3.2821    0.7495 H   0  0  0  0  0  0  0  0  0  0  0  0
   -3.2206   -3.8650   -0.8696 H   0  0  0  0  0  0  0  0  0  0  0  0
   -1.5685   -3.2044    0.3385 C   0  0  0  0  0  0  0  0  0  0  0  0
   -0.6427   -3.8452    0.8029 O   0  0  0  0  0  0  0  0  0  0  0  0
   -1.3884   -1.8887   -0.0392 N   0  0  0  0  0  0  0  0  0  0  0  0
   -2.1922   -1.4062   -0.4309 H   0  0  0  0  0  0  0  0  0  0  0  0
   -0.1095   -1.1608    0.0374 C   0  0  1  0  0  0  0  0  0  0  0  0
    0.6139   -1.7668   -0.5201 H   0  0  0  0  0  0  0  0  0  0  0  0
   -0.2444    0.1650   -0.7479 C   0  0  0  0  0  0  0  0  0  0  0  0
    0.7614    0.4128   -1.1039 H   0  0  0  0  0  0  0  0  0  0  0  0
   -0.8627    0.0162   -1.6395 H   0  0  0  0  0  0  0  0  0  0  0  0
   -0.7381    1.3881    0.0480 C   0  0  0  0  0  0  0  0  0  0  0  0
   -0.3716    1.3888    1.0764 H   0  0  0  0  0  0  0  0  0  0  0  0
   -0.3310    2.2875   -0.4259 H   0  0  0  0  0  0  0  0  0  0  0  0
   -2.2670    1.4846    0.0058 C   0  0  0  0  0  0  0  0  0  0  0  0
   -2.6041    1.5809   -1.0312 H   0  0  0  0  0  0  0  0  0  0  0  0
   -2.7042    0.5720    0.4221 H   0  0  0  0  0  0  0  0  0  0  0  0
   -2.7583    2.6793    0.8151 C   0  0  0  0  0  0  0  0  0  0  0  0
   -2.4226    2.5913    1.8546 H   0  0  0  0  0  0  0  0  0  0  0  0
   -2.3507    3.6094    0.4032 H   0  0  0  0  0  0  0  0  0  0  0  0
   -4.2231    2.6971    0.7632 N   0  0  0  0  0  0  0  0  0  0  0  0
   -4.6018    3.4530    1.3349 H   0  0  0  0  0  0  0  0  0  0  0  0
   -4.5542    2.7717   -0.1987 H   0  0  0  0  0  0  0  0  0  0  0  0
    0.4936   -1.0496    1.4576 C   0  0  0  0  0  0  0  0  0  0  0  0
    1.7093   -1.0110    1.5948 O   0  0  0  0  0  0  0  0  0  0  0  0
   -0.3088   -0.7135    2.5344 N   0  0  0  0  0  0  0  0  0  0  0  0
   -1.3107   -0.7936    2.3938 H   0  0  0  0  0  0  0  0  0  0  0  0
    0.2029   -0.5391    3.8874 C   0  0  0  0  0  0  0  0  0  0  0  0
    0.9367    0.2732    3.9182 H   0  0  0  0  0  0  0  0  0  0  0  0
   -0.6148   -0.2918    4.5711 H   0  0  0  0  0  0  0  0  0  0  0  0
    0.6820   -1.4597    4.2372 H   0  0  0  0  0  0  0  0  0  0  0  0
  1  2  1  0  0  0  0
  2  3  1  0  0  0  0
  2  4  1  0  0  0  0
  2  5  1  0  0  0  0
  5  6  2  0  0  0  0
  5  7  1  0  0  0  0
  7  8  1  0  0  0  0
  7  9  1  0  0  0  0
  9 10  1  0  0  0  0
  9 11  1  0  0  0  0
  9 26  1  0  0  0  0
 11 12  1  0  0  0  0
 11 13  1  0  0  0  0
 11 14  1  0  0  0  0
 14 15  1  0  0  0  0
 14 16  1  0  0  0  0
 14 17  1  0  0  0  0
 17 18  1  0  0  0  0
 17 19  1  0  0  0  0
 17 20  1  0  0  0  0
 20 21  1  0  0  0  0
 20 22  1  0  0  0  0
 20 23  1  0  0  0  0
 23 24  1  0  0  0  0
 23 25  1  0  0  0  0
 26 27  2  0  0  0  0
 26 28  1  0  0  0  0
 28 29  1  0  0  0  0
 28 30  1  0  0  0  0
 30 31  1  0  0  0  0
 30 32  1  0  0  0  0
 30 33  1  0  0  0  0
M  END
$$$$

  -OEChem-03222214063D

 33 32  0     1  0  0  0  0  0999 V2000
   -2.8826   -4.9098    0.5677 H   0  0  0  0  0  0  0  0  0  0  0  0
   -2.9138   -3.8854    0.1852 C   0  0  0  0  0  0  0  0  0  0  0  0
   -3.6562   -3.3203    0.7538 H   0  0  0  0  0  0  0  0  0  0  0  0
   -3.2110   -3.9116   -0.8660 H   0  0  0  0  0  0  0  0  0  0  0  0
   -1.5497   -3.2356    0.3221 C   0  0  0  0  0  0  0  0  0  0  0  0
   -0.6171   -3.8712    0.7800 O   0  0  0  0  0  0  0  0  0  0  0  0
   -1.3757   -1.9229   -0.0687 N   0  0  0  0  0  0  0  0  0  0  0  0
   -2.1869   -1.4391   -0.4423 H   0  0  0  0  0  0  0  0  0  0  0  0
   -0.1022   -1.1865    0.0178 C   0  0  1  0  0  0  0  0  0  0  0  0
    0.6316   -1.7887   -0.5303 H   0  0  0  0  0  0  0  0  0  0  0  0
   -0.2298    0.1453   -0.7592 C   0  0  0  0  0  0  0  0  0  0  0  0
    0.7732    0.3982   -1.1195 H   0  0  0  0  0  0  0  0  0  0  0  0
   -0.8572    0.0025   -1.6452 H   0  0  0  0  0  0  0  0  0  0  0  0
   -0.7304    1.3591    0.0461 C   0  0  0  0  0  0  0  0  0  0  0  0
   -0.1733    1.4675    0.9812 H   0  0  0  0  0  0  0  0  0  0  0  0
   -0.5351    2.2622   -0.5414 H   0  0  0  0  0  0  0  0  0  0  0  0
   -2.2381    1.2766    0.3172 C   0  0  0  0  0  0  0  0  0  0  0  0
   -2.7819    1.2492   -0.6325 H   0  0  0  0  0  0  0  0  0  0  0  0
   -2.4702    0.3605    0.8672 H   0  0  0  0  0  0  0  0  0  0  0  0
   -2.7069    2.4695    1.1424 C   0  0  0  0  0  0  0  0  0  0  0  0
   -2.1667    2.5008    2.0955 H   0  0  0  0  0  0  0  0  0  0  0  0
   -2.5073    3.4046    0.6072 H   0  0  0  0  0  0  0  0  0  0  0  0
   -4.1444    2.3183    1.3871 N   0  0  0  0  0  0  0  0  0  0  0  0
   -4.4932    3.0596    1.9959 H   0  0  0  0  0  0  0  0  0  0  0  0
   -4.6649    2.2974    0.5101 H   0  0  0  0  0  0  0  0  0  0  0  0
    0.4839   -1.0532    1.4435 C   0  0  0  0  0  0  0  0  0  0  0  0
    1.6978   -1.0091    1.5937 O   0  0  0  0  0  0  0  0  0  0  0  0
   -0.3302   -0.7076    2.5085 N   0  0  0  0  0  0  0  0  0  0  0  0
   -1.3321   -0.7576    2.3541 H   0  0  0  0  0  0  0  0  0  0  0  0
    0.1691   -0.4770    3.8577 C   0  0  0  0  0  0  0  0  0  0  0  0
    0.8807    0.3554    3.8662 H   0  0  0  0  0  0  0  0  0  0  0  0
   -0.6582   -0.2308    4.5302 H   0  0  0  0  0  0  0  0  0  0  0  0
    0.6703   -1.3733    4.2377 H   0  0  0  0  0  0  0  0  0  0  0  0
  1  2  1  0  0  0  0
  2  3  1  0  0  0  0
  2  4  1  0  0  0  0
  2  5  1  0  0  0  0
  5  6  2  0  0  0  0
  5  7  1  0  0  0  0
  7  8  1  0  0  0  0
  7  9  1  0  0  0  0
  9 10  1  0  0  0  0
  9 11  1  0  0  0  0
  9 26  1  0  0  0  0
 11 12  1  0  0  0  0
 11 13  1  0  0  0  0
 11 14  1  0  0  0  0
 14 15  1  0  0  0  0
 14 16  1  0  0  0  0
 14 17  1  0  0  0  0
 17 18  1  0  0  0  0
 17 19  1  0  0  0  0
 17 20  1  0  0  0  0
 20 21  1  0  0  0  0
 20 22  1  0  0  0  0
 20 23  1  0  0  0  0
 23 24  1  0  0  0  0
 23 25  1  0  0  0  0
 26 27  2  0  0  0  0
 26 28  1  0  0  0  0
 28 29  1  0  0  0  0
 28 30  1  0  0  0  0
 30 31  1  0  0  0  0
 30 32  1  0  0  0  0
 30 33  1  0  0  0  0
M  END
$$$$

  -OEChem-03222214063D

 33 32  0     1  0  0  0  0  0999 V2000
   -2.7947   -4.9955    0.5002 H   0  0  0  0  0  0  0  0  0  0  0  0
   -2.8571   -3.9628    0.1453 C   0  0  0  0  0  0  0  0  0  0  0  0
   -3.6061   -3.4319    0.7374 H   0  0  0  0  0  0  0  0  0  0  0  0
   -3.1669   -3.9699   -0.9025 H   0  0  0  0  0  0  0  0  0  0  0  0
   -1.5087   -3.2816    0.2824 C   0  0  0  0  0  0  0  0  0  0  0  0
   -0.5549   -3.9026    0.7164 O   0  0  0  0  0  0  0  0  0  0  0  0
   -1.3740   -1.9558   -0.0775 N   0  0  0  0  0  0  0  0  0  0  0  0
   -2.2048   -1.4796   -0.4155 H   0  0  0  0  0  0  0  0  0  0  0  0
   -0.1225   -1.1865    0.0321 C   0  0  1  0  0  0  0  0  0  0  0  0
    0.6206   -1.7777   -0.5160 H   0  0  0  0  0  0  0  0  0  0  0  0
   -0.2353    0.1443   -0.7477 C   0  0  0  0  0  0  0  0  0  0  0  0
    0.7696    0.4053   -1.0965 H   0  0  0  0  0  0  0  0  0  0  0  0
   -0.8510   -0.0119   -1.6394 H   0  0  0  0  0  0  0  0  0  0  0  0
   -0.7726    1.3603    0.0303 C   0  0  0  0  0  0  0  0  0  0  0  0
   -0.0909    1.5836    0.8581 H   0  0  0  0  0  0  0  0  0  0  0  0
   -0.7708    2.2321   -0.6323 H   0  0  0  0  0  0  0  0  0  0  0  0
   -2.1937    1.1499    0.5784 C   0  0  0  0  0  0  0  0  0  0  0  0
   -2.2612    0.2316    1.1628 H   0  0  0  0  0  0  0  0  0  0  0  0
   -2.8925    1.0608   -0.2594 H   0  0  0  0  0  0  0  0  0  0  0  0
   -2.6060    2.3176    1.4672 C   0  0  0  0  0  0  0  0  0  0  0  0
   -1.9089    2.4108    2.3077 H   0  0  0  0  0  0  0  0  0  0  0  0
   -2.5821    3.2546    0.8997 H   0  0  0  0  0  0  0  0  0  0  0  0
   -3.9596    2.0574    1.9668 N   0  0  0  0  0  0  0  0  0  0  0  0
   -4.2479    2.7734    2.6348 H   0  0  0  0  0  0  0  0  0  0  0  0
   -4.6273    1.9919    1.1986 H   0  0  0  0  0  0  0  0  0  0  0  0
    0.4861   -1.0482    1.4494 C   0  0  0  0  0  0  0  0  0  0  0  0
    1.7018   -0.9685    1.5690 O   0  0  0  0  0  0  0  0  0  0  0  0
   -0.3012   -0.7397    2.5448 N   0  0  0  0  0  0  0  0  0  0  0  0
   -1.3070   -0.7969    2.4205 H   0  0  0  0  0  0  0  0  0  0  0  0
    0.2339   -0.4866    3.8758 C   0  0  0  0  0  0  0  0  0  0  0  0
    0.8981    0.3837    3.8614 H   0  0  0  0  0  0  0  0  0  0  0  0
   -0.5808   -0.2880    4.5785 H   0  0  0  0  0  0  0  0  0  0  0  0
    0.7967   -1.3551    4.2333 H   0  0  0  0  0  0  0  0  0  0  0  0
  1  2  1  0  0  0  0
  2  3  1  0  0  0  0
  2  4  1  0  0  0  0
  2  5  1  0  0  0  0
  5  6  2  0  0  0  0
  5  7  1  0  0  0  0
  7  8  1  0  0  0  0
  7  9  1  0  0  0  0
  9 10  1  0  0  0  0
  9 11  1  0  0  0  0
  9 26  1  0  0  0  0
 11 12  1  0  0  0  0
 11 13  1  0  0  0  0
 11 14  1  0  0  0  0
 14 15  1  0  0  0  0
 14 16  1  0  0  0  0
 14 17  1  0  0  0  0
 17 18  1  0  0  0  0
 17 19  1  0  0  0  0
 17 20  1  0  0  0  0
 20 21  1  0  0  0  0
 20 22  1  0  0  0  0
 20 23  1  0  0  0  0
 23 24  1  0  0  0  0
 23 25  1  0  0  0  0
 26 27  2  0  0  0  0
 26 28  1  0  0  0  0
 28 29  1  0  0  0  0
 28 30  1  0  0  0  0
 30 31  1  0  0  0  0
 30 32  1  0  0  0  0
 30 33  1  0  0  0  0
M  END
$$$$

  -OEChem-03222214063D

 33 32  0     1  0  0  0  0  0999 V2000
   -2.9479   -4.9839    0.1877 H   0  0  0  0  0  0  0  0  0  0  0  0
   -2.9529   -3.9325   -0.1134 C   0  0  0  0  0  0  0  0  0  0  0  0
   -3.7351   -3.4111    0.4437 H   0  0  0  0  0  0  0  0  0  0  0  0
   -3.1733   -3.8743   -1.1820 H   0  0  0  0  0  0  0  0  0  0  0  0
   -1.6035   -3.3015    0.1729 C   0  0  0  0  0  0  0  0  0  0  0  0
   -0.7141   -3.9688    0.6701 O   0  0  0  0  0  0  0  0  0  0  0  0
   -1.3959   -1.9687   -0.1208 N   0  0  0  0  0  0  0  0  0  0  0  0
   -2.1790   -1.4505   -0.5073 H   0  0  0  0  0  0  0  0  0  0  0  0
   -0.1353   -1.2485    0.1288 C   0  0  1  0  0  0  0  0  0  0  0  0
    0.6212   -1.8750   -0.3585 H   0  0  0  0  0  0  0  0  0  0  0  0
   -0.0796    0.0831   -0.6564 C   0  0  0  0  0  0  0  0  0  0  0  0
    0.9703    0.2824   -0.8971 H   0  0  0  0  0  0  0  0  0  0  0  0
   -0.6008   -0.0571   -1.6088 H   0  0  0  0  0  0  0  0  0  0  0  0
   -0.6383    1.3516    0.0218 C   0  0  0  0  0  0  0  0  0  0  0  0
    0.0977    1.6578    0.7735 H   0  0  0  0  0  0  0  0  0  0  0  0
   -0.7015    2.1599   -0.7138 H   0  0  0  0  0  0  0  0  0  0  0  0
   -2.0026    1.1896    0.7211 C   0  0  0  0  0  0  0  0  0  0  0  0
   -2.1324    0.2004    1.1526 H   0  0  0  0  0  0  0  0  0  0  0  0
   -2.7931    1.3109   -0.0262 H   0  0  0  0  0  0  0  0  0  0  0  0
   -2.1821    2.2256    1.8257 C   0  0  0  0  0  0  0  0  0  0  0  0
   -1.3959    2.1091    2.5804 H   0  0  0  0  0  0  0  0  0  0  0  0
   -2.1111    3.2381    1.4130 H   0  0  0  0  0  0  0  0  0  0  0  0
   -3.4958    2.0128    2.4406 N   0  0  0  0  0  0  0  0  0  0  0  0
   -3.6333    2.6371    3.2364 H   0  0  0  0  0  0  0  0  0  0  0  0
   -4.2432    2.1314    1.7567 H   0  0  0  0  0  0  0  0  0  0  0  0
    0.3837   -1.1619    1.5879 C   0  0  0  0  0  0  0  0  0  0  0  0
    1.5929   -1.1299    1.7788 O   0  0  0  0  0  0  0  0  0  0  0  0
   -0.4460   -0.8572    2.6526 N   0  0  0  0  0  0  0  0  0  0  0  0
   -1.4451   -0.8414    2.4722 H   0  0  0  0  0  0  0  0  0  0  0  0
    0.0281   -0.6417    4.0134 C   0  0  0  0  0  0  0  0  0  0  0  0
    0.7283    0.1995    4.0468 H   0  0  0  0  0  0  0  0  0  0  0  0
   -0.8140   -0.4162    4.6746 H   0  0  0  0  0  0  0  0  0  0  0  0
    0.5339   -1.5377    4.3883 H   0  0  0  0  0  0  0  0  0  0  0  0
  1  2  1  0  0  0  0
  2  3  1  0  0  0  0
  2  4  1  0  0  0  0
  2  5  1  0  0  0  0
  5  6  2  0  0  0  0
  5  7  1  0  0  0  0
  7  8  1  0  0  0  0
  7  9  1  0  0  0  0
  9 10  1  0  0  0  0
  9 11  1  0  0  0  0
  9 26  1  0  0  0  0
 11 12  1  0  0  0  0
 11 13  1  0  0  0  0
 11 14  1  0  0  0  0
 14 15  1  0  0  0  0
 14 16  1  0  0  0  0
 14 17  1  0  0  0  0
 17 18  1  0  0  0  0
 17 19  1  0  0  0  0
 17 20  1  0  0  0  0
 20 21  1  0  0  0  0
 20 22  1  0  0  0  0
 20 23  1  0  0  0  0
 23 24  1  0  0  0  0
 23 25  1  0  0  0  0
 26 27  2  0  0  0  0
 26 28  1  0  0  0  0
 28 29  1  0  0  0  0
 28 30  1  0  0  0  0
 30 31  1  0  0  0  0
 30 32  1  0  0  0  0
 30 33  1  0  0  0  0
M  END
$$$$

  -OEChem-03222214063D

 33 32  0     1  0  0  0  0  0999 V2000
   -2.6283   -5.1463    0.3288 H   0  0  0  0  0  0  0  0  0  0  0  0
   -2.7473   -4.1012    0.0282 C   0  0  0  0  0  0  0  0  0  0  0  0
   -3.5292   -3.6464    0.6409 H   0  0  0  0  0  0  0  0  0  0  0  0
   -3.0492   -4.0692   -1.0214 H   0  0  0  0  0  0  0  0  0  0  0  0
   -1.4411   -3.3531    0.2149 C   0  0  0  0  0  0  0  0  0  0  0  0
   -0.4613   -3.9397    0.6387 O   0  0  0  0  0  0  0  0  0  0  0  0
   -1.3753   -2.0079   -0.0893 N   0  0  0  0  0  0  0  0  0  0  0  0
   -2.2298   -1.5629   -0.4100 H   0  0  0  0  0  0  0  0  0  0  0  0
   -0.1787   -1.1699    0.0996 C   0  0  1  0  0  0  0  0  0  0  0  0
    0.6091   -1.7468   -0.3996 H   0  0  0  0  0  0  0  0  0  0  0  0
   -0.2504    0.1240   -0.7473 C   0  0  0  0  0  0  0  0  0  0  0  0
    0.7746    0.3850   -1.0331 H   0  0  0  0  0  0  0  0  0  0  0  0
   -0.7779   -0.1225   -1.6744 H   0  0  0  0  0  0  0  0  0  0  0  0
   -0.8951    1.4070   -0.1709 C   0  0  0  0  0  0  0  0  0  0  0  0
   -0.0880    1.9691    0.3112 H   0  0  0  0  0  0  0  0  0  0  0  0
   -1.2519    2.0258   -1.0006 H   0  0  0  0  0  0  0  0  0  0  0  0
   -2.0360    1.2349    0.8531 C   0  0  0  0  0  0  0  0  0  0  0  0
   -2.1844    0.1899    1.1189 H   0  0  0  0  0  0  0  0  0  0  0  0
   -2.9702    1.5620    0.3858 H   0  0  0  0  0  0  0  0  0  0  0  0
   -1.8092    2.0616    2.1176 C   0  0  0  0  0  0  0  0  0  0  0  0
   -0.8220    1.8500    2.5421 H   0  0  0  0  0  0  0  0  0  0  0  0
   -1.8502    3.1308    1.8817 H   0  0  0  0  0  0  0  0  0  0  0  0
   -2.8531    1.7053    3.0840 N   0  0  0  0  0  0  0  0  0  0  0  0
   -2.7011    2.1778    3.9760 H   0  0  0  0  0  0  0  0  0  0  0  0
   -3.7799    1.9213    2.7162 H   0  0  0  0  0  0  0  0  0  0  0  0
    0.3921   -1.0316    1.5347 C   0  0  0  0  0  0  0  0  0  0  0  0
    1.6036   -0.9234    1.6770 O   0  0  0  0  0  0  0  0  0  0  0  0
   -0.4100   -0.8050    2.6387 N   0  0  0  0  0  0  0  0  0  0  0  0
   -1.4140   -0.7617    2.4885 H   0  0  0  0  0  0  0  0  0  0  0  0
    0.1060   -0.5839    3.9830 C   0  0  0  0  0  0  0  0  0  0  0  0
    0.7563    0.2964    4.0059 H   0  0  0  0  0  0  0  0  0  0  0  0
   -0.7213   -0.4212    4.6804 H   0  0  0  0  0  0  0  0  0  0  0  0
    0.6774   -1.4548    4.3204 H   0  0  0  0  0  0  0  0  0  0  0  0
  1  2  1  0  0  0  0
  2  3  1  0  0  0  0
  2  4  1  0  0  0  0
  2  5  1  0  0  0  0
  5  6  2  0  0  0  0
  5  7  1  0  0  0  0
  7  8  1  0  0  0  0
  7  9  1  0  0  0  0
  9 10  1  0  0  0  0
  9 11  1  0  0  0  0
  9 26  1  0  0  0  0
 11 12  1  0  0  0  0
 11 13  1  0  0  0  0
 11 14  1  0  0  0  0
 14 15  1  0  0  0  0
 14 16  1  0  0  0  0
 14 17  1  0  0  0  0
 17 18  1  0  0  0  0
 17 19  1  0  0  0  0
 17 20  1  0  0  0  0
 20 21  1  0  0  0  0
 20 22  1  0  0  0  0
 20 23  1  0  0  0  0
 23 24  1  0  0  0  0
 23 25  1  0  0  0  0
 26 27  2  0  0  0  0
 26 28  1  0  0  0  0
 28 29  1  0  0  0  0
 28 30  1  0  0  0  0
 30 31  1  0  0  0  0
 30 32  1  0  0  0  0
 30 33  1  0  0  0  0
M  END
$$$$

  -OEChem-03222214063D

 33 32  0     1  0  0  0  0  0999 V2000
   -2.8298   -5.0566   -0.0025 H   0  0  0  0  0  0  0  0  0  0  0  0
   -2.8779   -3.9864   -0.2230 C   0  0  0  0  0  0  0  0  0  0  0  0
   -3.6802   -3.5411    0.3701 H   0  0  0  0  0  0  0  0  0  0  0  0
   -3.1008   -3.8562   -1.2847 H   0  0  0  0  0  0  0  0  0  0  0  0
   -1.5548   -3.3251    0.1138 C   0  0  0  0  0  0  0  0  0  0  0  0
   -0.6459   -3.9908    0.5771 O   0  0  0  0  0  0  0  0  0  0  0  0
   -1.3934   -1.9708   -0.1040 N   0  0  0  0  0  0  0  0  0  0  0  0
   -2.1942   -1.4617   -0.4646 H   0  0  0  0  0  0  0  0  0  0  0  0
   -0.1770   -1.2117    0.2335 C   0  0  1  0  0  0  0  0  0  0  0  0
    0.6161   -1.8321   -0.2013 H   0  0  0  0  0  0  0  0  0  0  0  0
   -0.0626    0.0811   -0.6131 C   0  0  0  0  0  0  0  0  0  0  0  0
    1.0078    0.2627   -0.7599 H   0  0  0  0  0  0  0  0  0  0  0  0
   -0.4718   -0.1466   -1.6028 H   0  0  0  0  0  0  0  0  0  0  0  0
   -0.6722    1.4330   -0.1630 C   0  0  0  0  0  0  0  0  0  0  0  0
    0.1549    2.0926    0.1216 H   0  0  0  0  0  0  0  0  0  0  0  0
   -1.1373    1.8900   -1.0427 H   0  0  0  0  0  0  0  0  0  0  0  0
   -1.7099    1.4366    0.9722 C   0  0  0  0  0  0  0  0  0  0  0  0
   -2.0867    0.4307    1.1610 H   0  0  0  0  0  0  0  0  0  0  0  0
   -2.5712    2.0290    0.6470 H   0  0  0  0  0  0  0  0  0  0  0  0
   -1.1683    2.0701    2.2527 C   0  0  0  0  0  0  0  0  0  0  0  0
   -0.2254    1.5990    2.5477 H   0  0  0  0  0  0  0  0  0  0  0  0
   -0.9671    3.1346    2.0895 H   0  0  0  0  0  0  0  0  0  0  0  0
   -2.1777    1.8986    3.3036 N   0  0  0  0  0  0  0  0  0  0  0  0
   -1.8317    2.2422    4.2002 H   0  0  0  0  0  0  0  0  0  0  0  0
   -3.0495    2.3646    3.0521 H   0  0  0  0  0  0  0  0  0  0  0  0
    0.2637   -1.1892    1.7189 C   0  0  0  0  0  0  0  0  0  0  0  0
    1.4607   -1.1735    1.9782 O   0  0  0  0  0  0  0  0  0  0  0  0
   -0.6259   -0.9829    2.7573 N   0  0  0  0  0  0  0  0  0  0  0  0
   -1.5952   -0.8004    2.5155 H   0  0  0  0  0  0  0  0  0  0  0  0
   -0.2253   -0.8862    4.1551 C   0  0  0  0  0  0  0  0  0  0  0  0
    0.4508   -0.0383    4.3044 H   0  0  0  0  0  0  0  0  0  0  0  0
   -1.1057   -0.7429    4.7887 H   0  0  0  0  0  0  0  0  0  0  0  0
    0.2829   -1.8034    4.4705 H   0  0  0  0  0  0  0  0  0  0  0  0
  1  2  1  0  0  0  0
  2  3  1  0  0  0  0
  2  4  1  0  0  0  0
  2  5  1  0  0  0  0
  5  6  2  0  0  0  0
  5  7  1  0  0  0  0
  7  8  1  0  0  0  0
  7  9  1  0  0  0  0
  9 10  1  0  0  0  0
  9 11  1  0  0  0  0
  9 26  1  0  0  0  0
 11 12  1  0  0  0  0
 11 13  1  0  0  0  0
 11 14  1  0  0  0  0
 14 15  1  0  0  0  0
 14 16  1  0  0  0  0
 14 17  1  0  0  0  0
 17 18  1  0  0  0  0
 17 19  1  0  0  0  0
 17 20  1  0  0  0  0
 20 21  1  0  0  0  0
 20 22  1  0  0  0  0
 20 23  1  0  0  0  0
 23 24  1  0  0  0  0
 23 25  1  0  0  0  0
 26 27  2  0  0  0  0
 26 28  1  0  0  0  0
 28 29  1  0  0  0  0
 28 30  1  0  0  0  0
 30 31  1  0  0  0  0
 30 32  1  0  0  0  0
 30 33  1  0  0  0  0
M  END
$$$$

  -OEChem-03222214063D

 33 32  0     1  0  0  0  0  0999 V2000
   -2.4042   -5.2652    0.2619 H   0  0  0  0  0  0  0  0  0  0  0  0
   -2.5734   -4.2226   -0.0224 C   0  0  0  0  0  0  0  0  0  0  0  0
   -3.4592   -3.8550    0.5010 H   0  0  0  0  0  0  0  0  0  0  0  0
   -2.7485   -4.1775   -1.1000 H   0  0  0  0  0  0  0  0  0  0  0  0
   -1.3661   -3.3798    0.3438 C   0  0  0  0  0  0  0  0  0  0  0  0
   -0.4192   -3.8920    0.9137 O   0  0  0  0  0  0  0  0  0  0  0  0
   -1.3576   -2.0296    0.0523 N   0  0  0  0  0  0  0  0  0  0  0  0
   -2.1682   -1.6580   -0.4340 H   0  0  0  0  0  0  0  0  0  0  0  0
   -0.2150   -1.1287    0.2860 C   0  0  1  0  0  0  0  0  0  0  0  0
    0.6223   -1.6897   -0.1472 H   0  0  0  0  0  0  0  0  0  0  0  0
   -0.2776    0.1055   -0.6534 C   0  0  0  0  0  0  0  0  0  0  0  0
    0.7670    0.3858   -0.8287 H   0  0  0  0  0  0  0  0  0  0  0  0
   -0.6654   -0.2341   -1.6197 H   0  0  0  0  0  0  0  0  0  0  0  0
   -1.0012    1.4318   -0.3014 C   0  0  0  0  0  0  0  0  0  0  0  0
   -0.2922    2.2582   -0.4228 H   0  0  0  0  0  0  0  0  0  0  0  0
   -1.7680    1.5746   -1.0701 H   0  0  0  0  0  0  0  0  0  0  0  0
   -1.7137    1.5829    1.0466 C   0  0  0  0  0  0  0  0  0  0  0  0
   -2.5837    2.2334    0.9084 H   0  0  0  0  0  0  0  0  0  0  0  0
   -2.0991    0.6221    1.3891 H   0  0  0  0  0  0  0  0  0  0  0  0
   -0.8091    2.2488    2.0860 C   0  0  0  0  0  0  0  0  0  0  0  0
    0.1440    1.7177    2.1749 H   0  0  0  0  0  0  0  0  0  0  0  0
   -0.5864    3.2760    1.7769 H   0  0  0  0  0  0  0  0  0  0  0  0
   -1.5090    2.2579    3.3734 N   0  0  0  0  0  0  0  0  0  0  0  0
   -0.9803    2.7850    4.0686 H   0  0  0  0  0  0  0  0  0  0  0  0
   -1.6693    1.3037    3.6948 H   0  0  0  0  0  0  0  0  0  0  0  0
    0.2732   -0.9952    1.7495 C   0  0  0  0  0  0  0  0  0  0  0  0
    1.4604   -0.7810    1.9597 O   0  0  0  0  0  0  0  0  0  0  0  0
   -0.6115   -0.8398    2.8024 N   0  0  0  0  0  0  0  0  0  0  0  0
   -1.5743   -1.0957    2.6079 H   0  0  0  0  0  0  0  0  0  0  0  0
   -0.1728   -0.7785    4.1917 C   0  0  0  0  0  0  0  0  0  0  0  0
    0.4651    0.0966    4.3547 H   0  0  0  0  0  0  0  0  0  0  0  0
   -1.0369   -0.7048    4.8586 H   0  0  0  0  0  0  0  0  0  0  0  0
    0.3922   -1.6791    4.4541 H   0  0  0  0  0  0  0  0  0  0  0  0
  1  2  1  0  0  0  0
  2  3  1  0  0  0  0
  2  4  1  0  0  0  0
  2  5  1  0  0  0  0
  5  6  2  0  0  0  0
  5  7  1  0  0  0  0
  7  8  1  0  0  0  0
  7  9  1  0  0  0  0
  9 10  1  0  0  0  0
  9 11  1  0  0  0  0
  9 26  1  0  0  0  0
 11 12  1  0  0  0  0
 11 13  1  0  0  0  0
 11 14  1  0  0  0  0
 14 15  1  0  0  0  0
 14 16  1  0  0  0  0
 14 17  1  0  0  0  0
 17 18  1  0  0  0  0
 17 19  1  0  0  0  0
 17 20  1  0  0  0  0
 20 21  1  0  0  0  0
 20 22  1  0  0  0  0
 20 23  1  0  0  0  0
 23 24  1  0  0  0  0
 23 25  1  0  0  0  0
 26 27  2  0  0  0  0
 26 28  1  0  0  0  0
 28 29  1  0  0  0  0
 28 30  1  0  0  0  0
 30 31  1  0  0  0  0
 30 32  1  0  0  0  0
 30 33  1  0  0  0  0
M  END
$$$$

  -OEChem-03222214063D

 33 32  0     1  0  0  0  0  0999 V2000
   -3.2405   -4.5997    0.6699 H   0  0  0  0  0  0  0  0  0  0  0  0
   -3.1877   -3.5492    0.3698 C   0  0  0  0  0  0  0  0  0  0  0  0
   -3.8162   -2.9605    1.0421 H   0  0  0  0  0  0  0  0  0  0  0  0
   -3.5666   -3.4555   -0.6507 H   0  0  0  0  0  0  0  0  0  0  0  0
   -1.7530   -3.0601    0.4363 C   0  0  0  0  0  0  0  0  0  0  0  0
   -0.8597   -3.8423    0.7068 O   0  0  0  0  0  0  0  0  0  0  0  0
   -1.4735   -1.7324    0.1775 N   0  0  0  0  0  0  0  0  0  0  0  0
   -2.2592   -1.1324   -0.0496 H   0  0  0  0  0  0  0  0  0  0  0  0
   -0.1267   -1.1375    0.2274 C   0  0  1  0  0  0  0  0  0  0  0  0
    0.4606   -1.8561   -0.3577 H   0  0  0  0  0  0  0  0  0  0  0  0
   -0.0452    0.1225   -0.6771 C   0  0  0  0  0  0  0  0  0  0  0  0
    1.0004    0.1629   -1.0026 H   0  0  0  0  0  0  0  0  0  0  0  0
   -0.6367   -0.0681   -1.5784 H   0  0  0  0  0  0  0  0  0  0  0  0
   -0.3727    1.5623   -0.1938 C   0  0  0  0  0  0  0  0  0  0  0  0
    0.3993    2.2202   -0.6072 H   0  0  0  0  0  0  0  0  0  0  0  0
   -1.3166    1.8648   -0.6595 H   0  0  0  0  0  0  0  0  0  0  0  0
   -0.4738    1.8700    1.3030 C   0  0  0  0  0  0  0  0  0  0  0  0
   -0.3716    2.9500    1.4476 H   0  0  0  0  0  0  0  0  0  0  0  0
    0.3558    1.4126    1.8422 H   0  0  0  0  0  0  0  0  0  0  0  0
   -1.8414    1.4539    1.8545 C   0  0  0  0  0  0  0  0  0  0  0  0
   -2.5987    2.1774    1.5324 H   0  0  0  0  0  0  0  0  0  0  0  0
   -2.1361    0.4754    1.4682 H   0  0  0  0  0  0  0  0  0  0  0  0
   -1.7831    1.3967    3.3161 N   0  0  0  0  0  0  0  0  0  0  0  0
   -1.3498    2.2405    3.6958 H   0  0  0  0  0  0  0  0  0  0  0  0
   -2.7104    1.2562    3.7201 H   0  0  0  0  0  0  0  0  0  0  0  0
    0.6499   -1.1920    1.5699 C   0  0  0  0  0  0  0  0  0  0  0  0
    1.8606   -1.3766    1.5310 O   0  0  0  0  0  0  0  0  0  0  0  0
    0.0783   -0.8961    2.7960 N   0  0  0  0  0  0  0  0  0  0  0  0
   -0.8256   -0.4246    2.7828 H   0  0  0  0  0  0  0  0  0  0  0  0
    0.8556   -0.8175    4.0264 C   0  0  0  0  0  0  0  0  0  0  0  0
    1.5879   -0.0058    3.9657 H   0  0  0  0  0  0  0  0  0  0  0  0
    0.1942   -0.6272    4.8768 H   0  0  0  0  0  0  0  0  0  0  0  0
    1.3853   -1.7592    4.2058 H   0  0  0  0  0  0  0  0  0  0  0  0
  1  2  1  0  0  0  0
  2  3  1  0  0  0  0
  2  4  1  0  0  0  0
  2  5  1  0  0  0  0
  5  6  2  0  0  0  0
  5  7  1  0  0  0  0
  7  8  1  0  0  0  0
  7  9  1  0  0  0  0
  9 10  1  0  0  0  0
  9 11  1  0  0  0  0
  9 26  1  0  0  0  0
 11 12  1  0  0  0  0
 11 13  1  0  0  0  0
 11 14  1  0  0  0  0
 14 15  1  0  0  0  0
 14 16  1  0  0  0  0
 14 17  1  0  0  0  0
 17 18  1  0  0  0  0
 17 19  1  0  0  0  0
 17 20  1  0  0  0  0
 20 21  1  0  0  0  0
 20 22  1  0  0  0  0
 20 23  1  0  0  0  0
 23 24  1  0  0  0  0
 23 25  1  0  0  0  0
 26 27  2  0  0  0  0
 26 28  1  0  0  0  0
 28 29  1  0  0  0  0
 28 30  1  0  0  0  0
 30 31  1  0  0  0  0
 30 32  1  0  0  0  0
 30 33  1  0  0  0  0
M  END
$$$$

  -OEChem-03222214063D

 33 32  0     1  0  0  0  0  0999 V2000
   -3.3004   -4.5701    0.6622 H   0  0  0  0  0  0  0  0  0  0  0  0
   -3.2242   -3.5382    0.3074 C   0  0  0  0  0  0  0  0  0  0  0  0
   -3.9382   -2.9237    0.8606 H   0  0  0  0  0  0  0  0  0  0  0  0
   -3.4764   -3.5129   -0.7555 H   0  0  0  0  0  0  0  0  0  0  0  0
   -1.8150   -3.0172    0.5182 C   0  0  0  0  0  0  0  0  0  0  0  0
   -0.9618   -3.7500    0.9848 O   0  0  0  0  0  0  0  0  0  0  0  0
   -1.5137   -1.7067    0.2008 N   0  0  0  0  0  0  0  0  0  0  0  0
   -2.2504   -1.1646   -0.2403 H   0  0  0  0  0  0  0  0  0  0  0  0
   -0.1537   -1.1382    0.2194 C   0  0  1  0  0  0  0  0  0  0  0  0
    0.4213   -1.8899   -0.3353 H   0  0  0  0  0  0  0  0  0  0  0  0
   -0.0569    0.0849   -0.7332 C   0  0  0  0  0  0  0  0  0  0  0  0
    0.9884    0.0951   -1.0616 H   0  0  0  0  0  0  0  0  0  0  0  0
   -0.6560   -0.1266   -1.6249 H   0  0  0  0  0  0  0  0  0  0  0  0
   -0.3494    1.5464   -0.3067 C   0  0  0  0  0  0  0  0  0  0  0  0
    0.2508    2.1897   -0.9592 H   0  0  0  0  0  0  0  0  0  0  0  0
   -1.3966    1.7598   -0.5446 H   0  0  0  0  0  0  0  0  0  0  0  0
   -0.0910    1.9959    1.1357 C   0  0  0  0  0  0  0  0  0  0  0  0
    0.2098    3.0486    1.1241 H   0  0  0  0  0  0  0  0  0  0  0  0
    0.7441    1.4433    1.5697 H   0  0  0  0  0  0  0  0  0  0  0  0
   -1.3563    1.8907    1.9880 C   0  0  0  0  0  0  0  0  0  0  0  0
   -2.1019    2.6139    1.6392 H   0  0  0  0  0  0  0  0  0  0  0  0
   -1.7962    0.8929    1.9005 H   0  0  0  0  0  0  0  0  0  0  0  0
   -1.0015    2.1726    3.3804 N   0  0  0  0  0  0  0  0  0  0  0  0
   -1.8063    2.0833    3.9998 H   0  0  0  0  0  0  0  0  0  0  0  0
   -0.2318    1.5738    3.6853 H   0  0  0  0  0  0  0  0  0  0  0  0
    0.6085   -1.1633    1.5678 C   0  0  0  0  0  0  0  0  0  0  0  0
    1.8258   -1.2931    1.5551 O   0  0  0  0  0  0  0  0  0  0  0  0
    0.0034   -0.8064    2.7594 N   0  0  0  0  0  0  0  0  0  0  0  0
   -1.0108   -0.8004    2.7558 H   0  0  0  0  0  0  0  0  0  0  0  0
    0.6961   -0.8653    4.0410 C   0  0  0  0  0  0  0  0  0  0  0  0
    1.5745   -0.2111    4.0336 H   0  0  0  0  0  0  0  0  0  0  0  0
    0.0312   -0.5391    4.8461 H   0  0  0  0  0  0  0  0  0  0  0  0
    1.0215   -1.8895    4.2522 H   0  0  0  0  0  0  0  0  0  0  0  0
  1  2  1  0  0  0  0
  2  3  1  0  0  0  0
  2  4  1  0  0  0  0
  2  5  1  0  0  0  0
  5  6  2  0  0  0  0
  5  7  1  0  0  0  0
  7  8  1  0  0  0  0
  7  9  1  0  0  0  0
  9 10  1  0  0  0  0
  9 11  1  0  0  0  0
  9 26  1  0  0  0  0
 11 12  1  0  0  0  0
 11 13  1  0  0  0  0
 11 14  1  0  0  0  0
 14 15  1  0  0  0  0
 14 16  1  0  0  0  0
 14 17  1  0  0  0  0
 17 18  1  0  0  0  0
 17 19  1  0  0  0  0
 17 20  1  0  0  0  0
 20 21  1  0  0  0  0
 20 22  1  0  0  0  0
 20 23  1  0  0  0  0
 23 24  1  0  0  0  0
 23 25  1  0  0  0  0
 26 27  2  0  0  0  0
 26 28  1  0  0  0  0
 28 29  1  0  0  0  0
 28 30  1  0  0  0  0
 30 31  1  0  0  0  0
 30 32  1  0  0  0  0
 30 33  1  0  0  0  0
M  END
$$$$

  -OEChem-03222214063D

 33 32  0     1  0  0  0  0  0999 V2000
   -3.3330   -4.5658    0.4850 H   0  0  0  0  0  0  0  0  0  0  0  0
   -3.2277   -3.5280    0.1561 C   0  0  0  0  0  0  0  0  0  0  0  0
   -3.9474   -2.9123    0.7005 H   0  0  0  0  0  0  0  0  0  0  0  0
   -3.4465   -3.4751   -0.9131 H   0  0  0  0  0  0  0  0  0  0  0  0
   -1.8166   -3.0381    0.4217 C   0  0  0  0  0  0  0  0  0  0  0  0
   -1.0077   -3.7794    0.9494 O   0  0  0  0  0  0  0  0  0  0  0  0
   -1.4633   -1.7480    0.0758 N   0  0  0  0  0  0  0  0  0  0  0  0
   -2.1639   -1.1995   -0.4133 H   0  0  0  0  0  0  0  0  0  0  0  0
   -0.0953   -1.2043    0.1626 C   0  0  1  0  0  0  0  0  0  0  0  0
    0.5195   -1.9505   -0.3547 H   0  0  0  0  0  0  0  0  0  0  0  0
    0.0157    0.0421   -0.7598 C   0  0  0  0  0  0  0  0  0  0  0  0
    1.0644    0.0668   -1.0760 H   0  0  0  0  0  0  0  0  0  0  0  0
   -0.5738   -0.1458   -1.6630 H   0  0  0  0  0  0  0  0  0  0  0  0
   -0.2916    1.4862   -0.2913 C   0  0  0  0  0  0  0  0  0  0  0  0
    0.0808    2.1620   -1.0686 H   0  0  0  0  0  0  0  0  0  0  0  0
   -1.3803    1.5989   -0.2815 H   0  0  0  0  0  0  0  0  0  0  0  0
    0.2597    1.9845    1.0554 C   0  0  0  0  0  0  0  0  0  0  0  0
    0.8006    2.9198    0.8786 H   0  0  0  0  0  0  0  0  0  0  0  0
    0.9934    1.2912    1.4660 H   0  0  0  0  0  0  0  0  0  0  0  0
   -0.8530    2.2789    2.0617 C   0  0  0  0  0  0  0  0  0  0  0  0
   -1.4827    3.0965    1.6934 H   0  0  0  0  0  0  0  0  0  0  0  0
   -1.4915    1.4011    2.1973 H   0  0  0  0  0  0  0  0  0  0  0  0
   -0.2344    2.6579    3.3338 N   0  0  0  0  0  0  0  0  0  0  0  0
   -0.9342    2.8190    4.0571 H   0  0  0  0  0  0  0  0  0  0  0  0
    0.4447    1.9550    3.6291 H   0  0  0  0  0  0  0  0  0  0  0  0
    0.5355   -1.2085    1.5747 C   0  0  0  0  0  0  0  0  0  0  0  0
    1.7426   -1.3750    1.6922 O   0  0  0  0  0  0  0  0  0  0  0  0
   -0.1867   -0.7970    2.6802 N   0  0  0  0  0  0  0  0  0  0  0  0
   -1.1943   -0.7783    2.5670 H   0  0  0  0  0  0  0  0  0  0  0  0
    0.3638   -0.8146    4.0297 C   0  0  0  0  0  0  0  0  0  0  0  0
    1.2543   -0.1799    4.0895 H   0  0  0  0  0  0  0  0  0  0  0  0
   -0.3748   -0.4393    4.7445 H   0  0  0  0  0  0  0  0  0  0  0  0
    0.6390   -1.8352    4.3164 H   0  0  0  0  0  0  0  0  0  0  0  0
  1  2  1  0  0  0  0
  2  3  1  0  0  0  0
  2  4  1  0  0  0  0
  2  5  1  0  0  0  0
  5  6  2  0  0  0  0
  5  7  1  0  0  0  0
  7  8  1  0  0  0  0
  7  9  1  0  0  0  0
  9 10  1  0  0  0  0
  9 11  1  0  0  0  0
  9 26  1  0  0  0  0
 11 12  1  0  0  0  0
 11 13  1  0  0  0  0
 11 14  1  0  0  0  0
 14 15  1  0  0  0  0
 14 16  1  0  0  0  0
 14 17  1  0  0  0  0
 17 18  1  0  0  0  0
 17 19  1  0  0  0  0
 17 20  1  0  0  0  0
 20 21  1  0  0  0  0
 20 22  1  0  0  0  0
 20 23  1  0  0  0  0
 23 24  1  0  0  0  0
 23 25  1  0  0  0  0
 26 27  2  0  0  0  0
 26 28  1  0  0  0  0
 28 29  1  0  0  0  0
 28 30  1  0  0  0  0
 30 31  1  0  0  0  0
 30 32  1  0  0  0  0
 30 33  1  0  0  0  0
M  END
$$$$

  -OEChem-03222214063D

 33 32  0     1  0  0  0  0  0999 V2000
   -2.9427   -4.9835    0.1787 H   0  0  0  0  0  0  0  0  0  0  0  0
   -2.9757   -3.9143   -0.0505 C   0  0  0  0  0  0  0  0  0  0  0  0
   -3.7274   -3.4420    0.5863 H   0  0  0  0  0  0  0  0  0  0  0  0
   -3.2619   -3.7882   -1.0975 H   0  0  0  0  0  0  0  0  0  0  0  0
   -1.6162   -3.2866    0.1948 C   0  0  0  0  0  0  0  0  0  0  0  0
   -0.6933   -3.9772    0.5869 O   0  0  0  0  0  0  0  0  0  0  0  0
   -1.4386   -1.9335   -0.0212 N   0  0  0  0  0  0  0  0  0  0  0  0
   -2.2327   -1.4195   -0.3899 H   0  0  0  0  0  0  0  0  0  0  0  0
   -0.1524   -1.2241    0.1161 C   0  0  1  0  0  0  0  0  0  0  0  0
    0.5534   -1.8021   -0.4924 H   0  0  0  0  0  0  0  0  0  0  0  0
   -0.2431    0.1442   -0.6092 C   0  0  0  0  0  0  0  0  0  0  0  0
    0.7681    0.3660   -0.9677 H   0  0  0  0  0  0  0  0  0  0  0  0
   -0.8660    0.0176   -1.5003 H   0  0  0  0  0  0  0  0  0  0  0  0
   -0.7208    1.4165    0.1242 C   0  0  0  0  0  0  0  0  0  0  0  0
   -0.7175    2.2260   -0.6134 H   0  0  0  0  0  0  0  0  0  0  0  0
   -1.7573    1.2751    0.4460 H   0  0  0  0  0  0  0  0  0  0  0  0
    0.1121    1.8605    1.3371 C   0  0  0  0  0  0  0  0  0  0  0  0
   -0.1902    1.3162    2.2299 H   0  0  0  0  0  0  0  0  0  0  0  0
    1.1734    1.6631    1.1517 H   0  0  0  0  0  0  0  0  0  0  0  0
   -0.0798    3.3509    1.6098 C   0  0  0  0  0  0  0  0  0  0  0  0
    0.2322    3.9392    0.7395 H   0  0  0  0  0  0  0  0  0  0  0  0
   -1.1374    3.5616    1.8027 H   0  0  0  0  0  0  0  0  0  0  0  0
    0.7295    3.7218    2.7738 N   0  0  0  0  0  0  0  0  0  0  0  0
    0.5906    4.6990    3.0299 H   0  0  0  0  0  0  0  0  0  0  0  0
    0.5447    3.1042    3.5641 H   0  0  0  0  0  0  0  0  0  0  0  0
    0.4725   -1.2992    1.5284 C   0  0  0  0  0  0  0  0  0  0  0  0
    1.6901   -1.3261    1.6493 O   0  0  0  0  0  0  0  0  0  0  0  0
   -0.3070   -1.1027    2.6551 N   0  0  0  0  0  0  0  0  0  0  0  0
   -1.3110   -1.1545    2.5239 H   0  0  0  0  0  0  0  0  0  0  0  0
    0.2320   -1.1407    4.0084 C   0  0  0  0  0  0  0  0  0  0  0  0
    1.0059   -0.3760    4.1339 H   0  0  0  0  0  0  0  0  0  0  0  0
   -0.5614   -0.9505    4.7374 H   0  0  0  0  0  0  0  0  0  0  0  0
    0.6695   -2.1226    4.2172 H   0  0  0  0  0  0  0  0  0  0  0  0
  1  2  1  0  0  0  0
  2  3  1  0  0  0  0
  2  4  1  0  0  0  0
  2  5  1  0  0  0  0
  5  6  2  0  0  0  0
  5  7  1  0  0  0  0
  7  8  1  0  0  0  0
  7  9  1  0  0  0  0
  9 10  1  0  0  0  0
  9 11  1  0  0  0  0
  9 26  1  0  0  0  0
 11 12  1  0  0  0  0
 11 13  1  0  0  0  0
 11 14  1  0  0  0  0
 14 15  1  0  0  0  0
 14 16  1  0  0  0  0
 14 17  1  0  0  0  0
 17 18  1  0  0  0  0
 17 19  1  0  0  0  0
 17 20  1  0  0  0  0
 20 21  1  0  0  0  0
 20 22  1  0  0  0  0
 20 23  1  0  0  0  0
 23 24  1  0  0  0  0
 23 25  1  0  0  0  0
 26 27  2  0  0  0  0
 26 28  1  0  0  0  0
 28 29  1  0  0  0  0
 28 30  1  0  0  0  0
 30 31  1  0  0  0  0
 30 32  1  0  0  0  0
 30 33  1  0  0  0  0
M  END
$$$$

  -OEChem-03222214063D

 33 32  0     1  0  0  0  0  0999 V2000
   -3.0317   -4.8550    0.4143 H   0  0  0  0  0  0  0  0  0  0  0  0
   -2.9968   -3.8299    0.0339 C   0  0  0  0  0  0  0  0  0  0  0  0
   -3.7771   -3.2456    0.5272 H   0  0  0  0  0  0  0  0  0  0  0  0
   -3.1878   -3.8480   -1.0420 H   0  0  0  0  0  0  0  0  0  0  0  0
   -1.6361   -3.2176    0.3085 C   0  0  0  0  0  0  0  0  0  0  0  0
   -0.7682   -3.8872    0.8379 O   0  0  0  0  0  0  0  0  0  0  0  0
   -1.3956   -1.9026   -0.0406 N   0  0  0  0  0  0  0  0  0  0  0  0
   -2.1386   -1.4202   -0.5367 H   0  0  0  0  0  0  0  0  0  0  0  0
   -0.0850   -1.2324    0.0698 C   0  0  1  0  0  0  0  0  0  0  0  0
    0.6258   -1.8600   -0.4802 H   0  0  0  0  0  0  0  0  0  0  0  0
   -0.1626    0.1039   -0.7155 C   0  0  0  0  0  0  0  0  0  0  0  0
    0.8388    0.3036   -1.1119 H   0  0  0  0  0  0  0  0  0  0  0  0
   -0.8144   -0.0432   -1.5826 H   0  0  0  0  0  0  0  0  0  0  0  0
   -0.6181    1.3851    0.0155 C   0  0  0  0  0  0  0  0  0  0  0  0
   -0.8785    2.1293   -0.7446 H   0  0  0  0  0  0  0  0  0  0  0  0
   -1.5278    1.1642    0.5828 H   0  0  0  0  0  0  0  0  0  0  0  0
    0.4284    2.0144    0.9539 C   0  0  0  0  0  0  0  0  0  0  0  0
    0.7221    1.3408    1.7560 H   0  0  0  0  0  0  0  0  0  0  0  0
    1.3289    2.2481    0.3763 H   0  0  0  0  0  0  0  0  0  0  0  0
   -0.1134    3.2961    1.5803 C   0  0  0  0  0  0  0  0  0  0  0  0
   -0.4412    3.9919    0.8002 H   0  0  0  0  0  0  0  0  0  0  0  0
   -0.9753    3.0647    2.2159 H   0  0  0  0  0  0  0  0  0  0  0  0
    0.9532    3.9097    2.3760 N   0  0  0  0  0  0  0  0  0  0  0  0
    0.6185    4.7306    2.8797 H   0  0  0  0  0  0  0  0  0  0  0  0
    1.3700    3.2319    3.0151 H   0  0  0  0  0  0  0  0  0  0  0  0
    0.4737   -1.1914    1.5096 C   0  0  0  0  0  0  0  0  0  0  0  0
    1.6813   -1.2637    1.6967 O   0  0  0  0  0  0  0  0  0  0  0  0
   -0.3529   -0.8481    2.5664 N   0  0  0  0  0  0  0  0  0  0  0  0
   -1.3498   -0.8907    2.3851 H   0  0  0  0  0  0  0  0  0  0  0  0
    0.1097   -0.8032    3.9475 C   0  0  0  0  0  0  0  0  0  0  0  0
    0.9377   -0.0941    4.0521 H   0  0  0  0  0  0  0  0  0  0  0  0
   -0.7018   -0.4836    4.6079 H   0  0  0  0  0  0  0  0  0  0  0  0
    0.4510   -1.7931    4.2682 H   0  0  0  0  0  0  0  0  0  0  0  0
  1  2  1  0  0  0  0
  2  3  1  0  0  0  0
  2  4  1  0  0  0  0
  2  5  1  0  0  0  0
  5  6  2  0  0  0  0
  5  7  1  0  0  0  0
  7  8  1  0  0  0  0
  7  9  1  0  0  0  0
  9 10  1  0  0  0  0
  9 11  1  0  0  0  0
  9 26  1  0  0  0  0
 11 12  1  0  0  0  0
 11 13  1  0  0  0  0
 11 14  1  0  0  0  0
 14 15  1  0  0  0  0
 14 16  1  0  0  0  0
 14 17  1  0  0  0  0
 17 18  1  0  0  0  0
 17 19  1  0  0  0  0
 17 20  1  0  0  0  0
 20 21  1  0  0  0  0
 20 22  1  0  0  0  0
 20 23  1  0  0  0  0
 23 24  1  0  0  0  0
 23 25  1  0  0  0  0
 26 27  2  0  0  0  0
 26 28  1  0  0  0  0
 28 29  1  0  0  0  0
 28 30  1  0  0  0  0
 30 31  1  0  0  0  0
 30 32  1  0  0  0  0
 30 33  1  0  0  0  0
M  END
$$$$

  -OEChem-03222214063D

 33 32  0     1  0  0  0  0  0999 V2000
   -2.9758   -4.8635    0.4538 H   0  0  0  0  0  0  0  0  0  0  0  0
   -2.9628   -3.8436    0.0582 C   0  0  0  0  0  0  0  0  0  0  0  0
   -3.7720   -3.2758    0.5236 H   0  0  0  0  0  0  0  0  0  0  0  0
   -3.1271   -3.8842   -1.0214 H   0  0  0  0  0  0  0  0  0  0  0  0
   -1.6281   -3.1868    0.3557 C   0  0  0  0  0  0  0  0  0  0  0  0
   -0.7762   -3.8011    0.9713 O   0  0  0  0  0  0  0  0  0  0  0  0
   -1.3905   -1.8947   -0.0712 N   0  0  0  0  0  0  0  0  0  0  0  0
   -2.1126   -1.4628   -0.6396 H   0  0  0  0  0  0  0  0  0  0  0  0
   -0.0905   -1.2064    0.0433 C   0  0  1  0  0  0  0  0  0  0  0  0
    0.6410   -1.8535   -0.4544 H   0  0  0  0  0  0  0  0  0  0  0  0
   -0.1527    0.0960   -0.7942 C   0  0  0  0  0  0  0  0  0  0  0  0
    0.8505    0.2999   -1.1841 H   0  0  0  0  0  0  0  0  0  0  0  0
   -0.7950   -0.0758   -1.6638 H   0  0  0  0  0  0  0  0  0  0  0  0
   -0.6464    1.3558   -0.0562 C   0  0  0  0  0  0  0  0  0  0  0  0
   -1.1359    2.0139   -0.7817 H   0  0  0  0  0  0  0  0  0  0  0  0
   -1.4007    1.0798    0.6866 H   0  0  0  0  0  0  0  0  0  0  0  0
    0.4955    2.1476    0.6018 C   0  0  0  0  0  0  0  0  0  0  0  0
    1.1169    1.4976    1.2213 H   0  0  0  0  0  0  0  0  0  0  0  0
    1.1373    2.5695   -0.1786 H   0  0  0  0  0  0  0  0  0  0  0  0
   -0.0544    3.2733    1.4712 C   0  0  0  0  0  0  0  0  0  0  0  0
   -0.7053    3.9272    0.8804 H   0  0  0  0  0  0  0  0  0  0  0  0
   -0.6455    2.8534    2.2926 H   0  0  0  0  0  0  0  0  0  0  0  0
    1.0743    4.0412    2.0028 N   0  0  0  0  0  0  0  0  0  0  0  0
    0.7608    4.7635    2.6506 H   0  0  0  0  0  0  0  0  0  0  0  0
    1.7577    3.4252    2.4453 H   0  0  0  0  0  0  0  0  0  0  0  0
    0.4433   -1.0502    1.4871 C   0  0  0  0  0  0  0  0  0  0  0  0
    1.6491   -1.0911    1.6952 O   0  0  0  0  0  0  0  0  0  0  0  0
   -0.3982   -0.6374    2.5057 N   0  0  0  0  0  0  0  0  0  0  0  0
   -1.3931   -0.7115    2.3231 H   0  0  0  0  0  0  0  0  0  0  0  0
    0.0544   -0.4295    3.8745 C   0  0  0  0  0  0  0  0  0  0  0  0
    0.8370    0.3358    3.9061 H   0  0  0  0  0  0  0  0  0  0  0  0
   -0.7777   -0.0966    4.5018 H   0  0  0  0  0  0  0  0  0  0  0  0
    0.4535   -1.3608    4.2901 H   0  0  0  0  0  0  0  0  0  0  0  0
  1  2  1  0  0  0  0
  2  3  1  0  0  0  0
  2  4  1  0  0  0  0
  2  5  1  0  0  0  0
  5  6  2  0  0  0  0
  5  7  1  0  0  0  0
  7  8  1  0  0  0  0
  7  9  1  0  0  0  0
  9 10  1  0  0  0  0
  9 11  1  0  0  0  0
  9 26  1  0  0  0  0
 11 12  1  0  0  0  0
 11 13  1  0  0  0  0
 11 14  1  0  0  0  0
 14 15  1  0  0  0  0
 14 16  1  0  0  0  0
 14 17  1  0  0  0  0
 17 18  1  0  0  0  0
 17 19  1  0  0  0  0
 17 20  1  0  0  0  0
 20 21  1  0  0  0  0
 20 22  1  0  0  0  0
 20 23  1  0  0  0  0
 23 24  1  0  0  0  0
 23 25  1  0  0  0  0
 26 27  2  0  0  0  0
 26 28  1  0  0  0  0
 28 29  1  0  0  0  0
 28 30  1  0  0  0  0
 30 31  1  0  0  0  0
 30 32  1  0  0  0  0
 30 33  1  0  0  0  0
M  END
$$$$

  -OEChem-03222214063D

 33 32  0     1  0  0  0  0  0999 V2000
   -2.9223   -4.9107    0.4131 H   0  0  0  0  0  0  0  0  0  0  0  0
   -2.9370   -3.8850    0.0334 C   0  0  0  0  0  0  0  0  0  0  0  0
   -3.7604   -3.3462    0.5080 H   0  0  0  0  0  0  0  0  0  0  0  0
   -3.1026   -3.9140   -1.0462 H   0  0  0  0  0  0  0  0  0  0  0  0
   -1.6196   -3.1968    0.3397 C   0  0  0  0  0  0  0  0  0  0  0  0
   -0.7565   -3.7904    0.9605 O   0  0  0  0  0  0  0  0  0  0  0  0
   -1.4132   -1.8951   -0.0738 N   0  0  0  0  0  0  0  0  0  0  0  0
   -2.1435   -1.4739   -0.6398 H   0  0  0  0  0  0  0  0  0  0  0  0
   -0.1315   -1.1774    0.0534 C   0  0  1  0  0  0  0  0  0  0  0  0
    0.6084   -1.8194   -0.4385 H   0  0  0  0  0  0  0  0  0  0  0  0
   -0.1734    0.1190   -0.7881 C   0  0  0  0  0  0  0  0  0  0  0  0
    0.8396    0.3215   -1.1535 H   0  0  0  0  0  0  0  0  0  0  0  0
   -0.7924   -0.0535   -1.6742 H   0  0  0  0  0  0  0  0  0  0  0  0
   -0.6965    1.3671   -0.0499 C   0  0  0  0  0  0  0  0  0  0  0  0
   -1.3807    1.9018   -0.7172 H   0  0  0  0  0  0  0  0  0  0  0  0
   -1.2756    1.0920    0.8344 H   0  0  0  0  0  0  0  0  0  0  0  0
    0.4464    2.3217    0.3171 C   0  0  0  0  0  0  0  0  0  0  0  0
    1.2103    1.7818    0.8863 H   0  0  0  0  0  0  0  0  0  0  0  0
    0.9143    2.7041   -0.5962 H   0  0  0  0  0  0  0  0  0  0  0  0
   -0.0664    3.4882    1.1543 C   0  0  0  0  0  0  0  0  0  0  0  0
   -0.8495    4.0286    0.6110 H   0  0  0  0  0  0  0  0  0  0  0  0
   -0.4952    3.1137    2.0905 H   0  0  0  0  0  0  0  0  0  0  0  0
    1.0571    4.3853    1.4367 N   0  0  0  0  0  0  0  0  0  0  0  0
    0.7733    5.1569    2.0398 H   0  0  0  0  0  0  0  0  0  0  0  0
    1.8389    3.8718    1.8456 H   0  0  0  0  0  0  0  0  0  0  0  0
    0.4182   -1.0075    1.4917 C   0  0  0  0  0  0  0  0  0  0  0  0
    1.6289   -0.9784    1.6706 O   0  0  0  0  0  0  0  0  0  0  0  0
   -0.4129   -0.6183    2.5280 N   0  0  0  0  0  0  0  0  0  0  0  0
   -1.4078   -0.7415    2.3737 H   0  0  0  0  0  0  0  0  0  0  0  0
    0.0643   -0.3876    3.8854 C   0  0  0  0  0  0  0  0  0  0  0  0
    0.8145    0.4101    3.8970 H   0  0  0  0  0  0  0  0  0  0  0  0
   -0.7661   -0.0892    4.5324 H   0  0  0  0  0  0  0  0  0  0  0  0
    0.5128   -1.2996    4.2934 H   0  0  0  0  0  0  0  0  0  0  0  0
  1  2  1  0  0  0  0
  2  3  1  0  0  0  0
  2  4  1  0  0  0  0
  2  5  1  0  0  0  0
  5  6  2  0  0  0  0
  5  7  1  0  0  0  0
  7  8  1  0  0  0  0
  7  9  1  0  0  0  0
  9 10  1  0  0  0  0
  9 11  1  0  0  0  0
  9 26  1  0  0  0  0
 11 12  1  0  0  0  0
 11 13  1  0  0  0  0
 11 14  1  0  0  0  0
 14 15  1  0  0  0  0
 14 16  1  0  0  0  0
 14 17  1  0  0  0  0
 17 18  1  0  0  0  0
 17 19  1  0  0  0  0
 17 20  1  0  0  0  0
 20 21  1  0  0  0  0
 20 22  1  0  0  0  0
 20 23  1  0  0  0  0
 23 24  1  0  0  0  0
 23 25  1  0  0  0  0
 26 27  2  0  0  0  0
 26 28  1  0  0  0  0
 28 29  1  0  0  0  0
 28 30  1  0  0  0  0
 30 31  1  0  0  0  0
 30 32  1  0  0  0  0
 30 33  1  0  0  0  0
M  END
$$$$

  -OEChem-03222214063D

 33 32  0     1  0  0  0  0  0999 V2000
   -2.8898   -4.9405    0.3508 H   0  0  0  0  0  0  0  0  0  0  0  0
   -2.9214   -3.9048   -0.0000 C   0  0  0  0  0  0  0  0  0  0  0  0
   -3.7536   -3.3930    0.4890 H   0  0  0  0  0  0  0  0  0  0  0  0
   -3.0855   -3.9061   -1.0803 H   0  0  0  0  0  0  0  0  0  0  0  0
   -1.6159   -3.2036    0.3255 C   0  0  0  0  0  0  0  0  0  0  0  0
   -0.7411   -3.8004    0.9266 O   0  0  0  0  0  0  0  0  0  0  0  0
   -1.4309   -1.8884   -0.0538 N   0  0  0  0  0  0  0  0  0  0  0  0
   -2.1703   -1.4622   -0.6040 H   0  0  0  0  0  0  0  0  0  0  0  0
   -0.1579   -1.1581    0.0831 C   0  0  1  0  0  0  0  0  0  0  0  0
    0.5824   -1.7904   -0.4207 H   0  0  0  0  0  0  0  0  0  0  0  0
   -0.2004    0.1445   -0.7485 C   0  0  0  0  0  0  0  0  0  0  0  0
    0.8230    0.3430   -1.0855 H   0  0  0  0  0  0  0  0  0  0  0  0
   -0.7940   -0.0232   -1.6528 H   0  0  0  0  0  0  0  0  0  0  0  0
   -0.7337    1.3988   -0.0227 C   0  0  0  0  0  0  0  0  0  0  0  0
   -1.6108    1.7678   -0.5646 H   0  0  0  0  0  0  0  0  0  0  0  0
   -1.0676    1.1705    0.9899 H   0  0  0  0  0  0  0  0  0  0  0  0
    0.3229    2.5100    0.0182 C   0  0  0  0  0  0  0  0  0  0  0  0
    1.2323    2.1322    0.4979 H   0  0  0  0  0  0  0  0  0  0  0  0
    0.5785    2.8131   -1.0028 H   0  0  0  0  0  0  0  0  0  0  0  0
   -0.1846    3.7207    0.7953 C   0  0  0  0  0  0  0  0  0  0  0  0
   -1.1028    4.1054    0.3379 H   0  0  0  0  0  0  0  0  0  0  0  0
   -0.4113    3.4339    1.8283 H   0  0  0  0  0  0  0  0  0  0  0  0
    0.8537    4.7547    0.7756 N   0  0  0  0  0  0  0  0  0  0  0  0
    0.5681    5.5767    1.3075 H   0  0  0  0  0  0  0  0  0  0  0  0
    1.7403    4.3871    1.1231 H   0  0  0  0  0  0  0  0  0  0  0  0
    0.4047   -1.0186    1.5195 C   0  0  0  0  0  0  0  0  0  0  0  0
    1.6167   -0.9649    1.6829 O   0  0  0  0  0  0  0  0  0  0  0  0
   -0.4194   -0.6685    2.5751 N   0  0  0  0  0  0  0  0  0  0  0  0
   -1.4138   -0.8090    2.4311 H   0  0  0  0  0  0  0  0  0  0  0  0
    0.0723   -0.4694    3.9324 C   0  0  0  0  0  0  0  0  0  0  0  0
    0.8035    0.3454    3.9589 H   0  0  0  0  0  0  0  0  0  0  0  0
   -0.7549   -0.2119    4.6004 H   0  0  0  0  0  0  0  0  0  0  0  0
    0.5482   -1.3829    4.3044 H   0  0  0  0  0  0  0  0  0  0  0  0
  1  2  1  0  0  0  0
  2  3  1  0  0  0  0
  2  4  1  0  0  0  0
  2  5  1  0  0  0  0
  5  6  2  0  0  0  0
  5  7  1  0  0  0  0
  7  8  1  0  0  0  0
  7  9  1  0  0  0  0
  9 10  1  0  0  0  0
  9 11  1  0  0  0  0
  9 26  1  0  0  0  0
 11 12  1  0  0  0  0
 11 13  1  0  0  0  0
 11 14  1  0  0  0  0
 14 15  1  0  0  0  0
 14 16  1  0  0  0  0
 14 17  1  0  0  0  0
 17 18  1  0  0  0  0
 17 19  1  0  0  0  0
 17 20  1  0  0  0  0
 20 21  1  0  0  0  0
 20 22  1  0  0  0  0
 20 23  1  0  0  0  0
 23 24  1  0  0  0  0
 23 25  1  0  0  0  0
 26 27  2  0  0  0  0
 26 28  1  0  0  0  0
 28 29  1  0  0  0  0
 28 30  1  0  0  0  0
 30 31  1  0  0  0  0
 30 32  1  0  0  0  0
 30 33  1  0  0  0  0
M  END
$$$$

  -OEChem-03222214063D

 33 32  0     1  0  0  0  0  0999 V2000
   -2.8887   -4.9279    0.3393 H   0  0  0  0  0  0  0  0  0  0  0  0
   -2.9174   -3.8902   -0.0054 C   0  0  0  0  0  0  0  0  0  0  0  0
   -3.7425   -3.3768    0.4937 H   0  0  0  0  0  0  0  0  0  0  0  0
   -3.0913   -3.8843   -1.0841 H   0  0  0  0  0  0  0  0  0  0  0  0
   -1.6049   -3.1984    0.3122 C   0  0  0  0  0  0  0  0  0  0  0  0
   -0.7214   -3.8089    0.8863 O   0  0  0  0  0  0  0  0  0  0  0  0
   -1.4247   -1.8757   -0.0432 N   0  0  0  0  0  0  0  0  0  0  0  0
   -2.1718   -1.4394   -0.5750 H   0  0  0  0  0  0  0  0  0  0  0  0
   -0.1531   -1.1432    0.0966 C   0  0  1  0  0  0  0  0  0  0  0  0
    0.5888   -1.7605   -0.4236 H   0  0  0  0  0  0  0  0  0  0  0  0
   -0.2191    0.1720   -0.7152 C   0  0  0  0  0  0  0  0  0  0  0  0
    0.8092    0.3805   -1.0306 H   0  0  0  0  0  0  0  0  0  0  0  0
   -0.7979    0.0184   -1.6316 H   0  0  0  0  0  0  0  0  0  0  0  0
   -0.7532    1.4205    0.0205 C   0  0  0  0  0  0  0  0  0  0  0  0
   -1.7810    1.6132   -0.3038 H   0  0  0  0  0  0  0  0  0  0  0  0
   -0.7802    1.2715    1.0997 H   0  0  0  0  0  0  0  0  0  0  0  0
    0.1223    2.6471   -0.2626 C   0  0  0  0  0  0  0  0  0  0  0  0
    1.1511    2.4476    0.0557 H   0  0  0  0  0  0  0  0  0  0  0  0
    0.1327    2.8503   -1.3387 H   0  0  0  0  0  0  0  0  0  0  0  0
   -0.4036    3.8712    0.4801 C   0  0  0  0  0  0  0  0  0  0  0  0
   -1.4401    4.0726    0.1886 H   0  0  0  0  0  0  0  0  0  0  0  0
   -0.3821    3.6908    1.5607 H   0  0  0  0  0  0  0  0  0  0  0  0
    0.4415    5.0192    0.1421 N   0  0  0  0  0  0  0  0  0  0  0  0
    0.1396    5.8587    0.6363 H   0  0  0  0  0  0  0  0  0  0  0  0
    1.4233    4.8179    0.3339 H   0  0  0  0  0  0  0  0  0  0  0  0
    0.4110   -1.0350    1.5348 C   0  0  0  0  0  0  0  0  0  0  0  0
    1.6228   -0.9823    1.6996 O   0  0  0  0  0  0  0  0  0  0  0  0
   -0.4157   -0.7112    2.5971 N   0  0  0  0  0  0  0  0  0  0  0  0
   -1.4100   -0.8452    2.4464 H   0  0  0  0  0  0  0  0  0  0  0  0
    0.0725   -0.5514    3.9611 C   0  0  0  0  0  0  0  0  0  0  0  0
    0.8044    0.2615    4.0133 H   0  0  0  0  0  0  0  0  0  0  0  0
   -0.7565   -0.3121    4.6338 H   0  0  0  0  0  0  0  0  0  0  0  0
    0.5467   -1.4754    4.3085 H   0  0  0  0  0  0  0  0  0  0  0  0
  1  2  1  0  0  0  0
  2  3  1  0  0  0  0
  2  4  1  0  0  0  0
  2  5  1  0  0  0  0
  5  6  2  0  0  0  0
  5  7  1  0  0  0  0
  7  8  1  0  0  0  0
  7  9  1  0  0  0  0
  9 10  1  0  0  0  0
  9 11  1  0  0  0  0
  9 26  1  0  0  0  0
 11 12  1  0  0  0  0
 11 13  1  0  0  0  0
 11 14  1  0  0  0  0
 14 15  1  0  0  0  0
 14 16  1  0  0  0  0
 14 17  1  0  0  0  0
 17 18  1  0  0  0  0
 17 19  1  0  0  0  0
 17 20  1  0  0  0  0
 20 21  1  0  0  0  0
 20 22  1  0  0  0  0
 20 23  1  0  0  0  0
 23 24  1  0  0  0  0
 23 25  1  0  0  0  0
 26 27  2  0  0  0  0
 26 28  1  0  0  0  0
 28 29  1  0  0  0  0
 28 30  1  0  0  0  0
 30 31  1  0  0  0  0
 30 32  1  0  0  0  0
 30 33  1  0  0  0  0
M  END
$$$$

  -OEChem-03222214063D

 33 32  0     1  0  0  0  0  0999 V2000
   -2.8606   -4.9340    0.3483 H   0  0  0  0  0  0  0  0  0  0  0  0
   -2.9003   -3.8956    0.0062 C   0  0  0  0  0  0  0  0  0  0  0  0
   -3.7270   -3.3903    0.5112 H   0  0  0  0  0  0  0  0  0  0  0  0
   -3.0795   -3.8886   -1.0717 H   0  0  0  0  0  0  0  0  0  0  0  0
   -1.5924   -3.1936    0.3189 C   0  0  0  0  0  0  0  0  0  0  0  0
   -0.7022   -3.7979    0.8891 O   0  0  0  0  0  0  0  0  0  0  0  0
   -1.4215   -1.8707   -0.0408 N   0  0  0  0  0  0  0  0  0  0  0  0
   -2.1752   -1.4385   -0.5667 H   0  0  0  0  0  0  0  0  0  0  0  0
   -0.1509   -1.1333    0.0850 C   0  0  1  0  0  0  0  0  0  0  0  0
    0.5914   -1.7384   -0.4487 H   0  0  0  0  0  0  0  0  0  0  0  0
   -0.2472    0.1921   -0.7066 C   0  0  0  0  0  0  0  0  0  0  0  0
    0.7739    0.4176   -1.0335 H   0  0  0  0  0  0  0  0  0  0  0  0
   -0.8423    0.0477   -1.6139 H   0  0  0  0  0  0  0  0  0  0  0  0
   -0.7742    1.4228    0.0600 C   0  0  0  0  0  0  0  0  0  0  0  0
   -1.8666    1.4526   -0.0016 H   0  0  0  0  0  0  0  0  0  0  0  0
   -0.5011    1.3778    1.1153 H   0  0  0  0  0  0  0  0  0  0  0  0
   -0.1656    2.7132   -0.5028 C   0  0  0  0  0  0  0  0  0  0  0  0
    0.9261    2.6712   -0.4287 H   0  0  0  0  0  0  0  0  0  0  0  0
   -0.4298    2.8117   -1.5609 H   0  0  0  0  0  0  0  0  0  0  0  0
   -0.6716    3.9334    0.2607 C   0  0  0  0  0  0  0  0  0  0  0  0
   -1.7647    3.9847    0.2080 H   0  0  0  0  0  0  0  0  0  0  0  0
   -0.3840    3.8610    1.3156 H   0  0  0  0  0  0  0  0  0  0  0  0
   -0.0864    5.1348   -0.3408 N   0  0  0  0  0  0  0  0  0  0  0  0
   -0.3829    5.9770    0.1523 H   0  0  0  0  0  0  0  0  0  0  0  0
    0.9316    5.0702   -0.3682 H   0  0  0  0  0  0  0  0  0  0  0  0
    0.4155   -1.0282    1.5213 C   0  0  0  0  0  0  0  0  0  0  0  0
    1.6268   -0.9690    1.6865 O   0  0  0  0  0  0  0  0  0  0  0  0
   -0.4164   -0.7086    2.5805 N   0  0  0  0  0  0  0  0  0  0  0  0
   -1.4092   -0.8489    2.4255 H   0  0  0  0  0  0  0  0  0  0  0  0
    0.0661   -0.5556    3.9470 C   0  0  0  0  0  0  0  0  0  0  0  0
    0.7944    0.2600    4.0070 H   0  0  0  0  0  0  0  0  0  0  0  0
   -0.7663   -0.3242    4.6181 H   0  0  0  0  0  0  0  0  0  0  0  0
    0.5433   -1.4797    4.2900 H   0  0  0  0  0  0  0  0  0  0  0  0
  1  2  1  0  0  0  0
  2  3  1  0  0  0  0
  2  4  1  0  0  0  0
  2  5  1  0  0  0  0
  5  6  2  0  0  0  0
  5  7  1  0  0  0  0
  7  8  1  0  0  0  0
  7  9  1  0  0  0  0
  9 10  1  0  0  0  0
  9 11  1  0  0  0  0
  9 26  1  0  0  0  0
 11 12  1  0  0  0  0
 11 13  1  0  0  0  0
 11 14  1  0  0  0  0
 14 15  1  0  0  0  0
 14 16  1  0  0  0  0
 14 17  1  0  0  0  0
 17 18  1  0  0  0  0
 17 19  1  0  0  0  0
 17 20  1  0  0  0  0
 20 21  1  0  0  0  0
 20 22  1  0  0  0  0
 20 23  1  0  0  0  0
 23 24  1  0  0  0  0
 23 25  1  0  0  0  0
 26 27  2  0  0  0  0
 26 28  1  0  0  0  0
 28 29  1  0  0  0  0
 28 30  1  0  0  0  0
 30 31  1  0  0  0  0
 30 32  1  0  0  0  0
 30 33  1  0  0  0  0
M  END
$$$$

  -OEChem-03222214063D

 33 32  0     1  0  0  0  0  0999 V2000
   -2.8788   -4.9088    0.3827 H   0  0  0  0  0  0  0  0  0  0  0  0
   -2.9084   -3.8758    0.0242 C   0  0  0  0  0  0  0  0  0  0  0  0
   -3.7294   -3.3536    0.5211 H   0  0  0  0  0  0  0  0  0  0  0  0
   -3.0885   -3.8847   -1.0534 H   0  0  0  0  0  0  0  0  0  0  0  0
   -1.5930   -3.1820    0.3251 C   0  0  0  0  0  0  0  0  0  0  0  0
   -0.7077   -3.7857    0.9033 O   0  0  0  0  0  0  0  0  0  0  0  0
   -1.4119   -1.8656   -0.0515 N   0  0  0  0  0  0  0  0  0  0  0  0
   -2.1595   -1.4382   -0.5899 H   0  0  0  0  0  0  0  0  0  0  0  0
   -0.1367   -1.1348    0.0654 C   0  0  1  0  0  0  0  0  0  0  0  0
    0.6045   -1.7389   -0.4711 H   0  0  0  0  0  0  0  0  0  0  0  0
   -0.2505    0.1925   -0.7179 C   0  0  0  0  0  0  0  0  0  0  0  0
    0.7597    0.4364   -1.0640 H   0  0  0  0  0  0  0  0  0  0  0  0
   -0.8673    0.0509   -1.6112 H   0  0  0  0  0  0  0  0  0  0  0  0
   -0.7709    1.3998    0.0828 C   0  0  0  0  0  0  0  0  0  0  0  0
   -1.8432    1.2847    0.2705 H   0  0  0  0  0  0  0  0  0  0  0  0
   -0.2614    1.4703    1.0475 H   0  0  0  0  0  0  0  0  0  0  0  0
   -0.4941    2.7029   -0.6751 C   0  0  0  0  0  0  0  0  0  0  0  0
    0.5812    2.8076   -0.8533 H   0  0  0  0  0  0  0  0  0  0  0  0
   -0.9969    2.6749   -1.6475 H   0  0  0  0  0  0  0  0  0  0  0  0
   -0.9935    3.9075    0.1170 C   0  0  0  0  0  0  0  0  0  0  0  0
   -2.0656    3.8073    0.3193 H   0  0  0  0  0  0  0  0  0  0  0  0
   -0.4697    3.9681    1.0777 H   0  0  0  0  0  0  0  0  0  0  0  0
   -0.7466    5.1175   -0.6723 N   0  0  0  0  0  0  0  0  0  0  0  0
   -1.0646    5.9518   -0.1789 H   0  0  0  0  0  0  0  0  0  0  0  0
    0.2401    5.1970   -0.9198 H   0  0  0  0  0  0  0  0  0  0  0  0
    0.4296   -1.0141    1.5004 C   0  0  0  0  0  0  0  0  0  0  0  0
    1.6414   -0.9680    1.6671 O   0  0  0  0  0  0  0  0  0  0  0  0
   -0.4011   -0.6743    2.5544 N   0  0  0  0  0  0  0  0  0  0  0  0
   -1.3950   -0.8044    2.3981 H   0  0  0  0  0  0  0  0  0  0  0  0
    0.0804   -0.5254    3.9218 C   0  0  0  0  0  0  0  0  0  0  0  0
    0.8229    0.2773    3.9816 H   0  0  0  0  0  0  0  0  0  0  0  0
   -0.7494   -0.2780    4.5905 H   0  0  0  0  0  0  0  0  0  0  0  0
    0.5397   -1.4575    4.2677 H   0  0  0  0  0  0  0  0  0  0  0  0
  1  2  1  0  0  0  0
  2  3  1  0  0  0  0
  2  4  1  0  0  0  0
  2  5  1  0  0  0  0
  5  6  2  0  0  0  0
  5  7  1  0  0  0  0
  7  8  1  0  0  0  0
  7  9  1  0  0  0  0
  9 10  1  0  0  0  0
  9 11  1  0  0  0  0
  9 26  1  0  0  0  0
 11 12  1  0  0  0  0
 11 13  1  0  0  0  0
 11 14  1  0  0  0  0
 14 15  1  0  0  0  0
 14 16  1  0  0  0  0
 14 17  1  0  0  0  0
 17 18  1  0  0  0  0
 17 19  1  0  0  0  0
 17 20  1  0  0  0  0
 20 21  1  0  0  0  0
 20 22  1  0  0  0  0
 20 23  1  0  0  0  0
 23 24  1  0  0  0  0
 23 25  1  0  0  0  0
 26 27  2  0  0  0  0
 26 28  1  0  0  0  0
 28 29  1  0  0  0  0
 28 30  1  0  0  0  0
 30 31  1  0  0  0  0
 30 32  1  0  0  0  0
 30 33  1  0  0  0  0
M  END
$$$$

  -OEChem-03222214063D

 33 32  0     1  0  0  0  0  0999 V2000
   -2.9066   -4.8812    0.4151 H   0  0  0  0  0  0  0  0  0  0  0  0
   -2.9233   -3.8517    0.0460 C   0  0  0  0  0  0  0  0  0  0  0  0
   -3.7265   -3.3099    0.5510 H   0  0  0  0  0  0  0  0  0  0  0  0
   -3.1218   -3.8670   -1.0284 H   0  0  0  0  0  0  0  0  0  0  0  0
   -1.5913   -3.1783    0.3178 C   0  0  0  0  0  0  0  0  0  0  0  0
   -0.7057   -3.7918    0.8852 O   0  0  0  0  0  0  0  0  0  0  0  0
   -1.3972   -1.8674   -0.0713 N   0  0  0  0  0  0  0  0  0  0  0  0
   -2.1508   -1.4289   -0.5918 H   0  0  0  0  0  0  0  0  0  0  0  0
   -0.1179   -1.1427    0.0444 C   0  0  1  0  0  0  0  0  0  0  0  0
    0.6237   -1.7522   -0.4847 H   0  0  0  0  0  0  0  0  0  0  0  0
   -0.2254    0.1884   -0.7406 C   0  0  0  0  0  0  0  0  0  0  0  0
    0.6976    0.3027   -1.3194 H   0  0  0  0  0  0  0  0  0  0  0  0
   -1.0478    0.1328   -1.4610 H   0  0  0  0  0  0  0  0  0  0  0  0
   -0.3856    1.4501    0.1233 C   0  0  0  0  0  0  0  0  0  0  0  0
   -1.2893    1.3661    0.7355 H   0  0  0  0  0  0  0  0  0  0  0  0
    0.4746    1.5594    0.7926 H   0  0  0  0  0  0  0  0  0  0  0  0
   -0.4818    2.6953   -0.7638 C   0  0  0  0  0  0  0  0  0  0  0  0
    0.4139    2.7739   -1.3886 H   0  0  0  0  0  0  0  0  0  0  0  0
   -1.3499    2.6090   -1.4257 H   0  0  0  0  0  0  0  0  0  0  0  0
   -0.6186    3.9547    0.0859 C   0  0  0  0  0  0  0  0  0  0  0  0
   -1.5058    3.8830    0.7250 H   0  0  0  0  0  0  0  0  0  0  0  0
    0.2587    4.0690    0.7327 H   0  0  0  0  0  0  0  0  0  0  0  0
   -0.7411    5.1074   -0.8110 N   0  0  0  0  0  0  0  0  0  0  0  0
   -0.8305    5.9764   -0.2843 H   0  0  0  0  0  0  0  0  0  0  0  0
    0.0485    5.1537   -1.4554 H   0  0  0  0  0  0  0  0  0  0  0  0
    0.4342   -1.0140    1.4846 C   0  0  0  0  0  0  0  0  0  0  0  0
    1.6442   -0.9762    1.6659 O   0  0  0  0  0  0  0  0  0  0  0  0
   -0.4076   -0.6593    2.5245 N   0  0  0  0  0  0  0  0  0  0  0  0
   -1.4008   -0.7806    2.3567 H   0  0  0  0  0  0  0  0  0  0  0  0
    0.0576   -0.4836    3.8944 C   0  0  0  0  0  0  0  0  0  0  0  0
    0.8081    0.3122    3.9450 H   0  0  0  0  0  0  0  0  0  0  0  0
   -0.7780   -0.2109    4.5460 H   0  0  0  0  0  0  0  0  0  0  0  0
    0.5026   -1.4114    4.2691 H   0  0  0  0  0  0  0  0  0  0  0  0
  1  2  1  0  0  0  0
  2  3  1  0  0  0  0
  2  4  1  0  0  0  0
  2  5  1  0  0  0  0
  5  6  2  0  0  0  0
  5  7  1  0  0  0  0
  7  8  1  0  0  0  0
  7  9  1  0  0  0  0
  9 10  1  0  0  0  0
  9 11  1  0  0  0  0
  9 26  1  0  0  0  0
 11 12  1  0  0  0  0
 11 13  1  0  0  0  0
 11 14  1  0  0  0  0
 14 15  1  0  0  0  0
 14 16  1  0  0  0  0
 14 17  1  0  0  0  0
 17 18  1  0  0  0  0
 17 19  1  0  0  0  0
 17 20  1  0  0  0  0
 20 21  1  0  0  0  0
 20 22  1  0  0  0  0
 20 23  1  0  0  0  0
 23 24  1  0  0  0  0
 23 25  1  0  0  0  0
 26 27  2  0  0  0  0
 26 28  1  0  0  0  0
 28 29  1  0  0  0  0
 28 30  1  0  0  0  0
 30 31  1  0  0  0  0
 30 32  1  0  0  0  0
 30 33  1  0  0  0  0
M  END
$$$$

  -OEChem-03222214063D

 33 32  0     1  0  0  0  0  0999 V2000
   -2.9055   -4.8893    0.4207 H   0  0  0  0  0  0  0  0  0  0  0  0
   -2.9279   -3.8594    0.0532 C   0  0  0  0  0  0  0  0  0  0  0  0
   -3.7273   -3.3199    0.5668 H   0  0  0  0  0  0  0  0  0  0  0  0
   -3.1364   -3.8739   -1.0192 H   0  0  0  0  0  0  0  0  0  0  0  0
   -1.5947   -3.1839    0.3130 C   0  0  0  0  0  0  0  0  0  0  0  0
   -0.6985   -3.7993    0.8615 O   0  0  0  0  0  0  0  0  0  0  0  0
   -1.4107   -1.8684   -0.0646 N   0  0  0  0  0  0  0  0  0  0  0  0
   -2.1766   -1.4216   -0.5601 H   0  0  0  0  0  0  0  0  0  0  0  0
   -0.1342   -1.1389    0.0489 C   0  0  1  0  0  0  0  0  0  0  0  0
    0.6032   -1.7498   -0.4849 H   0  0  0  0  0  0  0  0  0  0  0  0
   -0.2309    0.1905   -0.7392 C   0  0  0  0  0  0  0  0  0  0  0  0
    0.6865    0.3073   -1.3263 H   0  0  0  0  0  0  0  0  0  0  0  0
   -1.0586    0.1279   -1.4532 H   0  0  0  0  0  0  0  0  0  0  0  0
   -0.3912    1.4505    0.1269 C   0  0  0  0  0  0  0  0  0  0  0  0
   -1.1528    1.2771    0.8931 H   0  0  0  0  0  0  0  0  0  0  0  0
    0.5554    1.6807    0.6287 H   0  0  0  0  0  0  0  0  0  0  0  0
   -0.8413    2.6397   -0.7277 C   0  0  0  0  0  0  0  0  0  0  0  0
   -0.1099    2.8181   -1.5225 H   0  0  0  0  0  0  0  0  0  0  0  0
   -1.8046    2.4150   -1.1977 H   0  0  0  0  0  0  0  0  0  0  0  0
   -0.9799    3.8962    0.1267 C   0  0  0  0  0  0  0  0  0  0  0  0
   -1.6996    3.7244    0.9349 H   0  0  0  0  0  0  0  0  0  0  0  0
   -0.0150    4.1517    0.5793 H   0  0  0  0  0  0  0  0  0  0  0  0
   -1.4453    4.9912   -0.7296 N   0  0  0  0  0  0  0  0  0  0  0  0
   -1.5578    5.8539   -0.1966 H   0  0  0  0  0  0  0  0  0  0  0  0
   -0.8137    5.1323   -1.5183 H   0  0  0  0  0  0  0  0  0  0  0  0
    0.4366   -1.0166    1.4827 C   0  0  0  0  0  0  0  0  0  0  0  0
    1.6489   -0.9689    1.6454 O   0  0  0  0  0  0  0  0  0  0  0  0
   -0.3898   -0.6742    2.5390 N   0  0  0  0  0  0  0  0  0  0  0  0
   -1.3850   -0.7998    2.3876 H   0  0  0  0  0  0  0  0  0  0  0  0
    0.0969   -0.4952    3.9008 C   0  0  0  0  0  0  0  0  0  0  0  0
    0.8444    0.3042    3.9387 H   0  0  0  0  0  0  0  0  0  0  0  0
   -0.7293   -0.2251    4.5653 H   0  0  0  0  0  0  0  0  0  0  0  0
    0.5516   -1.4211    4.2685 H   0  0  0  0  0  0  0  0  0  0  0  0
  1  2  1  0  0  0  0
  2  3  1  0  0  0  0
  2  4  1  0  0  0  0
  2  5  1  0  0  0  0
  5  6  2  0  0  0  0
  5  7  1  0  0  0  0
  7  8  1  0  0  0  0
  7  9  1  0  0  0  0
  9 10  1  0  0  0  0
  9 11  1  0  0  0  0
  9 26  1  0  0  0  0
 11 12  1  0  0  0  0
 11 13  1  0  0  0  0
 11 14  1  0  0  0  0
 14 15  1  0  0  0  0
 14 16  1  0  0  0  0
 14 17  1  0  0  0  0
 17 18  1  0  0  0  0
 17 19  1  0  0  0  0
 17 20  1  0  0  0  0
 20 21  1  0  0  0  0
 20 22  1  0  0  0  0
 20 23  1  0  0  0  0
 23 24  1  0  0  0  0
 23 25  1  0  0  0  0
 26 27  2  0  0  0  0
 26 28  1  0  0  0  0
 28 29  1  0  0  0  0
 28 30  1  0  0  0  0
 30 31  1  0  0  0  0
 30 32  1  0  0  0  0
 30 33  1  0  0  0  0
M  END
$$$$

  -OEChem-03222214063D

 33 32  0     1  0  0  0  0  0999 V2000
   -2.9114   -4.8935    0.4045 H   0  0  0  0  0  0  0  0  0  0  0  0
   -2.9377   -3.8583    0.0525 C   0  0  0  0  0  0  0  0  0  0  0  0
   -3.7328   -3.3273    0.5812 H   0  0  0  0  0  0  0  0  0  0  0  0
   -3.1558   -3.8568   -1.0181 H   0  0  0  0  0  0  0  0  0  0  0  0
   -1.6022   -3.1859    0.3094 C   0  0  0  0  0  0  0  0  0  0  0  0
   -0.6969   -3.8117    0.8305 O   0  0  0  0  0  0  0  0  0  0  0  0
   -1.4256   -1.8621   -0.0410 N   0  0  0  0  0  0  0  0  0  0  0  0
   -2.2026   -1.4024   -0.5064 H   0  0  0  0  0  0  0  0  0  0  0  0
   -0.1502   -1.1312    0.0717 C   0  0  1  0  0  0  0  0  0  0  0  0
    0.5779   -1.7430   -0.4739 H   0  0  0  0  0  0  0  0  0  0  0  0
   -0.2378    0.1988   -0.7173 C   0  0  0  0  0  0  0  0  0  0  0  0
    0.6792    0.3112   -1.3059 H   0  0  0  0  0  0  0  0  0  0  0  0
   -1.0629    0.1285   -1.4339 H   0  0  0  0  0  0  0  0  0  0  0  0
   -0.3972    1.4710    0.1353 C   0  0  0  0  0  0  0  0  0  0  0  0
   -0.9682    1.2489    1.0401 H   0  0  0  0  0  0  0  0  0  0  0  0
    0.5889    1.8414    0.4369 H   0  0  0  0  0  0  0  0  0  0  0  0
   -1.1773    2.5461   -0.6298 C   0  0  0  0  0  0  0  0  0  0  0  0
   -0.6528    2.7870   -1.5600 H   0  0  0  0  0  0  0  0  0  0  0  0
   -2.1720    2.1687   -0.8894 H   0  0  0  0  0  0  0  0  0  0  0  0
   -1.3250    3.8103    0.2114 C   0  0  0  0  0  0  0  0  0  0  0  0
   -1.8374    3.5791    1.1518 H   0  0  0  0  0  0  0  0  0  0  0  0
   -0.3374    4.2186    0.4539 H   0  0  0  0  0  0  0  0  0  0  0  0
   -2.1051    4.7875   -0.5536 N   0  0  0  0  0  0  0  0  0  0  0  0
   -2.2408    5.6480   -0.0226 H   0  0  0  0  0  0  0  0  0  0  0  0
   -1.6650    4.9826   -1.4528 H   0  0  0  0  0  0  0  0  0  0  0  0
    0.4469   -1.0333    1.4969 C   0  0  0  0  0  0  0  0  0  0  0  0
    1.6621   -0.9812    1.6349 O   0  0  0  0  0  0  0  0  0  0  0  0
   -0.3568   -0.7152    2.5778 N   0  0  0  0  0  0  0  0  0  0  0  0
   -1.3544   -0.8452    2.4468 H   0  0  0  0  0  0  0  0  0  0  0  0
    0.1598   -0.5601    3.9314 C   0  0  0  0  0  0  0  0  0  0  0  0
    0.8973    0.2484    3.9691 H   0  0  0  0  0  0  0  0  0  0  0  0
   -0.6538   -0.3164    4.6208 H   0  0  0  0  0  0  0  0  0  0  0  0
    0.6352   -1.4875    4.2677 H   0  0  0  0  0  0  0  0  0  0  0  0
  1  2  1  0  0  0  0
  2  3  1  0  0  0  0
  2  4  1  0  0  0  0
  2  5  1  0  0  0  0
  5  6  2  0  0  0  0
  5  7  1  0  0  0  0
  7  8  1  0  0  0  0
  7  9  1  0  0  0  0
  9 10  1  0  0  0  0
  9 11  1  0  0  0  0
  9 26  1  0  0  0  0
 11 12  1  0  0  0  0
 11 13  1  0  0  0  0
 11 14  1  0  0  0  0
 14 15  1  0  0  0  0
 14 16  1  0  0  0  0
 14 17  1  0  0  0  0
 17 18  1  0  0  0  0
 17 19  1  0  0  0  0
 17 20  1  0  0  0  0
 20 21  1  0  0  0  0
 20 22  1  0  0  0  0
 20 23  1  0  0  0  0
 23 24  1  0  0  0  0
 23 25  1  0  0  0  0
 26 27  2  0  0  0  0
 26 28  1  0  0  0  0
 28 29  1  0  0  0  0
 28 30  1  0  0  0  0
 30 31  1  0  0  0  0
 30 32  1  0  0  0  0
 30 33  1  0  0  0  0
M  END
$$$$

  -OEChem-03222214063D

 33 32  0     1  0  0  0  0  0999 V2000
   -2.9188   -4.8904    0.4150 H   0  0  0  0  0  0  0  0  0  0  0  0
   -2.9478   -3.8519    0.0728 C   0  0  0  0  0  0  0  0  0  0  0  0
   -3.7309   -3.3235    0.6216 H   0  0  0  0  0  0  0  0  0  0  0  0
   -3.1868   -3.8400   -0.9934 H   0  0  0  0  0  0  0  0  0  0  0  0
   -1.6049   -3.1869    0.3104 C   0  0  0  0  0  0  0  0  0  0  0  0
   -0.6891   -3.8259    0.7963 O   0  0  0  0  0  0  0  0  0  0  0  0
   -1.4313   -1.8568   -0.0188 N   0  0  0  0  0  0  0  0  0  0  0  0
   -2.2188   -1.3833   -0.4515 H   0  0  0  0  0  0  0  0  0  0  0  0
   -0.1527   -1.1298    0.0865 C   0  0  1  0  0  0  0  0  0  0  0  0
    0.5650   -1.7401   -0.4740 H   0  0  0  0  0  0  0  0  0  0  0  0
   -0.2409    0.2043   -0.6983 C   0  0  0  0  0  0  0  0  0  0  0  0
    0.6784    0.3079   -1.2845 H   0  0  0  0  0  0  0  0  0  0  0  0
   -1.0586    0.1321   -1.4230 H   0  0  0  0  0  0  0  0  0  0  0  0
   -0.3902    1.4953    0.1341 C   0  0  0  0  0  0  0  0  0  0  0  0
   -0.6972    1.2727    1.1565 H   0  0  0  0  0  0  0  0  0  0  0  0
    0.5739    2.0132    0.1827 H   0  0  0  0  0  0  0  0  0  0  0  0
   -1.4632    2.4104   -0.4669 C   0  0  0  0  0  0  0  0  0  0  0  0
   -1.1880    2.6751   -1.4930 H   0  0  0  0  0  0  0  0  0  0  0  0
   -2.4224    1.8829   -0.4979 H   0  0  0  0  0  0  0  0  0  0  0  0
   -1.6187    3.6815    0.3624 C   0  0  0  0  0  0  0  0  0  0  0  0
   -1.8797    3.4265    1.3957 H   0  0  0  0  0  0  0  0  0  0  0  0
   -0.6758    4.2394    0.3774 H   0  0  0  0  0  0  0  0  0  0  0  0
   -2.6816    4.4963   -0.2333 N   0  0  0  0  0  0  0  0  0  0  0  0
   -2.8375    5.3488    0.3052 H   0  0  0  0  0  0  0  0  0  0  0  0
   -2.4712    4.7167   -1.2068 H   0  0  0  0  0  0  0  0  0  0  0  0
    0.4649   -1.0608    1.5045 C   0  0  0  0  0  0  0  0  0  0  0  0
    1.6821   -1.0168    1.6269 O   0  0  0  0  0  0  0  0  0  0  0  0
   -0.3230   -0.7624    2.6029 N   0  0  0  0  0  0  0  0  0  0  0  0
   -1.3249   -0.8650    2.4794 H   0  0  0  0  0  0  0  0  0  0  0  0
    0.2103   -0.6326    3.9528 C   0  0  0  0  0  0  0  0  0  0  0  0
    0.9453    0.1780    3.9986 H   0  0  0  0  0  0  0  0  0  0  0  0
   -0.5959   -0.4071    4.6572 H   0  0  0  0  0  0  0  0  0  0  0  0
    0.6936   -1.5647    4.2643 H   0  0  0  0  0  0  0  0  0  0  0  0
  1  2  1  0  0  0  0
  2  3  1  0  0  0  0
  2  4  1  0  0  0  0
  2  5  1  0  0  0  0
  5  6  2  0  0  0  0
  5  7  1  0  0  0  0
  7  8  1  0  0  0  0
  7  9  1  0  0  0  0
  9 10  1  0  0  0  0
  9 11  1  0  0  0  0
  9 26  1  0  0  0  0
 11 12  1  0  0  0  0
 11 13  1  0  0  0  0
 11 14  1  0  0  0  0
 14 15  1  0  0  0  0
 14 16  1  0  0  0  0
 14 17  1  0  0  0  0
 17 18  1  0  0  0  0
 17 19  1  0  0  0  0
 17 20  1  0  0  0  0
 20 21  1  0  0  0  0
 20 22  1  0  0  0  0
 20 23  1  0  0  0  0
 23 24  1  0  0  0  0
 23 25  1  0  0  0  0
 26 27  2  0  0  0  0
 26 28  1  0  0  0  0
 28 29  1  0  0  0  0
 28 30  1  0  0  0  0
 30 31  1  0  0  0  0
 30 32  1  0  0  0  0
 30 33  1  0  0  0  0
M  END
$$$$

  -OEChem-03222214063D

 33 32  0     1  0  0  0  0  0999 V2000
   -2.9330   -4.8735    0.4471 H   0  0  0  0  0  0  0  0  0  0  0  0
   -2.9588   -3.8345    0.1066 C   0  0  0  0  0  0  0  0  0  0  0  0
   -3.7238   -3.2982    0.6730 H   0  0  0  0  0  0  0  0  0  0  0  0
   -3.2206   -3.8191   -0.9542 H   0  0  0  0  0  0  0  0  0  0  0  0
   -1.6039   -3.1847    0.3160 C   0  0  0  0  0  0  0  0  0  0  0  0
   -0.6840   -3.8359    0.7773 O   0  0  0  0  0  0  0  0  0  0  0  0
   -1.4233   -1.8552   -0.0110 N   0  0  0  0  0  0  0  0  0  0  0  0
   -2.2166   -1.3679   -0.4173 H   0  0  0  0  0  0  0  0  0  0  0  0
   -0.1388   -1.1381    0.0870 C   0  0  1  0  0  0  0  0  0  0  0  0
    0.5720   -1.7507   -0.4806 H   0  0  0  0  0  0  0  0  0  0  0  0
   -0.2355    0.1960   -0.6973 C   0  0  0  0  0  0  0  0  0  0  0  0
    0.6948    0.2895   -1.2679 H   0  0  0  0  0  0  0  0  0  0  0  0
   -1.0375    0.1253   -1.4396 H   0  0  0  0  0  0  0  0  0  0  0  0
   -0.3757    1.5016    0.1186 C   0  0  0  0  0  0  0  0  0  0  0  0
   -0.3616    1.3234    1.1937 H   0  0  0  0  0  0  0  0  0  0  0  0
    0.4750    2.1537   -0.1072 H   0  0  0  0  0  0  0  0  0  0  0  0
   -1.6781    2.2268   -0.2398 C   0  0  0  0  0  0  0  0  0  0  0  0
   -1.6772    2.4824   -1.3045 H   0  0  0  0  0  0  0  0  0  0  0  0
   -2.5292    1.5644   -0.0502 H   0  0  0  0  0  0  0  0  0  0  0  0
   -1.8400    3.4982    0.5877 C   0  0  0  0  0  0  0  0  0  0  0  0
   -1.8274    3.2550    1.6560 H   0  0  0  0  0  0  0  0  0  0  0  0
   -1.0126    4.1877    0.3860 H   0  0  0  0  0  0  0  0  0  0  0  0
   -3.1192    4.1211    0.2341 N   0  0  0  0  0  0  0  0  0  0  0  0
   -3.2861    4.9604    0.7900 H   0  0  0  0  0  0  0  0  0  0  0  0
   -3.1602    4.3335   -0.7628 H   0  0  0  0  0  0  0  0  0  0  0  0
    0.4837   -1.0809    1.5030 C   0  0  0  0  0  0  0  0  0  0  0  0
    1.7016   -1.0510    1.6230 O   0  0  0  0  0  0  0  0  0  0  0  0
   -0.2996   -0.7810    2.6046 N   0  0  0  0  0  0  0  0  0  0  0  0
   -1.3034   -0.8628    2.4812 H   0  0  0  0  0  0  0  0  0  0  0  0
    0.2387   -0.6659    3.9538 C   0  0  0  0  0  0  0  0  0  0  0  0
    0.9745    0.1434    4.0038 H   0  0  0  0  0  0  0  0  0  0  0  0
   -0.5636   -0.4468    4.6645 H   0  0  0  0  0  0  0  0  0  0  0  0
    0.7228   -1.6014    4.2536 H   0  0  0  0  0  0  0  0  0  0  0  0
  1  2  1  0  0  0  0
  2  3  1  0  0  0  0
  2  4  1  0  0  0  0
  2  5  1  0  0  0  0
  5  6  2  0  0  0  0
  5  7  1  0  0  0  0
  7  8  1  0  0  0  0
  7  9  1  0  0  0  0
  9 10  1  0  0  0  0
  9 11  1  0  0  0  0
  9 26  1  0  0  0  0
 11 12  1  0  0  0  0
 11 13  1  0  0  0  0
 11 14  1  0  0  0  0
 14 15  1  0  0  0  0
 14 16  1  0  0  0  0
 14 17  1  0  0  0  0
 17 18  1  0  0  0  0
 17 19  1  0  0  0  0
 17 20  1  0  0  0  0
 20 21  1  0  0  0  0
 20 22  1  0  0  0  0
 20 23  1  0  0  0  0
 23 24  1  0  0  0  0
 23 25  1  0  0  0  0
 26 27  2  0  0  0  0
 26 28  1  0  0  0  0
 28 29  1  0  0  0  0
 28 30  1  0  0  0  0
 30 31  1  0  0  0  0
 30 32  1  0  0  0  0
 30 33  1  0  0  0  0
M  END
$$$$

  -OEChem-03222214063D

 33 32  0     1  0  0  0  0  0999 V2000
   -2.9460   -4.8517    0.5087 H   0  0  0  0  0  0  0  0  0  0  0  0
   -2.9594   -3.8175    0.1527 C   0  0  0  0  0  0  0  0  0  0  0  0
   -3.7047   -3.2592    0.7241 H   0  0  0  0  0  0  0  0  0  0  0  0
   -3.2399   -3.8132   -0.9033 H   0  0  0  0  0  0  0  0  0  0  0  0
   -1.5904   -3.1873    0.3270 C   0  0  0  0  0  0  0  0  0  0  0  0
   -0.6741   -3.8445    0.7869 O   0  0  0  0  0  0  0  0  0  0  0  0
   -1.3945   -1.8678   -0.0309 N   0  0  0  0  0  0  0  0  0  0  0  0
   -2.1877   -1.3755   -0.4308 H   0  0  0  0  0  0  0  0  0  0  0  0
   -0.1046   -1.1591    0.0562 C   0  0  1  0  0  0  0  0  0  0  0  0
    0.6099   -1.7735   -0.5040 H   0  0  0  0  0  0  0  0  0  0  0  0
   -0.2205    0.1739   -0.7291 C   0  0  0  0  0  0  0  0  0  0  0  0
    0.7125    0.2675   -1.2953 H   0  0  0  0  0  0  0  0  0  0  0  0
   -1.0202    0.1077   -1.4741 H   0  0  0  0  0  0  0  0  0  0  0  0
   -0.3527    1.4787    0.0868 C   0  0  0  0  0  0  0  0  0  0  0  0
   -0.0155    1.3723    1.1186 H   0  0  0  0  0  0  0  0  0  0  0  0
    0.2929    2.2362   -0.3704 H   0  0  0  0  0  0  0  0  0  0  0  0
   -1.7947    1.9959    0.0433 C   0  0  0  0  0  0  0  0  0  0  0  0
   -2.0754    2.2238   -0.9901 H   0  0  0  0  0  0  0  0  0  0  0  0
   -2.4715    1.2204    0.4165 H   0  0  0  0  0  0  0  0  0  0  0  0
   -1.9504    3.2474    0.9013 C   0  0  0  0  0  0  0  0  0  0  0  0
   -1.6659    3.0303    1.9371 H   0  0  0  0  0  0  0  0  0  0  0  0
   -1.2969    4.0442    0.5289 H   0  0  0  0  0  0  0  0  0  0  0  0
   -3.3524    3.6723    0.8473 N   0  0  0  0  0  0  0  0  0  0  0  0
   -3.5128    4.4875    1.4397 H   0  0  0  0  0  0  0  0  0  0  0  0
   -3.6406    3.8610   -0.1128 H   0  0  0  0  0  0  0  0  0  0  0  0
    0.4954   -1.0821    1.4800 C   0  0  0  0  0  0  0  0  0  0  0  0
    1.7109   -1.0682    1.6239 O   0  0  0  0  0  0  0  0  0  0  0  0
   -0.3083   -0.7524    2.5578 N   0  0  0  0  0  0  0  0  0  0  0  0
   -1.3104   -0.8097    2.4098 H   0  0  0  0  0  0  0  0  0  0  0  0
    0.1994   -0.6101    3.9160 C   0  0  0  0  0  0  0  0  0  0  0  0
    0.9380    0.1970    3.9663 H   0  0  0  0  0  0  0  0  0  0  0  0
   -0.6191   -0.3723    4.6021 H   0  0  0  0  0  0  0  0  0  0  0  0
    0.6715   -1.5411    4.2475 H   0  0  0  0  0  0  0  0  0  0  0  0
  1  2  1  0  0  0  0
  2  3  1  0  0  0  0
  2  4  1  0  0  0  0
  2  5  1  0  0  0  0
  5  6  2  0  0  0  0
  5  7  1  0  0  0  0
  7  8  1  0  0  0  0
  7  9  1  0  0  0  0
  9 10  1  0  0  0  0
  9 11  1  0  0  0  0
  9 26  1  0  0  0  0
 11 12  1  0  0  0  0
 11 13  1  0  0  0  0
 11 14  1  0  0  0  0
 14 15  1  0  0  0  0
 14 16  1  0  0  0  0
 14 17  1  0  0  0  0
 17 18  1  0  0  0  0
 17 19  1  0  0  0  0
 17 20  1  0  0  0  0
 20 21  1  0  0  0  0
 20 22  1  0  0  0  0
 20 23  1  0  0  0  0
 23 24  1  0  0  0  0
 23 25  1  0  0  0  0
 26 27  2  0  0  0  0
 26 28  1  0  0  0  0
 28 29  1  0  0  0  0
 28 30  1  0  0  0  0
 30 31  1  0  0  0  0
 30 32  1  0  0  0  0
 30 33  1  0  0  0  0
M  END
$$$$

  -OEChem-03222214063D

 33 32  0     1  0  0  0  0  0999 V2000
   -2.9477   -4.8372    0.5747 H   0  0  0  0  0  0  0  0  0  0  0  0
   -2.9539   -3.8139    0.1884 C   0  0  0  0  0  0  0  0  0  0  0  0
   -3.6804   -3.2286    0.7570 H   0  0  0  0  0  0  0  0  0  0  0  0
   -3.2537   -3.8363   -0.8620 H   0  0  0  0  0  0  0  0  0  0  0  0
   -1.5739   -3.1979    0.3197 C   0  0  0  0  0  0  0  0  0  0  0  0
   -0.6570   -3.8562    0.7768 O   0  0  0  0  0  0  0  0  0  0  0  0
   -1.3692   -1.8892   -0.0715 N   0  0  0  0  0  0  0  0  0  0  0  0
   -2.1669   -1.3909   -0.4545 H   0  0  0  0  0  0  0  0  0  0  0  0
   -0.0786   -1.1818    0.0185 C   0  0  1  0  0  0  0  0  0  0  0  0
    0.6475   -1.7985   -0.5235 H   0  0  0  0  0  0  0  0  0  0  0  0
   -0.1968    0.1489   -0.7710 C   0  0  0  0  0  0  0  0  0  0  0  0
    0.7346    0.2476   -1.3386 H   0  0  0  0  0  0  0  0  0  0  0  0
   -1.0017    0.0895   -1.5110 H   0  0  0  0  0  0  0  0  0  0  0  0
   -0.3310    1.4415    0.0584 C   0  0  0  0  0  0  0  0  0  0  0  0
    0.2496    1.4059    0.9835 H   0  0  0  0  0  0  0  0  0  0  0  0
    0.0811    2.2688   -0.5292 H   0  0  0  0  0  0  0  0  0  0  0  0
   -1.8060    1.7519    0.3359 C   0  0  0  0  0  0  0  0  0  0  0  0
   -2.3277    1.9473   -0.6064 H   0  0  0  0  0  0  0  0  0  0  0  0
   -2.2791    0.8873    0.8120 H   0  0  0  0  0  0  0  0  0  0  0  0
   -1.9404    2.9586    1.2581 C   0  0  0  0  0  0  0  0  0  0  0  0
   -1.4113    2.7712    2.1995 H   0  0  0  0  0  0  0  0  0  0  0  0
   -1.4968    3.8442    0.7891 H   0  0  0  0  0  0  0  0  0  0  0  0
   -3.3652    3.1806    1.5225 N   0  0  0  0  0  0  0  0  0  0  0  0
   -3.5011    3.9529    2.1757 H   0  0  0  0  0  0  0  0  0  0  0  0
   -3.8767    3.3463    0.6558 H   0  0  0  0  0  0  0  0  0  0  0  0
    0.4871   -1.0730    1.4544 C   0  0  0  0  0  0  0  0  0  0  0  0
    1.6983   -1.0597    1.6301 O   0  0  0  0  0  0  0  0  0  0  0  0
   -0.3440   -0.7135    2.5015 N   0  0  0  0  0  0  0  0  0  0  0  0
   -1.3422   -0.7282    2.3198 H   0  0  0  0  0  0  0  0  0  0  0  0
    0.1268   -0.4887    3.8613 C   0  0  0  0  0  0  0  0  0  0  0  0
    0.8635    0.3213    3.8825 H   0  0  0  0  0  0  0  0  0  0  0  0
   -0.7098   -0.2107    4.5093 H   0  0  0  0  0  0  0  0  0  0  0  0
    0.5894   -1.3972    4.2611 H   0  0  0  0  0  0  0  0  0  0  0  0
  1  2  1  0  0  0  0
  2  3  1  0  0  0  0
  2  4  1  0  0  0  0
  2  5  1  0  0  0  0
  5  6  2  0  0  0  0
  5  7  1  0  0  0  0
  7  8  1  0  0  0  0
  7  9  1  0  0  0  0
  9 10  1  0  0  0  0
  9 11  1  0  0  0  0
  9 26  1  0  0  0  0
 11 12  1  0  0  0  0
 11 13  1  0  0  0  0
 11 14  1  0  0  0  0
 14 15  1  0  0  0  0
 14 16  1  0  0  0  0
 14 17  1  0  0  0  0
 17 18  1  0  0  0  0
 17 19  1  0  0  0  0
 17 20  1  0  0  0  0
 20 21  1  0  0  0  0
 20 22  1  0  0  0  0
 20 23  1  0  0  0  0
 23 24  1  0  0  0  0
 23 25  1  0  0  0  0
 26 27  2  0  0  0  0
 26 28  1  0  0  0  0
 28 29  1  0  0  0  0
 28 30  1  0  0  0  0
 30 31  1  0  0  0  0
 30 32  1  0  0  0  0
 30 33  1  0  0  0  0
M  END
$$$$

  -OEChem-03222214063D

 33 32  0     1  0  0  0  0  0999 V2000
   -2.9240   -4.8753    0.5573 H   0  0  0  0  0  0  0  0  0  0  0  0
   -2.9453   -3.8494    0.1784 C   0  0  0  0  0  0  0  0  0  0  0  0
   -3.6773   -3.2776    0.7537 H   0  0  0  0  0  0  0  0  0  0  0  0
   -3.2489   -3.8686   -0.8710 H   0  0  0  0  0  0  0  0  0  0  0  0
   -1.5723   -3.2176    0.3101 C   0  0  0  0  0  0  0  0  0  0  0  0
   -0.6465   -3.8686    0.7600 O   0  0  0  0  0  0  0  0  0  0  0  0
   -1.3808   -1.9055   -0.0758 N   0  0  0  0  0  0  0  0  0  0  0  0
   -2.1874   -1.4056   -0.4377 H   0  0  0  0  0  0  0  0  0  0  0  0
   -0.0993   -1.1851    0.0321 C   0  0  1  0  0  0  0  0  0  0  0  0
    0.6316   -1.8110   -0.4933 H   0  0  0  0  0  0  0  0  0  0  0  0
   -0.1837    0.1312   -0.7842 C   0  0  0  0  0  0  0  0  0  0  0  0
    0.7582    0.2210   -1.3357 H   0  0  0  0  0  0  0  0  0  0  0  0
   -0.9804    0.0643   -1.5322 H   0  0  0  0  0  0  0  0  0  0  0  0
   -0.3421    1.4297    0.0259 C   0  0  0  0  0  0  0  0  0  0  0  0
    0.3887    1.4684    0.8398 H   0  0  0  0  0  0  0  0  0  0  0  0
   -0.1312    2.2825   -0.6278 H   0  0  0  0  0  0  0  0  0  0  0  0
   -1.7714    1.5718    0.5678 C   0  0  0  0  0  0  0  0  0  0  0  0
   -2.4571    1.7688   -0.2624 H   0  0  0  0  0  0  0  0  0  0  0  0
   -2.0926    0.6441    1.0477 H   0  0  0  0  0  0  0  0  0  0  0  0
   -1.8543    2.7038    1.5850 C   0  0  0  0  0  0  0  0  0  0  0  0
   -1.1599    2.5155    2.4119 H   0  0  0  0  0  0  0  0  0  0  0  0
   -1.5772    3.6550    1.1167 H   0  0  0  0  0  0  0  0  0  0  0  0
   -3.2285    2.7631    2.0921 N   0  0  0  0  0  0  0  0  0  0  0  0
   -3.3194    3.4688    2.8239 H   0  0  0  0  0  0  0  0  0  0  0  0
   -3.8897    2.9403    1.3359 H   0  0  0  0  0  0  0  0  0  0  0  0
    0.4754   -1.0574    1.4648 C   0  0  0  0  0  0  0  0  0  0  0  0
    1.6889   -1.0338    1.6250 O   0  0  0  0  0  0  0  0  0  0  0  0
   -0.3381   -0.7016    2.5266 N   0  0  0  0  0  0  0  0  0  0  0  0
   -1.3387   -0.6854    2.3572 H   0  0  0  0  0  0  0  0  0  0  0  0
    0.1583   -0.4299    3.8687 C   0  0  0  0  0  0  0  0  0  0  0  0
    0.8677    0.4038    3.8525 H   0  0  0  0  0  0  0  0  0  0  0  0
   -0.6709   -0.1642    4.5313 H   0  0  0  0  0  0  0  0  0  0  0  0
    0.6602   -1.3133    4.2771 H   0  0  0  0  0  0  0  0  0  0  0  0
  1  2  1  0  0  0  0
  2  3  1  0  0  0  0
  2  4  1  0  0  0  0
  2  5  1  0  0  0  0
  5  6  2  0  0  0  0
  5  7  1  0  0  0  0
  7  8  1  0  0  0  0
  7  9  1  0  0  0  0
  9 10  1  0  0  0  0
  9 11  1  0  0  0  0
  9 26  1  0  0  0  0
 11 12  1  0  0  0  0
 11 13  1  0  0  0  0
 11 14  1  0  0  0  0
 14 15  1  0  0  0  0
 14 16  1  0  0  0  0
 14 17  1  0  0  0  0
 17 18  1  0  0  0  0
 17 19  1  0  0  0  0
 17 20  1  0  0  0  0
 20 21  1  0  0  0  0
 20 22  1  0  0  0  0
 20 23  1  0  0  0  0
 23 24  1  0  0  0  0
 23 25  1  0  0  0  0
 26 27  2  0  0  0  0
 26 28  1  0  0  0  0
 28 29  1  0  0  0  0
 28 30  1  0  0  0  0
 30 31  1  0  0  0  0
 30 32  1  0  0  0  0
 30 33  1  0  0  0  0
M  END
$$$$

  -OEChem-03222214063D

 33 32  0     1  0  0  0  0  0999 V2000
   -2.9115   -4.9313    0.4084 H   0  0  0  0  0  0  0  0  0  0  0  0
   -2.9421   -3.8895    0.0766 C   0  0  0  0  0  0  0  0  0  0  0  0
   -3.6991   -3.3578    0.6581 H   0  0  0  0  0  0  0  0  0  0  0  0
   -3.2191   -3.8656   -0.9801 H   0  0  0  0  0  0  0  0  0  0  0  0
   -1.5847   -3.2403    0.2723 C   0  0  0  0  0  0  0  0  0  0  0  0
   -0.6646   -3.8872    0.7399 O   0  0  0  0  0  0  0  0  0  0  0  0
   -1.4042   -1.9154   -0.0719 N   0  0  0  0  0  0  0  0  0  0  0  0
   -2.2090   -1.4185   -0.4413 H   0  0  0  0  0  0  0  0  0  0  0  0
   -0.1376   -1.1793    0.0836 C   0  0  1  0  0  0  0  0  0  0  0  0
    0.5980   -1.8179   -0.4195 H   0  0  0  0  0  0  0  0  0  0  0  0
   -0.1519    0.1175   -0.7672 C   0  0  0  0  0  0  0  0  0  0  0  0
    0.8171    0.1861   -1.2731 H   0  0  0  0  0  0  0  0  0  0  0  0
   -0.9116    0.0328   -1.5507 H   0  0  0  0  0  0  0  0  0  0  0  0
   -0.3540    1.4449   -0.0150 C   0  0  0  0  0  0  0  0  0  0  0  0
    0.4750    1.5709    0.6902 H   0  0  0  0  0  0  0  0  0  0  0  0
   -0.3035    2.2788   -0.7227 H   0  0  0  0  0  0  0  0  0  0  0  0
   -1.6935    1.5035    0.7430 C   0  0  0  0  0  0  0  0  0  0  0  0
   -1.9756    0.5261    1.1340 H   0  0  0  0  0  0  0  0  0  0  0  0
   -2.4811    1.8015    0.0436 H   0  0  0  0  0  0  0  0  0  0  0  0
   -1.6344    2.4978    1.8977 C   0  0  0  0  0  0  0  0  0  0  0  0
   -0.8315    2.2220    2.5907 H   0  0  0  0  0  0  0  0  0  0  0  0
   -1.4267    3.5053    1.5202 H   0  0  0  0  0  0  0  0  0  0  0  0
   -2.9248    2.4656    2.5934 N   0  0  0  0  0  0  0  0  0  0  0  0
   -2.9126    3.0695    3.4161 H   0  0  0  0  0  0  0  0  0  0  0  0
   -3.6850    2.7272    1.9656 H   0  0  0  0  0  0  0  0  0  0  0  0
    0.4470   -1.0563    1.5148 C   0  0  0  0  0  0  0  0  0  0  0  0
    1.6631   -1.0244    1.6548 O   0  0  0  0  0  0  0  0  0  0  0  0
   -0.3414   -0.7311    2.6044 N   0  0  0  0  0  0  0  0  0  0  0  0
   -1.3459   -0.7038    2.4598 H   0  0  0  0  0  0  0  0  0  0  0  0
    0.1864   -0.4900    3.9408 C   0  0  0  0  0  0  0  0  0  0  0  0
    0.8748    0.3614    3.9337 H   0  0  0  0  0  0  0  0  0  0  0  0
   -0.6302   -0.2683    4.6344 H   0  0  0  0  0  0  0  0  0  0  0  0
    0.7208   -1.3736    4.3053 H   0  0  0  0  0  0  0  0  0  0  0  0
  1  2  1  0  0  0  0
  2  3  1  0  0  0  0
  2  4  1  0  0  0  0
  2  5  1  0  0  0  0
  5  6  2  0  0  0  0
  5  7  1  0  0  0  0
  7  8  1  0  0  0  0
  7  9  1  0  0  0  0
  9 10  1  0  0  0  0
  9 11  1  0  0  0  0
  9 26  1  0  0  0  0
 11 12  1  0  0  0  0
 11 13  1  0  0  0  0
 11 14  1  0  0  0  0
 14 15  1  0  0  0  0
 14 16  1  0  0  0  0
 14 17  1  0  0  0  0
 17 18  1  0  0  0  0
 17 19  1  0  0  0  0
 17 20  1  0  0  0  0
 20 21  1  0  0  0  0
 20 22  1  0  0  0  0
 20 23  1  0  0  0  0
 23 24  1  0  0  0  0
 23 25  1  0  0  0  0
 26 27  2  0  0  0  0
 26 28  1  0  0  0  0
 28 29  1  0  0  0  0
 28 30  1  0  0  0  0
 30 31  1  0  0  0  0
 30 32  1  0  0  0  0
 30 33  1  0  0  0  0
M  END
$$$$

  -OEChem-03222214063D

 33 32  0     1  0  0  0  0  0999 V2000
   -2.7624   -5.0386    0.3571 H   0  0  0  0  0  0  0  0  0  0  0  0
   -2.8461   -3.9917    0.0516 C   0  0  0  0  0  0  0  0  0  0  0  0
   -3.6121   -3.5078    0.6621 H   0  0  0  0  0  0  0  0  0  0  0  0
   -3.1474   -3.9548   -0.9980 H   0  0  0  0  0  0  0  0  0  0  0  0
   -1.5147   -3.2874    0.2333 C   0  0  0  0  0  0  0  0  0  0  0  0
   -0.5512   -3.9087    0.6451 O   0  0  0  0  0  0  0  0  0  0  0  0
   -1.4075   -1.9428   -0.0632 N   0  0  0  0  0  0  0  0  0  0  0  0
   -2.2505   -1.4688   -0.3720 H   0  0  0  0  0  0  0  0  0  0  0  0
   -0.1781   -1.1479    0.1024 C   0  0  1  0  0  0  0  0  0  0  0  0
    0.5744   -1.7637   -0.4051 H   0  0  0  0  0  0  0  0  0  0  0  0
   -0.2047    0.1347   -0.7698 C   0  0  0  0  0  0  0  0  0  0  0  0
    0.7682    0.2148   -1.2670 H   0  0  0  0  0  0  0  0  0  0  0  0
   -0.9498   -0.0019   -1.5601 H   0  0  0  0  0  0  0  0  0  0  0  0
   -0.4683    1.4961   -0.0953 C   0  0  0  0  0  0  0  0  0  0  0  0
    0.4537    1.7739    0.4273 H   0  0  0  0  0  0  0  0  0  0  0  0
   -0.6404    2.2569   -0.8637 H   0  0  0  0  0  0  0  0  0  0  0  0
   -1.6320    1.5175    0.9155 C   0  0  0  0  0  0  0  0  0  0  0  0
   -1.9246    0.5118    1.2139 H   0  0  0  0  0  0  0  0  0  0  0  0
   -2.5073    1.9520    0.4227 H   0  0  0  0  0  0  0  0  0  0  0  0
   -1.3002    2.3457    2.1542 C   0  0  0  0  0  0  0  0  0  0  0  0
   -0.3836    1.9757    2.6257 H   0  0  0  0  0  0  0  0  0  0  0  0
   -1.1365    3.3925    1.8751 H   0  0  0  0  0  0  0  0  0  0  0  0
   -2.4228    2.2321    3.0913 N   0  0  0  0  0  0  0  0  0  0  0  0
   -2.2204    2.7201    3.9647 H   0  0  0  0  0  0  0  0  0  0  0  0
   -3.2840    2.5843    2.6731 H   0  0  0  0  0  0  0  0  0  0  0  0
    0.4329   -1.0387    1.5242 C   0  0  0  0  0  0  0  0  0  0  0  0
    1.6500   -0.9637    1.6377 O   0  0  0  0  0  0  0  0  0  0  0  0
   -0.3374   -0.7920    2.6465 N   0  0  0  0  0  0  0  0  0  0  0  0
   -1.3436   -0.7410    2.5197 H   0  0  0  0  0  0  0  0  0  0  0  0
    0.2131   -0.5919    3.9807 C   0  0  0  0  0  0  0  0  0  0  0  0
    0.9238    0.2410    3.9843 H   0  0  0  0  0  0  0  0  0  0  0  0
   -0.5899   -0.3624    4.6875 H   0  0  0  0  0  0  0  0  0  0  0  0
    0.7277   -1.4966    4.3206 H   0  0  0  0  0  0  0  0  0  0  0  0
  1  2  1  0  0  0  0
  2  3  1  0  0  0  0
  2  4  1  0  0  0  0
  2  5  1  0  0  0  0
  5  6  2  0  0  0  0
  5  7  1  0  0  0  0
  7  8  1  0  0  0  0
  7  9  1  0  0  0  0
  9 10  1  0  0  0  0
  9 11  1  0  0  0  0
  9 26  1  0  0  0  0
 11 12  1  0  0  0  0
 11 13  1  0  0  0  0
 11 14  1  0  0  0  0
 14 15  1  0  0  0  0
 14 16  1  0  0  0  0
 14 17  1  0  0  0  0
 17 18  1  0  0  0  0
 17 19  1  0  0  0  0
 17 20  1  0  0  0  0
 20 21  1  0  0  0  0
 20 22  1  0  0  0  0
 20 23  1  0  0  0  0
 23 24  1  0  0  0  0
 23 25  1  0  0  0  0
 26 27  2  0  0  0  0
 26 28  1  0  0  0  0
 28 29  1  0  0  0  0
 28 30  1  0  0  0  0
 30 31  1  0  0  0  0
 30 32  1  0  0  0  0
 30 33  1  0  0  0  0
M  END
$$$$

  -OEChem-03222214063D

 33 32  0     1  0  0  0  0  0999 V2000
   -2.9078   -4.9901    0.1348 H   0  0  0  0  0  0  0  0  0  0  0  0
   -2.9326   -3.9287   -0.1286 C   0  0  0  0  0  0  0  0  0  0  0  0
   -3.7201   -3.4413    0.4511 H   0  0  0  0  0  0  0  0  0  0  0  0
   -3.1607   -3.8361   -1.1932 H   0  0  0  0  0  0  0  0  0  0  0  0
   -1.5920   -3.2856    0.1734 C   0  0  0  0  0  0  0  0  0  0  0  0
   -0.6889   -3.9578    0.6385 O   0  0  0  0  0  0  0  0  0  0  0  0
   -1.4093   -1.9386   -0.0726 N   0  0  0  0  0  0  0  0  0  0  0  0
   -2.2060   -1.4229   -0.4334 H   0  0  0  0  0  0  0  0  0  0  0  0
   -0.1701   -1.1963    0.2189 C   0  0  1  0  0  0  0  0  0  0  0  0
    0.5947   -1.8514   -0.2161 H   0  0  0  0  0  0  0  0  0  0  0  0
   -0.0333    0.0689   -0.6714 C   0  0  0  0  0  0  0  0  0  0  0  0
    0.9888    0.0743   -1.0659 H   0  0  0  0  0  0  0  0  0  0  0  0
   -0.6936   -0.0661   -1.5340 H   0  0  0  0  0  0  0  0  0  0  0  0
   -0.2896    1.4909   -0.1208 C   0  0  0  0  0  0  0  0  0  0  0  0
    0.6725    1.8738    0.2368 H   0  0  0  0  0  0  0  0  0  0  0  0
   -0.5880    2.1347   -0.9548 H   0  0  0  0  0  0  0  0  0  0  0  0
   -1.3190    1.6427    1.0132 C   0  0  0  0  0  0  0  0  0  0  0  0
   -1.8008    0.6907    1.2362 H   0  0  0  0  0  0  0  0  0  0  0  0
   -2.1147    2.3089    0.6650 H   0  0  0  0  0  0  0  0  0  0  0  0
   -0.7101    2.2532    2.2748 C   0  0  0  0  0  0  0  0  0  0  0  0
    0.1500    1.6642    2.6090 H   0  0  0  0  0  0  0  0  0  0  0  0
   -0.3548    3.2679    2.0653 H   0  0  0  0  0  0  0  0  0  0  0  0
   -1.7435    2.2812    3.3159 N   0  0  0  0  0  0  0  0  0  0  0  0
   -1.3629    2.6269    4.1975 H   0  0  0  0  0  0  0  0  0  0  0  0
   -2.5417    2.8439    3.0222 H   0  0  0  0  0  0  0  0  0  0  0  0
    0.3103   -1.1560    1.6921 C   0  0  0  0  0  0  0  0  0  0  0  0
    1.5132   -1.1443    1.9220 O   0  0  0  0  0  0  0  0  0  0  0  0
   -0.5540   -0.9145    2.7444 N   0  0  0  0  0  0  0  0  0  0  0  0
   -1.5364   -0.7895    2.5228 H   0  0  0  0  0  0  0  0  0  0  0  0
   -0.1320   -0.8257    4.1364 C   0  0  0  0  0  0  0  0  0  0  0  0
    0.6151   -0.0362    4.2655 H   0  0  0  0  0  0  0  0  0  0  0  0
   -0.9902   -0.5945    4.7744 H   0  0  0  0  0  0  0  0  0  0  0  0
    0.2998   -1.7767    4.4647 H   0  0  0  0  0  0  0  0  0  0  0  0
  1  2  1  0  0  0  0
  2  3  1  0  0  0  0
  2  4  1  0  0  0  0
  2  5  1  0  0  0  0
  5  6  2  0  0  0  0
  5  7  1  0  0  0  0
  7  8  1  0  0  0  0
  7  9  1  0  0  0  0
  9 10  1  0  0  0  0
  9 11  1  0  0  0  0
  9 26  1  0  0  0  0
 11 12  1  0  0  0  0
 11 13  1  0  0  0  0
 11 14  1  0  0  0  0
 14 15  1  0  0  0  0
 14 16  1  0  0  0  0
 14 17  1  0  0  0  0
 17 18  1  0  0  0  0
 17 19  1  0  0  0  0
 17 20  1  0  0  0  0
 20 21  1  0  0  0  0
 20 22  1  0  0  0  0
 20 23  1  0  0  0  0
 23 24  1  0  0  0  0
 23 25  1  0  0  0  0
 26 27  2  0  0  0  0
 26 28  1  0  0  0  0
 28 29  1  0  0  0  0
 28 30  1  0  0  0  0
 30 31  1  0  0  0  0
 30 32  1  0  0  0  0
 30 33  1  0  0  0  0
M  END
$$$$

  -OEChem-03222214063D

 33 32  0     1  0  0  0  0  0999 V2000
   -3.1210   -4.9146    0.1668 H   0  0  0  0  0  0  0  0  0  0  0  0
   -3.1064   -3.8418   -0.0462 C   0  0  0  0  0  0  0  0  0  0  0  0
   -3.8063   -3.3411    0.6267 H   0  0  0  0  0  0  0  0  0  0  0  0
   -3.4260   -3.6842   -1.0791 H   0  0  0  0  0  0  0  0  0  0  0  0
   -1.7071   -3.2904    0.1533 C   0  0  0  0  0  0  0  0  0  0  0  0
   -0.7931   -4.0458    0.4304 O   0  0  0  0  0  0  0  0  0  0  0  0
   -1.4814   -1.9334    0.0261 N   0  0  0  0  0  0  0  0  0  0  0  0
   -2.2787   -1.3541   -0.2178 H   0  0  0  0  0  0  0  0  0  0  0  0
   -0.1623   -1.2873    0.1581 C   0  0  1  0  0  0  0  0  0  0  0  0
    0.4740   -1.9082   -0.4843 H   0  0  0  0  0  0  0  0  0  0  0  0
   -0.1328    0.0800   -0.5847 C   0  0  0  0  0  0  0  0  0  0  0  0
    0.7962    0.0930   -1.1654 H   0  0  0  0  0  0  0  0  0  0  0  0
   -0.9452    0.0700   -1.3183 H   0  0  0  0  0  0  0  0  0  0  0  0
   -0.1908    1.4501    0.1380 C   0  0  0  0  0  0  0  0  0  0  0  0
    0.8076    1.8988    0.0917 H   0  0  0  0  0  0  0  0  0  0  0  0
   -0.8560    2.0955   -0.4453 H   0  0  0  0  0  0  0  0  0  0  0  0
   -0.6322    1.4856    1.6030 C   0  0  0  0  0  0  0  0  0  0  0  0
   -1.5034    0.8388    1.7436 H   0  0  0  0  0  0  0  0  0  0  0  0
    0.1859    1.1402    2.2393 H   0  0  0  0  0  0  0  0  0  0  0  0
   -0.9885    2.9069    2.0313 C   0  0  0  0  0  0  0  0  0  0  0  0
   -0.1109    3.5557    1.9341 H   0  0  0  0  0  0  0  0  0  0  0  0
   -1.7817    3.3086    1.3912 H   0  0  0  0  0  0  0  0  0  0  0  0
   -1.4394    2.8778    3.4263 N   0  0  0  0  0  0  0  0  0  0  0  0
   -1.6352    3.8177    3.7716 H   0  0  0  0  0  0  0  0  0  0  0  0
   -2.2507    2.2715    3.5398 H   0  0  0  0  0  0  0  0  0  0  0  0
    0.5536   -1.4629    1.5197 C   0  0  0  0  0  0  0  0  0  0  0  0
    1.7767   -1.5105    1.5473 O   0  0  0  0  0  0  0  0  0  0  0  0
   -0.1273   -1.3134    2.7150 N   0  0  0  0  0  0  0  0  0  0  0  0
   -1.1373   -1.2429    2.6647 H   0  0  0  0  0  0  0  0  0  0  0  0
    0.5200   -1.3335    4.0204 C   0  0  0  0  0  0  0  0  0  0  0  0
    1.2439   -0.5157    4.1013 H   0  0  0  0  0  0  0  0  0  0  0  0
   -0.2247   -1.2147    4.8132 H   0  0  0  0  0  0  0  0  0  0  0  0
    1.0418   -2.2838    4.1740 H   0  0  0  0  0  0  0  0  0  0  0  0
  1  2  1  0  0  0  0
  2  3  1  0  0  0  0
  2  4  1  0  0  0  0
  2  5  1  0  0  0  0
  5  6  2  0  0  0  0
  5  7  1  0  0  0  0
  7  8  1  0  0  0  0
  7  9  1  0  0  0  0
  9 10  1  0  0  0  0
  9 11  1  0  0  0  0
  9 26  1  0  0  0  0
 11 12  1  0  0  0  0
 11 13  1  0  0  0  0
 11 14  1  0  0  0  0
 14 15  1  0  0  0  0
 14 16  1  0  0  0  0
 14 17  1  0  0  0  0
 17 18  1  0  0  0  0
 17 19  1  0  0  0  0
 17 20  1  0  0  0  0
 20 21  1  0  0  0  0
 20 22  1  0  0  0  0
 20 23  1  0  0  0  0
 23 24  1  0  0  0  0
 23 25  1  0  0  0  0
 26 27  2  0  0  0  0
 26 28  1  0  0  0  0
 28 29  1  0  0  0  0
 28 30  1  0  0  0  0
 30 31  1  0  0  0  0
 30 32  1  0  0  0  0
 30 33  1  0  0  0  0
M  END
$$$$

  -OEChem-03222214063D

 33 32  0     1  0  0  0  0  0999 V2000
   -2.7106   -5.1132    0.3407 H   0  0  0  0  0  0  0  0  0  0  0  0
   -2.7942   -4.0595    0.0591 C   0  0  0  0  0  0  0  0  0  0  0  0
   -3.5994   -3.6030    0.6396 H   0  0  0  0  0  0  0  0  0  0  0  0
   -3.0388   -3.9989   -1.0040 H   0  0  0  0  0  0  0  0  0  0  0  0
   -1.4858   -3.3419    0.3321 C   0  0  0  0  0  0  0  0  0  0  0  0
   -0.5576   -3.9483    0.8352 O   0  0  0  0  0  0  0  0  0  0  0  0
   -1.3653   -2.0010    0.0223 N   0  0  0  0  0  0  0  0  0  0  0  0
   -2.1667   -1.5571   -0.4154 H   0  0  0  0  0  0  0  0  0  0  0  0
   -0.1344   -1.2051    0.1898 C   0  0  1  0  0  0  0  0  0  0  0  0
    0.6359   -1.8215   -0.2896 H   0  0  0  0  0  0  0  0  0  0  0  0
   -0.1981    0.0450   -0.7388 C   0  0  0  0  0  0  0  0  0  0  0  0
    0.7922    0.1024   -1.2043 H   0  0  0  0  0  0  0  0  0  0  0  0
   -0.8966   -0.1702   -1.5542 H   0  0  0  0  0  0  0  0  0  0  0  0
   -0.4836    1.4873   -0.2416 C   0  0  0  0  0  0  0  0  0  0  0  0
    0.3311    2.1445   -0.5764 H   0  0  0  0  0  0  0  0  0  0  0  0
   -1.3658    1.8096   -0.8146 H   0  0  0  0  0  0  0  0  0  0  0  0
   -0.7172    1.6826    1.2802 C   0  0  0  0  0  0  0  0  0  0  0  0
   -1.4766    2.4017    0.9585 H   0  0  0  0  0  0  0  0  0  0  0  0
    0.3764    1.6240    1.3267 H   0  0  0  0  0  0  0  0  0  0  0  0
   -0.5868    2.7204    2.4222 C   0  0  0  0  0  0  0  0  0  0  0  0
   -0.1661    3.6598    2.0409 H   0  0  0  0  0  0  0  0  0  0  0  0
   -1.5767    2.9442    2.8426 H   0  0  0  0  0  0  0  0  0  0  0  0
    0.2608    2.2122    3.5090 N   0  0  0  0  0  0  0  0  0  0  0  0
    0.1114    2.7227    4.3785 H   0  0  0  0  0  0  0  0  0  0  0  0
    0.1317    1.2061    3.6359 H   0  0  0  0  0  0  0  0  0  0  0  0
    0.4044   -1.1237    1.6407 C   0  0  0  0  0  0  0  0  0  0  0  0
    1.6114   -1.1626    1.8391 O   0  0  0  0  0  0  0  0  0  0  0  0
   -0.4411   -0.8859    2.7124 N   0  0  0  0  0  0  0  0  0  0  0  0
   -1.4319   -0.9561    2.5071 H   0  0  0  0  0  0  0  0  0  0  0  0
   -0.0077   -1.0640    4.0940 C   0  0  0  0  0  0  0  0  0  0  0  0
    0.9088   -0.4975    4.2920 H   0  0  0  0  0  0  0  0  0  0  0  0
   -0.7828   -0.7119    4.7813 H   0  0  0  0  0  0  0  0  0  0  0  0
    0.1860   -2.1224    4.2973 H   0  0  0  0  0  0  0  0  0  0  0  0
  1  2  1  0  0  0  0
  2  3  1  0  0  0  0
  2  4  1  0  0  0  0
  2  5  1  0  0  0  0
  5  6  2  0  0  0  0
  5  7  1  0  0  0  0
  7  8  1  0  0  0  0
  7  9  1  0  0  0  0
  9 10  1  0  0  0  0
  9 11  1  0  0  0  0
  9 26  1  0  0  0  0
 11 12  1  0  0  0  0
 11 13  1  0  0  0  0
 11 14  1  0  0  0  0
 14 15  1  0  0  0  0
 14 16  1  0  0  0  0
 14 17  1  0  0  0  0
 17 18  1  0  0  0  0
 17 19  1  0  0  0  0
 17 20  1  0  0  0  0
 20 21  1  0  0  0  0
 20 22  1  0  0  0  0
 20 23  1  0  0  0  0
 23 24  1  0  0  0  0
 23 25  1  0  0  0  0
 26 27  2  0  0  0  0
 26 28  1  0  0  0  0
 28 29  1  0  0  0  0
 28 30  1  0  0  0  0
 30 31  1  0  0  0  0
 30 32  1  0  0  0  0
 30 33  1  0  0  0  0
M  END
$$$$

  -OEChem-03222214063D

 33 32  0     1  0  0  0  0  0999 V2000
   -3.3666   -4.4988    0.6689 H   0  0  0  0  0  0  0  0  0  0  0  0
   -3.2631   -3.4652    0.3264 C   0  0  0  0  0  0  0  0  0  0  0  0
   -3.9403   -2.8338    0.9066 H   0  0  0  0  0  0  0  0  0  0  0  0
   -3.5412   -3.4150   -0.7291 H   0  0  0  0  0  0  0  0  0  0  0  0
   -1.8314   -2.9975    0.5069 C   0  0  0  0  0  0  0  0  0  0  0  0
   -0.9895   -3.7710    0.9258 O   0  0  0  0  0  0  0  0  0  0  0  0
   -1.4972   -1.6894    0.2138 N   0  0  0  0  0  0  0  0  0  0  0  0
   -2.2329   -1.1079   -0.1759 H   0  0  0  0  0  0  0  0  0  0  0  0
   -0.1216   -1.1576    0.2173 C   0  0  1  0  0  0  0  0  0  0  0  0
    0.4193   -1.9200   -0.3570 H   0  0  0  0  0  0  0  0  0  0  0  0
   -0.0118    0.0745   -0.7310 C   0  0  0  0  0  0  0  0  0  0  0  0
    0.9240   -0.0913   -1.2771 H   0  0  0  0  0  0  0  0  0  0  0  0
   -0.8084    0.0036   -1.4783 H   0  0  0  0  0  0  0  0  0  0  0  0
    0.0715    1.5605   -0.2823 C   0  0  0  0  0  0  0  0  0  0  0  0
    0.8376    2.0326   -0.9069 H   0  0  0  0  0  0  0  0  0  0  0  0
   -0.8763    2.0403   -0.5489 H   0  0  0  0  0  0  0  0  0  0  0  0
    0.3896    1.9396    1.1678 C   0  0  0  0  0  0  0  0  0  0  0  0
    0.8253    2.9441    1.1764 H   0  0  0  0  0  0  0  0  0  0  0  0
    1.1458    1.2768    1.5900 H   0  0  0  0  0  0  0  0  0  0  0  0
   -0.8809    1.9843    2.0167 C   0  0  0  0  0  0  0  0  0  0  0  0
   -1.5248    2.8046    1.6805 H   0  0  0  0  0  0  0  0  0  0  0  0
   -1.4473    1.0546    1.9097 H   0  0  0  0  0  0  0  0  0  0  0  0
   -0.4977    2.1925    3.4145 N   0  0  0  0  0  0  0  0  0  0  0  0
   -1.3098    2.1970    4.0306 H   0  0  0  0  0  0  0  0  0  0  0  0
    0.1842    1.4907    3.7082 H   0  0  0  0  0  0  0  0  0  0  0  0
    0.6556   -1.2398    1.5537 C   0  0  0  0  0  0  0  0  0  0  0  0
    1.8661   -1.4205    1.5270 O   0  0  0  0  0  0  0  0  0  0  0  0
    0.0699   -0.8951    2.7587 N   0  0  0  0  0  0  0  0  0  0  0  0
   -0.9436   -0.8547    2.7626 H   0  0  0  0  0  0  0  0  0  0  0  0
    0.7680   -1.0143    4.0331 C   0  0  0  0  0  0  0  0  0  0  0  0
    1.6740   -0.3990    4.0338 H   0  0  0  0  0  0  0  0  0  0  0  0
    0.1236   -0.6781    4.8507 H   0  0  0  0  0  0  0  0  0  0  0  0
    1.0497   -2.0563    4.2178 H   0  0  0  0  0  0  0  0  0  0  0  0
  1  2  1  0  0  0  0
  2  3  1  0  0  0  0
  2  4  1  0  0  0  0
  2  5  1  0  0  0  0
  5  6  2  0  0  0  0
  5  7  1  0  0  0  0
  7  8  1  0  0  0  0
  7  9  1  0  0  0  0
  9 10  1  0  0  0  0
  9 11  1  0  0  0  0
  9 26  1  0  0  0  0
 11 12  1  0  0  0  0
 11 13  1  0  0  0  0
 11 14  1  0  0  0  0
 14 15  1  0  0  0  0
 14 16  1  0  0  0  0
 14 17  1  0  0  0  0
 17 18  1  0  0  0  0
 17 19  1  0  0  0  0
 17 20  1  0  0  0  0
 20 21  1  0  0  0  0
 20 22  1  0  0  0  0
 20 23  1  0  0  0  0
 23 24  1  0  0  0  0
 23 25  1  0  0  0  0
 26 27  2  0  0  0  0
 26 28  1  0  0  0  0
 28 29  1  0  0  0  0
 28 30  1  0  0  0  0
 30 31  1  0  0  0  0
 30 32  1  0  0  0  0
 30 33  1  0  0  0  0
M  END
$$$$

  -OEChem-03222214063D

 33 32  0     1  0  0  0  0  0999 V2000
   -3.4711   -4.4359    0.4947 H   0  0  0  0  0  0  0  0  0  0  0  0
   -3.3193   -3.3991    0.1812 C   0  0  0  0  0  0  0  0  0  0  0  0
   -3.9953   -2.7572    0.7509 H   0  0  0  0  0  0  0  0  0  0  0  0
   -3.5561   -3.3166   -0.8823 H   0  0  0  0  0  0  0  0  0  0  0  0
   -1.8800   -2.9864    0.4257 C   0  0  0  0  0  0  0  0  0  0  0  0
   -1.1002   -3.7774    0.9240 O   0  0  0  0  0  0  0  0  0  0  0  0
   -1.4682   -1.7101    0.0931 N   0  0  0  0  0  0  0  0  0  0  0  0
   -2.1530   -1.1140   -0.3617 H   0  0  0  0  0  0  0  0  0  0  0  0
   -0.0751   -1.2307    0.1762 C   0  0  1  0  0  0  0  0  0  0  0  0
    0.4954   -2.0108   -0.3428 H   0  0  0  0  0  0  0  0  0  0  0  0
    0.0972    0.0035   -0.7612 C   0  0  0  0  0  0  0  0  0  0  0  0
    1.0554   -0.1794   -1.2601 H   0  0  0  0  0  0  0  0  0  0  0  0
   -0.6636   -0.0477   -1.5467 H   0  0  0  0  0  0  0  0  0  0  0  0
    0.1958    1.4860   -0.3074 C   0  0  0  0  0  0  0  0  0  0  0  0
    0.7766    2.0093   -1.0746 H   0  0  0  0  0  0  0  0  0  0  0  0
   -0.8143    1.9057   -0.3541 H   0  0  0  0  0  0  0  0  0  0  0  0
    0.7996    1.8691    1.0533 C   0  0  0  0  0  0  0  0  0  0  0  0
    1.4397    2.7457    0.9091 H   0  0  0  0  0  0  0  0  0  0  0  0
    1.4520    1.0837    1.4337 H   0  0  0  0  0  0  0  0  0  0  0  0
   -0.2752    2.2564    2.0694 C   0  0  0  0  0  0  0  0  0  0  0  0
   -0.7704    3.1816    1.7542 H   0  0  0  0  0  0  0  0  0  0  0  0
   -1.0408    1.4786    2.1362 H   0  0  0  0  0  0  0  0  0  0  0  0
    0.3686    2.4535    3.3696 N   0  0  0  0  0  0  0  0  0  0  0  0
   -0.3147    2.6551    4.0986 H   0  0  0  0  0  0  0  0  0  0  0  0
    0.9383    1.6421    3.6147 H   0  0  0  0  0  0  0  0  0  0  0  0
    0.5581   -1.2842    1.5859 C   0  0  0  0  0  0  0  0  0  0  0  0
    1.7474   -1.5497    1.7032 O   0  0  0  0  0  0  0  0  0  0  0  0
   -0.1397   -0.8547    2.6999 N   0  0  0  0  0  0  0  0  0  0  0  0
   -1.1430   -0.7642    2.5825 H   0  0  0  0  0  0  0  0  0  0  0  0
    0.3948   -0.9708    4.0512 C   0  0  0  0  0  0  0  0  0  0  0  0
    1.3493   -0.4403    4.1344 H   0  0  0  0  0  0  0  0  0  0  0  0
   -0.3039   -0.5368    4.7728 H   0  0  0  0  0  0  0  0  0  0  0  0
    0.5542   -2.0230    4.3091 H   0  0  0  0  0  0  0  0  0  0  0  0
  1  2  1  0  0  0  0
  2  3  1  0  0  0  0
  2  4  1  0  0  0  0
  2  5  1  0  0  0  0
  5  6  2  0  0  0  0
  5  7  1  0  0  0  0
  7  8  1  0  0  0  0
  7  9  1  0  0  0  0
  9 10  1  0  0  0  0
  9 11  1  0  0  0  0
  9 26  1  0  0  0  0
 11 12  1  0  0  0  0
 11 13  1  0  0  0  0
 11 14  1  0  0  0  0
 14 15  1  0  0  0  0
 14 16  1  0  0  0  0
 14 17  1  0  0  0  0
 17 18  1  0  0  0  0
 17 19  1  0  0  0  0
 17 20  1  0  0  0  0
 20 21  1  0  0  0  0
 20 22  1  0  0  0  0
 20 23  1  0  0  0  0
 23 24  1  0  0  0  0
 23 25  1  0  0  0  0
 26 27  2  0  0  0  0
 26 28  1  0  0  0  0
 28 29  1  0  0  0  0
 28 30  1  0  0  0  0
 30 31  1  0  0  0  0
 30 32  1  0  0  0  0
 30 33  1  0  0  0  0
M  END
$$$$

  -OEChem-03222214063D

 33 32  0     1  0  0  0  0  0999 V2000
   -3.0866   -4.9014    0.1632 H   0  0  0  0  0  0  0  0  0  0  0  0
   -3.0665   -3.8351   -0.0799 C   0  0  0  0  0  0  0  0  0  0  0  0
   -3.8063   -3.3202    0.5373 H   0  0  0  0  0  0  0  0  0  0  0  0
   -3.3280   -3.7105   -1.1334 H   0  0  0  0  0  0  0  0  0  0  0  0
   -1.6844   -3.2672    0.1814 C   0  0  0  0  0  0  0  0  0  0  0  0
   -0.7961   -3.9982    0.5794 O   0  0  0  0  0  0  0  0  0  0  0  0
   -1.4469   -1.9230   -0.0330 N   0  0  0  0  0  0  0  0  0  0  0  0
   -2.2159   -1.3760   -0.4072 H   0  0  0  0  0  0  0  0  0  0  0  0
   -0.1337   -1.2665    0.1212 C   0  0  1  0  0  0  0  0  0  0  0  0
    0.5607   -1.8680   -0.4776 H   0  0  0  0  0  0  0  0  0  0  0  0
   -0.1849    0.1116   -0.6026 C   0  0  0  0  0  0  0  0  0  0  0  0
    0.7585    0.1723   -1.1559 H   0  0  0  0  0  0  0  0  0  0  0  0
   -0.9775    0.0839   -1.3572 H   0  0  0  0  0  0  0  0  0  0  0  0
   -0.2909    1.4678    0.1368 C   0  0  0  0  0  0  0  0  0  0  0  0
   -0.0861    2.2478   -0.6043 H   0  0  0  0  0  0  0  0  0  0  0  0
   -1.3273    1.5984    0.4639 H   0  0  0  0  0  0  0  0  0  0  0  0
    0.6138    1.7031    1.3554 C   0  0  0  0  0  0  0  0  0  0  0  0
    0.1929    1.2314    2.2421 H   0  0  0  0  0  0  0  0  0  0  0  0
    1.6062    1.2799    1.1673 H   0  0  0  0  0  0  0  0  0  0  0  0
    0.7548    3.1963    1.6427 C   0  0  0  0  0  0  0  0  0  0  0  0
    1.1862    3.7102    0.7762 H   0  0  0  0  0  0  0  0  0  0  0  0
   -0.2304    3.6319    1.8419 H   0  0  0  0  0  0  0  0  0  0  0  0
    1.6288    3.3707    2.8060 N   0  0  0  0  0  0  0  0  0  0  0  0
    1.6954    4.3503    3.0809 H   0  0  0  0  0  0  0  0  0  0  0  0
    1.3253    2.7884    3.5864 H   0  0  0  0  0  0  0  0  0  0  0  0
    0.4475   -1.3783    1.5492 C   0  0  0  0  0  0  0  0  0  0  0  0
    1.6547   -1.5031    1.7075 O   0  0  0  0  0  0  0  0  0  0  0  0
   -0.3566   -1.1512    2.6532 N   0  0  0  0  0  0  0  0  0  0  0  0
   -1.3569   -1.1402    2.4881 H   0  0  0  0  0  0  0  0  0  0  0  0
    0.1332   -1.2560    4.0216 C   0  0  0  0  0  0  0  0  0  0  0  0
    0.9695   -0.5673    4.1825 H   0  0  0  0  0  0  0  0  0  0  0  0
   -0.6619   -1.0028    4.7289 H   0  0  0  0  0  0  0  0  0  0  0  0
    0.4722   -2.2767    4.2284 H   0  0  0  0  0  0  0  0  0  0  0  0
  1  2  1  0  0  0  0
  2  3  1  0  0  0  0
  2  4  1  0  0  0  0
  2  5  1  0  0  0  0
  5  6  2  0  0  0  0
  5  7  1  0  0  0  0
  7  8  1  0  0  0  0
  7  9  1  0  0  0  0
  9 10  1  0  0  0  0
  9 11  1  0  0  0  0
  9 26  1  0  0  0  0
 11 12  1  0  0  0  0
 11 13  1  0  0  0  0
 11 14  1  0  0  0  0
 14 15  1  0  0  0  0
 14 16  1  0  0  0  0
 14 17  1  0  0  0  0
 17 18  1  0  0  0  0
 17 19  1  0  0  0  0
 17 20  1  0  0  0  0
 20 21  1  0  0  0  0
 20 22  1  0  0  0  0
 20 23  1  0  0  0  0
 23 24  1  0  0  0  0
 23 25  1  0  0  0  0
 26 27  2  0  0  0  0
 26 28  1  0  0  0  0
 28 29  1  0  0  0  0
 28 30  1  0  0  0  0
 30 31  1  0  0  0  0
 30 32  1  0  0  0  0
 30 33  1  0  0  0  0
M  END
$$$$

  -OEChem-03222214063D

 33 32  0     1  0  0  0  0  0999 V2000
   -3.0786   -4.8581    0.2920 H   0  0  0  0  0  0  0  0  0  0  0  0
   -3.0383   -3.8112   -0.0227 C   0  0  0  0  0  0  0  0  0  0  0  0
   -3.7965   -3.2494    0.5280 H   0  0  0  0  0  0  0  0  0  0  0  0
   -3.2578   -3.7578   -1.0917 H   0  0  0  0  0  0  0  0  0  0  0  0
   -1.6613   -3.2368    0.2525 C   0  0  0  0  0  0  0  0  0  0  0  0
   -0.7959   -3.9450    0.7334 O   0  0  0  0  0  0  0  0  0  0  0  0
   -1.4038   -1.9121   -0.0437 N   0  0  0  0  0  0  0  0  0  0  0  0
   -2.1505   -1.3931   -0.4949 H   0  0  0  0  0  0  0  0  0  0  0  0
   -0.0863   -1.2592    0.0936 C   0  0  1  0  0  0  0  0  0  0  0  0
    0.6218   -1.8728   -0.4757 H   0  0  0  0  0  0  0  0  0  0  0  0
   -0.1593    0.1066   -0.6493 C   0  0  0  0  0  0  0  0  0  0  0  0
    0.7608    0.1767   -1.2391 H   0  0  0  0  0  0  0  0  0  0  0  0
   -0.9816    0.0729   -1.3713 H   0  0  0  0  0  0  0  0  0  0  0  0
   -0.2649    1.4452    0.1172 C   0  0  0  0  0  0  0  0  0  0  0  0
   -0.3302    2.2386   -0.6350 H   0  0  0  0  0  0  0  0  0  0  0  0
   -1.2021    1.4544    0.6825 H   0  0  0  0  0  0  0  0  0  0  0  0
    0.8883    1.7859    1.0783 C   0  0  0  0  0  0  0  0  0  0  0  0
    0.8278    1.2080    1.9989 H   0  0  0  0  0  0  0  0  0  0  0  0
    1.8449    1.5595    0.5951 H   0  0  0  0  0  0  0  0  0  0  0  0
    0.8509    3.2649    1.4556 C   0  0  0  0  0  0  0  0  0  0  0  0
    0.8884    3.8899    0.5563 H   0  0  0  0  0  0  0  0  0  0  0  0
   -0.0800    3.4884    1.9880 H   0  0  0  0  0  0  0  0  0  0  0  0
    2.0044    3.5587    2.3097 N   0  0  0  0  0  0  0  0  0  0  0  0
    1.9645    4.5088    2.6773 H   0  0  0  0  0  0  0  0  0  0  0  0
    2.0868    2.8757    3.0637 H   0  0  0  0  0  0  0  0  0  0  0  0
    0.4563   -1.2886    1.5395 C   0  0  0  0  0  0  0  0  0  0  0  0
    1.6564   -1.4208    1.7415 O   0  0  0  0  0  0  0  0  0  0  0  0
   -0.3800   -0.9816    2.5997 N   0  0  0  0  0  0  0  0  0  0  0  0
   -1.3740   -0.9905    2.3991 H   0  0  0  0  0  0  0  0  0  0  0  0
    0.0562   -1.0450    3.9885 C   0  0  0  0  0  0  0  0  0  0  0  0
    0.9253   -0.3983    4.1487 H   0  0  0  0  0  0  0  0  0  0  0  0
   -0.7464   -0.7113    4.6527 H   0  0  0  0  0  0  0  0  0  0  0  0
    0.3275   -2.0716    4.2561 H   0  0  0  0  0  0  0  0  0  0  0  0
  1  2  1  0  0  0  0
  2  3  1  0  0  0  0
  2  4  1  0  0  0  0
  2  5  1  0  0  0  0
  5  6  2  0  0  0  0
  5  7  1  0  0  0  0
  7  8  1  0  0  0  0
  7  9  1  0  0  0  0
  9 10  1  0  0  0  0
  9 11  1  0  0  0  0
  9 26  1  0  0  0  0
 11 12  1  0  0  0  0
 11 13  1  0  0  0  0
 11 14  1  0  0  0  0
 14 15  1  0  0  0  0
 14 16  1  0  0  0  0
 14 17  1  0  0  0  0
 17 18  1  0  0  0  0
 17 19  1  0  0  0  0
 17 20  1  0  0  0  0
 20 21  1  0  0  0  0
 20 22  1  0  0  0  0
 20 23  1  0  0  0  0
 23 24  1  0  0  0  0
 23 25  1  0  0  0  0
 26 27  2  0  0  0  0
 26 28  1  0  0  0  0
 28 29  1  0  0  0  0
 28 30  1  0  0  0  0
 30 31  1  0  0  0  0
 30 32  1  0  0  0  0
 30 33  1  0  0  0  0
M  END
$$$$

  -OEChem-03222214063D

 33 32  0     1  0  0  0  0  0999 V2000
   -3.0897   -4.7946    0.4654 H   0  0  0  0  0  0  0  0  0  0  0  0
   -3.0234   -3.7861    0.0473 C   0  0  0  0  0  0  0  0  0  0  0  0
   -3.7977   -3.1658    0.5047 H   0  0  0  0  0  0  0  0  0  0  0  0
   -3.1969   -3.8401   -1.0301 H   0  0  0  0  0  0  0  0  0  0  0  0
   -1.6524   -3.1971    0.3222 C   0  0  0  0  0  0  0  0  0  0  0  0
   -0.8074   -3.8701    0.8832 O   0  0  0  0  0  0  0  0  0  0  0  0
   -1.3775   -1.8992   -0.0639 N   0  0  0  0  0  0  0  0  0  0  0  0
   -2.1021   -1.4166   -0.5859 H   0  0  0  0  0  0  0  0  0  0  0  0
   -0.0577   -1.2490    0.0605 C   0  0  1  0  0  0  0  0  0  0  0  0
    0.6604   -1.8921   -0.4616 H   0  0  0  0  0  0  0  0  0  0  0  0
   -0.1243    0.0823   -0.7424 C   0  0  0  0  0  0  0  0  0  0  0  0
    0.7866    0.1396   -1.3480 H   0  0  0  0  0  0  0  0  0  0  0  0
   -0.9575    0.0310   -1.4509 H   0  0  0  0  0  0  0  0  0  0  0  0
   -0.2364    1.4181    0.0243 C   0  0  0  0  0  0  0  0  0  0  0  0
   -0.5459    2.1865   -0.6922 H   0  0  0  0  0  0  0  0  0  0  0  0
   -1.0284    1.3372    0.7754 H   0  0  0  0  0  0  0  0  0  0  0  0
    1.0641    1.8958    0.6952 C   0  0  0  0  0  0  0  0  0  0  0  0
    1.4007    1.2037    1.4658 H   0  0  0  0  0  0  0  0  0  0  0  0
    1.8545    1.9629   -0.0594 H   0  0  0  0  0  0  0  0  0  0  0  0
    0.8645    3.2646    1.3392 C   0  0  0  0  0  0  0  0  0  0  0  0
    0.5107    3.9876    0.5958 H   0  0  0  0  0  0  0  0  0  0  0  0
    0.1129    3.1953    2.1334 H   0  0  0  0  0  0  0  0  0  0  0  0
    2.1463    3.7088    1.8928 N   0  0  0  0  0  0  0  0  0  0  0  0
    2.0487    4.5870    2.4016 H   0  0  0  0  0  0  0  0  0  0  0  0
    2.5583    2.9864    2.4850 H   0  0  0  0  0  0  0  0  0  0  0  0
    0.4600   -1.1703    1.5151 C   0  0  0  0  0  0  0  0  0  0  0  0
    1.6492   -1.3387    1.7526 O   0  0  0  0  0  0  0  0  0  0  0  0
   -0.3853   -0.7750    2.5376 N   0  0  0  0  0  0  0  0  0  0  0  0
   -1.3762   -0.7695    2.3221 H   0  0  0  0  0  0  0  0  0  0  0  0
    0.0310   -0.7357    3.9333 C   0  0  0  0  0  0  0  0  0  0  0  0
    0.8925   -0.0712    4.0580 H   0  0  0  0  0  0  0  0  0  0  0  0
   -0.7837   -0.3631    4.5613 H   0  0  0  0  0  0  0  0  0  0  0  0
    0.3062   -1.7383    4.2775 H   0  0  0  0  0  0  0  0  0  0  0  0
  1  2  1  0  0  0  0
  2  3  1  0  0  0  0
  2  4  1  0  0  0  0
  2  5  1  0  0  0  0
  5  6  2  0  0  0  0
  5  7  1  0  0  0  0
  7  8  1  0  0  0  0
  7  9  1  0  0  0  0
  9 10  1  0  0  0  0
  9 11  1  0  0  0  0
  9 26  1  0  0  0  0
 11 12  1  0  0  0  0
 11 13  1  0  0  0  0
 11 14  1  0  0  0  0
 14 15  1  0  0  0  0
 14 16  1  0  0  0  0
 14 17  1  0  0  0  0
 17 18  1  0  0  0  0
 17 19  1  0  0  0  0
 17 20  1  0  0  0  0
 20 21  1  0  0  0  0
 20 22  1  0  0  0  0
 20 23  1  0  0  0  0
 23 24  1  0  0  0  0
 23 25  1  0  0  0  0
 26 27  2  0  0  0  0
 26 28  1  0  0  0  0
 28 29  1  0  0  0  0
 28 30  1  0  0  0  0
 30 31  1  0  0  0  0
 30 32  1  0  0  0  0
 30 33  1  0  0  0  0
M  END
$$$$

  -OEChem-03222214063D

 33 32  0     1  0  0  0  0  0999 V2000
   -2.9610   -4.8597    0.4634 H   0  0  0  0  0  0  0  0  0  0  0  0
   -2.9529   -3.8394    0.0693 C   0  0  0  0  0  0  0  0  0  0  0  0
   -3.7656   -3.2764    0.5341 H   0  0  0  0  0  0  0  0  0  0  0  0
   -3.1156   -3.8799   -1.0105 H   0  0  0  0  0  0  0  0  0  0  0  0
   -1.6218   -3.1758    0.3694 C   0  0  0  0  0  0  0  0  0  0  0  0
   -0.7701   -3.7839    0.9916 O   0  0  0  0  0  0  0  0  0  0  0  0
   -1.3860   -1.8862   -0.0669 N   0  0  0  0  0  0  0  0  0  0  0  0
   -2.1100   -1.4579   -0.6355 H   0  0  0  0  0  0  0  0  0  0  0  0
   -0.0889   -1.1918    0.0490 C   0  0  1  0  0  0  0  0  0  0  0  0
    0.6475   -1.8473   -0.4304 H   0  0  0  0  0  0  0  0  0  0  0  0
   -0.1410    0.0961   -0.8191 C   0  0  0  0  0  0  0  0  0  0  0  0
    0.7786    0.1427   -1.4125 H   0  0  0  0  0  0  0  0  0  0  0  0
   -0.9633    0.0096   -1.5362 H   0  0  0  0  0  0  0  0  0  0  0  0
   -0.2941    1.4343   -0.0700 C   0  0  0  0  0  0  0  0  0  0  0  0
   -0.8155    2.1394   -0.7257 H   0  0  0  0  0  0  0  0  0  0  0  0
   -0.9205    1.3073    0.8166 H   0  0  0  0  0  0  0  0  0  0  0  0
    1.0613    2.0546    0.2991 C   0  0  0  0  0  0  0  0  0  0  0  0
    1.6925    1.3242    0.8104 H   0  0  0  0  0  0  0  0  0  0  0  0
    1.5823    2.3589   -0.6146 H   0  0  0  0  0  0  0  0  0  0  0  0
    0.8750    3.2644    1.2077 C   0  0  0  0  0  0  0  0  0  0  0  0
    0.2293    4.0059    0.7247 H   0  0  0  0  0  0  0  0  0  0  0  0
    0.4002    2.9552    2.1456 H   0  0  0  0  0  0  0  0  0  0  0  0
    2.1922    3.8465    1.4770 N   0  0  0  0  0  0  0  0  0  0  0  0
    2.1280    4.6178    2.1406 H   0  0  0  0  0  0  0  0  0  0  0  0
    2.8426    3.1329    1.8100 H   0  0  0  0  0  0  0  0  0  0  0  0
    0.4311   -1.0245    1.4987 C   0  0  0  0  0  0  0  0  0  0  0  0
    1.6310   -1.1024    1.7293 O   0  0  0  0  0  0  0  0  0  0  0  0
   -0.4186   -0.6080    2.5089 N   0  0  0  0  0  0  0  0  0  0  0  0
   -1.4119   -0.6688    2.3125 H   0  0  0  0  0  0  0  0  0  0  0  0
    0.0171   -0.4359    3.8887 C   0  0  0  0  0  0  0  0  0  0  0  0
    0.8167    0.3100    3.9475 H   0  0  0  0  0  0  0  0  0  0  0  0
   -0.8171   -0.0951    4.5090 H   0  0  0  0  0  0  0  0  0  0  0  0
    0.3883   -1.3833    4.2935 H   0  0  0  0  0  0  0  0  0  0  0  0
  1  2  1  0  0  0  0
  2  3  1  0  0  0  0
  2  4  1  0  0  0  0
  2  5  1  0  0  0  0
  5  6  2  0  0  0  0
  5  7  1  0  0  0  0
  7  8  1  0  0  0  0
  7  9  1  0  0  0  0
  9 10  1  0  0  0  0
  9 11  1  0  0  0  0
  9 26  1  0  0  0  0
 11 12  1  0  0  0  0
 11 13  1  0  0  0  0
 11 14  1  0  0  0  0
 14 15  1  0  0  0  0
 14 16  1  0  0  0  0
 14 17  1  0  0  0  0
 17 18  1  0  0  0  0
 17 19  1  0  0  0  0
 17 20  1  0  0  0  0
 20 21  1  0  0  0  0
 20 22  1  0  0  0  0
 20 23  1  0  0  0  0
 23 24  1  0  0  0  0
 23 25  1  0  0  0  0
 26 27  2  0  0  0  0
 26 28  1  0  0  0  0
 28 29  1  0  0  0  0
 28 30  1  0  0  0  0
 30 31  1  0  0  0  0
 30 32  1  0  0  0  0
 30 33  1  0  0  0  0
M  END
$$$$

  -OEChem-03222214063D

 33 32  0     1  0  0  0  0  0999 V2000
   -2.9117   -4.9067    0.4193 H   0  0  0  0  0  0  0  0  0  0  0  0
   -2.9291   -3.8800    0.0422 C   0  0  0  0  0  0  0  0  0  0  0  0
   -3.7473   -3.3420    0.5267 H   0  0  0  0  0  0  0  0  0  0  0  0
   -3.1048   -3.9055   -1.0359 H   0  0  0  0  0  0  0  0  0  0  0  0
   -1.6081   -3.1939    0.3364 C   0  0  0  0  0  0  0  0  0  0  0  0
   -0.7351   -3.7942    0.9365 O   0  0  0  0  0  0  0  0  0  0  0  0
   -1.4090   -1.8878   -0.0678 N   0  0  0  0  0  0  0  0  0  0  0  0
   -2.1519   -1.4585   -0.6108 H   0  0  0  0  0  0  0  0  0  0  0  0
   -0.1307   -1.1630    0.0608 C   0  0  1  0  0  0  0  0  0  0  0  0
    0.6121   -1.8082   -0.4228 H   0  0  0  0  0  0  0  0  0  0  0  0
   -0.1635    0.1277   -0.7996 C   0  0  0  0  0  0  0  0  0  0  0  0
    0.7697    0.1737   -1.3718 H   0  0  0  0  0  0  0  0  0  0  0  0
   -0.9681    0.0422   -1.5369 H   0  0  0  0  0  0  0  0  0  0  0  0
   -0.3407    1.4601   -0.0409 C   0  0  0  0  0  0  0  0  0  0  0  0
   -1.0598    2.0761   -0.5910 H   0  0  0  0  0  0  0  0  0  0  0  0
   -0.7622    1.3110    0.9542 H   0  0  0  0  0  0  0  0  0  0  0  0
    0.9799    2.2359    0.0351 C   0  0  0  0  0  0  0  0  0  0  0  0
    1.7539    1.5999    0.4770 H   0  0  0  0  0  0  0  0  0  0  0  0
    1.3045    2.5120   -0.9736 H   0  0  0  0  0  0  0  0  0  0  0  0
    0.8259    3.4937    0.8830 C   0  0  0  0  0  0  0  0  0  0  0  0
    0.0409    4.1363    0.4689 H   0  0  0  0  0  0  0  0  0  0  0  0
    0.5409    3.2210    1.9053 H   0  0  0  0  0  0  0  0  0  0  0  0
    2.1060    4.2067    0.8890 N   0  0  0  0  0  0  0  0  0  0  0  0
    2.0668    5.0333    1.4848 H   0  0  0  0  0  0  0  0  0  0  0  0
    2.8641    3.5868    1.1775 H   0  0  0  0  0  0  0  0  0  0  0  0
    0.4073   -1.0093    1.5053 C   0  0  0  0  0  0  0  0  0  0  0  0
    1.6155   -0.9790    1.6999 O   0  0  0  0  0  0  0  0  0  0  0  0
   -0.4398   -0.6377    2.5351 N   0  0  0  0  0  0  0  0  0  0  0  0
   -1.4326   -0.7565    2.3637 H   0  0  0  0  0  0  0  0  0  0  0  0
    0.0173   -0.4252    3.9021 C   0  0  0  0  0  0  0  0  0  0  0  0
    0.7692    0.3704    3.9346 H   0  0  0  0  0  0  0  0  0  0  0  0
   -0.8220   -0.1322    4.5400 H   0  0  0  0  0  0  0  0  0  0  0  0
    0.4573   -1.3435    4.3051 H   0  0  0  0  0  0  0  0  0  0  0  0
  1  2  1  0  0  0  0
  2  3  1  0  0  0  0
  2  4  1  0  0  0  0
  2  5  1  0  0  0  0
  5  6  2  0  0  0  0
  5  7  1  0  0  0  0
  7  8  1  0  0  0  0
  7  9  1  0  0  0  0
  9 10  1  0  0  0  0
  9 11  1  0  0  0  0
  9 26  1  0  0  0  0
 11 12  1  0  0  0  0
 11 13  1  0  0  0  0
 11 14  1  0  0  0  0
 14 15  1  0  0  0  0
 14 16  1  0  0  0  0
 14 17  1  0  0  0  0
 17 18  1  0  0  0  0
 17 19  1  0  0  0  0
 17 20  1  0  0  0  0
 20 21  1  0  0  0  0
 20 22  1  0  0  0  0
 20 23  1  0  0  0  0
 23 24  1  0  0  0  0
 23 25  1  0  0  0  0
 26 27  2  0  0  0  0
 26 28  1  0  0  0  0
 28 29  1  0  0  0  0
 28 30  1  0  0  0  0
 30 31  1  0  0  0  0
 30 32  1  0  0  0  0
 30 33  1  0  0  0  0
M  END
$$$$

  -OEChem-03222214063D

 33 32  0     1  0  0  0  0  0999 V2000
   -2.9022   -4.9156    0.3586 H   0  0  0  0  0  0  0  0  0  0  0  0
   -2.9243   -3.8805    0.0056 C   0  0  0  0  0  0  0  0  0  0  0  0
   -3.7465   -3.3580    0.5004 H   0  0  0  0  0  0  0  0  0  0  0  0
   -3.0972   -3.8822   -1.0732 H   0  0  0  0  0  0  0  0  0  0  0  0
   -1.6076   -3.1946    0.3188 C   0  0  0  0  0  0  0  0  0  0  0  0
   -0.7311   -3.8052    0.9032 O   0  0  0  0  0  0  0  0  0  0  0  0
   -1.4154   -1.8778   -0.0526 N   0  0  0  0  0  0  0  0  0  0  0  0
   -2.1589   -1.4409   -0.5884 H   0  0  0  0  0  0  0  0  0  0  0  0
   -0.1401   -1.1506    0.0906 C   0  0  1  0  0  0  0  0  0  0  0  0
    0.6032   -1.7849   -0.4064 H   0  0  0  0  0  0  0  0  0  0  0  0
   -0.1796    0.1531   -0.7505 C   0  0  0  0  0  0  0  0  0  0  0  0
    0.7676    0.2001   -1.2992 H   0  0  0  0  0  0  0  0  0  0  0  0
   -0.9635    0.0734   -1.5103 H   0  0  0  0  0  0  0  0  0  0  0  0
   -0.3641    1.4891    0.0069 C   0  0  0  0  0  0  0  0  0  0  0  0
   -1.2768    1.9732   -0.3557 H   0  0  0  0  0  0  0  0  0  0  0  0
   -0.4940    1.3437    1.0790 H   0  0  0  0  0  0  0  0  0  0  0  0
    0.8240    2.4291   -0.2325 C   0  0  0  0  0  0  0  0  0  0  0  0
    1.7494    1.9340    0.0810 H   0  0  0  0  0  0  0  0  0  0  0  0
    0.9051    2.6562   -1.3009 H   0  0  0  0  0  0  0  0  0  0  0  0
    0.6613    3.7275    0.5514 C   0  0  0  0  0  0  0  0  0  0  0  0
   -0.2706    4.2274    0.2652 H   0  0  0  0  0  0  0  0  0  0  0  0
    0.6176    3.5125    1.6249 H   0  0  0  0  0  0  0  0  0  0  0  0
    1.8054    4.5945    0.2562 N   0  0  0  0  0  0  0  0  0  0  0  0
    1.7547    5.4661    0.7831 H   0  0  0  0  0  0  0  0  0  0  0  0
    2.6849    4.1103    0.4399 H   0  0  0  0  0  0  0  0  0  0  0  0
    0.3997   -1.0322    1.5372 C   0  0  0  0  0  0  0  0  0  0  0  0
    1.6082   -0.9829    1.7257 O   0  0  0  0  0  0  0  0  0  0  0  0
   -0.4483   -0.6916    2.5774 N   0  0  0  0  0  0  0  0  0  0  0  0
   -1.4401   -0.8194    2.4066 H   0  0  0  0  0  0  0  0  0  0  0  0
    0.0111   -0.5088    3.9483 C   0  0  0  0  0  0  0  0  0  0  0  0
    0.7459    0.3014    4.0009 H   0  0  0  0  0  0  0  0  0  0  0  0
   -0.8310   -0.2530    4.5983 H   0  0  0  0  0  0  0  0  0  0  0  0
    0.4729   -1.4283    4.3229 H   0  0  0  0  0  0  0  0  0  0  0  0
  1  2  1  0  0  0  0
  2  3  1  0  0  0  0
  2  4  1  0  0  0  0
  2  5  1  0  0  0  0
  5  6  2  0  0  0  0
  5  7  1  0  0  0  0
  7  8  1  0  0  0  0
  7  9  1  0  0  0  0
  9 10  1  0  0  0  0
  9 11  1  0  0  0  0
  9 26  1  0  0  0  0
 11 12  1  0  0  0  0
 11 13  1  0  0  0  0
 11 14  1  0  0  0  0
 14 15  1  0  0  0  0
 14 16  1  0  0  0  0
 14 17  1  0  0  0  0
 17 18  1  0  0  0  0
 17 19  1  0  0  0  0
 17 20  1  0  0  0  0
 20 21  1  0  0  0  0
 20 22  1  0  0  0  0
 20 23  1  0  0  0  0
 23 24  1  0  0  0  0
 23 25  1  0  0  0  0
 26 27  2  0  0  0  0
 26 28  1  0  0  0  0
 28 29  1  0  0  0  0
 28 30  1  0  0  0  0
 30 31  1  0  0  0  0
 30 32  1  0  0  0  0
 30 33  1  0  0  0  0
M  END
$$$$

  -OEChem-03222214063D

 33 32  0     1  0  0  0  0  0999 V2000
   -2.9014   -4.9014    0.3439 H   0  0  0  0  0  0  0  0  0  0  0  0
   -2.9209   -3.8624    0.0018 C   0  0  0  0  0  0  0  0  0  0  0  0
   -3.7384   -3.3417    0.5062 H   0  0  0  0  0  0  0  0  0  0  0  0
   -3.0995   -3.8517   -1.0763 H   0  0  0  0  0  0  0  0  0  0  0  0
   -1.6000   -3.1850    0.3159 C   0  0  0  0  0  0  0  0  0  0  0  0
   -0.7246   -3.8030    0.8943 O   0  0  0  0  0  0  0  0  0  0  0  0
   -1.4038   -1.8666   -0.0471 N   0  0  0  0  0  0  0  0  0  0  0  0
   -2.1498   -1.4216   -0.5729 H   0  0  0  0  0  0  0  0  0  0  0  0
   -0.1259   -1.1439    0.0956 C   0  0  1  0  0  0  0  0  0  0  0  0
    0.6180   -1.7662   -0.4156 H   0  0  0  0  0  0  0  0  0  0  0  0
   -0.1929    0.1739   -0.7220 C   0  0  0  0  0  0  0  0  0  0  0  0
    0.7588    0.2337   -1.2613 H   0  0  0  0  0  0  0  0  0  0  0  0
   -0.9711    0.1041   -1.4885 H   0  0  0  0  0  0  0  0  0  0  0  0
   -0.3741    1.5000    0.0537 C   0  0  0  0  0  0  0  0  0  0  0  0
   -1.4131    1.8314   -0.0430 H   0  0  0  0  0  0  0  0  0  0  0  0
   -0.1704    1.3833    1.1182 H   0  0  0  0  0  0  0  0  0  0  0  0
    0.5771    2.5820   -0.4732 C   0  0  0  0  0  0  0  0  0  0  0  0
    1.6134    2.2409   -0.3781 H   0  0  0  0  0  0  0  0  0  0  0  0
    0.3753    2.7634   -1.5340 H   0  0  0  0  0  0  0  0  0  0  0  0
    0.4052    3.8825    0.3059 C   0  0  0  0  0  0  0  0  0  0  0  0
   -0.6313    4.2307    0.2350 H   0  0  0  0  0  0  0  0  0  0  0  0
    0.6382    3.7179    1.3640 H   0  0  0  0  0  0  0  0  0  0  0  0
    1.3091    4.8877   -0.2595 N   0  0  0  0  0  0  0  0  0  0  0  0
    1.2383    5.7722    0.2433 H   0  0  0  0  0  0  0  0  0  0  0  0
    2.2719    4.5495   -0.2640 H   0  0  0  0  0  0  0  0  0  0  0  0
    0.4091   -1.0433    1.5444 C   0  0  0  0  0  0  0  0  0  0  0  0
    1.6167   -1.0038    1.7405 O   0  0  0  0  0  0  0  0  0  0  0  0
   -0.4453   -0.7100    2.5816 N   0  0  0  0  0  0  0  0  0  0  0  0
   -1.4361   -0.8322    2.4006 H   0  0  0  0  0  0  0  0  0  0  0  0
    0.0046   -0.5608    3.9596 C   0  0  0  0  0  0  0  0  0  0  0  0
    0.7382    0.2484    4.0370 H   0  0  0  0  0  0  0  0  0  0  0  0
   -0.8418   -0.3218    4.6104 H   0  0  0  0  0  0  0  0  0  0  0  0
    0.4649   -1.4892    4.3142 H   0  0  0  0  0  0  0  0  0  0  0  0
  1  2  1  0  0  0  0
  2  3  1  0  0  0  0
  2  4  1  0  0  0  0
  2  5  1  0  0  0  0
  5  6  2  0  0  0  0
  5  7  1  0  0  0  0
  7  8  1  0  0  0  0
  7  9  1  0  0  0  0
  9 10  1  0  0  0  0
  9 11  1  0  0  0  0
  9 26  1  0  0  0  0
 11 12  1  0  0  0  0
 11 13  1  0  0  0  0
 11 14  1  0  0  0  0
 14 15  1  0  0  0  0
 14 16  1  0  0  0  0
 14 17  1  0  0  0  0
 17 18  1  0  0  0  0
 17 19  1  0  0  0  0
 17 20  1  0  0  0  0
 20 21  1  0  0  0  0
 20 22  1  0  0  0  0
 20 23  1  0  0  0  0
 23 24  1  0  0  0  0
 23 25  1  0  0  0  0
 26 27  2  0  0  0  0
 26 28  1  0  0  0  0
 28 29  1  0  0  0  0
 28 30  1  0  0  0  0
 30 31  1  0  0  0  0
 30 32  1  0  0  0  0
 30 33  1  0  0  0  0
M  END
$$$$

  -OEChem-03222214063D

 33 32  0     1  0  0  0  0  0999 V2000
   -2.8990   -4.8909    0.3734 H   0  0  0  0  0  0  0  0  0  0  0  0
   -2.9176   -3.8558    0.0201 C   0  0  0  0  0  0  0  0  0  0  0  0
   -3.7276   -3.3257    0.5267 H   0  0  0  0  0  0  0  0  0  0  0  0
   -3.1069   -3.8563   -1.0560 H   0  0  0  0  0  0  0  0  0  0  0  0
   -1.5907   -3.1813    0.3135 C   0  0  0  0  0  0  0  0  0  0  0  0
   -0.7090   -3.8011    0.8802 O   0  0  0  0  0  0  0  0  0  0  0  0
   -1.3946   -1.8649   -0.0572 N   0  0  0  0  0  0  0  0  0  0  0  0
   -2.1435   -1.4208   -0.5799 H   0  0  0  0  0  0  0  0  0  0  0  0
   -0.1147   -1.1431    0.0751 C   0  0  1  0  0  0  0  0  0  0  0  0
    0.6295   -1.7550   -0.4480 H   0  0  0  0  0  0  0  0  0  0  0  0
   -0.2096    0.1875   -0.7183 C   0  0  0  0  0  0  0  0  0  0  0  0
    0.7358    0.2694   -1.2654 H   0  0  0  0  0  0  0  0  0  0  0  0
   -0.9998    0.1293   -1.4736 H   0  0  0  0  0  0  0  0  0  0  0  0
   -0.3813    1.4898    0.0948 C   0  0  0  0  0  0  0  0  0  0  0  0
   -1.4451    1.6700    0.2792 H   0  0  0  0  0  0  0  0  0  0  0  0
    0.1185    1.4237    1.0636 H   0  0  0  0  0  0  0  0  0  0  0  0
    0.2520    2.6767   -0.6417 C   0  0  0  0  0  0  0  0  0  0  0  0
    1.3170    2.4843   -0.8080 H   0  0  0  0  0  0  0  0  0  0  0  0
   -0.2275    2.7992   -1.6186 H   0  0  0  0  0  0  0  0  0  0  0  0
    0.0958    3.9627    0.1648 C   0  0  0  0  0  0  0  0  0  0  0  0
   -0.9647    4.1630    0.3533 H   0  0  0  0  0  0  0  0  0  0  0  0
    0.6004    3.8615    1.1323 H   0  0  0  0  0  0  0  0  0  0  0  0
    0.6846    5.0659   -0.5999 N   0  0  0  0  0  0  0  0  0  0  0  0
    0.6167    5.9463   -0.0895 H   0  0  0  0  0  0  0  0  0  0  0  0
    1.6541    4.8629   -0.8444 H   0  0  0  0  0  0  0  0  0  0  0  0
    0.4209   -1.0404    1.5229 C   0  0  0  0  0  0  0  0  0  0  0  0
    1.6283   -1.0006    1.7201 O   0  0  0  0  0  0  0  0  0  0  0  0
   -0.4364   -0.7019    2.5557 N   0  0  0  0  0  0  0  0  0  0  0  0
   -1.4266   -0.8232    2.3717 H   0  0  0  0  0  0  0  0  0  0  0  0
    0.0082   -0.5452    3.9344 C   0  0  0  0  0  0  0  0  0  0  0  0
    0.7462    0.2603    4.0095 H   0  0  0  0  0  0  0  0  0  0  0  0
   -0.8398   -0.2966    4.5793 H   0  0  0  0  0  0  0  0  0  0  0  0
    0.4606   -1.4738    4.2982 H   0  0  0  0  0  0  0  0  0  0  0  0
  1  2  1  0  0  0  0
  2  3  1  0  0  0  0
  2  4  1  0  0  0  0
  2  5  1  0  0  0  0
  5  6  2  0  0  0  0
  5  7  1  0  0  0  0
  7  8  1  0  0  0  0
  7  9  1  0  0  0  0
  9 10  1  0  0  0  0
  9 11  1  0  0  0  0
  9 26  1  0  0  0  0
 11 12  1  0  0  0  0
 11 13  1  0  0  0  0
 11 14  1  0  0  0  0
 14 15  1  0  0  0  0
 14 16  1  0  0  0  0
 14 17  1  0  0  0  0
 17 18  1  0  0  0  0
 17 19  1  0  0  0  0
 17 20  1  0  0  0  0
 20 21  1  0  0  0  0
 20 22  1  0  0  0  0
 20 23  1  0  0  0  0
 23 24  1  0  0  0  0
 23 25  1  0  0  0  0
 26 27  2  0  0  0  0
 26 28  1  0  0  0  0
 28 29  1  0  0  0  0
 28 30  1  0  0  0  0
 30 31  1  0  0  0  0
 30 32  1  0  0  0  0
 30 33  1  0  0  0  0
M  END
$$$$

  -OEChem-03222214063D

 33 32  0     1  0  0  0  0  0999 V2000
   -2.9029   -4.8809    0.4022 H   0  0  0  0  0  0  0  0  0  0  0  0
   -2.9192   -3.8503    0.0362 C   0  0  0  0  0  0  0  0  0  0  0  0
   -3.7241   -3.3106    0.5406 H   0  0  0  0  0  0  0  0  0  0  0  0
   -3.1149   -3.8626   -1.0386 H   0  0  0  0  0  0  0  0  0  0  0  0
   -1.5880   -3.1782    0.3141 C   0  0  0  0  0  0  0  0  0  0  0  0
   -0.7035   -3.7954    0.8793 O   0  0  0  0  0  0  0  0  0  0  0  0
   -1.3918   -1.8656   -0.0685 N   0  0  0  0  0  0  0  0  0  0  0  0
   -2.1439   -1.4229   -0.5879 H   0  0  0  0  0  0  0  0  0  0  0  0
   -0.1113   -1.1439    0.0541 C   0  0  1  0  0  0  0  0  0  0  0  0
    0.6322   -1.7521   -0.4739 H   0  0  0  0  0  0  0  0  0  0  0  0
   -0.2188    0.1895   -0.7293 C   0  0  0  0  0  0  0  0  0  0  0  0
    0.7143    0.2914   -1.2939 H   0  0  0  0  0  0  0  0  0  0  0  0
   -1.0276    0.1363   -1.4652 H   0  0  0  0  0  0  0  0  0  0  0  0
   -0.3825    1.4669    0.1164 C   0  0  0  0  0  0  0  0  0  0  0  0
   -1.3919    1.5046    0.5388 H   0  0  0  0  0  0  0  0  0  0  0  0
    0.3343    1.4772    0.9431 H   0  0  0  0  0  0  0  0  0  0  0  0
   -0.1088    2.7107   -0.7360 C   0  0  0  0  0  0  0  0  0  0  0  0
    0.9044    2.6619   -1.1483 H   0  0  0  0  0  0  0  0  0  0  0  0
   -0.8143    2.7435   -1.5729 H   0  0  0  0  0  0  0  0  0  0  0  0
   -0.2519    3.9805    0.0970 C   0  0  0  0  0  0  0  0  0  0  0  0
   -1.2566    4.0362    0.5305 H   0  0  0  0  0  0  0  0  0  0  0  0
    0.4736    3.9739    0.9182 H   0  0  0  0  0  0  0  0  0  0  0  0
   -0.0197    5.1349   -0.7754 N   0  0  0  0  0  0  0  0  0  0  0  0
   -0.0949    6.0101   -0.2570 H   0  0  0  0  0  0  0  0  0  0  0  0
    0.8864    5.0649   -1.2391 H   0  0  0  0  0  0  0  0  0  0  0  0
    0.4295   -1.0280    1.4990 C   0  0  0  0  0  0  0  0  0  0  0  0
    1.6378   -0.9913    1.6918 O   0  0  0  0  0  0  0  0  0  0  0  0
   -0.4233   -0.6788    2.5318 N   0  0  0  0  0  0  0  0  0  0  0  0
   -1.4149   -0.7961    2.3521 H   0  0  0  0  0  0  0  0  0  0  0  0
    0.0273   -0.5074    3.9068 C   0  0  0  0  0  0  0  0  0  0  0  0
    0.7748    0.2905    3.9677 H   0  0  0  0  0  0  0  0  0  0  0  0
   -0.8158   -0.2396    4.5506 H   0  0  0  0  0  0  0  0  0  0  0  0
    0.4709   -1.4354    4.2823 H   0  0  0  0  0  0  0  0  0  0  0  0
  1  2  1  0  0  0  0
  2  3  1  0  0  0  0
  2  4  1  0  0  0  0
  2  5  1  0  0  0  0
  5  6  2  0  0  0  0
  5  7  1  0  0  0  0
  7  8  1  0  0  0  0
  7  9  1  0  0  0  0
  9 10  1  0  0  0  0
  9 11  1  0  0  0  0
  9 26  1  0  0  0  0
 11 12  1  0  0  0  0
 11 13  1  0  0  0  0
 11 14  1  0  0  0  0
 14 15  1  0  0  0  0
 14 16  1  0  0  0  0
 14 17  1  0  0  0  0
 17 18  1  0  0  0  0
 17 19  1  0  0  0  0
 17 20  1  0  0  0  0
 20 21  1  0  0  0  0
 20 22  1  0  0  0  0
 20 23  1  0  0  0  0
 23 24  1  0  0  0  0
 23 25  1  0  0  0  0
 26 27  2  0  0  0  0
 26 28  1  0  0  0  0
 28 29  1  0  0  0  0
 28 30  1  0  0  0  0
 30 31  1  0  0  0  0
 30 32  1  0  0  0  0
 30 33  1  0  0  0  0
M  END
$$$$

  -OEChem-03222214063D

 33 32  0     1  0  0  0  0  0999 V2000
   -2.9252   -4.8540    0.4391 H   0  0  0  0  0  0  0  0  0  0  0  0
   -2.9304   -3.8272    0.0619 C   0  0  0  0  0  0  0  0  0  0  0  0
   -3.7232   -3.2709    0.5677 H   0  0  0  0  0  0  0  0  0  0  0  0
   -3.1358   -3.8488   -1.0111 H   0  0  0  0  0  0  0  0  0  0  0  0
   -1.5877   -3.1695    0.3207 C   0  0  0  0  0  0  0  0  0  0  0  0
   -0.7080   -3.7901    0.8895 O   0  0  0  0  0  0  0  0  0  0  0  0
   -1.3783   -1.8651   -0.0827 N   0  0  0  0  0  0  0  0  0  0  0  0
   -2.1274   -1.4236   -0.6073 H   0  0  0  0  0  0  0  0  0  0  0  0
   -0.0932   -1.1495    0.0333 C   0  0  1  0  0  0  0  0  0  0  0  0
    0.6559   -1.7626   -0.4809 H   0  0  0  0  0  0  0  0  0  0  0  0
   -0.1946    0.1834   -0.7568 C   0  0  0  0  0  0  0  0  0  0  0  0
    0.5677    0.1608   -1.5430 H   0  0  0  0  0  0  0  0  0  0  0  0
   -1.1662    0.2459   -1.2575 H   0  0  0  0  0  0  0  0  0  0  0  0
    0.0140    1.4668    0.0652 C   0  0  0  0  0  0  0  0  0  0  0  0
   -0.7346    1.5233    0.8620 H   0  0  0  0  0  0  0  0  0  0  0  0
    1.0074    1.4583    0.5270 H   0  0  0  0  0  0  0  0  0  0  0  0
   -0.1120    2.7026   -0.8320 C   0  0  0  0  0  0  0  0  0  0  0  0
    0.6288    2.6517   -1.6363 H   0  0  0  0  0  0  0  0  0  0  0  0
   -1.1067    2.7266   -1.2890 H   0  0  0  0  0  0  0  0  0  0  0  0
    0.1024    3.9798   -0.0257 C   0  0  0  0  0  0  0  0  0  0  0  0
   -0.6276    4.0369    0.7896 H   0  0  0  0  0  0  0  0  0  0  0  0
    1.1057    3.9820    0.4155 H   0  0  0  0  0  0  0  0  0  0  0  0
   -0.0605    5.1282   -0.9223 N   0  0  0  0  0  0  0  0  0  0  0  0
    0.0720    6.0075   -0.4222 H   0  0  0  0  0  0  0  0  0  0  0  0
    0.5759    5.0641   -1.7171 H   0  0  0  0  0  0  0  0  0  0  0  0
    0.4312   -1.0191    1.4846 C   0  0  0  0  0  0  0  0  0  0  0  0
    1.6373   -1.0133    1.6953 O   0  0  0  0  0  0  0  0  0  0  0  0
   -0.4273   -0.6505    2.5058 N   0  0  0  0  0  0  0  0  0  0  0  0
   -1.4190   -0.7454    2.3145 H   0  0  0  0  0  0  0  0  0  0  0  0
    0.0111   -0.4804    3.8850 C   0  0  0  0  0  0  0  0  0  0  0  0
    0.7701    0.3063    3.9506 H   0  0  0  0  0  0  0  0  0  0  0  0
   -0.8341   -0.1975    4.5194 H   0  0  0  0  0  0  0  0  0  0  0  0
    0.4368   -1.4138    4.2682 H   0  0  0  0  0  0  0  0  0  0  0  0
  1  2  1  0  0  0  0
  2  3  1  0  0  0  0
  2  4  1  0  0  0  0
  2  5  1  0  0  0  0
  5  6  2  0  0  0  0
  5  7  1  0  0  0  0
  7  8  1  0  0  0  0
  7  9  1  0  0  0  0
  9 10  1  0  0  0  0
  9 11  1  0  0  0  0
  9 26  1  0  0  0  0
 11 12  1  0  0  0  0
 11 13  1  0  0  0  0
 11 14  1  0  0  0  0
 14 15  1  0  0  0  0
 14 16  1  0  0  0  0
 14 17  1  0  0  0  0
 17 18  1  0  0  0  0
 17 19  1  0  0  0  0
 17 20  1  0  0  0  0
 20 21  1  0  0  0  0
 20 22  1  0  0  0  0
 20 23  1  0  0  0  0
 23 24  1  0  0  0  0
 23 25  1  0  0  0  0
 26 27  2  0  0  0  0
 26 28  1  0  0  0  0
 28 29  1  0  0  0  0
 28 30  1  0  0  0  0
 30 31  1  0  0  0  0
 30 32  1  0  0  0  0
 30 33  1  0  0  0  0
M  END
$$$$

  -OEChem-03222214063D

 33 32  0     1  0  0  0  0  0999 V2000
   -2.9212   -4.8654    0.4339 H   0  0  0  0  0  0  0  0  0  0  0  0
   -2.9341   -3.8364    0.0636 C   0  0  0  0  0  0  0  0  0  0  0  0
   -3.7240   -3.2865    0.5806 H   0  0  0  0  0  0  0  0  0  0  0  0
   -3.1492   -3.8514   -1.0076 H   0  0  0  0  0  0  0  0  0  0  0  0
   -1.5918   -3.1752    0.3140 C   0  0  0  0  0  0  0  0  0  0  0  0
   -0.7014   -3.7986    0.8627 O   0  0  0  0  0  0  0  0  0  0  0  0
   -1.3945   -1.8635   -0.0709 N   0  0  0  0  0  0  0  0  0  0  0  0
   -2.1562   -1.4132   -0.5695 H   0  0  0  0  0  0  0  0  0  0  0  0
   -0.1124   -1.1428    0.0435 C   0  0  1  0  0  0  0  0  0  0  0  0
    0.6310   -1.7570   -0.4778 H   0  0  0  0  0  0  0  0  0  0  0  0
   -0.2007    0.1895   -0.7496 C   0  0  0  0  0  0  0  0  0  0  0  0
    0.5550    0.1686   -1.5419 H   0  0  0  0  0  0  0  0  0  0  0  0
   -1.1756    0.2463   -1.2444 H   0  0  0  0  0  0  0  0  0  0  0  0
    0.0084    1.4759    0.0688 C   0  0  0  0  0  0  0  0  0  0  0  0
   -0.5790    1.4353    0.9904 H   0  0  0  0  0  0  0  0  0  0  0  0
    1.0656    1.5738    0.3398 H   0  0  0  0  0  0  0  0  0  0  0  0
   -0.4579    2.7031   -0.7218 C   0  0  0  0  0  0  0  0  0  0  0  0
    0.0998    2.7682   -1.6617 H   0  0  0  0  0  0  0  0  0  0  0  0
   -1.5212    2.6064   -0.9648 H   0  0  0  0  0  0  0  0  0  0  0  0
   -0.2418    3.9783    0.0876 C   0  0  0  0  0  0  0  0  0  0  0  0
   -0.7868    3.9184    1.0363 H   0  0  0  0  0  0  0  0  0  0  0  0
    0.8228    4.1034    0.3147 H   0  0  0  0  0  0  0  0  0  0  0  0
   -0.7308    5.1163   -0.6964 N   0  0  0  0  0  0  0  0  0  0  0  0
   -0.6157    5.9919   -0.1854 H   0  0  0  0  0  0  0  0  0  0  0  0
   -0.2657    5.1622   -1.6031 H   0  0  0  0  0  0  0  0  0  0  0  0
    0.4329   -1.0281    1.4886 C   0  0  0  0  0  0  0  0  0  0  0  0
    1.6422   -1.0027    1.6779 O   0  0  0  0  0  0  0  0  0  0  0  0
   -0.4116   -0.6790    2.5286 N   0  0  0  0  0  0  0  0  0  0  0  0
   -1.4055   -0.7840    2.3540 H   0  0  0  0  0  0  0  0  0  0  0  0
    0.0474   -0.5141    3.9018 C   0  0  0  0  0  0  0  0  0  0  0  0
    0.7978    0.2811    3.9619 H   0  0  0  0  0  0  0  0  0  0  0  0
   -0.7916   -0.2459    4.5508 H   0  0  0  0  0  0  0  0  0  0  0  0
    0.4896   -1.4453    4.2715 H   0  0  0  0  0  0  0  0  0  0  0  0
  1  2  1  0  0  0  0
  2  3  1  0  0  0  0
  2  4  1  0  0  0  0
  2  5  1  0  0  0  0
  5  6  2  0  0  0  0
  5  7  1  0  0  0  0
  7  8  1  0  0  0  0
  7  9  1  0  0  0  0
  9 10  1  0  0  0  0
  9 11  1  0  0  0  0
  9 26  1  0  0  0  0
 11 12  1  0  0  0  0
 11 13  1  0  0  0  0
 11 14  1  0  0  0  0
 14 15  1  0  0  0  0
 14 16  1  0  0  0  0
 14 17  1  0  0  0  0
 17 18  1  0  0  0  0
 17 19  1  0  0  0  0
 17 20  1  0  0  0  0
 20 21  1  0  0  0  0
 20 22  1  0  0  0  0
 20 23  1  0  0  0  0
 23 24  1  0  0  0  0
 23 25  1  0  0  0  0
 26 27  2  0  0  0  0
 26 28  1  0  0  0  0
 28 29  1  0  0  0  0
 28 30  1  0  0  0  0
 30 31  1  0  0  0  0
 30 32  1  0  0  0  0
 30 33  1  0  0  0  0
M  END
$$$$

  -OEChem-03222214063D

 33 32  0     1  0  0  0  0  0999 V2000
   -2.9240   -4.8729    0.4132 H   0  0  0  0  0  0  0  0  0  0  0  0
   -2.9418   -3.8375    0.0608 C   0  0  0  0  0  0  0  0  0  0  0  0
   -3.7302   -3.2994    0.5924 H   0  0  0  0  0  0  0  0  0  0  0  0
   -3.1642   -3.8345   -1.0089 H   0  0  0  0  0  0  0  0  0  0  0  0
   -1.5988   -3.1776    0.3125 C   0  0  0  0  0  0  0  0  0  0  0  0
   -0.6999   -3.8120    0.8344 O   0  0  0  0  0  0  0  0  0  0  0  0
   -1.4074   -1.8575   -0.0470 N   0  0  0  0  0  0  0  0  0  0  0  0
   -2.1772   -1.3961   -0.5222 H   0  0  0  0  0  0  0  0  0  0  0  0
   -0.1238   -1.1379    0.0647 C   0  0  1  0  0  0  0  0  0  0  0  0
    0.6098   -1.7517   -0.4707 H   0  0  0  0  0  0  0  0  0  0  0  0
   -0.2046    0.1985   -0.7250 C   0  0  0  0  0  0  0  0  0  0  0  0
    0.5457    0.1744   -1.5223 H   0  0  0  0  0  0  0  0  0  0  0  0
   -1.1804    0.2495   -1.2190 H   0  0  0  0  0  0  0  0  0  0  0  0
    0.0089    1.4980    0.0783 C   0  0  0  0  0  0  0  0  0  0  0  0
   -0.3580    1.3884    1.1007 H   0  0  0  0  0  0  0  0  0  0  0  0
    1.0787    1.7284    0.1277 H   0  0  0  0  0  0  0  0  0  0  0  0
   -0.7740    2.6592   -0.5453 C   0  0  0  0  0  0  0  0  0  0  0  0
   -0.4488    2.8064   -1.5804 H   0  0  0  0  0  0  0  0  0  0  0  0
   -1.8432    2.4227   -0.5551 H   0  0  0  0  0  0  0  0  0  0  0  0
   -0.5531    3.9453    0.2456 C   0  0  0  0  0  0  0  0  0  0  0  0
   -0.8672    3.8052    1.2860 H   0  0  0  0  0  0  0  0  0  0  0  0
    0.5104    4.2093    0.2443 H   0  0  0  0  0  0  0  0  0  0  0  0
   -1.3422    5.0148   -0.3731 N   0  0  0  0  0  0  0  0  0  0  0  0
   -1.2392    5.8912    0.1390 H   0  0  0  0  0  0  0  0  0  0  0  0
   -1.0879    5.1361   -1.3534 H   0  0  0  0  0  0  0  0  0  0  0  0
    0.4432   -1.0529    1.5033 C   0  0  0  0  0  0  0  0  0  0  0  0
    1.6553   -1.0269    1.6736 O   0  0  0  0  0  0  0  0  0  0  0  0
   -0.3853   -0.7269    2.5634 N   0  0  0  0  0  0  0  0  0  0  0  0
   -1.3824   -0.8173    2.3995 H   0  0  0  0  0  0  0  0  0  0  0  0
    0.0933   -0.5904    3.9329 C   0  0  0  0  0  0  0  0  0  0  0  0
    0.8351    0.2124    4.0013 H   0  0  0  0  0  0  0  0  0  0  0  0
   -0.7382   -0.3491    4.6020 H   0  0  0  0  0  0  0  0  0  0  0  0
    0.5527   -1.5248    4.2726 H   0  0  0  0  0  0  0  0  0  0  0  0
  1  2  1  0  0  0  0
  2  3  1  0  0  0  0
  2  4  1  0  0  0  0
  2  5  1  0  0  0  0
  5  6  2  0  0  0  0
  5  7  1  0  0  0  0
  7  8  1  0  0  0  0
  7  9  1  0  0  0  0
  9 10  1  0  0  0  0
  9 11  1  0  0  0  0
  9 26  1  0  0  0  0
 11 12  1  0  0  0  0
 11 13  1  0  0  0  0
 11 14  1  0  0  0  0
 14 15  1  0  0  0  0
 14 16  1  0  0  0  0
 14 17  1  0  0  0  0
 17 18  1  0  0  0  0
 17 19  1  0  0  0  0
 17 20  1  0  0  0  0
 20 21  1  0  0  0  0
 20 22  1  0  0  0  0
 20 23  1  0  0  0  0
 23 24  1  0  0  0  0
 23 25  1  0  0  0  0
 26 27  2  0  0  0  0
 26 28  1  0  0  0  0
 28 29  1  0  0  0  0
 28 30  1  0  0  0  0
 30 31  1  0  0  0  0
 30 32  1  0  0  0  0
 30 33  1  0  0  0  0
M  END
$$$$

  -OEChem-03222214063D

 33 32  0     1  0  0  0  0  0999 V2000
   -2.9403   -4.8611    0.4284 H   0  0  0  0  0  0  0  0  0  0  0  0
   -2.9542   -3.8239    0.0809 C   0  0  0  0  0  0  0  0  0  0  0  0
   -3.7265   -3.2801    0.6302 H   0  0  0  0  0  0  0  0  0  0  0  0
   -3.1975   -3.8140   -0.9844 H   0  0  0  0  0  0  0  0  0  0  0  0
   -1.6001   -3.1792    0.3102 C   0  0  0  0  0  0  0  0  0  0  0  0
   -0.6960   -3.8288    0.8035 O   0  0  0  0  0  0  0  0  0  0  0  0
   -1.4036   -1.8567   -0.0372 N   0  0  0  0  0  0  0  0  0  0  0  0
   -2.1803   -1.3789   -0.4843 H   0  0  0  0  0  0  0  0  0  0  0  0
   -0.1142   -1.1467    0.0706 C   0  0  1  0  0  0  0  0  0  0  0  0
    0.6118   -1.7596   -0.4759 H   0  0  0  0  0  0  0  0  0  0  0  0
   -0.1997    0.1949   -0.7120 C   0  0  0  0  0  0  0  0  0  0  0  0
    0.5516    0.1653   -1.5082 H   0  0  0  0  0  0  0  0  0  0  0  0
   -1.1709    0.2421   -1.2153 H   0  0  0  0  0  0  0  0  0  0  0  0
    0.0209    1.5092    0.0737 C   0  0  0  0  0  0  0  0  0  0  0  0
   -0.0552    1.3595    1.1510 H   0  0  0  0  0  0  0  0  0  0  0  0
    1.0285    1.8866   -0.1310 H   0  0  0  0  0  0  0  0  0  0  0  0
   -1.0306    2.5583   -0.3064 C   0  0  0  0  0  0  0  0  0  0  0  0
   -0.9719    2.7653   -1.3798 H   0  0  0  0  0  0  0  0  0  0  0  0
   -2.0323    2.1732   -0.0880 H   0  0  0  0  0  0  0  0  0  0  0  0
   -0.8101    3.8502    0.4742 C   0  0  0  0  0  0  0  0  0  0  0  0
   -0.8594    3.6514    1.5507 H   0  0  0  0  0  0  0  0  0  0  0  0
    0.1802    4.2617    0.2493 H   0  0  0  0  0  0  0  0  0  0  0  0
   -1.8546    4.8062    0.0951 N   0  0  0  0  0  0  0  0  0  0  0  0
   -1.7636    5.6771    0.6187 H   0  0  0  0  0  0  0  0  0  0  0  0
   -1.8400    4.9845   -0.9089 H   0  0  0  0  0  0  0  0  0  0  0  0
    0.4612   -1.0835    1.5063 C   0  0  0  0  0  0  0  0  0  0  0  0
    1.6741   -1.0743    1.6722 O   0  0  0  0  0  0  0  0  0  0  0  0
   -0.3604   -0.7641    2.5738 N   0  0  0  0  0  0  0  0  0  0  0  0
   -1.3596   -0.8253    2.4095 H   0  0  0  0  0  0  0  0  0  0  0  0
    0.1244   -0.6441    3.9426 C   0  0  0  0  0  0  0  0  0  0  0  0
    0.8672    0.1571    4.0168 H   0  0  0  0  0  0  0  0  0  0  0  0
   -0.7040   -0.4102    4.6179 H   0  0  0  0  0  0  0  0  0  0  0  0
    0.5844   -1.5828    4.2692 H   0  0  0  0  0  0  0  0  0  0  0  0
  1  2  1  0  0  0  0
  2  3  1  0  0  0  0
  2  4  1  0  0  0  0
  2  5  1  0  0  0  0
  5  6  2  0  0  0  0
  5  7  1  0  0  0  0
  7  8  1  0  0  0  0
  7  9  1  0  0  0  0
  9 10  1  0  0  0  0
  9 11  1  0  0  0  0
  9 26  1  0  0  0  0
 11 12  1  0  0  0  0
 11 13  1  0  0  0  0
 11 14  1  0  0  0  0
 14 15  1  0  0  0  0
 14 16  1  0  0  0  0
 14 17  1  0  0  0  0
 17 18  1  0  0  0  0
 17 19  1  0  0  0  0
 17 20  1  0  0  0  0
 20 21  1  0  0  0  0
 20 22  1  0  0  0  0
 20 23  1  0  0  0  0
 23 24  1  0  0  0  0
 23 25  1  0  0  0  0
 26 27  2  0  0  0  0
 26 28  1  0  0  0  0
 28 29  1  0  0  0  0
 28 30  1  0  0  0  0
 30 31  1  0  0  0  0
 30 32  1  0  0  0  0
 30 33  1  0  0  0  0
M  END
$$$$

  -OEChem-03222214063D

 33 32  0     1  0  0  0  0  0999 V2000
   -2.9666   -4.8388    0.4737 H   0  0  0  0  0  0  0  0  0  0  0  0
   -2.9666   -3.8048    0.1166 C   0  0  0  0  0  0  0  0  0  0  0  0
   -3.7194   -3.2413    0.6727 H   0  0  0  0  0  0  0  0  0  0  0  0
   -3.2261   -3.8001   -0.9448 H   0  0  0  0  0  0  0  0  0  0  0  0
   -1.5973   -3.1827    0.3174 C   0  0  0  0  0  0  0  0  0  0  0  0
   -0.6936   -3.8474    0.7909 O   0  0  0  0  0  0  0  0  0  0  0  0
   -1.3845   -1.8665   -0.0442 N   0  0  0  0  0  0  0  0  0  0  0  0
   -2.1658   -1.3736   -0.4660 H   0  0  0  0  0  0  0  0  0  0  0  0
   -0.0874   -1.1697    0.0546 C   0  0  1  0  0  0  0  0  0  0  0  0
    0.6358   -1.7851   -0.4930 H   0  0  0  0  0  0  0  0  0  0  0  0
   -0.1891    0.1742   -0.7245 C   0  0  0  0  0  0  0  0  0  0  0  0
    0.5728    0.1372   -1.5105 H   0  0  0  0  0  0  0  0  0  0  0  0
   -1.1509    0.2218   -1.2457 H   0  0  0  0  0  0  0  0  0  0  0  0
    0.0404    1.4975    0.0473 C   0  0  0  0  0  0  0  0  0  0  0  0
    0.3044    1.3410    1.0934 H   0  0  0  0  0  0  0  0  0  0  0  0
    0.8840    2.0254   -0.4100 H   0  0  0  0  0  0  0  0  0  0  0  0
   -1.2016    2.3943   -0.0218 C   0  0  0  0  0  0  0  0  0  0  0  0
   -1.4185    2.6468   -1.0649 H   0  0  0  0  0  0  0  0  0  0  0  0
   -2.0646    1.8567    0.3850 H   0  0  0  0  0  0  0  0  0  0  0  0
   -0.9895    3.6749    0.7799 C   0  0  0  0  0  0  0  0  0  0  0  0
   -0.7712    3.4300    1.8254 H   0  0  0  0  0  0  0  0  0  0  0  0
   -0.1386    4.2357    0.3771 H   0  0  0  0  0  0  0  0  0  0  0  0
   -2.2114    4.4810    0.7013 N   0  0  0  0  0  0  0  0  0  0  0  0
   -2.1263    5.3323    1.2573 H   0  0  0  0  0  0  0  0  0  0  0  0
   -2.4418    4.7027   -0.2672 H   0  0  0  0  0  0  0  0  0  0  0  0
    0.4795   -1.1030    1.4929 C   0  0  0  0  0  0  0  0  0  0  0  0
    1.6907   -1.1198    1.6700 O   0  0  0  0  0  0  0  0  0  0  0  0
   -0.3470   -0.7643    2.5505 N   0  0  0  0  0  0  0  0  0  0  0  0
   -1.3456   -0.7817    2.3724 H   0  0  0  0  0  0  0  0  0  0  0  0
    0.1265   -0.6246    3.9214 C   0  0  0  0  0  0  0  0  0  0  0  0
    0.8703    0.1760    3.9902 H   0  0  0  0  0  0  0  0  0  0  0  0
   -0.7071   -0.3788    4.5857 H   0  0  0  0  0  0  0  0  0  0  0  0
    0.5813   -1.5593    4.2660 H   0  0  0  0  0  0  0  0  0  0  0  0
  1  2  1  0  0  0  0
  2  3  1  0  0  0  0
  2  4  1  0  0  0  0
  2  5  1  0  0  0  0
  5  6  2  0  0  0  0
  5  7  1  0  0  0  0
  7  8  1  0  0  0  0
  7  9  1  0  0  0  0
  9 10  1  0  0  0  0
  9 11  1  0  0  0  0
  9 26  1  0  0  0  0
 11 12  1  0  0  0  0
 11 13  1  0  0  0  0
 11 14  1  0  0  0  0
 14 15  1  0  0  0  0
 14 16  1  0  0  0  0
 14 17  1  0  0  0  0
 17 18  1  0  0  0  0
 17 19  1  0  0  0  0
 17 20  1  0  0  0  0
 20 21  1  0  0  0  0
 20 22  1  0  0  0  0
 20 23  1  0  0  0  0
 23 24  1  0  0  0  0
 23 25  1  0  0  0  0
 26 27  2  0  0  0  0
 26 28  1  0  0  0  0
 28 29  1  0  0  0  0
 28 30  1  0  0  0  0
 30 31  1  0  0  0  0
 30 32  1  0  0  0  0
 30 33  1  0  0  0  0
M  END
$$$$

  -OEChem-03222214063D

 33 32  0     1  0  0  0  0  0999 V2000
   -2.9706   -4.8240    0.5362 H   0  0  0  0  0  0  0  0  0  0  0  0
   -2.9662   -3.7975    0.1581 C   0  0  0  0  0  0  0  0  0  0  0  0
   -3.7019   -3.2143    0.7169 H   0  0  0  0  0  0  0  0  0  0  0  0
   -3.2462   -3.8111   -0.8980 H   0  0  0  0  0  0  0  0  0  0  0  0
   -1.5862   -3.1883    0.3209 C   0  0  0  0  0  0  0  0  0  0  0  0
   -0.6827   -3.8536    0.7942 O   0  0  0  0  0  0  0  0  0  0  0  0
   -1.3630   -1.8830   -0.0731 N   0  0  0  0  0  0  0  0  0  0  0  0
   -2.1463   -1.3852   -0.4853 H   0  0  0  0  0  0  0  0  0  0  0  0
   -0.0626   -1.1919    0.0206 C   0  0  1  0  0  0  0  0  0  0  0  0
    0.6664   -1.8101   -0.5158 H   0  0  0  0  0  0  0  0  0  0  0  0
   -0.1789    0.1494   -0.7601 C   0  0  0  0  0  0  0  0  0  0  0  0
    0.5921    0.1117   -1.5370 H   0  0  0  0  0  0  0  0  0  0  0  0
   -1.1354    0.2012   -1.2906 H   0  0  0  0  0  0  0  0  0  0  0  0
    0.0542    1.4660    0.0177 C   0  0  0  0  0  0  0  0  0  0  0  0
    0.6140    1.3255    0.9445 H   0  0  0  0  0  0  0  0  0  0  0  0
    0.6662    2.1252   -0.6073 H   0  0  0  0  0  0  0  0  0  0  0  0
   -1.2755    2.1787    0.2893 C   0  0  0  0  0  0  0  0  0  0  0  0
   -1.7487    2.4555   -0.6583 H   0  0  0  0  0  0  0  0  0  0  0  0
   -1.9507    1.5010    0.8217 H   0  0  0  0  0  0  0  0  0  0  0  0
   -1.0574    3.4274    1.1376 C   0  0  0  0  0  0  0  0  0  0  0  0
   -0.5911    3.1547    2.0913 H   0  0  0  0  0  0  0  0  0  0  0  0
   -0.3893    4.1247    0.6198 H   0  0  0  0  0  0  0  0  0  0  0  0
   -2.3596    4.0562    1.3801 N   0  0  0  0  0  0  0  0  0  0  0  0
   -2.2668    4.8716    1.9866 H   0  0  0  0  0  0  0  0  0  0  0  0
   -2.8133    4.3081    0.5021 H   0  0  0  0  0  0  0  0  0  0  0  0
    0.4817   -1.0962    1.4661 C   0  0  0  0  0  0  0  0  0  0  0  0
    1.6893   -1.1270    1.6656 O   0  0  0  0  0  0  0  0  0  0  0  0
   -0.3592   -0.7268    2.5016 N   0  0  0  0  0  0  0  0  0  0  0  0
   -1.3536   -0.7079    2.3019 H   0  0  0  0  0  0  0  0  0  0  0  0
    0.0942   -0.5312    3.8720 C   0  0  0  0  0  0  0  0  0  0  0  0
    0.8364    0.2726    3.9192 H   0  0  0  0  0  0  0  0  0  0  0  0
   -0.7489   -0.2602    4.5147 H   0  0  0  0  0  0  0  0  0  0  0  0
    0.5443   -1.4513    4.2591 H   0  0  0  0  0  0  0  0  0  0  0  0
  1  2  1  0  0  0  0
  2  3  1  0  0  0  0
  2  4  1  0  0  0  0
  2  5  1  0  0  0  0
  5  6  2  0  0  0  0
  5  7  1  0  0  0  0
  7  8  1  0  0  0  0
  7  9  1  0  0  0  0
  9 10  1  0  0  0  0
  9 11  1  0  0  0  0
  9 26  1  0  0  0  0
 11 12  1  0  0  0  0
 11 13  1  0  0  0  0
 11 14  1  0  0  0  0
 14 15  1  0  0  0  0
 14 16  1  0  0  0  0
 14 17  1  0  0  0  0
 17 18  1  0  0  0  0
 17 19  1  0  0  0  0
 17 20  1  0  0  0  0
 20 21  1  0  0  0  0
 20 22  1  0  0  0  0
 20 23  1  0  0  0  0
 23 24  1  0  0  0  0
 23 25  1  0  0  0  0
 26 27  2  0  0  0  0
 26 28  1  0  0  0  0
 28 29  1  0  0  0  0
 28 30  1  0  0  0  0
 30 31  1  0  0  0  0
 30 32  1  0  0  0  0
 30 33  1  0  0  0  0
M  END
$$$$

  -OEChem-03222214063D

 33 32  0     1  0  0  0  0  0999 V2000
   -2.9726   -4.8123    0.5850 H   0  0  0  0  0  0  0  0  0  0  0  0
   -2.9635   -3.7952    0.1829 C   0  0  0  0  0  0  0  0  0  0  0  0
   -3.6941   -3.1950    0.7299 H   0  0  0  0  0  0  0  0  0  0  0  0
   -3.2460   -3.8317   -0.8717 H   0  0  0  0  0  0  0  0  0  0  0  0
   -1.5804   -3.1891    0.3273 C   0  0  0  0  0  0  0  0  0  0  0  0
   -0.6761   -3.8497    0.8056 O   0  0  0  0  0  0  0  0  0  0  0  0
   -1.3580   -1.8900   -0.0859 N   0  0  0  0  0  0  0  0  0  0  0  0
   -2.1453   -1.3938   -0.4917 H   0  0  0  0  0  0  0  0  0  0  0  0
   -0.0616   -1.1932    0.0100 C   0  0  1  0  0  0  0  0  0  0  0  0
    0.6727   -1.8213   -0.5074 H   0  0  0  0  0  0  0  0  0  0  0  0
   -0.1654    0.1295   -0.8027 C   0  0  0  0  0  0  0  0  0  0  0  0
    0.6164    0.0816   -1.5679 H   0  0  0  0  0  0  0  0  0  0  0  0
   -1.1176    0.1805   -1.3411 H   0  0  0  0  0  0  0  0  0  0  0  0
    0.0569    1.4455   -0.0311 C   0  0  0  0  0  0  0  0  0  0  0  0
    0.8093    1.3384    0.7552 H   0  0  0  0  0  0  0  0  0  0  0  0
    0.4468    2.1949   -0.7277 H   0  0  0  0  0  0  0  0  0  0  0  0
   -1.2712    1.9683    0.5307 C   0  0  0  0  0  0  0  0  0  0  0  0
   -1.9093    2.3079   -0.2915 H   0  0  0  0  0  0  0  0  0  0  0  0
   -1.7979    1.1641    1.0524 H   0  0  0  0  0  0  0  0  0  0  0  0
   -1.0337    3.1132    1.5083 C   0  0  0  0  0  0  0  0  0  0  0  0
   -0.3995    2.7724    2.3346 H   0  0  0  0  0  0  0  0  0  0  0  0
   -0.5218    3.9412    1.0052 H   0  0  0  0  0  0  0  0  0  0  0  0
   -2.3327    3.5539    2.0259 N   0  0  0  0  0  0  0  0  0  0  0  0
   -2.2190    4.2841    2.7295 H   0  0  0  0  0  0  0  0  0  0  0  0
   -2.9395    3.8711    1.2700 H   0  0  0  0  0  0  0  0  0  0  0  0
    0.4775   -1.0661    1.4566 C   0  0  0  0  0  0  0  0  0  0  0  0
    1.6848   -1.0956    1.6585 O   0  0  0  0  0  0  0  0  0  0  0  0
   -0.3617   -0.6805    2.4873 N   0  0  0  0  0  0  0  0  0  0  0  0
   -1.3532   -0.6255    2.2798 H   0  0  0  0  0  0  0  0  0  0  0  0
    0.0952   -0.4205    3.8458 C   0  0  0  0  0  0  0  0  0  0  0  0
    0.8505    0.3724    3.8513 H   0  0  0  0  0  0  0  0  0  0  0  0
   -0.7438   -0.1013    4.4715 H   0  0  0  0  0  0  0  0  0  0  0  0
    0.5299   -1.3260    4.2822 H   0  0  0  0  0  0  0  0  0  0  0  0
  1  2  1  0  0  0  0
  2  3  1  0  0  0  0
  2  4  1  0  0  0  0
  2  5  1  0  0  0  0
  5  6  2  0  0  0  0
  5  7  1  0  0  0  0
  7  8  1  0  0  0  0
  7  9  1  0  0  0  0
  9 10  1  0  0  0  0
  9 11  1  0  0  0  0
  9 26  1  0  0  0  0
 11 12  1  0  0  0  0
 11 13  1  0  0  0  0
 11 14  1  0  0  0  0
 14 15  1  0  0  0  0
 14 16  1  0  0  0  0
 14 17  1  0  0  0  0
 17 18  1  0  0  0  0
 17 19  1  0  0  0  0
 17 20  1  0  0  0  0
 20 21  1  0  0  0  0
 20 22  1  0  0  0  0
 20 23  1  0  0  0  0
 23 24  1  0  0  0  0
 23 25  1  0  0  0  0
 26 27  2  0  0  0  0
 26 28  1  0  0  0  0
 28 29  1  0  0  0  0
 28 30  1  0  0  0  0
 30 31  1  0  0  0  0
 30 32  1  0  0  0  0
 30 33  1  0  0  0  0
M  END
$$$$

  -OEChem-03222214063D

 33 32  0     1  0  0  0  0  0999 V2000
   -2.9232   -4.8762    0.5303 H   0  0  0  0  0  0  0  0  0  0  0  0
   -2.9422   -3.8490    0.1549 C   0  0  0  0  0  0  0  0  0  0  0  0
   -3.6911   -3.2846    0.7153 H   0  0  0  0  0  0  0  0  0  0  0  0
   -3.2209   -3.8656   -0.9015 H   0  0  0  0  0  0  0  0  0  0  0  0
   -1.5772   -3.2083    0.3210 C   0  0  0  0  0  0  0  0  0  0  0  0
   -0.6576   -3.8541    0.7904 O   0  0  0  0  0  0  0  0  0  0  0  0
   -1.3870   -1.8947   -0.0605 N   0  0  0  0  0  0  0  0  0  0  0  0
   -2.1871   -1.4057   -0.4497 H   0  0  0  0  0  0  0  0  0  0  0  0
   -0.1080   -1.1710    0.0517 C   0  0  1  0  0  0  0  0  0  0  0  0
    0.6245   -1.8121   -0.4532 H   0  0  0  0  0  0  0  0  0  0  0  0
   -0.1669    0.1218   -0.8107 C   0  0  0  0  0  0  0  0  0  0  0  0
    0.6420    0.0514   -1.5458 H   0  0  0  0  0  0  0  0  0  0  0  0
   -1.1021    0.1556   -1.3787 H   0  0  0  0  0  0  0  0  0  0  0  0
    0.0176    1.4600   -0.0751 C   0  0  0  0  0  0  0  0  0  0  0  0
    0.8888    1.4043    0.5856 H   0  0  0  0  0  0  0  0  0  0  0  0
    0.2236    2.2485   -0.8064 H   0  0  0  0  0  0  0  0  0  0  0  0
   -1.2434    1.8429    0.7166 C   0  0  0  0  0  0  0  0  0  0  0  0
   -1.9835    2.2623    0.0277 H   0  0  0  0  0  0  0  0  0  0  0  0
   -1.6978    0.9638    1.1772 H   0  0  0  0  0  0  0  0  0  0  0  0
   -0.9189    2.8610    1.8042 C   0  0  0  0  0  0  0  0  0  0  0  0
   -0.1850    2.4422    2.5023 H   0  0  0  0  0  0  0  0  0  0  0  0
   -0.4885    3.7652    1.3593 H   0  0  0  0  0  0  0  0  0  0  0  0
   -2.1592    3.1835    2.5167 N   0  0  0  0  0  0  0  0  0  0  0  0
   -1.9810    3.8230    3.2917 H   0  0  0  0  0  0  0  0  0  0  0  0
   -2.8553    3.5720    1.8804 H   0  0  0  0  0  0  0  0  0  0  0  0
    0.4704   -1.0414    1.4846 C   0  0  0  0  0  0  0  0  0  0  0  0
    1.6850   -1.0424    1.6408 O   0  0  0  0  0  0  0  0  0  0  0  0
   -0.3288   -0.6901    2.5579 N   0  0  0  0  0  0  0  0  0  0  0  0
   -1.3296   -0.6470    2.3959 H   0  0  0  0  0  0  0  0  0  0  0  0
    0.1827   -0.4432    3.8998 C   0  0  0  0  0  0  0  0  0  0  0  0
    0.9281    0.3587    3.8851 H   0  0  0  0  0  0  0  0  0  0  0  0
   -0.6324   -0.1428    4.5650 H   0  0  0  0  0  0  0  0  0  0  0  0
    0.6464   -1.3490    4.3045 H   0  0  0  0  0  0  0  0  0  0  0  0
  1  2  1  0  0  0  0
  2  3  1  0  0  0  0
  2  4  1  0  0  0  0
  2  5  1  0  0  0  0
  5  6  2  0  0  0  0
  5  7  1  0  0  0  0
  7  8  1  0  0  0  0
  7  9  1  0  0  0  0
  9 10  1  0  0  0  0
  9 11  1  0  0  0  0
  9 26  1  0  0  0  0
 11 12  1  0  0  0  0
 11 13  1  0  0  0  0
 11 14  1  0  0  0  0
 14 15  1  0  0  0  0
 14 16  1  0  0  0  0
 14 17  1  0  0  0  0
 17 18  1  0  0  0  0
 17 19  1  0  0  0  0
 17 20  1  0  0  0  0
 20 21  1  0  0  0  0
 20 22  1  0  0  0  0
 20 23  1  0  0  0  0
 23 24  1  0  0  0  0
 23 25  1  0  0  0  0
 26 27  2  0  0  0  0
 26 28  1  0  0  0  0
 28 29  1  0  0  0  0
 28 30  1  0  0  0  0
 30 31  1  0  0  0  0
 30 32  1  0  0  0  0
 30 33  1  0  0  0  0
M  END
$$$$

  -OEChem-03222214063D

 33 32  0     1  0  0  0  0  0999 V2000
   -2.8541   -4.9434    0.4250 H   0  0  0  0  0  0  0  0  0  0  0  0
   -2.9045   -3.9019    0.0946 C   0  0  0  0  0  0  0  0  0  0  0  0
   -3.6640   -3.3826    0.6839 H   0  0  0  0  0  0  0  0  0  0  0  0
   -3.1913   -3.8812   -0.9595 H   0  0  0  0  0  0  0  0  0  0  0  0
   -1.5563   -3.2311    0.2790 C   0  0  0  0  0  0  0  0  0  0  0  0
   -0.6189   -3.8677    0.7258 O   0  0  0  0  0  0  0  0  0  0  0  0
   -1.4040   -1.8989   -0.0527 N   0  0  0  0  0  0  0  0  0  0  0  0
   -2.2214   -1.4153   -0.4113 H   0  0  0  0  0  0  0  0  0  0  0  0
   -0.1478   -1.1419    0.0924 C   0  0  1  0  0  0  0  0  0  0  0  0
    0.5925   -1.7856   -0.3982 H   0  0  0  0  0  0  0  0  0  0  0  0
   -0.1568    0.1287   -0.8052 C   0  0  0  0  0  0  0  0  0  0  0  0
    0.6816    0.0399   -1.5044 H   0  0  0  0  0  0  0  0  0  0  0  0
   -1.0692    0.1358   -1.4098 H   0  0  0  0  0  0  0  0  0  0  0  0
   -0.0236    1.5035   -0.1263 C   0  0  0  0  0  0  0  0  0  0  0  0
    0.9411    1.5288    0.3923 H   0  0  0  0  0  0  0  0  0  0  0  0
    0.0022    2.2882   -0.8892 H   0  0  0  0  0  0  0  0  0  0  0  0
   -1.1548    1.8084    0.8726 C   0  0  0  0  0  0  0  0  0  0  0  0
   -1.6211    0.8937    1.2379 H   0  0  0  0  0  0  0  0  0  0  0  0
   -1.9393    2.3641    0.3497 H   0  0  0  0  0  0  0  0  0  0  0  0
   -0.6554    2.6361    2.0532 C   0  0  0  0  0  0  0  0  0  0  0  0
    0.1508    2.1060    2.5718 H   0  0  0  0  0  0  0  0  0  0  0  0
   -0.2576    3.5939    1.7002 H   0  0  0  0  0  0  0  0  0  0  0  0
   -1.7791    2.8561    2.9696 N   0  0  0  0  0  0  0  0  0  0  0  0
   -1.4770    3.3584    3.8049 H   0  0  0  0  0  0  0  0  0  0  0  0
   -2.5376    3.3538    2.5039 H   0  0  0  0  0  0  0  0  0  0  0  0
    0.4446   -1.0325    1.5223 C   0  0  0  0  0  0  0  0  0  0  0  0
    1.6613   -1.0073    1.6598 O   0  0  0  0  0  0  0  0  0  0  0  0
   -0.3407   -0.7393    2.6229 N   0  0  0  0  0  0  0  0  0  0  0  0
   -1.3444   -0.6973    2.4791 H   0  0  0  0  0  0  0  0  0  0  0  0
    0.1861   -0.5625    3.9701 C   0  0  0  0  0  0  0  0  0  0  0  0
    0.9633    0.2086    3.9830 H   0  0  0  0  0  0  0  0  0  0  0  0
   -0.6141   -0.2544    4.6498 H   0  0  0  0  0  0  0  0  0  0  0  0
    0.6142   -1.5008    4.3375 H   0  0  0  0  0  0  0  0  0  0  0  0
  1  2  1  0  0  0  0
  2  3  1  0  0  0  0
  2  4  1  0  0  0  0
  2  5  1  0  0  0  0
  5  6  2  0  0  0  0
  5  7  1  0  0  0  0
  7  8  1  0  0  0  0
  7  9  1  0  0  0  0
  9 10  1  0  0  0  0
  9 11  1  0  0  0  0
  9 26  1  0  0  0  0
 11 12  1  0  0  0  0
 11 13  1  0  0  0  0
 11 14  1  0  0  0  0
 14 15  1  0  0  0  0
 14 16  1  0  0  0  0
 14 17  1  0  0  0  0
 17 18  1  0  0  0  0
 17 19  1  0  0  0  0
 17 20  1  0  0  0  0
 20 21  1  0  0  0  0
 20 22  1  0  0  0  0
 20 23  1  0  0  0  0
 23 24  1  0  0  0  0
 23 25  1  0  0  0  0
 26 27  2  0  0  0  0
 26 28  1  0  0  0  0
 28 29  1  0  0  0  0
 28 30  1  0  0  0  0
 30 31  1  0  0  0  0
 30 32  1  0  0  0  0
 30 33  1  0  0  0  0
M  END
$$$$

  -OEChem-03222214063D

 33 32  0     1  0  0  0  0  0999 V2000
   -2.8658   -4.9637    0.3012 H   0  0  0  0  0  0  0  0  0  0  0  0
   -2.9028   -3.9148   -0.0065 C   0  0  0  0  0  0  0  0  0  0  0  0
   -3.6873   -3.4099    0.5622 H   0  0  0  0  0  0  0  0  0  0  0  0
   -3.1454   -3.8695   -1.0710 H   0  0  0  0  0  0  0  0  0  0  0  0
   -1.5640   -3.2485    0.2496 C   0  0  0  0  0  0  0  0  0  0  0  0
   -0.6466   -3.8949    0.7231 O   0  0  0  0  0  0  0  0  0  0  0  0
   -1.3991   -1.9096   -0.0478 N   0  0  0  0  0  0  0  0  0  0  0  0
   -2.2018   -1.4196   -0.4304 H   0  0  0  0  0  0  0  0  0  0  0  0
   -0.1533   -1.1513    0.1672 C   0  0  1  0  0  0  0  0  0  0  0  0
    0.6058   -1.8066   -0.2773 H   0  0  0  0  0  0  0  0  0  0  0  0
   -0.0790    0.0979   -0.7587 C   0  0  0  0  0  0  0  0  0  0  0  0
    0.7929   -0.0292   -1.4095 H   0  0  0  0  0  0  0  0  0  0  0  0
   -0.9560    0.0830   -1.4134 H   0  0  0  0  0  0  0  0  0  0  0  0
    0.0183    1.5215   -0.1715 C   0  0  0  0  0  0  0  0  0  0  0  0
    1.0491    1.6520    0.1767 H   0  0  0  0  0  0  0  0  0  0  0  0
   -0.1369    2.2477   -0.9762 H   0  0  0  0  0  0  0  0  0  0  0  0
   -0.9376    1.8497    0.9895 C   0  0  0  0  0  0  0  0  0  0  0  0
   -1.5180    0.9742    1.2804 H   0  0  0  0  0  0  0  0  0  0  0  0
   -1.6642    2.5883    0.6362 H   0  0  0  0  0  0  0  0  0  0  0  0
   -0.2030    2.4331    2.1954 C   0  0  0  0  0  0  0  0  0  0  0  0
    0.5683    1.7387    2.5444 H   0  0  0  0  0  0  0  0  0  0  0  0
    0.2934    3.3687    1.9147 H   0  0  0  0  0  0  0  0  0  0  0  0
   -1.1822    2.6787    3.2604 N   0  0  0  0  0  0  0  0  0  0  0  0
   -0.7227    3.0147    4.1073 H   0  0  0  0  0  0  0  0  0  0  0  0
   -1.8991    3.3355    2.9528 H   0  0  0  0  0  0  0  0  0  0  0  0
    0.3693   -1.0724    1.6250 C   0  0  0  0  0  0  0  0  0  0  0  0
    1.5777   -1.0475    1.8233 O   0  0  0  0  0  0  0  0  0  0  0  0
   -0.4722   -0.8069    2.6903 N   0  0  0  0  0  0  0  0  0  0  0  0
   -1.4664   -0.7631    2.4950 H   0  0  0  0  0  0  0  0  0  0  0  0
   -0.0246   -0.7216    4.0748 C   0  0  0  0  0  0  0  0  0  0  0  0
    0.7861    0.0068    4.1780 H   0  0  0  0  0  0  0  0  0  0  0  0
   -0.8514   -0.4058    4.7182 H   0  0  0  0  0  0  0  0  0  0  0  0
    0.3333   -1.6975    4.4189 H   0  0  0  0  0  0  0  0  0  0  0  0
  1  2  1  0  0  0  0
  2  3  1  0  0  0  0
  2  4  1  0  0  0  0
  2  5  1  0  0  0  0
  5  6  2  0  0  0  0
  5  7  1  0  0  0  0
  7  8  1  0  0  0  0
  7  9  1  0  0  0  0
  9 10  1  0  0  0  0
  9 11  1  0  0  0  0
  9 26  1  0  0  0  0
 11 12  1  0  0  0  0
 11 13  1  0  0  0  0
 11 14  1  0  0  0  0
 14 15  1  0  0  0  0
 14 16  1  0  0  0  0
 14 17  1  0  0  0  0
 17 18  1  0  0  0  0
 17 19  1  0  0  0  0
 17 20  1  0  0  0  0
 20 21  1  0  0  0  0
 20 22  1  0  0  0  0
 20 23  1  0  0  0  0
 23 24  1  0  0  0  0
 23 25  1  0  0  0  0
 26 27  2  0  0  0  0
 26 28  1  0  0  0  0
 28 29  1  0  0  0  0
 28 30  1  0  0  0  0
 30 31  1  0  0  0  0
 30 32  1  0  0  0  0
 30 33  1  0  0  0  0
M  END
$$$$

  -OEChem-03222214063D

 33 32  0     1  0  0  0  0  0999 V2000
   -3.1700   -4.8510    0.1395 H   0  0  0  0  0  0  0  0  0  0  0  0
   -3.1289   -3.7799   -0.0788 C   0  0  0  0  0  0  0  0  0  0  0  0
   -3.8339   -3.2614    0.5750 H   0  0  0  0  0  0  0  0  0  0  0  0
   -3.4216   -3.6222   -1.1197 H   0  0  0  0  0  0  0  0  0  0  0  0
   -1.7237   -3.2551    0.1501 C   0  0  0  0  0  0  0  0  0  0  0  0
   -0.8366   -4.0234    0.4746 O   0  0  0  0  0  0  0  0  0  0  0  0
   -1.4622   -1.9077   -0.0096 N   0  0  0  0  0  0  0  0  0  0  0  0
   -2.2371   -1.3210   -0.3023 H   0  0  0  0  0  0  0  0  0  0  0  0
   -0.1318   -1.2864    0.1413 C   0  0  1  0  0  0  0  0  0  0  0  0
    0.5220   -1.9176   -0.4728 H   0  0  0  0  0  0  0  0  0  0  0  0
   -0.0827    0.0871   -0.5963 C   0  0  0  0  0  0  0  0  0  0  0  0
    0.6661   -0.0059   -1.3905 H   0  0  0  0  0  0  0  0  0  0  0  0
   -1.0447    0.2141   -1.1028 H   0  0  0  0  0  0  0  0  0  0  0  0
    0.2082    1.4348    0.1099 C   0  0  0  0  0  0  0  0  0  0  0  0
    1.2896    1.6063    0.0718 H   0  0  0  0  0  0  0  0  0  0  0  0
   -0.2612    2.2215   -0.4899 H   0  0  0  0  0  0  0  0  0  0  0  0
   -0.2168    1.6008    1.5725 C   0  0  0  0  0  0  0  0  0  0  0  0
   -1.1957    1.1375    1.7294 H   0  0  0  0  0  0  0  0  0  0  0  0
    0.5178    1.1265    2.2272 H   0  0  0  0  0  0  0  0  0  0  0  0
   -0.2926    3.0775    1.9530 C   0  0  0  0  0  0  0  0  0  0  0  0
    0.6914    3.5443    1.8309 H   0  0  0  0  0  0  0  0  0  0  0  0
   -1.0011    3.6010    1.3013 H   0  0  0  0  0  0  0  0  0  0  0  0
   -0.7275    3.1820    3.3496 N   0  0  0  0  0  0  0  0  0  0  0  0
   -0.7427    4.1535    3.6608 H   0  0  0  0  0  0  0  0  0  0  0  0
   -1.6357    2.7403    3.4872 H   0  0  0  0  0  0  0  0  0  0  0  0
    0.5130   -1.4552    1.5376 C   0  0  0  0  0  0  0  0  0  0  0  0
    1.7303   -1.5508    1.6281 O   0  0  0  0  0  0  0  0  0  0  0  0
   -0.2264   -1.2592    2.6912 N   0  0  0  0  0  0  0  0  0  0  0  0
   -1.2319   -1.1853    2.5858 H   0  0  0  0  0  0  0  0  0  0  0  0
    0.3476   -1.3086    4.0300 C   0  0  0  0  0  0  0  0  0  0  0  0
    1.1395   -0.5595    4.1355 H   0  0  0  0  0  0  0  0  0  0  0  0
   -0.4222   -1.1026    4.7794 H   0  0  0  0  0  0  0  0  0  0  0  0
    0.7706   -2.2990    4.2280 H   0  0  0  0  0  0  0  0  0  0  0  0
  1  2  1  0  0  0  0
  2  3  1  0  0  0  0
  2  4  1  0  0  0  0
  2  5  1  0  0  0  0
  5  6  2  0  0  0  0
  5  7  1  0  0  0  0
  7  8  1  0  0  0  0
  7  9  1  0  0  0  0
  9 10  1  0  0  0  0
  9 11  1  0  0  0  0
  9 26  1  0  0  0  0
 11 12  1  0  0  0  0
 11 13  1  0  0  0  0
 11 14  1  0  0  0  0
 14 15  1  0  0  0  0
 14 16  1  0  0  0  0
 14 17  1  0  0  0  0
 17 18  1  0  0  0  0
 17 19  1  0  0  0  0
 17 20  1  0  0  0  0
 20 21  1  0  0  0  0
 20 22  1  0  0  0  0
 20 23  1  0  0  0  0
 23 24  1  0  0  0  0
 23 25  1  0  0  0  0
 26 27  2  0  0  0  0
 26 28  1  0  0  0  0
 28 29  1  0  0  0  0
 28 30  1  0  0  0  0
 30 31  1  0  0  0  0
 30 32  1  0  0  0  0
 30 33  1  0  0  0  0
M  END
$$$$

  -OEChem-03222214063D

 33 32  0     1  0  0  0  0  0999 V2000
   -3.1607   -4.8920    0.0870 H   0  0  0  0  0  0  0  0  0  0  0  0
   -3.1214   -3.8173   -0.1129 C   0  0  0  0  0  0  0  0  0  0  0  0
   -3.8373   -3.3122    0.5398 H   0  0  0  0  0  0  0  0  0  0  0  0
   -3.4009   -3.6438   -1.1548 H   0  0  0  0  0  0  0  0  0  0  0  0
   -1.7220   -3.2901    0.1428 C   0  0  0  0  0  0  0  0  0  0  0  0
   -0.8409   -4.0567    0.4869 O   0  0  0  0  0  0  0  0  0  0  0  0
   -1.4592   -1.9429   -0.0169 N   0  0  0  0  0  0  0  0  0  0  0  0
   -2.2284   -1.3597   -0.3308 H   0  0  0  0  0  0  0  0  0  0  0  0
   -0.1305   -1.3206    0.1484 C   0  0  1  0  0  0  0  0  0  0  0  0
    0.5318   -1.9522   -0.4558 H   0  0  0  0  0  0  0  0  0  0  0  0
   -0.0887    0.0502   -0.6005 C   0  0  0  0  0  0  0  0  0  0  0  0
    0.6728   -0.0524   -1.3813 H   0  0  0  0  0  0  0  0  0  0  0  0
   -1.0408    0.1570   -1.1298 H   0  0  0  0  0  0  0  0  0  0  0  0
    0.1814    1.4258    0.0702 C   0  0  0  0  0  0  0  0  0  0  0  0
    1.1953    1.7316   -0.2106 H   0  0  0  0  0  0  0  0  0  0  0  0
   -0.5041    2.1482   -0.3854 H   0  0  0  0  0  0  0  0  0  0  0  0
    0.0866    1.5666    1.5922 C   0  0  0  0  0  0  0  0  0  0  0  0
   -0.8620    1.1486    1.9403 H   0  0  0  0  0  0  0  0  0  0  0  0
    0.9161    1.0397    2.0707 H   0  0  0  0  0  0  0  0  0  0  0  0
    0.1623    3.0344    2.0054 C   0  0  0  0  0  0  0  0  0  0  0  0
    1.1251    3.4583    1.6989 H   0  0  0  0  0  0  0  0  0  0  0  0
   -0.6332    3.6067    1.5159 H   0  0  0  0  0  0  0  0  0  0  0  0
    0.0171    3.1237    3.4618 N   0  0  0  0  0  0  0  0  0  0  0  0
    0.0926    4.0885    3.7841 H   0  0  0  0  0  0  0  0  0  0  0  0
   -0.8564    2.7007    3.7732 H   0  0  0  0  0  0  0  0  0  0  0  0
    0.4963   -1.4867    1.5527 C   0  0  0  0  0  0  0  0  0  0  0  0
    1.7105   -1.6041    1.6585 O   0  0  0  0  0  0  0  0  0  0  0  0
   -0.2574   -1.2877    2.6966 N   0  0  0  0  0  0  0  0  0  0  0  0
   -1.2615   -1.2155    2.5791 H   0  0  0  0  0  0  0  0  0  0  0  0
    0.3004   -1.3443    4.0417 C   0  0  0  0  0  0  0  0  0  0  0  0
    1.0787   -0.5838    4.1653 H   0  0  0  0  0  0  0  0  0  0  0  0
   -0.4816   -1.1608    4.7846 H   0  0  0  0  0  0  0  0  0  0  0  0
    0.7369   -2.3301    4.2329 H   0  0  0  0  0  0  0  0  0  0  0  0
  1  2  1  0  0  0  0
  2  3  1  0  0  0  0
  2  4  1  0  0  0  0
  2  5  1  0  0  0  0
  5  6  2  0  0  0  0
  5  7  1  0  0  0  0
  7  8  1  0  0  0  0
  7  9  1  0  0  0  0
  9 10  1  0  0  0  0
  9 11  1  0  0  0  0
  9 26  1  0  0  0  0
 11 12  1  0  0  0  0
 11 13  1  0  0  0  0
 11 14  1  0  0  0  0
 14 15  1  0  0  0  0
 14 16  1  0  0  0  0
 14 17  1  0  0  0  0
 17 18  1  0  0  0  0
 17 19  1  0  0  0  0
 17 20  1  0  0  0  0
 20 21  1  0  0  0  0
 20 22  1  0  0  0  0
 20 23  1  0  0  0  0
 23 24  1  0  0  0  0
 23 25  1  0  0  0  0
 26 27  2  0  0  0  0
 26 28  1  0  0  0  0
 28 29  1  0  0  0  0
 28 30  1  0  0  0  0
 30 31  1  0  0  0  0
 30 32  1  0  0  0  0
 30 33  1  0  0  0  0
M  END
$$$$

  -OEChem-03222214063D

 33 32  0     1  0  0  0  0  0999 V2000
   -3.4032   -4.4356    0.6483 H   0  0  0  0  0  0  0  0  0  0  0  0
   -3.2806   -3.4011    0.3145 C   0  0  0  0  0  0  0  0  0  0  0  0
   -3.9349   -2.7605    0.9104 H   0  0  0  0  0  0  0  0  0  0  0  0
   -3.5727   -3.3341   -0.7362 H   0  0  0  0  0  0  0  0  0  0  0  0
   -1.8356   -2.9681    0.4784 C   0  0  0  0  0  0  0  0  0  0  0  0
   -1.0060   -3.7661    0.8746 O   0  0  0  0  0  0  0  0  0  0  0  0
   -1.4751   -1.6661    0.1876 N   0  0  0  0  0  0  0  0  0  0  0  0
   -2.2032   -1.0683   -0.1916 H   0  0  0  0  0  0  0  0  0  0  0  0
   -0.0867   -1.1639    0.1728 C   0  0  1  0  0  0  0  0  0  0  0  0
    0.4417   -1.9198   -0.4213 H   0  0  0  0  0  0  0  0  0  0  0  0
    0.0115    0.1006   -0.7432 C   0  0  0  0  0  0  0  0  0  0  0  0
    0.7110   -0.1793   -1.5388 H   0  0  0  0  0  0  0  0  0  0  0  0
   -0.9574    0.2222   -1.2376 H   0  0  0  0  0  0  0  0  0  0  0  0
    0.4541    1.5305   -0.3115 C   0  0  0  0  0  0  0  0  0  0  0  0
    1.3268    1.7771   -0.9258 H   0  0  0  0  0  0  0  0  0  0  0  0
   -0.3340    2.2304   -0.6099 H   0  0  0  0  0  0  0  0  0  0  0  0
    0.8544    1.8618    1.1299 C   0  0  0  0  0  0  0  0  0  0  0  0
    1.4241    2.7968    1.1235 H   0  0  0  0  0  0  0  0  0  0  0  0
    1.5217    1.1053    1.5420 H   0  0  0  0  0  0  0  0  0  0  0  0
   -0.3800    2.0817    2.0038 C   0  0  0  0  0  0  0  0  0  0  0  0
   -0.9148    2.9797    1.6751 H   0  0  0  0  0  0  0  0  0  0  0  0
   -1.0689    1.2367    1.9153 H   0  0  0  0  0  0  0  0  0  0  0  0
    0.0583    2.2412    3.3918 N   0  0  0  0  0  0  0  0  0  0  0  0
   -0.7335    2.3461    4.0249 H   0  0  0  0  0  0  0  0  0  0  0  0
    0.6514    1.4581    3.6716 H   0  0  0  0  0  0  0  0  0  0  0  0
    0.6805   -1.2849    1.5113 C   0  0  0  0  0  0  0  0  0  0  0  0
    1.8795   -1.5329    1.4959 O   0  0  0  0  0  0  0  0  0  0  0  0
    0.0920   -0.9370    2.7141 N   0  0  0  0  0  0  0  0  0  0  0  0
   -0.9193   -0.8602    2.7045 H   0  0  0  0  0  0  0  0  0  0  0  0
    0.7647   -1.1155    3.9951 C   0  0  0  0  0  0  0  0  0  0  0  0
    1.6993   -0.5453    4.0207 H   0  0  0  0  0  0  0  0  0  0  0  0
    0.1252   -0.7645    4.8105 H   0  0  0  0  0  0  0  0  0  0  0  0
    0.9935   -2.1733    4.1618 H   0  0  0  0  0  0  0  0  0  0  0  0
  1  2  1  0  0  0  0
  2  3  1  0  0  0  0
  2  4  1  0  0  0  0
  2  5  1  0  0  0  0
  5  6  2  0  0  0  0
  5  7  1  0  0  0  0
  7  8  1  0  0  0  0
  7  9  1  0  0  0  0
  9 10  1  0  0  0  0
  9 11  1  0  0  0  0
  9 26  1  0  0  0  0
 11 12  1  0  0  0  0
 11 13  1  0  0  0  0
 11 14  1  0  0  0  0
 14 15  1  0  0  0  0
 14 16  1  0  0  0  0
 14 17  1  0  0  0  0
 17 18  1  0  0  0  0
 17 19  1  0  0  0  0
 17 20  1  0  0  0  0
 20 21  1  0  0  0  0
 20 22  1  0  0  0  0
 20 23  1  0  0  0  0
 23 24  1  0  0  0  0
 23 25  1  0  0  0  0
 26 27  2  0  0  0  0
 26 28  1  0  0  0  0
 28 29  1  0  0  0  0
 28 30  1  0  0  0  0
 30 31  1  0  0  0  0
 30 32  1  0  0  0  0
 30 33  1  0  0  0  0
M  END
$$$$

  -OEChem-03222214063D

 33 32  0     1  0  0  0  0  0999 V2000
   -3.1979   -4.8666    0.1581 H   0  0  0  0  0  0  0  0  0  0  0  0
   -3.1553   -3.7964   -0.0645 C   0  0  0  0  0  0  0  0  0  0  0  0
   -3.8539   -3.2728    0.5926 H   0  0  0  0  0  0  0  0  0  0  0  0
   -3.4549   -3.6422   -1.1040 H   0  0  0  0  0  0  0  0  0  0  0  0
   -1.7471   -3.2751    0.1520 C   0  0  0  0  0  0  0  0  0  0  0  0
   -0.8634   -4.0436    0.4841 O   0  0  0  0  0  0  0  0  0  0  0  0
   -1.4820   -1.9309   -0.0292 N   0  0  0  0  0  0  0  0  0  0  0  0
   -2.2536   -1.3508   -0.3433 H   0  0  0  0  0  0  0  0  0  0  0  0
   -0.1483   -1.3100    0.1038 C   0  0  1  0  0  0  0  0  0  0  0  0
    0.5164   -1.9148   -0.5249 H   0  0  0  0  0  0  0  0  0  0  0  0
   -0.1902    0.0867   -0.5990 C   0  0  0  0  0  0  0  0  0  0  0  0
    0.5758    0.0158   -1.3792 H   0  0  0  0  0  0  0  0  0  0  0  0
   -1.1420    0.1813   -1.1311 H   0  0  0  0  0  0  0  0  0  0  0  0
    0.0776    1.4612    0.0779 C   0  0  0  0  0  0  0  0  0  0  0  0
    0.6751    2.0516   -0.6251 H   0  0  0  0  0  0  0  0  0  0  0  0
   -0.8893    1.9664    0.1714 H   0  0  0  0  0  0  0  0  0  0  0  0
    0.7485    1.5464    1.4528 C   0  0  0  0  0  0  0  0  0  0  0  0
    1.6723    0.9604    1.4588 H   0  0  0  0  0  0  0  0  0  0  0  0
    0.0728    1.1670    2.2200 H   0  0  0  0  0  0  0  0  0  0  0  0
    1.0881    2.9961    1.7928 C   0  0  0  0  0  0  0  0  0  0  0  0
    1.7921    3.4007    1.0571 H   0  0  0  0  0  0  0  0  0  0  0  0
    0.1804    3.6089    1.7682 H   0  0  0  0  0  0  0  0  0  0  0  0
    1.6861    3.0397    3.1300 N   0  0  0  0  0  0  0  0  0  0  0  0
    1.8972    3.9961    3.4135 H   0  0  0  0  0  0  0  0  0  0  0  0
    1.0920    2.5750    3.8160 H   0  0  0  0  0  0  0  0  0  0  0  0
    0.4683   -1.4819    1.5116 C   0  0  0  0  0  0  0  0  0  0  0  0
    1.6697   -1.6849    1.6294 O   0  0  0  0  0  0  0  0  0  0  0  0
   -0.2951   -1.2710    2.6470 N   0  0  0  0  0  0  0  0  0  0  0  0
   -1.2970   -1.1927    2.5139 H   0  0  0  0  0  0  0  0  0  0  0  0
    0.2328   -1.4244    3.9965 C   0  0  0  0  0  0  0  0  0  0  0  0
    1.0951   -0.7662    4.1474 H   0  0  0  0  0  0  0  0  0  0  0  0
   -0.5318   -1.1641    4.7343 H   0  0  0  0  0  0  0  0  0  0  0  0
    0.5457   -2.4595    4.1683 H   0  0  0  0  0  0  0  0  0  0  0  0
  1  2  1  0  0  0  0
  2  3  1  0  0  0  0
  2  4  1  0  0  0  0
  2  5  1  0  0  0  0
  5  6  2  0  0  0  0
  5  7  1  0  0  0  0
  7  8  1  0  0  0  0
  7  9  1  0  0  0  0
  9 10  1  0  0  0  0
  9 11  1  0  0  0  0
  9 26  1  0  0  0  0
 11 12  1  0  0  0  0
 11 13  1  0  0  0  0
 11 14  1  0  0  0  0
 14 15  1  0  0  0  0
 14 16  1  0  0  0  0
 14 17  1  0  0  0  0
 17 18  1  0  0  0  0
 17 19  1  0  0  0  0
 17 20  1  0  0  0  0
 20 21  1  0  0  0  0
 20 22  1  0  0  0  0
 20 23  1  0  0  0  0
 23 24  1  0  0  0  0
 23 25  1  0  0  0  0
 26 27  2  0  0  0  0
 26 28  1  0  0  0  0
 28 29  1  0  0  0  0
 28 30  1  0  0  0  0
 30 31  1  0  0  0  0
 30 32  1  0  0  0  0
 30 33  1  0  0  0  0
M  END
$$$$

  -OEChem-03222214063D

 33 32  0     1  0  0  0  0  0999 V2000
   -3.2273   -4.7895    0.2355 H   0  0  0  0  0  0  0  0  0  0  0  0
   -3.1353   -3.7421   -0.0666 C   0  0  0  0  0  0  0  0  0  0  0  0
   -3.8547   -3.1483    0.5023 H   0  0  0  0  0  0  0  0  0  0  0  0
   -3.3660   -3.6624   -1.1317 H   0  0  0  0  0  0  0  0  0  0  0  0
   -1.7260   -3.2457    0.1968 C   0  0  0  0  0  0  0  0  0  0  0  0
   -0.8886   -4.0121    0.6360 O   0  0  0  0  0  0  0  0  0  0  0  0
   -1.4083   -1.9266   -0.0664 N   0  0  0  0  0  0  0  0  0  0  0  0
   -2.1407   -1.3535   -0.4732 H   0  0  0  0  0  0  0  0  0  0  0  0
   -0.0701   -1.3264    0.1161 C   0  0  1  0  0  0  0  0  0  0  0  0
    0.6372   -1.9587   -0.4338 H   0  0  0  0  0  0  0  0  0  0  0  0
   -0.0772    0.0524   -0.6210 C   0  0  0  0  0  0  0  0  0  0  0  0
    0.7196   -0.0379   -1.3674 H   0  0  0  0  0  0  0  0  0  0  0  0
   -1.0072    0.1488   -1.1905 H   0  0  0  0  0  0  0  0  0  0  0  0
    0.1770    1.4287    0.0513 C   0  0  0  0  0  0  0  0  0  0  0  0
    0.5638    2.0959   -0.7268 H   0  0  0  0  0  0  0  0  0  0  0  0
   -0.7947    1.8283    0.3596 H   0  0  0  0  0  0  0  0  0  0  0  0
    1.1008    1.5199    1.2740 C   0  0  0  0  0  0  0  0  0  0  0  0
    0.6021    1.1389    2.1649 H   0  0  0  0  0  0  0  0  0  0  0  0
    2.0080    0.9332    1.0952 H   0  0  0  0  0  0  0  0  0  0  0  0
    1.4919    2.9717    1.5432 C   0  0  0  0  0  0  0  0  0  0  0  0
    1.9837    3.4023    0.6640 H   0  0  0  0  0  0  0  0  0  0  0  0
    0.5960    3.5649    1.7571 H   0  0  0  0  0  0  0  0  0  0  0  0
    2.4059    3.0086    2.6877 N   0  0  0  0  0  0  0  0  0  0  0  0
    2.6192    3.9660    2.9657 H   0  0  0  0  0  0  0  0  0  0  0  0
    2.0382    2.4695    3.4719 H   0  0  0  0  0  0  0  0  0  0  0  0
    0.4034   -1.4197    1.5854 C   0  0  0  0  0  0  0  0  0  0  0  0
    1.5745   -1.6652    1.8427 O   0  0  0  0  0  0  0  0  0  0  0  0
   -0.4663   -1.1072    2.6171 N   0  0  0  0  0  0  0  0  0  0  0  0
   -1.4446   -1.0181    2.3666 H   0  0  0  0  0  0  0  0  0  0  0  0
   -0.1103   -1.2596    4.0219 C   0  0  0  0  0  0  0  0  0  0  0  0
    0.7660   -0.6492    4.2643 H   0  0  0  0  0  0  0  0  0  0  0  0
   -0.9401   -0.9393    4.6591 H   0  0  0  0  0  0  0  0  0  0  0  0
    0.1172   -2.3071    4.2463 H   0  0  0  0  0  0  0  0  0  0  0  0
  1  2  1  0  0  0  0
  2  3  1  0  0  0  0
  2  4  1  0  0  0  0
  2  5  1  0  0  0  0
  5  6  2  0  0  0  0
  5  7  1  0  0  0  0
  7  8  1  0  0  0  0
  7  9  1  0  0  0  0
  9 10  1  0  0  0  0
  9 11  1  0  0  0  0
  9 26  1  0  0  0  0
 11 12  1  0  0  0  0
 11 13  1  0  0  0  0
 11 14  1  0  0  0  0
 14 15  1  0  0  0  0
 14 16  1  0  0  0  0
 14 17  1  0  0  0  0
 17 18  1  0  0  0  0
 17 19  1  0  0  0  0
 17 20  1  0  0  0  0
 20 21  1  0  0  0  0
 20 22  1  0  0  0  0
 20 23  1  0  0  0  0
 23 24  1  0  0  0  0
 23 25  1  0  0  0  0
 26 27  2  0  0  0  0
 26 28  1  0  0  0  0
 28 29  1  0  0  0  0
 28 30  1  0  0  0  0
 30 31  1  0  0  0  0
 30 32  1  0  0  0  0
 30 33  1  0  0  0  0
M  END
$$$$

  -OEChem-03222214063D

 33 32  0     1  0  0  0  0  0999 V2000
   -3.1573   -4.8133    0.2732 H   0  0  0  0  0  0  0  0  0  0  0  0
   -3.0851   -3.7684   -0.0420 C   0  0  0  0  0  0  0  0  0  0  0  0
   -3.8279   -3.1845    0.5066 H   0  0  0  0  0  0  0  0  0  0  0  0
   -3.3008   -3.7094   -1.1115 H   0  0  0  0  0  0  0  0  0  0  0  0
   -1.6924   -3.2345    0.2375 C   0  0  0  0  0  0  0  0  0  0  0  0
   -0.8530   -3.9674    0.7269 O   0  0  0  0  0  0  0  0  0  0  0  0
   -1.3911   -1.9211   -0.0703 N   0  0  0  0  0  0  0  0  0  0  0  0
   -2.1175   -1.3845   -0.5334 H   0  0  0  0  0  0  0  0  0  0  0  0
   -0.0601   -1.2990    0.0944 C   0  0  1  0  0  0  0  0  0  0  0  0
    0.6614   -1.9173   -0.4520 H   0  0  0  0  0  0  0  0  0  0  0  0
   -0.1151    0.0819   -0.6331 C   0  0  0  0  0  0  0  0  0  0  0  0
    0.6554    0.0262   -1.4097 H   0  0  0  0  0  0  0  0  0  0  0  0
   -1.0690    0.1742   -1.1621 H   0  0  0  0  0  0  0  0  0  0  0  0
    0.1270    1.4339    0.0849 C   0  0  0  0  0  0  0  0  0  0  0  0
    0.2415    2.1921   -0.6970 H   0  0  0  0  0  0  0  0  0  0  0  0
   -0.7754    1.6877    0.6504 H   0  0  0  0  0  0  0  0  0  0  0  0
    1.3219    1.5378    1.0474 C   0  0  0  0  0  0  0  0  0  0  0  0
    1.0834    1.0970    2.0161 H   0  0  0  0  0  0  0  0  0  0  0  0
    2.1814    1.0070    0.6242 H   0  0  0  0  0  0  0  0  0  0  0  0
    1.6999    2.9987    1.2833 C   0  0  0  0  0  0  0  0  0  0  0  0
    1.9254    3.4933    0.3321 H   0  0  0  0  0  0  0  0  0  0  0  0
    0.8629    3.5272    1.7530 H   0  0  0  0  0  0  0  0  0  0  0  0
    2.8779    3.0423    2.1532 N   0  0  0  0  0  0  0  0  0  0  0  0
    3.1045    3.9972    2.4293 H   0  0  0  0  0  0  0  0  0  0  0  0
    2.7549    2.4418    2.9693 H   0  0  0  0  0  0  0  0  0  0  0  0
    0.4144   -1.3346    1.5648 C   0  0  0  0  0  0  0  0  0  0  0  0
    1.5866   -1.5661    1.8313 O   0  0  0  0  0  0  0  0  0  0  0  0
   -0.4595   -0.9944    2.5836 N   0  0  0  0  0  0  0  0  0  0  0  0
   -1.4391   -0.9298    2.3305 H   0  0  0  0  0  0  0  0  0  0  0  0
   -0.1008   -1.0853    3.9929 C   0  0  0  0  0  0  0  0  0  0  0  0
    0.7670   -0.4535    4.2088 H   0  0  0  0  0  0  0  0  0  0  0  0
   -0.9342   -0.7507    4.6177 H   0  0  0  0  0  0  0  0  0  0  0  0
    0.1415   -2.1196    4.2595 H   0  0  0  0  0  0  0  0  0  0  0  0
  1  2  1  0  0  0  0
  2  3  1  0  0  0  0
  2  4  1  0  0  0  0
  2  5  1  0  0  0  0
  5  6  2  0  0  0  0
  5  7  1  0  0  0  0
  7  8  1  0  0  0  0
  7  9  1  0  0  0  0
  9 10  1  0  0  0  0
  9 11  1  0  0  0  0
  9 26  1  0  0  0  0
 11 12  1  0  0  0  0
 11 13  1  0  0  0  0
 11 14  1  0  0  0  0
 14 15  1  0  0  0  0
 14 16  1  0  0  0  0
 14 17  1  0  0  0  0
 17 18  1  0  0  0  0
 17 19  1  0  0  0  0
 17 20  1  0  0  0  0
 20 21  1  0  0  0  0
 20 22  1  0  0  0  0
 20 23  1  0  0  0  0
 23 24  1  0  0  0  0
 23 25  1  0  0  0  0
 26 27  2  0  0  0  0
 26 28  1  0  0  0  0
 28 29  1  0  0  0  0
 28 30  1  0  0  0  0
 30 31  1  0  0  0  0
 30 32  1  0  0  0  0
 30 33  1  0  0  0  0
M  END
$$$$

  -OEChem-03222214063D

 33 32  0     1  0  0  0  0  0999 V2000
   -3.1286   -4.7992    0.3519 H   0  0  0  0  0  0  0  0  0  0  0  0
   -3.0541   -3.7722   -0.0173 C   0  0  0  0  0  0  0  0  0  0  0  0
   -3.8265   -3.1689    0.4652 H   0  0  0  0  0  0  0  0  0  0  0  0
   -3.2222   -3.7745   -1.0969 H   0  0  0  0  0  0  0  0  0  0  0  0
   -1.6810   -3.2054    0.2917 C   0  0  0  0  0  0  0  0  0  0  0  0
   -0.8511   -3.9055    0.8415 O   0  0  0  0  0  0  0  0  0  0  0  0
   -1.3840   -1.9035   -0.0653 N   0  0  0  0  0  0  0  0  0  0  0  0
   -2.0965   -1.4033   -0.5874 H   0  0  0  0  0  0  0  0  0  0  0  0
   -0.0559   -1.2720    0.0863 C   0  0  1  0  0  0  0  0  0  0  0  0
    0.6724   -1.8975   -0.4428 H   0  0  0  0  0  0  0  0  0  0  0  0
   -0.1215    0.0946   -0.6631 C   0  0  0  0  0  0  0  0  0  0  0  0
    0.6276    0.0451   -1.4604 H   0  0  0  0  0  0  0  0  0  0  0  0
   -1.0911    0.1859   -1.1631 H   0  0  0  0  0  0  0  0  0  0  0  0
    0.1214    1.4276    0.0823 C   0  0  0  0  0  0  0  0  0  0  0  0
   -0.0036    2.2306   -0.6517 H   0  0  0  0  0  0  0  0  0  0  0  0
   -0.6538    1.5616    0.8436 H   0  0  0  0  0  0  0  0  0  0  0  0
    1.4999    1.5871    0.7483 C   0  0  0  0  0  0  0  0  0  0  0  0
    1.5355    1.0671    1.7064 H   0  0  0  0  0  0  0  0  0  0  0  0
    2.2731    1.1641    0.0984 H   0  0  0  0  0  0  0  0  0  0  0  0
    1.8093    3.0596    1.0062 C   0  0  0  0  0  0  0  0  0  0  0  0
    1.7664    3.6288    0.0709 H   0  0  0  0  0  0  0  0  0  0  0  0
    1.0688    3.4793    1.6960 H   0  0  0  0  0  0  0  0  0  0  0  0
    3.1524    3.1583    1.5831 N   0  0  0  0  0  0  0  0  0  0  0  0
    3.3647    4.1121    1.8739 H   0  0  0  0  0  0  0  0  0  0  0  0
    3.2669    2.5038    2.3582 H   0  0  0  0  0  0  0  0  0  0  0  0
    0.4198   -1.2423    1.5569 C   0  0  0  0  0  0  0  0  0  0  0  0
    1.5866   -1.4899    1.8338 O   0  0  0  0  0  0  0  0  0  0  0  0
   -0.4507   -0.8616    2.5633 N   0  0  0  0  0  0  0  0  0  0  0  0
   -1.4304   -0.8001    2.3092 H   0  0  0  0  0  0  0  0  0  0  0  0
   -0.0900   -0.9070    3.9741 C   0  0  0  0  0  0  0  0  0  0  0  0
    0.7534   -0.2381    4.1749 H   0  0  0  0  0  0  0  0  0  0  0  0
   -0.9355   -0.5908    4.5921 H   0  0  0  0  0  0  0  0  0  0  0  0
    0.1912   -1.9250    4.2639 H   0  0  0  0  0  0  0  0  0  0  0  0
  1  2  1  0  0  0  0
  2  3  1  0  0  0  0
  2  4  1  0  0  0  0
  2  5  1  0  0  0  0
  5  6  2  0  0  0  0
  5  7  1  0  0  0  0
  7  8  1  0  0  0  0
  7  9  1  0  0  0  0
  9 10  1  0  0  0  0
  9 11  1  0  0  0  0
  9 26  1  0  0  0  0
 11 12  1  0  0  0  0
 11 13  1  0  0  0  0
 11 14  1  0  0  0  0
 14 15  1  0  0  0  0
 14 16  1  0  0  0  0
 14 17  1  0  0  0  0
 17 18  1  0  0  0  0
 17 19  1  0  0  0  0
 17 20  1  0  0  0  0
 20 21  1  0  0  0  0
 20 22  1  0  0  0  0
 20 23  1  0  0  0  0
 23 24  1  0  0  0  0
 23 25  1  0  0  0  0
 26 27  2  0  0  0  0
 26 28  1  0  0  0  0
 28 29  1  0  0  0  0
 28 30  1  0  0  0  0
 30 31  1  0  0  0  0
 30 32  1  0  0  0  0
 30 33  1  0  0  0  0
M  END
$$$$

  -OEChem-03222214063D

 33 32  0     1  0  0  0  0  0999 V2000
   -2.9921   -4.7868    0.6011 H   0  0  0  0  0  0  0  0  0  0  0  0
   -2.9587   -3.7795    0.1758 C   0  0  0  0  0  0  0  0  0  0  0  0
   -3.7336   -3.1724    0.6498 H   0  0  0  0  0  0  0  0  0  0  0  0
   -3.1589   -3.8449   -0.8963 H   0  0  0  0  0  0  0  0  0  0  0  0
   -1.5944   -3.1595    0.4130 C   0  0  0  0  0  0  0  0  0  0  0  0
   -0.7493   -3.7819    1.0291 O   0  0  0  0  0  0  0  0  0  0  0  0
   -1.3255   -1.8947   -0.0751 N   0  0  0  0  0  0  0  0  0  0  0  0
   -2.0488   -1.4647   -0.6430 H   0  0  0  0  0  0  0  0  0  0  0  0
   -0.0139   -1.2193    0.0144 C   0  0  1  0  0  0  0  0  0  0  0  0
    0.7347   -1.8718   -0.4494 H   0  0  0  0  0  0  0  0  0  0  0  0
   -0.1119    0.0711   -0.8588 C   0  0  0  0  0  0  0  0  0  0  0  0
    0.6204   -0.0199   -1.6681 H   0  0  0  0  0  0  0  0  0  0  0  0
   -1.0951    0.1086   -1.3387 H   0  0  0  0  0  0  0  0  0  0  0  0
    0.1092    1.4381   -0.1818 C   0  0  0  0  0  0  0  0  0  0  0  0
   -0.2578    2.2247   -0.8492 H   0  0  0  0  0  0  0  0  0  0  0  0
   -0.4890    1.4914    0.7325 H   0  0  0  0  0  0  0  0  0  0  0  0
    1.5862    1.7303    0.1303 C   0  0  0  0  0  0  0  0  0  0  0  0
    2.0875    0.8581    0.5488 H   0  0  0  0  0  0  0  0  0  0  0  0
    2.1035    1.9794   -0.8020 H   0  0  0  0  0  0  0  0  0  0  0  0
    1.7163    2.8914    1.1101 C   0  0  0  0  0  0  0  0  0  0  0  0
    1.2186    3.7822    0.7114 H   0  0  0  0  0  0  0  0  0  0  0  0
    1.2400    2.6297    2.0617 H   0  0  0  0  0  0  0  0  0  0  0  0
    3.1409    3.1626    1.3184 N   0  0  0  0  0  0  0  0  0  0  0  0
    3.2805    3.8927    2.0162 H   0  0  0  0  0  0  0  0  0  0  0  0
    3.6349    2.3087    1.5835 H   0  0  0  0  0  0  0  0  0  0  0  0
    0.4475   -1.0303    1.4834 C   0  0  0  0  0  0  0  0  0  0  0  0
    1.6129   -1.2287    1.8019 O   0  0  0  0  0  0  0  0  0  0  0  0
   -0.4406   -0.5717    2.4415 N   0  0  0  0  0  0  0  0  0  0  0  0
   -1.4193   -0.5631    2.1758 H   0  0  0  0  0  0  0  0  0  0  0  0
   -0.0964   -0.4738    3.8540 C   0  0  0  0  0  0  0  0  0  0  0  0
    0.7535    0.2021    3.9950 H   0  0  0  0  0  0  0  0  0  0  0  0
   -0.9450   -0.0842    4.4241 H   0  0  0  0  0  0  0  0  0  0  0  0
    0.1672   -1.4595    4.2518 H   0  0  0  0  0  0  0  0  0  0  0  0
  1  2  1  0  0  0  0
  2  3  1  0  0  0  0
  2  4  1  0  0  0  0
  2  5  1  0  0  0  0
  5  6  2  0  0  0  0
  5  7  1  0  0  0  0
  7  8  1  0  0  0  0
  7  9  1  0  0  0  0
  9 10  1  0  0  0  0
  9 11  1  0  0  0  0
  9 26  1  0  0  0  0
 11 12  1  0  0  0  0
 11 13  1  0  0  0  0
 11 14  1  0  0  0  0
 14 15  1  0  0  0  0
 14 16  1  0  0  0  0
 14 17  1  0  0  0  0
 17 18  1  0  0  0  0
 17 19  1  0  0  0  0
 17 20  1  0  0  0  0
 20 21  1  0  0  0  0
 20 22  1  0  0  0  0
 20 23  1  0  0  0  0
 23 24  1  0  0  0  0
 23 25  1  0  0  0  0
 26 27  2  0  0  0  0
 26 28  1  0  0  0  0
 28 29  1  0  0  0  0
 28 30  1  0  0  0  0
 30 31  1  0  0  0  0
 30 32  1  0  0  0  0
 30 33  1  0  0  0  0
M  END
$$$$

  -OEChem-03222214063D

 33 32  0     1  0  0  0  0  0999 V2000
   -2.9137   -4.8650    0.5092 H   0  0  0  0  0  0  0  0  0  0  0  0
   -2.9196   -3.8469    0.1092 C   0  0  0  0  0  0  0  0  0  0  0  0
   -3.7287   -3.2871    0.5840 H   0  0  0  0  0  0  0  0  0  0  0  0
   -3.1001   -3.8950   -0.9672 H   0  0  0  0  0  0  0  0  0  0  0  0
   -1.5888   -3.1715    0.3829 C   0  0  0  0  0  0  0  0  0  0  0  0
   -0.7274   -3.7652    1.0052 O   0  0  0  0  0  0  0  0  0  0  0  0
   -1.3671   -1.8863   -0.0739 N   0  0  0  0  0  0  0  0  0  0  0  0
   -2.0978   -1.4756   -0.6469 H   0  0  0  0  0  0  0  0  0  0  0  0
   -0.0775   -1.1738    0.0290 C   0  0  1  0  0  0  0  0  0  0  0  0
    0.6760   -1.8191   -0.4374 H   0  0  0  0  0  0  0  0  0  0  0  0
   -0.1490    0.1125   -0.8464 C   0  0  0  0  0  0  0  0  0  0  0  0
    0.5953    0.0263   -1.6453 H   0  0  0  0  0  0  0  0  0  0  0  0
   -1.1245    0.1479   -1.3412 H   0  0  0  0  0  0  0  0  0  0  0  0
    0.0476    1.4667   -0.1356 C   0  0  0  0  0  0  0  0  0  0  0  0
   -0.5000    2.2332   -0.6939 H   0  0  0  0  0  0  0  0  0  0  0  0
   -0.3758    1.4545    0.8710 H   0  0  0  0  0  0  0  0  0  0  0  0
    1.5263    1.8766   -0.1088 C   0  0  0  0  0  0  0  0  0  0  0  0
    2.1383    1.0556    0.2745 H   0  0  0  0  0  0  0  0  0  0  0  0
    1.8642    2.0956   -1.1272 H   0  0  0  0  0  0  0  0  0  0  0  0
    1.7354    3.1027    0.7736 C   0  0  0  0  0  0  0  0  0  0  0  0
    1.1236    3.9376    0.4144 H   0  0  0  0  0  0  0  0  0  0  0  0
    1.4350    2.8758    1.8028 H   0  0  0  0  0  0  0  0  0  0  0  0
    3.1543    3.4661    0.7318 N   0  0  0  0  0  0  0  0  0  0  0  0
    3.3516    4.2543    1.3476 H   0  0  0  0  0  0  0  0  0  0  0  0
    3.7382    2.6636    0.9725 H   0  0  0  0  0  0  0  0  0  0  0  0
    0.4185   -0.9902    1.4864 C   0  0  0  0  0  0  0  0  0  0  0  0
    1.6147   -1.0451    1.7413 O   0  0  0  0  0  0  0  0  0  0  0  0
   -0.4568   -0.5760    2.4757 N   0  0  0  0  0  0  0  0  0  0  0  0
   -1.4444   -0.6519    2.2574 H   0  0  0  0  0  0  0  0  0  0  0  0
   -0.0561   -0.4122    3.8672 C   0  0  0  0  0  0  0  0  0  0  0  0
    0.7357    0.3396    3.9523 H   0  0  0  0  0  0  0  0  0  0  0  0
   -0.9081   -0.0846    4.4703 H   0  0  0  0  0  0  0  0  0  0  0  0
    0.3130   -1.3605    4.2723 H   0  0  0  0  0  0  0  0  0  0  0  0
  1  2  1  0  0  0  0
  2  3  1  0  0  0  0
  2  4  1  0  0  0  0
  2  5  1  0  0  0  0
  5  6  2  0  0  0  0
  5  7  1  0  0  0  0
  7  8  1  0  0  0  0
  7  9  1  0  0  0  0
  9 10  1  0  0  0  0
  9 11  1  0  0  0  0
  9 26  1  0  0  0  0
 11 12  1  0  0  0  0
 11 13  1  0  0  0  0
 11 14  1  0  0  0  0
 14 15  1  0  0  0  0
 14 16  1  0  0  0  0
 14 17  1  0  0  0  0
 17 18  1  0  0  0  0
 17 19  1  0  0  0  0
 17 20  1  0  0  0  0
 20 21  1  0  0  0  0
 20 22  1  0  0  0  0
 20 23  1  0  0  0  0
 23 24  1  0  0  0  0
 23 25  1  0  0  0  0
 26 27  2  0  0  0  0
 26 28  1  0  0  0  0
 28 29  1  0  0  0  0
 28 30  1  0  0  0  0
 30 31  1  0  0  0  0
 30 32  1  0  0  0  0
 30 33  1  0  0  0  0
M  END
$$$$

  -OEChem-03222214063D

 33 32  0     1  0  0  0  0  0999 V2000
   -2.8919   -4.8980    0.4306 H   0  0  0  0  0  0  0  0  0  0  0  0
   -2.9114   -3.8711    0.0542 C   0  0  0  0  0  0  0  0  0  0  0  0
   -3.7324   -3.3352    0.5362 H   0  0  0  0  0  0  0  0  0  0  0  0
   -3.0837   -3.8970   -1.0244 H   0  0  0  0  0  0  0  0  0  0  0  0
   -1.5933   -3.1818    0.3530 C   0  0  0  0  0  0  0  0  0  0  0  0
   -0.7237   -3.7776    0.9623 O   0  0  0  0  0  0  0  0  0  0  0  0
   -1.3907   -1.8809   -0.0662 N   0  0  0  0  0  0  0  0  0  0  0  0
   -2.1289   -1.4619   -0.6234 H   0  0  0  0  0  0  0  0  0  0  0  0
   -0.1105   -1.1556    0.0544 C   0  0  1  0  0  0  0  0  0  0  0  0
    0.6431   -1.7938   -0.4214 H   0  0  0  0  0  0  0  0  0  0  0  0
   -0.1641    0.1386   -0.8076 C   0  0  0  0  0  0  0  0  0  0  0  0
    0.5922    0.0511   -1.5953 H   0  0  0  0  0  0  0  0  0  0  0  0
   -1.1299    0.1765   -1.3209 H   0  0  0  0  0  0  0  0  0  0  0  0
    0.0198    1.4923   -0.0845 C   0  0  0  0  0  0  0  0  0  0  0  0
   -0.7159    2.1979   -0.4847 H   0  0  0  0  0  0  0  0  0  0  0  0
   -0.1704    1.4271    0.9876 H   0  0  0  0  0  0  0  0  0  0  0  0
    1.4158    2.0679   -0.3502 C   0  0  0  0  0  0  0  0  0  0  0  0
    2.1741    1.3328   -0.0595 H   0  0  0  0  0  0  0  0  0  0  0  0
    1.5350    2.2729   -1.4193 H   0  0  0  0  0  0  0  0  0  0  0  0
    1.6375    3.3522    0.4419 C   0  0  0  0  0  0  0  0  0  0  0  0
    0.8801    4.0972    0.1744 H   0  0  0  0  0  0  0  0  0  0  0  0
    1.5521    3.1475    1.5151 H   0  0  0  0  0  0  0  0  0  0  0  0
    2.9752    3.8638    0.1310 N   0  0  0  0  0  0  0  0  0  0  0  0
    3.1836    4.7034    0.6709 H   0  0  0  0  0  0  0  0  0  0  0  0
    3.6824    3.1454    0.2918 H   0  0  0  0  0  0  0  0  0  0  0  0
    0.4012   -1.0010    1.5082 C   0  0  0  0  0  0  0  0  0  0  0  0
    1.6053   -0.9740    1.7289 O   0  0  0  0  0  0  0  0  0  0  0  0
   -0.4696   -0.6240    2.5164 N   0  0  0  0  0  0  0  0  0  0  0  0
   -1.4578   -0.7420    2.3200 H   0  0  0  0  0  0  0  0  0  0  0  0
   -0.0459   -0.4326    3.8976 C   0  0  0  0  0  0  0  0  0  0  0  0
    0.7053    0.3615    3.9616 H   0  0  0  0  0  0  0  0  0  0  0  0
   -0.9002   -0.1487    4.5194 H   0  0  0  0  0  0  0  0  0  0  0  0
    0.3835   -1.3573    4.2977 H   0  0  0  0  0  0  0  0  0  0  0  0
  1  2  1  0  0  0  0
  2  3  1  0  0  0  0
  2  4  1  0  0  0  0
  2  5  1  0  0  0  0
  5  6  2  0  0  0  0
  5  7  1  0  0  0  0
  7  8  1  0  0  0  0
  7  9  1  0  0  0  0
  9 10  1  0  0  0  0
  9 11  1  0  0  0  0
  9 26  1  0  0  0  0
 11 12  1  0  0  0  0
 11 13  1  0  0  0  0
 11 14  1  0  0  0  0
 14 15  1  0  0  0  0
 14 16  1  0  0  0  0
 14 17  1  0  0  0  0
 17 18  1  0  0  0  0
 17 19  1  0  0  0  0
 17 20  1  0  0  0  0
 20 21  1  0  0  0  0
 20 22  1  0  0  0  0
 20 23  1  0  0  0  0
 23 24  1  0  0  0  0
 23 25  1  0  0  0  0
 26 27  2  0  0  0  0
 26 28  1  0  0  0  0
 28 29  1  0  0  0  0
 28 30  1  0  0  0  0
 30 31  1  0  0  0  0
 30 32  1  0  0  0  0
 30 33  1  0  0  0  0
M  END
$$$$

  -OEChem-03222214063D

 33 32  0     1  0  0  0  0  0999 V2000
   -2.9171   -4.8785    0.4006 H   0  0  0  0  0  0  0  0  0  0  0  0
   -2.9210   -3.8502    0.0279 C   0  0  0  0  0  0  0  0  0  0  0  0
   -3.7344   -3.3041    0.5114 H   0  0  0  0  0  0  0  0  0  0  0  0
   -3.0931   -3.8692   -1.0510 H   0  0  0  0  0  0  0  0  0  0  0  0
   -1.5933   -3.1812    0.3299 C   0  0  0  0  0  0  0  0  0  0  0  0
   -0.7244   -3.7979    0.9191 O   0  0  0  0  0  0  0  0  0  0  0  0
   -1.3814   -1.8741   -0.0641 N   0  0  0  0  0  0  0  0  0  0  0  0
   -2.1192   -1.4364   -0.6074 H   0  0  0  0  0  0  0  0  0  0  0  0
   -0.0984   -1.1575    0.0752 C   0  0  1  0  0  0  0  0  0  0  0  0
    0.6564   -1.7863   -0.4115 H   0  0  0  0  0  0  0  0  0  0  0  0
   -0.1597    0.1550   -0.7589 C   0  0  0  0  0  0  0  0  0  0  0  0
    0.6120    0.0730   -1.5321 H   0  0  0  0  0  0  0  0  0  0  0  0
   -1.1135    0.1987   -1.2945 H   0  0  0  0  0  0  0  0  0  0  0  0
    0.0210    1.5076   -0.0249 C   0  0  0  0  0  0  0  0  0  0  0  0
   -0.8792    2.1114   -0.1792 H   0  0  0  0  0  0  0  0  0  0  0  0
    0.1398    1.3950    1.0531 H   0  0  0  0  0  0  0  0  0  0  0  0
    1.2327    2.2697   -0.5748 C   0  0  0  0  0  0  0  0  0  0  0  0
    2.1323    1.6551   -0.4616 H   0  0  0  0  0  0  0  0  0  0  0  0
    1.0890    2.4701   -1.6418 H   0  0  0  0  0  0  0  0  0  0  0  0
    1.4311    3.5888    0.1650 C   0  0  0  0  0  0  0  0  0  0  0  0
    0.5303    4.2071    0.0833 H   0  0  0  0  0  0  0  0  0  0  0  0
    1.6185    3.3975    1.2276 H   0  0  0  0  0  0  0  0  0  0  0  0
    2.5729    4.2868   -0.4327 N   0  0  0  0  0  0  0  0  0  0  0  0
    2.7603    5.1668    0.0476 H   0  0  0  0  0  0  0  0  0  0  0  0
    3.4016    3.6912   -0.4337 H   0  0  0  0  0  0  0  0  0  0  0  0
    0.4027   -1.0347    1.5345 C   0  0  0  0  0  0  0  0  0  0  0  0
    1.6051   -1.0085    1.7629 O   0  0  0  0  0  0  0  0  0  0  0  0
   -0.4757   -0.6727    2.5415 N   0  0  0  0  0  0  0  0  0  0  0  0
   -1.4630   -0.7810    2.3350 H   0  0  0  0  0  0  0  0  0  0  0  0
   -0.0620   -0.5011    3.9282 C   0  0  0  0  0  0  0  0  0  0  0  0
    0.6943    0.2869    4.0079 H   0  0  0  0  0  0  0  0  0  0  0  0
   -0.9190   -0.2190    4.5471 H   0  0  0  0  0  0  0  0  0  0  0  0
    0.3581   -1.4338    4.3192 H   0  0  0  0  0  0  0  0  0  0  0  0
  1  2  1  0  0  0  0
  2  3  1  0  0  0  0
  2  4  1  0  0  0  0
  2  5  1  0  0  0  0
  5  6  2  0  0  0  0
  5  7  1  0  0  0  0
  7  8  1  0  0  0  0
  7  9  1  0  0  0  0
  9 10  1  0  0  0  0
  9 11  1  0  0  0  0
  9 26  1  0  0  0  0
 11 12  1  0  0  0  0
 11 13  1  0  0  0  0
 11 14  1  0  0  0  0
 14 15  1  0  0  0  0
 14 16  1  0  0  0  0
 14 17  1  0  0  0  0
 17 18  1  0  0  0  0
 17 19  1  0  0  0  0
 17 20  1  0  0  0  0
 20 21  1  0  0  0  0
 20 22  1  0  0  0  0
 20 23  1  0  0  0  0
 23 24  1  0  0  0  0
 23 25  1  0  0  0  0
 26 27  2  0  0  0  0
 26 28  1  0  0  0  0
 28 29  1  0  0  0  0
 28 30  1  0  0  0  0
 30 31  1  0  0  0  0
 30 32  1  0  0  0  0
 30 33  1  0  0  0  0
M  END
$$$$

  -OEChem-03222214063D

 33 32  0     1  0  0  0  0  0999 V2000
   -2.9232   -4.8630    0.3791 H   0  0  0  0  0  0  0  0  0  0  0  0
   -2.9243   -3.8286    0.0232 C   0  0  0  0  0  0  0  0  0  0  0  0
   -3.7345   -3.2876    0.5176 H   0  0  0  0  0  0  0  0  0  0  0  0
   -3.0992   -3.8294   -1.0555 H   0  0  0  0  0  0  0  0  0  0  0  0
   -1.5937   -3.1688    0.3331 C   0  0  0  0  0  0  0  0  0  0  0  0
   -0.7338   -3.7917    0.9290 O   0  0  0  0  0  0  0  0  0  0  0  0
   -1.3702   -1.8634   -0.0606 N   0  0  0  0  0  0  0  0  0  0  0  0
   -2.1006   -1.4236   -0.6120 H   0  0  0  0  0  0  0  0  0  0  0  0
   -0.0806   -1.1579    0.0761 C   0  0  1  0  0  0  0  0  0  0  0  0
    0.6721   -1.7790   -0.4230 H   0  0  0  0  0  0  0  0  0  0  0  0
   -0.1647    0.1703   -0.7323 C   0  0  0  0  0  0  0  0  0  0  0  0
    0.6140    0.1005   -1.4993 H   0  0  0  0  0  0  0  0  0  0  0  0
   -1.1150    0.2234   -1.2726 H   0  0  0  0  0  0  0  0  0  0  0  0
    0.0265    1.5105    0.0211 C   0  0  0  0  0  0  0  0  0  0  0  0
   -0.9500    1.9826    0.1700 H   0  0  0  0  0  0  0  0  0  0  0  0
    0.4736    1.3720    1.0069 H   0  0  0  0  0  0  0  0  0  0  0  0
    0.9571    2.4474   -0.7598 C   0  0  0  0  0  0  0  0  0  0  0  0
    1.9323    1.9685   -0.8970 H   0  0  0  0  0  0  0  0  0  0  0  0
    0.5326    2.6442   -1.7498 H   0  0  0  0  0  0  0  0  0  0  0  0
    1.1471    3.7684   -0.0202 C   0  0  0  0  0  0  0  0  0  0  0  0
    0.1780    4.2543    0.1379 H   0  0  0  0  0  0  0  0  0  0  0  0
    1.6019    3.5873    0.9603 H   0  0  0  0  0  0  0  0  0  0  0  0
    2.0129    4.6326   -0.8276 N   0  0  0  0  0  0  0  0  0  0  0  0
    2.1783    5.5254   -0.3632 H   0  0  0  0  0  0  0  0  0  0  0  0
    2.8952    4.1663   -1.0400 H   0  0  0  0  0  0  0  0  0  0  0  0
    0.4140   -1.0465    1.5381 C   0  0  0  0  0  0  0  0  0  0  0  0
    1.6149   -1.0495    1.7760 O   0  0  0  0  0  0  0  0  0  0  0  0
   -0.4669   -0.6800    2.5408 N   0  0  0  0  0  0  0  0  0  0  0  0
   -1.4536   -0.7675    2.3229 H   0  0  0  0  0  0  0  0  0  0  0  0
   -0.0643   -0.5384    3.9340 C   0  0  0  0  0  0  0  0  0  0  0  0
    0.6829    0.2553    4.0381 H   0  0  0  0  0  0  0  0  0  0  0  0
   -0.9289   -0.2813    4.5534 H   0  0  0  0  0  0  0  0  0  0  0  0
    0.3631   -1.4758    4.3056 H   0  0  0  0  0  0  0  0  0  0  0  0
  1  2  1  0  0  0  0
  2  3  1  0  0  0  0
  2  4  1  0  0  0  0
  2  5  1  0  0  0  0
  5  6  2  0  0  0  0
  5  7  1  0  0  0  0
  7  8  1  0  0  0  0
  7  9  1  0  0  0  0
  9 10  1  0  0  0  0
  9 11  1  0  0  0  0
  9 26  1  0  0  0  0
 11 12  1  0  0  0  0
 11 13  1  0  0  0  0
 11 14  1  0  0  0  0
 14 15  1  0  0  0  0
 14 16  1  0  0  0  0
 14 17  1  0  0  0  0
 17 18  1  0  0  0  0
 17 19  1  0  0  0  0
 17 20  1  0  0  0  0
 20 21  1  0  0  0  0
 20 22  1  0  0  0  0
 20 23  1  0  0  0  0
 23 24  1  0  0  0  0
 23 25  1  0  0  0  0
 26 27  2  0  0  0  0
 26 28  1  0  0  0  0
 28 29  1  0  0  0  0
 28 30  1  0  0  0  0
 30 31  1  0  0  0  0
 30 32  1  0  0  0  0
 30 33  1  0  0  0  0
M  END
$$$$

  -OEChem-03222214063D

 33 32  0     1  0  0  0  0  0999 V2000
   -2.9322   -4.8446    0.4164 H   0  0  0  0  0  0  0  0  0  0  0  0
   -2.9276   -3.8156    0.0456 C   0  0  0  0  0  0  0  0  0  0  0  0
   -3.7242   -3.2587    0.5445 H   0  0  0  0  0  0  0  0  0  0  0  0
   -3.1192   -3.8292   -1.0300 H   0  0  0  0  0  0  0  0  0  0  0  0
   -1.5856   -3.1662    0.3263 C   0  0  0  0  0  0  0  0  0  0  0  0
   -0.7200   -3.7922    0.9105 O   0  0  0  0  0  0  0  0  0  0  0  0
   -1.3605   -1.8638   -0.0762 N   0  0  0  0  0  0  0  0  0  0  0  0
   -2.0955   -1.4220   -0.6199 H   0  0  0  0  0  0  0  0  0  0  0  0
   -0.0696   -1.1595    0.0524 C   0  0  1  0  0  0  0  0  0  0  0  0
    0.6838   -1.7736   -0.4542 H   0  0  0  0  0  0  0  0  0  0  0  0
   -0.1724    0.1768   -0.7379 C   0  0  0  0  0  0  0  0  0  0  0  0
    0.6034    0.1274   -1.5093 H   0  0  0  0  0  0  0  0  0  0  0  0
   -1.1285    0.2383   -1.2671 H   0  0  0  0  0  0  0  0  0  0  0  0
    0.0285    1.4923    0.0476 C   0  0  0  0  0  0  0  0  0  0  0  0
   -0.9266    1.8166    0.4737 H   0  0  0  0  0  0  0  0  0  0  0  0
    0.7366    1.3605    0.8697 H   0  0  0  0  0  0  0  0  0  0  0  0
    0.6193    2.5784   -0.8592 C   0  0  0  0  0  0  0  0  0  0  0  0
    1.5840    2.2461   -1.2568 H   0  0  0  0  0  0  0  0  0  0  0  0
   -0.0534    2.7554   -1.7050 H   0  0  0  0  0  0  0  0  0  0  0  0
    0.8164    3.8799   -0.0883 C   0  0  0  0  0  0  0  0  0  0  0  0
   -0.1375    4.2186    0.3311 H   0  0  0  0  0  0  0  0  0  0  0  0
    1.5166    3.7227    0.7399 H   0  0  0  0  0  0  0  0  0  0  0  0
    1.3429    4.8887   -1.0119 N   0  0  0  0  0  0  0  0  0  0  0  0
    1.4993    5.7774   -0.5365 H   0  0  0  0  0  0  0  0  0  0  0  0
    2.1996    4.5609   -1.4585 H   0  0  0  0  0  0  0  0  0  0  0  0
    0.4253   -1.0418    1.5142 C   0  0  0  0  0  0  0  0  0  0  0  0
    1.6260   -1.0546    1.7538 O   0  0  0  0  0  0  0  0  0  0  0  0
   -0.4548   -0.6684    2.5150 N   0  0  0  0  0  0  0  0  0  0  0  0
   -1.4422   -0.7487    2.2967 H   0  0  0  0  0  0  0  0  0  0  0  0
   -0.0511   -0.5159    3.9066 C   0  0  0  0  0  0  0  0  0  0  0  0
    0.7077    0.2680    4.0011 H   0  0  0  0  0  0  0  0  0  0  0  0
   -0.9118   -0.2390    4.5225 H   0  0  0  0  0  0  0  0  0  0  0  0
    0.3628   -1.4547    4.2891 H   0  0  0  0  0  0  0  0  0  0  0  0
  1  2  1  0  0  0  0
  2  3  1  0  0  0  0
  2  4  1  0  0  0  0
  2  5  1  0  0  0  0
  5  6  2  0  0  0  0
  5  7  1  0  0  0  0
  7  8  1  0  0  0  0
  7  9  1  0  0  0  0
  9 10  1  0  0  0  0
  9 11  1  0  0  0  0
  9 26  1  0  0  0  0
 11 12  1  0  0  0  0
 11 13  1  0  0  0  0
 11 14  1  0  0  0  0
 14 15  1  0  0  0  0
 14 16  1  0  0  0  0
 14 17  1  0  0  0  0
 17 18  1  0  0  0  0
 17 19  1  0  0  0  0
 17 20  1  0  0  0  0
 20 21  1  0  0  0  0
 20 22  1  0  0  0  0
 20 23  1  0  0  0  0
 23 24  1  0  0  0  0
 23 25  1  0  0  0  0
 26 27  2  0  0  0  0
 26 28  1  0  0  0  0
 28 29  1  0  0  0  0
 28 30  1  0  0  0  0
 30 31  1  0  0  0  0
 30 32  1  0  0  0  0
 30 33  1  0  0  0  0
M  END
$$$$

  -OEChem-03222214063D

 33 32  0     1  0  0  0  0  0999 V2000
   -2.9311   -4.8452    0.4226 H   0  0  0  0  0  0  0  0  0  0  0  0
   -2.9291   -3.8169    0.0495 C   0  0  0  0  0  0  0  0  0  0  0  0
   -3.7295   -3.2621    0.5447 H   0  0  0  0  0  0  0  0  0  0  0  0
   -3.1175   -3.8344   -1.0266 H   0  0  0  0  0  0  0  0  0  0  0  0
   -1.5899   -3.1616    0.3306 C   0  0  0  0  0  0  0  0  0  0  0  0
   -0.7211   -3.7841    0.9138 O   0  0  0  0  0  0  0  0  0  0  0  0
   -1.3680   -1.8609   -0.0780 N   0  0  0  0  0  0  0  0  0  0  0  0
   -2.1060   -1.4223   -0.6202 H   0  0  0  0  0  0  0  0  0  0  0  0
   -0.0775   -1.1546    0.0409 C   0  0  1  0  0  0  0  0  0  0  0  0
    0.6727   -1.7684   -0.4709 H   0  0  0  0  0  0  0  0  0  0  0  0
   -0.1855    0.1807   -0.7468 C   0  0  0  0  0  0  0  0  0  0  0  0
    0.5825    0.1466   -1.5270 H   0  0  0  0  0  0  0  0  0  0  0  0
   -1.1508    0.2463   -1.2590 H   0  0  0  0  0  0  0  0  0  0  0  0
    0.0239    1.4752    0.0617 C   0  0  0  0  0  0  0  0  0  0  0  0
   -0.8455    1.6580    0.7017 H   0  0  0  0  0  0  0  0  0  0  0  0
    0.9080    1.3879    0.7012 H   0  0  0  0  0  0  0  0  0  0  0  0
    0.2543    2.6613   -0.8815 C   0  0  0  0  0  0  0  0  0  0  0  0
    1.1347    2.4738   -1.5047 H   0  0  0  0  0  0  0  0  0  0  0  0
   -0.6107    2.7758   -1.5430 H   0  0  0  0  0  0  0  0  0  0  0  0
    0.4606    3.9506   -0.0922 C   0  0  0  0  0  0  0  0  0  0  0  0
   -0.4083    4.1447    0.5464 H   0  0  0  0  0  0  0  0  0  0  0  0
    1.3425    3.8596    0.5517 H   0  0  0  0  0  0  0  0  0  0  0  0
    0.6383    5.0535   -1.0413 N   0  0  0  0  0  0  0  0  0  0  0  0
    0.7851    5.9381   -0.5548 H   0  0  0  0  0  0  0  0  0  0  0  0
    1.4072    4.8617   -1.6837 H   0  0  0  0  0  0  0  0  0  0  0  0
    0.4326   -1.0258    1.4973 C   0  0  0  0  0  0  0  0  0  0  0  0
    1.6357   -1.0388    1.7245 O   0  0  0  0  0  0  0  0  0  0  0  0
   -0.4364   -0.6472    2.5055 N   0  0  0  0  0  0  0  0  0  0  0  0
   -1.4257   -0.7325    2.2983 H   0  0  0  0  0  0  0  0  0  0  0  0
   -0.0190   -0.4936    3.8930 C   0  0  0  0  0  0  0  0  0  0  0  0
    0.7423    0.2887    3.9797 H   0  0  0  0  0  0  0  0  0  0  0  0
   -0.8732   -0.2133    4.5163 H   0  0  0  0  0  0  0  0  0  0  0  0
    0.3954   -1.4332    4.2732 H   0  0  0  0  0  0  0  0  0  0  0  0
  1  2  1  0  0  0  0
  2  3  1  0  0  0  0
  2  4  1  0  0  0  0
  2  5  1  0  0  0  0
  5  6  2  0  0  0  0
  5  7  1  0  0  0  0
  7  8  1  0  0  0  0
  7  9  1  0  0  0  0
  9 10  1  0  0  0  0
  9 11  1  0  0  0  0
  9 26  1  0  0  0  0
 11 12  1  0  0  0  0
 11 13  1  0  0  0  0
 11 14  1  0  0  0  0
 14 15  1  0  0  0  0
 14 16  1  0  0  0  0
 14 17  1  0  0  0  0
 17 18  1  0  0  0  0
 17 19  1  0  0  0  0
 17 20  1  0  0  0  0
 20 21  1  0  0  0  0
 20 22  1  0  0  0  0
 20 23  1  0  0  0  0
 23 24  1  0  0  0  0
 23 25  1  0  0  0  0
 26 27  2  0  0  0  0
 26 28  1  0  0  0  0
 28 29  1  0  0  0  0
 28 30  1  0  0  0  0
 30 31  1  0  0  0  0
 30 32  1  0  0  0  0
 30 33  1  0  0  0  0
M  END
$$$$

  -OEChem-03222214063D

 33 32  0     1  0  0  0  0  0999 V2000
   -2.9410   -4.8261    0.4720 H   0  0  0  0  0  0  0  0  0  0  0  0
   -2.9338   -3.8045    0.0808 C   0  0  0  0  0  0  0  0  0  0  0  0
   -3.7256   -3.2341    0.5720 H   0  0  0  0  0  0  0  0  0  0  0  0
   -3.1305   -3.8381   -0.9935 H   0  0  0  0  0  0  0  0  0  0  0  0
   -1.5874   -3.1557    0.3421 C   0  0  0  0  0  0  0  0  0  0  0  0
   -0.7225   -3.7730    0.9364 O   0  0  0  0  0  0  0  0  0  0  0  0
   -1.3572   -1.8652   -0.0937 N   0  0  0  0  0  0  0  0  0  0  0  0
   -2.0902   -1.4357   -0.6500 H   0  0  0  0  0  0  0  0  0  0  0  0
   -0.0629   -1.1637    0.0113 C   0  0  1  0  0  0  0  0  0  0  0  0
    0.6943   -1.7781   -0.4891 H   0  0  0  0  0  0  0  0  0  0  0  0
   -0.1713    0.1684   -0.7794 C   0  0  0  0  0  0  0  0  0  0  0  0
    0.3435    0.0376   -1.7369 H   0  0  0  0  0  0  0  0  0  0  0  0
   -1.2230    0.3723   -1.0055 H   0  0  0  0  0  0  0  0  0  0  0  0
    0.3971    1.4143   -0.0780 C   0  0  0  0  0  0  0  0  0  0  0  0
   -0.1260    1.5855    0.8682 H   0  0  0  0  0  0  0  0  0  0  0  0
    1.4606    1.2649    0.1396 H   0  0  0  0  0  0  0  0  0  0  0  0
    0.2251    2.6503   -0.9673 C   0  0  0  0  0  0  0  0  0  0  0  0
    0.7501    2.4974   -1.9158 H   0  0  0  0  0  0  0  0  0  0  0  0
   -0.8367    2.8006   -1.1887 H   0  0  0  0  0  0  0  0  0  0  0  0
    0.7763    3.8941   -0.2772 C   0  0  0  0  0  0  0  0  0  0  0  0
    0.2613    4.0537    0.6766 H   0  0  0  0  0  0  0  0  0  0  0  0
    1.8448    3.7671   -0.0699 H   0  0  0  0  0  0  0  0  0  0  0  0
    0.5645    5.0463   -1.1584 N   0  0  0  0  0  0  0  0  0  0  0  0
    0.9090    5.9054   -0.7296 H   0  0  0  0  0  0  0  0  0  0  0  0
    1.0008    4.8952   -2.0679 H   0  0  0  0  0  0  0  0  0  0  0  0
    0.4348   -1.0140    1.4706 C   0  0  0  0  0  0  0  0  0  0  0  0
    1.6352   -1.0405    1.7106 O   0  0  0  0  0  0  0  0  0  0  0  0
   -0.4396   -0.6133    2.4657 N   0  0  0  0  0  0  0  0  0  0  0  0
   -1.4281   -0.6874    2.2504 H   0  0  0  0  0  0  0  0  0  0  0  0
   -0.0326   -0.4433    3.8543 C   0  0  0  0  0  0  0  0  0  0  0  0
    0.7395    0.3290    3.9349 H   0  0  0  0  0  0  0  0  0  0  0  0
   -0.8882   -0.1408    4.4654 H   0  0  0  0  0  0  0  0  0  0  0  0
    0.3657   -1.3822    4.2534 H   0  0  0  0  0  0  0  0  0  0  0  0
  1  2  1  0  0  0  0
  2  3  1  0  0  0  0
  2  4  1  0  0  0  0
  2  5  1  0  0  0  0
  5  6  2  0  0  0  0
  5  7  1  0  0  0  0
  7  8  1  0  0  0  0
  7  9  1  0  0  0  0
  9 10  1  0  0  0  0
  9 11  1  0  0  0  0
  9 26  1  0  0  0  0
 11 12  1  0  0  0  0
 11 13  1  0  0  0  0
 11 14  1  0  0  0  0
 14 15  1  0  0  0  0
 14 16  1  0  0  0  0
 14 17  1  0  0  0  0
 17 18  1  0  0  0  0
 17 19  1  0  0  0  0
 17 20  1  0  0  0  0
 20 21  1  0  0  0  0
 20 22  1  0  0  0  0
 20 23  1  0  0  0  0
 23 24  1  0  0  0  0
 23 25  1  0  0  0  0
 26 27  2  0  0  0  0
 26 28  1  0  0  0  0
 28 29  1  0  0  0  0
 28 30  1  0  0  0  0
 30 31  1  0  0  0  0
 30 32  1  0  0  0  0
 30 33  1  0  0  0  0
M  END
$$$$

  -OEChem-03222214063D

 33 32  0     1  0  0  0  0  0999 V2000
   -2.9446   -4.8327    0.4633 H   0  0  0  0  0  0  0  0  0  0  0  0
   -2.9400   -3.8089    0.0782 C   0  0  0  0  0  0  0  0  0  0  0  0
   -3.7272   -3.2409    0.5795 H   0  0  0  0  0  0  0  0  0  0  0  0
   -3.1455   -3.8369   -0.9945 H   0  0  0  0  0  0  0  0  0  0  0  0
   -1.5913   -3.1624    0.3321 C   0  0  0  0  0  0  0  0  0  0  0  0
   -0.7166   -3.7893    0.9015 O   0  0  0  0  0  0  0  0  0  0  0  0
   -1.3688   -1.8635   -0.0830 N   0  0  0  0  0  0  0  0  0  0  0  0
   -2.1153   -1.4193   -0.6091 H   0  0  0  0  0  0  0  0  0  0  0  0
   -0.0748   -1.1602    0.0228 C   0  0  1  0  0  0  0  0  0  0  0  0
    0.6767   -1.7751   -0.4859 H   0  0  0  0  0  0  0  0  0  0  0  0
   -0.1717    0.1748   -0.7673 C   0  0  0  0  0  0  0  0  0  0  0  0
    0.3340    0.0480   -1.7303 H   0  0  0  0  0  0  0  0  0  0  0  0
   -1.2263    0.3729   -0.9848 H   0  0  0  0  0  0  0  0  0  0  0  0
    0.3967    1.4279   -0.0730 C   0  0  0  0  0  0  0  0  0  0  0  0
    0.0545    1.4835    0.9638 H   0  0  0  0  0  0  0  0  0  0  0  0
    1.4911    1.3814   -0.0671 H   0  0  0  0  0  0  0  0  0  0  0  0
   -0.0849    2.6997   -0.7797 C   0  0  0  0  0  0  0  0  0  0  0  0
    0.2376    2.6826   -1.8259 H   0  0  0  0  0  0  0  0  0  0  0  0
   -1.1790    2.7417   -0.7613 H   0  0  0  0  0  0  0  0  0  0  0  0
    0.4750    3.9426   -0.0948 C   0  0  0  0  0  0  0  0  0  0  0  0
    0.1596    3.9669    0.9542 H   0  0  0  0  0  0  0  0  0  0  0  0
    1.5704    3.9252   -0.1204 H   0  0  0  0  0  0  0  0  0  0  0  0
   -0.0298    5.1275   -0.7951 N   0  0  0  0  0  0  0  0  0  0  0  0
    0.3063    5.9847   -0.3559 H   0  0  0  0  0  0  0  0  0  0  0  0
    0.2228    5.1032   -1.7830 H   0  0  0  0  0  0  0  0  0  0  0  0
    0.4378   -1.0336    1.4788 C   0  0  0  0  0  0  0  0  0  0  0  0
    1.6414   -1.0429    1.7030 O   0  0  0  0  0  0  0  0  0  0  0  0
   -0.4284   -0.6525    2.4890 N   0  0  0  0  0  0  0  0  0  0  0  0
   -1.4190   -0.7220    2.2822 H   0  0  0  0  0  0  0  0  0  0  0  0
   -0.0080   -0.4836    3.8740 C   0  0  0  0  0  0  0  0  0  0  0  0
    0.7566    0.2967    3.9502 H   0  0  0  0  0  0  0  0  0  0  0  0
   -0.8603   -0.1924    4.4953 H   0  0  0  0  0  0  0  0  0  0  0  0
    0.4035   -1.4199    4.2654 H   0  0  0  0  0  0  0  0  0  0  0  0
  1  2  1  0  0  0  0
  2  3  1  0  0  0  0
  2  4  1  0  0  0  0
  2  5  1  0  0  0  0
  5  6  2  0  0  0  0
  5  7  1  0  0  0  0
  7  8  1  0  0  0  0
  7  9  1  0  0  0  0
  9 10  1  0  0  0  0
  9 11  1  0  0  0  0
  9 26  1  0  0  0  0
 11 12  1  0  0  0  0
 11 13  1  0  0  0  0
 11 14  1  0  0  0  0
 14 15  1  0  0  0  0
 14 16  1  0  0  0  0
 14 17  1  0  0  0  0
 17 18  1  0  0  0  0
 17 19  1  0  0  0  0
 17 20  1  0  0  0  0
 20 21  1  0  0  0  0
 20 22  1  0  0  0  0
 20 23  1  0  0  0  0
 23 24  1  0  0  0  0
 23 25  1  0  0  0  0
 26 27  2  0  0  0  0
 26 28  1  0  0  0  0
 28 29  1  0  0  0  0
 28 30  1  0  0  0  0
 30 31  1  0  0  0  0
 30 32  1  0  0  0  0
 30 33  1  0  0  0  0
M  END
$$$$

  -OEChem-03222214063D

 33 32  0     1  0  0  0  0  0999 V2000
   -2.9573   -4.8288    0.4615 H   0  0  0  0  0  0  0  0  0  0  0  0
   -2.9504   -3.8029    0.0822 C   0  0  0  0  0  0  0  0  0  0  0  0
   -3.7288   -3.2338    0.5955 H   0  0  0  0  0  0  0  0  0  0  0  0
   -3.1679   -3.8237   -0.9883 H   0  0  0  0  0  0  0  0  0  0  0  0
   -1.5946   -3.1661    0.3244 C   0  0  0  0  0  0  0  0  0  0  0  0
   -0.7140   -3.8072    0.8684 O   0  0  0  0  0  0  0  0  0  0  0  0
   -1.3697   -1.8622   -0.0734 N   0  0  0  0  0  0  0  0  0  0  0  0
   -2.1199   -1.4047   -0.5824 H   0  0  0  0  0  0  0  0  0  0  0  0
   -0.0720   -1.1656    0.0345 C   0  0  1  0  0  0  0  0  0  0  0  0
    0.6749   -1.7786   -0.4833 H   0  0  0  0  0  0  0  0  0  0  0  0
   -0.1658    0.1764   -0.7483 C   0  0  0  0  0  0  0  0  0  0  0  0
    0.3274    0.0524   -1.7176 H   0  0  0  0  0  0  0  0  0  0  0  0
   -1.2231    0.3674   -0.9586 H   0  0  0  0  0  0  0  0  0  0  0  0
    0.4028    1.4430   -0.0693 C   0  0  0  0  0  0  0  0  0  0  0  0
    0.2963    1.3979    1.0164 H   0  0  0  0  0  0  0  0  0  0  0  0
    1.4711    1.5284   -0.2950 H   0  0  0  0  0  0  0  0  0  0  0  0
   -0.3547    2.6952   -0.5267 C   0  0  0  0  0  0  0  0  0  0  0  0
   -0.2793    2.7927   -1.6145 H   0  0  0  0  0  0  0  0  0  0  0  0
   -1.4143    2.6044   -0.2658 H   0  0  0  0  0  0  0  0  0  0  0  0
    0.2179    3.9436    0.1375 C   0  0  0  0  0  0  0  0  0  0  0  0
    0.1460    3.8551    1.2274 H   0  0  0  0  0  0  0  0  0  0  0  0
    1.2755    4.0584   -0.1250 H   0  0  0  0  0  0  0  0  0  0  0  0
   -0.5477    5.1069   -0.3204 N   0  0  0  0  0  0  0  0  0  0  0  0
   -0.2151    5.9634    0.1228 H   0  0  0  0  0  0  0  0  0  0  0  0
   -0.5157    5.1887   -1.3365 H   0  0  0  0  0  0  0  0  0  0  0  0
    0.4468   -1.0641    1.4899 C   0  0  0  0  0  0  0  0  0  0  0  0
    1.6513   -1.0811    1.7093 O   0  0  0  0  0  0  0  0  0  0  0  0
   -0.4139   -0.6949    2.5091 N   0  0  0  0  0  0  0  0  0  0  0  0
   -1.4058   -0.7422    2.3024 H   0  0  0  0  0  0  0  0  0  0  0  0
    0.0127   -0.5401    3.8937 C   0  0  0  0  0  0  0  0  0  0  0  0
    0.7754    0.2414    3.9742 H   0  0  0  0  0  0  0  0  0  0  0  0
   -0.8372   -0.2577    4.5221 H   0  0  0  0  0  0  0  0  0  0  0  0
    0.4288   -1.4797    4.2727 H   0  0  0  0  0  0  0  0  0  0  0  0
  1  2  1  0  0  0  0
  2  3  1  0  0  0  0
  2  4  1  0  0  0  0
  2  5  1  0  0  0  0
  5  6  2  0  0  0  0
  5  7  1  0  0  0  0
  7  8  1  0  0  0  0
  7  9  1  0  0  0  0
  9 10  1  0  0  0  0
  9 11  1  0  0  0  0
  9 26  1  0  0  0  0
 11 12  1  0  0  0  0
 11 13  1  0  0  0  0
 11 14  1  0  0  0  0
 14 15  1  0  0  0  0
 14 16  1  0  0  0  0
 14 17  1  0  0  0  0
 17 18  1  0  0  0  0
 17 19  1  0  0  0  0
 17 20  1  0  0  0  0
 20 21  1  0  0  0  0
 20 22  1  0  0  0  0
 20 23  1  0  0  0  0
 23 24  1  0  0  0  0
 23 25  1  0  0  0  0
 26 27  2  0  0  0  0
 26 28  1  0  0  0  0
 28 29  1  0  0  0  0
 28 30  1  0  0  0  0
 30 31  1  0  0  0  0
 30 32  1  0  0  0  0
 30 33  1  0  0  0  0
M  END
$$$$

  -OEChem-03222214063D

 33 32  0     1  0  0  0  0  0999 V2000
   -2.9794   -4.8140    0.4766 H   0  0  0  0  0  0  0  0  0  0  0  0
   -2.9626   -3.7871    0.1004 C   0  0  0  0  0  0  0  0  0  0  0  0
   -3.7281   -3.2091    0.6236 H   0  0  0  0  0  0  0  0  0  0  0  0
   -3.1913   -3.8014   -0.9678 H   0  0  0  0  0  0  0  0  0  0  0  0
   -1.5957   -3.1696    0.3293 C   0  0  0  0  0  0  0  0  0  0  0  0
   -0.7165   -3.8249    0.8584 O   0  0  0  0  0  0  0  0  0  0  0  0
   -1.3595   -1.8674   -0.0684 N   0  0  0  0  0  0  0  0  0  0  0  0
   -2.1127   -1.3964   -0.5601 H   0  0  0  0  0  0  0  0  0  0  0  0
   -0.0550   -1.1821    0.0329 C   0  0  1  0  0  0  0  0  0  0  0  0
    0.6865   -1.7951   -0.4924 H   0  0  0  0  0  0  0  0  0  0  0  0
   -0.1591    0.1662   -0.7418 C   0  0  0  0  0  0  0  0  0  0  0  0
    0.3301    0.0392   -1.7130 H   0  0  0  0  0  0  0  0  0  0  0  0
   -1.2166    0.3514   -0.9562 H   0  0  0  0  0  0  0  0  0  0  0  0
    0.4148    1.4457   -0.0814 C   0  0  0  0  0  0  0  0  0  0  0  0
    0.6096    1.3173    0.9841 H   0  0  0  0  0  0  0  0  0  0  0  0
    1.3730    1.6890   -0.5529 H   0  0  0  0  0  0  0  0  0  0  0  0
   -0.5572    2.6238   -0.2235 C   0  0  0  0  0  0  0  0  0  0  0  0
   -0.7459    2.8193   -1.2841 H   0  0  0  0  0  0  0  0  0  0  0  0
   -1.5116    2.3748    0.2522 H   0  0  0  0  0  0  0  0  0  0  0  0
    0.0137    3.8772    0.4330 C   0  0  0  0  0  0  0  0  0  0  0  0
    0.1926    3.6940    1.4987 H   0  0  0  0  0  0  0  0  0  0  0  0
    0.9697    4.1436   -0.0313 H   0  0  0  0  0  0  0  0  0  0  0  0
   -0.9507    4.9691    0.2684 N   0  0  0  0  0  0  0  0  0  0  0  0
   -0.6211    5.8220    0.7211 H   0  0  0  0  0  0  0  0  0  0  0  0
   -1.1494    5.1359   -0.7179 H   0  0  0  0  0  0  0  0  0  0  0  0
    0.4628   -1.0915    1.4889 C   0  0  0  0  0  0  0  0  0  0  0  0
    1.6660   -1.1351    1.7122 O   0  0  0  0  0  0  0  0  0  0  0  0
   -0.3963   -0.7174    2.5074 N   0  0  0  0  0  0  0  0  0  0  0  0
   -1.3877   -0.7333    2.2934 H   0  0  0  0  0  0  0  0  0  0  0  0
    0.0269   -0.5708    3.8938 C   0  0  0  0  0  0  0  0  0  0  0  0
    0.7891    0.2104    3.9816 H   0  0  0  0  0  0  0  0  0  0  0  0
   -0.8250   -0.2931    4.5214 H   0  0  0  0  0  0  0  0  0  0  0  0
    0.4423   -1.5124    4.2681 H   0  0  0  0  0  0  0  0  0  0  0  0
  1  2  1  0  0  0  0
  2  3  1  0  0  0  0
  2  4  1  0  0  0  0
  2  5  1  0  0  0  0
  5  6  2  0  0  0  0
  5  7  1  0  0  0  0
  7  8  1  0  0  0  0
  7  9  1  0  0  0  0
  9 10  1  0  0  0  0
  9 11  1  0  0  0  0
  9 26  1  0  0  0  0
 11 12  1  0  0  0  0
 11 13  1  0  0  0  0
 11 14  1  0  0  0  0
 14 15  1  0  0  0  0
 14 16  1  0  0  0  0
 14 17  1  0  0  0  0
 17 18  1  0  0  0  0
 17 19  1  0  0  0  0
 17 20  1  0  0  0  0
 20 21  1  0  0  0  0
 20 22  1  0  0  0  0
 20 23  1  0  0  0  0
 23 24  1  0  0  0  0
 23 25  1  0  0  0  0
 26 27  2  0  0  0  0
 26 28  1  0  0  0  0
 28 29  1  0  0  0  0
 28 30  1  0  0  0  0
 30 31  1  0  0  0  0
 30 32  1  0  0  0  0
 30 33  1  0  0  0  0
M  END
$$$$

  -OEChem-03222214063D

 33 32  0     1  0  0  0  0  0999 V2000
   -2.9965   -4.7968    0.5234 H   0  0  0  0  0  0  0  0  0  0  0  0
   -2.9717   -3.7756    0.1326 C   0  0  0  0  0  0  0  0  0  0  0  0
   -3.7199   -3.1796    0.6605 H   0  0  0  0  0  0  0  0  0  0  0  0
   -3.2184   -3.8010   -0.9315 H   0  0  0  0  0  0  0  0  0  0  0  0
   -1.5930   -3.1747    0.3322 C   0  0  0  0  0  0  0  0  0  0  0  0
   -0.7137   -3.8373    0.8519 O   0  0  0  0  0  0  0  0  0  0  0  0
   -1.3461   -1.8801   -0.0827 N   0  0  0  0  0  0  0  0  0  0  0  0
   -2.1029   -1.4004   -0.5600 H   0  0  0  0  0  0  0  0  0  0  0  0
   -0.0370   -1.2032    0.0135 C   0  0  1  0  0  0  0  0  0  0  0  0
    0.7048   -1.8183   -0.5088 H   0  0  0  0  0  0  0  0  0  0  0  0
   -0.1535    0.1441   -0.7602 C   0  0  0  0  0  0  0  0  0  0  0  0
    0.3544    0.0074   -1.7206 H   0  0  0  0  0  0  0  0  0  0  0  0
   -1.2057    0.3281   -1.0005 H   0  0  0  0  0  0  0  0  0  0  0  0
    0.4232    1.4269   -0.1072 C   0  0  0  0  0  0  0  0  0  0  0  0
    0.9216    1.2391    0.8448 H   0  0  0  0  0  0  0  0  0  0  0  0
    1.1866    1.8396   -0.7753 H   0  0  0  0  0  0  0  0  0  0  0  0
   -0.6720    2.4806    0.0991 C   0  0  0  0  0  0  0  0  0  0  0  0
   -1.1005    2.7617   -0.8685 H   0  0  0  0  0  0  0  0  0  0  0  0
   -1.4725    2.0606    0.7172 H   0  0  0  0  0  0  0  0  0  0  0  0
   -0.1108    3.7199    0.7892 C   0  0  0  0  0  0  0  0  0  0  0  0
    0.3021    3.4483    1.7674 H   0  0  0  0  0  0  0  0  0  0  0  0
    0.6958    4.1542    0.1880 H   0  0  0  0  0  0  0  0  0  0  0  0
   -1.1973    4.6903    0.9563 N   0  0  0  0  0  0  0  0  0  0  0  0
   -0.8749    5.5213    1.4528 H   0  0  0  0  0  0  0  0  0  0  0  0
   -1.6056    4.9414    0.0561 H   0  0  0  0  0  0  0  0  0  0  0  0
    0.4717   -1.0988    1.4720 C   0  0  0  0  0  0  0  0  0  0  0  0
    1.6710   -1.1743    1.7078 O   0  0  0  0  0  0  0  0  0  0  0  0
   -0.3884   -0.7050    2.4818 N   0  0  0  0  0  0  0  0  0  0  0  0
   -1.3766   -0.6737    2.2558 H   0  0  0  0  0  0  0  0  0  0  0  0
    0.0306   -0.5280    3.8657 C   0  0  0  0  0  0  0  0  0  0  0  0
    0.7918    0.2559    3.9372 H   0  0  0  0  0  0  0  0  0  0  0  0
   -0.8231   -0.2378    4.4854 H   0  0  0  0  0  0  0  0  0  0  0  0
    0.4461   -1.4608    4.2615 H   0  0  0  0  0  0  0  0  0  0  0  0
  1  2  1  0  0  0  0
  2  3  1  0  0  0  0
  2  4  1  0  0  0  0
  2  5  1  0  0  0  0
  5  6  2  0  0  0  0
  5  7  1  0  0  0  0
  7  8  1  0  0  0  0
  7  9  1  0  0  0  0
  9 10  1  0  0  0  0
  9 11  1  0  0  0  0
  9 26  1  0  0  0  0
 11 12  1  0  0  0  0
 11 13  1  0  0  0  0
 11 14  1  0  0  0  0
 14 15  1  0  0  0  0
 14 16  1  0  0  0  0
 14 17  1  0  0  0  0
 17 18  1  0  0  0  0
 17 19  1  0  0  0  0
 17 20  1  0  0  0  0
 20 21  1  0  0  0  0
 20 22  1  0  0  0  0
 20 23  1  0  0  0  0
 23 24  1  0  0  0  0
 23 25  1  0  0  0  0
 26 27  2  0  0  0  0
 26 28  1  0  0  0  0
 28 29  1  0  0  0  0
 28 30  1  0  0  0  0
 30 31  1  0  0  0  0
 30 32  1  0  0  0  0
 30 33  1  0  0  0  0
M  END
$$$$

  -OEChem-03222214063D

 33 32  0     1  0  0  0  0  0999 V2000
   -2.9920   -4.7838    0.5951 H   0  0  0  0  0  0  0  0  0  0  0  0
   -2.9664   -3.7721    0.1805 C   0  0  0  0  0  0  0  0  0  0  0  0
   -3.6977   -3.1572    0.7105 H   0  0  0  0  0  0  0  0  0  0  0  0
   -3.2358   -3.8183   -0.8773 H   0  0  0  0  0  0  0  0  0  0  0  0
   -1.5779   -3.1810    0.3372 C   0  0  0  0  0  0  0  0  0  0  0  0
   -0.6926   -3.8424    0.8483 O   0  0  0  0  0  0  0  0  0  0  0  0
   -1.3295   -1.8966   -0.1070 N   0  0  0  0  0  0  0  0  0  0  0  0
   -2.0948   -1.4151   -0.5685 H   0  0  0  0  0  0  0  0  0  0  0  0
   -0.0229   -1.2155   -0.0168 C   0  0  1  0  0  0  0  0  0  0  0  0
    0.7252   -1.8348   -0.5246 H   0  0  0  0  0  0  0  0  0  0  0  0
   -0.1512    0.1200   -0.8071 C   0  0  0  0  0  0  0  0  0  0  0  0
    0.3798   -0.0262   -1.7535 H   0  0  0  0  0  0  0  0  0  0  0  0
   -1.1977    0.3038   -1.0721 H   0  0  0  0  0  0  0  0  0  0  0  0
    0.4225    1.3980   -0.1523 C   0  0  0  0  0  0  0  0  0  0  0  0
    1.1611    1.1817    0.6229 H   0  0  0  0  0  0  0  0  0  0  0  0
    0.9529    1.9678   -0.9226 H   0  0  0  0  0  0  0  0  0  0  0  0
   -0.7048    2.2843    0.3926 C   0  0  0  0  0  0  0  0  0  0  0  0
   -1.3144    2.6577   -0.4364 H   0  0  0  0  0  0  0  0  0  0  0  0
   -1.3516    1.6938    1.0492 H   0  0  0  0  0  0  0  0  0  0  0  0
   -0.1403    3.4578    1.1857 C   0  0  0  0  0  0  0  0  0  0  0  0
    0.4576    3.0868    2.0261 H   0  0  0  0  0  0  0  0  0  0  0  0
    0.5093    4.0671    0.5477 H   0  0  0  0  0  0  0  0  0  0  0  0
   -1.2607    4.2609    1.6862 N   0  0  0  0  0  0  0  0  0  0  0  0
   -0.9301    5.0287    2.2712 H   0  0  0  0  0  0  0  0  0  0  0  0
   -1.8326    4.6110    0.9180 H   0  0  0  0  0  0  0  0  0  0  0  0
    0.4719   -1.0757    1.4446 C   0  0  0  0  0  0  0  0  0  0  0  0
    1.6673   -1.1609    1.6967 O   0  0  0  0  0  0  0  0  0  0  0  0
   -0.3959   -0.6595    2.4386 N   0  0  0  0  0  0  0  0  0  0  0  0
   -1.3758   -0.5751    2.1913 H   0  0  0  0  0  0  0  0  0  0  0  0
    0.0168   -0.4082    3.8127 C   0  0  0  0  0  0  0  0  0  0  0  0
    0.7779    0.3783    3.8456 H   0  0  0  0  0  0  0  0  0  0  0  0
   -0.8396   -0.0849    4.4120 H   0  0  0  0  0  0  0  0  0  0  0  0
    0.4301   -1.3184    4.2598 H   0  0  0  0  0  0  0  0  0  0  0  0
  1  2  1  0  0  0  0
  2  3  1  0  0  0  0
  2  4  1  0  0  0  0
  2  5  1  0  0  0  0
  5  6  2  0  0  0  0
  5  7  1  0  0  0  0
  7  8  1  0  0  0  0
  7  9  1  0  0  0  0
  9 10  1  0  0  0  0
  9 11  1  0  0  0  0
  9 26  1  0  0  0  0
 11 12  1  0  0  0  0
 11 13  1  0  0  0  0
 11 14  1  0  0  0  0
 14 15  1  0  0  0  0
 14 16  1  0  0  0  0
 14 17  1  0  0  0  0
 17 18  1  0  0  0  0
 17 19  1  0  0  0  0
 17 20  1  0  0  0  0
 20 21  1  0  0  0  0
 20 22  1  0  0  0  0
 20 23  1  0  0  0  0
 23 24  1  0  0  0  0
 23 25  1  0  0  0  0
 26 27  2  0  0  0  0
 26 28  1  0  0  0  0
 28 29  1  0  0  0  0
 28 30  1  0  0  0  0
 30 31  1  0  0  0  0
 30 32  1  0  0  0  0
 30 33  1  0  0  0  0
M  END
$$$$

  -OEChem-03222214063D

 33 32  0     1  0  0  0  0  0999 V2000
   -2.9541   -4.8323    0.5588 H   0  0  0  0  0  0  0  0  0  0  0  0
   -2.9513   -3.8120    0.1649 C   0  0  0  0  0  0  0  0  0  0  0  0
   -3.6929   -3.2229    0.7098 H   0  0  0  0  0  0  0  0  0  0  0  0
   -3.2243   -3.8428   -0.8927 H   0  0  0  0  0  0  0  0  0  0  0  0
   -1.5748   -3.1950    0.3277 C   0  0  0  0  0  0  0  0  0  0  0  0
   -0.6724   -3.8476    0.8204 O   0  0  0  0  0  0  0  0  0  0  0  0
   -1.3548   -1.8972   -0.0914 N   0  0  0  0  0  0  0  0  0  0  0  0
   -2.1362   -1.4140   -0.5234 H   0  0  0  0  0  0  0  0  0  0  0  0
   -0.0615   -1.1946    0.0077 C   0  0  1  0  0  0  0  0  0  0  0  0
    0.6849   -1.8224   -0.4931 H   0  0  0  0  0  0  0  0  0  0  0  0
   -0.1598    0.1179   -0.8231 C   0  0  0  0  0  0  0  0  0  0  0  0
    0.4018   -0.0513   -1.7477 H   0  0  0  0  0  0  0  0  0  0  0  0
   -1.1975    0.3008   -1.1209 H   0  0  0  0  0  0  0  0  0  0  0  0
    0.3920    1.4045   -0.1784 C   0  0  0  0  0  0  0  0  0  0  0  0
    1.2664    1.1884    0.4427 H   0  0  0  0  0  0  0  0  0  0  0  0
    0.7335    2.0758   -0.9734 H   0  0  0  0  0  0  0  0  0  0  0  0
   -0.6927    2.1357    0.6267 C   0  0  0  0  0  0  0  0  0  0  0  0
   -1.4118    2.5870   -0.0641 H   0  0  0  0  0  0  0  0  0  0  0  0
   -1.2408    1.4332    1.2581 H   0  0  0  0  0  0  0  0  0  0  0  0
   -0.0801    3.2168    1.5103 C   0  0  0  0  0  0  0  0  0  0  0  0
    0.6167    2.7642    2.2253 H   0  0  0  0  0  0  0  0  0  0  0  0
    0.4784    3.9337    0.8980 H   0  0  0  0  0  0  0  0  0  0  0  0
   -1.1629    3.8967    2.2287 N   0  0  0  0  0  0  0  0  0  0  0  0
   -0.7928    4.5896    2.8799 H   0  0  0  0  0  0  0  0  0  0  0  0
   -1.8204    4.3261    1.5783 H   0  0  0  0  0  0  0  0  0  0  0  0
    0.4640   -1.0603    1.4605 C   0  0  0  0  0  0  0  0  0  0  0  0
    1.6680   -1.1183    1.6774 O   0  0  0  0  0  0  0  0  0  0  0  0
   -0.3779   -0.6752    2.4885 N   0  0  0  0  0  0  0  0  0  0  0  0
   -1.3656   -0.5947    2.2729 H   0  0  0  0  0  0  0  0  0  0  0  0
    0.0757   -0.4206    3.8494 C   0  0  0  0  0  0  0  0  0  0  0  0
    0.8132    0.3887    3.8624 H   0  0  0  0  0  0  0  0  0  0  0  0
   -0.7688   -0.1286    4.4808 H   0  0  0  0  0  0  0  0  0  0  0  0
    0.5316   -1.3210    4.2744 H   0  0  0  0  0  0  0  0  0  0  0  0
  1  2  1  0  0  0  0
  2  3  1  0  0  0  0
  2  4  1  0  0  0  0
  2  5  1  0  0  0  0
  5  6  2  0  0  0  0
  5  7  1  0  0  0  0
  7  8  1  0  0  0  0
  7  9  1  0  0  0  0
  9 10  1  0  0  0  0
  9 11  1  0  0  0  0
  9 26  1  0  0  0  0
 11 12  1  0  0  0  0
 11 13  1  0  0  0  0
 11 14  1  0  0  0  0
 14 15  1  0  0  0  0
 14 16  1  0  0  0  0
 14 17  1  0  0  0  0
 17 18  1  0  0  0  0
 17 19  1  0  0  0  0
 17 20  1  0  0  0  0
 20 21  1  0  0  0  0
 20 22  1  0  0  0  0
 20 23  1  0  0  0  0
 23 24  1  0  0  0  0
 23 25  1  0  0  0  0
 26 27  2  0  0  0  0
 26 28  1  0  0  0  0
 28 29  1  0  0  0  0
 28 30  1  0  0  0  0
 30 31  1  0  0  0  0
 30 32  1  0  0  0  0
 30 33  1  0  0  0  0
M  END
$$$$

  -OEChem-03222214063D

 33 32  0     1  0  0  0  0  0999 V2000
   -2.8582   -4.9087    0.5069 H   0  0  0  0  0  0  0  0  0  0  0  0
   -2.9036   -3.8712    0.1634 C   0  0  0  0  0  0  0  0  0  0  0  0
   -3.6611   -3.3410    0.7455 H   0  0  0  0  0  0  0  0  0  0  0  0
   -3.1904   -3.8631   -0.8910 H   0  0  0  0  0  0  0  0  0  0  0  0
   -1.5517   -3.2050    0.3399 C   0  0  0  0  0  0  0  0  0  0  0  0
   -0.6282   -3.8301    0.8294 O   0  0  0  0  0  0  0  0  0  0  0  0
   -1.3776   -1.8945   -0.0609 N   0  0  0  0  0  0  0  0  0  0  0  0
   -2.1768   -1.4308   -0.4815 H   0  0  0  0  0  0  0  0  0  0  0  0
   -0.1078   -1.1516    0.0414 C   0  0  1  0  0  0  0  0  0  0  0  0
    0.6433   -1.7901   -0.4387 H   0  0  0  0  0  0  0  0  0  0  0  0
   -0.1719    0.1192   -0.8557 C   0  0  0  0  0  0  0  0  0  0  0  0
    0.4231   -0.0872   -1.7513 H   0  0  0  0  0  0  0  0  0  0  0  0
   -1.2009    0.2786   -1.1931 H   0  0  0  0  0  0  0  0  0  0  0  0
    0.3357    1.4446   -0.2616 C   0  0  0  0  0  0  0  0  0  0  0  0
    1.3107    1.2712    0.2064 H   0  0  0  0  0  0  0  0  0  0  0  0
    0.4962    2.1644   -1.0708 H   0  0  0  0  0  0  0  0  0  0  0  0
   -0.6444    2.0616    0.7503 C   0  0  0  0  0  0  0  0  0  0  0  0
   -1.3432    2.7105    0.2133 H   0  0  0  0  0  0  0  0  0  0  0  0
   -1.2444    1.2934    1.2386 H   0  0  0  0  0  0  0  0  0  0  0  0
    0.0959    2.8741    1.8078 C   0  0  0  0  0  0  0  0  0  0  0  0
    0.7901    2.2286    2.3571 H   0  0  0  0  0  0  0  0  0  0  0  0
    0.6793    3.6695    1.3310 H   0  0  0  0  0  0  0  0  0  0  0  0
   -0.8899    3.4488    2.7293 N   0  0  0  0  0  0  0  0  0  0  0  0
   -0.4306    3.9584    3.4845 H   0  0  0  0  0  0  0  0  0  0  0  0
   -1.5461    4.0508    2.2327 H   0  0  0  0  0  0  0  0  0  0  0  0
    0.4455   -1.0072    1.4840 C   0  0  0  0  0  0  0  0  0  0  0  0
    1.6569   -1.0048    1.6651 O   0  0  0  0  0  0  0  0  0  0  0  0
   -0.3770   -0.6601    2.5408 N   0  0  0  0  0  0  0  0  0  0  0  0
   -1.3745   -0.6324    2.3601 H   0  0  0  0  0  0  0  0  0  0  0  0
    0.1021   -0.4328    3.8981 C   0  0  0  0  0  0  0  0  0  0  0  0
    0.8248    0.3890    3.9192 H   0  0  0  0  0  0  0  0  0  0  0  0
   -0.7338   -0.1727    4.5545 H   0  0  0  0  0  0  0  0  0  0  0  0
    0.5833   -1.3353    4.2892 H   0  0  0  0  0  0  0  0  0  0  0  0
  1  2  1  0  0  0  0
  2  3  1  0  0  0  0
  2  4  1  0  0  0  0
  2  5  1  0  0  0  0
  5  6  2  0  0  0  0
  5  7  1  0  0  0  0
  7  8  1  0  0  0  0
  7  9  1  0  0  0  0
  9 10  1  0  0  0  0
  9 11  1  0  0  0  0
  9 26  1  0  0  0  0
 11 12  1  0  0  0  0
 11 13  1  0  0  0  0
 11 14  1  0  0  0  0
 14 15  1  0  0  0  0
 14 16  1  0  0  0  0
 14 17  1  0  0  0  0
 17 18  1  0  0  0  0
 17 19  1  0  0  0  0
 17 20  1  0  0  0  0
 20 21  1  0  0  0  0
 20 22  1  0  0  0  0
 20 23  1  0  0  0  0
 23 24  1  0  0  0  0
 23 25  1  0  0  0  0
 26 27  2  0  0  0  0
 26 28  1  0  0  0  0
 28 29  1  0  0  0  0
 28 30  1  0  0  0  0
 30 31  1  0  0  0  0
 30 32  1  0  0  0  0
 30 33  1  0  0  0  0
M  END
$$$$

  -OEChem-03222214063D

 33 32  0     1  0  0  0  0  0999 V2000
   -2.8559   -4.9107    0.4624 H   0  0  0  0  0  0  0  0  0  0  0  0
   -2.8870   -3.8780    0.1035 C   0  0  0  0  0  0  0  0  0  0  0  0
   -3.6688   -3.3411    0.6461 H   0  0  0  0  0  0  0  0  0  0  0  0
   -3.1285   -3.8834   -0.9621 H   0  0  0  0  0  0  0  0  0  0  0  0
   -1.5443   -3.2080    0.3277 C   0  0  0  0  0  0  0  0  0  0  0  0
   -0.6352   -3.8317    0.8450 O   0  0  0  0  0  0  0  0  0  0  0  0
   -1.3654   -1.8923   -0.0531 N   0  0  0  0  0  0  0  0  0  0  0  0
   -2.1552   -1.4279   -0.4906 H   0  0  0  0  0  0  0  0  0  0  0  0
   -0.1078   -1.1385    0.1056 C   0  0  1  0  0  0  0  0  0  0  0  0
    0.6610   -1.7917   -0.3247 H   0  0  0  0  0  0  0  0  0  0  0  0
   -0.0966    0.0994   -0.8397 C   0  0  0  0  0  0  0  0  0  0  0  0
    0.5414   -0.1481   -1.6949 H   0  0  0  0  0  0  0  0  0  0  0  0
   -1.1071    0.2407   -1.2358 H   0  0  0  0  0  0  0  0  0  0  0  0
    0.3635    1.4714   -0.3086 C   0  0  0  0  0  0  0  0  0  0  0  0
    1.4087    1.3682    0.0037 H   0  0  0  0  0  0  0  0  0  0  0  0
    0.3479    2.1931   -1.1319 H   0  0  0  0  0  0  0  0  0  0  0  0
   -0.4635    2.0400    0.8587 C   0  0  0  0  0  0  0  0  0  0  0  0
   -1.1683    1.3006    1.2391 H   0  0  0  0  0  0  0  0  0  0  0  0
   -1.0694    2.8687    0.4792 H   0  0  0  0  0  0  0  0  0  0  0  0
    0.4231    2.5594    1.9895 C   0  0  0  0  0  0  0  0  0  0  0  0
    1.0529    1.7532    2.3798 H   0  0  0  0  0  0  0  0  0  0  0  0
    1.0846    3.3478    1.6142 H   0  0  0  0  0  0  0  0  0  0  0  0
   -0.4391    3.0875    3.0530 N   0  0  0  0  0  0  0  0  0  0  0  0
    0.1147    3.3925    3.8538 H   0  0  0  0  0  0  0  0  0  0  0  0
   -1.0228    3.8477    2.7054 H   0  0  0  0  0  0  0  0  0  0  0  0
    0.3912   -1.0005    1.5668 C   0  0  0  0  0  0  0  0  0  0  0  0
    1.5955   -0.9911    1.7909 O   0  0  0  0  0  0  0  0  0  0  0  0
   -0.4745   -0.6714    2.5947 N   0  0  0  0  0  0  0  0  0  0  0  0
   -1.4644   -0.6632    2.3751 H   0  0  0  0  0  0  0  0  0  0  0  0
   -0.0636   -0.5365    3.9866 C   0  0  0  0  0  0  0  0  0  0  0  0
    0.7827    0.1513    4.0798 H   0  0  0  0  0  0  0  0  0  0  0  0
   -0.8899   -0.1425    4.5855 H   0  0  0  0  0  0  0  0  0  0  0  0
    0.2290   -1.5103    4.3920 H   0  0  0  0  0  0  0  0  0  0  0  0
  1  2  1  0  0  0  0
  2  3  1  0  0  0  0
  2  4  1  0  0  0  0
  2  5  1  0  0  0  0
  5  6  2  0  0  0  0
  5  7  1  0  0  0  0
  7  8  1  0  0  0  0
  7  9  1  0  0  0  0
  9 10  1  0  0  0  0
  9 11  1  0  0  0  0
  9 26  1  0  0  0  0
 11 12  1  0  0  0  0
 11 13  1  0  0  0  0
 11 14  1  0  0  0  0
 14 15  1  0  0  0  0
 14 16  1  0  0  0  0
 14 17  1  0  0  0  0
 17 18  1  0  0  0  0
 17 19  1  0  0  0  0
 17 20  1  0  0  0  0
 20 21  1  0  0  0  0
 20 22  1  0  0  0  0
 20 23  1  0  0  0  0
 23 24  1  0  0  0  0
 23 25  1  0  0  0  0
 26 27  2  0  0  0  0
 26 28  1  0  0  0  0
 28 29  1  0  0  0  0
 28 30  1  0  0  0  0
 30 31  1  0  0  0  0
 30 32  1  0  0  0  0
 30 33  1  0  0  0  0
M  END
$$$$

  -OEChem-03222214063D

 33 32  0     1  0  0  0  0  0999 V2000
   -3.2188   -4.7803    0.1970 H   0  0  0  0  0  0  0  0  0  0  0  0
   -3.1446   -3.7200   -0.0615 C   0  0  0  0  0  0  0  0  0  0  0  0
   -3.8625   -3.1605    0.5429 H   0  0  0  0  0  0  0  0  0  0  0  0
   -3.3930   -3.5982   -1.1186 H   0  0  0  0  0  0  0  0  0  0  0  0
   -1.7377   -3.2164    0.2014 C   0  0  0  0  0  0  0  0  0  0  0  0
   -0.8887   -3.9840    0.6164 O   0  0  0  0  0  0  0  0  0  0  0  0
   -1.4317   -1.8907   -0.0399 N   0  0  0  0  0  0  0  0  0  0  0  0
   -2.1712   -1.3147   -0.4294 H   0  0  0  0  0  0  0  0  0  0  0  0
   -0.0888   -1.2957    0.1149 C   0  0  1  0  0  0  0  0  0  0  0  0
    0.5913   -1.9409   -0.4536 H   0  0  0  0  0  0  0  0  0  0  0  0
   -0.0439    0.0730   -0.6323 C   0  0  0  0  0  0  0  0  0  0  0  0
    0.4570   -0.0985   -1.5909 H   0  0  0  0  0  0  0  0  0  0  0  0
   -1.0769    0.3455   -0.8696 H   0  0  0  0  0  0  0  0  0  0  0  0
    0.5782    1.3513   -0.0192 C   0  0  0  0  0  0  0  0  0  0  0  0
    1.6683    1.2621   -0.0817 H   0  0  0  0  0  0  0  0  0  0  0  0
    0.2869    2.1890   -0.6613 H   0  0  0  0  0  0  0  0  0  0  0  0
    0.2293    1.6949    1.4355 C   0  0  0  0  0  0  0  0  0  0  0  0
   -0.8190    1.4496    1.6310 H   0  0  0  0  0  0  0  0  0  0  0  0
    0.8637    1.1263    2.1187 H   0  0  0  0  0  0  0  0  0  0  0  0
    0.4593    3.1776    1.7179 C   0  0  0  0  0  0  0  0  0  0  0  0
    1.5174    3.4244    1.5738 H   0  0  0  0  0  0  0  0  0  0  0  0
   -0.1308    3.7907    1.0281 H   0  0  0  0  0  0  0  0  0  0  0  0
    0.0610    3.4603    3.1007 N   0  0  0  0  0  0  0  0  0  0  0  0
    0.2333    4.4358    3.3438 H   0  0  0  0  0  0  0  0  0  0  0  0
   -0.9138    3.2099    3.2617 H   0  0  0  0  0  0  0  0  0  0  0  0
    0.4704   -1.4038    1.5528 C   0  0  0  0  0  0  0  0  0  0  0  0
    1.6732   -1.5576    1.7224 O   0  0  0  0  0  0  0  0  0  0  0  0
   -0.3296   -1.1137    2.6449 N   0  0  0  0  0  0  0  0  0  0  0  0
   -1.3242   -1.0214    2.4730 H   0  0  0  0  0  0  0  0  0  0  0  0
    0.1554   -1.1403    4.0190 C   0  0  0  0  0  0  0  0  0  0  0  0
    0.9829   -0.4344    4.1471 H   0  0  0  0  0  0  0  0  0  0  0  0
   -0.6456   -0.8592    4.7090 H   0  0  0  0  0  0  0  0  0  0  0  0
    0.5045   -2.1446    4.2811 H   0  0  0  0  0  0  0  0  0  0  0  0
  1  2  1  0  0  0  0
  2  3  1  0  0  0  0
  2  4  1  0  0  0  0
  2  5  1  0  0  0  0
  5  6  2  0  0  0  0
  5  7  1  0  0  0  0
  7  8  1  0  0  0  0
  7  9  1  0  0  0  0
  9 10  1  0  0  0  0
  9 11  1  0  0  0  0
  9 26  1  0  0  0  0
 11 12  1  0  0  0  0
 11 13  1  0  0  0  0
 11 14  1  0  0  0  0
 14 15  1  0  0  0  0
 14 16  1  0  0  0  0
 14 17  1  0  0  0  0
 17 18  1  0  0  0  0
 17 19  1  0  0  0  0
 17 20  1  0  0  0  0
 20 21  1  0  0  0  0
 20 22  1  0  0  0  0
 20 23  1  0  0  0  0
 23 24  1  0  0  0  0
 23 25  1  0  0  0  0
 26 27  2  0  0  0  0
 26 28  1  0  0  0  0
 28 29  1  0  0  0  0
 28 30  1  0  0  0  0
 30 31  1  0  0  0  0
 30 32  1  0  0  0  0
 30 33  1  0  0  0  0
M  END
$$$$

  -OEChem-03222214063D

 33 32  0     1  0  0  0  0  0999 V2000
   -3.2389   -4.7987    0.1653 H   0  0  0  0  0  0  0  0  0  0  0  0
   -3.1551   -3.7393   -0.0935 C   0  0  0  0  0  0  0  0  0  0  0  0
   -3.8697   -3.1730    0.5084 H   0  0  0  0  0  0  0  0  0  0  0  0
   -3.3994   -3.6161   -1.1513 H   0  0  0  0  0  0  0  0  0  0  0  0
   -1.7449   -3.2478    0.1738 C   0  0  0  0  0  0  0  0  0  0  0  0
   -0.9034   -4.0236    0.5882 O   0  0  0  0  0  0  0  0  0  0  0  0
   -1.4286   -1.9230   -0.0591 N   0  0  0  0  0  0  0  0  0  0  0  0
   -2.1628   -1.3395   -0.4475 H   0  0  0  0  0  0  0  0  0  0  0  0
   -0.0848   -1.3346    0.1168 C   0  0  1  0  0  0  0  0  0  0  0  0
    0.6048   -1.9759   -0.4449 H   0  0  0  0  0  0  0  0  0  0  0  0
   -0.0430    0.0387   -0.6290 C   0  0  0  0  0  0  0  0  0  0  0  0
    0.4476   -0.1349   -1.5926 H   0  0  0  0  0  0  0  0  0  0  0  0
   -1.0810    0.2979   -0.8603 H   0  0  0  0  0  0  0  0  0  0  0  0
    0.5570    1.3481   -0.0473 C   0  0  0  0  0  0  0  0  0  0  0  0
    1.6102    1.3819   -0.3459 H   0  0  0  0  0  0  0  0  0  0  0  0
    0.0571    2.1830   -0.5497 H   0  0  0  0  0  0  0  0  0  0  0  0
    0.5251    1.5967    1.4665 C   0  0  0  0  0  0  0  0  0  0  0  0
   -0.4745    1.3769    1.8522 H   0  0  0  0  0  0  0  0  0  0  0  0
    1.2558    0.9629    1.9742 H   0  0  0  0  0  0  0  0  0  0  0  0
    0.8700    3.0500    1.7832 C   0  0  0  0  0  0  0  0  0  0  0  0
    1.8840    3.2770    1.4349 H   0  0  0  0  0  0  0  0  0  0  0  0
    0.1748    3.7238    1.2702 H   0  0  0  0  0  0  0  0  0  0  0  0
    0.7819    3.2514    3.2331 N   0  0  0  0  0  0  0  0  0  0  0  0
    1.0340    4.2053    3.4920 H   0  0  0  0  0  0  0  0  0  0  0  0
   -0.1435    3.0084    3.5844 H   0  0  0  0  0  0  0  0  0  0  0  0
    0.4463   -1.4531    1.5637 C   0  0  0  0  0  0  0  0  0  0  0  0
    1.6380   -1.6588    1.7566 O   0  0  0  0  0  0  0  0  0  0  0  0
   -0.3712   -1.1624    2.6424 N   0  0  0  0  0  0  0  0  0  0  0  0
   -1.3601   -1.0491    2.4513 H   0  0  0  0  0  0  0  0  0  0  0  0
    0.0869   -1.2111    4.0246 C   0  0  0  0  0  0  0  0  0  0  0  0
    0.9162   -0.5121    4.1770 H   0  0  0  0  0  0  0  0  0  0  0  0
   -0.7254   -0.9350    4.7031 H   0  0  0  0  0  0  0  0  0  0  0  0
    0.4254   -2.2210    4.2788 H   0  0  0  0  0  0  0  0  0  0  0  0
  1  2  1  0  0  0  0
  2  3  1  0  0  0  0
  2  4  1  0  0  0  0
  2  5  1  0  0  0  0
  5  6  2  0  0  0  0
  5  7  1  0  0  0  0
  7  8  1  0  0  0  0
  7  9  1  0  0  0  0
  9 10  1  0  0  0  0
  9 11  1  0  0  0  0
  9 26  1  0  0  0  0
 11 12  1  0  0  0  0
 11 13  1  0  0  0  0
 11 14  1  0  0  0  0
 14 15  1  0  0  0  0
 14 16  1  0  0  0  0
 14 17  1  0  0  0  0
 17 18  1  0  0  0  0
 17 19  1  0  0  0  0
 17 20  1  0  0  0  0
 20 21  1  0  0  0  0
 20 22  1  0  0  0  0
 20 23  1  0  0  0  0
 23 24  1  0  0  0  0
 23 25  1  0  0  0  0
 26 27  2  0  0  0  0
 26 28  1  0  0  0  0
 28 29  1  0  0  0  0
 28 30  1  0  0  0  0
 30 31  1  0  0  0  0
 30 32  1  0  0  0  0
 30 33  1  0  0  0  0
M  END
$$$$

  -OEChem-03222214063D

 33 32  0     1  0  0  0  0  0999 V2000
   -3.2843   -4.7807    0.1581 H   0  0  0  0  0  0  0  0  0  0  0  0
   -3.1773   -3.7251   -0.1077 C   0  0  0  0  0  0  0  0  0  0  0  0
   -3.8939   -3.1418    0.4754 H   0  0  0  0  0  0  0  0  0  0  0  0
   -3.3985   -3.6067   -1.1711 H   0  0  0  0  0  0  0  0  0  0  0  0
   -1.7643   -3.2550    0.1830 C   0  0  0  0  0  0  0  0  0  0  0  0
   -0.9472   -4.0396    0.6278 O   0  0  0  0  0  0  0  0  0  0  0  0
   -1.4195   -1.9403   -0.0668 N   0  0  0  0  0  0  0  0  0  0  0  0
   -2.1341   -1.3541   -0.4864 H   0  0  0  0  0  0  0  0  0  0  0  0
   -0.0699   -1.3695    0.1282 C   0  0  1  0  0  0  0  0  0  0  0  0
    0.6289   -2.0188   -0.4125 H   0  0  0  0  0  0  0  0  0  0  0  0
   -0.0208    0.0021   -0.6251 C   0  0  0  0  0  0  0  0  0  0  0  0
    0.4788   -0.1879   -1.5811 H   0  0  0  0  0  0  0  0  0  0  0  0
   -1.0556    0.2570   -0.8754 H   0  0  0  0  0  0  0  0  0  0  0  0
    0.5716    1.3307   -0.0703 C   0  0  0  0  0  0  0  0  0  0  0  0
    1.5212    1.4922   -0.5919 H   0  0  0  0  0  0  0  0  0  0  0  0
   -0.0992    2.1391   -0.3802 H   0  0  0  0  0  0  0  0  0  0  0  0
    0.8682    1.5076    1.4235 C   0  0  0  0  0  0  0  0  0  0  0  0
   -0.0374    1.3137    2.0032 H   0  0  0  0  0  0  0  0  0  0  0  0
    1.6577    0.8218    1.7404 H   0  0  0  0  0  0  0  0  0  0  0  0
    1.3356    2.9328    1.7121 C   0  0  0  0  0  0  0  0  0  0  0  0
    2.2642    3.1396    1.1685 H   0  0  0  0  0  0  0  0  0  0  0  0
    0.5789    3.6520    1.3802 H   0  0  0  0  0  0  0  0  0  0  0  0
    1.5596    3.0733    3.1540 N   0  0  0  0  0  0  0  0  0  0  0  0
    1.8658    4.0161    3.3942 H   0  0  0  0  0  0  0  0  0  0  0  0
    0.7295    2.8097    3.6839 H   0  0  0  0  0  0  0  0  0  0  0  0
    0.4094   -1.4778    1.5943 C   0  0  0  0  0  0  0  0  0  0  0  0
    1.5757   -1.7619    1.8353 O   0  0  0  0  0  0  0  0  0  0  0  0
   -0.4395   -1.1559    2.6391 N   0  0  0  0  0  0  0  0  0  0  0  0
   -1.4165   -1.0180    2.4071 H   0  0  0  0  0  0  0  0  0  0  0  0
   -0.0487   -1.2607    4.0385 C   0  0  0  0  0  0  0  0  0  0  0  0
    0.8216   -0.6271    4.2411 H   0  0  0  0  0  0  0  0  0  0  0  0
   -0.8688   -0.9368    4.6860 H   0  0  0  0  0  0  0  0  0  0  0  0
    0.2034   -2.2970    4.2870 H   0  0  0  0  0  0  0  0  0  0  0  0
  1  2  1  0  0  0  0
  2  3  1  0  0  0  0
  2  4  1  0  0  0  0
  2  5  1  0  0  0  0
  5  6  2  0  0  0  0
  5  7  1  0  0  0  0
  7  8  1  0  0  0  0
  7  9  1  0  0  0  0
  9 10  1  0  0  0  0
  9 11  1  0  0  0  0
  9 26  1  0  0  0  0
 11 12  1  0  0  0  0
 11 13  1  0  0  0  0
 11 14  1  0  0  0  0
 14 15  1  0  0  0  0
 14 16  1  0  0  0  0
 14 17  1  0  0  0  0
 17 18  1  0  0  0  0
 17 19  1  0  0  0  0
 17 20  1  0  0  0  0
 20 21  1  0  0  0  0
 20 22  1  0  0  0  0
 20 23  1  0  0  0  0
 23 24  1  0  0  0  0
 23 25  1  0  0  0  0
 26 27  2  0  0  0  0
 26 28  1  0  0  0  0
 28 29  1  0  0  0  0
 28 30  1  0  0  0  0
 30 31  1  0  0  0  0
 30 32  1  0  0  0  0
 30 33  1  0  0  0  0
M  END
$$$$

  -OEChem-03222214063D

 33 32  0     1  0  0  0  0  0999 V2000
   -3.4855   -4.3262    0.6589 H   0  0  0  0  0  0  0  0  0  0  0  0
   -3.2975   -3.3150    0.2862 C   0  0  0  0  0  0  0  0  0  0  0  0
   -3.9289   -2.6145    0.8378 H   0  0  0  0  0  0  0  0  0  0  0  0
   -3.5603   -3.2776   -0.7738 H   0  0  0  0  0  0  0  0  0  0  0  0
   -1.8353   -2.9549    0.4708 C   0  0  0  0  0  0  0  0  0  0  0  0
   -1.0739   -3.7630    0.9690 O   0  0  0  0  0  0  0  0  0  0  0  0
   -1.3829   -1.7138    0.0634 N   0  0  0  0  0  0  0  0  0  0  0  0
   -2.0574   -1.1210   -0.4102 H   0  0  0  0  0  0  0  0  0  0  0  0
    0.0297   -1.2761    0.0937 C   0  0  1  0  0  0  0  0  0  0  0  0
    0.6118   -2.0499   -0.4209 H   0  0  0  0  0  0  0  0  0  0  0  0
    0.1460   -0.0075   -0.8207 C   0  0  0  0  0  0  0  0  0  0  0  0
    0.5558   -0.3717   -1.7692 H   0  0  0  0  0  0  0  0  0  0  0  0
   -0.8761    0.3131   -1.0473 H   0  0  0  0  0  0  0  0  0  0  0  0
    0.8993    1.3239   -0.5147 C   0  0  0  0  0  0  0  0  0  0  0  0
    1.6469    1.4254   -1.3089 H   0  0  0  0  0  0  0  0  0  0  0  0
    0.1955    2.1511   -0.6575 H   0  0  0  0  0  0  0  0  0  0  0  0
    1.6623    1.5746    0.7924 C   0  0  0  0  0  0  0  0  0  0  0  0
    2.4633    2.2925    0.5883 H   0  0  0  0  0  0  0  0  0  0  0  0
    2.1575    0.6710    1.1431 H   0  0  0  0  0  0  0  0  0  0  0  0
    0.7685    2.1957    1.8645 C   0  0  0  0  0  0  0  0  0  0  0  0
    0.5016    3.2194    1.5796 H   0  0  0  0  0  0  0  0  0  0  0  0
   -0.1622    1.6329    1.9682 H   0  0  0  0  0  0  0  0  0  0  0  0
    1.5094    2.2046    3.1274 N   0  0  0  0  0  0  0  0  0  0  0  0
    0.9339    2.5475    3.8952 H   0  0  0  0  0  0  0  0  0  0  0  0
    1.8779    1.2736    3.3326 H   0  0  0  0  0  0  0  0  0  0  0  0
    0.6035   -1.3069    1.5313 C   0  0  0  0  0  0  0  0  0  0  0  0
    1.7341   -1.7307    1.7353 O   0  0  0  0  0  0  0  0  0  0  0  0
   -0.1269   -0.8050    2.5939 N   0  0  0  0  0  0  0  0  0  0  0  0
   -1.1042   -0.6151    2.4018 H   0  0  0  0  0  0  0  0  0  0  0  0
    0.2810   -0.9957    3.9804 C   0  0  0  0  0  0  0  0  0  0  0  0
    1.2933   -0.6113    4.1426 H   0  0  0  0  0  0  0  0  0  0  0  0
   -0.3996   -0.4628    4.6511 H   0  0  0  0  0  0  0  0  0  0  0  0
    0.2648   -2.0598    4.2389 H   0  0  0  0  0  0  0  0  0  0  0  0
  1  2  1  0  0  0  0
  2  3  1  0  0  0  0
  2  4  1  0  0  0  0
  2  5  1  0  0  0  0
  5  6  2  0  0  0  0
  5  7  1  0  0  0  0
  7  8  1  0  0  0  0
  7  9  1  0  0  0  0
  9 10  1  0  0  0  0
  9 11  1  0  0  0  0
  9 26  1  0  0  0  0
 11 12  1  0  0  0  0
 11 13  1  0  0  0  0
 11 14  1  0  0  0  0
 14 15  1  0  0  0  0
 14 16  1  0  0  0  0
 14 17  1  0  0  0  0
 17 18  1  0  0  0  0
 17 19  1  0  0  0  0
 17 20  1  0  0  0  0
 20 21  1  0  0  0  0
 20 22  1  0  0  0  0
 20 23  1  0  0  0  0
 23 24  1  0  0  0  0
 23 25  1  0  0  0  0
 26 27  2  0  0  0  0
 26 28  1  0  0  0  0
 28 29  1  0  0  0  0
 28 30  1  0  0  0  0
 30 31  1  0  0  0  0
 30 32  1  0  0  0  0
 30 33  1  0  0  0  0
M  END
$$$$

  -OEChem-03222214063D

 33 32  0     1  0  0  0  0  0999 V2000
   -3.2881   -4.7421    0.2793 H   0  0  0  0  0  0  0  0  0  0  0  0
   -3.1619   -3.7049   -0.0445 C   0  0  0  0  0  0  0  0  0  0  0  0
   -3.8817   -3.0804    0.4898 H   0  0  0  0  0  0  0  0  0  0  0  0
   -3.3608   -3.6457   -1.1172 H   0  0  0  0  0  0  0  0  0  0  0  0
   -1.7489   -3.2357    0.2479 C   0  0  0  0  0  0  0  0  0  0  0  0
   -0.9544   -4.0029    0.7587 O   0  0  0  0  0  0  0  0  0  0  0  0
   -1.3784   -1.9449   -0.0809 N   0  0  0  0  0  0  0  0  0  0  0  0
   -2.0702   -1.3853   -0.5693 H   0  0  0  0  0  0  0  0  0  0  0  0
   -0.0264   -1.3752    0.1110 C   0  0  1  0  0  0  0  0  0  0  0  0
    0.7013   -2.0224   -0.3921 H   0  0  0  0  0  0  0  0  0  0  0  0
   -0.0247   -0.0021   -0.6410 C   0  0  0  0  0  0  0  0  0  0  0  0
    0.5179   -0.1955   -1.5725 H   0  0  0  0  0  0  0  0  0  0  0  0
   -1.0518    0.2333   -0.9385 H   0  0  0  0  0  0  0  0  0  0  0  0
    0.5541    1.3324   -0.0877 C   0  0  0  0  0  0  0  0  0  0  0  0
    1.0737    1.8217   -0.9186 H   0  0  0  0  0  0  0  0  0  0  0  0
   -0.2956    1.9717    0.1740 H   0  0  0  0  0  0  0  0  0  0  0  0
    1.4915    1.3348    1.1266 C   0  0  0  0  0  0  0  0  0  0  0  0
    0.9440    1.0823    2.0362 H   0  0  0  0  0  0  0  0  0  0  0  0
    2.2920    0.6037    0.9744 H   0  0  0  0  0  0  0  0  0  0  0  0
    2.1138    2.7159    1.3216 C   0  0  0  0  0  0  0  0  0  0  0  0
    2.6462    3.0255    0.4154 H   0  0  0  0  0  0  0  0  0  0  0  0
    1.3286    3.4524    1.5242 H   0  0  0  0  0  0  0  0  0  0  0  0
    3.0504    2.6530    2.4466 N   0  0  0  0  0  0  0  0  0  0  0  0
    3.4108    3.5759    2.6868 H   0  0  0  0  0  0  0  0  0  0  0  0
    2.6254    2.1998    3.2559 H   0  0  0  0  0  0  0  0  0  0  0  0
    0.3659   -1.4093    1.6073 C   0  0  0  0  0  0  0  0  0  0  0  0
    1.4954   -1.7368    1.9467 O   0  0  0  0  0  0  0  0  0  0  0  0
   -0.5435   -1.0131    2.5739 N   0  0  0  0  0  0  0  0  0  0  0  0
   -1.4977   -0.8720    2.2624 H   0  0  0  0  0  0  0  0  0  0  0  0
   -0.2780   -1.1332    4.0015 C   0  0  0  0  0  0  0  0  0  0  0  0
    0.6082   -0.5517    4.2768 H   0  0  0  0  0  0  0  0  0  0  0  0
   -1.1290   -0.7580    4.5777 H   0  0  0  0  0  0  0  0  0  0  0  0
   -0.1092   -2.1811    4.2712 H   0  0  0  0  0  0  0  0  0  0  0  0
  1  2  1  0  0  0  0
  2  3  1  0  0  0  0
  2  4  1  0  0  0  0
  2  5  1  0  0  0  0
  5  6  2  0  0  0  0
  5  7  1  0  0  0  0
  7  8  1  0  0  0  0
  7  9  1  0  0  0  0
  9 10  1  0  0  0  0
  9 11  1  0  0  0  0
  9 26  1  0  0  0  0
 11 12  1  0  0  0  0
 11 13  1  0  0  0  0
 11 14  1  0  0  0  0
 14 15  1  0  0  0  0
 14 16  1  0  0  0  0
 14 17  1  0  0  0  0
 17 18  1  0  0  0  0
 17 19  1  0  0  0  0
 17 20  1  0  0  0  0
 20 21  1  0  0  0  0
 20 22  1  0  0  0  0
 20 23  1  0  0  0  0
 23 24  1  0  0  0  0
 23 25  1  0  0  0  0
 26 27  2  0  0  0  0
 26 28  1  0  0  0  0
 28 29  1  0  0  0  0
 28 30  1  0  0  0  0
 30 31  1  0  0  0  0
 30 32  1  0  0  0  0
 30 33  1  0  0  0  0
M  END
$$$$

  -OEChem-03222214063D

 33 32  0     1  0  0  0  0  0999 V2000
   -3.2275   -4.7598    0.3099 H   0  0  0  0  0  0  0  0  0  0  0  0
   -3.1171   -3.7260   -0.0302 C   0  0  0  0  0  0  0  0  0  0  0  0
   -3.8608   -3.1079    0.4783 H   0  0  0  0  0  0  0  0  0  0  0  0
   -3.2961   -3.6902   -1.1074 H   0  0  0  0  0  0  0  0  0  0  0  0
   -1.7200   -3.2223    0.2806 C   0  0  0  0  0  0  0  0  0  0  0  0
   -0.9264   -3.9576    0.8377 O   0  0  0  0  0  0  0  0  0  0  0  0
   -1.3622   -1.9374   -0.0832 N   0  0  0  0  0  0  0  0  0  0  0  0
   -2.0467   -1.4117   -0.6175 H   0  0  0  0  0  0  0  0  0  0  0  0
   -0.0179   -1.3482    0.1037 C   0  0  1  0  0  0  0  0  0  0  0  0
    0.7246   -1.9861   -0.3897 H   0  0  0  0  0  0  0  0  0  0  0  0
   -0.0494    0.0234   -0.6469 C   0  0  0  0  0  0  0  0  0  0  0  0
    0.4976   -0.1522   -1.5790 H   0  0  0  0  0  0  0  0  0  0  0  0
   -1.0801    0.2493   -0.9392 H   0  0  0  0  0  0  0  0  0  0  0  0
    0.5161    1.3480   -0.0657 C   0  0  0  0  0  0  0  0  0  0  0  0
    0.7884    1.9800   -0.9178 H   0  0  0  0  0  0  0  0  0  0  0  0
   -0.2976    1.8565    0.4619 H   0  0  0  0  0  0  0  0  0  0  0  0
    1.7068    1.2878    0.9031 C   0  0  0  0  0  0  0  0  0  0  0  0
    1.3759    0.9966    1.9021 H   0  0  0  0  0  0  0  0  0  0  0  0
    2.4364    0.5545    0.5433 H   0  0  0  0  0  0  0  0  0  0  0  0
    2.3835    2.6517    1.0190 C   0  0  0  0  0  0  0  0  0  0  0  0
    2.7010    3.0077    0.0324 H   0  0  0  0  0  0  0  0  0  0  0  0
    1.6792    3.3805    1.4349 H   0  0  0  0  0  0  0  0  0  0  0  0
    3.5507    2.5183    1.8945 N   0  0  0  0  0  0  0  0  0  0  0  0
    3.9558    3.4261    2.1203 H   0  0  0  0  0  0  0  0  0  0  0  0
    3.3179    1.9971    2.7409 H   0  0  0  0  0  0  0  0  0  0  0  0
    0.3672   -1.3325    1.6020 C   0  0  0  0  0  0  0  0  0  0  0  0
    1.4940   -1.6527    1.9582 O   0  0  0  0  0  0  0  0  0  0  0  0
   -0.5503   -0.9158    2.5517 N   0  0  0  0  0  0  0  0  0  0  0  0
   -1.5047   -0.7949    2.2319 H   0  0  0  0  0  0  0  0  0  0  0  0
   -0.2914   -0.9931    3.9834 C   0  0  0  0  0  0  0  0  0  0  0  0
    0.5847   -0.3914    4.2471 H   0  0  0  0  0  0  0  0  0  0  0  0
   -1.1508   -0.6151    4.5450 H   0  0  0  0  0  0  0  0  0  0  0  0
   -0.1092   -2.0309    4.2822 H   0  0  0  0  0  0  0  0  0  0  0  0
  1  2  1  0  0  0  0
  2  3  1  0  0  0  0
  2  4  1  0  0  0  0
  2  5  1  0  0  0  0
  5  6  2  0  0  0  0
  5  7  1  0  0  0  0
  7  8  1  0  0  0  0
  7  9  1  0  0  0  0
  9 10  1  0  0  0  0
  9 11  1  0  0  0  0
  9 26  1  0  0  0  0
 11 12  1  0  0  0  0
 11 13  1  0  0  0  0
 11 14  1  0  0  0  0
 14 15  1  0  0  0  0
 14 16  1  0  0  0  0
 14 17  1  0  0  0  0
 17 18  1  0  0  0  0
 17 19  1  0  0  0  0
 17 20  1  0  0  0  0
 20 21  1  0  0  0  0
 20 22  1  0  0  0  0
 20 23  1  0  0  0  0
 23 24  1  0  0  0  0
 23 25  1  0  0  0  0
 26 27  2  0  0  0  0
 26 28  1  0  0  0  0
 28 29  1  0  0  0  0
 28 30  1  0  0  0  0
 30 31  1  0  0  0  0
 30 32  1  0  0  0  0
 30 33  1  0  0  0  0
M  END
$$$$

  -OEChem-03222214063D

 33 32  0     1  0  0  0  0  0999 V2000
   -3.1702   -4.7577    0.3737 H   0  0  0  0  0  0  0  0  0  0  0  0
   -3.0678   -3.7366   -0.0050 C   0  0  0  0  0  0  0  0  0  0  0  0
   -3.8257   -3.1089    0.4695 H   0  0  0  0  0  0  0  0  0  0  0  0
   -3.2324   -3.7447   -1.0850 H   0  0  0  0  0  0  0  0  0  0  0  0
   -1.6816   -3.2026    0.3043 C   0  0  0  0  0  0  0  0  0  0  0  0
   -0.8789   -3.9129    0.8803 O   0  0  0  0  0  0  0  0  0  0  0  0
   -1.3470   -1.9173   -0.0797 N   0  0  0  0  0  0  0  0  0  0  0  0
   -2.0360   -1.4190   -0.6337 H   0  0  0  0  0  0  0  0  0  0  0  0
   -0.0116   -1.3038    0.0899 C   0  0  1  0  0  0  0  0  0  0  0  0
    0.7404   -1.9233   -0.4124 H   0  0  0  0  0  0  0  0  0  0  0  0
   -0.0874    0.0719   -0.6446 C   0  0  0  0  0  0  0  0  0  0  0  0
    0.4341   -0.0677   -1.5973 H   0  0  0  0  0  0  0  0  0  0  0  0
   -1.1306    0.2917   -0.8936 H   0  0  0  0  0  0  0  0  0  0  0  0
    0.4733    1.3725   -0.0193 C   0  0  0  0  0  0  0  0  0  0  0  0
    0.4954    2.1268   -0.8130 H   0  0  0  0  0  0  0  0  0  0  0  0
   -0.2286    1.7265    0.7430 H   0  0  0  0  0  0  0  0  0  0  0  0
    1.8655    1.2881    0.6273 C   0  0  0  0  0  0  0  0  0  0  0  0
    1.7932    0.9145    1.6501 H   0  0  0  0  0  0  0  0  0  0  0  0
    2.4989    0.6066    0.0497 H   0  0  0  0  0  0  0  0  0  0  0  0
    2.5259    2.6635    0.6832 C   0  0  0  0  0  0  0  0  0  0  0  0
    2.5854    3.1010   -0.3194 H   0  0  0  0  0  0  0  0  0  0  0  0
    1.9322    3.3342    1.3142 H   0  0  0  0  0  0  0  0  0  0  0  0
    3.8747    2.5088    1.2342 N   0  0  0  0  0  0  0  0  0  0  0  0
    4.3156    3.4122    1.4038 H   0  0  0  0  0  0  0  0  0  0  0  0
    3.8606    1.9411    2.0828 H   0  0  0  0  0  0  0  0  0  0  0  0
    0.3910   -1.2569    1.5833 C   0  0  0  0  0  0  0  0  0  0  0  0
    1.5185   -1.5814    1.9339 O   0  0  0  0  0  0  0  0  0  0  0  0
   -0.5216   -0.8394    2.5369 N   0  0  0  0  0  0  0  0  0  0  0  0
   -1.4798   -0.7325    2.2232 H   0  0  0  0  0  0  0  0  0  0  0  0
   -0.2540   -0.9116    3.9671 C   0  0  0  0  0  0  0  0  0  0  0  0
    0.6497   -0.3458    4.2170 H   0  0  0  0  0  0  0  0  0  0  0  0
   -1.0911   -0.4890    4.5306 H   0  0  0  0  0  0  0  0  0  0  0  0
   -0.1149   -1.9529    4.2765 H   0  0  0  0  0  0  0  0  0  0  0  0
  1  2  1  0  0  0  0
  2  3  1  0  0  0  0
  2  4  1  0  0  0  0
  2  5  1  0  0  0  0
  5  6  2  0  0  0  0
  5  7  1  0  0  0  0
  7  8  1  0  0  0  0
  7  9  1  0  0  0  0
  9 10  1  0  0  0  0
  9 11  1  0  0  0  0
  9 26  1  0  0  0  0
 11 12  1  0  0  0  0
 11 13  1  0  0  0  0
 11 14  1  0  0  0  0
 14 15  1  0  0  0  0
 14 16  1  0  0  0  0
 14 17  1  0  0  0  0
 17 18  1  0  0  0  0
 17 19  1  0  0  0  0
 17 20  1  0  0  0  0
 20 21  1  0  0  0  0
 20 22  1  0  0  0  0
 20 23  1  0  0  0  0
 23 24  1  0  0  0  0
 23 25  1  0  0  0  0
 26 27  2  0  0  0  0
 26 28  1  0  0  0  0
 28 29  1  0  0  0  0
 28 30  1  0  0  0  0
 30 31  1  0  0  0  0
 30 32  1  0  0  0  0
 30 33  1  0  0  0  0
M  END
$$$$

  -OEChem-03222214063D

 33 32  0     1  0  0  0  0  0999 V2000
   -2.9323   -4.6862    0.9326 H   0  0  0  0  0  0  0  0  0  0  0  0
   -2.8651   -3.7818    0.3209 C   0  0  0  0  0  0  0  0  0  0  0  0
   -3.6642   -3.0981    0.6173 H   0  0  0  0  0  0  0  0  0  0  0  0
   -2.9982   -4.0566   -0.7283 H   0  0  0  0  0  0  0  0  0  0  0  0
   -1.5136   -3.1202    0.5146 C   0  0  0  0  0  0  0  0  0  0  0  0
   -0.6579   -3.6830    1.1719 O   0  0  0  0  0  0  0  0  0  0  0  0
   -1.2675   -1.8912   -0.0692 N   0  0  0  0  0  0  0  0  0  0  0  0
   -1.9915   -1.5335   -0.6846 H   0  0  0  0  0  0  0  0  0  0  0  0
    0.0372   -1.1950   -0.0529 C   0  0  1  0  0  0  0  0  0  0  0  0
    0.8048   -1.8358   -0.5010 H   0  0  0  0  0  0  0  0  0  0  0  0
   -0.1424    0.0736   -0.9457 C   0  0  0  0  0  0  0  0  0  0  0  0
    0.3199   -0.1388   -1.9152 H   0  0  0  0  0  0  0  0  0  0  0  0
   -1.2087    0.2352   -1.1353 H   0  0  0  0  0  0  0  0  0  0  0  0
    0.4101    1.4234   -0.4429 C   0  0  0  0  0  0  0  0  0  0  0  0
    0.1685    2.2057   -1.1702 H   0  0  0  0  0  0  0  0  0  0  0  0
   -0.1080    1.6836    0.4857 H   0  0  0  0  0  0  0  0  0  0  0  0
    1.9327    1.4231   -0.2079 C   0  0  0  0  0  0  0  0  0  0  0  0
    2.3227    0.4054   -0.1441 H   0  0  0  0  0  0  0  0  0  0  0  0
    2.4204    1.8858   -1.0719 H   0  0  0  0  0  0  0  0  0  0  0  0
    2.3157    2.1949    1.0522 C   0  0  0  0  0  0  0  0  0  0  0  0
    1.9890    3.2373    0.9716 H   0  0  0  0  0  0  0  0  0  0  0  0
    1.8308    1.7509    1.9284 H   0  0  0  0  0  0  0  0  0  0  0  0
    3.7710    2.1300    1.2034 N   0  0  0  0  0  0  0  0  0  0  0  0
    4.0722    2.6088    2.0513 H   0  0  0  0  0  0  0  0  0  0  0  0
    4.0797    1.1558    1.2146 H   0  0  0  0  0  0  0  0  0  0  0  0
    0.4856   -0.9111    1.4069 C   0  0  0  0  0  0  0  0  0  0  0  0
    1.6453   -1.0880    1.7585 O   0  0  0  0  0  0  0  0  0  0  0  0
   -0.4216   -0.4058    2.3228 N   0  0  0  0  0  0  0  0  0  0  0  0
   -1.3949   -0.4238    2.0380 H   0  0  0  0  0  0  0  0  0  0  0  0
   -0.1113   -0.2564    3.7389 C   0  0  0  0  0  0  0  0  0  0  0  0
    0.7642    0.3868    3.8756 H   0  0  0  0  0  0  0  0  0  0  0  0
   -0.9562    0.1974    4.2652 H   0  0  0  0  0  0  0  0  0  0  0  0
    0.0959   -1.2332    4.1884 H   0  0  0  0  0  0  0  0  0  0  0  0
  1  2  1  0  0  0  0
  2  3  1  0  0  0  0
  2  4  1  0  0  0  0
  2  5  1  0  0  0  0
  5  6  2  0  0  0  0
  5  7  1  0  0  0  0
  7  8  1  0  0  0  0
  7  9  1  0  0  0  0
  9 10  1  0  0  0  0
  9 11  1  0  0  0  0
  9 26  1  0  0  0  0
 11 12  1  0  0  0  0
 11 13  1  0  0  0  0
 11 14  1  0  0  0  0
 14 15  1  0  0  0  0
 14 16  1  0  0  0  0
 14 17  1  0  0  0  0
 17 18  1  0  0  0  0
 17 19  1  0  0  0  0
 17 20  1  0  0  0  0
 20 21  1  0  0  0  0
 20 22  1  0  0  0  0
 20 23  1  0  0  0  0
 23 24  1  0  0  0  0
 23 25  1  0  0  0  0
 26 27  2  0  0  0  0
 26 28  1  0  0  0  0
 28 29  1  0  0  0  0
 28 30  1  0  0  0  0
 30 31  1  0  0  0  0
 30 32  1  0  0  0  0
 30 33  1  0  0  0  0
M  END
$$$$

  -OEChem-03222214063D

 33 32  0     1  0  0  0  0  0999 V2000
   -2.9223   -4.8177    0.6261 H   0  0  0  0  0  0  0  0  0  0  0  0
   -2.9103   -3.8145    0.1898 C   0  0  0  0  0  0  0  0  0  0  0  0
   -3.6986   -3.2191    0.6564 H   0  0  0  0  0  0  0  0  0  0  0  0
   -3.1086   -3.8963   -0.8816 H   0  0  0  0  0  0  0  0  0  0  0  0
   -1.5598   -3.1622    0.4204 C   0  0  0  0  0  0  0  0  0  0  0  0
   -0.7037   -3.7569    1.0489 O   0  0  0  0  0  0  0  0  0  0  0  0
   -1.3147   -1.9008   -0.0893 N   0  0  0  0  0  0  0  0  0  0  0  0
   -2.0382   -1.5042   -0.6809 H   0  0  0  0  0  0  0  0  0  0  0  0
   -0.0139   -1.2020   -0.0156 C   0  0  1  0  0  0  0  0  0  0  0  0
    0.7557   -1.8303   -0.4781 H   0  0  0  0  0  0  0  0  0  0  0  0
   -0.1468    0.0990   -0.8649 C   0  0  0  0  0  0  0  0  0  0  0  0
    0.3265   -0.0742   -1.8371 H   0  0  0  0  0  0  0  0  0  0  0  0
   -1.2077    0.2834   -1.0615 H   0  0  0  0  0  0  0  0  0  0  0  0
    0.4071    1.4081   -0.2697 C   0  0  0  0  0  0  0  0  0  0  0  0
    0.0152    2.2521   -0.8468 H   0  0  0  0  0  0  0  0  0  0  0  0
    0.0584    1.5390    0.7585 H   0  0  0  0  0  0  0  0  0  0  0  0
    1.9416    1.4568   -0.3291 C   0  0  0  0  0  0  0  0  0  0  0  0
    2.3753    0.5221    0.0319 H   0  0  0  0  0  0  0  0  0  0  0  0
    2.2582    1.5817   -1.3698 H   0  0  0  0  0  0  0  0  0  0  0  0
    2.4828    2.6095    0.5099 C   0  0  0  0  0  0  0  0  0  0  0  0
    2.0580    3.5595    0.1677 H   0  0  0  0  0  0  0  0  0  0  0  0
    2.2041    2.4681    1.5602 H   0  0  0  0  0  0  0  0  0  0  0  0
    3.9416    2.6344    0.3759 N   0  0  0  0  0  0  0  0  0  0  0  0
    4.3516    3.3686    0.9521 H   0  0  0  0  0  0  0  0  0  0  0  0
    4.3388    1.7242    0.6144 H   0  0  0  0  0  0  0  0  0  0  0  0
    0.4329   -0.9905    1.4559 C   0  0  0  0  0  0  0  0  0  0  0  0
    1.6061   -1.1192    1.7811 O   0  0  0  0  0  0  0  0  0  0  0  0
   -0.4756   -0.5372    2.3974 N   0  0  0  0  0  0  0  0  0  0  0  0
   -1.4522   -0.5678    2.1257 H   0  0  0  0  0  0  0  0  0  0  0  0
   -0.1435   -0.3922    3.8089 C   0  0  0  0  0  0  0  0  0  0  0  0
    0.6823    0.3153    3.9376 H   0  0  0  0  0  0  0  0  0  0  0  0
   -1.0082   -0.0174    4.3645 H   0  0  0  0  0  0  0  0  0  0  0  0
    0.1509   -1.3580    4.2330 H   0  0  0  0  0  0  0  0  0  0  0  0
  1  2  1  0  0  0  0
  2  3  1  0  0  0  0
  2  4  1  0  0  0  0
  2  5  1  0  0  0  0
  5  6  2  0  0  0  0
  5  7  1  0  0  0  0
  7  8  1  0  0  0  0
  7  9  1  0  0  0  0
  9 10  1  0  0  0  0
  9 11  1  0  0  0  0
  9 26  1  0  0  0  0
 11 12  1  0  0  0  0
 11 13  1  0  0  0  0
 11 14  1  0  0  0  0
 14 15  1  0  0  0  0
 14 16  1  0  0  0  0
 14 17  1  0  0  0  0
 17 18  1  0  0  0  0
 17 19  1  0  0  0  0
 17 20  1  0  0  0  0
 20 21  1  0  0  0  0
 20 22  1  0  0  0  0
 20 23  1  0  0  0  0
 23 24  1  0  0  0  0
 23 25  1  0  0  0  0
 26 27  2  0  0  0  0
 26 28  1  0  0  0  0
 28 29  1  0  0  0  0
 28 30  1  0  0  0  0
 30 31  1  0  0  0  0
 30 32  1  0  0  0  0
 30 33  1  0  0  0  0
M  END
$$$$

  -OEChem-03222214063D

 33 32  0     1  0  0  0  0  0999 V2000
   -2.8870   -4.8672    0.5215 H   0  0  0  0  0  0  0  0  0  0  0  0
   -2.8948   -3.8529    0.1122 C   0  0  0  0  0  0  0  0  0  0  0  0
   -3.7095   -3.2931    0.5773 H   0  0  0  0  0  0  0  0  0  0  0  0
   -3.0685   -3.9113   -0.9649 H   0  0  0  0  0  0  0  0  0  0  0  0
   -1.5692   -3.1684    0.3881 C   0  0  0  0  0  0  0  0  0  0  0  0
   -0.7096   -3.7509    1.0236 O   0  0  0  0  0  0  0  0  0  0  0  0
   -1.3506   -1.8881   -0.0844 N   0  0  0  0  0  0  0  0  0  0  0  0
   -2.0729   -1.4970   -0.6813 H   0  0  0  0  0  0  0  0  0  0  0  0
   -0.0622   -1.1712    0.0084 C   0  0  1  0  0  0  0  0  0  0  0  0
    0.7058   -1.7975   -0.4597 H   0  0  0  0  0  0  0  0  0  0  0  0
   -0.1662    0.1288   -0.8423 C   0  0  0  0  0  0  0  0  0  0  0  0
    0.3156   -0.0429   -1.8107 H   0  0  0  0  0  0  0  0  0  0  0  0
   -1.2244    0.3146   -1.0518 H   0  0  0  0  0  0  0  0  0  0  0  0
    0.3756    1.4329   -0.2198 C   0  0  0  0  0  0  0  0  0  0  0  0
   -0.1759    2.2754   -0.6500 H   0  0  0  0  0  0  0  0  0  0  0  0
    0.2139    1.4777    0.8595 H   0  0  0  0  0  0  0  0  0  0  0  0
    1.8581    1.6195   -0.5637 C   0  0  0  0  0  0  0  0  0  0  0  0
    2.4201    0.7260   -0.2731 H   0  0  0  0  0  0  0  0  0  0  0  0
    1.9728    1.7528   -1.6444 H   0  0  0  0  0  0  0  0  0  0  0  0
    2.4370    2.8285    0.1629 C   0  0  0  0  0  0  0  0  0  0  0  0
    1.8801    3.7331   -0.1048 H   0  0  0  0  0  0  0  0  0  0  0  0
    2.3570    2.6858    1.2466 H   0  0  0  0  0  0  0  0  0  0  0  0
    3.8430    2.9718   -0.2244 N   0  0  0  0  0  0  0  0  0  0  0  0
    4.2817    3.7509    0.2656 H   0  0  0  0  0  0  0  0  0  0  0  0
    4.3530    2.1041   -0.0527 H   0  0  0  0  0  0  0  0  0  0  0  0
    0.4158   -0.9799    1.4700 C   0  0  0  0  0  0  0  0  0  0  0  0
    1.6112   -1.0001    1.7347 O   0  0  0  0  0  0  0  0  0  0  0  0
   -0.4777   -0.5619    2.4413 N   0  0  0  0  0  0  0  0  0  0  0  0
   -1.4615   -0.6551    2.2120 H   0  0  0  0  0  0  0  0  0  0  0  0
   -0.0966   -0.3726    3.8350 C   0  0  0  0  0  0  0  0  0  0  0  0
    0.6854    0.3894    3.9187 H   0  0  0  0  0  0  0  0  0  0  0  0
   -0.9599   -0.0464    4.4226 H   0  0  0  0  0  0  0  0  0  0  0  0
    0.2786   -1.3100    4.2588 H   0  0  0  0  0  0  0  0  0  0  0  0
  1  2  1  0  0  0  0
  2  3  1  0  0  0  0
  2  4  1  0  0  0  0
  2  5  1  0  0  0  0
  5  6  2  0  0  0  0
  5  7  1  0  0  0  0
  7  8  1  0  0  0  0
  7  9  1  0  0  0  0
  9 10  1  0  0  0  0
  9 11  1  0  0  0  0
  9 26  1  0  0  0  0
 11 12  1  0  0  0  0
 11 13  1  0  0  0  0
 11 14  1  0  0  0  0
 14 15  1  0  0  0  0
 14 16  1  0  0  0  0
 14 17  1  0  0  0  0
 17 18  1  0  0  0  0
 17 19  1  0  0  0  0
 17 20  1  0  0  0  0
 20 21  1  0  0  0  0
 20 22  1  0  0  0  0
 20 23  1  0  0  0  0
 23 24  1  0  0  0  0
 23 25  1  0  0  0  0
 26 27  2  0  0  0  0
 26 28  1  0  0  0  0
 28 29  1  0  0  0  0
 28 30  1  0  0  0  0
 30 31  1  0  0  0  0
 30 32  1  0  0  0  0
 30 33  1  0  0  0  0
M  END
$$$$

  -OEChem-03222214063D

 33 32  0     1  0  0  0  0  0999 V2000
   -2.8956   -4.8686    0.4720 H   0  0  0  0  0  0  0  0  0  0  0  0
   -2.9012   -3.8478    0.0789 C   0  0  0  0  0  0  0  0  0  0  0  0
   -3.7155   -3.2936    0.5516 H   0  0  0  0  0  0  0  0  0  0  0  0
   -3.0730   -3.8888   -0.9994 H   0  0  0  0  0  0  0  0  0  0  0  0
   -1.5748   -3.1704    0.3685 C   0  0  0  0  0  0  0  0  0  0  0  0
   -0.7174   -3.7648    0.9959 O   0  0  0  0  0  0  0  0  0  0  0  0
   -1.3529   -1.8822   -0.0799 N   0  0  0  0  0  0  0  0  0  0  0  0
   -2.0737   -1.4772   -0.6693 H   0  0  0  0  0  0  0  0  0  0  0  0
   -0.0645   -1.1687    0.0327 C   0  0  1  0  0  0  0  0  0  0  0  0
    0.7039   -1.7920   -0.4389 H   0  0  0  0  0  0  0  0  0  0  0  0
   -0.1576    0.1403   -0.8062 C   0  0  0  0  0  0  0  0  0  0  0  0
    0.3300   -0.0333   -1.7714 H   0  0  0  0  0  0  0  0  0  0  0  0
   -1.2137    0.3254   -1.0273 H   0  0  0  0  0  0  0  0  0  0  0  0
    0.3761    1.4523   -0.1819 C   0  0  0  0  0  0  0  0  0  0  0  0
   -0.3376    2.2534   -0.4017 H   0  0  0  0  0  0  0  0  0  0  0  0
    0.4621    1.4083    0.9050 H   0  0  0  0  0  0  0  0  0  0  0  0
    1.7229    1.8369   -0.8053 C   0  0  0  0  0  0  0  0  0  0  0  0
    2.4285    1.0078   -0.6862 H   0  0  0  0  0  0  0  0  0  0  0  0
    1.5958    2.0243   -1.8767 H   0  0  0  0  0  0  0  0  0  0  0  0
    2.2971    3.0820   -0.1373 C   0  0  0  0  0  0  0  0  0  0  0  0
    1.5973    3.9193   -0.2344 H   0  0  0  0  0  0  0  0  0  0  0  0
    2.4572    2.8928    0.9302 H   0  0  0  0  0  0  0  0  0  0  0  0
    3.5683    3.4136   -0.7874 N   0  0  0  0  0  0  0  0  0  0  0  0
    4.0004    4.2301   -0.3554 H   0  0  0  0  0  0  0  0  0  0  0  0
    4.2035    2.6150   -0.7663 H   0  0  0  0  0  0  0  0  0  0  0  0
    0.4082   -1.0026    1.4977 C   0  0  0  0  0  0  0  0  0  0  0  0
    1.6049   -1.0066    1.7576 O   0  0  0  0  0  0  0  0  0  0  0  0
   -0.4885   -0.5998    2.4723 N   0  0  0  0  0  0  0  0  0  0  0  0
   -1.4715   -0.6970    2.2418 H   0  0  0  0  0  0  0  0  0  0  0  0
   -0.1087   -0.4163    3.8669 C   0  0  0  0  0  0  0  0  0  0  0  0
    0.6594    0.3590    3.9558 H   0  0  0  0  0  0  0  0  0  0  0  0
   -0.9767   -0.1108    4.4585 H   0  0  0  0  0  0  0  0  0  0  0  0
    0.2838   -1.3506    4.2818 H   0  0  0  0  0  0  0  0  0  0  0  0
  1  2  1  0  0  0  0
  2  3  1  0  0  0  0
  2  4  1  0  0  0  0
  2  5  1  0  0  0  0
  5  6  2  0  0  0  0
  5  7  1  0  0  0  0
  7  8  1  0  0  0  0
  7  9  1  0  0  0  0
  9 10  1  0  0  0  0
  9 11  1  0  0  0  0
  9 26  1  0  0  0  0
 11 12  1  0  0  0  0
 11 13  1  0  0  0  0
 11 14  1  0  0  0  0
 14 15  1  0  0  0  0
 14 16  1  0  0  0  0
 14 17  1  0  0  0  0
 17 18  1  0  0  0  0
 17 19  1  0  0  0  0
 17 20  1  0  0  0  0
 20 21  1  0  0  0  0
 20 22  1  0  0  0  0
 20 23  1  0  0  0  0
 23 24  1  0  0  0  0
 23 25  1  0  0  0  0
 26 27  2  0  0  0  0
 26 28  1  0  0  0  0
 28 29  1  0  0  0  0
 28 30  1  0  0  0  0
 30 31  1  0  0  0  0
 30 32  1  0  0  0  0
 30 33  1  0  0  0  0
M  END
$$$$

  -OEChem-03222214063D

 33 32  0     1  0  0  0  0  0999 V2000
   -2.9209   -4.8439    0.4553 H   0  0  0  0  0  0  0  0  0  0  0  0
   -2.9127   -3.8204    0.0695 C   0  0  0  0  0  0  0  0  0  0  0  0
   -3.7164   -3.2573    0.5498 H   0  0  0  0  0  0  0  0  0  0  0  0
   -3.0898   -3.8512   -1.0082 H   0  0  0  0  0  0  0  0  0  0  0  0
   -1.5750   -3.1652    0.3576 C   0  0  0  0  0  0  0  0  0  0  0  0
   -0.7232   -3.7783    0.9745 O   0  0  0  0  0  0  0  0  0  0  0  0
   -1.3370   -1.8760   -0.0800 N   0  0  0  0  0  0  0  0  0  0  0  0
   -2.0555   -1.4543   -0.6604 H   0  0  0  0  0  0  0  0  0  0  0  0
   -0.0429   -1.1743    0.0452 C   0  0  1  0  0  0  0  0  0  0  0  0
    0.7268   -1.7922   -0.4311 H   0  0  0  0  0  0  0  0  0  0  0  0
   -0.1416    0.1484   -0.7728 C   0  0  0  0  0  0  0  0  0  0  0  0
    0.3623   -0.0236   -1.7300 H   0  0  0  0  0  0  0  0  0  0  0  0
   -1.1929    0.3352   -1.0146 H   0  0  0  0  0  0  0  0  0  0  0  0
    0.3927    1.4598   -0.1407 C   0  0  0  0  0  0  0  0  0  0  0  0
   -0.4303    2.1788   -0.0706 H   0  0  0  0  0  0  0  0  0  0  0  0
    0.7758    1.3216    0.8713 H   0  0  0  0  0  0  0  0  0  0  0  0
    1.5118    2.0603   -1.0004 C   0  0  0  0  0  0  0  0  0  0  0  0
    2.3192    1.3291   -1.1140 H   0  0  0  0  0  0  0  0  0  0  0  0
    1.1245    2.2974   -1.9968 H   0  0  0  0  0  0  0  0  0  0  0  0
    2.0697    3.3277   -0.3602 C   0  0  0  0  0  0  0  0  0  0  0  0
    1.2704    4.0647   -0.2249 H   0  0  0  0  0  0  0  0  0  0  0  0
    2.4902    3.0959    0.6249 H   0  0  0  0  0  0  0  0  0  0  0  0
    3.1097    3.8733   -1.2373 N   0  0  0  0  0  0  0  0  0  0  0  0
    3.5203    4.7181   -0.8398 H   0  0  0  0  0  0  0  0  0  0  0  0
    3.8297    3.1747   -1.4241 H   0  0  0  0  0  0  0  0  0  0  0  0
    0.4119   -1.0284    1.5179 C   0  0  0  0  0  0  0  0  0  0  0  0
    1.6040   -1.0622    1.7964 O   0  0  0  0  0  0  0  0  0  0  0  0
   -0.4934   -0.6274    2.4849 N   0  0  0  0  0  0  0  0  0  0  0  0
   -1.4744   -0.6971    2.2363 H   0  0  0  0  0  0  0  0  0  0  0  0
   -0.1322   -0.4700    3.8876 C   0  0  0  0  0  0  0  0  0  0  0  0
    0.6386    0.2997    3.9995 H   0  0  0  0  0  0  0  0  0  0  0  0
   -1.0068   -0.1704    4.4725 H   0  0  0  0  0  0  0  0  0  0  0  0
    0.2499   -1.4133    4.2921 H   0  0  0  0  0  0  0  0  0  0  0  0
  1  2  1  0  0  0  0
  2  3  1  0  0  0  0
  2  4  1  0  0  0  0
  2  5  1  0  0  0  0
  5  6  2  0  0  0  0
  5  7  1  0  0  0  0
  7  8  1  0  0  0  0
  7  9  1  0  0  0  0
  9 10  1  0  0  0  0
  9 11  1  0  0  0  0
  9 26  1  0  0  0  0
 11 12  1  0  0  0  0
 11 13  1  0  0  0  0
 11 14  1  0  0  0  0
 14 15  1  0  0  0  0
 14 16  1  0  0  0  0
 14 17  1  0  0  0  0
 17 18  1  0  0  0  0
 17 19  1  0  0  0  0
 17 20  1  0  0  0  0
 20 21  1  0  0  0  0
 20 22  1  0  0  0  0
 20 23  1  0  0  0  0
 23 24  1  0  0  0  0
 23 25  1  0  0  0  0
 26 27  2  0  0  0  0
 26 28  1  0  0  0  0
 28 29  1  0  0  0  0
 28 30  1  0  0  0  0
 30 31  1  0  0  0  0
 30 32  1  0  0  0  0
 30 33  1  0  0  0  0
M  END
$$$$

  -OEChem-03222214063D

 33 32  0     1  0  0  0  0  0999 V2000
   -2.9428   -4.8158    0.4644 H   0  0  0  0  0  0  0  0  0  0  0  0
   -2.9239   -3.7937    0.0753 C   0  0  0  0  0  0  0  0  0  0  0  0
   -3.7162   -3.2184    0.5601 H   0  0  0  0  0  0  0  0  0  0  0  0
   -3.1104   -3.8246   -1.0010 H   0  0  0  0  0  0  0  0  0  0  0  0
   -1.5748   -3.1567    0.3513 C   0  0  0  0  0  0  0  0  0  0  0  0
   -0.7254   -3.7814    0.9596 O   0  0  0  0  0  0  0  0  0  0  0  0
   -1.3242   -1.8710   -0.0888 N   0  0  0  0  0  0  0  0  0  0  0  0
   -2.0433   -1.4391   -0.6608 H   0  0  0  0  0  0  0  0  0  0  0  0
   -0.0243   -1.1804    0.0353 C   0  0  1  0  0  0  0  0  0  0  0  0
    0.7439   -1.7941   -0.4489 H   0  0  0  0  0  0  0  0  0  0  0  0
   -0.1357    0.1538   -0.7603 C   0  0  0  0  0  0  0  0  0  0  0  0
    0.3823   -0.0101   -1.7114 H   0  0  0  0  0  0  0  0  0  0  0  0
   -1.1831    0.3492   -1.0121 H   0  0  0  0  0  0  0  0  0  0  0  0
    0.4112    1.4465   -0.1060 C   0  0  0  0  0  0  0  0  0  0  0  0
   -0.4228    2.0422    0.2792 H   0  0  0  0  0  0  0  0  0  0  0  0
    1.0761    1.2313    0.7329 H   0  0  0  0  0  0  0  0  0  0  0  0
    1.2311    2.2596   -1.1148 C   0  0  0  0  0  0  0  0  0  0  0  0
    2.0684    1.6568   -1.4823 H   0  0  0  0  0  0  0  0  0  0  0  0
    0.6012    2.5246   -1.9706 H   0  0  0  0  0  0  0  0  0  0  0  0
    1.7723    3.5326   -0.4718 C   0  0  0  0  0  0  0  0  0  0  0  0
    0.9466    4.1391   -0.0834 H   0  0  0  0  0  0  0  0  0  0  0  0
    2.4317    3.2783    0.3658 H   0  0  0  0  0  0  0  0  0  0  0  0
    2.5118    4.2871   -1.4877 N   0  0  0  0  0  0  0  0  0  0  0  0
    2.8976    5.1474   -1.0987 H   0  0  0  0  0  0  0  0  0  0  0  0
    3.2480    3.7146   -1.9014 H   0  0  0  0  0  0  0  0  0  0  0  0
    0.4243   -1.0385    1.5111 C   0  0  0  0  0  0  0  0  0  0  0  0
    1.6120   -1.1071    1.8013 O   0  0  0  0  0  0  0  0  0  0  0  0
   -0.4817   -0.6287    2.4737 N   0  0  0  0  0  0  0  0  0  0  0  0
   -1.4616   -0.6729    2.2155 H   0  0  0  0  0  0  0  0  0  0  0  0
   -0.1297   -0.4825    3.8802 C   0  0  0  0  0  0  0  0  0  0  0  0
    0.6478    0.2789    4.0029 H   0  0  0  0  0  0  0  0  0  0  0  0
   -1.0060   -0.1771    4.4598 H   0  0  0  0  0  0  0  0  0  0  0  0
    0.2398   -1.4318    4.2826 H   0  0  0  0  0  0  0  0  0  0  0  0
  1  2  1  0  0  0  0
  2  3  1  0  0  0  0
  2  4  1  0  0  0  0
  2  5  1  0  0  0  0
  5  6  2  0  0  0  0
  5  7  1  0  0  0  0
  7  8  1  0  0  0  0
  7  9  1  0  0  0  0
  9 10  1  0  0  0  0
  9 11  1  0  0  0  0
  9 26  1  0  0  0  0
 11 12  1  0  0  0  0
 11 13  1  0  0  0  0
 11 14  1  0  0  0  0
 14 15  1  0  0  0  0
 14 16  1  0  0  0  0
 14 17  1  0  0  0  0
 17 18  1  0  0  0  0
 17 19  1  0  0  0  0
 17 20  1  0  0  0  0
 20 21  1  0  0  0  0
 20 22  1  0  0  0  0
 20 23  1  0  0  0  0
 23 24  1  0  0  0  0
 23 25  1  0  0  0  0
 26 27  2  0  0  0  0
 26 28  1  0  0  0  0
 28 29  1  0  0  0  0
 28 30  1  0  0  0  0
 30 31  1  0  0  0  0
 30 32  1  0  0  0  0
 30 33  1  0  0  0  0
M  END
$$$$

  -OEChem-03222214063D

 33 32  0     1  0  0  0  0  0999 V2000
   -2.9485   -4.8060    0.4838 H   0  0  0  0  0  0  0  0  0  0  0  0
   -2.9281   -3.7868    0.0872 C   0  0  0  0  0  0  0  0  0  0  0  0
   -3.7156   -3.2051    0.5722 H   0  0  0  0  0  0  0  0  0  0  0  0
   -3.1200   -3.8251   -0.9878 H   0  0  0  0  0  0  0  0  0  0  0  0
   -1.5761   -3.1516    0.3513 C   0  0  0  0  0  0  0  0  0  0  0  0
   -0.7243   -3.7740    0.9588 O   0  0  0  0  0  0  0  0  0  0  0  0
   -1.3259   -1.8692   -0.0984 N   0  0  0  0  0  0  0  0  0  0  0  0
   -2.0466   -1.4408   -0.6712 H   0  0  0  0  0  0  0  0  0  0  0  0
   -0.0249   -1.1796    0.0152 C   0  0  1  0  0  0  0  0  0  0  0  0
    0.7403   -1.7918   -0.4756 H   0  0  0  0  0  0  0  0  0  0  0  0
   -0.1472    0.1571   -0.7699 C   0  0  0  0  0  0  0  0  0  0  0  0
    0.3746    0.0068   -1.7209 H   0  0  0  0  0  0  0  0  0  0  0  0
   -1.1945    0.3591   -1.0161 H   0  0  0  0  0  0  0  0  0  0  0  0
    0.4133    1.4247   -0.0905 C   0  0  0  0  0  0  0  0  0  0  0  0
   -0.3523    1.8718    0.5521 H   0  0  0  0  0  0  0  0  0  0  0  0
    1.2792    1.1822    0.5317 H   0  0  0  0  0  0  0  0  0  0  0  0
    0.9012    2.4275   -1.1416 C   0  0  0  0  0  0  0  0  0  0  0  0
    1.6889    1.9724   -1.7510 H   0  0  0  0  0  0  0  0  0  0  0  0
    0.0715    2.6957   -1.8039 H   0  0  0  0  0  0  0  0  0  0  0  0
    1.4444    3.6882   -0.4764 C   0  0  0  0  0  0  0  0  0  0  0  0
    0.6705    4.1480    0.1484 H   0  0  0  0  0  0  0  0  0  0  0  0
    2.2957    3.4365    0.1662 H   0  0  0  0  0  0  0  0  0  0  0  0
    1.8598    4.6238   -1.5256 N   0  0  0  0  0  0  0  0  0  0  0  0
    2.2298    5.4856   -1.1244 H   0  0  0  0  0  0  0  0  0  0  0  0
    2.5423    4.1922   -2.1490 H   0  0  0  0  0  0  0  0  0  0  0  0
    0.4348   -1.0262    1.4870 C   0  0  0  0  0  0  0  0  0  0  0  0
    1.6237   -1.1022    1.7707 O   0  0  0  0  0  0  0  0  0  0  0  0
   -0.4632   -0.6077    2.4530 N   0  0  0  0  0  0  0  0  0  0  0  0
   -1.4446   -0.6484    2.2001 H   0  0  0  0  0  0  0  0  0  0  0  0
   -0.1031   -0.4590    3.8570 C   0  0  0  0  0  0  0  0  0  0  0  0
    0.6818    0.2956    3.9736 H   0  0  0  0  0  0  0  0  0  0  0  0
   -0.9739   -0.1432    4.4390 H   0  0  0  0  0  0  0  0  0  0  0  0
    0.2593   -1.4100    4.2613 H   0  0  0  0  0  0  0  0  0  0  0  0
  1  2  1  0  0  0  0
  2  3  1  0  0  0  0
  2  4  1  0  0  0  0
  2  5  1  0  0  0  0
  5  6  2  0  0  0  0
  5  7  1  0  0  0  0
  7  8  1  0  0  0  0
  7  9  1  0  0  0  0
  9 10  1  0  0  0  0
  9 11  1  0  0  0  0
  9 26  1  0  0  0  0
 11 12  1  0  0  0  0
 11 13  1  0  0  0  0
 11 14  1  0  0  0  0
 14 15  1  0  0  0  0
 14 16  1  0  0  0  0
 14 17  1  0  0  0  0
 17 18  1  0  0  0  0
 17 19  1  0  0  0  0
 17 20  1  0  0  0  0
 20 21  1  0  0  0  0
 20 22  1  0  0  0  0
 20 23  1  0  0  0  0
 23 24  1  0  0  0  0
 23 25  1  0  0  0  0
 26 27  2  0  0  0  0
 26 28  1  0  0  0  0
 28 29  1  0  0  0  0
 28 30  1  0  0  0  0
 30 31  1  0  0  0  0
 30 32  1  0  0  0  0
 30 33  1  0  0  0  0
M  END
$$$$

  -OEChem-03222214063D

 33 32  0     1  0  0  0  0  0999 V2000
   -2.9403   -4.8156    0.5020 H   0  0  0  0  0  0  0  0  0  0  0  0
   -2.9279   -3.7986    0.0993 C   0  0  0  0  0  0  0  0  0  0  0  0
   -3.7142   -3.2180    0.5877 H   0  0  0  0  0  0  0  0  0  0  0  0
   -3.1287   -3.8435   -0.9738 H   0  0  0  0  0  0  0  0  0  0  0  0
   -1.5762   -3.1559    0.3480 C   0  0  0  0  0  0  0  0  0  0  0  0
   -0.7139   -3.7729    0.9462 O   0  0  0  0  0  0  0  0  0  0  0  0
   -1.3378   -1.8720   -0.1038 N   0  0  0  0  0  0  0  0  0  0  0  0
   -2.0690   -1.4442   -0.6638 H   0  0  0  0  0  0  0  0  0  0  0  0
   -0.0408   -1.1738   -0.0002 C   0  0  1  0  0  0  0  0  0  0  0  0
    0.7224   -1.7855   -0.4952 H   0  0  0  0  0  0  0  0  0  0  0  0
   -0.1639    0.1608   -0.7866 C   0  0  0  0  0  0  0  0  0  0  0  0
    0.3537    0.0238   -1.7419 H   0  0  0  0  0  0  0  0  0  0  0  0
   -1.2141    0.3657   -1.0187 H   0  0  0  0  0  0  0  0  0  0  0  0
    0.4038    1.4107   -0.0897 C   0  0  0  0  0  0  0  0  0  0  0  0
   -0.2531    1.7104    0.7335 H   0  0  0  0  0  0  0  0  0  0  0  0
    1.3942    1.1919    0.3234 H   0  0  0  0  0  0  0  0  0  0  0  0
    0.5569    2.5609   -1.0904 C   0  0  0  0  0  0  0  0  0  0  0  0
    1.2329    2.2630   -1.8984 H   0  0  0  0  0  0  0  0  0  0  0  0
   -0.4172    2.7945   -1.5326 H   0  0  0  0  0  0  0  0  0  0  0  0
    1.1101    3.8043   -0.4011 C   0  0  0  0  0  0  0  0  0  0  0  0
    0.4468    4.1078    0.4164 H   0  0  0  0  0  0  0  0  0  0  0  0
    2.0973    3.5907    0.0237 H   0  0  0  0  0  0  0  0  0  0  0  0
    1.2074    4.8804   -1.3916 N   0  0  0  0  0  0  0  0  0  0  0  0
    1.5679    5.7366   -0.9701 H   0  0  0  0  0  0  0  0  0  0  0  0
    1.7842    4.5957   -2.1832 H   0  0  0  0  0  0  0  0  0  0  0  0
    0.4357   -1.0130    1.4656 C   0  0  0  0  0  0  0  0  0  0  0  0
    1.6297   -1.0653    1.7315 O   0  0  0  0  0  0  0  0  0  0  0  0
   -0.4532   -0.5986    2.4420 N   0  0  0  0  0  0  0  0  0  0  0  0
   -1.4379   -0.6544    2.2052 H   0  0  0  0  0  0  0  0  0  0  0  0
   -0.0728   -0.4301    3.8384 C   0  0  0  0  0  0  0  0  0  0  0  0
    0.7124    0.3273    3.9325 H   0  0  0  0  0  0  0  0  0  0  0  0
   -0.9352   -0.1074    4.4292 H   0  0  0  0  0  0  0  0  0  0  0  0
    0.2974   -1.3749    4.2501 H   0  0  0  0  0  0  0  0  0  0  0  0
  1  2  1  0  0  0  0
  2  3  1  0  0  0  0
  2  4  1  0  0  0  0
  2  5  1  0  0  0  0
  5  6  2  0  0  0  0
  5  7  1  0  0  0  0
  7  8  1  0  0  0  0
  7  9  1  0  0  0  0
  9 10  1  0  0  0  0
  9 11  1  0  0  0  0
  9 26  1  0  0  0  0
 11 12  1  0  0  0  0
 11 13  1  0  0  0  0
 11 14  1  0  0  0  0
 14 15  1  0  0  0  0
 14 16  1  0  0  0  0
 14 17  1  0  0  0  0
 17 18  1  0  0  0  0
 17 19  1  0  0  0  0
 17 20  1  0  0  0  0
 20 21  1  0  0  0  0
 20 22  1  0  0  0  0
 20 23  1  0  0  0  0
 23 24  1  0  0  0  0
 23 25  1  0  0  0  0
 26 27  2  0  0  0  0
 26 28  1  0  0  0  0
 28 29  1  0  0  0  0
 28 30  1  0  0  0  0
 30 31  1  0  0  0  0
 30 32  1  0  0  0  0
 30 33  1  0  0  0  0
M  END
$$$$

  -OEChem-03222214063D

 33 32  0     1  0  0  0  0  0999 V2000
   -2.9521   -4.8057    0.5275 H   0  0  0  0  0  0  0  0  0  0  0  0
   -2.9363   -3.7928    0.1150 C   0  0  0  0  0  0  0  0  0  0  0  0
   -3.7168   -3.2034    0.6016 H   0  0  0  0  0  0  0  0  0  0  0  0
   -3.1428   -3.8465   -0.9565 H   0  0  0  0  0  0  0  0  0  0  0  0
   -1.5803   -3.1545    0.3520 C   0  0  0  0  0  0  0  0  0  0  0  0
   -0.7216   -3.7664    0.9606 O   0  0  0  0  0  0  0  0  0  0  0  0
   -1.3348   -1.8788   -0.1188 N   0  0  0  0  0  0  0  0  0  0  0  0
   -2.0638   -1.4537   -0.6836 H   0  0  0  0  0  0  0  0  0  0  0  0
   -0.0350   -1.1857   -0.0224 C   0  0  1  0  0  0  0  0  0  0  0  0
    0.7298   -1.7990   -0.5118 H   0  0  0  0  0  0  0  0  0  0  0  0
   -0.1600    0.1415   -0.8128 C   0  0  0  0  0  0  0  0  0  0  0  0
    0.0805   -0.0568   -1.8625 H   0  0  0  0  0  0  0  0  0  0  0  0
   -1.1998    0.4829   -0.7736 H   0  0  0  0  0  0  0  0  0  0  0  0
    0.7161    1.2980   -0.3006 C   0  0  0  0  0  0  0  0  0  0  0  0
    0.4586    1.5411    0.7355 H   0  0  0  0  0  0  0  0  0  0  0  0
    1.7704    1.0008   -0.3293 H   0  0  0  0  0  0  0  0  0  0  0  0
    0.5051    2.5481   -1.1610 C   0  0  0  0  0  0  0  0  0  0  0  0
    0.7750    2.3299   -2.1992 H   0  0  0  0  0  0  0  0  0  0  0  0
   -0.5505    2.8381   -1.1387 H   0  0  0  0  0  0  0  0  0  0  0  0
    1.3548    3.7068   -0.6482 C   0  0  0  0  0  0  0  0  0  0  0  0
    1.0951    3.9318    0.3924 H   0  0  0  0  0  0  0  0  0  0  0  0
    2.4168    3.4388   -0.6832 H   0  0  0  0  0  0  0  0  0  0  0  0
    1.0988    4.8788   -1.4913 N   0  0  0  0  0  0  0  0  0  0  0  0
    1.6305    5.6875   -1.1686 H   0  0  0  0  0  0  0  0  0  0  0  0
    1.3038    4.6768   -2.4697 H   0  0  0  0  0  0  0  0  0  0  0  0
    0.4420   -1.0032    1.4399 C   0  0  0  0  0  0  0  0  0  0  0  0
    1.6374   -1.0437    1.7028 O   0  0  0  0  0  0  0  0  0  0  0  0
   -0.4447   -0.5685    2.4095 N   0  0  0  0  0  0  0  0  0  0  0  0
   -1.4301   -0.6197    2.1746 H   0  0  0  0  0  0  0  0  0  0  0  0
   -0.0614   -0.3700    3.8011 C   0  0  0  0  0  0  0  0  0  0  0  0
    0.7274    0.3857    3.8768 H   0  0  0  0  0  0  0  0  0  0  0  0
   -0.9212   -0.0300    4.3859 H   0  0  0  0  0  0  0  0  0  0  0  0
    0.3050   -1.3072    4.2331 H   0  0  0  0  0  0  0  0  0  0  0  0
  1  2  1  0  0  0  0
  2  3  1  0  0  0  0
  2  4  1  0  0  0  0
  2  5  1  0  0  0  0
  5  6  2  0  0  0  0
  5  7  1  0  0  0  0
  7  8  1  0  0  0  0
  7  9  1  0  0  0  0
  9 10  1  0  0  0  0
  9 11  1  0  0  0  0
  9 26  1  0  0  0  0
 11 12  1  0  0  0  0
 11 13  1  0  0  0  0
 11 14  1  0  0  0  0
 14 15  1  0  0  0  0
 14 16  1  0  0  0  0
 14 17  1  0  0  0  0
 17 18  1  0  0  0  0
 17 19  1  0  0  0  0
 17 20  1  0  0  0  0
 20 21  1  0  0  0  0
 20 22  1  0  0  0  0
 20 23  1  0  0  0  0
 23 24  1  0  0  0  0
 23 25  1  0  0  0  0
 26 27  2  0  0  0  0
 26 28  1  0  0  0  0
 28 29  1  0  0  0  0
 28 30  1  0  0  0  0
 30 31  1  0  0  0  0
 30 32  1  0  0  0  0
 30 33  1  0  0  0  0
M  END
$$$$

  -OEChem-03222214063D

 33 32  0     1  0  0  0  0  0999 V2000
   -2.9717   -4.7959    0.5072 H   0  0  0  0  0  0  0  0  0  0  0  0
   -2.9478   -3.7806    0.1006 C   0  0  0  0  0  0  0  0  0  0  0  0
   -3.7292   -3.1901    0.5849 H   0  0  0  0  0  0  0  0  0  0  0  0
   -3.1468   -3.8278   -0.9728 H   0  0  0  0  0  0  0  0  0  0  0  0
   -1.5902   -3.1505    0.3493 C   0  0  0  0  0  0  0  0  0  0  0  0
   -0.7337   -3.7756    0.9475 O   0  0  0  0  0  0  0  0  0  0  0  0
   -1.3389   -1.8700   -0.1047 N   0  0  0  0  0  0  0  0  0  0  0  0
   -2.0661   -1.4354   -0.6648 H   0  0  0  0  0  0  0  0  0  0  0  0
   -0.0339   -1.1867   -0.0053 C   0  0  1  0  0  0  0  0  0  0  0  0
    0.7245   -1.8026   -0.5019 H   0  0  0  0  0  0  0  0  0  0  0  0
   -0.1485    0.1455   -0.7925 C   0  0  0  0  0  0  0  0  0  0  0  0
    0.0712   -0.0449   -1.8479 H   0  0  0  0  0  0  0  0  0  0  0  0
   -1.1886    0.4828   -0.7334 H   0  0  0  0  0  0  0  0  0  0  0  0
    0.7277    1.3125   -0.2953 C   0  0  0  0  0  0  0  0  0  0  0  0
    0.6614    1.4174    0.7913 H   0  0  0  0  0  0  0  0  0  0  0  0
    1.7748    1.1199   -0.5530 H   0  0  0  0  0  0  0  0  0  0  0  0
    0.2551    2.6359   -0.9083 C   0  0  0  0  0  0  0  0  0  0  0  0
    0.3175    2.5772   -1.9997 H   0  0  0  0  0  0  0  0  0  0  0  0
   -0.7902    2.8177   -0.6380 H   0  0  0  0  0  0  0  0  0  0  0  0
    1.1084    3.7989   -0.4109 C   0  0  0  0  0  0  0  0  0  0  0  0
    1.0466    3.8698    0.6809 H   0  0  0  0  0  0  0  0  0  0  0  0
    2.1579    3.6386   -0.6820 H   0  0  0  0  0  0  0  0  0  0  0  0
    0.6104    5.0358   -1.0209 N   0  0  0  0  0  0  0  0  0  0  0  0
    1.1385    5.8454   -0.6946 H   0  0  0  0  0  0  0  0  0  0  0  0
    0.6306    4.9754   -2.0389 H   0  0  0  0  0  0  0  0  0  0  0  0
    0.4486   -1.0298    1.4577 C   0  0  0  0  0  0  0  0  0  0  0  0
    1.6451   -1.0744    1.7146 O   0  0  0  0  0  0  0  0  0  0  0  0
   -0.4337   -0.6042    2.4351 N   0  0  0  0  0  0  0  0  0  0  0  0
   -1.4199   -0.6534    2.2029 H   0  0  0  0  0  0  0  0  0  0  0  0
   -0.0454   -0.4146    3.8265 C   0  0  0  0  0  0  0  0  0  0  0  0
    0.7396    0.3447    3.9052 H   0  0  0  0  0  0  0  0  0  0  0  0
   -0.9049   -0.0840    4.4169 H   0  0  0  0  0  0  0  0  0  0  0  0
    0.3274   -1.3529    4.2504 H   0  0  0  0  0  0  0  0  0  0  0  0
  1  2  1  0  0  0  0
  2  3  1  0  0  0  0
  2  4  1  0  0  0  0
  2  5  1  0  0  0  0
  5  6  2  0  0  0  0
  5  7  1  0  0  0  0
  7  8  1  0  0  0  0
  7  9  1  0  0  0  0
  9 10  1  0  0  0  0
  9 11  1  0  0  0  0
  9 26  1  0  0  0  0
 11 12  1  0  0  0  0
 11 13  1  0  0  0  0
 11 14  1  0  0  0  0
 14 15  1  0  0  0  0
 14 16  1  0  0  0  0
 14 17  1  0  0  0  0
 17 18  1  0  0  0  0
 17 19  1  0  0  0  0
 17 20  1  0  0  0  0
 20 21  1  0  0  0  0
 20 22  1  0  0  0  0
 20 23  1  0  0  0  0
 23 24  1  0  0  0  0
 23 25  1  0  0  0  0
 26 27  2  0  0  0  0
 26 28  1  0  0  0  0
 28 29  1  0  0  0  0
 28 30  1  0  0  0  0
 30 31  1  0  0  0  0
 30 32  1  0  0  0  0
 30 33  1  0  0  0  0
M  END
$$$$

  -OEChem-03222214063D

 33 32  0     1  0  0  0  0  0999 V2000
   -2.9873   -4.7870    0.5089 H   0  0  0  0  0  0  0  0  0  0  0  0
   -2.9563   -3.7719    0.1026 C   0  0  0  0  0  0  0  0  0  0  0  0
   -3.7310   -3.1750    0.5898 H   0  0  0  0  0  0  0  0  0  0  0  0
   -3.1595   -3.8170   -0.9699 H   0  0  0  0  0  0  0  0  0  0  0  0
   -1.5921   -3.1537    0.3464 C   0  0  0  0  0  0  0  0  0  0  0  0
   -0.7352   -3.7922    0.9299 O   0  0  0  0  0  0  0  0  0  0  0  0
   -1.3342   -1.8707   -0.0979 N   0  0  0  0  0  0  0  0  0  0  0  0
   -2.0630   -1.4237   -0.6457 H   0  0  0  0  0  0  0  0  0  0  0  0
   -0.0246   -1.1950    0.0033 C   0  0  1  0  0  0  0  0  0  0  0  0
    0.7307   -1.8099   -0.4992 H   0  0  0  0  0  0  0  0  0  0  0  0
   -0.1399    0.1445   -0.7766 C   0  0  0  0  0  0  0  0  0  0  0  0
    0.0648   -0.0404   -1.8359 H   0  0  0  0  0  0  0  0  0  0  0  0
   -1.1825    0.4716   -0.7061 H   0  0  0  0  0  0  0  0  0  0  0  0
    0.7330    1.3268   -0.2957 C   0  0  0  0  0  0  0  0  0  0  0  0
    0.9013    1.2963    0.7828 H   0  0  0  0  0  0  0  0  0  0  0  0
    1.7124    1.2735   -0.7825 H   0  0  0  0  0  0  0  0  0  0  0  0
    0.0498    2.6672   -0.5946 C   0  0  0  0  0  0  0  0  0  0  0  0
   -0.1309    2.7544   -1.6709 H   0  0  0  0  0  0  0  0  0  0  0  0
   -0.9171    2.7143   -0.0824 H   0  0  0  0  0  0  0  0  0  0  0  0
    0.9181    3.8315   -0.1265 C   0  0  0  0  0  0  0  0  0  0  0  0
    1.0893    3.7610    0.9536 H   0  0  0  0  0  0  0  0  0  0  0  0
    1.8922    3.7998   -0.6272 H   0  0  0  0  0  0  0  0  0  0  0  0
    0.2268    5.0855   -0.4418 N   0  0  0  0  0  0  0  0  0  0  0  0
    0.7605    5.8916   -0.1159 H   0  0  0  0  0  0  0  0  0  0  0  0
    0.0356    5.1567   -1.4410 H   0  0  0  0  0  0  0  0  0  0  0  0
    0.4562   -1.0561    1.4684 C   0  0  0  0  0  0  0  0  0  0  0  0
    1.6505   -1.1271    1.7301 O   0  0  0  0  0  0  0  0  0  0  0  0
   -0.4245   -0.6351    2.4489 N   0  0  0  0  0  0  0  0  0  0  0  0
   -1.4097   -0.6481    2.2084 H   0  0  0  0  0  0  0  0  0  0  0  0
   -0.0393   -0.4628    3.8435 C   0  0  0  0  0  0  0  0  0  0  0  0
    0.7510    0.2900    3.9328 H   0  0  0  0  0  0  0  0  0  0  0  0
   -0.8985   -0.1321    4.4347 H   0  0  0  0  0  0  0  0  0  0  0  0
    0.3255   -1.4082    4.2587 H   0  0  0  0  0  0  0  0  0  0  0  0
  1  2  1  0  0  0  0
  2  3  1  0  0  0  0
  2  4  1  0  0  0  0
  2  5  1  0  0  0  0
  5  6  2  0  0  0  0
  5  7  1  0  0  0  0
  7  8  1  0  0  0  0
  7  9  1  0  0  0  0
  9 10  1  0  0  0  0
  9 11  1  0  0  0  0
  9 26  1  0  0  0  0
 11 12  1  0  0  0  0
 11 13  1  0  0  0  0
 11 14  1  0  0  0  0
 14 15  1  0  0  0  0
 14 16  1  0  0  0  0
 14 17  1  0  0  0  0
 17 18  1  0  0  0  0
 17 19  1  0  0  0  0
 17 20  1  0  0  0  0
 20 21  1  0  0  0  0
 20 22  1  0  0  0  0
 20 23  1  0  0  0  0
 23 24  1  0  0  0  0
 23 25  1  0  0  0  0
 26 27  2  0  0  0  0
 26 28  1  0  0  0  0
 28 29  1  0  0  0  0
 28 30  1  0  0  0  0
 30 31  1  0  0  0  0
 30 32  1  0  0  0  0
 30 33  1  0  0  0  0
M  END
$$$$

  -OEChem-03222214063D

 33 32  0     1  0  0  0  0  0999 V2000
   -3.0084   -4.7703    0.5363 H   0  0  0  0  0  0  0  0  0  0  0  0
   -2.9681   -3.7577    0.1244 C   0  0  0  0  0  0  0  0  0  0  0  0
   -3.7267   -3.1469    0.6196 H   0  0  0  0  0  0  0  0  0  0  0  0
   -3.1871   -3.8053   -0.9450 H   0  0  0  0  0  0  0  0  0  0  0  0
   -1.5916   -3.1589    0.3457 C   0  0  0  0  0  0  0  0  0  0  0  0
   -0.7327   -3.8118    0.9099 O   0  0  0  0  0  0  0  0  0  0  0  0
   -1.3237   -1.8793   -0.1021 N   0  0  0  0  0  0  0  0  0  0  0  0
   -2.0595   -1.4168   -0.6271 H   0  0  0  0  0  0  0  0  0  0  0  0
   -0.0096   -1.2116   -0.0034 C   0  0  1  0  0  0  0  0  0  0  0  0
    0.7441   -1.8272   -0.5074 H   0  0  0  0  0  0  0  0  0  0  0  0
   -0.1319    0.1303   -0.7792 C   0  0  0  0  0  0  0  0  0  0  0  0
    0.0753   -0.0598   -1.8373 H   0  0  0  0  0  0  0  0  0  0  0  0
   -1.1773    0.4506   -0.7189 H   0  0  0  0  0  0  0  0  0  0  0  0
    0.7405    1.3231   -0.3122 C   0  0  0  0  0  0  0  0  0  0  0  0
    1.1739    1.1642    0.6763 H   0  0  0  0  0  0  0  0  0  0  0  0
    1.5781    1.4408   -1.0076 H   0  0  0  0  0  0  0  0  0  0  0  0
   -0.0788    2.6191   -0.2560 C   0  0  0  0  0  0  0  0  0  0  0  0
   -0.4841    2.8410   -1.2486 H   0  0  0  0  0  0  0  0  0  0  0  0
   -0.9191    2.4950    0.4351 H   0  0  0  0  0  0  0  0  0  0  0  0
    0.7838    3.7853    0.2169 C   0  0  0  0  0  0  0  0  0  0  0  0
    1.1762    3.5783    1.2191 H   0  0  0  0  0  0  0  0  0  0  0  0
    1.6349    3.9236   -0.4591 H   0  0  0  0  0  0  0  0  0  0  0  0
   -0.0439    4.9952    0.2436 N   0  0  0  0  0  0  0  0  0  0  0  0
    0.4851    5.7949    0.5921 H   0  0  0  0  0  0  0  0  0  0  0  0
   -0.4345    5.1920   -0.6776 H   0  0  0  0  0  0  0  0  0  0  0  0
    0.4649   -1.0749    1.4644 C   0  0  0  0  0  0  0  0  0  0  0  0
    1.6545   -1.1779    1.7364 O   0  0  0  0  0  0  0  0  0  0  0  0
   -0.4153   -0.6467    2.4422 N   0  0  0  0  0  0  0  0  0  0  0  0
   -1.3984   -0.6282    2.1938 H   0  0  0  0  0  0  0  0  0  0  0  0
   -0.0328   -0.4679    3.8367 C   0  0  0  0  0  0  0  0  0  0  0  0
    0.7595    0.2831    3.9230 H   0  0  0  0  0  0  0  0  0  0  0  0
   -0.8922   -0.1315    4.4243 H   0  0  0  0  0  0  0  0  0  0  0  0
    0.3283   -1.4119    4.2581 H   0  0  0  0  0  0  0  0  0  0  0  0
  1  2  1  0  0  0  0
  2  3  1  0  0  0  0
  2  4  1  0  0  0  0
  2  5  1  0  0  0  0
  5  6  2  0  0  0  0
  5  7  1  0  0  0  0
  7  8  1  0  0  0  0
  7  9  1  0  0  0  0
  9 10  1  0  0  0  0
  9 11  1  0  0  0  0
  9 26  1  0  0  0  0
 11 12  1  0  0  0  0
 11 13  1  0  0  0  0
 11 14  1  0  0  0  0
 14 15  1  0  0  0  0
 14 16  1  0  0  0  0
 14 17  1  0  0  0  0
 17 18  1  0  0  0  0
 17 19  1  0  0  0  0
 17 20  1  0  0  0  0
 20 21  1  0  0  0  0
 20 22  1  0  0  0  0
 20 23  1  0  0  0  0
 23 24  1  0  0  0  0
 23 25  1  0  0  0  0
 26 27  2  0  0  0  0
 26 28  1  0  0  0  0
 28 29  1  0  0  0  0
 28 30  1  0  0  0  0
 30 31  1  0  0  0  0
 30 32  1  0  0  0  0
 30 33  1  0  0  0  0
M  END
$$$$

  -OEChem-03222214063D

 33 32  0     1  0  0  0  0  0999 V2000
   -2.9970   -4.7723    0.5885 H   0  0  0  0  0  0  0  0  0  0  0  0
   -2.9599   -3.7651    0.1632 C   0  0  0  0  0  0  0  0  0  0  0  0
   -3.7095   -3.1458    0.6615 H   0  0  0  0  0  0  0  0  0  0  0  0
   -3.1942   -3.8247   -0.9024 H   0  0  0  0  0  0  0  0  0  0  0  0
   -1.5789   -3.1677    0.3581 C   0  0  0  0  0  0  0  0  0  0  0  0
   -0.7142   -3.8154    0.9191 O   0  0  0  0  0  0  0  0  0  0  0  0
   -1.3140   -1.8965   -0.1143 N   0  0  0  0  0  0  0  0  0  0  0  0
   -2.0562   -1.4397   -0.6351 H   0  0  0  0  0  0  0  0  0  0  0  0
   -0.0010   -1.2254   -0.0312 C   0  0  1  0  0  0  0  0  0  0  0  0
    0.7557   -1.8377   -0.5340 H   0  0  0  0  0  0  0  0  0  0  0  0
   -0.1469    0.1146   -0.8043 C   0  0  0  0  0  0  0  0  0  0  0  0
    0.0698   -0.0834   -1.8590 H   0  0  0  0  0  0  0  0  0  0  0  0
   -1.1944    0.4315   -0.7578 H   0  0  0  0  0  0  0  0  0  0  0  0
    0.7286    1.3060   -0.3423 C   0  0  0  0  0  0  0  0  0  0  0  0
    1.4183    1.0384    0.4604 H   0  0  0  0  0  0  0  0  0  0  0  0
    1.3520    1.6203   -1.1860 H   0  0  0  0  0  0  0  0  0  0  0  0
   -0.1361    2.4950    0.0951 C   0  0  0  0  0  0  0  0  0  0  0  0
   -0.7373    2.8440   -0.7508 H   0  0  0  0  0  0  0  0  0  0  0  0
   -0.8183    2.1787    0.8911 H   0  0  0  0  0  0  0  0  0  0  0  0
    0.7315    3.6372    0.6138 C   0  0  0  0  0  0  0  0  0  0  0  0
    1.3058    3.3035    1.4858 H   0  0  0  0  0  0  0  0  0  0  0  0
    1.4403    3.9545   -0.1592 H   0  0  0  0  0  0  0  0  0  0  0  0
   -0.1444    4.7529    0.9866 N   0  0  0  0  0  0  0  0  0  0  0  0
    0.3926    5.5270    1.3783 H   0  0  0  0  0  0  0  0  0  0  0  0
   -0.7010    5.0634    0.1906 H   0  0  0  0  0  0  0  0  0  0  0  0
    0.4688   -1.0644    1.4367 C   0  0  0  0  0  0  0  0  0  0  0  0
    1.6537   -1.1867    1.7216 O   0  0  0  0  0  0  0  0  0  0  0  0
   -0.4154   -0.6209    2.4040 N   0  0  0  0  0  0  0  0  0  0  0  0
   -1.3941   -0.5716    2.1430 H   0  0  0  0  0  0  0  0  0  0  0  0
   -0.0389   -0.4059    3.7947 C   0  0  0  0  0  0  0  0  0  0  0  0
    0.7483    0.3519    3.8655 H   0  0  0  0  0  0  0  0  0  0  0  0
   -0.9023   -0.0608    4.3713 H   0  0  0  0  0  0  0  0  0  0  0  0
    0.3264   -1.3373    4.2399 H   0  0  0  0  0  0  0  0  0  0  0  0
  1  2  1  0  0  0  0
  2  3  1  0  0  0  0
  2  4  1  0  0  0  0
  2  5  1  0  0  0  0
  5  6  2  0  0  0  0
  5  7  1  0  0  0  0
  7  8  1  0  0  0  0
  7  9  1  0  0  0  0
  9 10  1  0  0  0  0
  9 11  1  0  0  0  0
  9 26  1  0  0  0  0
 11 12  1  0  0  0  0
 11 13  1  0  0  0  0
 11 14  1  0  0  0  0
 14 15  1  0  0  0  0
 14 16  1  0  0  0  0
 14 17  1  0  0  0  0
 17 18  1  0  0  0  0
 17 19  1  0  0  0  0
 17 20  1  0  0  0  0
 20 21  1  0  0  0  0
 20 22  1  0  0  0  0
 20 23  1  0  0  0  0
 23 24  1  0  0  0  0
 23 25  1  0  0  0  0
 26 27  2  0  0  0  0
 26 28  1  0  0  0  0
 28 29  1  0  0  0  0
 28 30  1  0  0  0  0
 30 31  1  0  0  0  0
 30 32  1  0  0  0  0
 30 33  1  0  0  0  0
M  END
$$$$

  -OEChem-03222214063D

 33 32  0     1  0  0  0  0  0999 V2000
   -2.9659   -4.7938    0.6150 H   0  0  0  0  0  0  0  0  0  0  0  0
   -2.9452   -3.7862    0.1898 C   0  0  0  0  0  0  0  0  0  0  0  0
   -3.6867   -3.1719    0.7062 H   0  0  0  0  0  0  0  0  0  0  0  0
   -3.2045   -3.8468   -0.8698 H   0  0  0  0  0  0  0  0  0  0  0  0
   -1.5638   -3.1804    0.3531 C   0  0  0  0  0  0  0  0  0  0  0  0
   -0.6831   -3.8219    0.8960 O   0  0  0  0  0  0  0  0  0  0  0  0
   -1.3171   -1.9072   -0.1236 N   0  0  0  0  0  0  0  0  0  0  0  0
   -2.0751   -1.4496   -0.6202 H   0  0  0  0  0  0  0  0  0  0  0  0
   -0.0143   -1.2180   -0.0420 C   0  0  1  0  0  0  0  0  0  0  0  0
    0.7480   -1.8309   -0.5360 H   0  0  0  0  0  0  0  0  0  0  0  0
   -0.1614    0.1078   -0.8370 C   0  0  0  0  0  0  0  0  0  0  0  0
    0.0948   -0.1099   -1.8789 H   0  0  0  0  0  0  0  0  0  0  0  0
   -1.2094    0.4255   -0.8328 H   0  0  0  0  0  0  0  0  0  0  0  0
    0.7057    1.2969   -0.3679 C   0  0  0  0  0  0  0  0  0  0  0  0
    1.5573    0.9674    0.2328 H   0  0  0  0  0  0  0  0  0  0  0  0
    1.1269    1.7852   -1.2529 H   0  0  0  0  0  0  0  0  0  0  0  0
   -0.1313    2.3363    0.3901 C   0  0  0  0  0  0  0  0  0  0  0  0
   -0.8597    2.7884   -0.2907 H   0  0  0  0  0  0  0  0  0  0  0  0
   -0.6838    1.8516    1.2003 H   0  0  0  0  0  0  0  0  0  0  0  0
    0.7591    3.4220    0.9846 C   0  0  0  0  0  0  0  0  0  0  0  0
    1.4653    2.9769    1.6949 H   0  0  0  0  0  0  0  0  0  0  0  0
    1.3358    3.9131    0.1931 H   0  0  0  0  0  0  0  0  0  0  0  0
   -0.0934    4.3987    1.6705 N   0  0  0  0  0  0  0  0  0  0  0  0
    0.4668    5.1149    2.1333 H   0  0  0  0  0  0  0  0  0  0  0  0
   -0.7607    4.8205    1.0252 H   0  0  0  0  0  0  0  0  0  0  0  0
    0.4614   -1.0406    1.4231 C   0  0  0  0  0  0  0  0  0  0  0  0
    1.6497   -1.1463    1.7005 O   0  0  0  0  0  0  0  0  0  0  0  0
   -0.4191   -0.6044    2.3971 N   0  0  0  0  0  0  0  0  0  0  0  0
   -1.3970   -0.5355    2.1382 H   0  0  0  0  0  0  0  0  0  0  0  0
   -0.0283   -0.3548    3.7781 C   0  0  0  0  0  0  0  0  0  0  0  0
    0.7438    0.4205    3.8229 H   0  0  0  0  0  0  0  0  0  0  0  0
   -0.8907   -0.0168    4.3602 H   0  0  0  0  0  0  0  0  0  0  0  0
    0.3627   -1.2696    4.2357 H   0  0  0  0  0  0  0  0  0  0  0  0
  1  2  1  0  0  0  0
  2  3  1  0  0  0  0
  2  4  1  0  0  0  0
  2  5  1  0  0  0  0
  5  6  2  0  0  0  0
  5  7  1  0  0  0  0
  7  8  1  0  0  0  0
  7  9  1  0  0  0  0
  9 10  1  0  0  0  0
  9 11  1  0  0  0  0
  9 26  1  0  0  0  0
 11 12  1  0  0  0  0
 11 13  1  0  0  0  0
 11 14  1  0  0  0  0
 14 15  1  0  0  0  0
 14 16  1  0  0  0  0
 14 17  1  0  0  0  0
 17 18  1  0  0  0  0
 17 19  1  0  0  0  0
 17 20  1  0  0  0  0
 20 21  1  0  0  0  0
 20 22  1  0  0  0  0
 20 23  1  0  0  0  0
 23 24  1  0  0  0  0
 23 25  1  0  0  0  0
 26 27  2  0  0  0  0
 26 28  1  0  0  0  0
 28 29  1  0  0  0  0
 28 30  1  0  0  0  0
 30 31  1  0  0  0  0
 30 32  1  0  0  0  0
 30 33  1  0  0  0  0
M  END
$$$$

  -OEChem-03222214063D

 33 32  0     1  0  0  0  0  0999 V2000
   -2.9420   -4.8496    0.5336 H   0  0  0  0  0  0  0  0  0  0  0  0
   -2.9400   -3.8286    0.1411 C   0  0  0  0  0  0  0  0  0  0  0  0
   -3.6906   -3.2446    0.6788 H   0  0  0  0  0  0  0  0  0  0  0  0
   -3.2006   -3.8593   -0.9195 H   0  0  0  0  0  0  0  0  0  0  0  0
   -1.5694   -3.2035    0.3206 C   0  0  0  0  0  0  0  0  0  0  0  0
   -0.6721   -3.8488    0.8311 O   0  0  0  0  0  0  0  0  0  0  0  0
   -1.3509   -1.9065   -0.1021 N   0  0  0  0  0  0  0  0  0  0  0  0
   -2.1228   -1.4397   -0.5677 H   0  0  0  0  0  0  0  0  0  0  0  0
   -0.0605   -1.1981   -0.0010 C   0  0  1  0  0  0  0  0  0  0  0  0
    0.6982   -1.8151   -0.4959 H   0  0  0  0  0  0  0  0  0  0  0  0
   -0.1681    0.1136   -0.8269 C   0  0  0  0  0  0  0  0  0  0  0  0
    0.1260   -0.1264   -1.8540 H   0  0  0  0  0  0  0  0  0  0  0  0
   -1.2130    0.4382   -0.8649 H   0  0  0  0  0  0  0  0  0  0  0  0
    0.6781    1.3134   -0.3572 C   0  0  0  0  0  0  0  0  0  0  0  0
    1.6235    0.9617    0.0680 H   0  0  0  0  0  0  0  0  0  0  0  0
    0.9315    1.9236   -1.2304 H   0  0  0  0  0  0  0  0  0  0  0  0
   -0.0651    2.2087    0.6461 C   0  0  0  0  0  0  0  0  0  0  0  0
   -0.8843    2.7205    0.1313 H   0  0  0  0  0  0  0  0  0  0  0  0
   -0.5031    1.6178    1.4502 H   0  0  0  0  0  0  0  0  0  0  0  0
    0.8803    3.2380    1.2559 C   0  0  0  0  0  0  0  0  0  0  0  0
    1.6685    2.7292    1.8226 H   0  0  0  0  0  0  0  0  0  0  0  0
    1.3565    3.8295    0.4662 H   0  0  0  0  0  0  0  0  0  0  0  0
    0.1065    4.1116    2.1442 N   0  0  0  0  0  0  0  0  0  0  0  0
    0.7119    4.7813    2.6194 H   0  0  0  0  0  0  0  0  0  0  0  0
   -0.6342    4.5905    1.6330 H   0  0  0  0  0  0  0  0  0  0  0  0
    0.4435   -1.0655    1.4590 C   0  0  0  0  0  0  0  0  0  0  0  0
    1.6437   -1.1251    1.6958 O   0  0  0  0  0  0  0  0  0  0  0  0
   -0.4171   -0.6859    2.4736 N   0  0  0  0  0  0  0  0  0  0  0  0
   -1.4037   -0.6296    2.2471 H   0  0  0  0  0  0  0  0  0  0  0  0
    0.0142   -0.4394    3.8435 C   0  0  0  0  0  0  0  0  0  0  0  0
    0.7389    0.3811    3.8746 H   0  0  0  0  0  0  0  0  0  0  0  0
   -0.8425   -0.1663    4.4668 H   0  0  0  0  0  0  0  0  0  0  0  0
    0.4779   -1.3375    4.2655 H   0  0  0  0  0  0  0  0  0  0  0  0
  1  2  1  0  0  0  0
  2  3  1  0  0  0  0
  2  4  1  0  0  0  0
  2  5  1  0  0  0  0
  5  6  2  0  0  0  0
  5  7  1  0  0  0  0
  7  8  1  0  0  0  0
  7  9  1  0  0  0  0
  9 10  1  0  0  0  0
  9 11  1  0  0  0  0
  9 26  1  0  0  0  0
 11 12  1  0  0  0  0
 11 13  1  0  0  0  0
 11 14  1  0  0  0  0
 14 15  1  0  0  0  0
 14 16  1  0  0  0  0
 14 17  1  0  0  0  0
 17 18  1  0  0  0  0
 17 19  1  0  0  0  0
 17 20  1  0  0  0  0
 20 21  1  0  0  0  0
 20 22  1  0  0  0  0
 20 23  1  0  0  0  0
 23 24  1  0  0  0  0
 23 25  1  0  0  0  0
 26 27  2  0  0  0  0
 26 28  1  0  0  0  0
 28 29  1  0  0  0  0
 28 30  1  0  0  0  0
 30 31  1  0  0  0  0
 30 32  1  0  0  0  0
 30 33  1  0  0  0  0
M  END
$$$$

  -OEChem-03222214063D

 33 32  0     1  0  0  0  0  0999 V2000
   -3.0800   -4.8157    0.3290 H   0  0  0  0  0  0  0  0  0  0  0  0
   -3.0368   -3.7702    0.0101 C   0  0  0  0  0  0  0  0  0  0  0  0
   -3.7852   -3.2018    0.5671 H   0  0  0  0  0  0  0  0  0  0  0  0
   -3.2680   -3.7192   -1.0565 H   0  0  0  0  0  0  0  0  0  0  0  0
   -1.6537   -3.2031    0.2702 C   0  0  0  0  0  0  0  0  0  0  0  0
   -0.7980   -3.9063    0.7755 O   0  0  0  0  0  0  0  0  0  0  0  0
   -1.3749   -1.8956   -0.0796 N   0  0  0  0  0  0  0  0  0  0  0  0
   -2.1099   -1.3842   -0.5577 H   0  0  0  0  0  0  0  0  0  0  0  0
   -0.0552   -1.2499    0.0672 C   0  0  1  0  0  0  0  0  0  0  0  0
    0.6801   -1.8797   -0.4466 H   0  0  0  0  0  0  0  0  0  0  0  0
   -0.0842    0.0976   -0.7052 C   0  0  0  0  0  0  0  0  0  0  0  0
    0.1973   -0.1203   -1.7406 H   0  0  0  0  0  0  0  0  0  0  0  0
   -1.1146    0.4667   -0.7288 H   0  0  0  0  0  0  0  0  0  0  0  0
    0.7940    1.2703   -0.2167 C   0  0  0  0  0  0  0  0  0  0  0  0
    1.8137    0.9102   -0.0413 H   0  0  0  0  0  0  0  0  0  0  0  0
    0.8431    1.9965   -1.0348 H   0  0  0  0  0  0  0  0  0  0  0  0
    0.2914    2.0011    1.0400 C   0  0  0  0  0  0  0  0  0  0  0  0
   -0.7842    2.1841    0.9554 H   0  0  0  0  0  0  0  0  0  0  0  0
    0.4703    1.4063    1.9344 H   0  0  0  0  0  0  0  0  0  0  0  0
    1.0210    3.3303    1.2157 C   0  0  0  0  0  0  0  0  0  0  0  0
    2.0914    3.1490    1.3655 H   0  0  0  0  0  0  0  0  0  0  0  0
    0.9031    3.9497    0.3198 H   0  0  0  0  0  0  0  0  0  0  0  0
    0.4602    4.0242    2.3797 N   0  0  0  0  0  0  0  0  0  0  0  0
    0.9537    4.8981    2.5619 H   0  0  0  0  0  0  0  0  0  0  0  0
   -0.5394    4.1867    2.2645 H   0  0  0  0  0  0  0  0  0  0  0  0
    0.4327   -1.2232    1.5352 C   0  0  0  0  0  0  0  0  0  0  0  0
    1.6272   -1.3353    1.7797 O   0  0  0  0  0  0  0  0  0  0  0  0
   -0.4318   -0.8641    2.5551 N   0  0  0  0  0  0  0  0  0  0  0  0
   -1.4165   -0.8026    2.3217 H   0  0  0  0  0  0  0  0  0  0  0  0
   -0.0238   -0.7688    3.9511 C   0  0  0  0  0  0  0  0  0  0  0  0
    0.7494   -0.0030    4.0729 H   0  0  0  0  0  0  0  0  0  0  0  0
   -0.8791   -0.4982    4.5772 H   0  0  0  0  0  0  0  0  0  0  0  0
    0.3726   -1.7281    4.3002 H   0  0  0  0  0  0  0  0  0  0  0  0
  1  2  1  0  0  0  0
  2  3  1  0  0  0  0
  2  4  1  0  0  0  0
  2  5  1  0  0  0  0
  5  6  2  0  0  0  0
  5  7  1  0  0  0  0
  7  8  1  0  0  0  0
  7  9  1  0  0  0  0
  9 10  1  0  0  0  0
  9 11  1  0  0  0  0
  9 26  1  0  0  0  0
 11 12  1  0  0  0  0
 11 13  1  0  0  0  0
 11 14  1  0  0  0  0
 14 15  1  0  0  0  0
 14 16  1  0  0  0  0
 14 17  1  0  0  0  0
 17 18  1  0  0  0  0
 17 19  1  0  0  0  0
 17 20  1  0  0  0  0
 20 21  1  0  0  0  0
 20 22  1  0  0  0  0
 20 23  1  0  0  0  0
 23 24  1  0  0  0  0
 23 25  1  0  0  0  0
 26 27  2  0  0  0  0
 26 28  1  0  0  0  0
 28 29  1  0  0  0  0
 28 30  1  0  0  0  0
 30 31  1  0  0  0  0
 30 32  1  0  0  0  0
 30 33  1  0  0  0  0
M  END
$$$$

  -OEChem-03222214063D

 33 32  0     1  0  0  0  0  0999 V2000
   -3.2190   -4.7319    0.2991 H   0  0  0  0  0  0  0  0  0  0  0  0
   -3.1213   -3.6916   -0.0243 C   0  0  0  0  0  0  0  0  0  0  0  0
   -3.8504   -3.0853    0.5186 H   0  0  0  0  0  0  0  0  0  0  0  0
   -3.3328   -3.6357   -1.0949 H   0  0  0  0  0  0  0  0  0  0  0  0
   -1.7170   -3.1885    0.2535 C   0  0  0  0  0  0  0  0  0  0  0  0
   -0.8970   -3.9332    0.7584 O   0  0  0  0  0  0  0  0  0  0  0  0
   -1.3807   -1.8902   -0.0796 N   0  0  0  0  0  0  0  0  0  0  0  0
   -2.0899   -1.3439   -0.5582 H   0  0  0  0  0  0  0  0  0  0  0  0
   -0.0362   -1.3016    0.0843 C   0  0  1  0  0  0  0  0  0  0  0  0
    0.6775   -1.9530   -0.4330 H   0  0  0  0  0  0  0  0  0  0  0  0
   -0.0205    0.0523   -0.6819 C   0  0  0  0  0  0  0  0  0  0  0  0
    0.2316   -0.1685   -1.7241 H   0  0  0  0  0  0  0  0  0  0  0  0
   -1.0409    0.4490   -0.6804 H   0  0  0  0  0  0  0  0  0  0  0  0
    0.8769    1.2246   -0.2212 C   0  0  0  0  0  0  0  0  0  0  0  0
    1.9243    0.9116   -0.2899 H   0  0  0  0  0  0  0  0  0  0  0  0
    0.7334    2.0367   -0.9416 H   0  0  0  0  0  0  0  0  0  0  0  0
    0.6320    1.7761    1.1935 C   0  0  0  0  0  0  0  0  0  0  0  0
   -0.4412    1.7815    1.4069 H   0  0  0  0  0  0  0  0  0  0  0  0
    1.1347    1.1574    1.9392 H   0  0  0  0  0  0  0  0  0  0  0  0
    1.1810    3.1949    1.3241 C   0  0  0  0  0  0  0  0  0  0  0  0
    2.2639    3.1902    1.1564 H   0  0  0  0  0  0  0  0  0  0  0  0
    0.7233    3.8490    0.5738 H   0  0  0  0  0  0  0  0  0  0  0  0
    0.8832    3.6953    2.6701 N   0  0  0  0  0  0  0  0  0  0  0  0
    1.2639    4.6311    2.8106 H   0  0  0  0  0  0  0  0  0  0  0  0
   -0.1184    3.6756    2.8580 H   0  0  0  0  0  0  0  0  0  0  0  0
    0.4428   -1.3096    1.5539 C   0  0  0  0  0  0  0  0  0  0  0  0
    1.6250   -1.5063    1.8053 O   0  0  0  0  0  0  0  0  0  0  0  0
   -0.4107   -0.9238    2.5736 N   0  0  0  0  0  0  0  0  0  0  0  0
   -1.3908   -0.8210    2.3365 H   0  0  0  0  0  0  0  0  0  0  0  0
   -0.0091   -0.8795    3.9741 C   0  0  0  0  0  0  0  0  0  0  0  0
    0.8285   -0.1874    4.1113 H   0  0  0  0  0  0  0  0  0  0  0  0
   -0.8416   -0.5386    4.5964 H   0  0  0  0  0  0  0  0  0  0  0  0
    0.2957   -1.8743    4.3155 H   0  0  0  0  0  0  0  0  0  0  0  0
  1  2  1  0  0  0  0
  2  3  1  0  0  0  0
  2  4  1  0  0  0  0
  2  5  1  0  0  0  0
  5  6  2  0  0  0  0
  5  7  1  0  0  0  0
  7  8  1  0  0  0  0
  7  9  1  0  0  0  0
  9 10  1  0  0  0  0
  9 11  1  0  0  0  0
  9 26  1  0  0  0  0
 11 12  1  0  0  0  0
 11 13  1  0  0  0  0
 11 14  1  0  0  0  0
 14 15  1  0  0  0  0
 14 16  1  0  0  0  0
 14 17  1  0  0  0  0
 17 18  1  0  0  0  0
 17 19  1  0  0  0  0
 17 20  1  0  0  0  0
 20 21  1  0  0  0  0
 20 22  1  0  0  0  0
 20 23  1  0  0  0  0
 23 24  1  0  0  0  0
 23 25  1  0  0  0  0
 26 27  2  0  0  0  0
 26 28  1  0  0  0  0
 28 29  1  0  0  0  0
 28 30  1  0  0  0  0
 30 31  1  0  0  0  0
 30 32  1  0  0  0  0
 30 33  1  0  0  0  0
M  END
$$$$

  -OEChem-03222214063D

 33 32  0     1  0  0  0  0  0999 V2000
   -3.2658   -4.7227    0.2813 H   0  0  0  0  0  0  0  0  0  0  0  0
   -3.1504   -3.6825   -0.0371 C   0  0  0  0  0  0  0  0  0  0  0  0
   -3.8674   -3.0661    0.5101 H   0  0  0  0  0  0  0  0  0  0  0  0
   -3.3635   -3.6172   -1.1068 H   0  0  0  0  0  0  0  0  0  0  0  0
   -1.7368   -3.2066    0.2408 C   0  0  0  0  0  0  0  0  0  0  0  0
   -0.9297   -3.9705    0.7372 O   0  0  0  0  0  0  0  0  0  0  0  0
   -1.3785   -1.9115   -0.0818 N   0  0  0  0  0  0  0  0  0  0  0  0
   -2.0791   -1.3497   -0.5548 H   0  0  0  0  0  0  0  0  0  0  0  0
   -0.0259   -1.3430    0.0944 C   0  0  1  0  0  0  0  0  0  0  0  0
    0.6860   -1.9964   -0.4231 H   0  0  0  0  0  0  0  0  0  0  0  0
   -0.0078    0.0156   -0.6709 C   0  0  0  0  0  0  0  0  0  0  0  0
    0.2126   -0.2040   -1.7207 H   0  0  0  0  0  0  0  0  0  0  0  0
   -1.0298    0.4073   -0.6398 H   0  0  0  0  0  0  0  0  0  0  0  0
    0.8741    1.2197   -0.2512 C   0  0  0  0  0  0  0  0  0  0  0  0
    1.9010    1.0065   -0.5668 H   0  0  0  0  0  0  0  0  0  0  0  0
    0.5321    2.0832   -0.8314 H   0  0  0  0  0  0  0  0  0  0  0  0
    0.9298    1.6162    1.2323 C   0  0  0  0  0  0  0  0  0  0  0  0
   -0.0759    1.5794    1.6609 H   0  0  0  0  0  0  0  0  0  0  0  0
    1.5783    0.9363    1.7889 H   0  0  0  0  0  0  0  0  0  0  0  0
    1.4879    3.0290    1.3905 C   0  0  0  0  0  0  0  0  0  0  0  0
    2.5100    3.0723    0.9977 H   0  0  0  0  0  0  0  0  0  0  0  0
    0.8763    3.7418    0.8268 H   0  0  0  0  0  0  0  0  0  0  0  0
    1.4818    3.3841    2.8131 N   0  0  0  0  0  0  0  0  0  0  0  0
    1.8533    4.3219    2.9636 H   0  0  0  0  0  0  0  0  0  0  0  0
    0.5489    3.2905    3.2132 H   0  0  0  0  0  0  0  0  0  0  0  0
    0.4332   -1.3720    1.5699 C   0  0  0  0  0  0  0  0  0  0  0  0
    1.5944   -1.6502    1.8409 O   0  0  0  0  0  0  0  0  0  0  0  0
   -0.4266   -0.9812    2.5818 N   0  0  0  0  0  0  0  0  0  0  0  0
   -1.3964   -0.8325    2.3274 H   0  0  0  0  0  0  0  0  0  0  0  0
   -0.0516   -0.9841    3.9897 C   0  0  0  0  0  0  0  0  0  0  0  0
    0.7870   -0.3010    4.1624 H   0  0  0  0  0  0  0  0  0  0  0  0
   -0.8946   -0.6596    4.6069 H   0  0  0  0  0  0  0  0  0  0  0  0
    0.2425   -1.9907    4.3058 H   0  0  0  0  0  0  0  0  0  0  0  0
  1  2  1  0  0  0  0
  2  3  1  0  0  0  0
  2  4  1  0  0  0  0
  2  5  1  0  0  0  0
  5  6  2  0  0  0  0
  5  7  1  0  0  0  0
  7  8  1  0  0  0  0
  7  9  1  0  0  0  0
  9 10  1  0  0  0  0
  9 11  1  0  0  0  0
  9 26  1  0  0  0  0
 11 12  1  0  0  0  0
 11 13  1  0  0  0  0
 11 14  1  0  0  0  0
 14 15  1  0  0  0  0
 14 16  1  0  0  0  0
 14 17  1  0  0  0  0
 17 18  1  0  0  0  0
 17 19  1  0  0  0  0
 17 20  1  0  0  0  0
 20 21  1  0  0  0  0
 20 22  1  0  0  0  0
 20 23  1  0  0  0  0
 23 24  1  0  0  0  0
 23 25  1  0  0  0  0
 26 27  2  0  0  0  0
 26 28  1  0  0  0  0
 28 29  1  0  0  0  0
 28 30  1  0  0  0  0
 30 31  1  0  0  0  0
 30 32  1  0  0  0  0
 30 33  1  0  0  0  0
M  END
$$$$

  -OEChem-03222214063D

 33 32  0     1  0  0  0  0  0999 V2000
   -3.2856   -4.7231    0.2915 H   0  0  0  0  0  0  0  0  0  0  0  0
   -3.1576   -3.6864   -0.0328 C   0  0  0  0  0  0  0  0  0  0  0  0
   -3.8697   -3.0588    0.5079 H   0  0  0  0  0  0  0  0  0  0  0  0
   -3.3663   -3.6258   -1.1035 H   0  0  0  0  0  0  0  0  0  0  0  0
   -1.7401   -3.2236    0.2478 C   0  0  0  0  0  0  0  0  0  0  0  0
   -0.9440   -3.9935    0.7524 O   0  0  0  0  0  0  0  0  0  0  0  0
   -1.3675   -1.9343   -0.0835 N   0  0  0  0  0  0  0  0  0  0  0  0
   -2.0593   -1.3725   -0.5694 H   0  0  0  0  0  0  0  0  0  0  0  0
   -0.0123   -1.3724    0.1002 C   0  0  1  0  0  0  0  0  0  0  0  0
    0.7088   -2.0227   -0.4080 H   0  0  0  0  0  0  0  0  0  0  0  0
   -0.0069   -0.0103   -0.6638 C   0  0  0  0  0  0  0  0  0  0  0  0
    0.1889   -0.2295   -1.7185 H   0  0  0  0  0  0  0  0  0  0  0  0
   -1.0323    0.3702   -0.6099 H   0  0  0  0  0  0  0  0  0  0  0  0
    0.8563    1.2216   -0.2753 C   0  0  0  0  0  0  0  0  0  0  0  0
    1.7993    1.1367   -0.8260 H   0  0  0  0  0  0  0  0  0  0  0  0
    0.3428    2.1093   -0.6598 H   0  0  0  0  0  0  0  0  0  0  0  0
    1.2327    1.4758    1.1900 C   0  0  0  0  0  0  0  0  0  0  0  0
    0.3397    1.4182    1.8177 H   0  0  0  0  0  0  0  0  0  0  0  0
    1.9601    0.7349    1.5296 H   0  0  0  0  0  0  0  0  0  0  0  0
    1.8577    2.8603    1.3491 C   0  0  0  0  0  0  0  0  0  0  0  0
    2.7641    2.9344    0.7378 H   0  0  0  0  0  0  0  0  0  0  0  0
    1.1557    3.6310    1.0125 H   0  0  0  0  0  0  0  0  0  0  0  0
    2.1896    3.0701    2.7613 N   0  0  0  0  0  0  0  0  0  0  0  0
    2.5892    3.9952    2.9174 H   0  0  0  0  0  0  0  0  0  0  0  0
    1.3785    2.9136    3.3589 H   0  0  0  0  0  0  0  0  0  0  0  0
    0.4097   -1.3998    1.5881 C   0  0  0  0  0  0  0  0  0  0  0  0
    1.5432   -1.7433    1.8976 O   0  0  0  0  0  0  0  0  0  0  0  0
   -0.4715   -0.9970    2.5773 N   0  0  0  0  0  0  0  0  0  0  0  0
   -1.4318   -0.8378    2.2947 H   0  0  0  0  0  0  0  0  0  0  0  0
   -0.1529   -1.0723    3.9970 C   0  0  0  0  0  0  0  0  0  0  0  0
    0.7279   -0.4619    4.2238 H   0  0  0  0  0  0  0  0  0  0  0  0
   -0.9919   -0.7028    4.5943 H   0  0  0  0  0  0  0  0  0  0  0  0
    0.0516   -2.1083    4.2872 H   0  0  0  0  0  0  0  0  0  0  0  0
  1  2  1  0  0  0  0
  2  3  1  0  0  0  0
  2  4  1  0  0  0  0
  2  5  1  0  0  0  0
  5  6  2  0  0  0  0
  5  7  1  0  0  0  0
  7  8  1  0  0  0  0
  7  9  1  0  0  0  0
  9 10  1  0  0  0  0
  9 11  1  0  0  0  0
  9 26  1  0  0  0  0
 11 12  1  0  0  0  0
 11 13  1  0  0  0  0
 11 14  1  0  0  0  0
 14 15  1  0  0  0  0
 14 16  1  0  0  0  0
 14 17  1  0  0  0  0
 17 18  1  0  0  0  0
 17 19  1  0  0  0  0
 17 20  1  0  0  0  0
 20 21  1  0  0  0  0
 20 22  1  0  0  0  0
 20 23  1  0  0  0  0
 23 24  1  0  0  0  0
 23 25  1  0  0  0  0
 26 27  2  0  0  0  0
 26 28  1  0  0  0  0
 28 29  1  0  0  0  0
 28 30  1  0  0  0  0
 30 31  1  0  0  0  0
 30 32  1  0  0  0  0
 30 33  1  0  0  0  0
M  END
$$$$

  -OEChem-03222214063D

 33 32  0     1  0  0  0  0  0999 V2000
   -3.2998   -4.7219    0.3284 H   0  0  0  0  0  0  0  0  0  0  0  0
   -3.1641   -3.6903   -0.0093 C   0  0  0  0  0  0  0  0  0  0  0  0
   -3.8815   -3.0533    0.5130 H   0  0  0  0  0  0  0  0  0  0  0  0
   -3.3585   -3.6446   -1.0835 H   0  0  0  0  0  0  0  0  0  0  0  0
   -1.7489   -3.2279    0.2829 C   0  0  0  0  0  0  0  0  0  0  0  0
   -0.9677   -3.9895    0.8216 O   0  0  0  0  0  0  0  0  0  0  0  0
   -1.3625   -1.9499   -0.0766 N   0  0  0  0  0  0  0  0  0  0  0  0
   -2.0407   -1.4023   -0.5962 H   0  0  0  0  0  0  0  0  0  0  0  0
   -0.0036   -1.3917    0.1031 C   0  0  1  0  0  0  0  0  0  0  0  0
    0.7261   -2.0426   -0.3921 H   0  0  0  0  0  0  0  0  0  0  0  0
   -0.0136   -0.0280   -0.6613 C   0  0  0  0  0  0  0  0  0  0  0  0
    0.1760   -0.2520   -1.7164 H   0  0  0  0  0  0  0  0  0  0  0  0
   -1.0420    0.3441   -0.6050 H   0  0  0  0  0  0  0  0  0  0  0  0
    0.8437    1.2173   -0.2916 C   0  0  0  0  0  0  0  0  0  0  0  0
    1.6376    1.2840   -1.0434 H   0  0  0  0  0  0  0  0  0  0  0  0
    0.2107    2.1015   -0.4228 H   0  0  0  0  0  0  0  0  0  0  0  0
    1.5335    1.3262    1.0727 C   0  0  0  0  0  0  0  0  0  0  0  0
    0.7976    1.2406    1.8756 H   0  0  0  0  0  0  0  0  0  0  0  0
    2.2773    0.5315    1.1773 H   0  0  0  0  0  0  0  0  0  0  0  0
    2.2419    2.6729    1.2077 C   0  0  0  0  0  0  0  0  0  0  0  0
    2.9719    2.7989    0.4003 H   0  0  0  0  0  0  0  0  0  0  0  0
    1.5126    3.4873    1.1376 H   0  0  0  0  0  0  0  0  0  0  0  0
    2.9233    2.7203    2.5042 N   0  0  0  0  0  0  0  0  0  0  0  0
    3.3474    3.6322    2.6713 H   0  0  0  0  0  0  0  0  0  0  0  0
    2.2928    2.4616    3.2629 H   0  0  0  0  0  0  0  0  0  0  0  0
    0.3833   -1.3962    1.6019 C   0  0  0  0  0  0  0  0  0  0  0  0
    1.4952   -1.7673    1.9538 O   0  0  0  0  0  0  0  0  0  0  0  0
   -0.5216   -0.9667    2.5583 N   0  0  0  0  0  0  0  0  0  0  0  0
   -1.4707   -0.8066    2.2408 H   0  0  0  0  0  0  0  0  0  0  0  0
   -0.2634   -1.0689    3.9886 C   0  0  0  0  0  0  0  0  0  0  0  0
    0.6290   -0.4942    4.2583 H   0  0  0  0  0  0  0  0  0  0  0  0
   -1.1117   -0.6747    4.5559 H   0  0  0  0  0  0  0  0  0  0  0  0
   -0.1086   -2.1147    4.2748 H   0  0  0  0  0  0  0  0  0  0  0  0
  1  2  1  0  0  0  0
  2  3  1  0  0  0  0
  2  4  1  0  0  0  0
  2  5  1  0  0  0  0
  5  6  2  0  0  0  0
  5  7  1  0  0  0  0
  7  8  1  0  0  0  0
  7  9  1  0  0  0  0
  9 10  1  0  0  0  0
  9 11  1  0  0  0  0
  9 26  1  0  0  0  0
 11 12  1  0  0  0  0
 11 13  1  0  0  0  0
 11 14  1  0  0  0  0
 14 15  1  0  0  0  0
 14 16  1  0  0  0  0
 14 17  1  0  0  0  0
 17 18  1  0  0  0  0
 17 19  1  0  0  0  0
 17 20  1  0  0  0  0
 20 21  1  0  0  0  0
 20 22  1  0  0  0  0
 20 23  1  0  0  0  0
 23 24  1  0  0  0  0
 23 25  1  0  0  0  0
 26 27  2  0  0  0  0
 26 28  1  0  0  0  0
 28 29  1  0  0  0  0
 28 30  1  0  0  0  0
 30 31  1  0  0  0  0
 30 32  1  0  0  0  0
 30 33  1  0  0  0  0
M  END
$$$$

  -OEChem-03222214063D

 33 32  0     1  0  0  0  0  0999 V2000
   -3.3112   -4.7046    0.3547 H   0  0  0  0  0  0  0  0  0  0  0  0
   -3.1624   -3.6823   -0.0045 C   0  0  0  0  0  0  0  0  0  0  0  0
   -3.8880   -3.0291    0.4857 H   0  0  0  0  0  0  0  0  0  0  0  0
   -3.3312   -3.6619   -1.0838 H   0  0  0  0  0  0  0  0  0  0  0  0
   -1.7521   -3.2195    0.3098 C   0  0  0  0  0  0  0  0  0  0  0  0
   -0.9920   -3.9662    0.8974 O   0  0  0  0  0  0  0  0  0  0  0  0
   -1.3480   -1.9572   -0.0840 N   0  0  0  0  0  0  0  0  0  0  0  0
   -2.0051   -1.4311   -0.6512 H   0  0  0  0  0  0  0  0  0  0  0  0
    0.0106   -1.4013    0.1058 C   0  0  1  0  0  0  0  0  0  0  0  0
    0.7535   -2.0562   -0.3636 H   0  0  0  0  0  0  0  0  0  0  0  0
   -0.0049   -0.0416   -0.6654 C   0  0  0  0  0  0  0  0  0  0  0  0
    0.2175   -0.2805   -1.7108 H   0  0  0  0  0  0  0  0  0  0  0  0
   -1.0363    0.3264   -0.6484 H   0  0  0  0  0  0  0  0  0  0  0  0
    0.8487    1.2061   -0.2920 C   0  0  0  0  0  0  0  0  0  0  0  0
    1.4502    1.4503   -1.1741 H   0  0  0  0  0  0  0  0  0  0  0  0
    0.1608    2.0447   -0.1387 H   0  0  0  0  0  0  0  0  0  0  0  0
    1.8008    1.1719    0.9090 C   0  0  0  0  0  0  0  0  0  0  0  0
    1.2377    1.0635    1.8390 H   0  0  0  0  0  0  0  0  0  0  0  0
    2.4919    0.3293    0.8058 H   0  0  0  0  0  0  0  0  0  0  0  0
    2.6081    2.4656    0.9927 C   0  0  0  0  0  0  0  0  0  0  0  0
    3.1507    2.6380    0.0566 H   0  0  0  0  0  0  0  0  0  0  0  0
    1.9345    3.3137    1.1576 H   0  0  0  0  0  0  0  0  0  0  0  0
    3.5597    2.3534    2.1009 N   0  0  0  0  0  0  0  0  0  0  0  0
    4.0350    3.2374    2.2785 H   0  0  0  0  0  0  0  0  0  0  0  0
    3.1049    2.0018    2.9441 H   0  0  0  0  0  0  0  0  0  0  0  0
    0.3544   -1.3617    1.6151 C   0  0  0  0  0  0  0  0  0  0  0  0
    1.4497   -1.7325    2.0167 O   0  0  0  0  0  0  0  0  0  0  0  0
   -0.5768   -0.8952    2.5279 N   0  0  0  0  0  0  0  0  0  0  0  0
   -1.5139   -0.7403    2.1736 H   0  0  0  0  0  0  0  0  0  0  0  0
   -0.3709   -0.9652    3.9686 C   0  0  0  0  0  0  0  0  0  0  0  0
    0.5186   -0.3950    4.2564 H   0  0  0  0  0  0  0  0  0  0  0  0
   -1.2336   -0.5466    4.4949 H   0  0  0  0  0  0  0  0  0  0  0  0
   -0.2409   -2.0056    4.2859 H   0  0  0  0  0  0  0  0  0  0  0  0
  1  2  1  0  0  0  0
  2  3  1  0  0  0  0
  2  4  1  0  0  0  0
  2  5  1  0  0  0  0
  5  6  2  0  0  0  0
  5  7  1  0  0  0  0
  7  8  1  0  0  0  0
  7  9  1  0  0  0  0
  9 10  1  0  0  0  0
  9 11  1  0  0  0  0
  9 26  1  0  0  0  0
 11 12  1  0  0  0  0
 11 13  1  0  0  0  0
 11 14  1  0  0  0  0
 14 15  1  0  0  0  0
 14 16  1  0  0  0  0
 14 17  1  0  0  0  0
 17 18  1  0  0  0  0
 17 19  1  0  0  0  0
 17 20  1  0  0  0  0
 20 21  1  0  0  0  0
 20 22  1  0  0  0  0
 20 23  1  0  0  0  0
 23 24  1  0  0  0  0
 23 25  1  0  0  0  0
 26 27  2  0  0  0  0
 26 28  1  0  0  0  0
 28 29  1  0  0  0  0
 28 30  1  0  0  0  0
 30 31  1  0  0  0  0
 30 32  1  0  0  0  0
 30 33  1  0  0  0  0
M  END
$$$$

  -OEChem-03222214063D

 33 32  0     1  0  0  0  0  0999 V2000
   -3.2712   -4.7167    0.3826 H   0  0  0  0  0  0  0  0  0  0  0  0
   -3.1283   -3.7016    0.0010 C   0  0  0  0  0  0  0  0  0  0  0  0
   -3.8748   -3.0469    0.4569 H   0  0  0  0  0  0  0  0  0  0  0  0
   -3.2722   -3.7107   -1.0821 H   0  0  0  0  0  0  0  0  0  0  0  0
   -1.7318   -3.2111    0.3359 C   0  0  0  0  0  0  0  0  0  0  0  0
   -0.9750   -3.9331    0.9576 O   0  0  0  0  0  0  0  0  0  0  0  0
   -1.3347   -1.9546   -0.0829 N   0  0  0  0  0  0  0  0  0  0  0  0
   -1.9859   -1.4527   -0.6782 H   0  0  0  0  0  0  0  0  0  0  0  0
    0.0169   -1.3827    0.1087 C   0  0  1  0  0  0  0  0  0  0  0  0
    0.7732   -2.0317   -0.3472 H   0  0  0  0  0  0  0  0  0  0  0  0
   -0.0183   -0.0278   -0.6659 C   0  0  0  0  0  0  0  0  0  0  0  0
    0.2420   -0.2731   -1.7010 H   0  0  0  0  0  0  0  0  0  0  0  0
   -1.0535    0.3292   -0.6842 H   0  0  0  0  0  0  0  0  0  0  0  0
    0.8253    1.2190   -0.2773 C   0  0  0  0  0  0  0  0  0  0  0  0
    1.2032    1.6509   -1.2100 H   0  0  0  0  0  0  0  0  0  0  0  0
    0.1474    1.9582    0.1624 H   0  0  0  0  0  0  0  0  0  0  0  0
    2.0036    1.0621    0.6931 C   0  0  0  0  0  0  0  0  0  0  0  0
    1.6406    0.9187    1.7134 H   0  0  0  0  0  0  0  0  0  0  0  0
    2.6064    0.1949    0.4031 H   0  0  0  0  0  0  0  0  0  0  0  0
    2.8847    2.3094    0.6828 C   0  0  0  0  0  0  0  0  0  0  0  0
    3.2253    2.5300   -0.3348 H   0  0  0  0  0  0  0  0  0  0  0  0
    2.3123    3.1704    1.0454 H   0  0  0  0  0  0  0  0  0  0  0  0
    4.0422    2.0692    1.5479 N   0  0  0  0  0  0  0  0  0  0  0  0
    4.5889    2.9180    1.6874 H   0  0  0  0  0  0  0  0  0  0  0  0
    3.7568    1.6629    2.4399 H   0  0  0  0  0  0  0  0  0  0  0  0
    0.3489   -1.3028    1.6191 C   0  0  0  0  0  0  0  0  0  0  0  0
    1.4394   -1.6672    2.0401 O   0  0  0  0  0  0  0  0  0  0  0  0
   -0.5929   -0.8214    2.5124 N   0  0  0  0  0  0  0  0  0  0  0  0
   -1.5270   -0.6789    2.1453 H   0  0  0  0  0  0  0  0  0  0  0  0
   -0.4037   -0.8657    3.9564 C   0  0  0  0  0  0  0  0  0  0  0  0
    0.4950   -0.3088    4.2423 H   0  0  0  0  0  0  0  0  0  0  0  0
   -1.2629   -0.4177    4.4644 H   0  0  0  0  0  0  0  0  0  0  0  0
   -0.2991   -1.9019    4.2957 H   0  0  0  0  0  0  0  0  0  0  0  0
  1  2  1  0  0  0  0
  2  3  1  0  0  0  0
  2  4  1  0  0  0  0
  2  5  1  0  0  0  0
  5  6  2  0  0  0  0
  5  7  1  0  0  0  0
  7  8  1  0  0  0  0
  7  9  1  0  0  0  0
  9 10  1  0  0  0  0
  9 11  1  0  0  0  0
  9 26  1  0  0  0  0
 11 12  1  0  0  0  0
 11 13  1  0  0  0  0
 11 14  1  0  0  0  0
 14 15  1  0  0  0  0
 14 16  1  0  0  0  0
 14 17  1  0  0  0  0
 17 18  1  0  0  0  0
 17 19  1  0  0  0  0
 17 20  1  0  0  0  0
 20 21  1  0  0  0  0
 20 22  1  0  0  0  0
 20 23  1  0  0  0  0
 23 24  1  0  0  0  0
 23 25  1  0  0  0  0
 26 27  2  0  0  0  0
 26 28  1  0  0  0  0
 28 29  1  0  0  0  0
 28 30  1  0  0  0  0
 30 31  1  0  0  0  0
 30 32  1  0  0  0  0
 30 33  1  0  0  0  0
M  END
$$$$

  -OEChem-03222214063D

 33 32  0     1  0  0  0  0  0999 V2000
   -2.9363   -4.6382    0.9669 H   0  0  0  0  0  0  0  0  0  0  0  0
   -2.8946   -3.6769    0.4464 C   0  0  0  0  0  0  0  0  0  0  0  0
   -3.6131   -2.9963    0.9092 H   0  0  0  0  0  0  0  0  0  0  0  0
   -3.1689   -3.8322   -0.5997 H   0  0  0  0  0  0  0  0  0  0  0  0
   -1.4959   -3.0959    0.5355 C   0  0  0  0  0  0  0  0  0  0  0  0
   -0.6208   -3.7209    1.1048 O   0  0  0  0  0  0  0  0  0  0  0  0
   -1.2332   -1.8676   -0.0427 N   0  0  0  0  0  0  0  0  0  0  0  0
   -1.9852   -1.4592   -0.5889 H   0  0  0  0  0  0  0  0  0  0  0  0
    0.0980   -1.2249   -0.1045 C   0  0  1  0  0  0  0  0  0  0  0  0
    0.8166   -1.8702   -0.6221 H   0  0  0  0  0  0  0  0  0  0  0  0
   -0.1354    0.0688   -0.9457 C   0  0  0  0  0  0  0  0  0  0  0  0
   -0.0169   -0.2304   -1.9924 H   0  0  0  0  0  0  0  0  0  0  0  0
   -1.1774    0.3844   -0.8268 H   0  0  0  0  0  0  0  0  0  0  0  0
    0.7057    1.3571   -0.7494 C   0  0  0  0  0  0  0  0  0  0  0  0
    0.7075    1.9053   -1.6971 H   0  0  0  0  0  0  0  0  0  0  0  0
    0.1797    1.9908   -0.0274 H   0  0  0  0  0  0  0  0  0  0  0  0
    2.1634    1.1961   -0.2819 C   0  0  0  0  0  0  0  0  0  0  0  0
    2.8180    1.7190   -0.9863 H   0  0  0  0  0  0  0  0  0  0  0  0
    2.4607    0.1459   -0.3238 H   0  0  0  0  0  0  0  0  0  0  0  0
    2.4146    1.7870    1.1082 C   0  0  0  0  0  0  0  0  0  0  0  0
    2.5172    2.8754    1.0410 H   0  0  0  0  0  0  0  0  0  0  0  0
    1.5796    1.5709    1.7809 H   0  0  0  0  0  0  0  0  0  0  0  0
    3.6353    1.1831    1.6410 N   0  0  0  0  0  0  0  0  0  0  0  0
    3.8447    1.5389    2.5719 H   0  0  0  0  0  0  0  0  0  0  0  0
    3.5265    0.1620    1.6681 H   0  0  0  0  0  0  0  0  0  0  0  0
    0.6343   -0.9967    1.3339 C   0  0  0  0  0  0  0  0  0  0  0  0
    1.7826   -1.2987    1.6386 O   0  0  0  0  0  0  0  0  0  0  0  0
   -0.2028   -0.4775    2.3071 N   0  0  0  0  0  0  0  0  0  0  0  0
   -1.1835   -0.4126    2.0577 H   0  0  0  0  0  0  0  0  0  0  0  0
    0.1611   -0.4376    3.7179 C   0  0  0  0  0  0  0  0  0  0  0  0
    1.1034    0.1022    3.8582 H   0  0  0  0  0  0  0  0  0  0  0  0
   -0.6158    0.0737    4.2940 H   0  0  0  0  0  0  0  0  0  0  0  0
    0.2756   -1.4535    4.1107 H   0  0  0  0  0  0  0  0  0  0  0  0
  1  2  1  0  0  0  0
  2  3  1  0  0  0  0
  2  4  1  0  0  0  0
  2  5  1  0  0  0  0
  5  6  2  0  0  0  0
  5  7  1  0  0  0  0
  7  8  1  0  0  0  0
  7  9  1  0  0  0  0
  9 10  1  0  0  0  0
  9 11  1  0  0  0  0
  9 26  1  0  0  0  0
 11 12  1  0  0  0  0
 11 13  1  0  0  0  0
 11 14  1  0  0  0  0
 14 15  1  0  0  0  0
 14 16  1  0  0  0  0
 14 17  1  0  0  0  0
 17 18  1  0  0  0  0
 17 19  1  0  0  0  0
 17 20  1  0  0  0  0
 20 21  1  0  0  0  0
 20 22  1  0  0  0  0
 20 23  1  0  0  0  0
 23 24  1  0  0  0  0
 23 25  1  0  0  0  0
 26 27  2  0  0  0  0
 26 28  1  0  0  0  0
 28 29  1  0  0  0  0
 28 30  1  0  0  0  0
 30 31  1  0  0  0  0
 30 32  1  0  0  0  0
 30 33  1  0  0  0  0
M  END
$$$$

  -OEChem-03222214063D

 33 32  0     1  0  0  0  0  0999 V2000
   -3.2167   -4.6553    0.5700 H   0  0  0  0  0  0  0  0  0  0  0  0
   -3.0535   -3.7051    0.0531 C   0  0  0  0  0  0  0  0  0  0  0  0
   -3.8240   -2.9978    0.3689 H   0  0  0  0  0  0  0  0  0  0  0  0
   -3.1377   -3.8717   -1.0236 H   0  0  0  0  0  0  0  0  0  0  0  0
   -1.6769   -3.1609    0.3862 C   0  0  0  0  0  0  0  0  0  0  0  0
   -0.9085   -3.8374    1.0435 O   0  0  0  0  0  0  0  0  0  0  0  0
   -1.3117   -1.9098   -0.0757 N   0  0  0  0  0  0  0  0  0  0  0  0
   -1.9627   -1.4614   -0.7126 H   0  0  0  0  0  0  0  0  0  0  0  0
    0.0310   -1.3079    0.0774 C   0  0  1  0  0  0  0  0  0  0  0  0
    0.7949   -1.9380   -0.3919 H   0  0  0  0  0  0  0  0  0  0  0  0
   -0.0628    0.0485   -0.6796 C   0  0  0  0  0  0  0  0  0  0  0  0
    0.1736   -0.1601   -1.7282 H   0  0  0  0  0  0  0  0  0  0  0  0
   -1.0993    0.4007   -0.6514 H   0  0  0  0  0  0  0  0  0  0  0  0
    0.7947    1.2574   -0.2432 C   0  0  0  0  0  0  0  0  0  0  0  0
    0.7324    2.0087   -1.0375 H   0  0  0  0  0  0  0  0  0  0  0  0
    0.3553    1.6994    0.6574 H   0  0  0  0  0  0  0  0  0  0  0  0
    2.2721    0.9508    0.0494 C   0  0  0  0  0  0  0  0  0  0  0  0
    2.3896    0.5056    1.0364 H   0  0  0  0  0  0  0  0  0  0  0  0
    2.6547    0.2456   -0.6958 H   0  0  0  0  0  0  0  0  0  0  0  0
    3.1111    2.2251    0.0117 C   0  0  0  0  0  0  0  0  0  0  0  0
    3.0039    2.7253   -0.9570 H   0  0  0  0  0  0  0  0  0  0  0  0
    2.7731    2.9153    0.7924 H   0  0  0  0  0  0  0  0  0  0  0  0
    4.5133    1.8601    0.2288 N   0  0  0  0  0  0  0  0  0  0  0  0
    5.1044    2.6863    0.3144 H   0  0  0  0  0  0  0  0  0  0  0  0
    4.6095    1.2550    1.0459 H   0  0  0  0  0  0  0  0  0  0  0  0
    0.3946   -1.1740    1.5790 C   0  0  0  0  0  0  0  0  0  0  0  0
    1.4843   -1.5431    1.9976 O   0  0  0  0  0  0  0  0  0  0  0  0
   -0.5378   -0.6819    2.4763 N   0  0  0  0  0  0  0  0  0  0  0  0
   -1.4799   -0.5659    2.1198 H   0  0  0  0  0  0  0  0  0  0  0  0
   -0.3354   -0.7217    3.9190 C   0  0  0  0  0  0  0  0  0  0  0  0
    0.5678   -0.1675    4.1953 H   0  0  0  0  0  0  0  0  0  0  0  0
   -1.1880   -0.2689    4.4335 H   0  0  0  0  0  0  0  0  0  0  0  0
   -0.2319   -1.7570    4.2607 H   0  0  0  0  0  0  0  0  0  0  0  0
  1  2  1  0  0  0  0
  2  3  1  0  0  0  0
  2  4  1  0  0  0  0
  2  5  1  0  0  0  0
  5  6  2  0  0  0  0
  5  7  1  0  0  0  0
  7  8  1  0  0  0  0
  7  9  1  0  0  0  0
  9 10  1  0  0  0  0
  9 11  1  0  0  0  0
  9 26  1  0  0  0  0
 11 12  1  0  0  0  0
 11 13  1  0  0  0  0
 11 14  1  0  0  0  0
 14 15  1  0  0  0  0
 14 16  1  0  0  0  0
 14 17  1  0  0  0  0
 17 18  1  0  0  0  0
 17 19  1  0  0  0  0
 17 20  1  0  0  0  0
 20 21  1  0  0  0  0
 20 22  1  0  0  0  0
 20 23  1  0  0  0  0
 23 24  1  0  0  0  0
 23 25  1  0  0  0  0
 26 27  2  0  0  0  0
 26 28  1  0  0  0  0
 28 29  1  0  0  0  0
 28 30  1  0  0  0  0
 30 31  1  0  0  0  0
 30 32  1  0  0  0  0
 30 33  1  0  0  0  0
M  END
$$$$

  -OEChem-03222214063D

 33 32  0     1  0  0  0  0  0999 V2000
   -2.9710   -4.7755    0.6959 H   0  0  0  0  0  0  0  0  0  0  0  0
   -2.9309   -3.7862    0.2308 C   0  0  0  0  0  0  0  0  0  0  0  0
   -3.7090   -3.1590    0.6723 H   0  0  0  0  0  0  0  0  0  0  0  0
   -3.1215   -3.8942   -0.8396 H   0  0  0  0  0  0  0  0  0  0  0  0
   -1.5673   -3.1593    0.4547 C   0  0  0  0  0  0  0  0  0  0  0  0
   -0.7291   -3.7581    1.1029 O   0  0  0  0  0  0  0  0  0  0  0  0
   -1.2894   -1.9217   -0.0953 N   0  0  0  0  0  0  0  0  0  0  0  0
   -1.9978   -1.5342   -0.7108 H   0  0  0  0  0  0  0  0  0  0  0  0
    0.0258   -1.2486   -0.0414 C   0  0  1  0  0  0  0  0  0  0  0  0
    0.7968   -1.8712   -0.5089 H   0  0  0  0  0  0  0  0  0  0  0  0
   -0.1461    0.0657   -0.8554 C   0  0  0  0  0  0  0  0  0  0  0  0
    0.0383   -0.1620   -1.9103 H   0  0  0  0  0  0  0  0  0  0  0  0
   -1.1866    0.3970   -0.7746 H   0  0  0  0  0  0  0  0  0  0  0  0
    0.7164    1.2790   -0.4573 C   0  0  0  0  0  0  0  0  0  0  0  0
    0.4608    2.1276   -1.1003 H   0  0  0  0  0  0  0  0  0  0  0  0
    0.4748    1.5688    0.5707 H   0  0  0  0  0  0  0  0  0  0  0  0
    2.2258    1.0054   -0.5711 C   0  0  0  0  0  0  0  0  0  0  0  0
    2.4961    0.0437   -0.1348 H   0  0  0  0  0  0  0  0  0  0  0  0
    2.4994    0.9646   -1.6304 H   0  0  0  0  0  0  0  0  0  0  0  0
    3.0295    2.1030    0.1175 C   0  0  0  0  0  0  0  0  0  0  0  0
    2.7764    3.0807   -0.3070 H   0  0  0  0  0  0  0  0  0  0  0  0
    2.7932    2.1217    1.1875 H   0  0  0  0  0  0  0  0  0  0  0  0
    4.4545    1.8241   -0.0781 N   0  0  0  0  0  0  0  0  0  0  0  0
    5.0332    2.5110    0.4045 H   0  0  0  0  0  0  0  0  0  0  0  0
    4.6795    0.8785    0.2359 H   0  0  0  0  0  0  0  0  0  0  0  0
    0.4498   -1.0083    1.4346 C   0  0  0  0  0  0  0  0  0  0  0  0
    1.6014   -1.1935    1.8065 O   0  0  0  0  0  0  0  0  0  0  0  0
   -0.4706   -0.5102    2.3412 N   0  0  0  0  0  0  0  0  0  0  0  0
   -1.4372   -0.5000    2.0351 H   0  0  0  0  0  0  0  0  0  0  0  0
   -0.1840   -0.3680    3.7631 C   0  0  0  0  0  0  0  0  0  0  0  0
    0.6705    0.2991    3.9178 H   0  0  0  0  0  0  0  0  0  0  0  0
   -1.0487    0.0552    4.2831 H   0  0  0  0  0  0  0  0  0  0  0  0
    0.0455   -1.3430    4.2060 H   0  0  0  0  0  0  0  0  0  0  0  0
  1  2  1  0  0  0  0
  2  3  1  0  0  0  0
  2  4  1  0  0  0  0
  2  5  1  0  0  0  0
  5  6  2  0  0  0  0
  5  7  1  0  0  0  0
  7  8  1  0  0  0  0
  7  9  1  0  0  0  0
  9 10  1  0  0  0  0
  9 11  1  0  0  0  0
  9 26  1  0  0  0  0
 11 12  1  0  0  0  0
 11 13  1  0  0  0  0
 11 14  1  0  0  0  0
 14 15  1  0  0  0  0
 14 16  1  0  0  0  0
 14 17  1  0  0  0  0
 17 18  1  0  0  0  0
 17 19  1  0  0  0  0
 17 20  1  0  0  0  0
 20 21  1  0  0  0  0
 20 22  1  0  0  0  0
 20 23  1  0  0  0  0
 23 24  1  0  0  0  0
 23 25  1  0  0  0  0
 26 27  2  0  0  0  0
 26 28  1  0  0  0  0
 28 29  1  0  0  0  0
 28 30  1  0  0  0  0
 30 31  1  0  0  0  0
 30 32  1  0  0  0  0
 30 33  1  0  0  0  0
M  END
$$$$

  -OEChem-03222214063D

 33 32  0     1  0  0  0  0  0999 V2000
   -2.8952   -4.8403    0.5894 H   0  0  0  0  0  0  0  0  0  0  0  0
   -2.8908   -3.8384    0.1502 C   0  0  0  0  0  0  0  0  0  0  0  0
   -3.7018   -3.2564    0.5945 H   0  0  0  0  0  0  0  0  0  0  0  0
   -3.0604   -3.9269   -0.9256 H   0  0  0  0  0  0  0  0  0  0  0  0
   -1.5590   -3.1604    0.4125 C   0  0  0  0  0  0  0  0  0  0  0  0
   -0.7093   -3.7350    1.0679 O   0  0  0  0  0  0  0  0  0  0  0  0
   -1.3221   -1.8990   -0.1006 N   0  0  0  0  0  0  0  0  0  0  0  0
   -2.0337   -1.5239   -0.7202 H   0  0  0  0  0  0  0  0  0  0  0  0
   -0.0251   -1.1952   -0.0282 C   0  0  1  0  0  0  0  0  0  0  0  0
    0.7483   -1.8113   -0.5003 H   0  0  0  0  0  0  0  0  0  0  0  0
   -0.1763    0.1130   -0.8524 C   0  0  0  0  0  0  0  0  0  0  0  0
    0.0232   -0.1062   -1.9065 H   0  0  0  0  0  0  0  0  0  0  0  0
   -1.2184    0.4421   -0.7843 H   0  0  0  0  0  0  0  0  0  0  0  0
    0.6775    1.3160   -0.4080 C   0  0  0  0  0  0  0  0  0  0  0  0
    0.2962    2.2170   -0.8998 H   0  0  0  0  0  0  0  0  0  0  0  0
    0.5951    1.4853    0.6697 H   0  0  0  0  0  0  0  0  0  0  0  0
    2.1448    1.1269   -0.8162 C   0  0  0  0  0  0  0  0  0  0  0  0
    2.5166    0.1637   -0.4551 H   0  0  0  0  0  0  0  0  0  0  0  0
    2.2235    1.1268   -1.9082 H   0  0  0  0  0  0  0  0  0  0  0  0
    3.0154    2.2395   -0.2431 C   0  0  0  0  0  0  0  0  0  0  0  0
    2.6530    3.2163   -0.5818 H   0  0  0  0  0  0  0  0  0  0  0  0
    2.9725    2.2190    0.8518 H   0  0  0  0  0  0  0  0  0  0  0  0
    4.3928    2.0307   -0.6980 N   0  0  0  0  0  0  0  0  0  0  0  0
    5.0182    2.7368   -0.3110 H   0  0  0  0  0  0  0  0  0  0  0  0
    4.7124    1.0925   -0.4528 H   0  0  0  0  0  0  0  0  0  0  0  0
    0.4335   -0.9723    1.4364 C   0  0  0  0  0  0  0  0  0  0  0  0
    1.6198   -1.0339    1.7339 O   0  0  0  0  0  0  0  0  0  0  0  0
   -0.4705   -0.5169    2.3805 N   0  0  0  0  0  0  0  0  0  0  0  0
   -1.4505   -0.5845    2.1283 H   0  0  0  0  0  0  0  0  0  0  0  0
   -0.1180   -0.3229    3.7811 C   0  0  0  0  0  0  0  0  0  0  0  0
    0.6910    0.4092    3.8750 H   0  0  0  0  0  0  0  0  0  0  0  0
   -0.9823    0.0457    4.3415 H   0  0  0  0  0  0  0  0  0  0  0  0
    0.2090   -1.2682    4.2269 H   0  0  0  0  0  0  0  0  0  0  0  0
  1  2  1  0  0  0  0
  2  3  1  0  0  0  0
  2  4  1  0  0  0  0
  2  5  1  0  0  0  0
  5  6  2  0  0  0  0
  5  7  1  0  0  0  0
  7  8  1  0  0  0  0
  7  9  1  0  0  0  0
  9 10  1  0  0  0  0
  9 11  1  0  0  0  0
  9 26  1  0  0  0  0
 11 12  1  0  0  0  0
 11 13  1  0  0  0  0
 11 14  1  0  0  0  0
 14 15  1  0  0  0  0
 14 16  1  0  0  0  0
 14 17  1  0  0  0  0
 17 18  1  0  0  0  0
 17 19  1  0  0  0  0
 17 20  1  0  0  0  0
 20 21  1  0  0  0  0
 20 22  1  0  0  0  0
 20 23  1  0  0  0  0
 23 24  1  0  0  0  0
 23 25  1  0  0  0  0
 26 27  2  0  0  0  0
 26 28  1  0  0  0  0
 28 29  1  0  0  0  0
 28 30  1  0  0  0  0
 30 31  1  0  0  0  0
 30 32  1  0  0  0  0
 30 33  1  0  0  0  0
M  END
$$$$

  -OEChem-03222214063D

 33 32  0     1  0  0  0  0  0999 V2000
   -2.8885   -4.8492    0.5377 H   0  0  0  0  0  0  0  0  0  0  0  0
   -2.8907   -3.8379    0.1210 C   0  0  0  0  0  0  0  0  0  0  0  0
   -3.7010   -3.2690    0.5832 H   0  0  0  0  0  0  0  0  0  0  0  0
   -3.0659   -3.9027   -0.9556 H   0  0  0  0  0  0  0  0  0  0  0  0
   -1.5603   -3.1606    0.3906 C   0  0  0  0  0  0  0  0  0  0  0  0
   -0.7083   -3.7409    1.0381 O   0  0  0  0  0  0  0  0  0  0  0  0
   -1.3299   -1.8897   -0.1005 N   0  0  0  0  0  0  0  0  0  0  0  0
   -2.0426   -1.5064   -0.7140 H   0  0  0  0  0  0  0  0  0  0  0  0
   -0.0378   -1.1805   -0.0103 C   0  0  1  0  0  0  0  0  0  0  0  0
    0.7372   -1.7968   -0.4802 H   0  0  0  0  0  0  0  0  0  0  0  0
   -0.1709    0.1234   -0.8437 C   0  0  0  0  0  0  0  0  0  0  0  0
    0.0293   -0.1006   -1.8969 H   0  0  0  0  0  0  0  0  0  0  0  0
   -1.2139    0.4509   -0.7829 H   0  0  0  0  0  0  0  0  0  0  0  0
    0.6724    1.3343   -0.3911 C   0  0  0  0  0  0  0  0  0  0  0  0
    0.1535    2.2479   -0.6998 H   0  0  0  0  0  0  0  0  0  0  0  0
    0.7803    1.3924    0.6947 H   0  0  0  0  0  0  0  0  0  0  0  0
    2.0428    1.3194   -1.0770 C   0  0  0  0  0  0  0  0  0  0  0  0
    2.5414    0.3651   -0.8765 H   0  0  0  0  0  0  0  0  0  0  0  0
    1.9173    1.4153   -2.1606 H   0  0  0  0  0  0  0  0  0  0  0  0
    2.9175    2.4580   -0.5627 C   0  0  0  0  0  0  0  0  0  0  0  0
    2.4243    3.4206   -0.7371 H   0  0  0  0  0  0  0  0  0  0  0  0
    3.0776    2.3467    0.5158 H   0  0  0  0  0  0  0  0  0  0  0  0
    4.2001    2.4163   -1.2709 N   0  0  0  0  0  0  0  0  0  0  0  0
    4.8262    3.1503   -0.9403 H   0  0  0  0  0  0  0  0  0  0  0  0
    4.6359    1.4986   -1.1724 H   0  0  0  0  0  0  0  0  0  0  0  0
    0.4252   -0.9731    1.4530 C   0  0  0  0  0  0  0  0  0  0  0  0
    1.6180   -1.0039    1.7298 O   0  0  0  0  0  0  0  0  0  0  0  0
   -0.4754   -0.5351    2.4081 N   0  0  0  0  0  0  0  0  0  0  0  0
   -1.4570   -0.6209    2.1674 H   0  0  0  0  0  0  0  0  0  0  0  0
   -0.1103   -0.3456    3.8060 C   0  0  0  0  0  0  0  0  0  0  0  0
    0.6820    0.4048    3.8968 H   0  0  0  0  0  0  0  0  0  0  0  0
   -0.9760   -0.0030    4.3804 H   0  0  0  0  0  0  0  0  0  0  0  0
    0.2441   -1.2874    4.2384 H   0  0  0  0  0  0  0  0  0  0  0  0
  1  2  1  0  0  0  0
  2  3  1  0  0  0  0
  2  4  1  0  0  0  0
  2  5  1  0  0  0  0
  5  6  2  0  0  0  0
  5  7  1  0  0  0  0
  7  8  1  0  0  0  0
  7  9  1  0  0  0  0
  9 10  1  0  0  0  0
  9 11  1  0  0  0  0
  9 26  1  0  0  0  0
 11 12  1  0  0  0  0
 11 13  1  0  0  0  0
 11 14  1  0  0  0  0
 14 15  1  0  0  0  0
 14 16  1  0  0  0  0
 14 17  1  0  0  0  0
 17 18  1  0  0  0  0
 17 19  1  0  0  0  0
 17 20  1  0  0  0  0
 20 21  1  0  0  0  0
 20 22  1  0  0  0  0
 20 23  1  0  0  0  0
 23 24  1  0  0  0  0
 23 25  1  0  0  0  0
 26 27  2  0  0  0  0
 26 28  1  0  0  0  0
 28 29  1  0  0  0  0
 28 30  1  0  0  0  0
 30 31  1  0  0  0  0
 30 32  1  0  0  0  0
 30 33  1  0  0  0  0
M  END
$$$$

  -OEChem-03222214063D

 33 32  0     1  0  0  0  0  0999 V2000
   -2.9035   -4.8370    0.5111 H   0  0  0  0  0  0  0  0  0  0  0  0
   -2.8982   -3.8204    0.1074 C   0  0  0  0  0  0  0  0  0  0  0  0
   -3.7034   -3.2515    0.5782 H   0  0  0  0  0  0  0  0  0  0  0  0
   -3.0760   -3.8706   -0.9695 H   0  0  0  0  0  0  0  0  0  0  0  0
   -1.5618   -3.1573    0.3839 C   0  0  0  0  0  0  0  0  0  0  0  0
   -0.7181   -3.7492    1.0317 O   0  0  0  0  0  0  0  0  0  0  0  0
   -1.3173   -1.8851   -0.0978 N   0  0  0  0  0  0  0  0  0  0  0  0
   -2.0256   -1.4889   -0.7082 H   0  0  0  0  0  0  0  0  0  0  0  0
   -0.0214   -1.1836    0.0095 C   0  0  1  0  0  0  0  0  0  0  0  0
    0.7563   -1.7989   -0.4569 H   0  0  0  0  0  0  0  0  0  0  0  0
   -0.1478    0.1266   -0.8164 C   0  0  0  0  0  0  0  0  0  0  0  0
    0.0544   -0.1011   -1.8682 H   0  0  0  0  0  0  0  0  0  0  0  0
   -1.1923    0.4508   -0.7638 H   0  0  0  0  0  0  0  0  0  0  0  0
    0.6882    1.3489   -0.3668 C   0  0  0  0  0  0  0  0  0  0  0  0
    0.0540    2.2402   -0.4224 H   0  0  0  0  0  0  0  0  0  0  0  0
    1.0328    1.2782    0.6665 H   0  0  0  0  0  0  0  0  0  0  0  0
    1.8832    1.5572   -1.3033 C   0  0  0  0  0  0  0  0  0  0  0  0
    2.4860    0.6434   -1.3333 H   0  0  0  0  0  0  0  0  0  0  0  0
    1.5273    1.7640   -2.3180 H   0  0  0  0  0  0  0  0  0  0  0  0
    2.7533    2.7152   -0.8247 C   0  0  0  0  0  0  0  0  0  0  0  0
    2.1602    3.6346   -0.7662 H   0  0  0  0  0  0  0  0  0  0  0  0
    3.1465    2.4994    0.1753 H   0  0  0  0  0  0  0  0  0  0  0  0
    3.8561    2.8911   -1.7741 N   0  0  0  0  0  0  0  0  0  0  0  0
    4.4724    3.6506   -1.4848 H   0  0  0  0  0  0  0  0  0  0  0  0
    4.3802    2.0226   -1.8845 H   0  0  0  0  0  0  0  0  0  0  0  0
    0.4216   -0.9897    1.4805 C   0  0  0  0  0  0  0  0  0  0  0  0
    1.6085   -1.0493    1.7769 O   0  0  0  0  0  0  0  0  0  0  0  0
   -0.4884   -0.5528    2.4268 N   0  0  0  0  0  0  0  0  0  0  0  0
   -1.4670   -0.6136    2.1671 H   0  0  0  0  0  0  0  0  0  0  0  0
   -0.1437   -0.3930    3.8336 C   0  0  0  0  0  0  0  0  0  0  0  0
    0.6462    0.3562    3.9521 H   0  0  0  0  0  0  0  0  0  0  0  0
   -1.0185   -0.0651    4.4028 H   0  0  0  0  0  0  0  0  0  0  0  0
    0.2065   -1.3432    4.2508 H   0  0  0  0  0  0  0  0  0  0  0  0
  1  2  1  0  0  0  0
  2  3  1  0  0  0  0
  2  4  1  0  0  0  0
  2  5  1  0  0  0  0
  5  6  2  0  0  0  0
  5  7  1  0  0  0  0
  7  8  1  0  0  0  0
  7  9  1  0  0  0  0
  9 10  1  0  0  0  0
  9 11  1  0  0  0  0
  9 26  1  0  0  0  0
 11 12  1  0  0  0  0
 11 13  1  0  0  0  0
 11 14  1  0  0  0  0
 14 15  1  0  0  0  0
 14 16  1  0  0  0  0
 14 17  1  0  0  0  0
 17 18  1  0  0  0  0
 17 19  1  0  0  0  0
 17 20  1  0  0  0  0
 20 21  1  0  0  0  0
 20 22  1  0  0  0  0
 20 23  1  0  0  0  0
 23 24  1  0  0  0  0
 23 25  1  0  0  0  0
 26 27  2  0  0  0  0
 26 28  1  0  0  0  0
 28 29  1  0  0  0  0
 28 30  1  0  0  0  0
 30 31  1  0  0  0  0
 30 32  1  0  0  0  0
 30 33  1  0  0  0  0
M  END
$$$$

  -OEChem-03222214063D

 33 32  0     1  0  0  0  0  0999 V2000
   -2.9333   -4.8077    0.5156 H   0  0  0  0  0  0  0  0  0  0  0  0
   -2.9099   -3.7926    0.1086 C   0  0  0  0  0  0  0  0  0  0  0  0
   -3.7001   -3.2054    0.5825 H   0  0  0  0  0  0  0  0  0  0  0  0
   -3.0951   -3.8426   -0.9671 H   0  0  0  0  0  0  0  0  0  0  0  0
   -1.5596   -3.1544    0.3753 C   0  0  0  0  0  0  0  0  0  0  0  0
   -0.7188   -3.7653    1.0091 O   0  0  0  0  0  0  0  0  0  0  0  0
   -1.2990   -1.8842   -0.1034 N   0  0  0  0  0  0  0  0  0  0  0  0
   -2.0076   -1.4721   -0.7027 H   0  0  0  0  0  0  0  0  0  0  0  0
    0.0028   -1.1951    0.0102 C   0  0  1  0  0  0  0  0  0  0  0  0
    0.7811   -1.8067   -0.4600 H   0  0  0  0  0  0  0  0  0  0  0  0
   -0.1287    0.1287   -0.7931 C   0  0  0  0  0  0  0  0  0  0  0  0
    0.0846   -0.0954   -1.8437 H   0  0  0  0  0  0  0  0  0  0  0  0
   -1.1728    0.4561   -0.7515 H   0  0  0  0  0  0  0  0  0  0  0  0
    0.7149    1.3431   -0.3319 C   0  0  0  0  0  0  0  0  0  0  0  0
    0.0424    2.1651   -0.0648 H   0  0  0  0  0  0  0  0  0  0  0  0
    1.3191    1.1233    0.5499 H   0  0  0  0  0  0  0  0  0  0  0  0
    1.6595    1.8007   -1.4495 C   0  0  0  0  0  0  0  0  0  0  0  0
    2.3123    0.9710   -1.7403 H   0  0  0  0  0  0  0  0  0  0  0  0
    1.0754    2.0981   -2.3268 H   0  0  0  0  0  0  0  0  0  0  0  0
    2.5158    2.9767   -0.9903 C   0  0  0  0  0  0  0  0  0  0  0  0
    1.8755    3.8096   -0.6794 H   0  0  0  0  0  0  0  0  0  0  0  0
    3.1305    2.6809   -0.1326 H   0  0  0  0  0  0  0  0  0  0  0  0
    3.3706    3.3925   -2.1060 N   0  0  0  0  0  0  0  0  0  0  0  0
    3.9647    4.1780   -1.8407 H   0  0  0  0  0  0  0  0  0  0  0  0
    3.9333    2.6113   -2.4434 H   0  0  0  0  0  0  0  0  0  0  0  0
    0.4284   -1.0132    1.4889 C   0  0  0  0  0  0  0  0  0  0  0  0
    1.6070   -1.1095    1.8075 O   0  0  0  0  0  0  0  0  0  0  0  0
   -0.4900   -0.5720    2.4253 N   0  0  0  0  0  0  0  0  0  0  0  0
   -1.4645   -0.6000    2.1458 H   0  0  0  0  0  0  0  0  0  0  0  0
   -0.1673   -0.4184    3.8379 C   0  0  0  0  0  0  0  0  0  0  0  0
    0.6280    0.3225    3.9705 H   0  0  0  0  0  0  0  0  0  0  0  0
   -1.0482   -0.0818    4.3925 H   0  0  0  0  0  0  0  0  0  0  0  0
    0.1654   -1.3727    4.2600 H   0  0  0  0  0  0  0  0  0  0  0  0
  1  2  1  0  0  0  0
  2  3  1  0  0  0  0
  2  4  1  0  0  0  0
  2  5  1  0  0  0  0
  5  6  2  0  0  0  0
  5  7  1  0  0  0  0
  7  8  1  0  0  0  0
  7  9  1  0  0  0  0
  9 10  1  0  0  0  0
  9 11  1  0  0  0  0
  9 26  1  0  0  0  0
 11 12  1  0  0  0  0
 11 13  1  0  0  0  0
 11 14  1  0  0  0  0
 14 15  1  0  0  0  0
 14 16  1  0  0  0  0
 14 17  1  0  0  0  0
 17 18  1  0  0  0  0
 17 19  1  0  0  0  0
 17 20  1  0  0  0  0
 20 21  1  0  0  0  0
 20 22  1  0  0  0  0
 20 23  1  0  0  0  0
 23 24  1  0  0  0  0
 23 25  1  0  0  0  0
 26 27  2  0  0  0  0
 26 28  1  0  0  0  0
 28 29  1  0  0  0  0
 28 30  1  0  0  0  0
 30 31  1  0  0  0  0
 30 32  1  0  0  0  0
 30 33  1  0  0  0  0
M  END
$$$$

  -OEChem-03222214063D

 33 32  0     1  0  0  0  0  0999 V2000
   -2.9498   -4.7905    0.5327 H   0  0  0  0  0  0  0  0  0  0  0  0
   -2.9211   -3.7792    0.1168 C   0  0  0  0  0  0  0  0  0  0  0  0
   -3.7076   -3.1837    0.5866 H   0  0  0  0  0  0  0  0  0  0  0  0
   -3.1083   -3.8367   -0.9582 H   0  0  0  0  0  0  0  0  0  0  0  0
   -1.5660   -3.1479    0.3760 C   0  0  0  0  0  0  0  0  0  0  0  0
   -0.7269   -3.7602    1.0107 O   0  0  0  0  0  0  0  0  0  0  0  0
   -1.2989   -1.8824   -0.1110 N   0  0  0  0  0  0  0  0  0  0  0  0
   -2.0053   -1.4711   -0.7136 H   0  0  0  0  0  0  0  0  0  0  0  0
    0.0070   -1.2004   -0.0055 C   0  0  1  0  0  0  0  0  0  0  0  0
    0.7820   -1.8115   -0.4820 H   0  0  0  0  0  0  0  0  0  0  0  0
   -0.1316    0.1295   -0.7937 C   0  0  0  0  0  0  0  0  0  0  0  0
    0.0971   -0.0927   -1.8415 H   0  0  0  0  0  0  0  0  0  0  0  0
   -1.1734    0.4655   -0.7625 H   0  0  0  0  0  0  0  0  0  0  0  0
    0.7291    1.3213   -0.3147 C   0  0  0  0  0  0  0  0  0  0  0  0
    0.1078    2.0192    0.2564 H   0  0  0  0  0  0  0  0  0  0  0  0
    1.5406    0.9884    0.3369 H   0  0  0  0  0  0  0  0  0  0  0  0
    1.3863    2.0313   -1.5041 C   0  0  0  0  0  0  0  0  0  0  0  0
    2.0224    1.3265   -2.0496 H   0  0  0  0  0  0  0  0  0  0  0  0
    0.6120    2.3907   -2.1898 H   0  0  0  0  0  0  0  0  0  0  0  0
    2.2310    3.2112   -1.0328 C   0  0  0  0  0  0  0  0  0  0  0  0
    1.6100    3.9198   -0.4733 H   0  0  0  0  0  0  0  0  0  0  0  0
    3.0292    2.8597   -0.3693 H   0  0  0  0  0  0  0  0  0  0  0  0
    2.8047    3.8704   -2.2097 N   0  0  0  0  0  0  0  0  0  0  0  0
    3.3745    4.6724   -1.9404 H   0  0  0  0  0  0  0  0  0  0  0  0
    3.3476    3.2114   -2.7679 H   0  0  0  0  0  0  0  0  0  0  0  0
    0.4376   -1.0124    1.4717 C   0  0  0  0  0  0  0  0  0  0  0  0
    1.6144   -1.1241    1.7920 O   0  0  0  0  0  0  0  0  0  0  0  0
   -0.4760   -0.5603    2.4075 N   0  0  0  0  0  0  0  0  0  0  0  0
   -1.4512   -0.5852    2.1301 H   0  0  0  0  0  0  0  0  0  0  0  0
   -0.1501   -0.4083    3.8196 C   0  0  0  0  0  0  0  0  0  0  0  0
    0.6554    0.3218    3.9504 H   0  0  0  0  0  0  0  0  0  0  0  0
   -1.0257   -0.0586    4.3746 H   0  0  0  0  0  0  0  0  0  0  0  0
    0.1705   -1.3662    4.2428 H   0  0  0  0  0  0  0  0  0  0  0  0
  1  2  1  0  0  0  0
  2  3  1  0  0  0  0
  2  4  1  0  0  0  0
  2  5  1  0  0  0  0
  5  6  2  0  0  0  0
  5  7  1  0  0  0  0
  7  8  1  0  0  0  0
  7  9  1  0  0  0  0
  9 10  1  0  0  0  0
  9 11  1  0  0  0  0
  9 26  1  0  0  0  0
 11 12  1  0  0  0  0
 11 13  1  0  0  0  0
 11 14  1  0  0  0  0
 14 15  1  0  0  0  0
 14 16  1  0  0  0  0
 14 17  1  0  0  0  0
 17 18  1  0  0  0  0
 17 19  1  0  0  0  0
 17 20  1  0  0  0  0
 20 21  1  0  0  0  0
 20 22  1  0  0  0  0
 20 23  1  0  0  0  0
 23 24  1  0  0  0  0
 23 25  1  0  0  0  0
 26 27  2  0  0  0  0
 26 28  1  0  0  0  0
 28 29  1  0  0  0  0
 28 30  1  0  0  0  0
 30 31  1  0  0  0  0
 30 32  1  0  0  0  0
 30 33  1  0  0  0  0
M  END
$$$$

  -OEChem-03222214063D

 33 32  0     1  0  0  0  0  0999 V2000
   -2.9464   -4.7950    0.5505 H   0  0  0  0  0  0  0  0  0  0  0  0
   -2.9243   -3.7854    0.1304 C   0  0  0  0  0  0  0  0  0  0  0  0
   -3.7036   -3.1886    0.6099 H   0  0  0  0  0  0  0  0  0  0  0  0
   -3.1275   -3.8472   -0.9415 H   0  0  0  0  0  0  0  0  0  0  0  0
   -1.5659   -3.1525    0.3670 C   0  0  0  0  0  0  0  0  0  0  0  0
   -0.7148   -3.7634    0.9870 O   0  0  0  0  0  0  0  0  0  0  0  0
   -1.3091   -1.8860   -0.1227 N   0  0  0  0  0  0  0  0  0  0  0  0
   -2.0294   -1.4700   -0.7052 H   0  0  0  0  0  0  0  0  0  0  0  0
   -0.0066   -1.1972   -0.0268 C   0  0  1  0  0  0  0  0  0  0  0  0
    0.7661   -1.8060   -0.5093 H   0  0  0  0  0  0  0  0  0  0  0  0
   -0.1492    0.1329   -0.8103 C   0  0  0  0  0  0  0  0  0  0  0  0
    0.0933   -0.0818   -1.8564 H   0  0  0  0  0  0  0  0  0  0  0  0
   -1.1895    0.4736   -0.7846 H   0  0  0  0  0  0  0  0  0  0  0  0
    0.7227    1.3017   -0.3102 C   0  0  0  0  0  0  0  0  0  0  0  0
    0.2003    1.8454    0.4843 H   0  0  0  0  0  0  0  0  0  0  0  0
    1.6635    0.9222    0.1007 H   0  0  0  0  0  0  0  0  0  0  0  0
    1.0852    2.2404   -1.4661 C   0  0  0  0  0  0  0  0  0  0  0  0
    1.6394    1.6885   -2.2322 H   0  0  0  0  0  0  0  0  0  0  0  0
    0.1691    2.6290   -1.9228 H   0  0  0  0  0  0  0  0  0  0  0  0
    1.9351    3.4060   -0.9700 C   0  0  0  0  0  0  0  0  0  0  0  0
    1.3965    3.9610   -0.1939 H   0  0  0  0  0  0  0  0  0  0  0  0
    2.8688    3.0323   -0.5345 H   0  0  0  0  0  0  0  0  0  0  0  0
    2.2223    4.2875   -2.1059 N   0  0  0  0  0  0  0  0  0  0  0  0
    2.7825    5.0896   -1.8167 H   0  0  0  0  0  0  0  0  0  0  0  0
    2.6842    3.7751   -2.8573 H   0  0  0  0  0  0  0  0  0  0  0  0
    0.4406   -1.0018    1.4447 C   0  0  0  0  0  0  0  0  0  0  0  0
    1.6238   -1.0904    1.7475 O   0  0  0  0  0  0  0  0  0  0  0  0
   -0.4643   -0.5517    2.3900 N   0  0  0  0  0  0  0  0  0  0  0  0
   -1.4431   -0.5832    2.1261 H   0  0  0  0  0  0  0  0  0  0  0  0
   -0.1188   -0.3735    3.7945 C   0  0  0  0  0  0  0  0  0  0  0  0
    0.6849    0.3627    3.9006 H   0  0  0  0  0  0  0  0  0  0  0  0
   -0.9879   -0.0177    4.3557 H   0  0  0  0  0  0  0  0  0  0  0  0
    0.2125   -1.3220    4.2304 H   0  0  0  0  0  0  0  0  0  0  0  0
  1  2  1  0  0  0  0
  2  3  1  0  0  0  0
  2  4  1  0  0  0  0
  2  5  1  0  0  0  0
  5  6  2  0  0  0  0
  5  7  1  0  0  0  0
  7  8  1  0  0  0  0
  7  9  1  0  0  0  0
  9 10  1  0  0  0  0
  9 11  1  0  0  0  0
  9 26  1  0  0  0  0
 11 12  1  0  0  0  0
 11 13  1  0  0  0  0
 11 14  1  0  0  0  0
 14 15  1  0  0  0  0
 14 16  1  0  0  0  0
 14 17  1  0  0  0  0
 17 18  1  0  0  0  0
 17 19  1  0  0  0  0
 17 20  1  0  0  0  0
 20 21  1  0  0  0  0
 20 22  1  0  0  0  0
 20 23  1  0  0  0  0
 23 24  1  0  0  0  0
 23 25  1  0  0  0  0
 26 27  2  0  0  0  0
 26 28  1  0  0  0  0
 28 29  1  0  0  0  0
 28 30  1  0  0  0  0
 30 31  1  0  0  0  0
 30 32  1  0  0  0  0
 30 33  1  0  0  0  0
M  END
$$$$

  -OEChem-03222214063D

 33 32  0     1  0  0  0  0  0999 V2000
   -2.9410   -4.8064    0.5465 H   0  0  0  0  0  0  0  0  0  0  0  0
   -2.9265   -3.7961    0.1274 C   0  0  0  0  0  0  0  0  0  0  0  0
   -3.7100   -3.2051    0.6076 H   0  0  0  0  0  0  0  0  0  0  0  0
   -3.1300   -3.8580   -0.9444 H   0  0  0  0  0  0  0  0  0  0  0  0
   -1.5727   -3.1534    0.3638 C   0  0  0  0  0  0  0  0  0  0  0  0
   -0.7161   -3.7582    0.9823 O   0  0  0  0  0  0  0  0  0  0  0  0
   -1.3257   -1.8841   -0.1230 N   0  0  0  0  0  0  0  0  0  0  0  0
   -2.0504   -1.4697   -0.7010 H   0  0  0  0  0  0  0  0  0  0  0  0
   -0.0261   -1.1901   -0.0330 C   0  0  1  0  0  0  0  0  0  0  0  0
    0.7430   -1.8008   -0.5194 H   0  0  0  0  0  0  0  0  0  0  0  0
   -0.1644    0.1376   -0.8197 C   0  0  0  0  0  0  0  0  0  0  0  0
    0.0797   -0.0687   -1.8671 H   0  0  0  0  0  0  0  0  0  0  0  0
   -1.2038    0.4809   -0.7877 H   0  0  0  0  0  0  0  0  0  0  0  0
    0.7140    1.2929   -0.3085 C   0  0  0  0  0  0  0  0  0  0  0  0
    0.3141    1.6805    0.6347 H   0  0  0  0  0  0  0  0  0  0  0  0
    1.7308    0.9286   -0.1246 H   0  0  0  0  0  0  0  0  0  0  0  0
    0.7851    2.4158   -1.3487 C   0  0  0  0  0  0  0  0  0  0  0  0
    1.2150    2.0315   -2.2795 H   0  0  0  0  0  0  0  0  0  0  0  0
   -0.2249    2.7791   -1.5662 H   0  0  0  0  0  0  0  0  0  0  0  0
    1.6374    3.5729   -0.8365 C   0  0  0  0  0  0  0  0  0  0  0  0
    1.2194    3.9622    0.0987 H   0  0  0  0  0  0  0  0  0  0  0  0
    2.6578    3.2279   -0.6349 H   0  0  0  0  0  0  0  0  0  0  0  0
    1.6502    4.6266   -1.8557 N   0  0  0  0  0  0  0  0  0  0  0  0
    2.1967    5.4306   -1.5466 H   0  0  0  0  0  0  0  0  0  0  0  0
    2.0008    4.2701   -2.7446 H   0  0  0  0  0  0  0  0  0  0  0  0
    0.4399   -0.9928    1.4321 C   0  0  0  0  0  0  0  0  0  0  0  0
    1.6308   -1.0512    1.7112 O   0  0  0  0  0  0  0  0  0  0  0  0
   -0.4538   -0.5476    2.3904 N   0  0  0  0  0  0  0  0  0  0  0  0
   -1.4368   -0.5964    2.1452 H   0  0  0  0  0  0  0  0  0  0  0  0
   -0.0853   -0.3545    3.7870 C   0  0  0  0  0  0  0  0  0  0  0  0
    0.7125    0.3905    3.8731 H   0  0  0  0  0  0  0  0  0  0  0  0
   -0.9477   -0.0033    4.3611 H   0  0  0  0  0  0  0  0  0  0  0  0
    0.2635   -1.2962    4.2238 H   0  0  0  0  0  0  0  0  0  0  0  0
  1  2  1  0  0  0  0
  2  3  1  0  0  0  0
  2  4  1  0  0  0  0
  2  5  1  0  0  0  0
  5  6  2  0  0  0  0
  5  7  1  0  0  0  0
  7  8  1  0  0  0  0
  7  9  1  0  0  0  0
  9 10  1  0  0  0  0
  9 11  1  0  0  0  0
  9 26  1  0  0  0  0
 11 12  1  0  0  0  0
 11 13  1  0  0  0  0
 11 14  1  0  0  0  0
 14 15  1  0  0  0  0
 14 16  1  0  0  0  0
 14 17  1  0  0  0  0
 17 18  1  0  0  0  0
 17 19  1  0  0  0  0
 17 20  1  0  0  0  0
 20 21  1  0  0  0  0
 20 22  1  0  0  0  0
 20 23  1  0  0  0  0
 23 24  1  0  0  0  0
 23 25  1  0  0  0  0
 26 27  2  0  0  0  0
 26 28  1  0  0  0  0
 28 29  1  0  0  0  0
 28 30  1  0  0  0  0
 30 31  1  0  0  0  0
 30 32  1  0  0  0  0
 30 33  1  0  0  0  0
M  END
$$$$

  -OEChem-03222214063D

 33 32  0     1  0  0  0  0  0999 V2000
   -2.9476   -4.8044    0.5614 H   0  0  0  0  0  0  0  0  0  0  0  0
   -2.9330   -3.7966    0.1360 C   0  0  0  0  0  0  0  0  0  0  0  0
   -3.7149   -3.2019    0.6144 H   0  0  0  0  0  0  0  0  0  0  0  0
   -3.1387   -3.8653   -0.9350 H   0  0  0  0  0  0  0  0  0  0  0  0
   -1.5779   -3.1537    0.3656 C   0  0  0  0  0  0  0  0  0  0  0  0
   -0.7227   -3.7532    0.9912 O   0  0  0  0  0  0  0  0  0  0  0  0
   -1.3286   -1.8891   -0.1326 N   0  0  0  0  0  0  0  0  0  0  0  0
   -2.0526   -1.4776   -0.7138 H   0  0  0  0  0  0  0  0  0  0  0  0
   -0.0280   -1.1973   -0.0472 C   0  0  1  0  0  0  0  0  0  0  0  0
    0.7372   -1.8121   -0.5343 H   0  0  0  0  0  0  0  0  0  0  0  0
   -0.1715    0.1217   -0.8391 C   0  0  0  0  0  0  0  0  0  0  0  0
   -0.2030   -0.1126   -1.9082 H   0  0  0  0  0  0  0  0  0  0  0  0
   -1.1242    0.5915   -0.5724 H   0  0  0  0  0  0  0  0  0  0  0  0
    0.9444    1.1470   -0.5770 C   0  0  0  0  0  0  0  0  0  0  0  0
    0.9660    1.4253    0.4817 H   0  0  0  0  0  0  0  0  0  0  0  0
    1.9147    0.7063   -0.8308 H   0  0  0  0  0  0  0  0  0  0  0  0
    0.7109    2.4134   -1.4081 C   0  0  0  0  0  0  0  0  0  0  0  0
    0.7117    2.1589   -2.4728 H   0  0  0  0  0  0  0  0  0  0  0  0
   -0.2662    2.8425   -1.1630 H   0  0  0  0  0  0  0  0  0  0  0  0
    1.7966    3.4490   -1.1317 C   0  0  0  0  0  0  0  0  0  0  0  0
    1.7989    3.7148   -0.0685 H   0  0  0  0  0  0  0  0  0  0  0  0
    2.7812    3.0377   -1.3813 H   0  0  0  0  0  0  0  0  0  0  0  0
    1.5238    4.6390   -1.9440 N   0  0  0  0  0  0  0  0  0  0  0  0
    2.2132    5.3703   -1.7682 H   0  0  0  0  0  0  0  0  0  0  0  0
    1.4881    4.4048   -2.9360 H   0  0  0  0  0  0  0  0  0  0  0  0
    0.4485   -0.9817    1.4101 C   0  0  0  0  0  0  0  0  0  0  0  0
    1.6422   -1.0321    1.6789 O   0  0  0  0  0  0  0  0  0  0  0  0
   -0.4386   -0.5221    2.3672 N   0  0  0  0  0  0  0  0  0  0  0  0
   -1.4231   -0.5719    2.1286 H   0  0  0  0  0  0  0  0  0  0  0  0
   -0.0621   -0.3082    3.7585 C   0  0  0  0  0  0  0  0  0  0  0  0
    0.7397    0.4344    3.8290 H   0  0  0  0  0  0  0  0  0  0  0  0
   -0.9204    0.0565    4.3307 H   0  0  0  0  0  0  0  0  0  0  0  0
    0.2838   -1.2447    4.2086 H   0  0  0  0  0  0  0  0  0  0  0  0
  1  2  1  0  0  0  0
  2  3  1  0  0  0  0
  2  4  1  0  0  0  0
  2  5  1  0  0  0  0
  5  6  2  0  0  0  0
  5  7  1  0  0  0  0
  7  8  1  0  0  0  0
  7  9  1  0  0  0  0
  9 10  1  0  0  0  0
  9 11  1  0  0  0  0
  9 26  1  0  0  0  0
 11 12  1  0  0  0  0
 11 13  1  0  0  0  0
 11 14  1  0  0  0  0
 14 15  1  0  0  0  0
 14 16  1  0  0  0  0
 14 17  1  0  0  0  0
 17 18  1  0  0  0  0
 17 19  1  0  0  0  0
 17 20  1  0  0  0  0
 20 21  1  0  0  0  0
 20 22  1  0  0  0  0
 20 23  1  0  0  0  0
 23 24  1  0  0  0  0
 23 25  1  0  0  0  0
 26 27  2  0  0  0  0
 26 28  1  0  0  0  0
 28 29  1  0  0  0  0
 28 30  1  0  0  0  0
 30 31  1  0  0  0  0
 30 32  1  0  0  0  0
 30 33  1  0  0  0  0
M  END
$$$$

  -OEChem-03222214063D

 33 32  0     1  0  0  0  0  0999 V2000
   -2.9743   -4.7841    0.5490 H   0  0  0  0  0  0  0  0  0  0  0  0
   -2.9442   -3.7785    0.1196 C   0  0  0  0  0  0  0  0  0  0  0  0
   -3.7266   -3.1743    0.5852 H   0  0  0  0  0  0  0  0  0  0  0  0
   -3.1361   -3.8504   -0.9538 H   0  0  0  0  0  0  0  0  0  0  0  0
   -1.5857   -3.1479    0.3633 C   0  0  0  0  0  0  0  0  0  0  0  0
   -0.7376   -3.7610    0.9854 O   0  0  0  0  0  0  0  0  0  0  0  0
   -1.3241   -1.8816   -0.1237 N   0  0  0  0  0  0  0  0  0  0  0  0
   -2.0436   -1.4594   -0.7027 H   0  0  0  0  0  0  0  0  0  0  0  0
   -0.0171   -1.2024   -0.0316 C   0  0  1  0  0  0  0  0  0  0  0  0
    0.7438   -1.8202   -0.5213 H   0  0  0  0  0  0  0  0  0  0  0  0
   -0.1530    0.1211   -0.8212 C   0  0  0  0  0  0  0  0  0  0  0  0
   -0.2018   -0.1027   -1.8918 H   0  0  0  0  0  0  0  0  0  0  0  0
   -1.1042    0.5839   -0.5371 H   0  0  0  0  0  0  0  0  0  0  0  0
    0.9586    1.1591   -0.5729 C   0  0  0  0  0  0  0  0  0  0  0  0
    1.1617    1.2696    0.4960 H   0  0  0  0  0  0  0  0  0  0  0  0
    1.8834    0.8270   -1.0567 H   0  0  0  0  0  0  0  0  0  0  0  0
    0.5356    2.5339   -1.1032 C   0  0  0  0  0  0  0  0  0  0  0  0
    0.3367    2.4671   -2.1776 H   0  0  0  0  0  0  0  0  0  0  0  0
   -0.3859    2.8558   -0.6071 H   0  0  0  0  0  0  0  0  0  0  0  0
    1.6263    3.5701   -0.8490 C   0  0  0  0  0  0  0  0  0  0  0  0
    1.8150    3.6586    0.2269 H   0  0  0  0  0  0  0  0  0  0  0  0
    2.5596    3.2619   -1.3332 H   0  0  0  0  0  0  0  0  0  0  0  0
    1.1784    4.8587   -1.3864 N   0  0  0  0  0  0  0  0  0  0  0  0
    1.8675    5.5900   -1.2105 H   0  0  0  0  0  0  0  0  0  0  0  0
    0.9706    4.7878   -2.3822 H   0  0  0  0  0  0  0  0  0  0  0  0
    0.4552   -1.0062    1.4297 C   0  0  0  0  0  0  0  0  0  0  0  0
    1.6466   -1.0785    1.7041 O   0  0  0  0  0  0  0  0  0  0  0  0
   -0.4311   -0.5481    2.3881 N   0  0  0  0  0  0  0  0  0  0  0  0
   -1.4150   -0.5775    2.1436 H   0  0  0  0  0  0  0  0  0  0  0  0
   -0.0565   -0.3443    3.7812 C   0  0  0  0  0  0  0  0  0  0  0  0
    0.7501    0.3925    3.8569 H   0  0  0  0  0  0  0  0  0  0  0  0
   -0.9134    0.0234    4.3535 H   0  0  0  0  0  0  0  0  0  0  0  0
    0.2821   -1.2855    4.2270 H   0  0  0  0  0  0  0  0  0  0  0  0
  1  2  1  0  0  0  0
  2  3  1  0  0  0  0
  2  4  1  0  0  0  0
  2  5  1  0  0  0  0
  5  6  2  0  0  0  0
  5  7  1  0  0  0  0
  7  8  1  0  0  0  0
  7  9  1  0  0  0  0
  9 10  1  0  0  0  0
  9 11  1  0  0  0  0
  9 26  1  0  0  0  0
 11 12  1  0  0  0  0
 11 13  1  0  0  0  0
 11 14  1  0  0  0  0
 14 15  1  0  0  0  0
 14 16  1  0  0  0  0
 14 17  1  0  0  0  0
 17 18  1  0  0  0  0
 17 19  1  0  0  0  0
 17 20  1  0  0  0  0
 20 21  1  0  0  0  0
 20 22  1  0  0  0  0
 20 23  1  0  0  0  0
 23 24  1  0  0  0  0
 23 25  1  0  0  0  0
 26 27  2  0  0  0  0
 26 28  1  0  0  0  0
 28 29  1  0  0  0  0
 28 30  1  0  0  0  0
 30 31  1  0  0  0  0
 30 32  1  0  0  0  0
 30 33  1  0  0  0  0
M  END
$$$$

  -OEChem-03222214063D

 33 32  0     1  0  0  0  0  0999 V2000
   -2.9958   -4.7622    0.5635 H   0  0  0  0  0  0  0  0  0  0  0  0
   -2.9551   -3.7561    0.1360 C   0  0  0  0  0  0  0  0  0  0  0  0
   -3.7193   -3.1395    0.6151 H   0  0  0  0  0  0  0  0  0  0  0  0
   -3.1653   -3.8213   -0.9343 H   0  0  0  0  0  0  0  0  0  0  0  0
   -1.5829   -3.1491    0.3600 C   0  0  0  0  0  0  0  0  0  0  0  0
   -0.7335   -3.7806    0.9614 O   0  0  0  0  0  0  0  0  0  0  0  0
   -1.3102   -1.8841   -0.1245 N   0  0  0  0  0  0  0  0  0  0  0  0
   -2.0352   -1.4433   -0.6823 H   0  0  0  0  0  0  0  0  0  0  0  0
    0.0020   -1.2147   -0.0300 C   0  0  1  0  0  0  0  0  0  0  0  0
    0.7621   -1.8328   -0.5208 H   0  0  0  0  0  0  0  0  0  0  0  0
   -0.1345    0.1123   -0.8162 C   0  0  0  0  0  0  0  0  0  0  0  0
   -0.1997   -0.1049   -1.8872 H   0  0  0  0  0  0  0  0  0  0  0  0
   -1.0859    0.5659   -0.5182 H   0  0  0  0  0  0  0  0  0  0  0  0
    0.9724    1.1638   -0.5838 C   0  0  0  0  0  0  0  0  0  0  0  0
    1.3812    1.1020    0.4271 H   0  0  0  0  0  0  0  0  0  0  0  0
    1.7966    0.9802   -1.2810 H   0  0  0  0  0  0  0  0  0  0  0  0
    0.4205    2.5832   -0.7635 C   0  0  0  0  0  0  0  0  0  0  0  0
    0.0260    2.6960   -1.7782 H   0  0  0  0  0  0  0  0  0  0  0  0
   -0.3992    2.7553   -0.0583 H   0  0  0  0  0  0  0  0  0  0  0  0
    1.5100    3.6233   -0.5207 C   0  0  0  0  0  0  0  0  0  0  0  0
    1.8955    3.5305    0.5010 H   0  0  0  0  0  0  0  0  0  0  0  0
    2.3436    3.4654   -1.2141 H   0  0  0  0  0  0  0  0  0  0  0  0
    0.9334    4.9570   -0.7183 N   0  0  0  0  0  0  0  0  0  0  0  0
    1.6214    5.6867   -0.5305 H   0  0  0  0  0  0  0  0  0  0  0  0
    0.5478    5.0541   -1.6574 H   0  0  0  0  0  0  0  0  0  0  0  0
    0.4635   -1.0297    1.4370 C   0  0  0  0  0  0  0  0  0  0  0  0
    1.6482   -1.1386    1.7279 O   0  0  0  0  0  0  0  0  0  0  0  0
   -0.4267   -0.5691    2.3909 N   0  0  0  0  0  0  0  0  0  0  0  0
   -1.4075   -0.5705    2.1331 H   0  0  0  0  0  0  0  0  0  0  0  0
   -0.0641   -0.3738    3.7887 C   0  0  0  0  0  0  0  0  0  0  0  0
    0.7469    0.3569    3.8757 H   0  0  0  0  0  0  0  0  0  0  0  0
   -0.9241   -0.0022    4.3536 H   0  0  0  0  0  0  0  0  0  0  0  0
    0.2632   -1.3190    4.2344 H   0  0  0  0  0  0  0  0  0  0  0  0
  1  2  1  0  0  0  0
  2  3  1  0  0  0  0
  2  4  1  0  0  0  0
  2  5  1  0  0  0  0
  5  6  2  0  0  0  0
  5  7  1  0  0  0  0
  7  8  1  0  0  0  0
  7  9  1  0  0  0  0
  9 10  1  0  0  0  0
  9 11  1  0  0  0  0
  9 26  1  0  0  0  0
 11 12  1  0  0  0  0
 11 13  1  0  0  0  0
 11 14  1  0  0  0  0
 14 15  1  0  0  0  0
 14 16  1  0  0  0  0
 14 17  1  0  0  0  0
 17 18  1  0  0  0  0
 17 19  1  0  0  0  0
 17 20  1  0  0  0  0
 20 21  1  0  0  0  0
 20 22  1  0  0  0  0
 20 23  1  0  0  0  0
 23 24  1  0  0  0  0
 23 25  1  0  0  0  0
 26 27  2  0  0  0  0
 26 28  1  0  0  0  0
 28 29  1  0  0  0  0
 28 30  1  0  0  0  0
 30 31  1  0  0  0  0
 30 32  1  0  0  0  0
 30 33  1  0  0  0  0
M  END
$$$$

  -OEChem-03222214063D

 33 32  0     1  0  0  0  0  0999 V2000
   -3.0026   -4.7580    0.5889 H   0  0  0  0  0  0  0  0  0  0  0  0
   -2.9596   -3.7546    0.1555 C   0  0  0  0  0  0  0  0  0  0  0  0
   -3.7181   -3.1322    0.6360 H   0  0  0  0  0  0  0  0  0  0  0  0
   -3.1763   -3.8242   -0.9133 H   0  0  0  0  0  0  0  0  0  0  0  0
   -1.5828   -3.1535    0.3680 C   0  0  0  0  0  0  0  0  0  0  0  0
   -0.7325   -3.7873    0.9656 O   0  0  0  0  0  0  0  0  0  0  0  0
   -1.3052   -1.8936   -0.1271 N   0  0  0  0  0  0  0  0  0  0  0  0
   -2.0293   -1.4547   -0.6873 H   0  0  0  0  0  0  0  0  0  0  0  0
    0.0096   -1.2274   -0.0403 C   0  0  1  0  0  0  0  0  0  0  0  0
    0.7691   -1.8442   -0.5336 H   0  0  0  0  0  0  0  0  0  0  0  0
   -0.1383    0.1022   -0.8202 C   0  0  0  0  0  0  0  0  0  0  0  0
   -0.2053   -0.1180   -1.8905 H   0  0  0  0  0  0  0  0  0  0  0  0
   -1.0941    0.5489   -0.5254 H   0  0  0  0  0  0  0  0  0  0  0  0
    0.9689    1.1595   -0.5989 C   0  0  0  0  0  0  0  0  0  0  0  0
    1.5913    0.9273    0.2675 H   0  0  0  0  0  0  0  0  0  0  0  0
    1.6323    1.1649   -1.4701 H   0  0  0  0  0  0  0  0  0  0  0  0
    0.3652    2.5549   -0.3950 C   0  0  0  0  0  0  0  0  0  0  0  0
   -0.2131    2.8360   -1.2811 H   0  0  0  0  0  0  0  0  0  0  0  0
   -0.3133    2.5414    0.4646 H   0  0  0  0  0  0  0  0  0  0  0  0
    1.4567    3.5915   -0.1462 C   0  0  0  0  0  0  0  0  0  0  0  0
    2.0153    3.3357    0.7614 H   0  0  0  0  0  0  0  0  0  0  0  0
    2.1605    3.6078   -0.9858 H   0  0  0  0  0  0  0  0  0  0  0  0
    0.8237    4.9052    0.0091 N   0  0  0  0  0  0  0  0  0  0  0  0
    1.5154    5.6246    0.2205 H   0  0  0  0  0  0  0  0  0  0  0  0
    0.2837    5.1525   -0.8197 H   0  0  0  0  0  0  0  0  0  0  0  0
    0.4697   -1.0335    1.4267 C   0  0  0  0  0  0  0  0  0  0  0  0
    1.6489   -1.1716    1.7271 O   0  0  0  0  0  0  0  0  0  0  0  0
   -0.4186   -0.5630    2.3774 N   0  0  0  0  0  0  0  0  0  0  0  0
   -1.3968   -0.5349    2.1120 H   0  0  0  0  0  0  0  0  0  0  0  0
   -0.0582   -0.3652    3.7753 C   0  0  0  0  0  0  0  0  0  0  0  0
    0.7555    0.3625    3.8618 H   0  0  0  0  0  0  0  0  0  0  0  0
   -0.9178    0.0109    4.3380 H   0  0  0  0  0  0  0  0  0  0  0  0
    0.2651   -1.3105    4.2239 H   0  0  0  0  0  0  0  0  0  0  0  0
  1  2  1  0  0  0  0
  2  3  1  0  0  0  0
  2  4  1  0  0  0  0
  2  5  1  0  0  0  0
  5  6  2  0  0  0  0
  5  7  1  0  0  0  0
  7  8  1  0  0  0  0
  7  9  1  0  0  0  0
  9 10  1  0  0  0  0
  9 11  1  0  0  0  0
  9 26  1  0  0  0  0
 11 12  1  0  0  0  0
 11 13  1  0  0  0  0
 11 14  1  0  0  0  0
 14 15  1  0  0  0  0
 14 16  1  0  0  0  0
 14 17  1  0  0  0  0
 17 18  1  0  0  0  0
 17 19  1  0  0  0  0
 17 20  1  0  0  0  0
 20 21  1  0  0  0  0
 20 22  1  0  0  0  0
 20 23  1  0  0  0  0
 23 24  1  0  0  0  0
 23 25  1  0  0  0  0
 26 27  2  0  0  0  0
 26 28  1  0  0  0  0
 28 29  1  0  0  0  0
 28 30  1  0  0  0  0
 30 31  1  0  0  0  0
 30 32  1  0  0  0  0
 30 33  1  0  0  0  0
M  END
$$$$

  -OEChem-03222214063D

 33 32  0     1  0  0  0  0  0999 V2000
   -2.9730   -4.7752    0.6374 H   0  0  0  0  0  0  0  0  0  0  0  0
   -2.9448   -3.7744    0.1966 C   0  0  0  0  0  0  0  0  0  0  0  0
   -3.6934   -3.1521    0.6926 H   0  0  0  0  0  0  0  0  0  0  0  0
   -3.1888   -3.8512   -0.8657 H   0  0  0  0  0  0  0  0  0  0  0  0
   -1.5654   -3.1666    0.3711 C   0  0  0  0  0  0  0  0  0  0  0  0
   -0.7010   -3.7906    0.9587 O   0  0  0  0  0  0  0  0  0  0  0  0
   -1.3034   -1.9097   -0.1405 N   0  0  0  0  0  0  0  0  0  0  0  0
   -2.0423   -1.4751   -0.6845 H   0  0  0  0  0  0  0  0  0  0  0  0
    0.0044   -1.2286   -0.0658 C   0  0  1  0  0  0  0  0  0  0  0  0
    0.7694   -1.8395   -0.5580 H   0  0  0  0  0  0  0  0  0  0  0  0
   -0.1620    0.0975   -0.8458 C   0  0  0  0  0  0  0  0  0  0  0  0
   -0.2064   -0.1370   -1.9143 H   0  0  0  0  0  0  0  0  0  0  0  0
   -1.1267    0.5414   -0.5774 H   0  0  0  0  0  0  0  0  0  0  0  0
    0.9452    1.1524   -0.6213 C   0  0  0  0  0  0  0  0  0  0  0  0
    1.7405    0.7785    0.0281 H   0  0  0  0  0  0  0  0  0  0  0  0
    1.4144    1.3748   -1.5853 H   0  0  0  0  0  0  0  0  0  0  0  0
    0.3671    2.4508   -0.0438 C   0  0  0  0  0  0  0  0  0  0  0  0
   -0.3449    2.8832   -0.7540 H   0  0  0  0  0  0  0  0  0  0  0  0
   -0.1693    2.2332    0.8859 H   0  0  0  0  0  0  0  0  0  0  0  0
    1.4749    3.4575    0.2498 C   0  0  0  0  0  0  0  0  0  0  0  0
    2.1663    3.0448    0.9934 H   0  0  0  0  0  0  0  0  0  0  0  0
    2.0434    3.6704   -0.6624 H   0  0  0  0  0  0  0  0  0  0  0  0
    0.8623    4.6875    0.7625 N   0  0  0  0  0  0  0  0  0  0  0  0
    1.5726    5.3721    1.0224 H   0  0  0  0  0  0  0  0  0  0  0  0
    0.2081    5.0810    0.0867 H   0  0  0  0  0  0  0  0  0  0  0  0
    0.4677   -1.0116    1.3978 C   0  0  0  0  0  0  0  0  0  0  0  0
    1.6473   -1.1441    1.6994 O   0  0  0  0  0  0  0  0  0  0  0  0
   -0.4215   -0.5387    2.3466 N   0  0  0  0  0  0  0  0  0  0  0  0
   -1.3983   -0.4971    2.0783 H   0  0  0  0  0  0  0  0  0  0  0  0
   -0.0578   -0.3159    3.7397 C   0  0  0  0  0  0  0  0  0  0  0  0
    0.7497    0.4203    3.8117 H   0  0  0  0  0  0  0  0  0  0  0  0
   -0.9186    0.0612    4.2998 H   0  0  0  0  0  0  0  0  0  0  0  0
    0.2752   -1.2514    4.2015 H   0  0  0  0  0  0  0  0  0  0  0  0
  1  2  1  0  0  0  0
  2  3  1  0  0  0  0
  2  4  1  0  0  0  0
  2  5  1  0  0  0  0
  5  6  2  0  0  0  0
  5  7  1  0  0  0  0
  7  8  1  0  0  0  0
  7  9  1  0  0  0  0
  9 10  1  0  0  0  0
  9 11  1  0  0  0  0
  9 26  1  0  0  0  0
 11 12  1  0  0  0  0
 11 13  1  0  0  0  0
 11 14  1  0  0  0  0
 14 15  1  0  0  0  0
 14 16  1  0  0  0  0
 14 17  1  0  0  0  0
 17 18  1  0  0  0  0
 17 19  1  0  0  0  0
 17 20  1  0  0  0  0
 20 21  1  0  0  0  0
 20 22  1  0  0  0  0
 20 23  1  0  0  0  0
 23 24  1  0  0  0  0
 23 25  1  0  0  0  0
 26 27  2  0  0  0  0
 26 28  1  0  0  0  0
 28 29  1  0  0  0  0
 28 30  1  0  0  0  0
 30 31  1  0  0  0  0
 30 32  1  0  0  0  0
 30 33  1  0  0  0  0
M  END
$$$$

  -OEChem-03222214063D

 33 32  0     1  0  0  0  0  0999 V2000
   -2.9453   -4.8066    0.6233 H   0  0  0  0  0  0  0  0  0  0  0  0
   -2.9320   -3.8027    0.1892 C   0  0  0  0  0  0  0  0  0  0  0  0
   -3.6869   -3.1932    0.6917 H   0  0  0  0  0  0  0  0  0  0  0  0
   -3.1787   -3.8764   -0.8726 H   0  0  0  0  0  0  0  0  0  0  0  0
   -1.5601   -3.1783    0.3625 C   0  0  0  0  0  0  0  0  0  0  0  0
   -0.6839   -3.7963    0.9388 O   0  0  0  0  0  0  0  0  0  0  0  0
   -1.3182   -1.9132   -0.1374 N   0  0  0  0  0  0  0  0  0  0  0  0
   -2.0682   -1.4798   -0.6668 H   0  0  0  0  0  0  0  0  0  0  0  0
   -0.0198   -1.2156   -0.0629 C   0  0  1  0  0  0  0  0  0  0  0  0
    0.7470   -1.8242   -0.5554 H   0  0  0  0  0  0  0  0  0  0  0  0
   -0.1851    0.1028   -0.8556 C   0  0  0  0  0  0  0  0  0  0  0  0
   -0.1981   -0.1496   -1.9211 H   0  0  0  0  0  0  0  0  0  0  0  0
   -1.1562    0.5514   -0.6207 H   0  0  0  0  0  0  0  0  0  0  0  0
    0.9186    1.1547   -0.6198 C   0  0  0  0  0  0  0  0  0  0  0  0
    1.8169    0.6938   -0.1976 H   0  0  0  0  0  0  0  0  0  0  0  0
    1.2085    1.5763   -1.5878 H   0  0  0  0  0  0  0  0  0  0  0  0
    0.4267    2.3033    0.2727 C   0  0  0  0  0  0  0  0  0  0  0  0
   -0.3794    2.8414   -0.2361 H   0  0  0  0  0  0  0  0  0  0  0  0
    0.0270    1.9063    1.2103 H   0  0  0  0  0  0  0  0  0  0  0  0
    1.5640    3.2673    0.5932 C   0  0  0  0  0  0  0  0  0  0  0  0
    2.3449    2.7464    1.1590 H   0  0  0  0  0  0  0  0  0  0  0  0
    2.0101    3.6463   -0.3329 H   0  0  0  0  0  0  0  0  0  0  0  0
    1.0246    4.3784    1.3843 N   0  0  0  0  0  0  0  0  0  0  0  0
    1.7642    5.0217    1.6670 H   0  0  0  0  0  0  0  0  0  0  0  0
    0.2901    4.8688    0.8750 H   0  0  0  0  0  0  0  0  0  0  0  0
    0.4585   -1.0019    1.3960 C   0  0  0  0  0  0  0  0  0  0  0  0
    1.6474   -1.0968    1.6743 O   0  0  0  0  0  0  0  0  0  0  0  0
   -0.4239   -0.5486    2.3606 N   0  0  0  0  0  0  0  0  0  0  0  0
   -1.4057   -0.5231    2.1097 H   0  0  0  0  0  0  0  0  0  0  0  0
   -0.0363   -0.2981    3.7424 C   0  0  0  0  0  0  0  0  0  0  0  0
    0.7519    0.4609    3.7874 H   0  0  0  0  0  0  0  0  0  0  0  0
   -0.8944    0.0623    4.3171 H   0  0  0  0  0  0  0  0  0  0  0  0
    0.3322   -1.2182    4.2077 H   0  0  0  0  0  0  0  0  0  0  0  0
  1  2  1  0  0  0  0
  2  3  1  0  0  0  0
  2  4  1  0  0  0  0
  2  5  1  0  0  0  0
  5  6  2  0  0  0  0
  5  7  1  0  0  0  0
  7  8  1  0  0  0  0
  7  9  1  0  0  0  0
  9 10  1  0  0  0  0
  9 11  1  0  0  0  0
  9 26  1  0  0  0  0
 11 12  1  0  0  0  0
 11 13  1  0  0  0  0
 11 14  1  0  0  0  0
 14 15  1  0  0  0  0
 14 16  1  0  0  0  0
 14 17  1  0  0  0  0
 17 18  1  0  0  0  0
 17 19  1  0  0  0  0
 17 20  1  0  0  0  0
 20 21  1  0  0  0  0
 20 22  1  0  0  0  0
 20 23  1  0  0  0  0
 23 24  1  0  0  0  0
 23 25  1  0  0  0  0
 26 27  2  0  0  0  0
 26 28  1  0  0  0  0
 28 29  1  0  0  0  0
 28 30  1  0  0  0  0
 30 31  1  0  0  0  0
 30 32  1  0  0  0  0
 30 33  1  0  0  0  0
M  END
$$$$

  -OEChem-03222214063D

 33 32  0     1  0  0  0  0  0999 V2000
   -2.9616   -4.8340    0.5341 H   0  0  0  0  0  0  0  0  0  0  0  0
   -2.9477   -3.8176    0.1300 C   0  0  0  0  0  0  0  0  0  0  0  0
   -3.7056   -3.2236    0.6462 H   0  0  0  0  0  0  0  0  0  0  0  0
   -3.1890   -3.8601   -0.9348 H   0  0  0  0  0  0  0  0  0  0  0  0
   -1.5774   -3.1967    0.3277 C   0  0  0  0  0  0  0  0  0  0  0  0
   -0.6972   -3.8351    0.8749 O   0  0  0  0  0  0  0  0  0  0  0  0
   -1.3406   -1.9111   -0.1193 N   0  0  0  0  0  0  0  0  0  0  0  0
   -2.0970   -1.4530   -0.6179 H   0  0  0  0  0  0  0  0  0  0  0  0
   -0.0455   -1.2119   -0.0170 C   0  0  1  0  0  0  0  0  0  0  0  0
    0.7176   -1.8255   -0.5093 H   0  0  0  0  0  0  0  0  0  0  0  0
   -0.1719    0.1030   -0.8258 C   0  0  0  0  0  0  0  0  0  0  0  0
   -0.1564   -0.1630   -1.8878 H   0  0  0  0  0  0  0  0  0  0  0  0
   -1.1446    0.5627   -0.6221 H   0  0  0  0  0  0  0  0  0  0  0  0
    0.9194    1.1645   -0.5807 C   0  0  0  0  0  0  0  0  0  0  0  0
    1.8732    0.6683   -0.3706 H   0  0  0  0  0  0  0  0  0  0  0  0
    1.0520    1.7400   -1.5027 H   0  0  0  0  0  0  0  0  0  0  0  0
    0.5746    2.1498    0.5486 C   0  0  0  0  0  0  0  0  0  0  0  0
   -0.3235    2.7120    0.2735 H   0  0  0  0  0  0  0  0  0  0  0  0
    0.3658    1.6247    1.4808 H   0  0  0  0  0  0  0  0  0  0  0  0
    1.7278    3.1179    0.7918 C   0  0  0  0  0  0  0  0  0  0  0  0
    2.6064    2.5674    1.1472 H   0  0  0  0  0  0  0  0  0  0  0  0
    1.9985    3.6255   -0.1405 H   0  0  0  0  0  0  0  0  0  0  0  0
    1.3095    4.1016    1.7964 N   0  0  0  0  0  0  0  0  0  0  0  0
    2.0747    4.7320    2.0363 H   0  0  0  0  0  0  0  0  0  0  0  0
    0.4922    4.6231    1.4816 H   0  0  0  0  0  0  0  0  0  0  0  0
    0.4387   -1.0537    1.4448 C   0  0  0  0  0  0  0  0  0  0  0  0
    1.6343   -1.1193    1.7016 O   0  0  0  0  0  0  0  0  0  0  0  0
   -0.4402   -0.6442    2.4324 N   0  0  0  0  0  0  0  0  0  0  0  0
   -1.4255   -0.6286    2.1946 H   0  0  0  0  0  0  0  0  0  0  0  0
   -0.0370   -0.4113    3.8132 C   0  0  0  0  0  0  0  0  0  0  0  0
    0.7281    0.3711    3.8621 H   0  0  0  0  0  0  0  0  0  0  0  0
   -0.8962   -0.0907    4.4098 H   0  0  0  0  0  0  0  0  0  0  0  0
    0.3684   -1.3289    4.2526 H   0  0  0  0  0  0  0  0  0  0  0  0
  1  2  1  0  0  0  0
  2  3  1  0  0  0  0
  2  4  1  0  0  0  0
  2  5  1  0  0  0  0
  5  6  2  0  0  0  0
  5  7  1  0  0  0  0
  7  8  1  0  0  0  0
  7  9  1  0  0  0  0
  9 10  1  0  0  0  0
  9 11  1  0  0  0  0
  9 26  1  0  0  0  0
 11 12  1  0  0  0  0
 11 13  1  0  0  0  0
 11 14  1  0  0  0  0
 14 15  1  0  0  0  0
 14 16  1  0  0  0  0
 14 17  1  0  0  0  0
 17 18  1  0  0  0  0
 17 19  1  0  0  0  0
 17 20  1  0  0  0  0
 20 21  1  0  0  0  0
 20 22  1  0  0  0  0
 20 23  1  0  0  0  0
 23 24  1  0  0  0  0
 23 25  1  0  0  0  0
 26 27  2  0  0  0  0
 26 28  1  0  0  0  0
 28 29  1  0  0  0  0
 28 30  1  0  0  0  0
 30 31  1  0  0  0  0
 30 32  1  0  0  0  0
 30 33  1  0  0  0  0
M  END
$$$$

  -OEChem-03222214063D

 33 32  0     1  0  0  0  0  0999 V2000
   -3.1191   -4.7696    0.3983 H   0  0  0  0  0  0  0  0  0  0  0  0
   -3.0469   -3.7421    0.0301 C   0  0  0  0  0  0  0  0  0  0  0  0
   -3.8038   -3.1348    0.5321 H   0  0  0  0  0  0  0  0  0  0  0  0
   -3.2400   -3.7406   -1.0454 H   0  0  0  0  0  0  0  0  0  0  0  0
   -1.6638   -3.1845    0.3088 C   0  0  0  0  0  0  0  0  0  0  0  0
   -0.8393   -3.8733    0.8809 O   0  0  0  0  0  0  0  0  0  0  0  0
   -1.3500   -1.9029   -0.1015 N   0  0  0  0  0  0  0  0  0  0  0  0
   -2.0583   -1.4087   -0.6351 H   0  0  0  0  0  0  0  0  0  0  0  0
   -0.0221   -1.2754    0.0476 C   0  0  1  0  0  0  0  0  0  0  0  0
    0.7212   -1.9146   -0.4425 H   0  0  0  0  0  0  0  0  0  0  0  0
   -0.0782    0.0565   -0.7435 C   0  0  0  0  0  0  0  0  0  0  0  0
   -0.0709   -0.1978   -1.8085 H   0  0  0  0  0  0  0  0  0  0  0  0
   -1.0354    0.5459   -0.5356 H   0  0  0  0  0  0  0  0  0  0  0  0
    1.0263    1.1087   -0.5028 C   0  0  0  0  0  0  0  0  0  0  0  0
    2.0044    0.6173   -0.5484 H   0  0  0  0  0  0  0  0  0  0  0  0
    0.9805    1.8221   -1.3319 H   0  0  0  0  0  0  0  0  0  0  0  0
    0.9203    1.8989    0.8147 C   0  0  0  0  0  0  0  0  0  0  0  0
   -0.1040    2.2626    0.9404 H   0  0  0  0  0  0  0  0  0  0  0  0
    1.1685    1.2761    1.6741 H   0  0  0  0  0  0  0  0  0  0  0  0
    1.8817    3.0845    0.8063 C   0  0  0  0  0  0  0  0  0  0  0  0
    2.9154    2.7231    0.7619 H   0  0  0  0  0  0  0  0  0  0  0  0
    1.7027    3.7120   -0.0736 H   0  0  0  0  0  0  0  0  0  0  0  0
    1.6754    3.8698    2.0276 N   0  0  0  0  0  0  0  0  0  0  0  0
    2.3354    4.6452    2.0845 H   0  0  0  0  0  0  0  0  0  0  0  0
    0.7141    4.2019    2.0945 H   0  0  0  0  0  0  0  0  0  0  0  0
    0.4335   -1.1769    1.5208 C   0  0  0  0  0  0  0  0  0  0  0  0
    1.6112   -1.3531    1.8067 O   0  0  0  0  0  0  0  0  0  0  0  0
   -0.4458   -0.7431    2.4976 N   0  0  0  0  0  0  0  0  0  0  0  0
   -1.4216   -0.6654    2.2345 H   0  0  0  0  0  0  0  0  0  0  0  0
   -0.0739   -0.6118    3.9001 C   0  0  0  0  0  0  0  0  0  0  0  0
    0.7377    0.1147    4.0143 H   0  0  0  0  0  0  0  0  0  0  0  0
   -0.9298   -0.2684    4.4885 H   0  0  0  0  0  0  0  0  0  0  0  0
    0.2573   -1.5762    4.2994 H   0  0  0  0  0  0  0  0  0  0  0  0
  1  2  1  0  0  0  0
  2  3  1  0  0  0  0
  2  4  1  0  0  0  0
  2  5  1  0  0  0  0
  5  6  2  0  0  0  0
  5  7  1  0  0  0  0
  7  8  1  0  0  0  0
  7  9  1  0  0  0  0
  9 10  1  0  0  0  0
  9 11  1  0  0  0  0
  9 26  1  0  0  0  0
 11 12  1  0  0  0  0
 11 13  1  0  0  0  0
 11 14  1  0  0  0  0
 14 15  1  0  0  0  0
 14 16  1  0  0  0  0
 14 17  1  0  0  0  0
 17 18  1  0  0  0  0
 17 19  1  0  0  0  0
 17 20  1  0  0  0  0
 20 21  1  0  0  0  0
 20 22  1  0  0  0  0
 20 23  1  0  0  0  0
 23 24  1  0  0  0  0
 23 25  1  0  0  0  0
 26 27  2  0  0  0  0
 26 28  1  0  0  0  0
 28 29  1  0  0  0  0
 28 30  1  0  0  0  0
 30 31  1  0  0  0  0
 30 32  1  0  0  0  0
 30 33  1  0  0  0  0
M  END
$$$$

  -OEChem-03222214063D

 33 32  0     1  0  0  0  0  0999 V2000
   -3.2530   -4.6795    0.3815 H   0  0  0  0  0  0  0  0  0  0  0  0
   -3.1263   -3.6563    0.0158 C   0  0  0  0  0  0  0  0  0  0  0  0
   -3.8551   -3.0130    0.5142 H   0  0  0  0  0  0  0  0  0  0  0  0
   -3.3114   -3.6430   -1.0610 H   0  0  0  0  0  0  0  0  0  0  0  0
   -1.7192   -3.1694    0.3064 C   0  0  0  0  0  0  0  0  0  0  0  0
   -0.9371   -3.8992    0.8866 O   0  0  0  0  0  0  0  0  0  0  0  0
   -1.3389   -1.9045   -0.1000 N   0  0  0  0  0  0  0  0  0  0  0  0
   -2.0149   -1.3793   -0.6457 H   0  0  0  0  0  0  0  0  0  0  0  0
    0.0140   -1.3376    0.0711 C   0  0  1  0  0  0  0  0  0  0  0  0
    0.7406   -2.0026   -0.4093 H   0  0  0  0  0  0  0  0  0  0  0  0
    0.0019   -0.0042   -0.7244 C   0  0  0  0  0  0  0  0  0  0  0  0
   -0.0166   -0.2588   -1.7891 H   0  0  0  0  0  0  0  0  0  0  0  0
   -0.9397    0.5070   -0.4988 H   0  0  0  0  0  0  0  0  0  0  0  0
    1.1131    1.0511   -0.5173 C   0  0  0  0  0  0  0  0  0  0  0  0
    2.0715    0.6109   -0.8128 H   0  0  0  0  0  0  0  0  0  0  0  0
    0.9054    1.8725   -1.2109 H   0  0  0  0  0  0  0  0  0  0  0  0
    1.2693    1.6343    0.8976 C   0  0  0  0  0  0  0  0  0  0  0  0
    0.2818    1.8059    1.3371 H   0  0  0  0  0  0  0  0  0  0  0  0
    1.8220    0.9470    1.5407 H   0  0  0  0  0  0  0  0  0  0  0  0
    2.0377    2.9535    0.8542 C   0  0  0  0  0  0  0  0  0  0  0  0
    3.0424    2.7856    0.4504 H   0  0  0  0  0  0  0  0  0  0  0  0
    1.5241    3.6688    0.2026 H   0  0  0  0  0  0  0  0  0  0  0  0
    2.1284    3.4956    2.2135 N   0  0  0  0  0  0  0  0  0  0  0  0
    2.6440    4.3755    2.2299 H   0  0  0  0  0  0  0  0  0  0  0  0
    1.2046    3.6035    2.6305 H   0  0  0  0  0  0  0  0  0  0  0  0
    0.4388   -1.2604    1.5549 C   0  0  0  0  0  0  0  0  0  0  0  0
    1.5792   -1.5644    1.8807 O   0  0  0  0  0  0  0  0  0  0  0  0
   -0.4399   -0.7858    2.5128 N   0  0  0  0  0  0  0  0  0  0  0  0
   -1.4006   -0.6437    2.2226 H   0  0  0  0  0  0  0  0  0  0  0  0
   -0.1069   -0.7194    3.9297 C   0  0  0  0  0  0  0  0  0  0  0  0
    0.7537   -0.0608    4.0894 H   0  0  0  0  0  0  0  0  0  0  0  0
   -0.9531   -0.3254    4.5004 H   0  0  0  0  0  0  0  0  0  0  0  0
    0.1363   -1.7165    4.3119 H   0  0  0  0  0  0  0  0  0  0  0  0
  1  2  1  0  0  0  0
  2  3  1  0  0  0  0
  2  4  1  0  0  0  0
  2  5  1  0  0  0  0
  5  6  2  0  0  0  0
  5  7  1  0  0  0  0
  7  8  1  0  0  0  0
  7  9  1  0  0  0  0
  9 10  1  0  0  0  0
  9 11  1  0  0  0  0
  9 26  1  0  0  0  0
 11 12  1  0  0  0  0
 11 13  1  0  0  0  0
 11 14  1  0  0  0  0
 14 15  1  0  0  0  0
 14 16  1  0  0  0  0
 14 17  1  0  0  0  0
 17 18  1  0  0  0  0
 17 19  1  0  0  0  0
 17 20  1  0  0  0  0
 20 21  1  0  0  0  0
 20 22  1  0  0  0  0
 20 23  1  0  0  0  0
 23 24  1  0  0  0  0
 23 25  1  0  0  0  0
 26 27  2  0  0  0  0
 26 28  1  0  0  0  0
 28 29  1  0  0  0  0
 28 30  1  0  0  0  0
 30 31  1  0  0  0  0
 30 32  1  0  0  0  0
 30 33  1  0  0  0  0
M  END
$$$$

  -OEChem-03222214063D

 33 32  0     1  0  0  0  0  0999 V2000
   -3.2897   -4.6662    0.4012 H   0  0  0  0  0  0  0  0  0  0  0  0
   -3.1445   -3.6475    0.0299 C   0  0  0  0  0  0  0  0  0  0  0  0
   -3.8626   -2.9884    0.5232 H   0  0  0  0  0  0  0  0  0  0  0  0
   -3.3291   -3.6374   -1.0470 H   0  0  0  0  0  0  0  0  0  0  0  0
   -1.7290   -3.1834    0.3198 C   0  0  0  0  0  0  0  0  0  0  0  0
   -0.9595   -3.9256    0.9010 O   0  0  0  0  0  0  0  0  0  0  0  0
   -1.3286   -1.9258   -0.0912 N   0  0  0  0  0  0  0  0  0  0  0  0
   -1.9956   -1.3962   -0.6435 H   0  0  0  0  0  0  0  0  0  0  0  0
    0.0308   -1.3718    0.0813 C   0  0  1  0  0  0  0  0  0  0  0  0
    0.7602   -2.0365   -0.3951 H   0  0  0  0  0  0  0  0  0  0  0  0
    0.0084   -0.0351   -0.7137 C   0  0  0  0  0  0  0  0  0  0  0  0
   -0.0469   -0.2848   -1.7785 H   0  0  0  0  0  0  0  0  0  0  0  0
   -0.9286    0.4682   -0.4522 H   0  0  0  0  0  0  0  0  0  0  0  0
    1.0999    1.0516   -0.5478 C   0  0  0  0  0  0  0  0  0  0  0  0
    1.9895    0.7184   -1.0930 H   0  0  0  0  0  0  0  0  0  0  0  0
    0.7326    1.9520   -1.0512 H   0  0  0  0  0  0  0  0  0  0  0  0
    1.5516    1.4346    0.8686 C   0  0  0  0  0  0  0  0  0  0  0  0
    0.6800    1.5380    1.5217 H   0  0  0  0  0  0  0  0  0  0  0  0
    2.2112    0.6653    1.2761 H   0  0  0  0  0  0  0  0  0  0  0  0
    2.3191    2.7553    0.8501 C   0  0  0  0  0  0  0  0  0  0  0  0
    3.2009    2.6673    0.2053 H   0  0  0  0  0  0  0  0  0  0  0  0
    1.6838    3.5536    0.4509 H   0  0  0  0  0  0  0  0  0  0  0  0
    2.7323    3.0828    2.2179 N   0  0  0  0  0  0  0  0  0  0  0  0
    3.2218    3.9764    2.2565 H   0  0  0  0  0  0  0  0  0  0  0  0
    1.9383    3.0697    2.8573 H   0  0  0  0  0  0  0  0  0  0  0  0
    0.4268   -1.3005    1.5751 C   0  0  0  0  0  0  0  0  0  0  0  0
    1.5374   -1.6671    1.9365 O   0  0  0  0  0  0  0  0  0  0  0  0
   -0.4670   -0.8153    2.5143 N   0  0  0  0  0  0  0  0  0  0  0  0
   -1.4159   -0.6524    2.1971 H   0  0  0  0  0  0  0  0  0  0  0  0
   -0.1877   -0.8177    3.9443 C   0  0  0  0  0  0  0  0  0  0  0  0
    0.7047   -0.2205    4.1599 H   0  0  0  0  0  0  0  0  0  0  0  0
   -1.0304   -0.3907    4.4960 H   0  0  0  0  0  0  0  0  0  0  0  0
   -0.0215   -1.8404    4.2992 H   0  0  0  0  0  0  0  0  0  0  0  0
  1  2  1  0  0  0  0
  2  3  1  0  0  0  0
  2  4  1  0  0  0  0
  2  5  1  0  0  0  0
  5  6  2  0  0  0  0
  5  7  1  0  0  0  0
  7  8  1  0  0  0  0
  7  9  1  0  0  0  0
  9 10  1  0  0  0  0
  9 11  1  0  0  0  0
  9 26  1  0  0  0  0
 11 12  1  0  0  0  0
 11 13  1  0  0  0  0
 11 14  1  0  0  0  0
 14 15  1  0  0  0  0
 14 16  1  0  0  0  0
 14 17  1  0  0  0  0
 17 18  1  0  0  0  0
 17 19  1  0  0  0  0
 17 20  1  0  0  0  0
 20 21  1  0  0  0  0
 20 22  1  0  0  0  0
 20 23  1  0  0  0  0
 23 24  1  0  0  0  0
 23 25  1  0  0  0  0
 26 27  2  0  0  0  0
 26 28  1  0  0  0  0
 28 29  1  0  0  0  0
 28 30  1  0  0  0  0
 30 31  1  0  0  0  0
 30 32  1  0  0  0  0
 30 33  1  0  0  0  0
M  END
$$$$

  -OEChem-03222214063D

 33 32  0     1  0  0  0  0  0999 V2000
   -3.3065   -4.6694    0.4175 H   0  0  0  0  0  0  0  0  0  0  0  0
   -3.1529   -3.6554    0.0372 C   0  0  0  0  0  0  0  0  0  0  0  0
   -3.8768   -2.9890    0.5121 H   0  0  0  0  0  0  0  0  0  0  0  0
   -3.3199   -3.6572   -1.0425 H   0  0  0  0  0  0  0  0  0  0  0  0
   -1.7407   -3.1920    0.3432 C   0  0  0  0  0  0  0  0  0  0  0  0
   -0.9847   -3.9282    0.9488 O   0  0  0  0  0  0  0  0  0  0  0  0
   -1.3289   -1.9433   -0.0841 N   0  0  0  0  0  0  0  0  0  0  0  0
   -1.9847   -1.4243   -0.6592 H   0  0  0  0  0  0  0  0  0  0  0  0
    0.0323   -1.3924    0.0911 C   0  0  1  0  0  0  0  0  0  0  0  0
    0.7694   -2.0571   -0.3732 H   0  0  0  0  0  0  0  0  0  0  0  0
    0.0025   -0.0542   -0.7048 C   0  0  0  0  0  0  0  0  0  0  0  0
   -0.0705   -0.3023   -1.7690 H   0  0  0  0  0  0  0  0  0  0  0  0
   -0.9346    0.4416   -0.4289 H   0  0  0  0  0  0  0  0  0  0  0  0
    1.0823    1.0511   -0.5585 C   0  0  0  0  0  0  0  0  0  0  0  0
    1.8534    0.8474   -1.3093 H   0  0  0  0  0  0  0  0  0  0  0  0
    0.6130    2.0020   -0.8323 H   0  0  0  0  0  0  0  0  0  0  0  0
    1.8121    1.2362    0.7770 C   0  0  0  0  0  0  0  0  0  0  0  0
    1.0891    1.3100    1.5942 H   0  0  0  0  0  0  0  0  0  0  0  0
    2.4734    0.3849    0.9595 H   0  0  0  0  0  0  0  0  0  0  0  0
    2.6575    2.5082    0.7541 C   0  0  0  0  0  0  0  0  0  0  0  0
    3.3689    2.4734   -0.0787 H   0  0  0  0  0  0  0  0  0  0  0  0
    2.0124    3.3827    0.6153 H   0  0  0  0  0  0  0  0  0  0  0  0
    3.3837    2.6160    2.0221 N   0  0  0  0  0  0  0  0  0  0  0  0
    3.9019    3.4917    2.0844 H   0  0  0  0  0  0  0  0  0  0  0  0
    2.7572    2.4994    2.8184 H   0  0  0  0  0  0  0  0  0  0  0  0
    0.3948   -1.3072    1.5942 C   0  0  0  0  0  0  0  0  0  0  0  0
    1.4844   -1.6943    1.9951 O   0  0  0  0  0  0  0  0  0  0  0  0
   -0.5210   -0.8062    2.5038 N   0  0  0  0  0  0  0  0  0  0  0  0
   -1.4604   -0.6503    2.1564 H   0  0  0  0  0  0  0  0  0  0  0  0
   -0.2987   -0.8392    3.9435 C   0  0  0  0  0  0  0  0  0  0  0  0
    0.6049   -0.2780    4.2043 H   0  0  0  0  0  0  0  0  0  0  0  0
   -1.1469   -0.3895    4.4680 H   0  0  0  0  0  0  0  0  0  0  0  0
   -0.1841   -1.8725    4.2886 H   0  0  0  0  0  0  0  0  0  0  0  0
  1  2  1  0  0  0  0
  2  3  1  0  0  0  0
  2  4  1  0  0  0  0
  2  5  1  0  0  0  0
  5  6  2  0  0  0  0
  5  7  1  0  0  0  0
  7  8  1  0  0  0  0
  7  9  1  0  0  0  0
  9 10  1  0  0  0  0
  9 11  1  0  0  0  0
  9 26  1  0  0  0  0
 11 12  1  0  0  0  0
 11 13  1  0  0  0  0
 11 14  1  0  0  0  0
 14 15  1  0  0  0  0
 14 16  1  0  0  0  0
 14 17  1  0  0  0  0
 17 18  1  0  0  0  0
 17 19  1  0  0  0  0
 17 20  1  0  0  0  0
 20 21  1  0  0  0  0
 20 22  1  0  0  0  0
 20 23  1  0  0  0  0
 23 24  1  0  0  0  0
 23 25  1  0  0  0  0
 26 27  2  0  0  0  0
 26 28  1  0  0  0  0
 28 29  1  0  0  0  0
 28 30  1  0  0  0  0
 30 31  1  0  0  0  0
 30 32  1  0  0  0  0
 30 33  1  0  0  0  0
M  END
$$$$

  -OEChem-03222214063D

 33 32  0     1  0  0  0  0  0999 V2000
   -3.3021   -4.6798    0.4420 H   0  0  0  0  0  0  0  0  0  0  0  0
   -3.1467   -3.6720    0.0463 C   0  0  0  0  0  0  0  0  0  0  0  0
   -3.8804   -3.0004    0.4980 H   0  0  0  0  0  0  0  0  0  0  0  0
   -3.2974   -3.6939   -1.0356 H   0  0  0  0  0  0  0  0  0  0  0  0
   -1.7414   -3.1970    0.3654 C   0  0  0  0  0  0  0  0  0  0  0  0
   -0.9941   -3.9176    0.9999 O   0  0  0  0  0  0  0  0  0  0  0  0
   -1.3253   -1.9569   -0.0831 N   0  0  0  0  0  0  0  0  0  0  0  0
   -1.9722   -1.4539   -0.6822 H   0  0  0  0  0  0  0  0  0  0  0  0
    0.0335   -1.4000    0.0967 C   0  0  1  0  0  0  0  0  0  0  0  0
    0.7824   -2.0627   -0.3512 H   0  0  0  0  0  0  0  0  0  0  0  0
   -0.0046   -0.0632   -0.7019 C   0  0  0  0  0  0  0  0  0  0  0  0
   -0.0718   -0.3175   -1.7650 H   0  0  0  0  0  0  0  0  0  0  0  0
   -0.9479    0.4255   -0.4340 H   0  0  0  0  0  0  0  0  0  0  0  0
    1.0673    1.0530   -0.5595 C   0  0  0  0  0  0  0  0  0  0  0  0
    1.6832    1.0146   -1.4645 H   0  0  0  0  0  0  0  0  0  0  0  0
    0.5488    2.0177   -0.5692 H   0  0  0  0  0  0  0  0  0  0  0  0
    2.0351    1.0403    0.6281 C   0  0  0  0  0  0  0  0  0  0  0  0
    1.4807    1.0902    1.5692 H   0  0  0  0  0  0  0  0  0  0  0  0
    2.6279    0.1204    0.6085 H   0  0  0  0  0  0  0  0  0  0  0  0
    2.9815    2.2373    0.5640 C   0  0  0  0  0  0  0  0  0  0  0  0
    3.5078    2.2562   -0.3969 H   0  0  0  0  0  0  0  0  0  0  0  0
    2.4103    3.1672    0.6582 H   0  0  0  0  0  0  0  0  0  0  0  0
    3.9520    2.1293    1.6561 N   0  0  0  0  0  0  0  0  0  0  0  0
    4.5228    2.9701    1.7356 H   0  0  0  0  0  0  0  0  0  0  0  0
    3.4904    1.9106    2.5396 H   0  0  0  0  0  0  0  0  0  0  0  0
    0.3647   -1.2878    1.6066 C   0  0  0  0  0  0  0  0  0  0  0  0
    1.4446   -1.6640    2.0428 O   0  0  0  0  0  0  0  0  0  0  0  0
   -0.5723   -0.7714    2.4857 N   0  0  0  0  0  0  0  0  0  0  0  0
   -1.5037   -0.6259    2.1131 H   0  0  0  0  0  0  0  0  0  0  0  0
   -0.3869   -0.7836    3.9312 C   0  0  0  0  0  0  0  0  0  0  0  0
    0.5096   -0.2182    4.2068 H   0  0  0  0  0  0  0  0  0  0  0  0
   -1.2483   -0.3265    4.4271 H   0  0  0  0  0  0  0  0  0  0  0  0
   -0.2808   -1.8114    4.2944 H   0  0  0  0  0  0  0  0  0  0  0  0
  1  2  1  0  0  0  0
  2  3  1  0  0  0  0
  2  4  1  0  0  0  0
  2  5  1  0  0  0  0
  5  6  2  0  0  0  0
  5  7  1  0  0  0  0
  7  8  1  0  0  0  0
  7  9  1  0  0  0  0
  9 10  1  0  0  0  0
  9 11  1  0  0  0  0
  9 26  1  0  0  0  0
 11 12  1  0  0  0  0
 11 13  1  0  0  0  0
 11 14  1  0  0  0  0
 14 15  1  0  0  0  0
 14 16  1  0  0  0  0
 14 17  1  0  0  0  0
 17 18  1  0  0  0  0
 17 19  1  0  0  0  0
 17 20  1  0  0  0  0
 20 21  1  0  0  0  0
 20 22  1  0  0  0  0
 20 23  1  0  0  0  0
 23 24  1  0  0  0  0
 23 25  1  0  0  0  0
 26 27  2  0  0  0  0
 26 28  1  0  0  0  0
 28 29  1  0  0  0  0
 28 30  1  0  0  0  0
 30 31  1  0  0  0  0
 30 32  1  0  0  0  0
 30 33  1  0  0  0  0
M  END
$$$$

  -OEChem-03222214063D

 33 32  0     1  0  0  0  0  0999 V2000
   -3.2627   -4.6997    0.4605 H   0  0  0  0  0  0  0  0  0  0  0  0
   -3.1175   -3.6950    0.0529 C   0  0  0  0  0  0  0  0  0  0  0  0
   -3.8680   -3.0290    0.4849 H   0  0  0  0  0  0  0  0  0  0  0  0
   -3.2524   -3.7340   -1.0307 H   0  0  0  0  0  0  0  0  0  0  0  0
   -1.7246   -3.1940    0.3856 C   0  0  0  0  0  0  0  0  0  0  0  0
   -0.9778   -3.8928    1.0447 O   0  0  0  0  0  0  0  0  0  0  0  0
   -1.3183   -1.9571   -0.0804 N   0  0  0  0  0  0  0  0  0  0  0  0
   -1.9608   -1.4778   -0.7032 H   0  0  0  0  0  0  0  0  0  0  0  0
    0.0336   -1.3840    0.0999 C   0  0  1  0  0  0  0  0  0  0  0  0
    0.7944   -2.0396   -0.3388 H   0  0  0  0  0  0  0  0  0  0  0  0
   -0.0210   -0.0489   -0.6987 C   0  0  0  0  0  0  0  0  0  0  0  0
   -0.0594   -0.3161   -1.7600 H   0  0  0  0  0  0  0  0  0  0  0  0
   -0.9773    0.4301   -0.4602 H   0  0  0  0  0  0  0  0  0  0  0  0
    1.0441    1.0722   -0.5468 C   0  0  0  0  0  0  0  0  0  0  0  0
    1.4706    1.2407   -1.5415 H   0  0  0  0  0  0  0  0  0  0  0  0
    0.5276    1.9952   -0.2629 H   0  0  0  0  0  0  0  0  0  0  0  0
    2.2114    0.8731    0.4267 C   0  0  0  0  0  0  0  0  0  0  0  0
    1.8491    0.8886    1.4579 H   0  0  0  0  0  0  0  0  0  0  0  0
    2.6940   -0.0903    0.2316 H   0  0  0  0  0  0  0  0  0  0  0  0
    3.2435    1.9878    0.2714 C   0  0  0  0  0  0  0  0  0  0  0  0
    3.5852    2.0506   -0.7676 H   0  0  0  0  0  0  0  0  0  0  0  0
    2.7937    2.9495    0.5417 H   0  0  0  0  0  0  0  0  0  0  0  0
    4.3810    1.6965    1.1475 N   0  0  0  0  0  0  0  0  0  0  0  0
    5.0288    2.4822    1.1958 H   0  0  0  0  0  0  0  0  0  0  0  0
    4.0665    1.4192    2.0786 H   0  0  0  0  0  0  0  0  0  0  0  0
    0.3530   -1.2441    1.6105 C   0  0  0  0  0  0  0  0  0  0  0  0
    1.4284   -1.6136    2.0640 O   0  0  0  0  0  0  0  0  0  0  0  0
   -0.5956   -0.7222    2.4735 N   0  0  0  0  0  0  0  0  0  0  0  0
   -1.5237   -0.5857    2.0890 H   0  0  0  0  0  0  0  0  0  0  0  0
   -0.4285   -0.7241    3.9212 C   0  0  0  0  0  0  0  0  0  0  0  0
    0.4668   -0.1609    4.2046 H   0  0  0  0  0  0  0  0  0  0  0  0
   -1.2941   -0.2598    4.4028 H   0  0  0  0  0  0  0  0  0  0  0  0
   -0.3320   -1.7499    4.2927 H   0  0  0  0  0  0  0  0  0  0  0  0
  1  2  1  0  0  0  0
  2  3  1  0  0  0  0
  2  4  1  0  0  0  0
  2  5  1  0  0  0  0
  5  6  2  0  0  0  0
  5  7  1  0  0  0  0
  7  8  1  0  0  0  0
  7  9  1  0  0  0  0
  9 10  1  0  0  0  0
  9 11  1  0  0  0  0
  9 26  1  0  0  0  0
 11 12  1  0  0  0  0
 11 13  1  0  0  0  0
 11 14  1  0  0  0  0
 14 15  1  0  0  0  0
 14 16  1  0  0  0  0
 14 17  1  0  0  0  0
 17 18  1  0  0  0  0
 17 19  1  0  0  0  0
 17 20  1  0  0  0  0
 20 21  1  0  0  0  0
 20 22  1  0  0  0  0
 20 23  1  0  0  0  0
 23 24  1  0  0  0  0
 23 25  1  0  0  0  0
 26 27  2  0  0  0  0
 26 28  1  0  0  0  0
 28 29  1  0  0  0  0
 28 30  1  0  0  0  0
 30 31  1  0  0  0  0
 30 32  1  0  0  0  0
 30 33  1  0  0  0  0
M  END
$$$$

  -OEChem-03222214063D

 33 32  0     1  0  0  0  0  0999 V2000
   -3.0164   -4.5978    0.9569 H   0  0  0  0  0  0  0  0  0  0  0  0
   -2.9573   -3.6320    0.4466 C   0  0  0  0  0  0  0  0  0  0  0  0
   -3.6483   -2.9372    0.9299 H   0  0  0  0  0  0  0  0  0  0  0  0
   -3.2548   -3.7675   -0.5961 H   0  0  0  0  0  0  0  0  0  0  0  0
   -1.5411   -3.0910    0.5167 C   0  0  0  0  0  0  0  0  0  0  0  0
   -0.6762   -3.7420    1.0723 O   0  0  0  0  0  0  0  0  0  0  0  0
   -1.2509   -1.8689   -0.0613 N   0  0  0  0  0  0  0  0  0  0  0  0
   -1.9982   -1.4358   -0.5951 H   0  0  0  0  0  0  0  0  0  0  0  0
    0.0978   -1.2668   -0.1385 C   0  0  1  0  0  0  0  0  0  0  0  0
    0.7846   -1.9269   -0.6804 H   0  0  0  0  0  0  0  0  0  0  0  0
   -0.1269    0.0381   -0.9564 C   0  0  0  0  0  0  0  0  0  0  0  0
   -0.3145   -0.2784   -1.9880 H   0  0  0  0  0  0  0  0  0  0  0  0
   -1.0491    0.5076   -0.5970 H   0  0  0  0  0  0  0  0  0  0  0  0
    0.9251    1.1795   -1.0245 C   0  0  0  0  0  0  0  0  0  0  0  0
    0.9735    1.5120   -2.0669 H   0  0  0  0  0  0  0  0  0  0  0  0
    0.5433    2.0306   -0.4507 H   0  0  0  0  0  0  0  0  0  0  0  0
    2.3640    0.8913   -0.5654 C   0  0  0  0  0  0  0  0  0  0  0  0
    3.0590    1.3160   -1.2967 H   0  0  0  0  0  0  0  0  0  0  0  0
    2.5542   -0.1844   -0.5587 H   0  0  0  0  0  0  0  0  0  0  0  0
    2.6832    1.5250    0.7917 C   0  0  0  0  0  0  0  0  0  0  0  0
    2.8726    2.5969    0.6698 H   0  0  0  0  0  0  0  0  0  0  0  0
    1.8422    1.4120    1.4826 H   0  0  0  0  0  0  0  0  0  0  0  0
    3.8603    0.8527    1.3403 N   0  0  0  0  0  0  0  0  0  0  0  0
    4.1178    1.2441    2.2445 H   0  0  0  0  0  0  0  0  0  0  0  0
    3.6650   -0.1519    1.4324 H   0  0  0  0  0  0  0  0  0  0  0  0
    0.6757   -1.0530    1.2851 C   0  0  0  0  0  0  0  0  0  0  0  0
    1.8182   -1.3976    1.5640 O   0  0  0  0  0  0  0  0  0  0  0  0
   -0.1182   -0.5073    2.2795 N   0  0  0  0  0  0  0  0  0  0  0  0
   -1.1029   -0.4066    2.0589 H   0  0  0  0  0  0  0  0  0  0  0  0
    0.2957   -0.4524    3.6761 C   0  0  0  0  0  0  0  0  0  0  0  0
    1.2351    0.1015    3.7765 H   0  0  0  0  0  0  0  0  0  0  0  0
   -0.4665    0.0519    4.2775 H   0  0  0  0  0  0  0  0  0  0  0  0
    0.4394   -1.4635    4.0717 H   0  0  0  0  0  0  0  0  0  0  0  0
  1  2  1  0  0  0  0
  2  3  1  0  0  0  0
  2  4  1  0  0  0  0
  2  5  1  0  0  0  0
  5  6  2  0  0  0  0
  5  7  1  0  0  0  0
  7  8  1  0  0  0  0
  7  9  1  0  0  0  0
  9 10  1  0  0  0  0
  9 11  1  0  0  0  0
  9 26  1  0  0  0  0
 11 12  1  0  0  0  0
 11 13  1  0  0  0  0
 11 14  1  0  0  0  0
 14 15  1  0  0  0  0
 14 16  1  0  0  0  0
 14 17  1  0  0  0  0
 17 18  1  0  0  0  0
 17 19  1  0  0  0  0
 17 20  1  0  0  0  0
 20 21  1  0  0  0  0
 20 22  1  0  0  0  0
 20 23  1  0  0  0  0
 23 24  1  0  0  0  0
 23 25  1  0  0  0  0
 26 27  2  0  0  0  0
 26 28  1  0  0  0  0
 28 29  1  0  0  0  0
 28 30  1  0  0  0  0
 30 31  1  0  0  0  0
 30 32  1  0  0  0  0
 30 33  1  0  0  0  0
M  END
$$$$

  -OEChem-03222214063D

 33 32  0     1  0  0  0  0  0999 V2000
   -3.1950   -4.6853    0.5609 H   0  0  0  0  0  0  0  0  0  0  0  0
   -3.0593   -3.7051    0.0945 C   0  0  0  0  0  0  0  0  0  0  0  0
   -3.8249   -3.0259    0.4766 H   0  0  0  0  0  0  0  0  0  0  0  0
   -3.1797   -3.8115   -0.9862 H   0  0  0  0  0  0  0  0  0  0  0  0
   -1.6779   -3.1641    0.4123 C   0  0  0  0  0  0  0  0  0  0  0  0
   -0.9157   -3.8296    1.0878 O   0  0  0  0  0  0  0  0  0  0  0  0
   -1.3002   -1.9292   -0.0824 N   0  0  0  0  0  0  0  0  0  0  0  0
   -1.9486   -1.4855   -0.7252 H   0  0  0  0  0  0  0  0  0  0  0  0
    0.0425   -1.3295    0.0745 C   0  0  1  0  0  0  0  0  0  0  0  0
    0.8110   -1.9682   -0.3745 H   0  0  0  0  0  0  0  0  0  0  0  0
   -0.0521    0.0129   -0.6984 C   0  0  0  0  0  0  0  0  0  0  0  0
   -0.0653   -0.2430   -1.7632 H   0  0  0  0  0  0  0  0  0  0  0  0
   -1.0140    0.4844   -0.4698 H   0  0  0  0  0  0  0  0  0  0  0  0
    1.0237    1.1082   -0.5087 C   0  0  0  0  0  0  0  0  0  0  0  0
    1.0530    1.7059   -1.4258 H   0  0  0  0  0  0  0  0  0  0  0  0
    0.7029    1.7727    0.3006 H   0  0  0  0  0  0  0  0  0  0  0  0
    2.4429    0.6254   -0.1726 C   0  0  0  0  0  0  0  0  0  0  0  0
    2.5153    0.3508    0.8795 H   0  0  0  0  0  0  0  0  0  0  0  0
    2.6888   -0.2514   -0.7808 H   0  0  0  0  0  0  0  0  0  0  0  0
    3.4697    1.7235   -0.4369 C   0  0  0  0  0  0  0  0  0  0  0  0
    3.4127    2.0583   -1.4785 H   0  0  0  0  0  0  0  0  0  0  0  0
    3.2685    2.5837    0.2109 H   0  0  0  0  0  0  0  0  0  0  0  0
    4.8036    1.1831   -0.1620 N   0  0  0  0  0  0  0  0  0  0  0  0
    5.5176    1.9091   -0.2123 H   0  0  0  0  0  0  0  0  0  0  0  0
    4.8252    0.7104    0.7432 H   0  0  0  0  0  0  0  0  0  0  0  0
    0.3845   -1.1499    1.5768 C   0  0  0  0  0  0  0  0  0  0  0  0
    1.4605   -1.5172    2.0304 O   0  0  0  0  0  0  0  0  0  0  0  0
   -0.5613   -0.6245    2.4404 N   0  0  0  0  0  0  0  0  0  0  0  0
   -1.4956   -0.5145    2.0622 H   0  0  0  0  0  0  0  0  0  0  0  0
   -0.3884   -0.6213    3.8874 C   0  0  0  0  0  0  0  0  0  0  0  0
    0.5301   -0.0927    4.1638 H   0  0  0  0  0  0  0  0  0  0  0  0
   -1.2322   -0.1179    4.3683 H   0  0  0  0  0  0  0  0  0  0  0  0
   -0.3313   -1.6474    4.2659 H   0  0  0  0  0  0  0  0  0  0  0  0
  1  2  1  0  0  0  0
  2  3  1  0  0  0  0
  2  4  1  0  0  0  0
  2  5  1  0  0  0  0
  5  6  2  0  0  0  0
  5  7  1  0  0  0  0
  7  8  1  0  0  0  0
  7  9  1  0  0  0  0
  9 10  1  0  0  0  0
  9 11  1  0  0  0  0
  9 26  1  0  0  0  0
 11 12  1  0  0  0  0
 11 13  1  0  0  0  0
 11 14  1  0  0  0  0
 14 15  1  0  0  0  0
 14 16  1  0  0  0  0
 14 17  1  0  0  0  0
 17 18  1  0  0  0  0
 17 19  1  0  0  0  0
 17 20  1  0  0  0  0
 20 21  1  0  0  0  0
 20 22  1  0  0  0  0
 20 23  1  0  0  0  0
 23 24  1  0  0  0  0
 23 25  1  0  0  0  0
 26 27  2  0  0  0  0
 26 28  1  0  0  0  0
 28 29  1  0  0  0  0
 28 30  1  0  0  0  0
 30 31  1  0  0  0  0
 30 32  1  0  0  0  0
 30 33  1  0  0  0  0
M  END
$$$$

  -OEChem-03222214063D

 33 32  0     1  0  0  0  0  0999 V2000
   -3.0863   -4.7226    0.7338 H   0  0  0  0  0  0  0  0  0  0  0  0
   -2.9989   -3.7586    0.2243 C   0  0  0  0  0  0  0  0  0  0  0  0
   -3.7695   -3.0869    0.6096 H   0  0  0  0  0  0  0  0  0  0  0  0
   -3.1582   -3.9123   -0.8456 H   0  0  0  0  0  0  0  0  0  0  0  0
   -1.6234   -3.1649    0.4647 C   0  0  0  0  0  0  0  0  0  0  0  0
   -0.8150   -3.7768    1.1377 O   0  0  0  0  0  0  0  0  0  0  0  0
   -1.3009   -1.9438   -0.0982 N   0  0  0  0  0  0  0  0  0  0  0  0
   -1.9841   -1.5492   -0.7373 H   0  0  0  0  0  0  0  0  0  0  0  0
    0.0330   -1.3099   -0.0319 C   0  0  1  0  0  0  0  0  0  0  0  0
    0.7933   -1.9443   -0.5007 H   0  0  0  0  0  0  0  0  0  0  0  0
   -0.1231    0.0199   -0.8126 C   0  0  0  0  0  0  0  0  0  0  0  0
   -0.1944   -0.2324   -1.8756 H   0  0  0  0  0  0  0  0  0  0  0  0
   -1.0692    0.4915   -0.5261 H   0  0  0  0  0  0  0  0  0  0  0  0
    0.9738    1.0939   -0.6593 C   0  0  0  0  0  0  0  0  0  0  0  0
    0.8239    1.8671   -1.4201 H   0  0  0  0  0  0  0  0  0  0  0  0
    0.8479    1.5692    0.3194 H   0  0  0  0  0  0  0  0  0  0  0  0
    2.4148    0.5622   -0.7521 C   0  0  0  0  0  0  0  0  0  0  0  0
    2.5906   -0.2719   -0.0764 H   0  0  0  0  0  0  0  0  0  0  0  0
    2.5911    0.1977   -1.7693 H   0  0  0  0  0  0  0  0  0  0  0  0
    3.4180    1.6645   -0.4295 C   0  0  0  0  0  0  0  0  0  0  0  0
    3.2615    2.5255   -1.0885 H   0  0  0  0  0  0  0  0  0  0  0  0
    3.2845    1.9970    0.6061 H   0  0  0  0  0  0  0  0  0  0  0  0
    4.7690    1.1291   -0.6176 N   0  0  0  0  0  0  0  0  0  0  0  0
    5.4770    1.8155   -0.3585 H   0  0  0  0  0  0  0  0  0  0  0  0
    4.8905    0.2656   -0.0857 H   0  0  0  0  0  0  0  0  0  0  0  0
    0.4394   -1.0619    1.4487 C   0  0  0  0  0  0  0  0  0  0  0  0
    1.5671   -1.3051    1.8579 O   0  0  0  0  0  0  0  0  0  0  0  0
   -0.4824   -0.5229    2.3305 N   0  0  0  0  0  0  0  0  0  0  0  0
   -1.4410   -0.4804    2.0028 H   0  0  0  0  0  0  0  0  0  0  0  0
   -0.2227   -0.3789    3.7573 C   0  0  0  0  0  0  0  0  0  0  0  0
    0.6717    0.2305    3.9247 H   0  0  0  0  0  0  0  0  0  0  0  0
   -1.0687    0.1110    4.2484 H   0  0  0  0  0  0  0  0  0  0  0  0
   -0.0719   -1.3606    4.2187 H   0  0  0  0  0  0  0  0  0  0  0  0
  1  2  1  0  0  0  0
  2  3  1  0  0  0  0
  2  4  1  0  0  0  0
  2  5  1  0  0  0  0
  5  6  2  0  0  0  0
  5  7  1  0  0  0  0
  7  8  1  0  0  0  0
  7  9  1  0  0  0  0
  9 10  1  0  0  0  0
  9 11  1  0  0  0  0
  9 26  1  0  0  0  0
 11 12  1  0  0  0  0
 11 13  1  0  0  0  0
 11 14  1  0  0  0  0
 14 15  1  0  0  0  0
 14 16  1  0  0  0  0
 14 17  1  0  0  0  0
 17 18  1  0  0  0  0
 17 19  1  0  0  0  0
 17 20  1  0  0  0  0
 20 21  1  0  0  0  0
 20 22  1  0  0  0  0
 20 23  1  0  0  0  0
 23 24  1  0  0  0  0
 23 25  1  0  0  0  0
 26 27  2  0  0  0  0
 26 28  1  0  0  0  0
 28 29  1  0  0  0  0
 28 30  1  0  0  0  0
 30 31  1  0  0  0  0
 30 32  1  0  0  0  0
 30 33  1  0  0  0  0
M  END
$$$$

  -OEChem-03222214063D

 33 32  0     1  0  0  0  0  0999 V2000
   -2.9502   -4.8173    0.6280 H   0  0  0  0  0  0  0  0  0  0  0  0
   -2.9265   -3.8229    0.1724 C   0  0  0  0  0  0  0  0  0  0  0  0
   -3.7275   -3.2189    0.6052 H   0  0  0  0  0  0  0  0  0  0  0  0
   -3.0956   -3.9260   -0.9022 H   0  0  0  0  0  0  0  0  0  0  0  0
   -1.5828   -3.1652    0.4263 C   0  0  0  0  0  0  0  0  0  0  0  0
   -0.7480   -3.7408    1.0996 O   0  0  0  0  0  0  0  0  0  0  0  0
   -1.3199   -1.9202   -0.1134 N   0  0  0  0  0  0  0  0  0  0  0  0
   -2.0208   -1.5464   -0.7458 H   0  0  0  0  0  0  0  0  0  0  0  0
   -0.0120   -1.2378   -0.0500 C   0  0  1  0  0  0  0  0  0  0  0  0
    0.7523   -1.8588   -0.5297 H   0  0  0  0  0  0  0  0  0  0  0  0
   -0.1783    0.0811   -0.8438 C   0  0  0  0  0  0  0  0  0  0  0  0
   -0.2415   -0.1608   -1.9097 H   0  0  0  0  0  0  0  0  0  0  0  0
   -1.1269    0.5463   -0.5560 H   0  0  0  0  0  0  0  0  0  0  0  0
    0.9212    1.1407   -0.6432 C   0  0  0  0  0  0  0  0  0  0  0  0
    0.6749    2.0234   -1.2426 H   0  0  0  0  0  0  0  0  0  0  0  0
    0.9432    1.4566    0.4050 H   0  0  0  0  0  0  0  0  0  0  0  0
    2.3108    0.6298   -1.0543 C   0  0  0  0  0  0  0  0  0  0  0  0
    2.5578   -0.2968   -0.5311 H   0  0  0  0  0  0  0  0  0  0  0  0
    2.3149    0.4153   -2.1281 H   0  0  0  0  0  0  0  0  0  0  0  0
    3.3801    1.6697   -0.7390 C   0  0  0  0  0  0  0  0  0  0  0  0
    3.1502    2.6144   -1.2437 H   0  0  0  0  0  0  0  0  0  0  0  0
    3.4101    1.8564    0.3404 H   0  0  0  0  0  0  0  0  0  0  0  0
    4.6741    1.1583   -1.1984 N   0  0  0  0  0  0  0  0  0  0  0  0
    5.4270    1.8068   -0.9706 H   0  0  0  0  0  0  0  0  0  0  0  0
    4.8577    0.2373   -0.7977 H   0  0  0  0  0  0  0  0  0  0  0  0
    0.4435   -0.9895    1.4125 C   0  0  0  0  0  0  0  0  0  0  0  0
    1.6226   -1.0839    1.7289 O   0  0  0  0  0  0  0  0  0  0  0  0
   -0.4585   -0.4968    2.3396 N   0  0  0  0  0  0  0  0  0  0  0  0
   -1.4374   -0.5489    2.0796 H   0  0  0  0  0  0  0  0  0  0  0  0
   -0.1158   -0.2907    3.7412 C   0  0  0  0  0  0  0  0  0  0  0  0
    0.7125    0.4196    3.8328 H   0  0  0  0  0  0  0  0  0  0  0  0
   -0.9751    0.1112    4.2860 H   0  0  0  0  0  0  0  0  0  0  0  0
    0.1793   -1.2377    4.2055 H   0  0  0  0  0  0  0  0  0  0  0  0
  1  2  1  0  0  0  0
  2  3  1  0  0  0  0
  2  4  1  0  0  0  0
  2  5  1  0  0  0  0
  5  6  2  0  0  0  0
  5  7  1  0  0  0  0
  7  8  1  0  0  0  0
  7  9  1  0  0  0  0
  9 10  1  0  0  0  0
  9 11  1  0  0  0  0
  9 26  1  0  0  0  0
 11 12  1  0  0  0  0
 11 13  1  0  0  0  0
 11 14  1  0  0  0  0
 14 15  1  0  0  0  0
 14 16  1  0  0  0  0
 14 17  1  0  0  0  0
 17 18  1  0  0  0  0
 17 19  1  0  0  0  0
 17 20  1  0  0  0  0
 20 21  1  0  0  0  0
 20 22  1  0  0  0  0
 20 23  1  0  0  0  0
 23 24  1  0  0  0  0
 23 25  1  0  0  0  0
 26 27  2  0  0  0  0
 26 28  1  0  0  0  0
 28 29  1  0  0  0  0
 28 30  1  0  0  0  0
 30 31  1  0  0  0  0
 30 32  1  0  0  0  0
 30 33  1  0  0  0  0
M  END
$$$$

  -OEChem-03222214063D

 33 32  0     1  0  0  0  0  0999 V2000
   -2.8971   -4.8448    0.5693 H   0  0  0  0  0  0  0  0  0  0  0  0
   -2.8948   -3.8414    0.1338 C   0  0  0  0  0  0  0  0  0  0  0  0
   -3.7063   -3.2625    0.5808 H   0  0  0  0  0  0  0  0  0  0  0  0
   -3.0644   -3.9265   -0.9423 H   0  0  0  0  0  0  0  0  0  0  0  0
   -1.5647   -3.1611    0.3980 C   0  0  0  0  0  0  0  0  0  0  0  0
   -0.7170   -3.7296    1.0615 O   0  0  0  0  0  0  0  0  0  0  0  0
   -1.3293   -1.9011   -0.1184 N   0  0  0  0  0  0  0  0  0  0  0  0
   -2.0387   -1.5292   -0.7428 H   0  0  0  0  0  0  0  0  0  0  0  0
   -0.0339   -1.1977   -0.0445 C   0  0  1  0  0  0  0  0  0  0  0  0
    0.7346   -1.8130   -0.5258 H   0  0  0  0  0  0  0  0  0  0  0  0
   -0.1958    0.1108   -0.8553 C   0  0  0  0  0  0  0  0  0  0  0  0
   -0.2576   -0.1301   -1.9216 H   0  0  0  0  0  0  0  0  0  0  0  0
   -1.1469    0.5723   -0.5697 H   0  0  0  0  0  0  0  0  0  0  0  0
    0.8974    1.1722   -0.6313 C   0  0  0  0  0  0  0  0  0  0  0  0
    0.5499    2.1211   -1.0534 H   0  0  0  0  0  0  0  0  0  0  0  0
    1.0756    1.3463    0.4340 H   0  0  0  0  0  0  0  0  0  0  0  0
    2.1993    0.7770   -1.3385 C   0  0  0  0  0  0  0  0  0  0  0  0
    2.5323   -0.2035   -0.9834 H   0  0  0  0  0  0  0  0  0  0  0  0
    2.0271    0.7060   -2.4174 H   0  0  0  0  0  0  0  0  0  0  0  0
    3.2938    1.8023   -1.0637 C   0  0  0  0  0  0  0  0  0  0  0  0
    2.9739    2.7949   -1.3993 H   0  0  0  0  0  0  0  0  0  0  0  0
    3.4947    1.8538    0.0125 H   0  0  0  0  0  0  0  0  0  0  0  0
    4.5034    1.3954   -1.7845 N   0  0  0  0  0  0  0  0  0  0  0  0
    5.2700    2.0450   -1.6106 H   0  0  0  0  0  0  0  0  0  0  0  0
    4.7715    0.4442   -1.5290 H   0  0  0  0  0  0  0  0  0  0  0  0
    0.4410   -0.9603    1.4104 C   0  0  0  0  0  0  0  0  0  0  0  0
    1.6337   -1.0083    1.6853 O   0  0  0  0  0  0  0  0  0  0  0  0
   -0.4508   -0.4957    2.3610 N   0  0  0  0  0  0  0  0  0  0  0  0
   -1.4343   -0.5764    2.1267 H   0  0  0  0  0  0  0  0  0  0  0  0
   -0.0771   -0.2833    3.7534 C   0  0  0  0  0  0  0  0  0  0  0  0
    0.7307    0.4526    3.8263 H   0  0  0  0  0  0  0  0  0  0  0  0
   -0.9338    0.0892    4.3228 H   0  0  0  0  0  0  0  0  0  0  0  0
    0.2598   -1.2222    4.2053 H   0  0  0  0  0  0  0  0  0  0  0  0
  1  2  1  0  0  0  0
  2  3  1  0  0  0  0
  2  4  1  0  0  0  0
  2  5  1  0  0  0  0
  5  6  2  0  0  0  0
  5  7  1  0  0  0  0
  7  8  1  0  0  0  0
  7  9  1  0  0  0  0
  9 10  1  0  0  0  0
  9 11  1  0  0  0  0
  9 26  1  0  0  0  0
 11 12  1  0  0  0  0
 11 13  1  0  0  0  0
 11 14  1  0  0  0  0
 14 15  1  0  0  0  0
 14 16  1  0  0  0  0
 14 17  1  0  0  0  0
 17 18  1  0  0  0  0
 17 19  1  0  0  0  0
 17 20  1  0  0  0  0
 20 21  1  0  0  0  0
 20 22  1  0  0  0  0
 20 23  1  0  0  0  0
 23 24  1  0  0  0  0
 23 25  1  0  0  0  0
 26 27  2  0  0  0  0
 26 28  1  0  0  0  0
 28 29  1  0  0  0  0
 28 30  1  0  0  0  0
 30 31  1  0  0  0  0
 30 32  1  0  0  0  0
 30 33  1  0  0  0  0
M  END
$$$$

  -OEChem-03222214063D

 33 32  0     1  0  0  0  0  0999 V2000
   -2.8940   -4.8360    0.5578 H   0  0  0  0  0  0  0  0  0  0  0  0
   -2.8883   -3.8307    0.1267 C   0  0  0  0  0  0  0  0  0  0  0  0
   -3.6969   -3.2502    0.5771 H   0  0  0  0  0  0  0  0  0  0  0  0
   -3.0594   -3.9101   -0.9495 H   0  0  0  0  0  0  0  0  0  0  0  0
   -1.5552   -3.1573    0.3924 C   0  0  0  0  0  0  0  0  0  0  0  0
   -0.7085   -3.7343    1.0498 O   0  0  0  0  0  0  0  0  0  0  0  0
   -1.3160   -1.8947   -0.1160 N   0  0  0  0  0  0  0  0  0  0  0  0
   -2.0250   -1.5157   -0.7366 H   0  0  0  0  0  0  0  0  0  0  0  0
   -0.0209   -1.1911   -0.0313 C   0  0  1  0  0  0  0  0  0  0  0  0
    0.7533   -1.8017   -0.5095 H   0  0  0  0  0  0  0  0  0  0  0  0
   -0.1815    0.1168   -0.8442 C   0  0  0  0  0  0  0  0  0  0  0  0
   -0.2574   -0.1233   -1.9099 H   0  0  0  0  0  0  0  0  0  0  0  0
   -1.1323    0.5730   -0.5493 H   0  0  0  0  0  0  0  0  0  0  0  0
    0.9034    1.1912   -0.6227 C   0  0  0  0  0  0  0  0  0  0  0  0
    0.4585    2.1735   -0.8134 H   0  0  0  0  0  0  0  0  0  0  0  0
    1.2711    1.2092    0.4060 H   0  0  0  0  0  0  0  0  0  0  0  0
    2.0625    0.9967   -1.6066 C   0  0  0  0  0  0  0  0  0  0  0  0
    2.4729   -0.0121   -1.4922 H   0  0  0  0  0  0  0  0  0  0  0  0
    1.6991    1.1009   -2.6343 H   0  0  0  0  0  0  0  0  0  0  0  0
    3.1658    2.0187   -1.3522 C   0  0  0  0  0  0  0  0  0  0  0  0
    2.7674    3.0346   -1.4497 H   0  0  0  0  0  0  0  0  0  0  0  0
    3.5562    1.9019   -0.3348 H   0  0  0  0  0  0  0  0  0  0  0  0
    4.2345    1.8042   -2.3325 N   0  0  0  0  0  0  0  0  0  0  0  0
    4.9984    2.4654   -2.1934 H   0  0  0  0  0  0  0  0  0  0  0  0
    4.5764    0.8437   -2.2902 H   0  0  0  0  0  0  0  0  0  0  0  0
    0.4379   -0.9650    1.4304 C   0  0  0  0  0  0  0  0  0  0  0  0
    1.6262   -1.0293    1.7199 O   0  0  0  0  0  0  0  0  0  0  0  0
   -0.4635   -0.5079    2.3755 N   0  0  0  0  0  0  0  0  0  0  0  0
   -1.4444   -0.5762    2.1264 H   0  0  0  0  0  0  0  0  0  0  0  0
   -0.1078   -0.3125    3.7750 C   0  0  0  0  0  0  0  0  0  0  0  0
    0.7007    0.4205    3.8668 H   0  0  0  0  0  0  0  0  0  0  0  0
   -0.9712    0.0559    4.3370 H   0  0  0  0  0  0  0  0  0  0  0  0
    0.2204   -1.2575    4.2209 H   0  0  0  0  0  0  0  0  0  0  0  0
  1  2  1  0  0  0  0
  2  3  1  0  0  0  0
  2  4  1  0  0  0  0
  2  5  1  0  0  0  0
  5  6  2  0  0  0  0
  5  7  1  0  0  0  0
  7  8  1  0  0  0  0
  7  9  1  0  0  0  0
  9 10  1  0  0  0  0
  9 11  1  0  0  0  0
  9 26  1  0  0  0  0
 11 12  1  0  0  0  0
 11 13  1  0  0  0  0
 11 14  1  0  0  0  0
 14 15  1  0  0  0  0
 14 16  1  0  0  0  0
 14 17  1  0  0  0  0
 17 18  1  0  0  0  0
 17 19  1  0  0  0  0
 17 20  1  0  0  0  0
 20 21  1  0  0  0  0
 20 22  1  0  0  0  0
 20 23  1  0  0  0  0
 23 24  1  0  0  0  0
 23 25  1  0  0  0  0
 26 27  2  0  0  0  0
 26 28  1  0  0  0  0
 28 29  1  0  0  0  0
 28 30  1  0  0  0  0
 30 31  1  0  0  0  0
 30 32  1  0  0  0  0
 30 33  1  0  0  0  0
M  END
$$$$

  -OEChem-03222214063D

 33 32  0     1  0  0  0  0  0999 V2000
   -2.9081   -4.8176    0.5614 H   0  0  0  0  0  0  0  0  0  0  0  0
   -2.8958   -3.8096    0.1368 C   0  0  0  0  0  0  0  0  0  0  0  0
   -3.6907   -3.2225    0.6024 H   0  0  0  0  0  0  0  0  0  0  0  0
   -3.0829   -3.8796   -0.9373 H   0  0  0  0  0  0  0  0  0  0  0  0
   -1.5507   -3.1544    0.3891 C   0  0  0  0  0  0  0  0  0  0  0  0
   -0.7076   -3.7419    1.0416 O   0  0  0  0  0  0  0  0  0  0  0  0
   -1.2981   -1.8943   -0.1195 N   0  0  0  0  0  0  0  0  0  0  0  0
   -2.0054   -1.5046   -0.7351 H   0  0  0  0  0  0  0  0  0  0  0  0
    0.0003   -1.1976   -0.0244 C   0  0  1  0  0  0  0  0  0  0  0  0
    0.7784   -1.8077   -0.4967 H   0  0  0  0  0  0  0  0  0  0  0  0
   -0.1582    0.1140   -0.8318 C   0  0  0  0  0  0  0  0  0  0  0  0
   -0.2349   -0.1284   -1.8970 H   0  0  0  0  0  0  0  0  0  0  0  0
   -1.1112    0.5681   -0.5400 H   0  0  0  0  0  0  0  0  0  0  0  0
    0.9241    1.1947   -0.6103 C   0  0  0  0  0  0  0  0  0  0  0  0
    0.4316    2.1686   -0.5174 H   0  0  0  0  0  0  0  0  0  0  0  0
    1.4919    1.0386    0.3092 H   0  0  0  0  0  0  0  0  0  0  0  0
    1.8852    1.2503   -1.8030 C   0  0  0  0  0  0  0  0  0  0  0  0
    2.3405    0.2655   -1.9513 H   0  0  0  0  0  0  0  0  0  0  0  0
    1.3335    1.5106   -2.7124 H   0  0  0  0  0  0  0  0  0  0  0  0
    2.9832    2.2821   -1.5655 C   0  0  0  0  0  0  0  0  0  0  0  0
    2.5412    3.2708   -1.4001 H   0  0  0  0  0  0  0  0  0  0  0  0
    3.5625    2.0148   -0.6745 H   0  0  0  0  0  0  0  0  0  0  0  0
    3.8537    2.3139   -2.7445 N   0  0  0  0  0  0  0  0  0  0  0  0
    4.6032    2.9963   -2.6299 H   0  0  0  0  0  0  0  0  0  0  0  0
    4.2344    1.3876   -2.9391 H   0  0  0  0  0  0  0  0  0  0  0  0
    0.4377   -0.9754    1.4452 C   0  0  0  0  0  0  0  0  0  0  0  0
    1.6175   -1.0703    1.7601 O   0  0  0  0  0  0  0  0  0  0  0  0
   -0.4749   -0.5139    2.3771 N   0  0  0  0  0  0  0  0  0  0  0  0
   -1.4511   -0.5562    2.1055 H   0  0  0  0  0  0  0  0  0  0  0  0
   -0.1448   -0.3452    3.7862 C   0  0  0  0  0  0  0  0  0  0  0  0
    0.6665    0.3805    3.9060 H   0  0  0  0  0  0  0  0  0  0  0  0
   -1.0165    0.0188    4.3380 H   0  0  0  0  0  0  0  0  0  0  0  0
    0.1691   -1.3000    4.2214 H   0  0  0  0  0  0  0  0  0  0  0  0
  1  2  1  0  0  0  0
  2  3  1  0  0  0  0
  2  4  1  0  0  0  0
  2  5  1  0  0  0  0
  5  6  2  0  0  0  0
  5  7  1  0  0  0  0
  7  8  1  0  0  0  0
  7  9  1  0  0  0  0
  9 10  1  0  0  0  0
  9 11  1  0  0  0  0
  9 26  1  0  0  0  0
 11 12  1  0  0  0  0
 11 13  1  0  0  0  0
 11 14  1  0  0  0  0
 14 15  1  0  0  0  0
 14 16  1  0  0  0  0
 14 17  1  0  0  0  0
 17 18  1  0  0  0  0
 17 19  1  0  0  0  0
 17 20  1  0  0  0  0
 20 21  1  0  0  0  0
 20 22  1  0  0  0  0
 20 23  1  0  0  0  0
 23 24  1  0  0  0  0
 23 25  1  0  0  0  0
 26 27  2  0  0  0  0
 26 28  1  0  0  0  0
 28 29  1  0  0  0  0
 28 30  1  0  0  0  0
 30 31  1  0  0  0  0
 30 32  1  0  0  0  0
 30 33  1  0  0  0  0
M  END
$$$$

  -OEChem-03222214063D

 33 32  0     1  0  0  0  0  0999 V2000
   -2.9280   -4.8012    0.5653 H   0  0  0  0  0  0  0  0  0  0  0  0
   -2.9067   -3.7941    0.1390 C   0  0  0  0  0  0  0  0  0  0  0  0
   -3.6945   -3.1981    0.6058 H   0  0  0  0  0  0  0  0  0  0  0  0
   -3.0975   -3.8640   -0.9345 H   0  0  0  0  0  0  0  0  0  0  0  0
   -1.5546   -3.1522    0.3869 C   0  0  0  0  0  0  0  0  0  0  0  0
   -0.7144   -3.7478    1.0358 O   0  0  0  0  0  0  0  0  0  0  0  0
   -1.2914   -1.8953   -0.1243 N   0  0  0  0  0  0  0  0  0  0  0  0
   -1.9986   -1.4971   -0.7348 H   0  0  0  0  0  0  0  0  0  0  0  0
    0.0111   -1.2064   -0.0281 C   0  0  1  0  0  0  0  0  0  0  0  0
    0.7889   -1.8158   -0.5020 H   0  0  0  0  0  0  0  0  0  0  0  0
   -0.1472    0.1125   -0.8217 C   0  0  0  0  0  0  0  0  0  0  0  0
   -0.2081   -0.1351   -1.8869 H   0  0  0  0  0  0  0  0  0  0  0  0
   -1.1031    0.5707   -0.5465 H   0  0  0  0  0  0  0  0  0  0  0  0
    0.9448    1.1818   -0.5906 C   0  0  0  0  0  0  0  0  0  0  0  0
    0.4834    2.0873   -0.1828 H   0  0  0  0  0  0  0  0  0  0  0  0
    1.6951    0.8458    0.1286 H   0  0  0  0  0  0  0  0  0  0  0  0
    1.6650    1.5167   -1.9020 C   0  0  0  0  0  0  0  0  0  0  0  0
    2.1151    0.6083   -2.3155 H   0  0  0  0  0  0  0  0  0  0  0  0
    0.9437    1.9012   -2.6307 H   0  0  0  0  0  0  0  0  0  0  0  0
    2.7539    2.5604   -1.6728 C   0  0  0  0  0  0  0  0  0  0  0  0
    2.3176    3.4712   -1.2475 H   0  0  0  0  0  0  0  0  0  0  0  0
    3.4985    2.1773   -0.9657 H   0  0  0  0  0  0  0  0  0  0  0  0
    3.3862    2.8624   -2.9607 N   0  0  0  0  0  0  0  0  0  0  0  0
    4.1181    3.5651   -2.8550 H   0  0  0  0  0  0  0  0  0  0  0  0
    3.7572    2.0153   -3.3914 H   0  0  0  0  0  0  0  0  0  0  0  0
    0.4424   -0.9844    1.4442 C   0  0  0  0  0  0  0  0  0  0  0  0
    1.6175   -1.0968    1.7704 O   0  0  0  0  0  0  0  0  0  0  0  0
   -0.4727   -0.5155    2.3703 N   0  0  0  0  0  0  0  0  0  0  0  0
   -1.4470   -0.5429    2.0904 H   0  0  0  0  0  0  0  0  0  0  0  0
   -0.1524   -0.3484    3.7819 C   0  0  0  0  0  0  0  0  0  0  0  0
    0.6618    0.3729    3.9075 H   0  0  0  0  0  0  0  0  0  0  0  0
   -1.0263    0.0202    4.3271 H   0  0  0  0  0  0  0  0  0  0  0  0
    0.1527   -1.3049    4.2196 H   0  0  0  0  0  0  0  0  0  0  0  0
  1  2  1  0  0  0  0
  2  3  1  0  0  0  0
  2  4  1  0  0  0  0
  2  5  1  0  0  0  0
  5  6  2  0  0  0  0
  5  7  1  0  0  0  0
  7  8  1  0  0  0  0
  7  9  1  0  0  0  0
  9 10  1  0  0  0  0
  9 11  1  0  0  0  0
  9 26  1  0  0  0  0
 11 12  1  0  0  0  0
 11 13  1  0  0  0  0
 11 14  1  0  0  0  0
 14 15  1  0  0  0  0
 14 16  1  0  0  0  0
 14 17  1  0  0  0  0
 17 18  1  0  0  0  0
 17 19  1  0  0  0  0
 17 20  1  0  0  0  0
 20 21  1  0  0  0  0
 20 22  1  0  0  0  0
 20 23  1  0  0  0  0
 23 24  1  0  0  0  0
 23 25  1  0  0  0  0
 26 27  2  0  0  0  0
 26 28  1  0  0  0  0
 28 29  1  0  0  0  0
 28 30  1  0  0  0  0
 30 31  1  0  0  0  0
 30 32  1  0  0  0  0
 30 33  1  0  0  0  0
M  END
$$$$

  -OEChem-03222214063D

 33 32  0     1  0  0  0  0  0999 V2000
   -2.9373   -4.8021    0.5692 H   0  0  0  0  0  0  0  0  0  0  0  0
   -2.9171   -3.7956    0.1411 C   0  0  0  0  0  0  0  0  0  0  0  0
   -3.7046   -3.1996    0.6082 H   0  0  0  0  0  0  0  0  0  0  0  0
   -3.1096   -3.8674   -0.9321 H   0  0  0  0  0  0  0  0  0  0  0  0
   -1.5649   -3.1521    0.3856 C   0  0  0  0  0  0  0  0  0  0  0  0
   -0.7226   -3.7454    1.0339 O   0  0  0  0  0  0  0  0  0  0  0  0
   -1.3037   -1.8971   -0.1304 N   0  0  0  0  0  0  0  0  0  0  0  0
   -2.0139   -1.5003   -0.7382 H   0  0  0  0  0  0  0  0  0  0  0  0
   -0.0007   -1.2091   -0.0433 C   0  0  1  0  0  0  0  0  0  0  0  0
    0.7730   -1.8189   -0.5235 H   0  0  0  0  0  0  0  0  0  0  0  0
   -0.1593    0.1128   -0.8281 C   0  0  0  0  0  0  0  0  0  0  0  0
   -0.2007   -0.1395   -1.8930 H   0  0  0  0  0  0  0  0  0  0  0  0
   -1.1153    0.5799   -0.5700 H   0  0  0  0  0  0  0  0  0  0  0  0
    0.9486    1.1586   -0.5824 C   0  0  0  0  0  0  0  0  0  0  0  0
    0.5810    1.9341    0.0980 H   0  0  0  0  0  0  0  0  0  0  0  0
    1.8219    0.6930   -0.1164 H   0  0  0  0  0  0  0  0  0  0  0  0
    1.4188    1.7779   -1.9038 C   0  0  0  0  0  0  0  0  0  0  0  0
    1.8141    0.9944   -2.5587 H   0  0  0  0  0  0  0  0  0  0  0  0
    0.5697    2.2484   -2.4105 H   0  0  0  0  0  0  0  0  0  0  0  0
    2.5016    2.8244   -1.6579 C   0  0  0  0  0  0  0  0  0  0  0  0
    2.1215    3.6099   -0.9954 H   0  0  0  0  0  0  0  0  0  0  0  0
    3.3690    2.3615   -1.1736 H   0  0  0  0  0  0  0  0  0  0  0  0
    2.8898    3.4035   -2.9477 N   0  0  0  0  0  0  0  0  0  0  0  0
    3.6060    4.1200   -2.8285 H   0  0  0  0  0  0  0  0  0  0  0  0
    3.2062    2.6791   -3.5923 H   0  0  0  0  0  0  0  0  0  0  0  0
    0.4451   -0.9800    1.4239 C   0  0  0  0  0  0  0  0  0  0  0  0
    1.6249   -1.0796    1.7365 O   0  0  0  0  0  0  0  0  0  0  0  0
   -0.4603   -0.5060    2.3571 N   0  0  0  0  0  0  0  0  0  0  0  0
   -1.4381   -0.5399    2.0903 H   0  0  0  0  0  0  0  0  0  0  0  0
   -0.1223   -0.3215    3.7628 C   0  0  0  0  0  0  0  0  0  0  0  0
    0.6919    0.4029    3.8696 H   0  0  0  0  0  0  0  0  0  0  0  0
   -0.9899    0.0519    4.3150 H   0  0  0  0  0  0  0  0  0  0  0  0
    0.1910   -1.2716    4.2086 H   0  0  0  0  0  0  0  0  0  0  0  0
  1  2  1  0  0  0  0
  2  3  1  0  0  0  0
  2  4  1  0  0  0  0
  2  5  1  0  0  0  0
  5  6  2  0  0  0  0
  5  7  1  0  0  0  0
  7  8  1  0  0  0  0
  7  9  1  0  0  0  0
  9 10  1  0  0  0  0
  9 11  1  0  0  0  0
  9 26  1  0  0  0  0
 11 12  1  0  0  0  0
 11 13  1  0  0  0  0
 11 14  1  0  0  0  0
 14 15  1  0  0  0  0
 14 16  1  0  0  0  0
 14 17  1  0  0  0  0
 17 18  1  0  0  0  0
 17 19  1  0  0  0  0
 17 20  1  0  0  0  0
 20 21  1  0  0  0  0
 20 22  1  0  0  0  0
 20 23  1  0  0  0  0
 23 24  1  0  0  0  0
 23 25  1  0  0  0  0
 26 27  2  0  0  0  0
 26 28  1  0  0  0  0
 28 29  1  0  0  0  0
 28 30  1  0  0  0  0
 30 31  1  0  0  0  0
 30 32  1  0  0  0  0
 30 33  1  0  0  0  0
M  END
$$$$

  -OEChem-03222214063D

 33 32  0     1  0  0  0  0  0999 V2000
   -2.9310   -4.8141    0.5818 H   0  0  0  0  0  0  0  0  0  0  0  0
   -2.9200   -3.8103    0.1476 C   0  0  0  0  0  0  0  0  0  0  0  0
   -3.7110   -3.2175    0.6132 H   0  0  0  0  0  0  0  0  0  0  0  0
   -3.1147   -3.8909   -0.9245 H   0  0  0  0  0  0  0  0  0  0  0  0
   -1.5723   -3.1546    0.3844 C   0  0  0  0  0  0  0  0  0  0  0  0
   -0.7209   -3.7398    1.0283 O   0  0  0  0  0  0  0  0  0  0  0  0
   -1.3235   -1.8981   -0.1342 N   0  0  0  0  0  0  0  0  0  0  0  0
   -2.0385   -1.5085   -0.7412 H   0  0  0  0  0  0  0  0  0  0  0  0
   -0.0227   -1.2049   -0.0593 C   0  0  1  0  0  0  0  0  0  0  0  0
    0.7461   -1.8155   -0.5465 H   0  0  0  0  0  0  0  0  0  0  0  0
   -0.1837    0.1170   -0.8413 C   0  0  0  0  0  0  0  0  0  0  0  0
   -0.2169   -0.1311   -1.9076 H   0  0  0  0  0  0  0  0  0  0  0  0
   -1.1369    0.5904   -0.5834 H   0  0  0  0  0  0  0  0  0  0  0  0
    0.9358    1.1418   -0.5844 C   0  0  0  0  0  0  0  0  0  0  0  0
    0.6876    1.7524    0.2903 H   0  0  0  0  0  0  0  0  0  0  0  0
    1.8758    0.6197   -0.3757 H   0  0  0  0  0  0  0  0  0  0  0  0
    1.1608    2.0271   -1.8151 C   0  0  0  0  0  0  0  0  0  0  0  0
    1.4548    1.4073   -2.6683 H   0  0  0  0  0  0  0  0  0  0  0  0
    0.2288    2.5409   -2.0731 H   0  0  0  0  0  0  0  0  0  0  0  0
    2.2480    3.0622   -1.5425 C   0  0  0  0  0  0  0  0  0  0  0  0
    1.9632    3.6894   -0.6904 H   0  0  0  0  0  0  0  0  0  0  0  0
    3.1909    2.5614   -1.2956 H   0  0  0  0  0  0  0  0  0  0  0  0
    2.4133    3.8918   -2.7400 N   0  0  0  0  0  0  0  0  0  0  0  0
    3.1197    4.6128   -2.5924 H   0  0  0  0  0  0  0  0  0  0  0  0
    2.6444    3.3191   -3.5517 H   0  0  0  0  0  0  0  0  0  0  0  0
    0.4462   -0.9696    1.3989 C   0  0  0  0  0  0  0  0  0  0  0  0
    1.6350   -1.0387    1.6844 O   0  0  0  0  0  0  0  0  0  0  0  0
   -0.4471   -0.4969    2.3439 N   0  0  0  0  0  0  0  0  0  0  0  0
   -1.4293   -0.5481    2.0965 H   0  0  0  0  0  0  0  0  0  0  0  0
   -0.0841   -0.2871    3.7395 C   0  0  0  0  0  0  0  0  0  0  0  0
    0.7263    0.4450    3.8194 H   0  0  0  0  0  0  0  0  0  0  0  0
   -0.9443    0.0887    4.3016 H   0  0  0  0  0  0  0  0  0  0  0  0
    0.2446   -1.2275    4.1941 H   0  0  0  0  0  0  0  0  0  0  0  0
  1  2  1  0  0  0  0
  2  3  1  0  0  0  0
  2  4  1  0  0  0  0
  2  5  1  0  0  0  0
  5  6  2  0  0  0  0
  5  7  1  0  0  0  0
  7  8  1  0  0  0  0
  7  9  1  0  0  0  0
  9 10  1  0  0  0  0
  9 11  1  0  0  0  0
  9 26  1  0  0  0  0
 11 12  1  0  0  0  0
 11 13  1  0  0  0  0
 11 14  1  0  0  0  0
 14 15  1  0  0  0  0
 14 16  1  0  0  0  0
 14 17  1  0  0  0  0
 17 18  1  0  0  0  0
 17 19  1  0  0  0  0
 17 20  1  0  0  0  0
 20 21  1  0  0  0  0
 20 22  1  0  0  0  0
 20 23  1  0  0  0  0
 23 24  1  0  0  0  0
 23 25  1  0  0  0  0
 26 27  2  0  0  0  0
 26 28  1  0  0  0  0
 28 29  1  0  0  0  0
 28 30  1  0  0  0  0
 30 31  1  0  0  0  0
 30 32  1  0  0  0  0
 30 33  1  0  0  0  0
M  END
$$$$

  -OEChem-03222214063D

 33 32  0     1  0  0  0  0  0999 V2000
   -2.9274   -4.8210    0.5675 H   0  0  0  0  0  0  0  0  0  0  0  0
   -2.9227   -3.8141    0.1404 C   0  0  0  0  0  0  0  0  0  0  0  0
   -3.7146   -3.2282    0.6130 H   0  0  0  0  0  0  0  0  0  0  0  0
   -3.1214   -3.8873   -0.9316 H   0  0  0  0  0  0  0  0  0  0  0  0
   -1.5768   -3.1547    0.3763 C   0  0  0  0  0  0  0  0  0  0  0  0
   -0.7202   -3.7408    1.0127 O   0  0  0  0  0  0  0  0  0  0  0  0
   -1.3349   -1.8938   -0.1343 N   0  0  0  0  0  0  0  0  0  0  0  0
   -2.0577   -1.4967   -0.7269 H   0  0  0  0  0  0  0  0  0  0  0  0
   -0.0370   -1.1963   -0.0575 C   0  0  1  0  0  0  0  0  0  0  0  0
    0.7296   -1.8094   -0.5454 H   0  0  0  0  0  0  0  0  0  0  0  0
   -0.1897    0.1211   -0.8477 C   0  0  0  0  0  0  0  0  0  0  0  0
   -0.2140   -0.1238   -1.9146 H   0  0  0  0  0  0  0  0  0  0  0  0
   -1.1435    0.5955   -0.5939 H   0  0  0  0  0  0  0  0  0  0  0  0
    0.9309    1.1395   -0.5823 C   0  0  0  0  0  0  0  0  0  0  0  0
    0.8055    1.5846    0.4109 H   0  0  0  0  0  0  0  0  0  0  0  0
    1.9013    0.6314   -0.6053 H   0  0  0  0  0  0  0  0  0  0  0  0
    0.9233    2.2400   -1.6484 C   0  0  0  0  0  0  0  0  0  0  0  0
    1.0903    1.7986   -2.6364 H   0  0  0  0  0  0  0  0  0  0  0  0
   -0.0530    2.7356   -1.6588 H   0  0  0  0  0  0  0  0  0  0  0  0
    2.0098    3.2727   -1.3641 C   0  0  0  0  0  0  0  0  0  0  0  0
    1.8527    3.7211   -0.3767 H   0  0  0  0  0  0  0  0  0  0  0  0
    2.9945    2.7921   -1.3660 H   0  0  0  0  0  0  0  0  0  0  0  0
    1.9497    4.3097   -2.3990 N   0  0  0  0  0  0  0  0  0  0  0  0
    2.6468    5.0358   -2.2327 H   0  0  0  0  0  0  0  0  0  0  0  0
    2.0622    3.9052   -3.3284 H   0  0  0  0  0  0  0  0  0  0  0  0
    0.4428   -0.9649    1.3972 C   0  0  0  0  0  0  0  0  0  0  0  0
    1.6371   -1.0119    1.6639 O   0  0  0  0  0  0  0  0  0  0  0  0
   -0.4423   -0.4995    2.3536 N   0  0  0  0  0  0  0  0  0  0  0  0
   -1.4275   -0.5591    2.1197 H   0  0  0  0  0  0  0  0  0  0  0  0
   -0.0618   -0.2820    3.7436 C   0  0  0  0  0  0  0  0  0  0  0  0
    0.7422    0.4584    3.8105 H   0  0  0  0  0  0  0  0  0  0  0  0
   -0.9174    0.0871    4.3169 H   0  0  0  0  0  0  0  0  0  0  0  0
    0.2827   -1.2177    4.1964 H   0  0  0  0  0  0  0  0  0  0  0  0
  1  2  1  0  0  0  0
  2  3  1  0  0  0  0
  2  4  1  0  0  0  0
  2  5  1  0  0  0  0
  5  6  2  0  0  0  0
  5  7  1  0  0  0  0
  7  8  1  0  0  0  0
  7  9  1  0  0  0  0
  9 10  1  0  0  0  0
  9 11  1  0  0  0  0
  9 26  1  0  0  0  0
 11 12  1  0  0  0  0
 11 13  1  0  0  0  0
 11 14  1  0  0  0  0
 14 15  1  0  0  0  0
 14 16  1  0  0  0  0
 14 17  1  0  0  0  0
 17 18  1  0  0  0  0
 17 19  1  0  0  0  0
 17 20  1  0  0  0  0
 20 21  1  0  0  0  0
 20 22  1  0  0  0  0
 20 23  1  0  0  0  0
 23 24  1  0  0  0  0
 23 25  1  0  0  0  0
 26 27  2  0  0  0  0
 26 28  1  0  0  0  0
 28 29  1  0  0  0  0
 28 30  1  0  0  0  0
 30 31  1  0  0  0  0
 30 32  1  0  0  0  0
 30 33  1  0  0  0  0
M  END
$$$$
