
  -OEChem-03222214063D

 33 32  0     1  0  0  0  0  0999 V2000
   -3.6891   -4.0184    1.6093 H   0  0  0  0  0  0  0  0  0  0  0  0
   -3.6932   -3.0217    1.1591 C   0  0  0  0  0  0  0  0  0  0  0  0
   -4.3798   -2.3841    1.7213 H   0  0  0  0  0  0  0  0  0  0  0  0
   -4.0440   -3.1029    0.1274 H   0  0  0  0  0  0  0  0  0  0  0  0
   -2.2967   -2.4294    1.1865 C   0  0  0  0  0  0  0  0  0  0  0  0
   -1.3709   -3.0693    1.6605 O   0  0  0  0  0  0  0  0  0  0  0  0
   -2.0815   -1.1639    0.6828 N   0  0  0  0  0  0  0  0  0  0  0  0
   -2.8969   -0.6317    0.3826 H   0  0  0  0  0  0  0  0  0  0  0  0
   -0.8025   -0.4445    0.7404 C   0  0  1  0  0  0  0  0  0  0  0  0
   -0.1371   -0.9093    1.4753 H   0  0  0  0  0  0  0  0  0  0  0  0
   -0.1502   -0.5319   -0.6502 C   0  0  0  0  0  0  0  0  0  0  0  0
   -0.0104   -1.5865   -0.9106 H   0  0  0  0  0  0  0  0  0  0  0  0
   -0.8266   -0.0924   -1.3914 H   0  0  0  0  0  0  0  0  0  0  0  0
    1.2054    0.1876   -0.7180 C   0  0  0  0  0  0  0  0  0  0  0  0
    1.0817    1.2484   -0.4772 H   0  0  0  0  0  0  0  0  0  0  0  0
    1.8903   -0.2511    0.0152 H   0  0  0  0  0  0  0  0  0  0  0  0
    1.8044    0.0655   -2.1232 C   0  0  0  0  0  0  0  0  0  0  0  0
    1.9413   -0.9913   -2.3744 H   0  0  0  0  0  0  0  0  0  0  0  0
    1.1156    0.5005   -2.8550 H   0  0  0  0  0  0  0  0  0  0  0  0
    3.1469    0.7857   -2.2059 C   0  0  0  0  0  0  0  0  0  0  0  0
    3.0208    1.8454   -1.9575 H   0  0  0  0  0  0  0  0  0  0  0  0
    3.8512    0.3490   -1.4894 H   0  0  0  0  0  0  0  0  0  0  0  0
    3.6661    0.6521   -3.5700 N   0  0  0  0  0  0  0  0  0  0  0  0
    4.5652    1.1226   -3.6721 H   0  0  0  0  0  0  0  0  0  0  0  0
    3.7347   -0.3284   -3.8426 H   0  0  0  0  0  0  0  0  0  0  0  0
   -1.0421    1.0144    1.1802 C   0  0  0  0  0  0  0  0  0  0  0  0
   -1.9843    1.6466    0.7161 O   0  0  0  0  0  0  0  0  0  0  0  0
   -0.2319    1.6031    2.1339 N   0  0  0  0  0  0  0  0  0  0  0  0
    0.5002    1.0324    2.5471 H   0  0  0  0  0  0  0  0  0  0  0  0
   -0.4336    2.9598    2.6272 C   0  0  0  0  0  0  0  0  0  0  0  0
   -1.4254    3.0596    3.0808 H   0  0  0  0  0  0  0  0  0  0  0  0
    0.3185    3.2028    3.3838 H   0  0  0  0  0  0  0  0  0  0  0  0
   -0.3461    3.6813    1.8081 H   0  0  0  0  0  0  0  0  0  0  0  0
  1  2  1  0  0  0  0
  2  3  1  0  0  0  0
  2  4  1  0  0  0  0
  2  5  1  0  0  0  0
  5  6  2  0  0  0  0
  5  7  1  0  0  0  0
  7  8  1  0  0  0  0
  7  9  1  0  0  0  0
  9 10  1  0  0  0  0
  9 11  1  0  0  0  0
  9 26  1  0  0  0  0
 11 12  1  0  0  0  0
 11 13  1  0  0  0  0
 11 14  1  0  0  0  0
 14 15  1  0  0  0  0
 14 16  1  0  0  0  0
 14 17  1  0  0  0  0
 17 18  1  0  0  0  0
 17 19  1  0  0  0  0
 17 20  1  0  0  0  0
 20 21  1  0  0  0  0
 20 22  1  0  0  0  0
 20 23  1  0  0  0  0
 23 24  1  0  0  0  0
 23 25  1  0  0  0  0
 26 27  2  0  0  0  0
 26 28  1  0  0  0  0
 28 29  1  0  0  0  0
 28 30  1  0  0  0  0
 30 31  1  0  0  0  0
 30 32  1  0  0  0  0
 30 33  1  0  0  0  0
M  END
$$$$

  -OEChem-03222214063D

 33 32  0     1  0  0  0  0  0999 V2000
   -3.6842   -4.0140    1.6004 H   0  0  0  0  0  0  0  0  0  0  0  0
   -3.6875   -3.0153    1.1550 C   0  0  0  0  0  0  0  0  0  0  0  0
   -4.3714   -2.3789    1.7220 H   0  0  0  0  0  0  0  0  0  0  0  0
   -4.0408   -3.0902    0.1237 H   0  0  0  0  0  0  0  0  0  0  0  0
   -2.2898   -2.4262    1.1808 C   0  0  0  0  0  0  0  0  0  0  0  0
   -1.3634   -3.0705    1.6474 O   0  0  0  0  0  0  0  0  0  0  0  0
   -2.0742   -1.1584    0.6831 N   0  0  0  0  0  0  0  0  0  0  0  0
   -2.8899   -0.6230    0.3890 H   0  0  0  0  0  0  0  0  0  0  0  0
   -0.7954   -0.4389    0.7466 C   0  0  1  0  0  0  0  0  0  0  0  0
   -0.1299   -0.9038    1.4812 H   0  0  0  0  0  0  0  0  0  0  0  0
   -0.1435   -0.5258   -0.6453 C   0  0  0  0  0  0  0  0  0  0  0  0
   -0.0125   -1.5776   -0.9206 H   0  0  0  0  0  0  0  0  0  0  0  0
   -0.8287   -0.0765   -1.3726 H   0  0  0  0  0  0  0  0  0  0  0  0
    1.2162    0.1884   -0.7300 C   0  0  0  0  0  0  0  0  0  0  0  0
    1.1630    1.1742   -0.2588 H   0  0  0  0  0  0  0  0  0  0  0  0
    1.9713   -0.3998   -0.1978 H   0  0  0  0  0  0  0  0  0  0  0  0
    1.6275    0.3834   -2.1937 C   0  0  0  0  0  0  0  0  0  0  0  0
    1.6771   -0.5891   -2.6942 H   0  0  0  0  0  0  0  0  0  0  0  0
    0.8763    0.9912   -2.7094 H   0  0  0  0  0  0  0  0  0  0  0  0
    2.9845    1.0747   -2.2892 C   0  0  0  0  0  0  0  0  0  0  0  0
    2.9457    2.0489   -1.7891 H   0  0  0  0  0  0  0  0  0  0  0  0
    3.7504    0.4677   -1.7938 H   0  0  0  0  0  0  0  0  0  0  0  0
    3.3198    1.2542   -3.7048 N   0  0  0  0  0  0  0  0  0  0  0  0
    4.2236    1.7137   -3.8160 H   0  0  0  0  0  0  0  0  0  0  0  0
    3.2994    0.3641   -4.2025 H   0  0  0  0  0  0  0  0  0  0  0  0
   -1.0473    1.0166    1.1930 C   0  0  0  0  0  0  0  0  0  0  0  0
   -1.9946    1.6430    0.7314 O   0  0  0  0  0  0  0  0  0  0  0  0
   -0.2456    1.6065    2.1532 N   0  0  0  0  0  0  0  0  0  0  0  0
    0.4913    1.0404    2.5638 H   0  0  0  0  0  0  0  0  0  0  0  0
   -0.4617    2.9581    2.6544 C   0  0  0  0  0  0  0  0  0  0  0  0
   -1.4573    3.0464    3.1019 H   0  0  0  0  0  0  0  0  0  0  0  0
    0.2833    3.2022    3.4177 H   0  0  0  0  0  0  0  0  0  0  0  0
   -0.3749    3.6864    1.8412 H   0  0  0  0  0  0  0  0  0  0  0  0
  1  2  1  0  0  0  0
  2  3  1  0  0  0  0
  2  4  1  0  0  0  0
  2  5  1  0  0  0  0
  5  6  2  0  0  0  0
  5  7  1  0  0  0  0
  7  8  1  0  0  0  0
  7  9  1  0  0  0  0
  9 10  1  0  0  0  0
  9 11  1  0  0  0  0
  9 26  1  0  0  0  0
 11 12  1  0  0  0  0
 11 13  1  0  0  0  0
 11 14  1  0  0  0  0
 14 15  1  0  0  0  0
 14 16  1  0  0  0  0
 14 17  1  0  0  0  0
 17 18  1  0  0  0  0
 17 19  1  0  0  0  0
 17 20  1  0  0  0  0
 20 21  1  0  0  0  0
 20 22  1  0  0  0  0
 20 23  1  0  0  0  0
 23 24  1  0  0  0  0
 23 25  1  0  0  0  0
 26 27  2  0  0  0  0
 26 28  1  0  0  0  0
 28 29  1  0  0  0  0
 28 30  1  0  0  0  0
 30 31  1  0  0  0  0
 30 32  1  0  0  0  0
 30 33  1  0  0  0  0
M  END
$$$$

  -OEChem-03222214063D

 33 32  0     1  0  0  0  0  0999 V2000
   -3.6865   -4.0094    1.6062 H   0  0  0  0  0  0  0  0  0  0  0  0
   -3.6880   -3.0101    1.1618 C   0  0  0  0  0  0  0  0  0  0  0  0
   -4.3651   -2.3712    1.7341 H   0  0  0  0  0  0  0  0  0  0  0  0
   -4.0487   -3.0828    0.1328 H   0  0  0  0  0  0  0  0  0  0  0  0
   -2.2877   -2.4268    1.1795 C   0  0  0  0  0  0  0  0  0  0  0  0
   -1.3608   -3.0750    1.6400 O   0  0  0  0  0  0  0  0  0  0  0  0
   -2.0708   -1.1586    0.6837 N   0  0  0  0  0  0  0  0  0  0  0  0
   -2.8868   -0.6198    0.3965 H   0  0  0  0  0  0  0  0  0  0  0  0
   -0.7913   -0.4403    0.7490 C   0  0  1  0  0  0  0  0  0  0  0  0
   -0.1244   -0.9062    1.4819 H   0  0  0  0  0  0  0  0  0  0  0  0
   -0.1439   -0.5232   -0.6458 C   0  0  0  0  0  0  0  0  0  0  0  0
   -0.0195   -1.5728   -0.9319 H   0  0  0  0  0  0  0  0  0  0  0  0
   -0.8379   -0.0695   -1.3621 H   0  0  0  0  0  0  0  0  0  0  0  0
    1.2198    0.1869   -0.7439 C   0  0  0  0  0  0  0  0  0  0  0  0
    1.2687    1.0370   -0.0583 H   0  0  0  0  0  0  0  0  0  0  0  0
    2.0126   -0.5130   -0.4593 H   0  0  0  0  0  0  0  0  0  0  0  0
    1.4567    0.7151   -2.1634 C   0  0  0  0  0  0  0  0  0  0  0  0
    1.3911   -0.1113   -2.8785 H   0  0  0  0  0  0  0  0  0  0  0  0
    0.6816    1.4459   -2.4184 H   0  0  0  0  0  0  0  0  0  0  0  0
    2.8272    1.3767   -2.2755 C   0  0  0  0  0  0  0  0  0  0  0  0
    2.9068    2.2005   -1.5573 H   0  0  0  0  0  0  0  0  0  0  0  0
    3.6142    0.6491   -2.0480 H   0  0  0  0  0  0  0  0  0  0  0  0
    2.9905    1.8874   -3.6398 N   0  0  0  0  0  0  0  0  0  0  0  0
    3.8994    2.3338   -3.7623 H   0  0  0  0  0  0  0  0  0  0  0  0
    2.8517    1.1474   -4.3278 H   0  0  0  0  0  0  0  0  0  0  0  0
   -1.0507    1.0137    1.1981 C   0  0  0  0  0  0  0  0  0  0  0  0
   -2.0034    1.6345    0.7397 O   0  0  0  0  0  0  0  0  0  0  0  0
   -0.2547    1.6067    2.1613 N   0  0  0  0  0  0  0  0  0  0  0  0
    0.4859    1.0449    2.5712 H   0  0  0  0  0  0  0  0  0  0  0  0
   -0.4816    2.9549    2.6670 C   0  0  0  0  0  0  0  0  0  0  0  0
   -1.4791    3.0348    3.1119 H   0  0  0  0  0  0  0  0  0  0  0  0
    0.2591    3.2011    3.4337 H   0  0  0  0  0  0  0  0  0  0  0  0
   -0.3974    3.6868    1.8568 H   0  0  0  0  0  0  0  0  0  0  0  0
  1  2  1  0  0  0  0
  2  3  1  0  0  0  0
  2  4  1  0  0  0  0
  2  5  1  0  0  0  0
  5  6  2  0  0  0  0
  5  7  1  0  0  0  0
  7  8  1  0  0  0  0
  7  9  1  0  0  0  0
  9 10  1  0  0  0  0
  9 11  1  0  0  0  0
  9 26  1  0  0  0  0
 11 12  1  0  0  0  0
 11 13  1  0  0  0  0
 11 14  1  0  0  0  0
 14 15  1  0  0  0  0
 14 16  1  0  0  0  0
 14 17  1  0  0  0  0
 17 18  1  0  0  0  0
 17 19  1  0  0  0  0
 17 20  1  0  0  0  0
 20 21  1  0  0  0  0
 20 22  1  0  0  0  0
 20 23  1  0  0  0  0
 23 24  1  0  0  0  0
 23 25  1  0  0  0  0
 26 27  2  0  0  0  0
 26 28  1  0  0  0  0
 28 29  1  0  0  0  0
 28 30  1  0  0  0  0
 30 31  1  0  0  0  0
 30 32  1  0  0  0  0
 30 33  1  0  0  0  0
M  END
$$$$

  -OEChem-03222214063D

 33 32  0     1  0  0  0  0  0999 V2000
   -3.6955   -4.0123    1.6316 H   0  0  0  0  0  0  0  0  0  0  0  0
   -3.6978   -3.0172    1.1779 C   0  0  0  0  0  0  0  0  0  0  0  0
   -4.3728   -2.3726    1.7459 H   0  0  0  0  0  0  0  0  0  0  0  0
   -4.0612   -3.0991    0.1506 H   0  0  0  0  0  0  0  0  0  0  0  0
   -2.2969   -2.4350    1.1867 C   0  0  0  0  0  0  0  0  0  0  0  0
   -1.3687   -3.0847    1.6424 O   0  0  0  0  0  0  0  0  0  0  0  0
   -2.0797   -1.1684    0.6864 N   0  0  0  0  0  0  0  0  0  0  0  0
   -2.8961   -0.6266    0.4059 H   0  0  0  0  0  0  0  0  0  0  0  0
   -0.7978   -0.4534    0.7450 C   0  0  1  0  0  0  0  0  0  0  0  0
   -0.1269   -0.9205    1.4732 H   0  0  0  0  0  0  0  0  0  0  0  0
   -0.1597   -0.5313   -0.6542 C   0  0  0  0  0  0  0  0  0  0  0  0
   -0.0345   -1.5815   -0.9385 H   0  0  0  0  0  0  0  0  0  0  0  0
   -0.8590   -0.0842   -1.3696 H   0  0  0  0  0  0  0  0  0  0  0  0
    1.2065    0.1775   -0.7556 C   0  0  0  0  0  0  0  0  0  0  0  0
    1.3805    0.8246    0.1082 H   0  0  0  0  0  0  0  0  0  0  0  0
    1.9991   -0.5782   -0.7569 H   0  0  0  0  0  0  0  0  0  0  0  0
    1.2960    1.0290   -2.0274 C   0  0  0  0  0  0  0  0  0  0  0  0
    1.1257    0.3971   -2.9051 H   0  0  0  0  0  0  0  0  0  0  0  0
    0.5180    1.8001   -2.0083 H   0  0  0  0  0  0  0  0  0  0  0  0
    2.6638    1.6958   -2.1392 C   0  0  0  0  0  0  0  0  0  0  0  0
    2.8475    2.3267   -1.2623 H   0  0  0  0  0  0  0  0  0  0  0  0
    3.4493    0.9333   -2.1809 H   0  0  0  0  0  0  0  0  0  0  0  0
    2.6889    2.5135   -3.3551 N   0  0  0  0  0  0  0  0  0  0  0  0
    3.5918    2.9722   -3.4754 H   0  0  0  0  0  0  0  0  0  0  0  0
    2.4497    1.9579   -4.1763 H   0  0  0  0  0  0  0  0  0  0  0  0
   -1.0506    1.0032    1.1916 C   0  0  0  0  0  0  0  0  0  0  0  0
   -2.0037    1.6248    0.7348 O   0  0  0  0  0  0  0  0  0  0  0  0
   -0.2501    1.5984    2.1499 N   0  0  0  0  0  0  0  0  0  0  0  0
    0.4985    1.0415    2.5516 H   0  0  0  0  0  0  0  0  0  0  0  0
   -0.4548    2.9590    2.6312 C   0  0  0  0  0  0  0  0  0  0  0  0
   -1.4514    3.0639    3.0728 H   0  0  0  0  0  0  0  0  0  0  0  0
    0.2891    3.2064    3.3947 H   0  0  0  0  0  0  0  0  0  0  0  0
   -0.3566    3.6744    1.8078 H   0  0  0  0  0  0  0  0  0  0  0  0
  1  2  1  0  0  0  0
  2  3  1  0  0  0  0
  2  4  1  0  0  0  0
  2  5  1  0  0  0  0
  5  6  2  0  0  0  0
  5  7  1  0  0  0  0
  7  8  1  0  0  0  0
  7  9  1  0  0  0  0
  9 10  1  0  0  0  0
  9 11  1  0  0  0  0
  9 26  1  0  0  0  0
 11 12  1  0  0  0  0
 11 13  1  0  0  0  0
 11 14  1  0  0  0  0
 14 15  1  0  0  0  0
 14 16  1  0  0  0  0
 14 17  1  0  0  0  0
 17 18  1  0  0  0  0
 17 19  1  0  0  0  0
 17 20  1  0  0  0  0
 20 21  1  0  0  0  0
 20 22  1  0  0  0  0
 20 23  1  0  0  0  0
 23 24  1  0  0  0  0
 23 25  1  0  0  0  0
 26 27  2  0  0  0  0
 26 28  1  0  0  0  0
 28 29  1  0  0  0  0
 28 30  1  0  0  0  0
 30 31  1  0  0  0  0
 30 32  1  0  0  0  0
 30 33  1  0  0  0  0
M  END
$$$$

  -OEChem-03222214063D

 33 32  0     1  0  0  0  0  0999 V2000
   -3.7011   -4.0131    1.6646 H   0  0  0  0  0  0  0  0  0  0  0  0
   -3.7056   -3.0216    1.2029 C   0  0  0  0  0  0  0  0  0  0  0  0
   -4.3742   -2.3709    1.7717 H   0  0  0  0  0  0  0  0  0  0  0  0
   -4.0787   -3.1109    0.1798 H   0  0  0  0  0  0  0  0  0  0  0  0
   -2.3035   -2.4424    1.1941 C   0  0  0  0  0  0  0  0  0  0  0  0
   -1.3719   -3.0918    1.6432 O   0  0  0  0  0  0  0  0  0  0  0  0
   -2.0885   -1.1794    0.6843 N   0  0  0  0  0  0  0  0  0  0  0  0
   -2.9067   -0.6357    0.4128 H   0  0  0  0  0  0  0  0  0  0  0  0
   -0.8059   -0.4656    0.7307 C   0  0  1  0  0  0  0  0  0  0  0  0
   -0.1318   -0.9307    1.4575 H   0  0  0  0  0  0  0  0  0  0  0  0
   -0.1740   -0.5414   -0.6697 C   0  0  0  0  0  0  0  0  0  0  0  0
   -0.0367   -1.5950   -0.9348 H   0  0  0  0  0  0  0  0  0  0  0  0
   -0.8726   -0.1140   -1.3976 H   0  0  0  0  0  0  0  0  0  0  0  0
    1.1901    0.1719   -0.7626 C   0  0  0  0  0  0  0  0  0  0  0  0
    1.4919    0.5728    0.2094 H   0  0  0  0  0  0  0  0  0  0  0  0
    1.9490   -0.5613   -1.0558 H   0  0  0  0  0  0  0  0  0  0  0  0
    1.1606    1.3017   -1.7988 C   0  0  0  0  0  0  0  0  0  0  0  0
    0.8804    0.8979   -2.7771 H   0  0  0  0  0  0  0  0  0  0  0  0
    0.4075    2.0429   -1.5095 H   0  0  0  0  0  0  0  0  0  0  0  0
    2.5231    1.9809   -1.9018 C   0  0  0  0  0  0  0  0  0  0  0  0
    2.8175    2.3832   -0.9262 H   0  0  0  0  0  0  0  0  0  0  0  0
    3.2808    1.2539   -2.2137 H   0  0  0  0  0  0  0  0  0  0  0  0
    2.4324    3.0671   -2.8813 N   0  0  0  0  0  0  0  0  0  0  0  0
    3.3295    3.5378   -2.9981 H   0  0  0  0  0  0  0  0  0  0  0  0
    2.0798    2.7266   -3.7758 H   0  0  0  0  0  0  0  0  0  0  0  0
   -1.0489    0.9946    1.1687 C   0  0  0  0  0  0  0  0  0  0  0  0
   -2.0063    1.6143    0.7183 O   0  0  0  0  0  0  0  0  0  0  0  0
   -0.2389    1.5926    2.1169 N   0  0  0  0  0  0  0  0  0  0  0  0
    0.5192    1.0401    2.5065 H   0  0  0  0  0  0  0  0  0  0  0  0
   -0.4249    2.9627    2.5776 C   0  0  0  0  0  0  0  0  0  0  0  0
   -1.4170    3.0859    3.0245 H   0  0  0  0  0  0  0  0  0  0  0  0
    0.3272    3.2134    3.3317 H   0  0  0  0  0  0  0  0  0  0  0  0
   -0.3245    3.6636    1.7422 H   0  0  0  0  0  0  0  0  0  0  0  0
  1  2  1  0  0  0  0
  2  3  1  0  0  0  0
  2  4  1  0  0  0  0
  2  5  1  0  0  0  0
  5  6  2  0  0  0  0
  5  7  1  0  0  0  0
  7  8  1  0  0  0  0
  7  9  1  0  0  0  0
  9 10  1  0  0  0  0
  9 11  1  0  0  0  0
  9 26  1  0  0  0  0
 11 12  1  0  0  0  0
 11 13  1  0  0  0  0
 11 14  1  0  0  0  0
 14 15  1  0  0  0  0
 14 16  1  0  0  0  0
 14 17  1  0  0  0  0
 17 18  1  0  0  0  0
 17 19  1  0  0  0  0
 17 20  1  0  0  0  0
 20 21  1  0  0  0  0
 20 22  1  0  0  0  0
 20 23  1  0  0  0  0
 23 24  1  0  0  0  0
 23 25  1  0  0  0  0
 26 27  2  0  0  0  0
 26 28  1  0  0  0  0
 28 29  1  0  0  0  0
 28 30  1  0  0  0  0
 30 31  1  0  0  0  0
 30 32  1  0  0  0  0
 30 33  1  0  0  0  0
M  END
$$$$

  -OEChem-03222214063D

 33 32  0     1  0  0  0  0  0999 V2000
   -3.6918   -4.0229    1.6815 H   0  0  0  0  0  0  0  0  0  0  0  0
   -3.7032   -3.0336    1.2155 C   0  0  0  0  0  0  0  0  0  0  0  0
   -4.3707   -2.3832    1.7860 H   0  0  0  0  0  0  0  0  0  0  0  0
   -4.0826   -3.1286    0.1952 H   0  0  0  0  0  0  0  0  0  0  0  0
   -2.3033   -2.4493    1.1944 C   0  0  0  0  0  0  0  0  0  0  0  0
   -1.3645   -3.0968    1.6310 O   0  0  0  0  0  0  0  0  0  0  0  0
   -2.0985   -1.1843    0.6851 N   0  0  0  0  0  0  0  0  0  0  0  0
   -2.9217   -0.6432    0.4237 H   0  0  0  0  0  0  0  0  0  0  0  0
   -0.8190   -0.4642    0.7219 C   0  0  1  0  0  0  0  0  0  0  0  0
   -0.1420   -0.9262    1.4480 H   0  0  0  0  0  0  0  0  0  0  0  0
   -0.1853   -0.5408   -0.6780 C   0  0  0  0  0  0  0  0  0  0  0  0
   -0.0329   -1.5973   -0.9233 H   0  0  0  0  0  0  0  0  0  0  0  0
   -0.8799   -0.1335   -1.4209 H   0  0  0  0  0  0  0  0  0  0  0  0
    1.1729    0.1817   -0.7668 C   0  0  0  0  0  0  0  0  0  0  0  0
    1.5960    0.3339    0.2313 H   0  0  0  0  0  0  0  0  0  0  0  0
    1.8688   -0.4599   -1.3172 H   0  0  0  0  0  0  0  0  0  0  0  0
    1.0613    1.5212   -1.5075 C   0  0  0  0  0  0  0  0  0  0  0  0
    0.6625    1.3541   -2.5132 H   0  0  0  0  0  0  0  0  0  0  0  0
    0.3693    2.1831   -0.9770 H   0  0  0  0  0  0  0  0  0  0  0  0
    2.4246    2.1990   -1.6105 C   0  0  0  0  0  0  0  0  0  0  0  0
    2.8416    2.3603   -0.6103 H   0  0  0  0  0  0  0  0  0  0  0  0
    3.1182    1.5616   -2.1699 H   0  0  0  0  0  0  0  0  0  0  0  0
    2.2590    3.4853   -2.2932 N   0  0  0  0  0  0  0  0  0  0  0  0
    3.1543    3.9573   -2.4193 H   0  0  0  0  0  0  0  0  0  0  0  0
    1.7794    3.3683   -3.1860 H   0  0  0  0  0  0  0  0  0  0  0  0
   -1.0612    0.9937    1.1640 C   0  0  0  0  0  0  0  0  0  0  0  0
   -2.0291    1.6090    0.7300 O   0  0  0  0  0  0  0  0  0  0  0  0
   -0.2424    1.5902    2.1051 N   0  0  0  0  0  0  0  0  0  0  0  0
    0.5391    1.0485    2.4620 H   0  0  0  0  0  0  0  0  0  0  0  0
   -0.4094    2.9681    2.5495 C   0  0  0  0  0  0  0  0  0  0  0  0
   -1.4020    3.1118    2.9893 H   0  0  0  0  0  0  0  0  0  0  0  0
    0.3421    3.2157    3.3053 H   0  0  0  0  0  0  0  0  0  0  0  0
   -0.2936    3.6578    1.7066 H   0  0  0  0  0  0  0  0  0  0  0  0
  1  2  1  0  0  0  0
  2  3  1  0  0  0  0
  2  4  1  0  0  0  0
  2  5  1  0  0  0  0
  5  6  2  0  0  0  0
  5  7  1  0  0  0  0
  7  8  1  0  0  0  0
  7  9  1  0  0  0  0
  9 10  1  0  0  0  0
  9 11  1  0  0  0  0
  9 26  1  0  0  0  0
 11 12  1  0  0  0  0
 11 13  1  0  0  0  0
 11 14  1  0  0  0  0
 14 15  1  0  0  0  0
 14 16  1  0  0  0  0
 14 17  1  0  0  0  0
 17 18  1  0  0  0  0
 17 19  1  0  0  0  0
 17 20  1  0  0  0  0
 20 21  1  0  0  0  0
 20 22  1  0  0  0  0
 20 23  1  0  0  0  0
 23 24  1  0  0  0  0
 23 25  1  0  0  0  0
 26 27  2  0  0  0  0
 26 28  1  0  0  0  0
 28 29  1  0  0  0  0
 28 30  1  0  0  0  0
 30 31  1  0  0  0  0
 30 32  1  0  0  0  0
 30 33  1  0  0  0  0
M  END
$$$$

  -OEChem-03222214063D

 33 32  0     1  0  0  0  0  0999 V2000
   -3.6571   -4.0536    1.6403 H   0  0  0  0  0  0  0  0  0  0  0  0
   -3.6833   -3.0533    1.1991 C   0  0  0  0  0  0  0  0  0  0  0  0
   -4.3499   -2.4233    1.7930 H   0  0  0  0  0  0  0  0  0  0  0  0
   -4.0733   -3.1267    0.1810 H   0  0  0  0  0  0  0  0  0  0  0  0
   -2.2896   -2.4549    1.1764 C   0  0  0  0  0  0  0  0  0  0  0  0
   -1.3400   -3.1017    1.5902 O   0  0  0  0  0  0  0  0  0  0  0  0
   -2.1030   -1.1775    0.6925 N   0  0  0  0  0  0  0  0  0  0  0  0
   -2.9354   -0.6389    0.4562 H   0  0  0  0  0  0  0  0  0  0  0  0
   -0.8341   -0.4397    0.7452 C   0  0  1  0  0  0  0  0  0  0  0  0
   -0.1576   -0.8996    1.4732 H   0  0  0  0  0  0  0  0  0  0  0  0
   -0.1864   -0.5164   -0.6517 C   0  0  0  0  0  0  0  0  0  0  0  0
   -0.0240   -1.5745   -0.8838 H   0  0  0  0  0  0  0  0  0  0  0  0
   -0.8808   -0.1229   -1.4018 H   0  0  0  0  0  0  0  0  0  0  0  0
    1.1668    0.2112   -0.7710 C   0  0  0  0  0  0  0  0  0  0  0  0
    1.7125    0.1385    0.1754 H   0  0  0  0  0  0  0  0  0  0  0  0
    1.7617   -0.3071   -1.5303 H   0  0  0  0  0  0  0  0  0  0  0  0
    1.0366    1.6835   -1.1939 C   0  0  0  0  0  0  0  0  0  0  0  0
    0.4781    1.7486   -2.1332 H   0  0  0  0  0  0  0  0  0  0  0  0
    0.4898    2.2554   -0.4415 H   0  0  0  0  0  0  0  0  0  0  0  0
    2.4146    2.3120   -1.3805 C   0  0  0  0  0  0  0  0  0  0  0  0
    3.0043    2.2058   -0.4633 H   0  0  0  0  0  0  0  0  0  0  0  0
    2.9510    1.8055   -2.1905 H   0  0  0  0  0  0  0  0  0  0  0  0
    2.2424    3.7328   -1.6966 N   0  0  0  0  0  0  0  0  0  0  0  0
    3.1397    4.1871   -1.8658 H   0  0  0  0  0  0  0  0  0  0  0  0
    1.6146    3.8581   -2.4910 H   0  0  0  0  0  0  0  0  0  0  0  0
   -1.1101    1.0019    1.2162 C   0  0  0  0  0  0  0  0  0  0  0  0
   -2.0923    1.6035    0.7944 O   0  0  0  0  0  0  0  0  0  0  0  0
   -0.3069    1.5951    2.1728 N   0  0  0  0  0  0  0  0  0  0  0  0
    0.5016    1.0731    2.4972 H   0  0  0  0  0  0  0  0  0  0  0  0
   -0.4862    2.9692    2.6246 C   0  0  0  0  0  0  0  0  0  0  0  0
   -1.4879    3.1088    3.0447 H   0  0  0  0  0  0  0  0  0  0  0  0
    0.2485    3.2112    3.3986 H   0  0  0  0  0  0  0  0  0  0  0  0
   -0.3531    3.6660    1.7902 H   0  0  0  0  0  0  0  0  0  0  0  0
  1  2  1  0  0  0  0
  2  3  1  0  0  0  0
  2  4  1  0  0  0  0
  2  5  1  0  0  0  0
  5  6  2  0  0  0  0
  5  7  1  0  0  0  0
  7  8  1  0  0  0  0
  7  9  1  0  0  0  0
  9 10  1  0  0  0  0
  9 11  1  0  0  0  0
  9 26  1  0  0  0  0
 11 12  1  0  0  0  0
 11 13  1  0  0  0  0
 11 14  1  0  0  0  0
 14 15  1  0  0  0  0
 14 16  1  0  0  0  0
 14 17  1  0  0  0  0
 17 18  1  0  0  0  0
 17 19  1  0  0  0  0
 17 20  1  0  0  0  0
 20 21  1  0  0  0  0
 20 22  1  0  0  0  0
 20 23  1  0  0  0  0
 23 24  1  0  0  0  0
 23 25  1  0  0  0  0
 26 27  2  0  0  0  0
 26 28  1  0  0  0  0
 28 29  1  0  0  0  0
 28 30  1  0  0  0  0
 30 31  1  0  0  0  0
 30 32  1  0  0  0  0
 30 33  1  0  0  0  0
M  END
$$$$

  -OEChem-03222214063D

 33 32  0     1  0  0  0  0  0999 V2000
   -3.6566   -4.0712    1.4854 H   0  0  0  0  0  0  0  0  0  0  0  0
   -3.6783   -3.0494    1.0965 C   0  0  0  0  0  0  0  0  0  0  0  0
   -4.3622   -2.4547    1.7069 H   0  0  0  0  0  0  0  0  0  0  0  0
   -4.0445   -3.0716    0.0674 H   0  0  0  0  0  0  0  0  0  0  0  0
   -2.2878   -2.4444    1.1384 C   0  0  0  0  0  0  0  0  0  0  0  0
   -1.3521   -3.0937    1.5791 O   0  0  0  0  0  0  0  0  0  0  0  0
   -2.0886   -1.1555    0.6905 N   0  0  0  0  0  0  0  0  0  0  0  0
   -2.9127   -0.6163    0.4272 H   0  0  0  0  0  0  0  0  0  0  0  0
   -0.8282   -0.4113    0.8211 C   0  0  1  0  0  0  0  0  0  0  0  0
   -0.1769   -0.8764    1.5681 H   0  0  0  0  0  0  0  0  0  0  0  0
   -0.1380   -0.4792   -0.5591 C   0  0  0  0  0  0  0  0  0  0  0  0
    0.0176   -1.5371   -0.7966 H   0  0  0  0  0  0  0  0  0  0  0  0
   -0.8180   -0.0746   -1.3166 H   0  0  0  0  0  0  0  0  0  0  0  0
    1.2238    0.2309   -0.6937 C   0  0  0  0  0  0  0  0  0  0  0  0
    1.8715   -0.0593    0.1400 H   0  0  0  0  0  0  0  0  0  0  0  0
    1.6906   -0.1374   -1.6134 H   0  0  0  0  0  0  0  0  0  0  0  0
    1.1485    1.7639   -0.7759 C   0  0  0  0  0  0  0  0  0  0  0  0
    0.3399    2.0607   -1.4515 H   0  0  0  0  0  0  0  0  0  0  0  0
    0.9432    2.1898    0.2066 H   0  0  0  0  0  0  0  0  0  0  0  0
    2.4658    2.3448   -1.2817 C   0  0  0  0  0  0  0  0  0  0  0  0
    3.2944    2.0092   -0.6481 H   0  0  0  0  0  0  0  0  0  0  0  0
    2.6584    2.0032   -2.3048 H   0  0  0  0  0  0  0  0  0  0  0  0
    2.3721    3.8069   -1.2447 N   0  0  0  0  0  0  0  0  0  0  0  0
    3.2158    4.2418   -1.6179 H   0  0  0  0  0  0  0  0  0  0  0  0
    1.5433    4.1329   -1.7429 H   0  0  0  0  0  0  0  0  0  0  0  0
   -1.1614    1.0136    1.3090 C   0  0  0  0  0  0  0  0  0  0  0  0
   -2.1275    1.6083    0.8418 O   0  0  0  0  0  0  0  0  0  0  0  0
   -0.4261    1.6018    2.3223 N   0  0  0  0  0  0  0  0  0  0  0  0
    0.3771    1.0915    2.6778 H   0  0  0  0  0  0  0  0  0  0  0  0
   -0.6794    2.9501    2.8148 C   0  0  0  0  0  0  0  0  0  0  0  0
   -1.6960    3.0280    3.2141 H   0  0  0  0  0  0  0  0  0  0  0  0
    0.0252    3.1991    3.6139 H   0  0  0  0  0  0  0  0  0  0  0  0
   -0.5600    3.6807    2.0078 H   0  0  0  0  0  0  0  0  0  0  0  0
  1  2  1  0  0  0  0
  2  3  1  0  0  0  0
  2  4  1  0  0  0  0
  2  5  1  0  0  0  0
  5  6  2  0  0  0  0
  5  7  1  0  0  0  0
  7  8  1  0  0  0  0
  7  9  1  0  0  0  0
  9 10  1  0  0  0  0
  9 11  1  0  0  0  0
  9 26  1  0  0  0  0
 11 12  1  0  0  0  0
 11 13  1  0  0  0  0
 11 14  1  0  0  0  0
 14 15  1  0  0  0  0
 14 16  1  0  0  0  0
 14 17  1  0  0  0  0
 17 18  1  0  0  0  0
 17 19  1  0  0  0  0
 17 20  1  0  0  0  0
 20 21  1  0  0  0  0
 20 22  1  0  0  0  0
 20 23  1  0  0  0  0
 23 24  1  0  0  0  0
 23 25  1  0  0  0  0
 26 27  2  0  0  0  0
 26 28  1  0  0  0  0
 28 29  1  0  0  0  0
 28 30  1  0  0  0  0
 30 31  1  0  0  0  0
 30 32  1  0  0  0  0
 30 33  1  0  0  0  0
M  END
$$$$

  -OEChem-03222214063D

 33 32  0     1  0  0  0  0  0999 V2000
   -3.6849   -4.0694    1.4301 H   0  0  0  0  0  0  0  0  0  0  0  0
   -3.6893   -3.0493    1.0360 C   0  0  0  0  0  0  0  0  0  0  0  0
   -4.3954   -2.4504    1.6162 H   0  0  0  0  0  0  0  0  0  0  0  0
   -4.0149   -3.0757   -0.0065 H   0  0  0  0  0  0  0  0  0  0  0  0
   -2.3006   -2.4461    1.1299 C   0  0  0  0  0  0  0  0  0  0  0  0
   -1.3800   -3.1007    1.5936 O   0  0  0  0  0  0  0  0  0  0  0  0
   -2.0859   -1.1534    0.7006 N   0  0  0  0  0  0  0  0  0  0  0  0
   -2.9007   -0.6100    0.4175 H   0  0  0  0  0  0  0  0  0  0  0  0
   -0.8276   -0.4137    0.8746 C   0  0  1  0  0  0  0  0  0  0  0  0
   -0.1904   -0.8836    1.6307 H   0  0  0  0  0  0  0  0  0  0  0  0
   -0.1207   -0.4750   -0.5008 C   0  0  0  0  0  0  0  0  0  0  0  0
    0.0128   -1.5307   -0.7609 H   0  0  0  0  0  0  0  0  0  0  0  0
   -0.7953   -0.0415   -1.2471 H   0  0  0  0  0  0  0  0  0  0  0  0
    1.2511    0.2136   -0.6588 C   0  0  0  0  0  0  0  0  0  0  0  0
    1.9719   -0.2727    0.0067 H   0  0  0  0  0  0  0  0  0  0  0  0
    1.5836    0.0312   -1.6863 H   0  0  0  0  0  0  0  0  0  0  0  0
    1.2832    1.7254   -0.3965 C   0  0  0  0  0  0  0  0  0  0  0  0
    0.3845    2.1959   -0.8087 H   0  0  0  0  0  0  0  0  0  0  0  0
    1.3155    1.9146    0.6773 H   0  0  0  0  0  0  0  0  0  0  0  0
    2.5180    2.3636   -1.0264 C   0  0  0  0  0  0  0  0  0  0  0  0
    3.4253    1.8720   -0.6580 H   0  0  0  0  0  0  0  0  0  0  0  0
    2.4865    2.2495   -2.1158 H   0  0  0  0  0  0  0  0  0  0  0  0
    2.5394    3.7842   -0.6660 N   0  0  0  0  0  0  0  0  0  0  0  0
    3.3383    4.2600   -1.0855 H   0  0  0  0  0  0  0  0  0  0  0  0
    1.6653    4.2407   -0.9289 H   0  0  0  0  0  0  0  0  0  0  0  0
   -1.1959    1.0031    1.3670 C   0  0  0  0  0  0  0  0  0  0  0  0
   -2.1452    1.5958    0.8633 O   0  0  0  0  0  0  0  0  0  0  0  0
   -0.5076    1.5946    2.4107 N   0  0  0  0  0  0  0  0  0  0  0  0
    0.2935    1.0955    2.7865 H   0  0  0  0  0  0  0  0  0  0  0  0
   -0.7781    2.9470    2.8821 C   0  0  0  0  0  0  0  0  0  0  0  0
   -1.8140    3.0339    3.2264 H   0  0  0  0  0  0  0  0  0  0  0  0
   -0.1157    3.1960    3.7166 H   0  0  0  0  0  0  0  0  0  0  0  0
   -0.6106    3.6721    2.0786 H   0  0  0  0  0  0  0  0  0  0  0  0
  1  2  1  0  0  0  0
  2  3  1  0  0  0  0
  2  4  1  0  0  0  0
  2  5  1  0  0  0  0
  5  6  2  0  0  0  0
  5  7  1  0  0  0  0
  7  8  1  0  0  0  0
  7  9  1  0  0  0  0
  9 10  1  0  0  0  0
  9 11  1  0  0  0  0
  9 26  1  0  0  0  0
 11 12  1  0  0  0  0
 11 13  1  0  0  0  0
 11 14  1  0  0  0  0
 14 15  1  0  0  0  0
 14 16  1  0  0  0  0
 14 17  1  0  0  0  0
 17 18  1  0  0  0  0
 17 19  1  0  0  0  0
 17 20  1  0  0  0  0
 20 21  1  0  0  0  0
 20 22  1  0  0  0  0
 20 23  1  0  0  0  0
 23 24  1  0  0  0  0
 23 25  1  0  0  0  0
 26 27  2  0  0  0  0
 26 28  1  0  0  0  0
 28 29  1  0  0  0  0
 28 30  1  0  0  0  0
 30 31  1  0  0  0  0
 30 32  1  0  0  0  0
 30 33  1  0  0  0  0
M  END
$$$$

  -OEChem-03222214063D

 33 32  0     1  0  0  0  0  0999 V2000
   -3.6859   -4.0880    1.4240 H   0  0  0  0  0  0  0  0  0  0  0  0
   -3.6899   -3.0700    1.0247 C   0  0  0  0  0  0  0  0  0  0  0  0
   -4.4128   -2.4740    1.5869 H   0  0  0  0  0  0  0  0  0  0  0  0
   -3.9934   -3.1041   -0.0243 H   0  0  0  0  0  0  0  0  0  0  0  0
   -2.3077   -2.4561    1.1436 C   0  0  0  0  0  0  0  0  0  0  0  0
   -1.3883   -3.1072    1.6144 O   0  0  0  0  0  0  0  0  0  0  0  0
   -2.0956   -1.1611    0.7207 N   0  0  0  0  0  0  0  0  0  0  0  0
   -2.9098   -0.6205    0.4309 H   0  0  0  0  0  0  0  0  0  0  0  0
   -0.8393   -0.4190    0.8986 C   0  0  1  0  0  0  0  0  0  0  0  0
   -0.1937   -0.8877    1.6484 H   0  0  0  0  0  0  0  0  0  0  0  0
   -0.1472   -0.4674   -0.4871 C   0  0  0  0  0  0  0  0  0  0  0  0
   -0.0327   -1.5183   -0.7734 H   0  0  0  0  0  0  0  0  0  0  0  0
   -0.8358   -0.0113   -1.2069 H   0  0  0  0  0  0  0  0  0  0  0  0
    1.2249    0.2151   -0.6862 C   0  0  0  0  0  0  0  0  0  0  0  0
    1.9927   -0.4266   -0.2412 H   0  0  0  0  0  0  0  0  0  0  0  0
    1.4177    0.2502   -1.7638 H   0  0  0  0  0  0  0  0  0  0  0  0
    1.3992    1.6225   -0.1072 C   0  0  0  0  0  0  0  0  0  0  0  0
    0.5273    2.2377   -0.3516 H   0  0  0  0  0  0  0  0  0  0  0  0
    1.5005    1.5601    0.9780 H   0  0  0  0  0  0  0  0  0  0  0  0
    2.6519    2.2925   -0.6623 C   0  0  0  0  0  0  0  0  0  0  0  0
    3.5333    1.6755   -0.4545 H   0  0  0  0  0  0  0  0  0  0  0  0
    2.5668    2.4103   -1.7483 H   0  0  0  0  0  0  0  0  0  0  0  0
    2.7950    3.6025   -0.0203 N   0  0  0  0  0  0  0  0  0  0  0  0
    3.6166    4.0963   -0.3693 H   0  0  0  0  0  0  0  0  0  0  0  0
    1.9530    4.1647   -0.1476 H   0  0  0  0  0  0  0  0  0  0  0  0
   -1.2329    0.9907    1.3975 C   0  0  0  0  0  0  0  0  0  0  0  0
   -2.1784    1.5778    0.8797 O   0  0  0  0  0  0  0  0  0  0  0  0
   -0.5630    1.5923    2.4473 N   0  0  0  0  0  0  0  0  0  0  0  0
    0.2473    1.1076    2.8226 H   0  0  0  0  0  0  0  0  0  0  0  0
   -0.8380    2.9505    2.8987 C   0  0  0  0  0  0  0  0  0  0  0  0
   -1.8864    3.0515    3.1986 H   0  0  0  0  0  0  0  0  0  0  0  0
   -0.2086    3.1967    3.7593 H   0  0  0  0  0  0  0  0  0  0  0  0
   -0.6282    3.6682    2.0987 H   0  0  0  0  0  0  0  0  0  0  0  0
  1  2  1  0  0  0  0
  2  3  1  0  0  0  0
  2  4  1  0  0  0  0
  2  5  1  0  0  0  0
  5  6  2  0  0  0  0
  5  7  1  0  0  0  0
  7  8  1  0  0  0  0
  7  9  1  0  0  0  0
  9 10  1  0  0  0  0
  9 11  1  0  0  0  0
  9 26  1  0  0  0  0
 11 12  1  0  0  0  0
 11 13  1  0  0  0  0
 11 14  1  0  0  0  0
 14 15  1  0  0  0  0
 14 16  1  0  0  0  0
 14 17  1  0  0  0  0
 17 18  1  0  0  0  0
 17 19  1  0  0  0  0
 17 20  1  0  0  0  0
 20 21  1  0  0  0  0
 20 22  1  0  0  0  0
 20 23  1  0  0  0  0
 23 24  1  0  0  0  0
 23 25  1  0  0  0  0
 26 27  2  0  0  0  0
 26 28  1  0  0  0  0
 28 29  1  0  0  0  0
 28 30  1  0  0  0  0
 30 31  1  0  0  0  0
 30 32  1  0  0  0  0
 30 33  1  0  0  0  0
M  END
$$$$

  -OEChem-03222214063D

 33 32  0     1  0  0  0  0  0999 V2000
   -3.6681   -4.1060    1.4412 H   0  0  0  0  0  0  0  0  0  0  0  0
   -3.6804   -3.0900    1.0368 C   0  0  0  0  0  0  0  0  0  0  0  0
   -4.4118   -2.4981    1.5923 H   0  0  0  0  0  0  0  0  0  0  0  0
   -3.9787   -3.1324   -0.0135 H   0  0  0  0  0  0  0  0  0  0  0  0
   -2.3049   -2.4617    1.1592 C   0  0  0  0  0  0  0  0  0  0  0  0
   -1.3807   -3.1021    1.6353 O   0  0  0  0  0  0  0  0  0  0  0  0
   -2.1036   -1.1673    0.7292 N   0  0  0  0  0  0  0  0  0  0  0  0
   -2.9223   -0.6354    0.4357 H   0  0  0  0  0  0  0  0  0  0  0  0
   -0.8536   -0.4130    0.9029 C   0  0  1  0  0  0  0  0  0  0  0  0
   -0.2019   -0.8722    1.6534 H   0  0  0  0  0  0  0  0  0  0  0  0
   -0.1676   -0.4595   -0.4866 C   0  0  0  0  0  0  0  0  0  0  0  0
   -0.0549   -1.5098   -0.7768 H   0  0  0  0  0  0  0  0  0  0  0  0
   -0.8667   -0.0053   -1.1977 H   0  0  0  0  0  0  0  0  0  0  0  0
    1.1999    0.2301   -0.7095 C   0  0  0  0  0  0  0  0  0  0  0  0
    1.9789   -0.5114   -0.5033 H   0  0  0  0  0  0  0  0  0  0  0  0
    1.2749    0.4897   -1.7708 H   0  0  0  0  0  0  0  0  0  0  0  0
    1.5212    1.4692    0.1292 C   0  0  0  0  0  0  0  0  0  0  0  0
    0.7268    2.2127    0.0121 H   0  0  0  0  0  0  0  0  0  0  0  0
    1.5991    1.1863    1.1819 H   0  0  0  0  0  0  0  0  0  0  0  0
    2.8458    2.0928   -0.2976 C   0  0  0  0  0  0  0  0  0  0  0  0
    3.6562    1.3613   -0.2014 H   0  0  0  0  0  0  0  0  0  0  0  0
    2.7948    2.4097   -1.3453 H   0  0  0  0  0  0  0  0  0  0  0  0
    3.1059    3.2462    0.5689 N   0  0  0  0  0  0  0  0  0  0  0  0
    3.9900    3.6951    0.3291 H   0  0  0  0  0  0  0  0  0  0  0  0
    2.3365    3.9150    0.5254 H   0  0  0  0  0  0  0  0  0  0  0  0
   -1.2651    0.9960    1.3940 C   0  0  0  0  0  0  0  0  0  0  0  0
   -2.2183    1.5671    0.8723 O   0  0  0  0  0  0  0  0  0  0  0  0
   -0.6068    1.6161    2.4409 N   0  0  0  0  0  0  0  0  0  0  0  0
    0.2129    1.1490    2.8189 H   0  0  0  0  0  0  0  0  0  0  0  0
   -0.9148    2.9663    2.8948 C   0  0  0  0  0  0  0  0  0  0  0  0
   -1.9597    3.0345    3.2151 H   0  0  0  0  0  0  0  0  0  0  0  0
   -0.2764    3.2348    3.7420 H   0  0  0  0  0  0  0  0  0  0  0  0
   -0.7436    3.6883    2.0897 H   0  0  0  0  0  0  0  0  0  0  0  0
  1  2  1  0  0  0  0
  2  3  1  0  0  0  0
  2  4  1  0  0  0  0
  2  5  1  0  0  0  0
  5  6  2  0  0  0  0
  5  7  1  0  0  0  0
  7  8  1  0  0  0  0
  7  9  1  0  0  0  0
  9 10  1  0  0  0  0
  9 11  1  0  0  0  0
  9 26  1  0  0  0  0
 11 12  1  0  0  0  0
 11 13  1  0  0  0  0
 11 14  1  0  0  0  0
 14 15  1  0  0  0  0
 14 16  1  0  0  0  0
 14 17  1  0  0  0  0
 17 18  1  0  0  0  0
 17 19  1  0  0  0  0
 17 20  1  0  0  0  0
 20 21  1  0  0  0  0
 20 22  1  0  0  0  0
 20 23  1  0  0  0  0
 23 24  1  0  0  0  0
 23 25  1  0  0  0  0
 26 27  2  0  0  0  0
 26 28  1  0  0  0  0
 28 29  1  0  0  0  0
 28 30  1  0  0  0  0
 30 31  1  0  0  0  0
 30 32  1  0  0  0  0
 30 33  1  0  0  0  0
M  END
$$$$

  -OEChem-03222214063D

 33 32  0     1  0  0  0  0  0999 V2000
   -3.6379   -4.1221    1.4592 H   0  0  0  0  0  0  0  0  0  0  0  0
   -3.6640   -3.1076    1.0518 C   0  0  0  0  0  0  0  0  0  0  0  0
   -4.4018   -2.5236    1.6073 H   0  0  0  0  0  0  0  0  0  0  0  0
   -3.9631   -3.1571    0.0020 H   0  0  0  0  0  0  0  0  0  0  0  0
   -2.2964   -2.4617    1.1698 C   0  0  0  0  0  0  0  0  0  0  0  0
   -1.3665   -3.0866    1.6551 O   0  0  0  0  0  0  0  0  0  0  0  0
   -2.1095   -1.1692    0.7275 N   0  0  0  0  0  0  0  0  0  0  0  0
   -2.9336   -0.6498    0.4268 H   0  0  0  0  0  0  0  0  0  0  0  0
   -0.8677   -0.4001    0.8960 C   0  0  1  0  0  0  0  0  0  0  0  0
   -0.2143   -0.8479    1.6517 H   0  0  0  0  0  0  0  0  0  0  0  0
   -0.1775   -0.4473   -0.4908 C   0  0  0  0  0  0  0  0  0  0  0  0
   -0.0515   -1.4992   -0.7695 H   0  0  0  0  0  0  0  0  0  0  0  0
   -0.8803   -0.0114   -1.2095 H   0  0  0  0  0  0  0  0  0  0  0  0
    1.1836    0.2570   -0.7168 C   0  0  0  0  0  0  0  0  0  0  0  0
    1.9463   -0.5275   -0.7681 H   0  0  0  0  0  0  0  0  0  0  0  0
    1.1599    0.7454   -1.6968 H   0  0  0  0  0  0  0  0  0  0  0  0
    1.6475    1.2739    0.3295 C   0  0  0  0  0  0  0  0  0  0  0  0
    0.9616    2.1259    0.3392 H   0  0  0  0  0  0  0  0  0  0  0  0
    1.6618    0.8083    1.3191 H   0  0  0  0  0  0  0  0  0  0  0  0
    3.0498    1.7830    0.0152 C   0  0  0  0  0  0  0  0  0  0  0  0
    3.7621    0.9503    0.0136 H   0  0  0  0  0  0  0  0  0  0  0  0
    3.0691    2.2503   -0.9758 H   0  0  0  0  0  0  0  0  0  0  0  0
    3.4205    2.7594    1.0439 N   0  0  0  0  0  0  0  0  0  0  0  0
    4.3671    3.1099    0.8947 H   0  0  0  0  0  0  0  0  0  0  0  0
    2.7505    3.5281    1.0743 H   0  0  0  0  0  0  0  0  0  0  0  0
   -1.2871    1.0109    1.3737 C   0  0  0  0  0  0  0  0  0  0  0  0
   -2.2466    1.5700    0.8508 O   0  0  0  0  0  0  0  0  0  0  0  0
   -0.6307    1.6428    2.4151 N   0  0  0  0  0  0  0  0  0  0  0  0
    0.1943    1.1847    2.7938 H   0  0  0  0  0  0  0  0  0  0  0  0
   -0.9626    2.9842    2.8777 C   0  0  0  0  0  0  0  0  0  0  0  0
   -2.0054    3.0288    3.2086 H   0  0  0  0  0  0  0  0  0  0  0  0
   -0.3215    3.2620    3.7199 H   0  0  0  0  0  0  0  0  0  0  0  0
   -0.8152    3.7132    2.0741 H   0  0  0  0  0  0  0  0  0  0  0  0
  1  2  1  0  0  0  0
  2  3  1  0  0  0  0
  2  4  1  0  0  0  0
  2  5  1  0  0  0  0
  5  6  2  0  0  0  0
  5  7  1  0  0  0  0
  7  8  1  0  0  0  0
  7  9  1  0  0  0  0
  9 10  1  0  0  0  0
  9 11  1  0  0  0  0
  9 26  1  0  0  0  0
 11 12  1  0  0  0  0
 11 13  1  0  0  0  0
 11 14  1  0  0  0  0
 14 15  1  0  0  0  0
 14 16  1  0  0  0  0
 14 17  1  0  0  0  0
 17 18  1  0  0  0  0
 17 19  1  0  0  0  0
 17 20  1  0  0  0  0
 20 21  1  0  0  0  0
 20 22  1  0  0  0  0
 20 23  1  0  0  0  0
 23 24  1  0  0  0  0
 23 25  1  0  0  0  0
 26 27  2  0  0  0  0
 26 28  1  0  0  0  0
 28 29  1  0  0  0  0
 28 30  1  0  0  0  0
 30 31  1  0  0  0  0
 30 32  1  0  0  0  0
 30 33  1  0  0  0  0
M  END
$$$$

  -OEChem-03222214063D

 33 32  0     1  0  0  0  0  0999 V2000
   -3.6259   -4.1222    1.4660 H   0  0  0  0  0  0  0  0  0  0  0  0
   -3.6546   -3.1084    1.0573 C   0  0  0  0  0  0  0  0  0  0  0  0
   -4.3928   -2.5249    1.6127 H   0  0  0  0  0  0  0  0  0  0  0  0
   -3.9550   -3.1600    0.0080 H   0  0  0  0  0  0  0  0  0  0  0  0
   -2.2889   -2.4585    1.1731 C   0  0  0  0  0  0  0  0  0  0  0  0
   -1.3596   -3.0736    1.6716 O   0  0  0  0  0  0  0  0  0  0  0  0
   -2.1063   -1.1700    0.7182 N   0  0  0  0  0  0  0  0  0  0  0  0
   -2.9313   -0.6602    0.4043 H   0  0  0  0  0  0  0  0  0  0  0  0
   -0.8730   -0.3888    0.8895 C   0  0  1  0  0  0  0  0  0  0  0  0
   -0.2259   -0.8285    1.6553 H   0  0  0  0  0  0  0  0  0  0  0  0
   -0.1698   -0.4373   -0.4892 C   0  0  0  0  0  0  0  0  0  0  0  0
   -0.0171   -1.4929   -0.7390 H   0  0  0  0  0  0  0  0  0  0  0  0
   -0.8691   -0.0357   -1.2310 H   0  0  0  0  0  0  0  0  0  0  0  0
    1.1860    0.2819   -0.7029 C   0  0  0  0  0  0  0  0  0  0  0  0
    1.9055   -0.4779   -1.0272 H   0  0  0  0  0  0  0  0  0  0  0  0
    1.0748    0.9899   -1.5310 H   0  0  0  0  0  0  0  0  0  0  0  0
    1.7933    1.0315    0.4890 C   0  0  0  0  0  0  0  0  0  0  0  0
    1.2270    1.9492    0.6641 H   0  0  0  0  0  0  0  0  0  0  0  0
    1.7582    0.4085    1.3877 H   0  0  0  0  0  0  0  0  0  0  0  0
    3.2456    1.4094    0.2163 C   0  0  0  0  0  0  0  0  0  0  0  0
    3.8497    0.5059    0.0767 H   0  0  0  0  0  0  0  0  0  0  0  0
    3.3156    2.0105   -0.6974 H   0  0  0  0  0  0  0  0  0  0  0  0
    3.7431    2.1731    1.3647 N   0  0  0  0  0  0  0  0  0  0  0  0
    4.7321    2.3995    1.2557 H   0  0  0  0  0  0  0  0  0  0  0  0
    3.1918    3.0195    1.5064 H   0  0  0  0  0  0  0  0  0  0  0  0
   -1.2932    1.0273    1.3465 C   0  0  0  0  0  0  0  0  0  0  0  0
   -2.2521    1.5788    0.8150 O   0  0  0  0  0  0  0  0  0  0  0  0
   -0.6417    1.6690    2.3845 N   0  0  0  0  0  0  0  0  0  0  0  0
    0.1664    1.2029    2.7895 H   0  0  0  0  0  0  0  0  0  0  0  0
   -0.9957    3.0022    2.8547 C   0  0  0  0  0  0  0  0  0  0  0  0
   -2.0400    3.0282    3.1832 H   0  0  0  0  0  0  0  0  0  0  0  0
   -0.3611    3.2850    3.7001 H   0  0  0  0  0  0  0  0  0  0  0  0
   -0.8583    3.7385    2.0561 H   0  0  0  0  0  0  0  0  0  0  0  0
  1  2  1  0  0  0  0
  2  3  1  0  0  0  0
  2  4  1  0  0  0  0
  2  5  1  0  0  0  0
  5  6  2  0  0  0  0
  5  7  1  0  0  0  0
  7  8  1  0  0  0  0
  7  9  1  0  0  0  0
  9 10  1  0  0  0  0
  9 11  1  0  0  0  0
  9 26  1  0  0  0  0
 11 12  1  0  0  0  0
 11 13  1  0  0  0  0
 11 14  1  0  0  0  0
 14 15  1  0  0  0  0
 14 16  1  0  0  0  0
 14 17  1  0  0  0  0
 17 18  1  0  0  0  0
 17 19  1  0  0  0  0
 17 20  1  0  0  0  0
 20 21  1  0  0  0  0
 20 22  1  0  0  0  0
 20 23  1  0  0  0  0
 23 24  1  0  0  0  0
 23 25  1  0  0  0  0
 26 27  2  0  0  0  0
 26 28  1  0  0  0  0
 28 29  1  0  0  0  0
 28 30  1  0  0  0  0
 30 31  1  0  0  0  0
 30 32  1  0  0  0  0
 30 33  1  0  0  0  0
M  END
$$$$

  -OEChem-03222214063D

 33 32  0     1  0  0  0  0  0999 V2000
   -3.6441   -4.1045    1.4546 H   0  0  0  0  0  0  0  0  0  0  0  0
   -3.6622   -3.0942    1.0363 C   0  0  0  0  0  0  0  0  0  0  0  0
   -4.4094   -2.5041    1.5724 H   0  0  0  0  0  0  0  0  0  0  0  0
   -3.9423   -3.1537   -0.0181 H   0  0  0  0  0  0  0  0  0  0  0  0
   -2.2968   -2.4475    1.1716 C   0  0  0  0  0  0  0  0  0  0  0  0
   -1.3783   -3.0615    1.6911 O   0  0  0  0  0  0  0  0  0  0  0  0
   -2.1015   -1.1639    0.7078 N   0  0  0  0  0  0  0  0  0  0  0  0
   -2.9193   -0.6546    0.3753 H   0  0  0  0  0  0  0  0  0  0  0  0
   -0.8674   -0.3863    0.8887 C   0  0  1  0  0  0  0  0  0  0  0  0
   -0.2321   -0.8260    1.6639 H   0  0  0  0  0  0  0  0  0  0  0  0
   -0.1531   -0.4345   -0.4822 C   0  0  0  0  0  0  0  0  0  0  0  0
    0.0170   -1.4928   -0.7092 H   0  0  0  0  0  0  0  0  0  0  0  0
   -0.8401   -0.0522   -1.2452 H   0  0  0  0  0  0  0  0  0  0  0  0
    1.2036    0.2859   -0.6689 C   0  0  0  0  0  0  0  0  0  0  0  0
    1.8495   -0.3774   -1.2544 H   0  0  0  0  0  0  0  0  0  0  0  0
    1.0343    1.1839   -1.2729 H   0  0  0  0  0  0  0  0  0  0  0  0
    1.9515    0.7149    0.6013 C   0  0  0  0  0  0  0  0  0  0  0  0
    1.4833    1.6066    1.0192 H   0  0  0  0  0  0  0  0  0  0  0  0
    1.9257   -0.0857    1.3469 H   0  0  0  0  0  0  0  0  0  0  0  0
    3.4077    1.0434    0.2871 C   0  0  0  0  0  0  0  0  0  0  0  0
    3.9243    0.1473   -0.0749 H   0  0  0  0  0  0  0  0  0  0  0  0
    3.4626    1.8079   -0.4960 H   0  0  0  0  0  0  0  0  0  0  0  0
    4.0465    1.5304    1.5135 N   0  0  0  0  0  0  0  0  0  0  0  0
    5.0440    1.6907    1.3705 H   0  0  0  0  0  0  0  0  0  0  0  0
    3.5892    2.3762    1.8534 H   0  0  0  0  0  0  0  0  0  0  0  0
   -1.2758    1.0381    1.3269 C   0  0  0  0  0  0  0  0  0  0  0  0
   -2.2186    1.5972    0.7753 O   0  0  0  0  0  0  0  0  0  0  0  0
   -0.6294    1.6826    2.3654 N   0  0  0  0  0  0  0  0  0  0  0  0
    0.1505    1.1987    2.8027 H   0  0  0  0  0  0  0  0  0  0  0  0
   -0.9776    3.0214    2.8235 C   0  0  0  0  0  0  0  0  0  0  0  0
   -2.0278    3.0607    3.1316 H   0  0  0  0  0  0  0  0  0  0  0  0
   -0.3565    3.3013    3.6797 H   0  0  0  0  0  0  0  0  0  0  0  0
   -0.8166    3.7521    2.0242 H   0  0  0  0  0  0  0  0  0  0  0  0
  1  2  1  0  0  0  0
  2  3  1  0  0  0  0
  2  4  1  0  0  0  0
  2  5  1  0  0  0  0
  5  6  2  0  0  0  0
  5  7  1  0  0  0  0
  7  8  1  0  0  0  0
  7  9  1  0  0  0  0
  9 10  1  0  0  0  0
  9 11  1  0  0  0  0
  9 26  1  0  0  0  0
 11 12  1  0  0  0  0
 11 13  1  0  0  0  0
 11 14  1  0  0  0  0
 14 15  1  0  0  0  0
 14 16  1  0  0  0  0
 14 17  1  0  0  0  0
 17 18  1  0  0  0  0
 17 19  1  0  0  0  0
 17 20  1  0  0  0  0
 20 21  1  0  0  0  0
 20 22  1  0  0  0  0
 20 23  1  0  0  0  0
 23 24  1  0  0  0  0
 23 25  1  0  0  0  0
 26 27  2  0  0  0  0
 26 28  1  0  0  0  0
 28 29  1  0  0  0  0
 28 30  1  0  0  0  0
 30 31  1  0  0  0  0
 30 32  1  0  0  0  0
 30 33  1  0  0  0  0
M  END
$$$$

  -OEChem-03222214063D

 33 32  0     1  0  0  0  0  0999 V2000
   -3.6940   -4.0507    1.5023 H   0  0  0  0  0  0  0  0  0  0  0  0
   -3.6923   -3.0483    1.0650 C   0  0  0  0  0  0  0  0  0  0  0  0
   -4.4263   -2.4331    1.5912 H   0  0  0  0  0  0  0  0  0  0  0  0
   -3.9764   -3.1225    0.0126 H   0  0  0  0  0  0  0  0  0  0  0  0
   -2.3136   -2.4270    1.1863 C   0  0  0  0  0  0  0  0  0  0  0  0
   -1.4101   -3.0475    1.7237 O   0  0  0  0  0  0  0  0  0  0  0  0
   -2.0907   -1.1569    0.6980 N   0  0  0  0  0  0  0  0  0  0  0  0
   -2.8961   -0.6376    0.3513 H   0  0  0  0  0  0  0  0  0  0  0  0
   -0.8386   -0.4051    0.8626 C   0  0  1  0  0  0  0  0  0  0  0  0
   -0.2060   -0.8485    1.6381 H   0  0  0  0  0  0  0  0  0  0  0  0
   -0.1321   -0.4571   -0.5094 C   0  0  0  0  0  0  0  0  0  0  0  0
    0.0291   -1.5155   -0.7413 H   0  0  0  0  0  0  0  0  0  0  0  0
   -0.8071   -0.0591   -1.2749 H   0  0  0  0  0  0  0  0  0  0  0  0
    1.2321    0.2499   -0.6590 C   0  0  0  0  0  0  0  0  0  0  0  0
    1.7885   -0.2544   -1.4562 H   0  0  0  0  0  0  0  0  0  0  0  0
    1.0510    1.2784   -0.9892 H   0  0  0  0  0  0  0  0  0  0  0  0
    2.0975    0.3099    0.6093 C   0  0  0  0  0  0  0  0  0  0  0  0
    1.6684    0.9993    1.3348 H   0  0  0  0  0  0  0  0  0  0  0  0
    2.1509   -0.6839    1.0662 H   0  0  0  0  0  0  0  0  0  0  0  0
    3.5106    0.7778    0.2726 C   0  0  0  0  0  0  0  0  0  0  0  0
    3.9877    0.0649   -0.4093 H   0  0  0  0  0  0  0  0  0  0  0  0
    3.4769    1.7538   -0.2245 H   0  0  0  0  0  0  0  0  0  0  0  0
    4.2815    0.8727    1.5162 N   0  0  0  0  0  0  0  0  0  0  0  0
    5.2558    1.1110    1.3290 H   0  0  0  0  0  0  0  0  0  0  0  0
    3.8615    1.5430    2.1593 H   0  0  0  0  0  0  0  0  0  0  0  0
   -1.2102    1.0375    1.2755 C   0  0  0  0  0  0  0  0  0  0  0  0
   -2.1378    1.6103    0.7123 O   0  0  0  0  0  0  0  0  0  0  0  0
   -0.5477    1.6884    2.2995 N   0  0  0  0  0  0  0  0  0  0  0  0
    0.1847    1.1751    2.7824 H   0  0  0  0  0  0  0  0  0  0  0  0
   -0.8867    3.0315    2.7527 C   0  0  0  0  0  0  0  0  0  0  0  0
   -1.9208    3.0657    3.1110 H   0  0  0  0  0  0  0  0  0  0  0  0
   -0.2270    3.3315    3.5724 H   0  0  0  0  0  0  0  0  0  0  0  0
   -0.7723    3.7514    1.9356 H   0  0  0  0  0  0  0  0  0  0  0  0
  1  2  1  0  0  0  0
  2  3  1  0  0  0  0
  2  4  1  0  0  0  0
  2  5  1  0  0  0  0
  5  6  2  0  0  0  0
  5  7  1  0  0  0  0
  7  8  1  0  0  0  0
  7  9  1  0  0  0  0
  9 10  1  0  0  0  0
  9 11  1  0  0  0  0
  9 26  1  0  0  0  0
 11 12  1  0  0  0  0
 11 13  1  0  0  0  0
 11 14  1  0  0  0  0
 14 15  1  0  0  0  0
 14 16  1  0  0  0  0
 14 17  1  0  0  0  0
 17 18  1  0  0  0  0
 17 19  1  0  0  0  0
 17 20  1  0  0  0  0
 20 21  1  0  0  0  0
 20 22  1  0  0  0  0
 20 23  1  0  0  0  0
 23 24  1  0  0  0  0
 23 25  1  0  0  0  0
 26 27  2  0  0  0  0
 26 28  1  0  0  0  0
 28 29  1  0  0  0  0
 28 30  1  0  0  0  0
 30 31  1  0  0  0  0
 30 32  1  0  0  0  0
 30 33  1  0  0  0  0
M  END
$$$$

  -OEChem-03222214063D

 33 32  0     1  0  0  0  0  0999 V2000
   -3.7060   -4.0423    1.5545 H   0  0  0  0  0  0  0  0  0  0  0  0
   -3.7061   -3.0408    1.1154 C   0  0  0  0  0  0  0  0  0  0  0  0
   -4.4236   -2.4190    1.6562 H   0  0  0  0  0  0  0  0  0  0  0  0
   -4.0133   -3.1150    0.0695 H   0  0  0  0  0  0  0  0  0  0  0  0
   -2.3204   -2.4301    1.2055 C   0  0  0  0  0  0  0  0  0  0  0  0
   -1.4129   -3.0523    1.7340 O   0  0  0  0  0  0  0  0  0  0  0  0
   -2.0966   -1.1678    0.6971 N   0  0  0  0  0  0  0  0  0  0  0  0
   -2.9037   -0.6497    0.3533 H   0  0  0  0  0  0  0  0  0  0  0  0
   -0.8324   -0.4277    0.8112 C   0  0  1  0  0  0  0  0  0  0  0  0
   -0.1939   -0.8798    1.5768 H   0  0  0  0  0  0  0  0  0  0  0  0
   -0.1406   -0.4962   -0.5642 C   0  0  0  0  0  0  0  0  0  0  0  0
    0.0178   -1.5531   -0.8035 H   0  0  0  0  0  0  0  0  0  0  0  0
   -0.8122   -0.0863   -1.3264 H   0  0  0  0  0  0  0  0  0  0  0  0
    1.2189    0.2206   -0.6763 C   0  0  0  0  0  0  0  0  0  0  0  0
    1.6951   -0.0917   -1.6117 H   0  0  0  0  0  0  0  0  0  0  0  0
    1.0418    1.2995   -0.7431 H   0  0  0  0  0  0  0  0  0  0  0  0
    2.1762   -0.0450    0.4969 C   0  0  0  0  0  0  0  0  0  0  0  0
    1.7751    0.3641    1.4256 H   0  0  0  0  0  0  0  0  0  0  0  0
    2.3002   -1.1252    0.6282 H   0  0  0  0  0  0  0  0  0  0  0  0
    3.5384    0.5886    0.2288 C   0  0  0  0  0  0  0  0  0  0  0  0
    3.9714    0.1714   -0.6873 H   0  0  0  0  0  0  0  0  0  0  0  0
    3.4299    1.6704    0.0917 H   0  0  0  0  0  0  0  0  0  0  0  0
    4.4182    0.3099    1.3680 N   0  0  0  0  0  0  0  0  0  0  0  0
    5.3552    0.6821    1.2116 H   0  0  0  0  0  0  0  0  0  0  0  0
    4.0241    0.6690    2.2368 H   0  0  0  0  0  0  0  0  0  0  0  0
   -1.1303    1.0311    1.2188 C   0  0  0  0  0  0  0  0  0  0  0  0
   -2.0559    1.6344    0.6862 O   0  0  0  0  0  0  0  0  0  0  0  0
   -0.3953    1.6609    2.2061 N   0  0  0  0  0  0  0  0  0  0  0  0
    0.3287    1.1184    2.6688 H   0  0  0  0  0  0  0  0  0  0  0  0
   -0.6639    3.0184    2.6634 C   0  0  0  0  0  0  0  0  0  0  0  0
   -1.6856    3.0974    3.0497 H   0  0  0  0  0  0  0  0  0  0  0  0
    0.0302    3.2928    3.4637 H   0  0  0  0  0  0  0  0  0  0  0  0
   -0.5422    3.7305    1.8405 H   0  0  0  0  0  0  0  0  0  0  0  0
  1  2  1  0  0  0  0
  2  3  1  0  0  0  0
  2  4  1  0  0  0  0
  2  5  1  0  0  0  0
  5  6  2  0  0  0  0
  5  7  1  0  0  0  0
  7  8  1  0  0  0  0
  7  9  1  0  0  0  0
  9 10  1  0  0  0  0
  9 11  1  0  0  0  0
  9 26  1  0  0  0  0
 11 12  1  0  0  0  0
 11 13  1  0  0  0  0
 11 14  1  0  0  0  0
 14 15  1  0  0  0  0
 14 16  1  0  0  0  0
 14 17  1  0  0  0  0
 17 18  1  0  0  0  0
 17 19  1  0  0  0  0
 17 20  1  0  0  0  0
 20 21  1  0  0  0  0
 20 22  1  0  0  0  0
 20 23  1  0  0  0  0
 23 24  1  0  0  0  0
 23 25  1  0  0  0  0
 26 27  2  0  0  0  0
 26 28  1  0  0  0  0
 28 29  1  0  0  0  0
 28 30  1  0  0  0  0
 30 31  1  0  0  0  0
 30 32  1  0  0  0  0
 30 33  1  0  0  0  0
M  END
$$$$

  -OEChem-03222214063D

 33 32  0     1  0  0  0  0  0999 V2000
   -3.6739   -4.0519    1.5833 H   0  0  0  0  0  0  0  0  0  0  0  0
   -3.6889   -3.0515    1.1417 C   0  0  0  0  0  0  0  0  0  0  0  0
   -4.3944   -2.4307    1.6991 H   0  0  0  0  0  0  0  0  0  0  0  0
   -4.0231   -3.1296    0.1043 H   0  0  0  0  0  0  0  0  0  0  0  0
   -2.3034   -2.4357    1.1952 C   0  0  0  0  0  0  0  0  0  0  0  0
   -1.3794   -3.0566    1.6964 O   0  0  0  0  0  0  0  0  0  0  0  0
   -2.0987   -1.1698    0.6874 N   0  0  0  0  0  0  0  0  0  0  0  0
   -2.9164   -0.6560    0.3631 H   0  0  0  0  0  0  0  0  0  0  0  0
   -0.8357   -0.4241    0.7717 C   0  0  1  0  0  0  0  0  0  0  0  0
   -0.1911   -0.8775    1.5306 H   0  0  0  0  0  0  0  0  0  0  0  0
   -0.1462   -0.5063   -0.6031 C   0  0  0  0  0  0  0  0  0  0  0  0
    0.0148   -1.5610   -0.8506 H   0  0  0  0  0  0  0  0  0  0  0  0
   -0.8177   -0.0901   -1.3617 H   0  0  0  0  0  0  0  0  0  0  0  0
    1.2031    0.2295   -0.6908 C   0  0  0  0  0  0  0  0  0  0  0  0
    1.5884    0.1114   -1.7090 H   0  0  0  0  0  0  0  0  0  0  0  0
    1.0535    1.3010   -0.5223 H   0  0  0  0  0  0  0  0  0  0  0  0
    2.2448   -0.3066    0.3018 C   0  0  0  0  0  0  0  0  0  0  0  0
    1.9266   -0.1097    1.3290 H   0  0  0  0  0  0  0  0  0  0  0  0
    2.3446   -1.3902    0.1787 H   0  0  0  0  0  0  0  0  0  0  0  0
    3.6004    0.3536    0.0671 C   0  0  0  0  0  0  0  0  0  0  0  0
    3.9391    0.1620   -0.9572 H   0  0  0  0  0  0  0  0  0  0  0  0
    3.5188    1.4380    0.2012 H   0  0  0  0  0  0  0  0  0  0  0  0
    4.5640   -0.2037    1.0210 N   0  0  0  0  0  0  0  0  0  0  0  0
    5.4937    0.1939    0.8853 H   0  0  0  0  0  0  0  0  0  0  0  0
    4.2494   -0.0778    1.9826 H   0  0  0  0  0  0  0  0  0  0  0  0
   -1.1005    1.0352    1.1925 C   0  0  0  0  0  0  0  0  0  0  0  0
   -2.0370    1.6542    0.6997 O   0  0  0  0  0  0  0  0  0  0  0  0
   -0.3186    1.6404    2.1592 N   0  0  0  0  0  0  0  0  0  0  0  0
    0.4173    1.0832    2.5839 H   0  0  0  0  0  0  0  0  0  0  0  0
   -0.5411    3.0002    2.6344 C   0  0  0  0  0  0  0  0  0  0  0  0
   -1.5410    3.0952    3.0709 H   0  0  0  0  0  0  0  0  0  0  0  0
    0.1964    3.2589    3.4004 H   0  0  0  0  0  0  0  0  0  0  0  0
   -0.4474    3.7138    1.8090 H   0  0  0  0  0  0  0  0  0  0  0  0
  1  2  1  0  0  0  0
  2  3  1  0  0  0  0
  2  4  1  0  0  0  0
  2  5  1  0  0  0  0
  5  6  2  0  0  0  0
  5  7  1  0  0  0  0
  7  8  1  0  0  0  0
  7  9  1  0  0  0  0
  9 10  1  0  0  0  0
  9 11  1  0  0  0  0
  9 26  1  0  0  0  0
 11 12  1  0  0  0  0
 11 13  1  0  0  0  0
 11 14  1  0  0  0  0
 14 15  1  0  0  0  0
 14 16  1  0  0  0  0
 14 17  1  0  0  0  0
 17 18  1  0  0  0  0
 17 19  1  0  0  0  0
 17 20  1  0  0  0  0
 20 21  1  0  0  0  0
 20 22  1  0  0  0  0
 20 23  1  0  0  0  0
 23 24  1  0  0  0  0
 23 25  1  0  0  0  0
 26 27  2  0  0  0  0
 26 28  1  0  0  0  0
 28 29  1  0  0  0  0
 28 30  1  0  0  0  0
 30 31  1  0  0  0  0
 30 32  1  0  0  0  0
 30 33  1  0  0  0  0
M  END
$$$$

  -OEChem-03222214063D

 33 32  0     1  0  0  0  0  0999 V2000
   -3.6501   -4.0430    1.6131 H   0  0  0  0  0  0  0  0  0  0  0  0
   -3.6691   -3.0458    1.1649 C   0  0  0  0  0  0  0  0  0  0  0  0
   -4.3711   -2.4221    1.7235 H   0  0  0  0  0  0  0  0  0  0  0  0
   -4.0103   -3.1308    0.1305 H   0  0  0  0  0  0  0  0  0  0  0  0
   -2.2838   -2.4287    1.2033 C   0  0  0  0  0  0  0  0  0  0  0  0
   -1.3538   -3.0478    1.6956 O   0  0  0  0  0  0  0  0  0  0  0  0
   -2.0854   -1.1627    0.6933 N   0  0  0  0  0  0  0  0  0  0  0  0
   -2.9056   -0.6494    0.3748 H   0  0  0  0  0  0  0  0  0  0  0  0
   -0.8189   -0.4214    0.7575 C   0  0  1  0  0  0  0  0  0  0  0  0
   -0.1606   -0.8723    1.5061 H   0  0  0  0  0  0  0  0  0  0  0  0
   -0.1502   -0.5134   -0.6276 C   0  0  0  0  0  0  0  0  0  0  0  0
   -0.0086   -1.5667   -0.8924 H   0  0  0  0  0  0  0  0  0  0  0  0
   -0.8303   -0.0795   -1.3686 H   0  0  0  0  0  0  0  0  0  0  0  0
    1.1996    0.2198   -0.7246 C   0  0  0  0  0  0  0  0  0  0  0  0
    1.4604    0.3140   -1.7843 H   0  0  0  0  0  0  0  0  0  0  0  0
    1.1222    1.2339   -0.3210 H   0  0  0  0  0  0  0  0  0  0  0  0
    2.3199   -0.5519   -0.0152 C   0  0  0  0  0  0  0  0  0  0  0  0
    2.0866   -0.6589    1.0480 H   0  0  0  0  0  0  0  0  0  0  0  0
    2.4035   -1.5557   -0.4450 H   0  0  0  0  0  0  0  0  0  0  0  0
    3.6540    0.1735   -0.1651 C   0  0  0  0  0  0  0  0  0  0  0  0
    3.9001    0.2935   -1.2261 H   0  0  0  0  0  0  0  0  0  0  0  0
    3.5916    1.1709    0.2841 H   0  0  0  0  0  0  0  0  0  0  0  0
    4.6930   -0.6175    0.5006 N   0  0  0  0  0  0  0  0  0  0  0  0
    5.6058   -0.1676    0.4301 H   0  0  0  0  0  0  0  0  0  0  0  0
    4.4508   -0.8032    1.4736 H   0  0  0  0  0  0  0  0  0  0  0  0
   -1.0795    1.0368    1.1853 C   0  0  0  0  0  0  0  0  0  0  0  0
   -2.0219    1.6577    0.7065 O   0  0  0  0  0  0  0  0  0  0  0  0
   -0.2819    1.6388    2.1414 N   0  0  0  0  0  0  0  0  0  0  0  0
    0.4579    1.0787    2.5554 H   0  0  0  0  0  0  0  0  0  0  0  0
   -0.4955    2.9974    2.6240 C   0  0  0  0  0  0  0  0  0  0  0  0
   -1.4889    3.0928    3.0750 H   0  0  0  0  0  0  0  0  0  0  0  0
    0.2534    3.2519    3.3801 H   0  0  0  0  0  0  0  0  0  0  0  0
   -0.4121    3.7135    1.7998 H   0  0  0  0  0  0  0  0  0  0  0  0
  1  2  1  0  0  0  0
  2  3  1  0  0  0  0
  2  4  1  0  0  0  0
  2  5  1  0  0  0  0
  5  6  2  0  0  0  0
  5  7  1  0  0  0  0
  7  8  1  0  0  0  0
  7  9  1  0  0  0  0
  9 10  1  0  0  0  0
  9 11  1  0  0  0  0
  9 26  1  0  0  0  0
 11 12  1  0  0  0  0
 11 13  1  0  0  0  0
 11 14  1  0  0  0  0
 14 15  1  0  0  0  0
 14 16  1  0  0  0  0
 14 17  1  0  0  0  0
 17 18  1  0  0  0  0
 17 19  1  0  0  0  0
 17 20  1  0  0  0  0
 20 21  1  0  0  0  0
 20 22  1  0  0  0  0
 20 23  1  0  0  0  0
 23 24  1  0  0  0  0
 23 25  1  0  0  0  0
 26 27  2  0  0  0  0
 26 28  1  0  0  0  0
 28 29  1  0  0  0  0
 28 30  1  0  0  0  0
 30 31  1  0  0  0  0
 30 32  1  0  0  0  0
 30 33  1  0  0  0  0
M  END
$$$$

  -OEChem-03222214063D

 33 32  0     1  0  0  0  0  0999 V2000
   -3.6183   -4.0411    1.6197 H   0  0  0  0  0  0  0  0  0  0  0  0
   -3.6410   -3.0436    1.1720 C   0  0  0  0  0  0  0  0  0  0  0  0
   -4.3463   -2.4231    1.7301 H   0  0  0  0  0  0  0  0  0  0  0  0
   -3.9811   -3.1295    0.1372 H   0  0  0  0  0  0  0  0  0  0  0  0
   -2.2582   -2.4210    1.2109 C   0  0  0  0  0  0  0  0  0  0  0  0
   -1.3251   -3.0372    1.7012 O   0  0  0  0  0  0  0  0  0  0  0  0
   -2.0644   -1.1547    0.7002 N   0  0  0  0  0  0  0  0  0  0  0  0
   -2.8862   -0.6424    0.3834 H   0  0  0  0  0  0  0  0  0  0  0  0
   -0.7975   -0.4137    0.7571 C   0  0  1  0  0  0  0  0  0  0  0  0
   -0.1250   -0.8614    1.4960 H   0  0  0  0  0  0  0  0  0  0  0  0
   -0.1473   -0.5075   -0.6362 C   0  0  0  0  0  0  0  0  0  0  0  0
   -0.0235   -1.5595   -0.9149 H   0  0  0  0  0  0  0  0  0  0  0  0
   -0.8355   -0.0607   -1.3617 H   0  0  0  0  0  0  0  0  0  0  0  0
    1.2033    0.2237   -0.7453 C   0  0  0  0  0  0  0  0  0  0  0  0
    1.3360    0.5493   -1.7826 H   0  0  0  0  0  0  0  0  0  0  0  0
    1.2262    1.1216   -0.1218 H   0  0  0  0  0  0  0  0  0  0  0  0
    2.3632   -0.7108   -0.3826 C   0  0  0  0  0  0  0  0  0  0  0  0
    2.2256   -1.0923    0.6340 H   0  0  0  0  0  0  0  0  0  0  0  0
    2.3738   -1.5670   -1.0654 H   0  0  0  0  0  0  0  0  0  0  0  0
    3.6985    0.0214   -0.4727 C   0  0  0  0  0  0  0  0  0  0  0  0
    3.8427    0.4176   -1.4842 H   0  0  0  0  0  0  0  0  0  0  0  0
    3.7124    0.8635    0.2281 H   0  0  0  0  0  0  0  0  0  0  0  0
    4.7701   -0.9247   -0.1489 N   0  0  0  0  0  0  0  0  0  0  0  0
    5.6852   -0.4753   -0.1807 H   0  0  0  0  0  0  0  0  0  0  0  0
    4.6108   -1.3667    0.7566 H   0  0  0  0  0  0  0  0  0  0  0  0
   -1.0701    1.0423    1.1888 C   0  0  0  0  0  0  0  0  0  0  0  0
   -2.0183    1.6556    0.7114 O   0  0  0  0  0  0  0  0  0  0  0  0
   -0.2769    1.6529    2.1433 N   0  0  0  0  0  0  0  0  0  0  0  0
    0.4616    1.0971    2.5654 H   0  0  0  0  0  0  0  0  0  0  0  0
   -0.5124    3.0052    2.6337 C   0  0  0  0  0  0  0  0  0  0  0  0
   -1.5088    3.0823    3.0816 H   0  0  0  0  0  0  0  0  0  0  0  0
    0.2298    3.2667    3.3941 H   0  0  0  0  0  0  0  0  0  0  0  0
   -0.4372    3.7279    1.8144 H   0  0  0  0  0  0  0  0  0  0  0  0
  1  2  1  0  0  0  0
  2  3  1  0  0  0  0
  2  4  1  0  0  0  0
  2  5  1  0  0  0  0
  5  6  2  0  0  0  0
  5  7  1  0  0  0  0
  7  8  1  0  0  0  0
  7  9  1  0  0  0  0
  9 10  1  0  0  0  0
  9 11  1  0  0  0  0
  9 26  1  0  0  0  0
 11 12  1  0  0  0  0
 11 13  1  0  0  0  0
 11 14  1  0  0  0  0
 14 15  1  0  0  0  0
 14 16  1  0  0  0  0
 14 17  1  0  0  0  0
 17 18  1  0  0  0  0
 17 19  1  0  0  0  0
 17 20  1  0  0  0  0
 20 21  1  0  0  0  0
 20 22  1  0  0  0  0
 20 23  1  0  0  0  0
 23 24  1  0  0  0  0
 23 25  1  0  0  0  0
 26 27  2  0  0  0  0
 26 28  1  0  0  0  0
 28 29  1  0  0  0  0
 28 30  1  0  0  0  0
 30 31  1  0  0  0  0
 30 32  1  0  0  0  0
 30 33  1  0  0  0  0
M  END
$$$$

  -OEChem-03222214063D

 33 32  0     1  0  0  0  0  0999 V2000
   -3.6126   -4.0435    1.6102 H   0  0  0  0  0  0  0  0  0  0  0  0
   -3.6346   -3.0456    1.1630 C   0  0  0  0  0  0  0  0  0  0  0  0
   -4.3436   -2.4261    1.7174 H   0  0  0  0  0  0  0  0  0  0  0  0
   -3.9691   -3.1318    0.1263 H   0  0  0  0  0  0  0  0  0  0  0  0
   -2.2532   -2.4206    1.2099 C   0  0  0  0  0  0  0  0  0  0  0  0
   -1.3209   -3.0375    1.7011 O   0  0  0  0  0  0  0  0  0  0  0  0
   -2.0579   -1.1540    0.7001 N   0  0  0  0  0  0  0  0  0  0  0  0
   -2.8792   -0.6397    0.3855 H   0  0  0  0  0  0  0  0  0  0  0  0
   -0.7906   -0.4145    0.7630 C   0  0  1  0  0  0  0  0  0  0  0  0
   -0.1166   -0.8635    1.4996 H   0  0  0  0  0  0  0  0  0  0  0  0
   -0.1422   -0.5003   -0.6310 C   0  0  0  0  0  0  0  0  0  0  0  0
   -0.0256   -1.5523   -0.9130 H   0  0  0  0  0  0  0  0  0  0  0  0
   -0.8300   -0.0498   -1.3549 H   0  0  0  0  0  0  0  0  0  0  0  0
    1.2113    0.2299   -0.7369 C   0  0  0  0  0  0  0  0  0  0  0  0
    1.2293    0.8004   -1.6717 H   0  0  0  0  0  0  0  0  0  0  0  0
    1.3486    0.9424    0.0806 H   0  0  0  0  0  0  0  0  0  0  0  0
    2.3708   -0.7729   -0.7515 C   0  0  0  0  0  0  0  0  0  0  0  0
    2.3388   -1.3832    0.1570 H   0  0  0  0  0  0  0  0  0  0  0  0
    2.2671   -1.4422   -1.6122 H   0  0  0  0  0  0  0  0  0  0  0  0
    3.7142   -0.0550   -0.8332 C   0  0  0  0  0  0  0  0  0  0  0  0
    3.7551    0.5653   -1.7354 H   0  0  0  0  0  0  0  0  0  0  0  0
    3.8441    0.5990    0.0361 H   0  0  0  0  0  0  0  0  0  0  0  0
    4.7774   -1.0632   -0.8717 N   0  0  0  0  0  0  0  0  0  0  0  0
    5.6996   -0.6297   -0.9127 H   0  0  0  0  0  0  0  0  0  0  0  0
    4.7087   -1.7016   -0.0790 H   0  0  0  0  0  0  0  0  0  0  0  0
   -1.0685    1.0412    1.1949 C   0  0  0  0  0  0  0  0  0  0  0  0
   -2.0150    1.6525    0.7113 O   0  0  0  0  0  0  0  0  0  0  0  0
   -0.2831    1.6548    2.1539 N   0  0  0  0  0  0  0  0  0  0  0  0
    0.4498    1.0994    2.5861 H   0  0  0  0  0  0  0  0  0  0  0  0
   -0.5258    3.0070    2.6417 C   0  0  0  0  0  0  0  0  0  0  0  0
   -1.5286    3.0843    3.0750 H   0  0  0  0  0  0  0  0  0  0  0  0
    0.2050    3.2674    3.4132 H   0  0  0  0  0  0  0  0  0  0  0  0
   -0.4382    3.7302    1.8242 H   0  0  0  0  0  0  0  0  0  0  0  0
  1  2  1  0  0  0  0
  2  3  1  0  0  0  0
  2  4  1  0  0  0  0
  2  5  1  0  0  0  0
  5  6  2  0  0  0  0
  5  7  1  0  0  0  0
  7  8  1  0  0  0  0
  7  9  1  0  0  0  0
  9 10  1  0  0  0  0
  9 11  1  0  0  0  0
  9 26  1  0  0  0  0
 11 12  1  0  0  0  0
 11 13  1  0  0  0  0
 11 14  1  0  0  0  0
 14 15  1  0  0  0  0
 14 16  1  0  0  0  0
 14 17  1  0  0  0  0
 17 18  1  0  0  0  0
 17 19  1  0  0  0  0
 17 20  1  0  0  0  0
 20 21  1  0  0  0  0
 20 22  1  0  0  0  0
 20 23  1  0  0  0  0
 23 24  1  0  0  0  0
 23 25  1  0  0  0  0
 26 27  2  0  0  0  0
 26 28  1  0  0  0  0
 28 29  1  0  0  0  0
 28 30  1  0  0  0  0
 30 31  1  0  0  0  0
 30 32  1  0  0  0  0
 30 33  1  0  0  0  0
M  END
$$$$

  -OEChem-03222214063D

 33 32  0     1  0  0  0  0  0999 V2000
   -3.6431   -4.0375    1.6054 H   0  0  0  0  0  0  0  0  0  0  0  0
   -3.6567   -3.0405    1.1561 C   0  0  0  0  0  0  0  0  0  0  0  0
   -4.3614   -2.4143    1.7085 H   0  0  0  0  0  0  0  0  0  0  0  0
   -3.9908   -3.1261    0.1193 H   0  0  0  0  0  0  0  0  0  0  0  0
   -2.2703   -2.4263    1.2036 C   0  0  0  0  0  0  0  0  0  0  0  0
   -1.3429   -3.0499    1.6959 O   0  0  0  0  0  0  0  0  0  0  0  0
   -2.0653   -1.1608    0.6951 N   0  0  0  0  0  0  0  0  0  0  0  0
   -2.8829   -0.6407    0.3801 H   0  0  0  0  0  0  0  0  0  0  0  0
   -0.7941   -0.4280    0.7616 C   0  0  1  0  0  0  0  0  0  0  0  0
   -0.1243   -0.8831    1.4987 H   0  0  0  0  0  0  0  0  0  0  0  0
   -0.1424   -0.5066   -0.6305 C   0  0  0  0  0  0  0  0  0  0  0  0
   -0.0190   -1.5618   -0.8980 H   0  0  0  0  0  0  0  0  0  0  0  0
   -0.8229   -0.0664   -1.3674 H   0  0  0  0  0  0  0  0  0  0  0  0
    1.2139    0.2219   -0.7183 C   0  0  0  0  0  0  0  0  0  0  0  0
    1.1431    1.0196   -1.4655 H   0  0  0  0  0  0  0  0  0  0  0  0
    1.4700    0.6882    0.2373 H   0  0  0  0  0  0  0  0  0  0  0  0
    2.3359   -0.7477   -1.1075 C   0  0  0  0  0  0  0  0  0  0  0  0
    2.4028   -1.5491   -0.3644 H   0  0  0  0  0  0  0  0  0  0  0  0
    2.1074   -1.2028   -2.0771 H   0  0  0  0  0  0  0  0  0  0  0  0
    3.6766   -0.0250   -1.1956 C   0  0  0  0  0  0  0  0  0  0  0  0
    3.6203    0.7836   -1.9329 H   0  0  0  0  0  0  0  0  0  0  0  0
    3.9301    0.4160   -0.2251 H   0  0  0  0  0  0  0  0  0  0  0  0
    4.7015   -0.9940   -1.5943 N   0  0  0  0  0  0  0  0  0  0  0  0
    5.6213   -0.5574   -1.6558 H   0  0  0  0  0  0  0  0  0  0  0  0
    4.7182   -1.7932   -0.9604 H   0  0  0  0  0  0  0  0  0  0  0  0
   -1.0607    1.0300    1.1926 C   0  0  0  0  0  0  0  0  0  0  0  0
   -2.0013    1.6485    0.7069 O   0  0  0  0  0  0  0  0  0  0  0  0
   -0.2725    1.6382    2.1529 N   0  0  0  0  0  0  0  0  0  0  0  0
    0.4536    1.0771    2.5892 H   0  0  0  0  0  0  0  0  0  0  0  0
   -0.5021    2.9948    2.6344 C   0  0  0  0  0  0  0  0  0  0  0  0
   -1.5035    3.0836    3.0688 H   0  0  0  0  0  0  0  0  0  0  0  0
    0.2323    3.2526    3.4034 H   0  0  0  0  0  0  0  0  0  0  0  0
   -0.4093    3.7130    1.8129 H   0  0  0  0  0  0  0  0  0  0  0  0
  1  2  1  0  0  0  0
  2  3  1  0  0  0  0
  2  4  1  0  0  0  0
  2  5  1  0  0  0  0
  5  6  2  0  0  0  0
  5  7  1  0  0  0  0
  7  8  1  0  0  0  0
  7  9  1  0  0  0  0
  9 10  1  0  0  0  0
  9 11  1  0  0  0  0
  9 26  1  0  0  0  0
 11 12  1  0  0  0  0
 11 13  1  0  0  0  0
 11 14  1  0  0  0  0
 14 15  1  0  0  0  0
 14 16  1  0  0  0  0
 14 17  1  0  0  0  0
 17 18  1  0  0  0  0
 17 19  1  0  0  0  0
 17 20  1  0  0  0  0
 20 21  1  0  0  0  0
 20 22  1  0  0  0  0
 20 23  1  0  0  0  0
 23 24  1  0  0  0  0
 23 25  1  0  0  0  0
 26 27  2  0  0  0  0
 26 28  1  0  0  0  0
 28 29  1  0  0  0  0
 28 30  1  0  0  0  0
 30 31  1  0  0  0  0
 30 32  1  0  0  0  0
 30 33  1  0  0  0  0
M  END
$$$$

  -OEChem-03222214063D

 33 32  0     1  0  0  0  0  0999 V2000
   -3.6772   -4.0304    1.6129 H   0  0  0  0  0  0  0  0  0  0  0  0
   -3.6846   -3.0357    1.1585 C   0  0  0  0  0  0  0  0  0  0  0  0
   -4.3825   -2.4017    1.7107 H   0  0  0  0  0  0  0  0  0  0  0  0
   -4.0230   -3.1239    0.1233 H   0  0  0  0  0  0  0  0  0  0  0  0
   -2.2933   -2.4320    1.1988 C   0  0  0  0  0  0  0  0  0  0  0  0
   -1.3698   -3.0603    1.6923 O   0  0  0  0  0  0  0  0  0  0  0  0
   -2.0808   -1.1682    0.6891 N   0  0  0  0  0  0  0  0  0  0  0  0
   -2.8944   -0.6460    0.3674 H   0  0  0  0  0  0  0  0  0  0  0  0
   -0.8048   -0.4435    0.7514 C   0  0  1  0  0  0  0  0  0  0  0  0
   -0.1381   -0.9048    1.4874 H   0  0  0  0  0  0  0  0  0  0  0  0
   -0.1518   -0.5205   -0.6390 C   0  0  0  0  0  0  0  0  0  0  0  0
   -0.0166   -1.5788   -0.8873 H   0  0  0  0  0  0  0  0  0  0  0  0
   -0.8239   -0.0940   -1.3915 H   0  0  0  0  0  0  0  0  0  0  0  0
    1.2050    0.2068   -0.7052 C   0  0  0  0  0  0  0  0  0  0  0  0
    1.0761    1.1709   -1.2091 H   0  0  0  0  0  0  0  0  0  0  0  0
    1.5774    0.4067    0.3045 H   0  0  0  0  0  0  0  0  0  0  0  0
    2.2524   -0.6401   -1.4375 C   0  0  0  0  0  0  0  0  0  0  0  0
    2.3960   -1.5881   -0.9086 H   0  0  0  0  0  0  0  0  0  0  0  0
    1.8975   -0.8668   -2.4484 H   0  0  0  0  0  0  0  0  0  0  0  0
    3.5849    0.0986   -1.5259 C   0  0  0  0  0  0  0  0  0  0  0  0
    3.4526    1.0502   -2.0530 H   0  0  0  0  0  0  0  0  0  0  0  0
    3.9614    0.3160   -0.5202 H   0  0  0  0  0  0  0  0  0  0  0  0
    4.5398   -0.7444   -2.2512 N   0  0  0  0  0  0  0  0  0  0  0  0
    5.4488   -0.2888   -2.3332 H   0  0  0  0  0  0  0  0  0  0  0  0
    4.6292   -1.6604   -1.8112 H   0  0  0  0  0  0  0  0  0  0  0  0
   -1.0498    1.0177    1.1816 C   0  0  0  0  0  0  0  0  0  0  0  0
   -1.9832    1.6492    0.6990 O   0  0  0  0  0  0  0  0  0  0  0  0
   -0.2475    1.6144    2.1373 N   0  0  0  0  0  0  0  0  0  0  0  0
    0.4735    1.0434    2.5691 H   0  0  0  0  0  0  0  0  0  0  0  0
   -0.4504    2.9765    2.6149 C   0  0  0  0  0  0  0  0  0  0  0  0
   -1.4465    3.0839    3.0570 H   0  0  0  0  0  0  0  0  0  0  0  0
    0.2945    3.2254    3.3767 H   0  0  0  0  0  0  0  0  0  0  0  0
   -0.3521    3.6896    1.7896 H   0  0  0  0  0  0  0  0  0  0  0  0
  1  2  1  0  0  0  0
  2  3  1  0  0  0  0
  2  4  1  0  0  0  0
  2  5  1  0  0  0  0
  5  6  2  0  0  0  0
  5  7  1  0  0  0  0
  7  8  1  0  0  0  0
  7  9  1  0  0  0  0
  9 10  1  0  0  0  0
  9 11  1  0  0  0  0
  9 26  1  0  0  0  0
 11 12  1  0  0  0  0
 11 13  1  0  0  0  0
 11 14  1  0  0  0  0
 14 15  1  0  0  0  0
 14 16  1  0  0  0  0
 14 17  1  0  0  0  0
 17 18  1  0  0  0  0
 17 19  1  0  0  0  0
 17 20  1  0  0  0  0
 20 21  1  0  0  0  0
 20 22  1  0  0  0  0
 20 23  1  0  0  0  0
 23 24  1  0  0  0  0
 23 25  1  0  0  0  0
 26 27  2  0  0  0  0
 26 28  1  0  0  0  0
 28 29  1  0  0  0  0
 28 30  1  0  0  0  0
 30 31  1  0  0  0  0
 30 32  1  0  0  0  0
 30 33  1  0  0  0  0
M  END
$$$$

  -OEChem-03222214063D

 33 32  0     1  0  0  0  0  0999 V2000
   -3.6936   -4.0264    1.6188 H   0  0  0  0  0  0  0  0  0  0  0  0
   -3.6983   -3.0327    1.1621 C   0  0  0  0  0  0  0  0  0  0  0  0
   -4.3937   -2.3950    1.7133 H   0  0  0  0  0  0  0  0  0  0  0  0
   -4.0379   -3.1220    0.1275 H   0  0  0  0  0  0  0  0  0  0  0  0
   -2.3051   -2.4335    1.1992 C   0  0  0  0  0  0  0  0  0  0  0  0
   -1.3820   -3.0649    1.6897 O   0  0  0  0  0  0  0  0  0  0  0  0
   -2.0898   -1.1710    0.6876 N   0  0  0  0  0  0  0  0  0  0  0  0
   -2.9023   -0.6472    0.3659 H   0  0  0  0  0  0  0  0  0  0  0  0
   -0.8109   -0.4511    0.7422 C   0  0  1  0  0  0  0  0  0  0  0  0
   -0.1447   -0.9149    1.4770 H   0  0  0  0  0  0  0  0  0  0  0  0
   -0.1606   -0.5328   -0.6488 C   0  0  0  0  0  0  0  0  0  0  0  0
   -0.0189   -1.5919   -0.8897 H   0  0  0  0  0  0  0  0  0  0  0  0
   -0.8299   -0.1096   -1.4056 H   0  0  0  0  0  0  0  0  0  0  0  0
    1.1944    0.1925   -0.7053 C   0  0  0  0  0  0  0  0  0  0  0  0
    1.0352    1.2478   -0.9528 H   0  0  0  0  0  0  0  0  0  0  0  0
    1.6804    0.1461    0.2748 H   0  0  0  0  0  0  0  0  0  0  0  0
    2.1265   -0.4616   -1.7312 C   0  0  0  0  0  0  0  0  0  0  0  0
    2.3125   -1.5037   -1.4513 H   0  0  0  0  0  0  0  0  0  0  0  0
    1.6485   -0.4557   -2.7164 H   0  0  0  0  0  0  0  0  0  0  0  0
    3.4534    0.2878   -1.8112 C   0  0  0  0  0  0  0  0  0  0  0  0
    3.2783    1.3311   -2.0971 H   0  0  0  0  0  0  0  0  0  0  0  0
    3.9481    0.2813   -0.8335 H   0  0  0  0  0  0  0  0  0  0  0  0
    4.3020   -0.3668   -2.8110 N   0  0  0  0  0  0  0  0  0  0  0  0
    5.2006    0.1075   -2.9020 H   0  0  0  0  0  0  0  0  0  0  0  0
    4.4316   -1.3548   -2.5925 H   0  0  0  0  0  0  0  0  0  0  0  0
   -1.0405    1.0122    1.1720 C   0  0  0  0  0  0  0  0  0  0  0  0
   -1.9729    1.6509    0.6972 O   0  0  0  0  0  0  0  0  0  0  0  0
   -0.2252    1.6011    2.1212 N   0  0  0  0  0  0  0  0  0  0  0  0
    0.4945    1.0235    2.5462 H   0  0  0  0  0  0  0  0  0  0  0  0
   -0.4115    2.9648    2.6010 C   0  0  0  0  0  0  0  0  0  0  0  0
   -1.4040    3.0821    3.0487 H   0  0  0  0  0  0  0  0  0  0  0  0
    0.3403    3.2051    3.3589 H   0  0  0  0  0  0  0  0  0  0  0  0
   -0.3105    3.6776    1.7759 H   0  0  0  0  0  0  0  0  0  0  0  0
  1  2  1  0  0  0  0
  2  3  1  0  0  0  0
  2  4  1  0  0  0  0
  2  5  1  0  0  0  0
  5  6  2  0  0  0  0
  5  7  1  0  0  0  0
  7  8  1  0  0  0  0
  7  9  1  0  0  0  0
  9 10  1  0  0  0  0
  9 11  1  0  0  0  0
  9 26  1  0  0  0  0
 11 12  1  0  0  0  0
 11 13  1  0  0  0  0
 11 14  1  0  0  0  0
 14 15  1  0  0  0  0
 14 16  1  0  0  0  0
 14 17  1  0  0  0  0
 17 18  1  0  0  0  0
 17 19  1  0  0  0  0
 17 20  1  0  0  0  0
 20 21  1  0  0  0  0
 20 22  1  0  0  0  0
 20 23  1  0  0  0  0
 23 24  1  0  0  0  0
 23 25  1  0  0  0  0
 26 27  2  0  0  0  0
 26 28  1  0  0  0  0
 28 29  1  0  0  0  0
 28 30  1  0  0  0  0
 30 31  1  0  0  0  0
 30 32  1  0  0  0  0
 30 33  1  0  0  0  0
M  END
$$$$

  -OEChem-03222214063D

 33 32  0     1  0  0  0  0  0999 V2000
   -3.6965   -4.0205    1.6173 H   0  0  0  0  0  0  0  0  0  0  0  0
   -3.6996   -3.0255    1.1638 C   0  0  0  0  0  0  0  0  0  0  0  0
   -4.3872   -2.3859    1.7225 H   0  0  0  0  0  0  0  0  0  0  0  0
   -4.0481   -3.1098    0.1316 H   0  0  0  0  0  0  0  0  0  0  0  0
   -2.3030   -2.4335    1.1918 C   0  0  0  0  0  0  0  0  0  0  0  0
   -1.3780   -3.0718    1.6695 O   0  0  0  0  0  0  0  0  0  0  0  0
   -2.0870   -1.1699    0.6832 N   0  0  0  0  0  0  0  0  0  0  0  0
   -2.9019   -0.6404    0.3772 H   0  0  0  0  0  0  0  0  0  0  0  0
   -0.8079   -0.4499    0.7376 C   0  0  1  0  0  0  0  0  0  0  0  0
   -0.1434   -0.9147    1.4732 H   0  0  0  0  0  0  0  0  0  0  0  0
   -0.1552   -0.5352   -0.6521 C   0  0  0  0  0  0  0  0  0  0  0  0
   -0.0100   -1.5928   -0.8972 H   0  0  0  0  0  0  0  0  0  0  0  0
   -0.8259   -0.1082   -1.4056 H   0  0  0  0  0  0  0  0  0  0  0  0
    1.1982    0.1889   -0.7091 C   0  0  0  0  0  0  0  0  0  0  0  0
    1.0387    1.2726   -0.7092 H   0  0  0  0  0  0  0  0  0  0  0  0
    1.7906   -0.0678    0.1753 H   0  0  0  0  0  0  0  0  0  0  0  0
    1.9765   -0.2215   -1.9636 C   0  0  0  0  0  0  0  0  0  0  0  0
    2.1599   -1.3008   -1.9482 H   0  0  0  0  0  0  0  0  0  0  0  0
    1.3825    0.0082   -2.8544 H   0  0  0  0  0  0  0  0  0  0  0  0
    3.3085    0.5182   -2.0424 C   0  0  0  0  0  0  0  0  0  0  0  0
    3.1373    1.6005   -2.0593 H   0  0  0  0  0  0  0  0  0  0  0  0
    3.9205    0.2837   -1.1644 H   0  0  0  0  0  0  0  0  0  0  0  0
    4.0010    0.1038   -3.2660 N   0  0  0  0  0  0  0  0  0  0  0  0
    4.8997    0.5769   -3.3615 H   0  0  0  0  0  0  0  0  0  0  0  0
    4.1171   -0.9091   -3.2967 H   0  0  0  0  0  0  0  0  0  0  0  0
   -1.0384    1.0123    1.1708 C   0  0  0  0  0  0  0  0  0  0  0  0
   -1.9774    1.6476    0.7045 O   0  0  0  0  0  0  0  0  0  0  0  0
   -0.2233    1.6012    2.1202 N   0  0  0  0  0  0  0  0  0  0  0  0
    0.5038    1.0273    2.5376 H   0  0  0  0  0  0  0  0  0  0  0  0
   -0.4173    2.9611    2.6081 C   0  0  0  0  0  0  0  0  0  0  0  0
   -1.4056    3.0663    3.0677 H   0  0  0  0  0  0  0  0  0  0  0  0
    0.3406    3.2053    3.3586 H   0  0  0  0  0  0  0  0  0  0  0  0
   -0.3328    3.6787    1.7852 H   0  0  0  0  0  0  0  0  0  0  0  0
  1  2  1  0  0  0  0
  2  3  1  0  0  0  0
  2  4  1  0  0  0  0
  2  5  1  0  0  0  0
  5  6  2  0  0  0  0
  5  7  1  0  0  0  0
  7  8  1  0  0  0  0
  7  9  1  0  0  0  0
  9 10  1  0  0  0  0
  9 11  1  0  0  0  0
  9 26  1  0  0  0  0
 11 12  1  0  0  0  0
 11 13  1  0  0  0  0
 11 14  1  0  0  0  0
 14 15  1  0  0  0  0
 14 16  1  0  0  0  0
 14 17  1  0  0  0  0
 17 18  1  0  0  0  0
 17 19  1  0  0  0  0
 17 20  1  0  0  0  0
 20 21  1  0  0  0  0
 20 22  1  0  0  0  0
 20 23  1  0  0  0  0
 23 24  1  0  0  0  0
 23 25  1  0  0  0  0
 26 27  2  0  0  0  0
 26 28  1  0  0  0  0
 28 29  1  0  0  0  0
 28 30  1  0  0  0  0
 30 31  1  0  0  0  0
 30 32  1  0  0  0  0
 30 33  1  0  0  0  0
M  END
$$$$

  -OEChem-03222214063D

 33 32  0     1  0  0  0  0  0999 V2000
   -3.6972   -4.0233    1.6370 H   0  0  0  0  0  0  0  0  0  0  0  0
   -3.7054   -3.0296    1.1804 C   0  0  0  0  0  0  0  0  0  0  0  0
   -4.3871   -2.3883    1.7442 H   0  0  0  0  0  0  0  0  0  0  0  0
   -4.0648   -3.1173    0.1522 H   0  0  0  0  0  0  0  0  0  0  0  0
   -2.3086   -2.4376    1.1915 C   0  0  0  0  0  0  0  0  0  0  0  0
   -1.3779   -3.0782    1.6548 O   0  0  0  0  0  0  0  0  0  0  0  0
   -2.0983   -1.1740    0.6803 N   0  0  0  0  0  0  0  0  0  0  0  0
   -2.9172   -0.6433    0.3872 H   0  0  0  0  0  0  0  0  0  0  0  0
   -0.8195   -0.4526    0.7232 C   0  0  1  0  0  0  0  0  0  0  0  0
   -0.1579   -0.9224    1.4583 H   0  0  0  0  0  0  0  0  0  0  0  0
   -0.1676   -0.5410   -0.6664 C   0  0  0  0  0  0  0  0  0  0  0  0
   -0.2442   -1.5705   -1.0324 H   0  0  0  0  0  0  0  0  0  0  0  0
   -0.7098    0.1022   -1.3682 H   0  0  0  0  0  0  0  0  0  0  0  0
    1.3147   -0.1449   -0.6284 C   0  0  0  0  0  0  0  0  0  0  0  0
    1.4169    0.8820   -0.2626 H   0  0  0  0  0  0  0  0  0  0  0  0
    1.8537   -0.8064    0.0581 H   0  0  0  0  0  0  0  0  0  0  0  0
    1.9308   -0.2447   -2.0278 C   0  0  0  0  0  0  0  0  0  0  0  0
    1.8302   -1.2685   -2.4026 H   0  0  0  0  0  0  0  0  0  0  0  0
    1.3947    0.4204   -2.7131 H   0  0  0  0  0  0  0  0  0  0  0  0
    3.4064    0.1427   -2.0006 C   0  0  0  0  0  0  0  0  0  0  0  0
    3.5198    1.1658   -1.6250 H   0  0  0  0  0  0  0  0  0  0  0  0
    3.9581   -0.5286   -1.3331 H   0  0  0  0  0  0  0  0  0  0  0  0
    3.9398    0.0499   -3.3627 N   0  0  0  0  0  0  0  0  0  0  0  0
    4.9279    0.3011   -3.3915 H   0  0  0  0  0  0  0  0  0  0  0  0
    3.7889   -0.8803   -3.7530 H   0  0  0  0  0  0  0  0  0  0  0  0
   -1.0332    1.0116    1.1561 C   0  0  0  0  0  0  0  0  0  0  0  0
   -1.9803    1.6484    0.7089 O   0  0  0  0  0  0  0  0  0  0  0  0
   -0.2030    1.5961    2.0950 N   0  0  0  0  0  0  0  0  0  0  0  0
    0.5332    1.0218    2.4955 H   0  0  0  0  0  0  0  0  0  0  0  0
   -0.3843    2.9568    2.5856 C   0  0  0  0  0  0  0  0  0  0  0  0
   -1.3640    3.0650    3.0627 H   0  0  0  0  0  0  0  0  0  0  0  0
    0.3878    3.1993    3.3221 H   0  0  0  0  0  0  0  0  0  0  0  0
   -0.3126    3.6740    1.7611 H   0  0  0  0  0  0  0  0  0  0  0  0
  1  2  1  0  0  0  0
  2  3  1  0  0  0  0
  2  4  1  0  0  0  0
  2  5  1  0  0  0  0
  5  6  2  0  0  0  0
  5  7  1  0  0  0  0
  7  8  1  0  0  0  0
  7  9  1  0  0  0  0
  9 10  1  0  0  0  0
  9 11  1  0  0  0  0
  9 26  1  0  0  0  0
 11 12  1  0  0  0  0
 11 13  1  0  0  0  0
 11 14  1  0  0  0  0
 14 15  1  0  0  0  0
 14 16  1  0  0  0  0
 14 17  1  0  0  0  0
 17 18  1  0  0  0  0
 17 19  1  0  0  0  0
 17 20  1  0  0  0  0
 20 21  1  0  0  0  0
 20 22  1  0  0  0  0
 20 23  1  0  0  0  0
 23 24  1  0  0  0  0
 23 25  1  0  0  0  0
 26 27  2  0  0  0  0
 26 28  1  0  0  0  0
 28 29  1  0  0  0  0
 28 30  1  0  0  0  0
 30 31  1  0  0  0  0
 30 32  1  0  0  0  0
 30 33  1  0  0  0  0
M  END
$$$$

  -OEChem-03222214063D

 33 32  0     1  0  0  0  0  0999 V2000
   -3.6930   -4.0222    1.6372 H   0  0  0  0  0  0  0  0  0  0  0  0
   -3.7013   -3.0284    1.1809 C   0  0  0  0  0  0  0  0  0  0  0  0
   -4.3815   -2.3867    1.7462 H   0  0  0  0  0  0  0  0  0  0  0  0
   -4.0629   -3.1155    0.1534 H   0  0  0  0  0  0  0  0  0  0  0  0
   -2.3041   -2.4374    1.1894 C   0  0  0  0  0  0  0  0  0  0  0  0
   -1.3730   -3.0793    1.6501 O   0  0  0  0  0  0  0  0  0  0  0  0
   -2.0940   -1.1729    0.6807 N   0  0  0  0  0  0  0  0  0  0  0  0
   -2.9131   -0.6401    0.3923 H   0  0  0  0  0  0  0  0  0  0  0  0
   -0.8154   -0.4516    0.7258 C   0  0  1  0  0  0  0  0  0  0  0  0
   -0.1511   -0.9215    1.4586 H   0  0  0  0  0  0  0  0  0  0  0  0
   -0.1663   -0.5394   -0.6658 C   0  0  0  0  0  0  0  0  0  0  0  0
   -0.2485   -1.5626   -1.0478 H   0  0  0  0  0  0  0  0  0  0  0  0
   -0.7143    0.1146   -1.3533 H   0  0  0  0  0  0  0  0  0  0  0  0
    1.3182   -0.1458   -0.6373 C   0  0  0  0  0  0  0  0  0  0  0  0
    1.4553    0.7663   -0.0482 H   0  0  0  0  0  0  0  0  0  0  0  0
    1.8983   -0.9445   -0.1629 H   0  0  0  0  0  0  0  0  0  0  0  0
    1.8331    0.1133   -2.0572 C   0  0  0  0  0  0  0  0  0  0  0  0
    1.6835   -0.7808   -2.6711 H   0  0  0  0  0  0  0  0  0  0  0  0
    1.2659    0.9334   -2.5102 H   0  0  0  0  0  0  0  0  0  0  0  0
    3.3153    0.4755   -2.0397 C   0  0  0  0  0  0  0  0  0  0  0  0
    3.4771    1.3684   -1.4255 H   0  0  0  0  0  0  0  0  0  0  0  0
    3.8970   -0.3458   -1.6067 H   0  0  0  0  0  0  0  0  0  0  0  0
    3.7503    0.7312   -3.4157 N   0  0  0  0  0  0  0  0  0  0  0  0
    4.7396    0.9767   -3.4521 H   0  0  0  0  0  0  0  0  0  0  0  0
    3.5508   -0.0676   -4.0178 H   0  0  0  0  0  0  0  0  0  0  0  0
   -1.0370    1.0111    1.1622 C   0  0  0  0  0  0  0  0  0  0  0  0
   -1.9876    1.6434    0.7158 O   0  0  0  0  0  0  0  0  0  0  0  0
   -0.2122    1.5982    2.1042 N   0  0  0  0  0  0  0  0  0  0  0  0
    0.5272    1.0276    2.5041 H   0  0  0  0  0  0  0  0  0  0  0  0
   -0.3981    2.9588    2.5932 C   0  0  0  0  0  0  0  0  0  0  0  0
   -1.3813    3.0667    3.0633 H   0  0  0  0  0  0  0  0  0  0  0  0
    0.3686    3.2020    3.3351 H   0  0  0  0  0  0  0  0  0  0  0  0
   -0.3209    3.6756    1.7688 H   0  0  0  0  0  0  0  0  0  0  0  0
  1  2  1  0  0  0  0
  2  3  1  0  0  0  0
  2  4  1  0  0  0  0
  2  5  1  0  0  0  0
  5  6  2  0  0  0  0
  5  7  1  0  0  0  0
  7  8  1  0  0  0  0
  7  9  1  0  0  0  0
  9 10  1  0  0  0  0
  9 11  1  0  0  0  0
  9 26  1  0  0  0  0
 11 12  1  0  0  0  0
 11 13  1  0  0  0  0
 11 14  1  0  0  0  0
 14 15  1  0  0  0  0
 14 16  1  0  0  0  0
 14 17  1  0  0  0  0
 17 18  1  0  0  0  0
 17 19  1  0  0  0  0
 17 20  1  0  0  0  0
 20 21  1  0  0  0  0
 20 22  1  0  0  0  0
 20 23  1  0  0  0  0
 23 24  1  0  0  0  0
 23 25  1  0  0  0  0
 26 27  2  0  0  0  0
 26 28  1  0  0  0  0
 28 29  1  0  0  0  0
 28 30  1  0  0  0  0
 30 31  1  0  0  0  0
 30 32  1  0  0  0  0
 30 33  1  0  0  0  0
M  END
$$$$

  -OEChem-03222214063D

 33 32  0     1  0  0  0  0  0999 V2000
   -3.6949   -4.0226    1.6426 H   0  0  0  0  0  0  0  0  0  0  0  0
   -3.7026   -3.0291    1.1857 C   0  0  0  0  0  0  0  0  0  0  0  0
   -4.3804   -2.3859    1.7522 H   0  0  0  0  0  0  0  0  0  0  0  0
   -4.0668   -3.1162    0.1592 H   0  0  0  0  0  0  0  0  0  0  0  0
   -2.3045   -2.4400    1.1903 C   0  0  0  0  0  0  0  0  0  0  0  0
   -1.3724   -3.0839    1.6462 O   0  0  0  0  0  0  0  0  0  0  0  0
   -2.0945   -1.1753    0.6819 N   0  0  0  0  0  0  0  0  0  0  0  0
   -2.9143   -0.6409    0.3978 H   0  0  0  0  0  0  0  0  0  0  0  0
   -0.8157   -0.4538    0.7272 C   0  0  1  0  0  0  0  0  0  0  0  0
   -0.1504   -0.9238    1.4589 H   0  0  0  0  0  0  0  0  0  0  0  0
   -0.1685   -0.5389   -0.6658 C   0  0  0  0  0  0  0  0  0  0  0  0
   -0.2541   -1.5589   -1.0556 H   0  0  0  0  0  0  0  0  0  0  0  0
   -0.7235    0.1177   -1.3453 H   0  0  0  0  0  0  0  0  0  0  0  0
    1.3187   -0.1464   -0.6462 C   0  0  0  0  0  0  0  0  0  0  0  0
    1.5087    0.5910    0.1394 H   0  0  0  0  0  0  0  0  0  0  0  0
    1.9238   -1.0318   -0.4239 H   0  0  0  0  0  0  0  0  0  0  0  0
    1.7385    0.4670   -1.9864 C   0  0  0  0  0  0  0  0  0  0  0  0
    1.5303   -0.2408   -2.7953 H   0  0  0  0  0  0  0  0  0  0  0  0
    1.1569    1.3762   -2.1735 H   0  0  0  0  0  0  0  0  0  0  0  0
    3.2250    0.8118   -1.9831 C   0  0  0  0  0  0  0  0  0  0  0  0
    3.4461    1.5161   -1.1733 H   0  0  0  0  0  0  0  0  0  0  0  0
    3.8194   -0.0938   -1.8184 H   0  0  0  0  0  0  0  0  0  0  0  0
    3.5690    1.4139   -3.2745 N   0  0  0  0  0  0  0  0  0  0  0  0
    4.5587    1.6573   -3.3183 H   0  0  0  0  0  0  0  0  0  0  0  0
    3.3105    0.7991   -4.0464 H   0  0  0  0  0  0  0  0  0  0  0  0
   -1.0401    1.0087    1.1644 C   0  0  0  0  0  0  0  0  0  0  0  0
   -1.9929    1.6386    0.7192 O   0  0  0  0  0  0  0  0  0  0  0  0
   -0.2174    1.5978    2.1072 N   0  0  0  0  0  0  0  0  0  0  0  0
    0.5271    1.0312    2.5030 H   0  0  0  0  0  0  0  0  0  0  0  0
   -0.4028    2.9603    2.5910 C   0  0  0  0  0  0  0  0  0  0  0  0
   -1.3878    3.0713    3.0563 H   0  0  0  0  0  0  0  0  0  0  0  0
    0.3610    3.2045    3.3356 H   0  0  0  0  0  0  0  0  0  0  0  0
   -0.3207    3.6744    1.7648 H   0  0  0  0  0  0  0  0  0  0  0  0
  1  2  1  0  0  0  0
  2  3  1  0  0  0  0
  2  4  1  0  0  0  0
  2  5  1  0  0  0  0
  5  6  2  0  0  0  0
  5  7  1  0  0  0  0
  7  8  1  0  0  0  0
  7  9  1  0  0  0  0
  9 10  1  0  0  0  0
  9 11  1  0  0  0  0
  9 26  1  0  0  0  0
 11 12  1  0  0  0  0
 11 13  1  0  0  0  0
 11 14  1  0  0  0  0
 14 15  1  0  0  0  0
 14 16  1  0  0  0  0
 14 17  1  0  0  0  0
 17 18  1  0  0  0  0
 17 19  1  0  0  0  0
 17 20  1  0  0  0  0
 20 21  1  0  0  0  0
 20 22  1  0  0  0  0
 20 23  1  0  0  0  0
 23 24  1  0  0  0  0
 23 25  1  0  0  0  0
 26 27  2  0  0  0  0
 26 28  1  0  0  0  0
 28 29  1  0  0  0  0
 28 30  1  0  0  0  0
 30 31  1  0  0  0  0
 30 32  1  0  0  0  0
 30 33  1  0  0  0  0
M  END
$$$$

  -OEChem-03222214063D

 33 32  0     1  0  0  0  0  0999 V2000
   -3.7030   -4.0211    1.6594 H   0  0  0  0  0  0  0  0  0  0  0  0
   -3.7098   -3.0293    1.1985 C   0  0  0  0  0  0  0  0  0  0  0  0
   -4.3814   -2.3815    1.7672 H   0  0  0  0  0  0  0  0  0  0  0  0
   -4.0810   -3.1191    0.1746 H   0  0  0  0  0  0  0  0  0  0  0  0
   -2.3096   -2.4454    1.1922 C   0  0  0  0  0  0  0  0  0  0  0  0
   -1.3770   -3.0906    1.6452 O   0  0  0  0  0  0  0  0  0  0  0  0
   -2.0993   -1.1822    0.6802 N   0  0  0  0  0  0  0  0  0  0  0  0
   -2.9196   -0.6463    0.4010 H   0  0  0  0  0  0  0  0  0  0  0  0
   -0.8203   -0.4612    0.7224 C   0  0  1  0  0  0  0  0  0  0  0  0
   -0.1551   -0.9316    1.4540 H   0  0  0  0  0  0  0  0  0  0  0  0
   -0.1739   -0.5422   -0.6706 C   0  0  0  0  0  0  0  0  0  0  0  0
   -0.2554   -1.5647   -1.0545 H   0  0  0  0  0  0  0  0  0  0  0  0
   -0.7344    0.1051   -1.3547 H   0  0  0  0  0  0  0  0  0  0  0  0
    1.3151   -0.1483   -0.6520 C   0  0  0  0  0  0  0  0  0  0  0  0
    1.5695    0.3566    0.2848 H   0  0  0  0  0  0  0  0  0  0  0  0
    1.9267   -1.0549   -0.7107 H   0  0  0  0  0  0  0  0  0  0  0  0
    1.6518    0.7903   -1.8160 C   0  0  0  0  0  0  0  0  0  0  0  0
    1.3840    0.3118   -2.7637 H   0  0  0  0  0  0  0  0  0  0  0  0
    1.0668    1.7120   -1.7244 H   0  0  0  0  0  0  0  0  0  0  0  0
    3.1383    1.1352   -1.8240 C   0  0  0  0  0  0  0  0  0  0  0  0
    3.4204    1.6070   -0.8761 H   0  0  0  0  0  0  0  0  0  0  0  0
    3.7338    0.2229   -1.9411 H   0  0  0  0  0  0  0  0  0  0  0  0
    3.3990    2.0548   -2.9353 N   0  0  0  0  0  0  0  0  0  0  0  0
    4.3865    2.3052   -2.9857 H   0  0  0  0  0  0  0  0  0  0  0  0
    3.0770    1.6620   -3.8199 H   0  0  0  0  0  0  0  0  0  0  0  0
   -1.0407    1.0029    1.1556 C   0  0  0  0  0  0  0  0  0  0  0  0
   -1.9959    1.6316    0.7135 O   0  0  0  0  0  0  0  0  0  0  0  0
   -0.2151    1.5925    2.0952 N   0  0  0  0  0  0  0  0  0  0  0  0
    0.5349    1.0288    2.4843 H   0  0  0  0  0  0  0  0  0  0  0  0
   -0.3901    2.9598    2.5687 C   0  0  0  0  0  0  0  0  0  0  0  0
   -1.3736    3.0817    3.0344 H   0  0  0  0  0  0  0  0  0  0  0  0
    0.3763    3.2040    3.3106 H   0  0  0  0  0  0  0  0  0  0  0  0
   -0.3037    3.6666    1.7366 H   0  0  0  0  0  0  0  0  0  0  0  0
  1  2  1  0  0  0  0
  2  3  1  0  0  0  0
  2  4  1  0  0  0  0
  2  5  1  0  0  0  0
  5  6  2  0  0  0  0
  5  7  1  0  0  0  0
  7  8  1  0  0  0  0
  7  9  1  0  0  0  0
  9 10  1  0  0  0  0
  9 11  1  0  0  0  0
  9 26  1  0  0  0  0
 11 12  1  0  0  0  0
 11 13  1  0  0  0  0
 11 14  1  0  0  0  0
 14 15  1  0  0  0  0
 14 16  1  0  0  0  0
 14 17  1  0  0  0  0
 17 18  1  0  0  0  0
 17 19  1  0  0  0  0
 17 20  1  0  0  0  0
 20 21  1  0  0  0  0
 20 22  1  0  0  0  0
 20 23  1  0  0  0  0
 23 24  1  0  0  0  0
 23 25  1  0  0  0  0
 26 27  2  0  0  0  0
 26 28  1  0  0  0  0
 28 29  1  0  0  0  0
 28 30  1  0  0  0  0
 30 31  1  0  0  0  0
 30 32  1  0  0  0  0
 30 33  1  0  0  0  0
M  END
$$$$

  -OEChem-03222214063D

 33 32  0     1  0  0  0  0  0999 V2000
   -3.7073   -4.0230    1.6709 H   0  0  0  0  0  0  0  0  0  0  0  0
   -3.7149   -3.0332    1.2059 C   0  0  0  0  0  0  0  0  0  0  0  0
   -4.3870   -2.3833    1.7714 H   0  0  0  0  0  0  0  0  0  0  0  0
   -4.0858   -3.1273    0.1824 H   0  0  0  0  0  0  0  0  0  0  0  0
   -2.3151   -2.4486    1.1959 C   0  0  0  0  0  0  0  0  0  0  0  0
   -1.3804   -3.0945    1.6436 O   0  0  0  0  0  0  0  0  0  0  0  0
   -2.1068   -1.1864    0.6805 N   0  0  0  0  0  0  0  0  0  0  0  0
   -2.9283   -0.6498    0.4057 H   0  0  0  0  0  0  0  0  0  0  0  0
   -0.8274   -0.4657    0.7164 C   0  0  1  0  0  0  0  0  0  0  0  0
   -0.1636   -0.9375    1.4485 H   0  0  0  0  0  0  0  0  0  0  0  0
   -0.1809   -0.5458   -0.6760 C   0  0  0  0  0  0  0  0  0  0  0  0
   -0.2525   -1.5766   -1.0391 H   0  0  0  0  0  0  0  0  0  0  0  0
   -0.7439    0.0814   -1.3763 H   0  0  0  0  0  0  0  0  0  0  0  0
    1.3081   -0.1496   -0.6555 C   0  0  0  0  0  0  0  0  0  0  0  0
    1.6357    0.0830    0.3628 H   0  0  0  0  0  0  0  0  0  0  0  0
    1.9051   -1.0001   -1.0021 H   0  0  0  0  0  0  0  0  0  0  0  0
    1.5725    1.0570   -1.5638 C   0  0  0  0  0  0  0  0  0  0  0  0
    1.2487    0.8274   -2.5841 H   0  0  0  0  0  0  0  0  0  0  0  0
    0.9926    1.9165   -1.2101 H   0  0  0  0  0  0  0  0  0  0  0  0
    3.0549    1.4179   -1.5719 C   0  0  0  0  0  0  0  0  0  0  0  0
    3.3937    1.6407   -0.5541 H   0  0  0  0  0  0  0  0  0  0  0  0
    3.6440    0.5753   -1.9504 H   0  0  0  0  0  0  0  0  0  0  0  0
    3.2443    2.5918   -2.4286 N   0  0  0  0  0  0  0  0  0  0  0  0
    4.2272    2.8591   -2.4803 H   0  0  0  0  0  0  0  0  0  0  0  0
    2.8608    2.4317   -3.3603 H   0  0  0  0  0  0  0  0  0  0  0  0
   -1.0384    1.0000    1.1466 C   0  0  0  0  0  0  0  0  0  0  0  0
   -1.9945    1.6306    0.7090 O   0  0  0  0  0  0  0  0  0  0  0  0
   -0.2050    1.5882    2.0802 N   0  0  0  0  0  0  0  0  0  0  0  0
    0.5562    1.0283    2.4527 H   0  0  0  0  0  0  0  0  0  0  0  0
   -0.3612    2.9631    2.5381 C   0  0  0  0  0  0  0  0  0  0  0  0
   -1.3453    3.1051    2.9972 H   0  0  0  0  0  0  0  0  0  0  0  0
    0.4046    3.2035    3.2818 H   0  0  0  0  0  0  0  0  0  0  0  0
   -0.2591    3.6591    1.6988 H   0  0  0  0  0  0  0  0  0  0  0  0
  1  2  1  0  0  0  0
  2  3  1  0  0  0  0
  2  4  1  0  0  0  0
  2  5  1  0  0  0  0
  5  6  2  0  0  0  0
  5  7  1  0  0  0  0
  7  8  1  0  0  0  0
  7  9  1  0  0  0  0
  9 10  1  0  0  0  0
  9 11  1  0  0  0  0
  9 26  1  0  0  0  0
 11 12  1  0  0  0  0
 11 13  1  0  0  0  0
 11 14  1  0  0  0  0
 14 15  1  0  0  0  0
 14 16  1  0  0  0  0
 14 17  1  0  0  0  0
 17 18  1  0  0  0  0
 17 19  1  0  0  0  0
 17 20  1  0  0  0  0
 20 21  1  0  0  0  0
 20 22  1  0  0  0  0
 20 23  1  0  0  0  0
 23 24  1  0  0  0  0
 23 25  1  0  0  0  0
 26 27  2  0  0  0  0
 26 28  1  0  0  0  0
 28 29  1  0  0  0  0
 28 30  1  0  0  0  0
 30 31  1  0  0  0  0
 30 32  1  0  0  0  0
 30 33  1  0  0  0  0
M  END
$$$$

  -OEChem-03222214063D

 33 32  0     1  0  0  0  0  0999 V2000
   -3.7009   -4.0271    1.6777 H   0  0  0  0  0  0  0  0  0  0  0  0
   -3.7127   -3.0372    1.2130 C   0  0  0  0  0  0  0  0  0  0  0  0
   -4.3795   -2.3875    1.7850 H   0  0  0  0  0  0  0  0  0  0  0  0
   -4.0932   -3.1310    0.1930 H   0  0  0  0  0  0  0  0  0  0  0  0
   -2.3127   -2.4527    1.1916 C   0  0  0  0  0  0  0  0  0  0  0  0
   -1.3739   -3.1008    1.6273 O   0  0  0  0  0  0  0  0  0  0  0  0
   -2.1088   -1.1883    0.6796 N   0  0  0  0  0  0  0  0  0  0  0  0
   -2.9334   -0.6503    0.4175 H   0  0  0  0  0  0  0  0  0  0  0  0
   -0.8315   -0.4635    0.7147 C   0  0  1  0  0  0  0  0  0  0  0  0
   -0.1681   -0.9337    1.4476 H   0  0  0  0  0  0  0  0  0  0  0  0
   -0.1845   -0.5435   -0.6781 C   0  0  0  0  0  0  0  0  0  0  0  0
   -0.2462   -1.5818   -1.0211 H   0  0  0  0  0  0  0  0  0  0  0  0
   -0.7484    0.0661   -1.3927 H   0  0  0  0  0  0  0  0  0  0  0  0
    1.3026   -0.1438   -0.6631 C   0  0  0  0  0  0  0  0  0  0  0  0
    1.7070   -0.1882    0.3533 H   0  0  0  0  0  0  0  0  0  0  0  0
    1.8621   -0.8662   -1.2668 H   0  0  0  0  0  0  0  0  0  0  0  0
    1.5162    1.2546   -1.2570 C   0  0  0  0  0  0  0  0  0  0  0  0
    1.1244    1.2860   -2.2788 H   0  0  0  0  0  0  0  0  0  0  0  0
    0.9708    1.9963   -0.6647 H   0  0  0  0  0  0  0  0  0  0  0  0
    2.9985    1.6153   -1.2728 C   0  0  0  0  0  0  0  0  0  0  0  0
    3.4099    1.5622   -0.2588 H   0  0  0  0  0  0  0  0  0  0  0  0
    3.5492    0.9070   -1.9017 H   0  0  0  0  0  0  0  0  0  0  0  0
    3.1424    2.9763   -1.7966 N   0  0  0  0  0  0  0  0  0  0  0  0
    4.1232    3.2499   -1.8532 H   0  0  0  0  0  0  0  0  0  0  0  0
    2.6851    3.0706   -2.7037 H   0  0  0  0  0  0  0  0  0  0  0  0
   -1.0462    0.9997    1.1493 C   0  0  0  0  0  0  0  0  0  0  0  0
   -2.0063    1.6272    0.7161 O   0  0  0  0  0  0  0  0  0  0  0  0
   -0.2127    1.5879    2.0826 N   0  0  0  0  0  0  0  0  0  0  0  0
    0.5705    1.0406    2.4272 H   0  0  0  0  0  0  0  0  0  0  0  0
   -0.3544    2.9706    2.5212 C   0  0  0  0  0  0  0  0  0  0  0  0
   -1.3406    3.1316    2.9692 H   0  0  0  0  0  0  0  0  0  0  0  0
    0.4075    3.2103    3.2692 H   0  0  0  0  0  0  0  0  0  0  0  0
   -0.2353    3.6544    1.6741 H   0  0  0  0  0  0  0  0  0  0  0  0
  1  2  1  0  0  0  0
  2  3  1  0  0  0  0
  2  4  1  0  0  0  0
  2  5  1  0  0  0  0
  5  6  2  0  0  0  0
  5  7  1  0  0  0  0
  7  8  1  0  0  0  0
  7  9  1  0  0  0  0
  9 10  1  0  0  0  0
  9 11  1  0  0  0  0
  9 26  1  0  0  0  0
 11 12  1  0  0  0  0
 11 13  1  0  0  0  0
 11 14  1  0  0  0  0
 14 15  1  0  0  0  0
 14 16  1  0  0  0  0
 14 17  1  0  0  0  0
 17 18  1  0  0  0  0
 17 19  1  0  0  0  0
 17 20  1  0  0  0  0
 20 21  1  0  0  0  0
 20 22  1  0  0  0  0
 20 23  1  0  0  0  0
 23 24  1  0  0  0  0
 23 25  1  0  0  0  0
 26 27  2  0  0  0  0
 26 28  1  0  0  0  0
 28 29  1  0  0  0  0
 28 30  1  0  0  0  0
 30 31  1  0  0  0  0
 30 32  1  0  0  0  0
 30 33  1  0  0  0  0
M  END
$$$$

  -OEChem-03222214063D

 33 32  0     1  0  0  0  0  0999 V2000
   -3.6680   -4.0460    1.6505 H   0  0  0  0  0  0  0  0  0  0  0  0
   -3.6903   -3.0522    1.1946 C   0  0  0  0  0  0  0  0  0  0  0  0
   -4.3666   -2.4159    1.7705 H   0  0  0  0  0  0  0  0  0  0  0  0
   -4.0663   -3.1416    0.1726 H   0  0  0  0  0  0  0  0  0  0  0  0
   -2.2973   -2.4512    1.1826 C   0  0  0  0  0  0  0  0  0  0  0  0
   -1.3522   -3.0950    1.6112 O   0  0  0  0  0  0  0  0  0  0  0  0
   -2.1057   -1.1773    0.6897 N   0  0  0  0  0  0  0  0  0  0  0  0
   -2.9349   -0.6422    0.4357 H   0  0  0  0  0  0  0  0  0  0  0  0
   -0.8346   -0.4418    0.7429 C   0  0  1  0  0  0  0  0  0  0  0  0
   -0.1672   -0.9082    1.4749 H   0  0  0  0  0  0  0  0  0  0  0  0
   -0.1862   -0.5195   -0.6540 C   0  0  0  0  0  0  0  0  0  0  0  0
   -0.2493   -1.5585   -0.9950 H   0  0  0  0  0  0  0  0  0  0  0  0
   -0.7535    0.0888   -1.3667 H   0  0  0  0  0  0  0  0  0  0  0  0
    1.3008   -0.1200   -0.6746 C   0  0  0  0  0  0  0  0  0  0  0  0
    1.7833   -0.4198    0.2613 H   0  0  0  0  0  0  0  0  0  0  0  0
    1.7890   -0.6738   -1.4836 H   0  0  0  0  0  0  0  0  0  0  0  0
    1.5177    1.3795   -0.9258 C   0  0  0  0  0  0  0  0  0  0  0  0
    1.0306    1.6706   -1.8620 H   0  0  0  0  0  0  0  0  0  0  0  0
    1.0739    1.9699   -0.1216 H   0  0  0  0  0  0  0  0  0  0  0  0
    3.0074    1.7009   -1.0083 C   0  0  0  0  0  0  0  0  0  0  0  0
    3.5149    1.3729   -0.0944 H   0  0  0  0  0  0  0  0  0  0  0  0
    3.4588    1.1733   -1.8558 H   0  0  0  0  0  0  0  0  0  0  0  0
    3.1642    3.1491   -1.1704 N   0  0  0  0  0  0  0  0  0  0  0  0
    4.1471    3.4080   -1.2573 H   0  0  0  0  0  0  0  0  0  0  0  0
    2.6266    3.4889   -1.9683 H   0  0  0  0  0  0  0  0  0  0  0  0
   -1.0914    1.0078    1.2006 C   0  0  0  0  0  0  0  0  0  0  0  0
   -2.0579    1.6225    0.7621 O   0  0  0  0  0  0  0  0  0  0  0  0
   -0.2825    1.5994    2.1535 N   0  0  0  0  0  0  0  0  0  0  0  0
    0.5271    1.0751    2.4717 H   0  0  0  0  0  0  0  0  0  0  0  0
   -0.4371    2.9834    2.5834 C   0  0  0  0  0  0  0  0  0  0  0  0
   -1.4388    3.1495    2.9938 H   0  0  0  0  0  0  0  0  0  0  0  0
    0.2966    3.2225    3.3591 H   0  0  0  0  0  0  0  0  0  0  0  0
   -0.2840    3.6644    1.7396 H   0  0  0  0  0  0  0  0  0  0  0  0
  1  2  1  0  0  0  0
  2  3  1  0  0  0  0
  2  4  1  0  0  0  0
  2  5  1  0  0  0  0
  5  6  2  0  0  0  0
  5  7  1  0  0  0  0
  7  8  1  0  0  0  0
  7  9  1  0  0  0  0
  9 10  1  0  0  0  0
  9 11  1  0  0  0  0
  9 26  1  0  0  0  0
 11 12  1  0  0  0  0
 11 13  1  0  0  0  0
 11 14  1  0  0  0  0
 14 15  1  0  0  0  0
 14 16  1  0  0  0  0
 14 17  1  0  0  0  0
 17 18  1  0  0  0  0
 17 19  1  0  0  0  0
 17 20  1  0  0  0  0
 20 21  1  0  0  0  0
 20 22  1  0  0  0  0
 20 23  1  0  0  0  0
 23 24  1  0  0  0  0
 23 25  1  0  0  0  0
 26 27  2  0  0  0  0
 26 28  1  0  0  0  0
 28 29  1  0  0  0  0
 28 30  1  0  0  0  0
 30 31  1  0  0  0  0
 30 32  1  0  0  0  0
 30 33  1  0  0  0  0
M  END
$$$$

  -OEChem-03222214063D

 33 32  0     1  0  0  0  0  0999 V2000
   -3.6861   -4.0454    1.5353 H   0  0  0  0  0  0  0  0  0  0  0  0
   -3.6941   -3.0346    1.1180 C   0  0  0  0  0  0  0  0  0  0  0  0
   -4.3818   -2.4180    1.7018 H   0  0  0  0  0  0  0  0  0  0  0  0
   -4.0459   -3.0827    0.0848 H   0  0  0  0  0  0  0  0  0  0  0  0
   -2.2997   -2.4388    1.1634 C   0  0  0  0  0  0  0  0  0  0  0  0
   -1.3746   -3.0841    1.6313 O   0  0  0  0  0  0  0  0  0  0  0  0
   -2.0865   -1.1622    0.6876 N   0  0  0  0  0  0  0  0  0  0  0  0
   -2.9039   -0.6244    0.4020 H   0  0  0  0  0  0  0  0  0  0  0  0
   -0.8209   -0.4248    0.8088 C   0  0  1  0  0  0  0  0  0  0  0  0
   -0.1767   -0.8874    1.5637 H   0  0  0  0  0  0  0  0  0  0  0  0
   -0.1345   -0.5043   -0.5722 C   0  0  0  0  0  0  0  0  0  0  0  0
   -0.2034   -1.5402   -0.9214 H   0  0  0  0  0  0  0  0  0  0  0  0
   -0.6858    0.1144   -1.2886 H   0  0  0  0  0  0  0  0  0  0  0  0
    1.3566   -0.1211   -0.6030 C   0  0  0  0  0  0  0  0  0  0  0  0
    1.8878   -0.6442    0.1992 H   0  0  0  0  0  0  0  0  0  0  0  0
    1.7665   -0.4794   -1.5535 H   0  0  0  0  0  0  0  0  0  0  0  0
    1.6252    1.3866   -0.5010 C   0  0  0  0  0  0  0  0  0  0  0  0
    0.9588    1.9307   -1.1780 H   0  0  0  0  0  0  0  0  0  0  0  0
    1.4375    1.7341    0.5150 H   0  0  0  0  0  0  0  0  0  0  0  0
    3.0753    1.7040   -0.8549 C   0  0  0  0  0  0  0  0  0  0  0  0
    3.7537    1.1284   -0.2152 H   0  0  0  0  0  0  0  0  0  0  0  0
    3.2772    1.4319   -1.8969 H   0  0  0  0  0  0  0  0  0  0  0  0
    3.2976    3.1387   -0.6526 N   0  0  0  0  0  0  0  0  0  0  0  0
    4.2514    3.4034   -0.8993 H   0  0  0  0  0  0  0  0  0  0  0  0
    2.6195    3.6915   -1.1778 H   0  0  0  0  0  0  0  0  0  0  0  0
   -1.1380    1.0164    1.2620 C   0  0  0  0  0  0  0  0  0  0  0  0
   -2.0909    1.6126    0.7702 O   0  0  0  0  0  0  0  0  0  0  0  0
   -0.4041    1.6242    2.2639 N   0  0  0  0  0  0  0  0  0  0  0  0
    0.3982    1.1192    2.6294 H   0  0  0  0  0  0  0  0  0  0  0  0
   -0.6356    2.9928    2.7078 C   0  0  0  0  0  0  0  0  0  0  0  0
   -1.6604    3.1094    3.0756 H   0  0  0  0  0  0  0  0  0  0  0  0
    0.0526    3.2480    3.5192 H   0  0  0  0  0  0  0  0  0  0  0  0
   -0.4742    3.6943    1.8826 H   0  0  0  0  0  0  0  0  0  0  0  0
  1  2  1  0  0  0  0
  2  3  1  0  0  0  0
  2  4  1  0  0  0  0
  2  5  1  0  0  0  0
  5  6  2  0  0  0  0
  5  7  1  0  0  0  0
  7  8  1  0  0  0  0
  7  9  1  0  0  0  0
  9 10  1  0  0  0  0
  9 11  1  0  0  0  0
  9 26  1  0  0  0  0
 11 12  1  0  0  0  0
 11 13  1  0  0  0  0
 11 14  1  0  0  0  0
 14 15  1  0  0  0  0
 14 16  1  0  0  0  0
 14 17  1  0  0  0  0
 17 18  1  0  0  0  0
 17 19  1  0  0  0  0
 17 20  1  0  0  0  0
 20 21  1  0  0  0  0
 20 22  1  0  0  0  0
 20 23  1  0  0  0  0
 23 24  1  0  0  0  0
 23 25  1  0  0  0  0
 26 27  2  0  0  0  0
 26 28  1  0  0  0  0
 28 29  1  0  0  0  0
 28 30  1  0  0  0  0
 30 31  1  0  0  0  0
 30 32  1  0  0  0  0
 30 33  1  0  0  0  0
M  END
$$$$

  -OEChem-03222214063D

 33 32  0     1  0  0  0  0  0999 V2000
   -3.7207   -4.0364    1.5001 H   0  0  0  0  0  0  0  0  0  0  0  0
   -3.7123   -3.0281    1.0769 C   0  0  0  0  0  0  0  0  0  0  0  0
   -4.4182   -2.4065    1.6332 H   0  0  0  0  0  0  0  0  0  0  0  0
   -4.0287   -3.0817    0.0324 H   0  0  0  0  0  0  0  0  0  0  0  0
   -2.3188   -2.4351    1.1660 C   0  0  0  0  0  0  0  0  0  0  0  0
   -1.4094   -3.0846    1.6582 O   0  0  0  0  0  0  0  0  0  0  0  0
   -2.0872   -1.1602    0.6943 N   0  0  0  0  0  0  0  0  0  0  0  0
   -2.8942   -0.6179    0.3883 H   0  0  0  0  0  0  0  0  0  0  0  0
   -0.8198   -0.4312    0.8437 C   0  0  1  0  0  0  0  0  0  0  0  0
   -0.1869   -0.8949    1.6073 H   0  0  0  0  0  0  0  0  0  0  0  0
   -0.1190   -0.5101   -0.5317 C   0  0  0  0  0  0  0  0  0  0  0  0
   -0.2051   -1.5375   -0.9019 H   0  0  0  0  0  0  0  0  0  0  0  0
   -0.6572    0.1326   -1.2367 H   0  0  0  0  0  0  0  0  0  0  0  0
    1.3772   -0.1450   -0.5712 C   0  0  0  0  0  0  0  0  0  0  0  0
    1.9355   -0.8548    0.0485 H   0  0  0  0  0  0  0  0  0  0  0  0
    1.7175   -0.2754   -1.6040 H   0  0  0  0  0  0  0  0  0  0  0  0
    1.7142    1.2797   -0.1180 C   0  0  0  0  0  0  0  0  0  0  0  0
    0.9887    1.9868   -0.5336 H   0  0  0  0  0  0  0  0  0  0  0  0
    1.6731    1.3347    0.9711 H   0  0  0  0  0  0  0  0  0  0  0  0
    3.1181    1.6792   -0.5607 C   0  0  0  0  0  0  0  0  0  0  0  0
    3.8517    0.9574   -0.1845 H   0  0  0  0  0  0  0  0  0  0  0  0
    3.1803    1.6904   -1.6547 H   0  0  0  0  0  0  0  0  0  0  0  0
    3.4058    3.0116   -0.0219 N   0  0  0  0  0  0  0  0  0  0  0  0
    4.3364    3.3274   -0.2961 H   0  0  0  0  0  0  0  0  0  0  0  0
    2.6946    3.6834   -0.3117 H   0  0  0  0  0  0  0  0  0  0  0  0
   -1.1580    1.0098    1.2894 C   0  0  0  0  0  0  0  0  0  0  0  0
   -2.0935    1.6037    0.7620 O   0  0  0  0  0  0  0  0  0  0  0  0
   -0.4597    1.6290    2.3095 N   0  0  0  0  0  0  0  0  0  0  0  0
    0.3364    1.1323    2.6997 H   0  0  0  0  0  0  0  0  0  0  0  0
   -0.7023    3.0039    2.7274 C   0  0  0  0  0  0  0  0  0  0  0  0
   -1.7415    3.1306    3.0487 H   0  0  0  0  0  0  0  0  0  0  0  0
   -0.0485    3.2644    3.5653 H   0  0  0  0  0  0  0  0  0  0  0  0
   -0.5008    3.6953    1.9025 H   0  0  0  0  0  0  0  0  0  0  0  0
  1  2  1  0  0  0  0
  2  3  1  0  0  0  0
  2  4  1  0  0  0  0
  2  5  1  0  0  0  0
  5  6  2  0  0  0  0
  5  7  1  0  0  0  0
  7  8  1  0  0  0  0
  7  9  1  0  0  0  0
  9 10  1  0  0  0  0
  9 11  1  0  0  0  0
  9 26  1  0  0  0  0
 11 12  1  0  0  0  0
 11 13  1  0  0  0  0
 11 14  1  0  0  0  0
 14 15  1  0  0  0  0
 14 16  1  0  0  0  0
 14 17  1  0  0  0  0
 17 18  1  0  0  0  0
 17 19  1  0  0  0  0
 17 20  1  0  0  0  0
 20 21  1  0  0  0  0
 20 22  1  0  0  0  0
 20 23  1  0  0  0  0
 23 24  1  0  0  0  0
 23 25  1  0  0  0  0
 26 27  2  0  0  0  0
 26 28  1  0  0  0  0
 28 29  1  0  0  0  0
 28 30  1  0  0  0  0
 30 31  1  0  0  0  0
 30 32  1  0  0  0  0
 30 33  1  0  0  0  0
M  END
$$$$

  -OEChem-03222214063D

 33 32  0     1  0  0  0  0  0999 V2000
   -3.7147   -4.0451    1.5047 H   0  0  0  0  0  0  0  0  0  0  0  0
   -3.7099   -3.0364    1.0825 C   0  0  0  0  0  0  0  0  0  0  0  0
   -4.4216   -2.4191    1.6362 H   0  0  0  0  0  0  0  0  0  0  0  0
   -4.0214   -3.0907    0.0366 H   0  0  0  0  0  0  0  0  0  0  0  0
   -2.3201   -2.4361    1.1774 C   0  0  0  0  0  0  0  0  0  0  0  0
   -1.4082   -3.0821    1.6694 O   0  0  0  0  0  0  0  0  0  0  0  0
   -2.0936   -1.1604    0.7054 N   0  0  0  0  0  0  0  0  0  0  0  0
   -2.9030   -0.6213    0.3999 H   0  0  0  0  0  0  0  0  0  0  0  0
   -0.8284   -0.4265    0.8511 C   0  0  1  0  0  0  0  0  0  0  0  0
   -0.1892   -0.8866    1.6115 H   0  0  0  0  0  0  0  0  0  0  0  0
   -0.1358   -0.5004   -0.5306 C   0  0  0  0  0  0  0  0  0  0  0  0
   -0.2344   -1.5205   -0.9174 H   0  0  0  0  0  0  0  0  0  0  0  0
   -0.6812    0.1569   -1.2165 H   0  0  0  0  0  0  0  0  0  0  0  0
    1.3612   -0.1342   -0.6019 C   0  0  0  0  0  0  0  0  0  0  0  0
    1.9402   -0.9753   -0.2057 H   0  0  0  0  0  0  0  0  0  0  0  0
    1.6274   -0.0238   -1.6585 H   0  0  0  0  0  0  0  0  0  0  0  0
    1.7818    1.1289    0.1548 C   0  0  0  0  0  0  0  0  0  0  0  0
    1.1106    1.9554   -0.1004 H   0  0  0  0  0  0  0  0  0  0  0  0
    1.7269    0.9441    1.2301 H   0  0  0  0  0  0  0  0  0  0  0  0
    3.2140    1.5236   -0.1882 C   0  0  0  0  0  0  0  0  0  0  0  0
    3.8981    0.7007    0.0474 H   0  0  0  0  0  0  0  0  0  0  0  0
    3.2996    1.7429   -1.2584 H   0  0  0  0  0  0  0  0  0  0  0  0
    3.5636    2.7075    0.6025 N   0  0  0  0  0  0  0  0  0  0  0  0
    4.5218    3.0048    0.4166 H   0  0  0  0  0  0  0  0  0  0  0  0
    2.9076    3.4692    0.4276 H   0  0  0  0  0  0  0  0  0  0  0  0
   -1.1828    1.0119    1.2980 C   0  0  0  0  0  0  0  0  0  0  0  0
   -2.1260    1.5944    0.7713 O   0  0  0  0  0  0  0  0  0  0  0  0
   -0.4937    1.6432    2.3174 N   0  0  0  0  0  0  0  0  0  0  0  0
    0.3124    1.1607    2.7054 H   0  0  0  0  0  0  0  0  0  0  0  0
   -0.7675    3.0086    2.7467 C   0  0  0  0  0  0  0  0  0  0  0  0
   -1.8095    3.1087    3.0682 H   0  0  0  0  0  0  0  0  0  0  0  0
   -0.1206    3.2764    3.5876 H   0  0  0  0  0  0  0  0  0  0  0  0
   -0.5814    3.7113    1.9280 H   0  0  0  0  0  0  0  0  0  0  0  0
  1  2  1  0  0  0  0
  2  3  1  0  0  0  0
  2  4  1  0  0  0  0
  2  5  1  0  0  0  0
  5  6  2  0  0  0  0
  5  7  1  0  0  0  0
  7  8  1  0  0  0  0
  7  9  1  0  0  0  0
  9 10  1  0  0  0  0
  9 11  1  0  0  0  0
  9 26  1  0  0  0  0
 11 12  1  0  0  0  0
 11 13  1  0  0  0  0
 11 14  1  0  0  0  0
 14 15  1  0  0  0  0
 14 16  1  0  0  0  0
 14 17  1  0  0  0  0
 17 18  1  0  0  0  0
 17 19  1  0  0  0  0
 17 20  1  0  0  0  0
 20 21  1  0  0  0  0
 20 22  1  0  0  0  0
 20 23  1  0  0  0  0
 23 24  1  0  0  0  0
 23 25  1  0  0  0  0
 26 27  2  0  0  0  0
 26 28  1  0  0  0  0
 28 29  1  0  0  0  0
 28 30  1  0  0  0  0
 30 31  1  0  0  0  0
 30 32  1  0  0  0  0
 30 33  1  0  0  0  0
M  END
$$$$

  -OEChem-03222214063D

 33 32  0     1  0  0  0  0  0999 V2000
   -3.6889   -4.0650    1.5173 H   0  0  0  0  0  0  0  0  0  0  0  0
   -3.6973   -3.0568    1.0936 C   0  0  0  0  0  0  0  0  0  0  0  0
   -4.4159   -2.4477    1.6474 H   0  0  0  0  0  0  0  0  0  0  0  0
   -4.0093   -3.1166    0.0481 H   0  0  0  0  0  0  0  0  0  0  0  0
   -2.3148   -2.4391    1.1856 C   0  0  0  0  0  0  0  0  0  0  0  0
   -1.3954   -3.0719    1.6806 O   0  0  0  0  0  0  0  0  0  0  0  0
   -2.1040   -1.1627    0.7083 N   0  0  0  0  0  0  0  0  0  0  0  0
   -2.9197   -0.6352    0.3997 H   0  0  0  0  0  0  0  0  0  0  0  0
   -0.8474   -0.4132    0.8492 C   0  0  1  0  0  0  0  0  0  0  0  0
   -0.2064   -0.8667    1.6123 H   0  0  0  0  0  0  0  0  0  0  0  0
   -0.1511   -0.4869   -0.5312 C   0  0  0  0  0  0  0  0  0  0  0  0
   -0.2453   -1.5070   -0.9194 H   0  0  0  0  0  0  0  0  0  0  0  0
   -0.7058    0.1660   -1.2139 H   0  0  0  0  0  0  0  0  0  0  0  0
    1.3439   -0.1047   -0.6191 C   0  0  0  0  0  0  0  0  0  0  0  0
    1.9278   -1.0180   -0.4618 H   0  0  0  0  0  0  0  0  0  0  0  0
    1.5503    0.2406   -1.6376 H   0  0  0  0  0  0  0  0  0  0  0  0
    1.8487    0.9398    0.3809 C   0  0  0  0  0  0  0  0  0  0  0  0
    1.2725    1.8632    0.2670 H   0  0  0  0  0  0  0  0  0  0  0  0
    1.7284    0.5657    1.4012 H   0  0  0  0  0  0  0  0  0  0  0  0
    3.3246    1.2469    0.1540 C   0  0  0  0  0  0  0  0  0  0  0  0
    3.9208    0.3350    0.2712 H   0  0  0  0  0  0  0  0  0  0  0  0
    3.4803    1.6284   -0.8612 H   0  0  0  0  0  0  0  0  0  0  0  0
    3.7389    2.2480    1.1416 N   0  0  0  0  0  0  0  0  0  0  0  0
    4.7328    2.4615    1.0543 H   0  0  0  0  0  0  0  0  0  0  0  0
    3.1782    3.0962    1.0587 H   0  0  0  0  0  0  0  0  0  0  0  0
   -1.2098    1.0247    1.2911 C   0  0  0  0  0  0  0  0  0  0  0  0
   -2.1623    1.5970    0.7701 O   0  0  0  0  0  0  0  0  0  0  0  0
   -0.5205    1.6631    2.3061 N   0  0  0  0  0  0  0  0  0  0  0  0
    0.2890    1.1858    2.6941 H   0  0  0  0  0  0  0  0  0  0  0  0
   -0.8161    3.0190    2.7503 C   0  0  0  0  0  0  0  0  0  0  0  0
   -1.8558    3.0945    3.0860 H   0  0  0  0  0  0  0  0  0  0  0  0
   -0.1636    3.2929    3.5851 H   0  0  0  0  0  0  0  0  0  0  0  0
   -0.6549    3.7321    1.9351 H   0  0  0  0  0  0  0  0  0  0  0  0
  1  2  1  0  0  0  0
  2  3  1  0  0  0  0
  2  4  1  0  0  0  0
  2  5  1  0  0  0  0
  5  6  2  0  0  0  0
  5  7  1  0  0  0  0
  7  8  1  0  0  0  0
  7  9  1  0  0  0  0
  9 10  1  0  0  0  0
  9 11  1  0  0  0  0
  9 26  1  0  0  0  0
 11 12  1  0  0  0  0
 11 13  1  0  0  0  0
 11 14  1  0  0  0  0
 14 15  1  0  0  0  0
 14 16  1  0  0  0  0
 14 17  1  0  0  0  0
 17 18  1  0  0  0  0
 17 19  1  0  0  0  0
 17 20  1  0  0  0  0
 20 21  1  0  0  0  0
 20 22  1  0  0  0  0
 20 23  1  0  0  0  0
 23 24  1  0  0  0  0
 23 25  1  0  0  0  0
 26 27  2  0  0  0  0
 26 28  1  0  0  0  0
 28 29  1  0  0  0  0
 28 30  1  0  0  0  0
 30 31  1  0  0  0  0
 30 32  1  0  0  0  0
 30 33  1  0  0  0  0
M  END
$$$$

  -OEChem-03222214063D

 33 32  0     1  0  0  0  0  0999 V2000
   -3.6739   -4.0909    1.4982 H   0  0  0  0  0  0  0  0  0  0  0  0
   -3.6927   -3.0818    1.0771 C   0  0  0  0  0  0  0  0  0  0  0  0
   -4.4277   -2.4855    1.6233 H   0  0  0  0  0  0  0  0  0  0  0  0
   -3.9909   -3.1437    0.0277 H   0  0  0  0  0  0  0  0  0  0  0  0
   -2.3207   -2.4439    1.1883 C   0  0  0  0  0  0  0  0  0  0  0  0
   -1.3998   -3.0644    1.6958 O   0  0  0  0  0  0  0  0  0  0  0  0
   -2.1194   -1.1669    0.7078 N   0  0  0  0  0  0  0  0  0  0  0  0
   -2.9373   -0.6527    0.3838 H   0  0  0  0  0  0  0  0  0  0  0  0
   -0.8732   -0.4006    0.8565 C   0  0  1  0  0  0  0  0  0  0  0  0
   -0.2446   -0.8504    1.6309 H   0  0  0  0  0  0  0  0  0  0  0  0
   -0.1565   -0.4797   -0.5126 C   0  0  0  0  0  0  0  0  0  0  0  0
   -0.2343   -1.5076   -0.8835 H   0  0  0  0  0  0  0  0  0  0  0  0
   -0.7152    0.1509   -1.2128 H   0  0  0  0  0  0  0  0  0  0  0  0
    1.3368   -0.0806   -0.6010 C   0  0  0  0  0  0  0  0  0  0  0  0
    1.9128   -1.0071   -0.7002 H   0  0  0  0  0  0  0  0  0  0  0  0
    1.4889    0.4933   -1.5211 H   0  0  0  0  0  0  0  0  0  0  0  0
    1.9299    0.7020    0.5774 C   0  0  0  0  0  0  0  0  0  0  0  0
    1.4566    1.6863    0.6296 H   0  0  0  0  0  0  0  0  0  0  0  0
    1.7560    0.1703    1.5171 H   0  0  0  0  0  0  0  0  0  0  0  0
    3.4329    0.8923    0.4049 C   0  0  0  0  0  0  0  0  0  0  0  0
    3.9351   -0.0816    0.3883 H   0  0  0  0  0  0  0  0  0  0  0  0
    3.6456    1.4014   -0.5418 H   0  0  0  0  0  0  0  0  0  0  0  0
    3.9235    1.6929    1.5308 N   0  0  0  0  0  0  0  0  0  0  0  0
    4.9383    1.7938    1.4954 H   0  0  0  0  0  0  0  0  0  0  0  0
    3.4699    2.6063    1.5540 H   0  0  0  0  0  0  0  0  0  0  0  0
   -1.2307    1.0400    1.2880 C   0  0  0  0  0  0  0  0  0  0  0  0
   -2.1779    1.6136    0.7598 O   0  0  0  0  0  0  0  0  0  0  0  0
   -0.5401    1.6780    2.3026 N   0  0  0  0  0  0  0  0  0  0  0  0
    0.2606    1.1932    2.7006 H   0  0  0  0  0  0  0  0  0  0  0  0
   -0.8347    3.0344    2.7466 C   0  0  0  0  0  0  0  0  0  0  0  0
   -1.8772    3.1132    3.0727 H   0  0  0  0  0  0  0  0  0  0  0  0
   -0.1898    3.3044    3.5883 H   0  0  0  0  0  0  0  0  0  0  0  0
   -0.6634    3.7486    1.9344 H   0  0  0  0  0  0  0  0  0  0  0  0
  1  2  1  0  0  0  0
  2  3  1  0  0  0  0
  2  4  1  0  0  0  0
  2  5  1  0  0  0  0
  5  6  2  0  0  0  0
  5  7  1  0  0  0  0
  7  8  1  0  0  0  0
  7  9  1  0  0  0  0
  9 10  1  0  0  0  0
  9 11  1  0  0  0  0
  9 26  1  0  0  0  0
 11 12  1  0  0  0  0
 11 13  1  0  0  0  0
 11 14  1  0  0  0  0
 14 15  1  0  0  0  0
 14 16  1  0  0  0  0
 14 17  1  0  0  0  0
 17 18  1  0  0  0  0
 17 19  1  0  0  0  0
 17 20  1  0  0  0  0
 20 21  1  0  0  0  0
 20 22  1  0  0  0  0
 20 23  1  0  0  0  0
 23 24  1  0  0  0  0
 23 25  1  0  0  0  0
 26 27  2  0  0  0  0
 26 28  1  0  0  0  0
 28 29  1  0  0  0  0
 28 30  1  0  0  0  0
 30 31  1  0  0  0  0
 30 32  1  0  0  0  0
 30 33  1  0  0  0  0
M  END
$$$$

  -OEChem-03222214063D

 33 32  0     1  0  0  0  0  0999 V2000
   -3.7165   -4.0579    1.5071 H   0  0  0  0  0  0  0  0  0  0  0  0
   -3.7178   -3.0543    1.0727 C   0  0  0  0  0  0  0  0  0  0  0  0
   -4.4457   -2.4396    1.6078 H   0  0  0  0  0  0  0  0  0  0  0  0
   -4.0120   -3.1250    0.0227 H   0  0  0  0  0  0  0  0  0  0  0  0
   -2.3374   -2.4346    1.1823 C   0  0  0  0  0  0  0  0  0  0  0  0
   -1.4293   -3.0575    1.7092 O   0  0  0  0  0  0  0  0  0  0  0  0
   -2.1198   -1.1643    0.6914 N   0  0  0  0  0  0  0  0  0  0  0  0
   -2.9297   -0.6488    0.3497 H   0  0  0  0  0  0  0  0  0  0  0  0
   -0.8736   -0.4016    0.8557 C   0  0  1  0  0  0  0  0  0  0  0  0
   -0.2668   -0.8490    1.6478 H   0  0  0  0  0  0  0  0  0  0  0  0
   -0.1335   -0.4857   -0.5002 C   0  0  0  0  0  0  0  0  0  0  0  0
   -0.1975   -1.5232   -0.8465 H   0  0  0  0  0  0  0  0  0  0  0  0
   -0.6835    0.1222   -1.2269 H   0  0  0  0  0  0  0  0  0  0  0  0
    1.3628   -0.0905   -0.5708 C   0  0  0  0  0  0  0  0  0  0  0  0
    1.9129   -0.9586   -0.9501 H   0  0  0  0  0  0  0  0  0  0  0  0
    1.4710    0.7065   -1.3141 H   0  0  0  0  0  0  0  0  0  0  0  0
    2.0397    0.3704    0.7280 C   0  0  0  0  0  0  0  0  0  0  0  0
    1.6319    1.3377    1.0266 H   0  0  0  0  0  0  0  0  0  0  0  0
    1.8674   -0.3536    1.5297 H   0  0  0  0  0  0  0  0  0  0  0  0
    3.5444    0.5216    0.5297 C   0  0  0  0  0  0  0  0  0  0  0  0
    3.9900   -0.4507    0.2907 H   0  0  0  0  0  0  0  0  0  0  0  0
    3.7506    1.2045   -0.3021 H   0  0  0  0  0  0  0  0  0  0  0  0
    4.1218    1.0484    1.7703 N   0  0  0  0  0  0  0  0  0  0  0  0
    5.1393    1.0959    1.7114 H   0  0  0  0  0  0  0  0  0  0  0  0
    3.7295    1.9617    1.9981 H   0  0  0  0  0  0  0  0  0  0  0  0
   -1.2268    1.0455    1.2631 C   0  0  0  0  0  0  0  0  0  0  0  0
   -2.1602    1.6205    0.7126 O   0  0  0  0  0  0  0  0  0  0  0  0
   -0.5494    1.6882    2.2828 N   0  0  0  0  0  0  0  0  0  0  0  0
    0.2105    1.1828    2.7315 H   0  0  0  0  0  0  0  0  0  0  0  0
   -0.8663    3.0367    2.7351 C   0  0  0  0  0  0  0  0  0  0  0  0
   -1.9038    3.0912    3.0815 H   0  0  0  0  0  0  0  0  0  0  0  0
   -0.2106    3.3212    3.5636 H   0  0  0  0  0  0  0  0  0  0  0  0
   -0.7277    3.7557    1.9209 H   0  0  0  0  0  0  0  0  0  0  0  0
  1  2  1  0  0  0  0
  2  3  1  0  0  0  0
  2  4  1  0  0  0  0
  2  5  1  0  0  0  0
  5  6  2  0  0  0  0
  5  7  1  0  0  0  0
  7  8  1  0  0  0  0
  7  9  1  0  0  0  0
  9 10  1  0  0  0  0
  9 11  1  0  0  0  0
  9 26  1  0  0  0  0
 11 12  1  0  0  0  0
 11 13  1  0  0  0  0
 11 14  1  0  0  0  0
 14 15  1  0  0  0  0
 14 16  1  0  0  0  0
 14 17  1  0  0  0  0
 17 18  1  0  0  0  0
 17 19  1  0  0  0  0
 17 20  1  0  0  0  0
 20 21  1  0  0  0  0
 20 22  1  0  0  0  0
 20 23  1  0  0  0  0
 23 24  1  0  0  0  0
 23 25  1  0  0  0  0
 26 27  2  0  0  0  0
 26 28  1  0  0  0  0
 28 29  1  0  0  0  0
 28 30  1  0  0  0  0
 30 31  1  0  0  0  0
 30 32  1  0  0  0  0
 30 33  1  0  0  0  0
M  END
$$$$

  -OEChem-03222214063D

 33 32  0     1  0  0  0  0  0999 V2000
   -3.7552   -4.0333    1.5117 H   0  0  0  0  0  0  0  0  0  0  0  0
   -3.7425   -3.0325    1.0711 C   0  0  0  0  0  0  0  0  0  0  0  0
   -4.4730   -2.4087    1.5917 H   0  0  0  0  0  0  0  0  0  0  0  0
   -4.0222   -3.1079    0.0176 H   0  0  0  0  0  0  0  0  0  0  0  0
   -2.3591   -2.4227    1.1968 C   0  0  0  0  0  0  0  0  0  0  0  0
   -1.4658   -3.0462    1.7477 O   0  0  0  0  0  0  0  0  0  0  0  0
   -2.1214   -1.1614    0.6919 N   0  0  0  0  0  0  0  0  0  0  0  0
   -2.9198   -0.6437    0.3275 H   0  0  0  0  0  0  0  0  0  0  0  0
   -0.8650   -0.4149    0.8513 C   0  0  1  0  0  0  0  0  0  0  0  0
   -0.2640   -0.8635    1.6472 H   0  0  0  0  0  0  0  0  0  0  0  0
   -0.1251   -0.4985   -0.5030 C   0  0  0  0  0  0  0  0  0  0  0  0
   -0.1850   -1.5413   -0.8338 H   0  0  0  0  0  0  0  0  0  0  0  0
   -0.6663    0.0996   -1.2442 H   0  0  0  0  0  0  0  0  0  0  0  0
    1.3731   -0.1157   -0.5533 C   0  0  0  0  0  0  0  0  0  0  0  0
    1.8856   -0.8415   -1.1940 H   0  0  0  0  0  0  0  0  0  0  0  0
    1.4531    0.8603   -1.0439 H   0  0  0  0  0  0  0  0  0  0  0  0
    2.1153   -0.0232    0.7884 C   0  0  0  0  0  0  0  0  0  0  0  0
    1.7278    0.8090    1.3763 H   0  0  0  0  0  0  0  0  0  0  0  0
    1.9779   -0.9489    1.3566 H   0  0  0  0  0  0  0  0  0  0  0  0
    3.6082    0.1951    0.5604 C   0  0  0  0  0  0  0  0  0  0  0  0
    4.0339   -0.6631    0.0286 H   0  0  0  0  0  0  0  0  0  0  0  0
    3.7710    1.0893   -0.0516 H   0  0  0  0  0  0  0  0  0  0  0  0
    4.2616    0.3516    1.8635 N   0  0  0  0  0  0  0  0  0  0  0  0
    5.2745    0.4216    1.7623 H   0  0  0  0  0  0  0  0  0  0  0  0
    3.8908    1.1569    2.3667 H   0  0  0  0  0  0  0  0  0  0  0  0
   -1.1909    1.0433    1.2408 C   0  0  0  0  0  0  0  0  0  0  0  0
   -2.1069    1.6322    0.6760 O   0  0  0  0  0  0  0  0  0  0  0  0
   -0.5032    1.6858    2.2534 N   0  0  0  0  0  0  0  0  0  0  0  0
    0.2218    1.1589    2.7331 H   0  0  0  0  0  0  0  0  0  0  0  0
   -0.7984    3.0444    2.6907 C   0  0  0  0  0  0  0  0  0  0  0  0
   -1.8346    3.1193    3.0372 H   0  0  0  0  0  0  0  0  0  0  0  0
   -0.1374    3.3282    3.5152 H   0  0  0  0  0  0  0  0  0  0  0  0
   -0.6494    3.7517    1.8681 H   0  0  0  0  0  0  0  0  0  0  0  0
  1  2  1  0  0  0  0
  2  3  1  0  0  0  0
  2  4  1  0  0  0  0
  2  5  1  0  0  0  0
  5  6  2  0  0  0  0
  5  7  1  0  0  0  0
  7  8  1  0  0  0  0
  7  9  1  0  0  0  0
  9 10  1  0  0  0  0
  9 11  1  0  0  0  0
  9 26  1  0  0  0  0
 11 12  1  0  0  0  0
 11 13  1  0  0  0  0
 11 14  1  0  0  0  0
 14 15  1  0  0  0  0
 14 16  1  0  0  0  0
 14 17  1  0  0  0  0
 17 18  1  0  0  0  0
 17 19  1  0  0  0  0
 17 20  1  0  0  0  0
 20 21  1  0  0  0  0
 20 22  1  0  0  0  0
 20 23  1  0  0  0  0
 23 24  1  0  0  0  0
 23 25  1  0  0  0  0
 26 27  2  0  0  0  0
 26 28  1  0  0  0  0
 28 29  1  0  0  0  0
 28 30  1  0  0  0  0
 30 31  1  0  0  0  0
 30 32  1  0  0  0  0
 30 33  1  0  0  0  0
M  END
$$$$

  -OEChem-03222214063D

 33 32  0     1  0  0  0  0  0999 V2000
   -3.7529   -4.0360    1.5324 H   0  0  0  0  0  0  0  0  0  0  0  0
   -3.7453   -3.0347    1.0928 C   0  0  0  0  0  0  0  0  0  0  0  0
   -4.4730   -2.4126    1.6194 H   0  0  0  0  0  0  0  0  0  0  0  0
   -4.0330   -3.1097    0.0413 H   0  0  0  0  0  0  0  0  0  0  0  0
   -2.3612   -2.4244    1.2082 C   0  0  0  0  0  0  0  0  0  0  0  0
   -1.4651   -3.0456    1.7570 O   0  0  0  0  0  0  0  0  0  0  0  0
   -2.1256   -1.1670    0.6925 N   0  0  0  0  0  0  0  0  0  0  0  0
   -2.9257   -0.6526    0.3274 H   0  0  0  0  0  0  0  0  0  0  0  0
   -0.8632   -0.4250    0.8209 C   0  0  1  0  0  0  0  0  0  0  0  0
   -0.2588   -0.8790    1.6113 H   0  0  0  0  0  0  0  0  0  0  0  0
   -0.1325   -0.5143   -0.5353 C   0  0  0  0  0  0  0  0  0  0  0  0
   -0.1850   -1.5596   -0.8590 H   0  0  0  0  0  0  0  0  0  0  0  0
   -0.6712    0.0794   -1.2818 H   0  0  0  0  0  0  0  0  0  0  0  0
    1.3612   -0.1236   -0.5600 C   0  0  0  0  0  0  0  0  0  0  0  0
    1.8403   -0.6599   -1.3860 H   0  0  0  0  0  0  0  0  0  0  0  0
    1.4276    0.9461   -0.7848 H   0  0  0  0  0  0  0  0  0  0  0  0
    2.1452   -0.3787    0.7369 C   0  0  0  0  0  0  0  0  0  0  0  0
    1.7762    0.2643    1.5386 H   0  0  0  0  0  0  0  0  0  0  0  0
    2.0167   -1.4219    1.0451 H   0  0  0  0  0  0  0  0  0  0  0  0
    3.6309   -0.1002    0.5265 C   0  0  0  0  0  0  0  0  0  0  0  0
    4.0312   -0.7690   -0.2436 H   0  0  0  0  0  0  0  0  0  0  0  0
    3.7766    0.9323    0.1896 H   0  0  0  0  0  0  0  0  0  0  0  0
    4.3340   -0.3212    1.7938 N   0  0  0  0  0  0  0  0  0  0  0  0
    5.3409   -0.1972    1.6850 H   0  0  0  0  0  0  0  0  0  0  0  0
    3.9702    0.2836    2.5292 H   0  0  0  0  0  0  0  0  0  0  0  0
   -1.1401    1.0421    1.2085 C   0  0  0  0  0  0  0  0  0  0  0  0
   -2.0551    1.6520    0.6659 O   0  0  0  0  0  0  0  0  0  0  0  0
   -0.4046    1.6672    2.1982 N   0  0  0  0  0  0  0  0  0  0  0  0
    0.3052    1.1158    2.6722 H   0  0  0  0  0  0  0  0  0  0  0  0
   -0.6568    3.0312    2.6457 C   0  0  0  0  0  0  0  0  0  0  0  0
   -1.6808    3.1293    3.0213 H   0  0  0  0  0  0  0  0  0  0  0  0
    0.0337    3.2984    3.4513 H   0  0  0  0  0  0  0  0  0  0  0  0
   -0.5153    3.7368    1.8204 H   0  0  0  0  0  0  0  0  0  0  0  0
  1  2  1  0  0  0  0
  2  3  1  0  0  0  0
  2  4  1  0  0  0  0
  2  5  1  0  0  0  0
  5  6  2  0  0  0  0
  5  7  1  0  0  0  0
  7  8  1  0  0  0  0
  7  9  1  0  0  0  0
  9 10  1  0  0  0  0
  9 11  1  0  0  0  0
  9 26  1  0  0  0  0
 11 12  1  0  0  0  0
 11 13  1  0  0  0  0
 11 14  1  0  0  0  0
 14 15  1  0  0  0  0
 14 16  1  0  0  0  0
 14 17  1  0  0  0  0
 17 18  1  0  0  0  0
 17 19  1  0  0  0  0
 17 20  1  0  0  0  0
 20 21  1  0  0  0  0
 20 22  1  0  0  0  0
 20 23  1  0  0  0  0
 23 24  1  0  0  0  0
 23 25  1  0  0  0  0
 26 27  2  0  0  0  0
 26 28  1  0  0  0  0
 28 29  1  0  0  0  0
 28 30  1  0  0  0  0
 30 31  1  0  0  0  0
 30 32  1  0  0  0  0
 30 33  1  0  0  0  0
M  END
$$$$

  -OEChem-03222214063D

 33 32  0     1  0  0  0  0  0999 V2000
   -3.7285   -4.0528    1.5492 H   0  0  0  0  0  0  0  0  0  0  0  0
   -3.7320   -3.0520    1.1083 C   0  0  0  0  0  0  0  0  0  0  0  0
   -4.4527   -2.4320    1.6470 H   0  0  0  0  0  0  0  0  0  0  0  0
   -4.0380   -3.1294    0.0623 H   0  0  0  0  0  0  0  0  0  0  0  0
   -2.3485   -2.4362    1.1985 C   0  0  0  0  0  0  0  0  0  0  0  0
   -1.4398   -3.0556    1.7284 O   0  0  0  0  0  0  0  0  0  0  0  0
   -2.1294   -1.1750    0.6848 N   0  0  0  0  0  0  0  0  0  0  0  0
   -2.9385   -0.6664    0.3323 H   0  0  0  0  0  0  0  0  0  0  0  0
   -0.8687   -0.4272    0.7886 C   0  0  1  0  0  0  0  0  0  0  0  0
   -0.2590   -0.8858    1.5711 H   0  0  0  0  0  0  0  0  0  0  0  0
   -0.1417   -0.5159   -0.5672 C   0  0  0  0  0  0  0  0  0  0  0  0
   -0.1854   -1.5582   -0.9016 H   0  0  0  0  0  0  0  0  0  0  0  0
   -0.6777    0.0851   -1.3097 H   0  0  0  0  0  0  0  0  0  0  0  0
    1.3442   -0.1046   -0.5586 C   0  0  0  0  0  0  0  0  0  0  0  0
    1.7885   -0.4263   -1.5065 H   0  0  0  0  0  0  0  0  0  0  0  0
    1.4052    0.9883   -0.5234 H   0  0  0  0  0  0  0  0  0  0  0  0
    2.1686   -0.6739    0.6065 C   0  0  0  0  0  0  0  0  0  0  0  0
    1.8542   -0.2215    1.5509 H   0  0  0  0  0  0  0  0  0  0  0  0
    2.0108   -1.7556    0.6751 H   0  0  0  0  0  0  0  0  0  0  0  0
    3.6546   -0.3942    0.3960 C   0  0  0  0  0  0  0  0  0  0  0  0
    3.9964   -0.8660   -0.5320 H   0  0  0  0  0  0  0  0  0  0  0  0
    3.8261    0.6847    0.3118 H   0  0  0  0  0  0  0  0  0  0  0  0
    4.4029   -0.9364    1.5341 N   0  0  0  0  0  0  0  0  0  0  0  0
    5.4071   -0.7991    1.4171 H   0  0  0  0  0  0  0  0  0  0  0  0
    4.0801   -0.5366    2.4146 H   0  0  0  0  0  0  0  0  0  0  0  0
   -1.1126    1.0400    1.1887 C   0  0  0  0  0  0  0  0  0  0  0  0
   -2.0333    1.6679    0.6781 O   0  0  0  0  0  0  0  0  0  0  0  0
   -0.3343    1.6407    2.1606 N   0  0  0  0  0  0  0  0  0  0  0  0
    0.3843    1.0741    2.6020 H   0  0  0  0  0  0  0  0  0  0  0  0
   -0.5389    3.0088    2.6194 C   0  0  0  0  0  0  0  0  0  0  0  0
   -1.5438    3.1267    3.0382 H   0  0  0  0  0  0  0  0  0  0  0  0
    0.1907    3.2605    3.3949 H   0  0  0  0  0  0  0  0  0  0  0  0
   -0.4179    3.7125    1.7892 H   0  0  0  0  0  0  0  0  0  0  0  0
  1  2  1  0  0  0  0
  2  3  1  0  0  0  0
  2  4  1  0  0  0  0
  2  5  1  0  0  0  0
  5  6  2  0  0  0  0
  5  7  1  0  0  0  0
  7  8  1  0  0  0  0
  7  9  1  0  0  0  0
  9 10  1  0  0  0  0
  9 11  1  0  0  0  0
  9 26  1  0  0  0  0
 11 12  1  0  0  0  0
 11 13  1  0  0  0  0
 11 14  1  0  0  0  0
 14 15  1  0  0  0  0
 14 16  1  0  0  0  0
 14 17  1  0  0  0  0
 17 18  1  0  0  0  0
 17 19  1  0  0  0  0
 17 20  1  0  0  0  0
 20 21  1  0  0  0  0
 20 22  1  0  0  0  0
 20 23  1  0  0  0  0
 23 24  1  0  0  0  0
 23 25  1  0  0  0  0
 26 27  2  0  0  0  0
 26 28  1  0  0  0  0
 28 29  1  0  0  0  0
 28 30  1  0  0  0  0
 30 31  1  0  0  0  0
 30 32  1  0  0  0  0
 30 33  1  0  0  0  0
M  END
$$$$

  -OEChem-03222214063D

 33 32  0     1  0  0  0  0  0999 V2000
   -3.7006   -4.0497    1.5723 H   0  0  0  0  0  0  0  0  0  0  0  0
   -3.7104   -3.0505    1.1278 C   0  0  0  0  0  0  0  0  0  0  0  0
   -4.4262   -2.4295    1.6719 H   0  0  0  0  0  0  0  0  0  0  0  0
   -4.0272   -3.1319    0.0852 H   0  0  0  0  0  0  0  0  0  0  0  0
   -2.3269   -2.4324    1.2014 C   0  0  0  0  0  0  0  0  0  0  0  0
   -1.4113   -3.0494    1.7221 O   0  0  0  0  0  0  0  0  0  0  0  0
   -2.1154   -1.1707    0.6855 N   0  0  0  0  0  0  0  0  0  0  0  0
   -2.9281   -0.6621    0.3416 H   0  0  0  0  0  0  0  0  0  0  0  0
   -0.8520   -0.4258    0.7710 C   0  0  1  0  0  0  0  0  0  0  0  0
   -0.2305   -0.8821    1.5451 H   0  0  0  0  0  0  0  0  0  0  0  0
   -0.1415   -0.5187   -0.5929 C   0  0  0  0  0  0  0  0  0  0  0  0
   -0.1955   -1.5545   -0.9452 H   0  0  0  0  0  0  0  0  0  0  0  0
   -0.6769    0.1008   -1.3205 H   0  0  0  0  0  0  0  0  0  0  0  0
    1.3415   -0.1057   -0.5728 C   0  0  0  0  0  0  0  0  0  0  0  0
    1.7296   -0.1981   -1.5928 H   0  0  0  0  0  0  0  0  0  0  0  0
    1.4240    0.9478   -0.2859 H   0  0  0  0  0  0  0  0  0  0  0  0
    2.2074   -0.9580    0.3672 C   0  0  0  0  0  0  0  0  0  0  0  0
    1.9357   -0.7717    1.4096 H   0  0  0  0  0  0  0  0  0  0  0  0
    2.0422   -2.0202    0.1568 H   0  0  0  0  0  0  0  0  0  0  0  0
    3.6859   -0.6305    0.1779 C   0  0  0  0  0  0  0  0  0  0  0  0
    3.9824   -0.8150   -0.8607 H   0  0  0  0  0  0  0  0  0  0  0  0
    3.8673    0.4268    0.4008 H   0  0  0  0  0  0  0  0  0  0  0  0
    4.4722   -1.4795    1.0774 N   0  0  0  0  0  0  0  0  0  0  0  0
    5.4706   -1.2902    0.9901 H   0  0  0  0  0  0  0  0  0  0  0  0
    4.1638   -1.3809    2.0443 H   0  0  0  0  0  0  0  0  0  0  0  0
   -1.0883    1.0411    1.1772 C   0  0  0  0  0  0  0  0  0  0  0  0
   -2.0165    1.6712    0.6835 O   0  0  0  0  0  0  0  0  0  0  0  0
   -0.2935    1.6375    2.1386 N   0  0  0  0  0  0  0  0  0  0  0  0
    0.4297    1.0679    2.5688 H   0  0  0  0  0  0  0  0  0  0  0  0
   -0.4943    3.0017    2.6106 C   0  0  0  0  0  0  0  0  0  0  0  0
   -1.4880    3.1105    3.0577 H   0  0  0  0  0  0  0  0  0  0  0  0
    0.2549    3.2542    3.3671 H   0  0  0  0  0  0  0  0  0  0  0  0
   -0.4010    3.7108    1.7815 H   0  0  0  0  0  0  0  0  0  0  0  0
  1  2  1  0  0  0  0
  2  3  1  0  0  0  0
  2  4  1  0  0  0  0
  2  5  1  0  0  0  0
  5  6  2  0  0  0  0
  5  7  1  0  0  0  0
  7  8  1  0  0  0  0
  7  9  1  0  0  0  0
  9 10  1  0  0  0  0
  9 11  1  0  0  0  0
  9 26  1  0  0  0  0
 11 12  1  0  0  0  0
 11 13  1  0  0  0  0
 11 14  1  0  0  0  0
 14 15  1  0  0  0  0
 14 16  1  0  0  0  0
 14 17  1  0  0  0  0
 17 18  1  0  0  0  0
 17 19  1  0  0  0  0
 17 20  1  0  0  0  0
 20 21  1  0  0  0  0
 20 22  1  0  0  0  0
 20 23  1  0  0  0  0
 23 24  1  0  0  0  0
 23 25  1  0  0  0  0
 26 27  2  0  0  0  0
 26 28  1  0  0  0  0
 28 29  1  0  0  0  0
 28 30  1  0  0  0  0
 30 31  1  0  0  0  0
 30 32  1  0  0  0  0
 30 33  1  0  0  0  0
M  END
$$$$

  -OEChem-03222214063D

 33 32  0     1  0  0  0  0  0999 V2000
   -3.6639   -4.0445    1.6244 H   0  0  0  0  0  0  0  0  0  0  0  0
   -3.6817   -3.0505    1.1686 C   0  0  0  0  0  0  0  0  0  0  0  0
   -4.3859   -2.4229    1.7198 H   0  0  0  0  0  0  0  0  0  0  0  0
   -4.0198   -3.1442    0.1339 H   0  0  0  0  0  0  0  0  0  0  0  0
   -2.2964   -2.4331    1.2075 C   0  0  0  0  0  0  0  0  0  0  0  0
   -1.3679   -3.0525    1.7025 O   0  0  0  0  0  0  0  0  0  0  0  0
   -2.0955   -1.1696    0.6910 N   0  0  0  0  0  0  0  0  0  0  0  0
   -2.9150   -0.6555    0.3719 H   0  0  0  0  0  0  0  0  0  0  0  0
   -0.8265   -0.4315    0.7496 C   0  0  1  0  0  0  0  0  0  0  0  0
   -0.1784   -0.8886    1.5023 H   0  0  0  0  0  0  0  0  0  0  0  0
   -0.1539   -0.5190   -0.6332 C   0  0  0  0  0  0  0  0  0  0  0  0
   -0.2314   -1.5435   -1.0126 H   0  0  0  0  0  0  0  0  0  0  0  0
   -0.6966    0.1272   -1.3317 H   0  0  0  0  0  0  0  0  0  0  0  0
    1.3288   -0.1106   -0.6191 C   0  0  0  0  0  0  0  0  0  0  0  0
    1.6490    0.0509   -1.6537 H   0  0  0  0  0  0  0  0  0  0  0  0
    1.4557    0.8371   -0.0865 H   0  0  0  0  0  0  0  0  0  0  0  0
    2.2238   -1.1920    0.0039 C   0  0  0  0  0  0  0  0  0  0  0  0
    1.9388   -1.3702    1.0444 H   0  0  0  0  0  0  0  0  0  0  0  0
    2.0968   -2.1316   -0.5441 H   0  0  0  0  0  0  0  0  0  0  0  0
    3.6909   -0.7747   -0.0459 C   0  0  0  0  0  0  0  0  0  0  0  0
    3.9936   -0.5821   -1.0811 H   0  0  0  0  0  0  0  0  0  0  0  0
    3.8387    0.1465    0.5283 H   0  0  0  0  0  0  0  0  0  0  0  0
    4.5038   -1.8569    0.5164 N   0  0  0  0  0  0  0  0  0  0  0  0
    5.4938   -1.6119    0.5278 H   0  0  0  0  0  0  0  0  0  0  0  0
    4.1800   -2.1171    1.4482 H   0  0  0  0  0  0  0  0  0  0  0  0
   -1.0588    1.0332    1.1694 C   0  0  0  0  0  0  0  0  0  0  0  0
   -1.9960    1.6644    0.6941 O   0  0  0  0  0  0  0  0  0  0  0  0
   -0.2468    1.6295    2.1167 N   0  0  0  0  0  0  0  0  0  0  0  0
    0.4819    1.0594    2.5365 H   0  0  0  0  0  0  0  0  0  0  0  0
   -0.4404    2.9935    2.5928 C   0  0  0  0  0  0  0  0  0  0  0  0
   -1.4269    3.1017    3.0558 H   0  0  0  0  0  0  0  0  0  0  0  0
    0.3208    3.2460    3.3374 H   0  0  0  0  0  0  0  0  0  0  0  0
   -0.3607    3.7032    1.7627 H   0  0  0  0  0  0  0  0  0  0  0  0
  1  2  1  0  0  0  0
  2  3  1  0  0  0  0
  2  4  1  0  0  0  0
  2  5  1  0  0  0  0
  5  6  2  0  0  0  0
  5  7  1  0  0  0  0
  7  8  1  0  0  0  0
  7  9  1  0  0  0  0
  9 10  1  0  0  0  0
  9 11  1  0  0  0  0
  9 26  1  0  0  0  0
 11 12  1  0  0  0  0
 11 13  1  0  0  0  0
 11 14  1  0  0  0  0
 14 15  1  0  0  0  0
 14 16  1  0  0  0  0
 14 17  1  0  0  0  0
 17 18  1  0  0  0  0
 17 19  1  0  0  0  0
 17 20  1  0  0  0  0
 20 21  1  0  0  0  0
 20 22  1  0  0  0  0
 20 23  1  0  0  0  0
 23 24  1  0  0  0  0
 23 25  1  0  0  0  0
 26 27  2  0  0  0  0
 26 28  1  0  0  0  0
 28 29  1  0  0  0  0
 28 30  1  0  0  0  0
 30 31  1  0  0  0  0
 30 32  1  0  0  0  0
 30 33  1  0  0  0  0
M  END
$$$$

  -OEChem-03222214063D

 33 32  0     1  0  0  0  0  0999 V2000
   -3.6261   -4.0522    1.6349 H   0  0  0  0  0  0  0  0  0  0  0  0
   -3.6500   -3.0584    1.1789 C   0  0  0  0  0  0  0  0  0  0  0  0
   -4.3561   -2.4337    1.7312 H   0  0  0  0  0  0  0  0  0  0  0  0
   -3.9900   -3.1537    0.1449 H   0  0  0  0  0  0  0  0  0  0  0  0
   -2.2675   -2.4340    1.2135 C   0  0  0  0  0  0  0  0  0  0  0  0
   -1.3327   -3.0498    1.7015 O   0  0  0  0  0  0  0  0  0  0  0  0
   -2.0758   -1.1688    0.6984 N   0  0  0  0  0  0  0  0  0  0  0  0
   -2.8990   -0.6588    0.3825 H   0  0  0  0  0  0  0  0  0  0  0  0
   -0.8073   -0.4292    0.7397 C   0  0  1  0  0  0  0  0  0  0  0  0
   -0.1365   -0.8877    1.4732 H   0  0  0  0  0  0  0  0  0  0  0  0
   -0.1620   -0.5149   -0.6549 C   0  0  0  0  0  0  0  0  0  0  0  0
   -0.2542   -1.5337   -1.0467 H   0  0  0  0  0  0  0  0  0  0  0  0
   -0.7127    0.1432   -1.3358 H   0  0  0  0  0  0  0  0  0  0  0  0
    1.3198   -0.1031   -0.6469 C   0  0  0  0  0  0  0  0  0  0  0  0
    1.5705    0.3097   -1.6299 H   0  0  0  0  0  0  0  0  0  0  0  0
    1.5027    0.6823    0.0925 H   0  0  0  0  0  0  0  0  0  0  0  0
    2.2283   -1.3103   -0.3837 C   0  0  0  0  0  0  0  0  0  0  0  0
    1.9610   -1.7736    0.5714 H   0  0  0  0  0  0  0  0  0  0  0  0
    2.0845   -2.0569   -1.1719 H   0  0  0  0  0  0  0  0  0  0  0  0
    3.6948   -0.8909   -0.3494 C   0  0  0  0  0  0  0  0  0  0  0  0
    3.9741   -0.4193   -1.2981 H   0  0  0  0  0  0  0  0  0  0  0  0
    3.8591   -0.1641    0.4536 H   0  0  0  0  0  0  0  0  0  0  0  0
    4.5150   -2.0845   -0.1260 N   0  0  0  0  0  0  0  0  0  0  0  0
    5.5062   -1.8504   -0.0742 H   0  0  0  0  0  0  0  0  0  0  0  0
    4.2138   -2.5878    0.7090 H   0  0  0  0  0  0  0  0  0  0  0  0
   -1.0432    1.0331    1.1690 C   0  0  0  0  0  0  0  0  0  0  0  0
   -1.9890    1.6610    0.7064 O   0  0  0  0  0  0  0  0  0  0  0  0
   -0.2227    1.6323    2.1074 N   0  0  0  0  0  0  0  0  0  0  0  0
    0.5087    1.0630    2.5237 H   0  0  0  0  0  0  0  0  0  0  0  0
   -0.4252    2.9907    2.5960 C   0  0  0  0  0  0  0  0  0  0  0  0
   -1.4130    3.0891    3.0585 H   0  0  0  0  0  0  0  0  0  0  0  0
    0.3332    3.2406    3.3441 H   0  0  0  0  0  0  0  0  0  0  0  0
   -0.3486    3.7085    1.7726 H   0  0  0  0  0  0  0  0  0  0  0  0
  1  2  1  0  0  0  0
  2  3  1  0  0  0  0
  2  4  1  0  0  0  0
  2  5  1  0  0  0  0
  5  6  2  0  0  0  0
  5  7  1  0  0  0  0
  7  8  1  0  0  0  0
  7  9  1  0  0  0  0
  9 10  1  0  0  0  0
  9 11  1  0  0  0  0
  9 26  1  0  0  0  0
 11 12  1  0  0  0  0
 11 13  1  0  0  0  0
 11 14  1  0  0  0  0
 14 15  1  0  0  0  0
 14 16  1  0  0  0  0
 14 17  1  0  0  0  0
 17 18  1  0  0  0  0
 17 19  1  0  0  0  0
 17 20  1  0  0  0  0
 20 21  1  0  0  0  0
 20 22  1  0  0  0  0
 20 23  1  0  0  0  0
 23 24  1  0  0  0  0
 23 25  1  0  0  0  0
 26 27  2  0  0  0  0
 26 28  1  0  0  0  0
 28 29  1  0  0  0  0
 28 30  1  0  0  0  0
 30 31  1  0  0  0  0
 30 32  1  0  0  0  0
 30 33  1  0  0  0  0
M  END
$$$$

  -OEChem-03222214063D

 33 32  0     1  0  0  0  0  0999 V2000
   -3.6318   -4.0491    1.6314 H   0  0  0  0  0  0  0  0  0  0  0  0
   -3.6529   -3.0547    1.1768 C   0  0  0  0  0  0  0  0  0  0  0  0
   -4.3544   -2.4278    1.7325 H   0  0  0  0  0  0  0  0  0  0  0  0
   -3.9970   -3.1472    0.1438 H   0  0  0  0  0  0  0  0  0  0  0  0
   -2.2682   -2.4357    1.2074 C   0  0  0  0  0  0  0  0  0  0  0  0
   -1.3335   -3.0556    1.6904 O   0  0  0  0  0  0  0  0  0  0  0  0
   -2.0742   -1.1701    0.6943 N   0  0  0  0  0  0  0  0  0  0  0  0
   -2.8971   -0.6562    0.3836 H   0  0  0  0  0  0  0  0  0  0  0  0
   -0.8050   -0.4319    0.7387 C   0  0  1  0  0  0  0  0  0  0  0  0
   -0.1341   -0.8932    1.4708 H   0  0  0  0  0  0  0  0  0  0  0  0
   -0.1582   -0.5140   -0.6549 C   0  0  0  0  0  0  0  0  0  0  0  0
   -0.2549   -1.5328   -1.0459 H   0  0  0  0  0  0  0  0  0  0  0  0
   -0.7075    0.1434   -1.3379 H   0  0  0  0  0  0  0  0  0  0  0  0
    1.3256   -0.1026   -0.6410 C   0  0  0  0  0  0  0  0  0  0  0  0
    1.5152    0.5539   -1.4968 H   0  0  0  0  0  0  0  0  0  0  0  0
    1.5677    0.4625    0.2640 H   0  0  0  0  0  0  0  0  0  0  0  0
    2.2371   -1.3302   -0.7528 C   0  0  0  0  0  0  0  0  0  0  0  0
    2.0246   -2.0200    0.0707 H   0  0  0  0  0  0  0  0  0  0  0  0
    2.0351   -1.8540   -1.6932 H   0  0  0  0  0  0  0  0  0  0  0  0
    3.7074   -0.9265   -0.7083 C   0  0  0  0  0  0  0  0  0  0  0  0
    3.9312   -0.2274   -1.5217 H   0  0  0  0  0  0  0  0  0  0  0  0
    3.9315   -0.4274    0.2409 H   0  0  0  0  0  0  0  0  0  0  0  0
    4.5247   -2.1349   -0.8494 N   0  0  0  0  0  0  0  0  0  0  0  0
    5.5202   -1.9182   -0.8031 H   0  0  0  0  0  0  0  0  0  0  0  0
    4.2704   -2.8343   -0.1513 H   0  0  0  0  0  0  0  0  0  0  0  0
   -1.0422    1.0300    1.1693 C   0  0  0  0  0  0  0  0  0  0  0  0
   -1.9897    1.6557    0.7073 O   0  0  0  0  0  0  0  0  0  0  0  0
   -0.2254    1.6307    2.1099 N   0  0  0  0  0  0  0  0  0  0  0  0
    0.5034    1.0621    2.5316 H   0  0  0  0  0  0  0  0  0  0  0  0
   -0.4342    2.9879    2.5990 C   0  0  0  0  0  0  0  0  0  0  0  0
   -1.4205    3.0798    3.0661 H   0  0  0  0  0  0  0  0  0  0  0  0
    0.3261    3.2433    3.3433 H   0  0  0  0  0  0  0  0  0  0  0  0
   -0.3662    3.7061    1.7751 H   0  0  0  0  0  0  0  0  0  0  0  0
  1  2  1  0  0  0  0
  2  3  1  0  0  0  0
  2  4  1  0  0  0  0
  2  5  1  0  0  0  0
  5  6  2  0  0  0  0
  5  7  1  0  0  0  0
  7  8  1  0  0  0  0
  7  9  1  0  0  0  0
  9 10  1  0  0  0  0
  9 11  1  0  0  0  0
  9 26  1  0  0  0  0
 11 12  1  0  0  0  0
 11 13  1  0  0  0  0
 11 14  1  0  0  0  0
 14 15  1  0  0  0  0
 14 16  1  0  0  0  0
 14 17  1  0  0  0  0
 17 18  1  0  0  0  0
 17 19  1  0  0  0  0
 17 20  1  0  0  0  0
 20 21  1  0  0  0  0
 20 22  1  0  0  0  0
 20 23  1  0  0  0  0
 23 24  1  0  0  0  0
 23 25  1  0  0  0  0
 26 27  2  0  0  0  0
 26 28  1  0  0  0  0
 28 29  1  0  0  0  0
 28 30  1  0  0  0  0
 30 31  1  0  0  0  0
 30 32  1  0  0  0  0
 30 33  1  0  0  0  0
M  END
$$$$

  -OEChem-03222214063D

 33 32  0     1  0  0  0  0  0999 V2000
   -3.6677   -4.0419    1.6305 H   0  0  0  0  0  0  0  0  0  0  0  0
   -3.6812   -3.0494    1.1715 C   0  0  0  0  0  0  0  0  0  0  0  0
   -4.3763   -2.4145    1.7260 H   0  0  0  0  0  0  0  0  0  0  0  0
   -4.0278   -3.1434    0.1396 H   0  0  0  0  0  0  0  0  0  0  0  0
   -2.2914   -2.4417    1.1981 C   0  0  0  0  0  0  0  0  0  0  0  0
   -1.3612   -3.0683    1.6812 O   0  0  0  0  0  0  0  0  0  0  0  0
   -2.0890   -1.1762    0.6876 N   0  0  0  0  0  0  0  0  0  0  0  0
   -2.9085   -0.6578    0.3756 H   0  0  0  0  0  0  0  0  0  0  0  0
   -0.8168   -0.4432    0.7395 C   0  0  1  0  0  0  0  0  0  0  0  0
   -0.1538   -0.9105    1.4748 H   0  0  0  0  0  0  0  0  0  0  0  0
   -0.1592   -0.5194   -0.6490 C   0  0  0  0  0  0  0  0  0  0  0  0
   -0.2505   -1.5445   -1.0245 H   0  0  0  0  0  0  0  0  0  0  0  0
   -0.7025    0.1257   -1.3480 H   0  0  0  0  0  0  0  0  0  0  0  0
    1.3271   -0.1113   -0.6215 C   0  0  0  0  0  0  0  0  0  0  0  0
    1.4698    0.7585   -1.2714 H   0  0  0  0  0  0  0  0  0  0  0  0
    1.6297    0.1826    0.3883 H   0  0  0  0  0  0  0  0  0  0  0  0
    2.2252   -1.2582   -1.1002 C   0  0  0  0  0  0  0  0  0  0  0  0
    2.0785   -2.1315   -0.4559 H   0  0  0  0  0  0  0  0  0  0  0  0
    1.9467   -1.5400   -2.1211 H   0  0  0  0  0  0  0  0  0  0  0  0
    3.6955   -0.8512   -1.0756 C   0  0  0  0  0  0  0  0  0  0  0  0
    3.8547    0.0234   -1.7161 H   0  0  0  0  0  0  0  0  0  0  0  0
    3.9946   -0.5858   -0.0555 H   0  0  0  0  0  0  0  0  0  0  0  0
    4.4978   -1.9777   -1.5610 N   0  0  0  0  0  0  0  0  0  0  0  0
    5.4935   -1.7569   -1.5493 H   0  0  0  0  0  0  0  0  0  0  0  0
    4.3053   -2.8238   -1.0242 H   0  0  0  0  0  0  0  0  0  0  0  0
   -1.0439    1.0196    1.1703 C   0  0  0  0  0  0  0  0  0  0  0  0
   -1.9836    1.6541    0.7043 O   0  0  0  0  0  0  0  0  0  0  0  0
   -0.2256    1.6121    2.1146 N   0  0  0  0  0  0  0  0  0  0  0  0
    0.5008    1.0391    2.5347 H   0  0  0  0  0  0  0  0  0  0  0  0
   -0.4132    2.9772    2.5902 C   0  0  0  0  0  0  0  0  0  0  0  0
   -1.3989    3.0899    3.0538 H   0  0  0  0  0  0  0  0  0  0  0  0
    0.3493    3.2277    3.3337 H   0  0  0  0  0  0  0  0  0  0  0  0
   -0.3311    3.6857    1.7592 H   0  0  0  0  0  0  0  0  0  0  0  0
  1  2  1  0  0  0  0
  2  3  1  0  0  0  0
  2  4  1  0  0  0  0
  2  5  1  0  0  0  0
  5  6  2  0  0  0  0
  5  7  1  0  0  0  0
  7  8  1  0  0  0  0
  7  9  1  0  0  0  0
  9 10  1  0  0  0  0
  9 11  1  0  0  0  0
  9 26  1  0  0  0  0
 11 12  1  0  0  0  0
 11 13  1  0  0  0  0
 11 14  1  0  0  0  0
 14 15  1  0  0  0  0
 14 16  1  0  0  0  0
 14 17  1  0  0  0  0
 17 18  1  0  0  0  0
 17 19  1  0  0  0  0
 17 20  1  0  0  0  0
 20 21  1  0  0  0  0
 20 22  1  0  0  0  0
 20 23  1  0  0  0  0
 23 24  1  0  0  0  0
 23 25  1  0  0  0  0
 26 27  2  0  0  0  0
 26 28  1  0  0  0  0
 28 29  1  0  0  0  0
 28 30  1  0  0  0  0
 30 31  1  0  0  0  0
 30 32  1  0  0  0  0
 30 33  1  0  0  0  0
M  END
$$$$

  -OEChem-03222214063D

 33 32  0     1  0  0  0  0  0999 V2000
   -3.6979   -4.0327    1.6292 H   0  0  0  0  0  0  0  0  0  0  0  0
   -3.7048   -3.0404    1.1696 C   0  0  0  0  0  0  0  0  0  0  0  0
   -4.3973   -2.4012    1.7225 H   0  0  0  0  0  0  0  0  0  0  0  0
   -4.0492   -3.1326    0.1367 H   0  0  0  0  0  0  0  0  0  0  0  0
   -2.3115   -2.4414    1.1979 C   0  0  0  0  0  0  0  0  0  0  0  0
   -1.3857   -3.0734    1.6821 O   0  0  0  0  0  0  0  0  0  0  0  0
   -2.1011   -1.1781    0.6859 N   0  0  0  0  0  0  0  0  0  0  0  0
   -2.9174   -0.6558    0.3715 H   0  0  0  0  0  0  0  0  0  0  0  0
   -0.8254   -0.4516    0.7371 C   0  0  1  0  0  0  0  0  0  0  0  0
   -0.1697   -0.9227    1.4767 H   0  0  0  0  0  0  0  0  0  0  0  0
   -0.1636   -0.5307   -0.6490 C   0  0  0  0  0  0  0  0  0  0  0  0
   -0.2464   -1.5640   -1.0031 H   0  0  0  0  0  0  0  0  0  0  0  0
   -0.7031    0.0991   -1.3645 H   0  0  0  0  0  0  0  0  0  0  0  0
    1.3230   -0.1278   -0.6139 C   0  0  0  0  0  0  0  0  0  0  0  0
    1.4311    0.8868   -1.0122 H   0  0  0  0  0  0  0  0  0  0  0  0
    1.6902   -0.1183    0.4172 H   0  0  0  0  0  0  0  0  0  0  0  0
    2.1835   -1.1073   -1.4212 C   0  0  0  0  0  0  0  0  0  0  0  0
    2.0913   -2.1132   -0.9984 H   0  0  0  0  0  0  0  0  0  0  0  0
    1.8267   -1.1406   -2.4561 H   0  0  0  0  0  0  0  0  0  0  0  0
    3.6496   -0.6844   -1.4083 C   0  0  0  0  0  0  0  0  0  0  0  0
    3.7542    0.3212   -1.8305 H   0  0  0  0  0  0  0  0  0  0  0  0
    4.0251   -0.6626   -0.3792 H   0  0  0  0  0  0  0  0  0  0  0  0
    4.4194   -1.6433   -2.2061 N   0  0  0  0  0  0  0  0  0  0  0  0
    5.4106   -1.4030   -2.2197 H   0  0  0  0  0  0  0  0  0  0  0  0
    4.2801   -2.5961   -1.8688 H   0  0  0  0  0  0  0  0  0  0  0  0
   -1.0387    1.0136    1.1645 C   0  0  0  0  0  0  0  0  0  0  0  0
   -1.9742    1.6549    0.6998 O   0  0  0  0  0  0  0  0  0  0  0  0
   -0.2132    1.5992    2.1069 N   0  0  0  0  0  0  0  0  0  0  0  0
    0.5101    1.0207    2.5245 H   0  0  0  0  0  0  0  0  0  0  0  0
   -0.3881    2.9659    2.5828 C   0  0  0  0  0  0  0  0  0  0  0  0
   -1.3723    3.0868    3.0477 H   0  0  0  0  0  0  0  0  0  0  0  0
    0.3778    3.2094    3.3253 H   0  0  0  0  0  0  0  0  0  0  0  0
   -0.3012    3.6740    1.7520 H   0  0  0  0  0  0  0  0  0  0  0  0
  1  2  1  0  0  0  0
  2  3  1  0  0  0  0
  2  4  1  0  0  0  0
  2  5  1  0  0  0  0
  5  6  2  0  0  0  0
  5  7  1  0  0  0  0
  7  8  1  0  0  0  0
  7  9  1  0  0  0  0
  9 10  1  0  0  0  0
  9 11  1  0  0  0  0
  9 26  1  0  0  0  0
 11 12  1  0  0  0  0
 11 13  1  0  0  0  0
 11 14  1  0  0  0  0
 14 15  1  0  0  0  0
 14 16  1  0  0  0  0
 14 17  1  0  0  0  0
 17 18  1  0  0  0  0
 17 19  1  0  0  0  0
 17 20  1  0  0  0  0
 20 21  1  0  0  0  0
 20 22  1  0  0  0  0
 20 23  1  0  0  0  0
 23 24  1  0  0  0  0
 23 25  1  0  0  0  0
 26 27  2  0  0  0  0
 26 28  1  0  0  0  0
 28 29  1  0  0  0  0
 28 30  1  0  0  0  0
 30 31  1  0  0  0  0
 30 32  1  0  0  0  0
 30 33  1  0  0  0  0
M  END
$$$$

  -OEChem-03222214063D

 33 32  0     1  0  0  0  0  0999 V2000
   -3.7094   -4.0278    1.6326 H   0  0  0  0  0  0  0  0  0  0  0  0
   -3.7135   -3.0364    1.1708 C   0  0  0  0  0  0  0  0  0  0  0  0
   -4.4037   -2.3938    1.7229 H   0  0  0  0  0  0  0  0  0  0  0  0
   -4.0599   -3.1298    0.1387 H   0  0  0  0  0  0  0  0  0  0  0  0
   -2.3178   -2.4417    1.1965 C   0  0  0  0  0  0  0  0  0  0  0  0
   -1.3924   -3.0777    1.6763 O   0  0  0  0  0  0  0  0  0  0  0  0
   -2.1036   -1.1794    0.6838 N   0  0  0  0  0  0  0  0  0  0  0  0
   -2.9184   -0.6544    0.3706 H   0  0  0  0  0  0  0  0  0  0  0  0
   -0.8261   -0.4562    0.7338 C   0  0  1  0  0  0  0  0  0  0  0  0
   -0.1715   -0.9277    1.4739 H   0  0  0  0  0  0  0  0  0  0  0  0
   -0.1662   -0.5374   -0.6524 C   0  0  0  0  0  0  0  0  0  0  0  0
   -0.2429   -1.5741   -0.9981 H   0  0  0  0  0  0  0  0  0  0  0  0
   -0.7046    0.0887   -1.3722 H   0  0  0  0  0  0  0  0  0  0  0  0
    1.3184   -0.1380   -0.6129 C   0  0  0  0  0  0  0  0  0  0  0  0
    1.4079    0.9458   -0.7443 H   0  0  0  0  0  0  0  0  0  0  0  0
    1.7498   -0.3948    0.3601 H   0  0  0  0  0  0  0  0  0  0  0  0
    2.1135   -0.8758   -1.6962 C   0  0  0  0  0  0  0  0  0  0  0  0
    2.0485   -1.9563   -1.5313 H   0  0  0  0  0  0  0  0  0  0  0  0
    1.6827   -0.6566   -2.6789 H   0  0  0  0  0  0  0  0  0  0  0  0
    3.5782   -0.4487   -1.6817 C   0  0  0  0  0  0  0  0  0  0  0  0
    3.6566    0.6308   -1.8525 H   0  0  0  0  0  0  0  0  0  0  0  0
    4.0249   -0.6727   -0.7066 H   0  0  0  0  0  0  0  0  0  0  0  0
    4.2869   -1.1740   -2.7401 N   0  0  0  0  0  0  0  0  0  0  0  0
    5.2751   -0.9221   -2.7642 H   0  0  0  0  0  0  0  0  0  0  0  0
    4.1703   -2.1821   -2.6347 H   0  0  0  0  0  0  0  0  0  0  0  0
   -1.0336    1.0101    1.1601 C   0  0  0  0  0  0  0  0  0  0  0  0
   -1.9688    1.6537    0.6982 O   0  0  0  0  0  0  0  0  0  0  0  0
   -0.2049    1.5929    2.1012 N   0  0  0  0  0  0  0  0  0  0  0  0
    0.5193    1.0126    2.5145 H   0  0  0  0  0  0  0  0  0  0  0  0
   -0.3722    2.9605    2.5770 C   0  0  0  0  0  0  0  0  0  0  0  0
   -1.3562    3.0883    3.0403 H   0  0  0  0  0  0  0  0  0  0  0  0
    0.3939    3.1978    3.3213 H   0  0  0  0  0  0  0  0  0  0  0  0
   -0.2785    3.6682    1.7466 H   0  0  0  0  0  0  0  0  0  0  0  0
  1  2  1  0  0  0  0
  2  3  1  0  0  0  0
  2  4  1  0  0  0  0
  2  5  1  0  0  0  0
  5  6  2  0  0  0  0
  5  7  1  0  0  0  0
  7  8  1  0  0  0  0
  7  9  1  0  0  0  0
  9 10  1  0  0  0  0
  9 11  1  0  0  0  0
  9 26  1  0  0  0  0
 11 12  1  0  0  0  0
 11 13  1  0  0  0  0
 11 14  1  0  0  0  0
 14 15  1  0  0  0  0
 14 16  1  0  0  0  0
 14 17  1  0  0  0  0
 17 18  1  0  0  0  0
 17 19  1  0  0  0  0
 17 20  1  0  0  0  0
 20 21  1  0  0  0  0
 20 22  1  0  0  0  0
 20 23  1  0  0  0  0
 23 24  1  0  0  0  0
 23 25  1  0  0  0  0
 26 27  2  0  0  0  0
 26 28  1  0  0  0  0
 28 29  1  0  0  0  0
 28 30  1  0  0  0  0
 30 31  1  0  0  0  0
 30 32  1  0  0  0  0
 30 33  1  0  0  0  0
M  END
$$$$

  -OEChem-03222214063D

 33 32  0     1  0  0  0  0  0999 V2000
   -3.7065   -4.0245    1.6371 H   0  0  0  0  0  0  0  0  0  0  0  0
   -3.7116   -3.0332    1.1753 C   0  0  0  0  0  0  0  0  0  0  0  0
   -4.3976   -2.3893    1.7309 H   0  0  0  0  0  0  0  0  0  0  0  0
   -4.0635   -3.1263    0.1451 H   0  0  0  0  0  0  0  0  0  0  0  0
   -2.3151   -2.4408    1.1936 C   0  0  0  0  0  0  0  0  0  0  0  0
   -1.3878   -3.0788    1.6671 O   0  0  0  0  0  0  0  0  0  0  0  0
   -2.1023   -1.1779    0.6817 N   0  0  0  0  0  0  0  0  0  0  0  0
   -2.9183   -0.6511    0.3746 H   0  0  0  0  0  0  0  0  0  0  0  0
   -0.8237   -0.4566    0.7278 C   0  0  1  0  0  0  0  0  0  0  0  0
   -0.1656   -0.9278    1.4651 H   0  0  0  0  0  0  0  0  0  0  0  0
   -0.1676   -0.5403   -0.6601 C   0  0  0  0  0  0  0  0  0  0  0  0
   -0.2427   -1.5743   -1.0139 H   0  0  0  0  0  0  0  0  0  0  0  0
   -0.7054    0.0931   -1.3739 H   0  0  0  0  0  0  0  0  0  0  0  0
    1.3150   -0.1429   -0.6168 C   0  0  0  0  0  0  0  0  0  0  0  0
    1.4030    0.9414   -0.4899 H   0  0  0  0  0  0  0  0  0  0  0  0
    1.8024   -0.6254    0.2370 H   0  0  0  0  0  0  0  0  0  0  0  0
    2.0269   -0.5804   -1.9016 C   0  0  0  0  0  0  0  0  0  0  0  0
    1.9580   -1.6677   -2.0103 H   0  0  0  0  0  0  0  0  0  0  0  0
    1.5350   -0.1222   -2.7661 H   0  0  0  0  0  0  0  0  0  0  0  0
    3.4951   -0.1659   -1.8800 C   0  0  0  0  0  0  0  0  0  0  0  0
    3.5778    0.9220   -1.7779 H   0  0  0  0  0  0  0  0  0  0  0  0
    4.0030   -0.6277   -1.0262 H   0  0  0  0  0  0  0  0  0  0  0  0
    4.1199   -0.5982   -3.1334 N   0  0  0  0  0  0  0  0  0  0  0  0
    5.1077   -0.3458   -3.1618 H   0  0  0  0  0  0  0  0  0  0  0  0
    3.9958   -1.6002   -3.2783 H   0  0  0  0  0  0  0  0  0  0  0  0
   -1.0321    1.0088    1.1575 C   0  0  0  0  0  0  0  0  0  0  0  0
   -1.9711    1.6513    0.7016 O   0  0  0  0  0  0  0  0  0  0  0  0
   -0.2013    1.5910    2.0971 N   0  0  0  0  0  0  0  0  0  0  0  0
    0.5285    1.0128    2.5036 H   0  0  0  0  0  0  0  0  0  0  0  0
   -0.3705    2.9571    2.5767 C   0  0  0  0  0  0  0  0  0  0  0  0
   -1.3535    3.0813    3.0432 H   0  0  0  0  0  0  0  0  0  0  0  0
    0.3972    3.1957    3.3190 H   0  0  0  0  0  0  0  0  0  0  0  0
   -0.2819    3.6665    1.7472 H   0  0  0  0  0  0  0  0  0  0  0  0
  1  2  1  0  0  0  0
  2  3  1  0  0  0  0
  2  4  1  0  0  0  0
  2  5  1  0  0  0  0
  5  6  2  0  0  0  0
  5  7  1  0  0  0  0
  7  8  1  0  0  0  0
  7  9  1  0  0  0  0
  9 10  1  0  0  0  0
  9 11  1  0  0  0  0
  9 26  1  0  0  0  0
 11 12  1  0  0  0  0
 11 13  1  0  0  0  0
 11 14  1  0  0  0  0
 14 15  1  0  0  0  0
 14 16  1  0  0  0  0
 14 17  1  0  0  0  0
 17 18  1  0  0  0  0
 17 19  1  0  0  0  0
 17 20  1  0  0  0  0
 20 21  1  0  0  0  0
 20 22  1  0  0  0  0
 20 23  1  0  0  0  0
 23 24  1  0  0  0  0
 23 25  1  0  0  0  0
 26 27  2  0  0  0  0
 26 28  1  0  0  0  0
 28 29  1  0  0  0  0
 28 30  1  0  0  0  0
 30 31  1  0  0  0  0
 30 32  1  0  0  0  0
 30 33  1  0  0  0  0
M  END
$$$$

  -OEChem-03222214063D

 33 32  0     1  0  0  0  0  0999 V2000
   -3.7031   -4.0275    1.6607 H   0  0  0  0  0  0  0  0  0  0  0  0
   -3.7143   -3.0379    1.1951 C   0  0  0  0  0  0  0  0  0  0  0  0
   -4.3917   -2.3909    1.7579 H   0  0  0  0  0  0  0  0  0  0  0  0
   -4.0817   -3.1342    0.1706 H   0  0  0  0  0  0  0  0  0  0  0  0
   -2.3171   -2.4464    1.1900 C   0  0  0  0  0  0  0  0  0  0  0  0
   -1.3815   -3.0872    1.6433 O   0  0  0  0  0  0  0  0  0  0  0  0
   -2.1134   -1.1814    0.6793 N   0  0  0  0  0  0  0  0  0  0  0  0
   -2.9352   -0.6531    0.3903 H   0  0  0  0  0  0  0  0  0  0  0  0
   -0.8357   -0.4567    0.7104 C   0  0  1  0  0  0  0  0  0  0  0  0
   -0.1772   -0.9295    1.4464 H   0  0  0  0  0  0  0  0  0  0  0  0
   -0.1792   -0.5399   -0.6793 C   0  0  0  0  0  0  0  0  0  0  0  0
   -0.4639   -1.4831   -1.1581 H   0  0  0  0  0  0  0  0  0  0  0  0
   -0.5427    0.2745   -1.3158 H   0  0  0  0  0  0  0  0  0  0  0  0
    1.3506   -0.4986   -0.5783 C   0  0  0  0  0  0  0  0  0  0  0  0
    1.6635    0.4311   -0.0920 H   0  0  0  0  0  0  0  0  0  0  0  0
    1.7006   -1.3379    0.0324 H   0  0  0  0  0  0  0  0  0  0  0  0
    1.9813   -0.5824   -1.9720 C   0  0  0  0  0  0  0  0  0  0  0  0
    1.6606   -1.5051   -2.4663 H   0  0  0  0  0  0  0  0  0  0  0  0
    1.6410    0.2627   -2.5797 H   0  0  0  0  0  0  0  0  0  0  0  0
    3.5041   -0.5589   -1.8831 C   0  0  0  0  0  0  0  0  0  0  0  0
    3.8389    0.3623   -1.3934 H   0  0  0  0  0  0  0  0  0  0  0  0
    3.8581   -1.4086   -1.2889 H   0  0  0  0  0  0  0  0  0  0  0  0
    4.0512   -0.6293   -3.2409 N   0  0  0  0  0  0  0  0  0  0  0  0
    5.0711   -0.6286   -3.2299 H   0  0  0  0  0  0  0  0  0  0  0  0
    3.6934   -1.4448   -3.7382 H   0  0  0  0  0  0  0  0  0  0  0  0
   -1.0331    1.0080    1.1466 C   0  0  0  0  0  0  0  0  0  0  0  0
   -1.9843    1.6500    0.7161 O   0  0  0  0  0  0  0  0  0  0  0  0
   -0.1860    1.5849    2.0748 N   0  0  0  0  0  0  0  0  0  0  0  0
    0.5566    1.0073    2.4583 H   0  0  0  0  0  0  0  0  0  0  0  0
   -0.3456    2.9483    2.5648 C   0  0  0  0  0  0  0  0  0  0  0  0
   -1.3211    3.0715    3.0473 H   0  0  0  0  0  0  0  0  0  0  0  0
    0.4339    3.1807    3.2968 H   0  0  0  0  0  0  0  0  0  0  0  0
   -0.2678    3.6629    1.7386 H   0  0  0  0  0  0  0  0  0  0  0  0
  1  2  1  0  0  0  0
  2  3  1  0  0  0  0
  2  4  1  0  0  0  0
  2  5  1  0  0  0  0
  5  6  2  0  0  0  0
  5  7  1  0  0  0  0
  7  8  1  0  0  0  0
  7  9  1  0  0  0  0
  9 10  1  0  0  0  0
  9 11  1  0  0  0  0
  9 26  1  0  0  0  0
 11 12  1  0  0  0  0
 11 13  1  0  0  0  0
 11 14  1  0  0  0  0
 14 15  1  0  0  0  0
 14 16  1  0  0  0  0
 14 17  1  0  0  0  0
 17 18  1  0  0  0  0
 17 19  1  0  0  0  0
 17 20  1  0  0  0  0
 20 21  1  0  0  0  0
 20 22  1  0  0  0  0
 20 23  1  0  0  0  0
 23 24  1  0  0  0  0
 23 25  1  0  0  0  0
 26 27  2  0  0  0  0
 26 28  1  0  0  0  0
 28 29  1  0  0  0  0
 28 30  1  0  0  0  0
 30 31  1  0  0  0  0
 30 32  1  0  0  0  0
 30 33  1  0  0  0  0
M  END
$$$$

  -OEChem-03222214063D

 33 32  0     1  0  0  0  0  0999 V2000
   -3.6956   -4.0277    1.6694 H   0  0  0  0  0  0  0  0  0  0  0  0
   -3.7108   -3.0386    1.2032 C   0  0  0  0  0  0  0  0  0  0  0  0
   -4.3820   -2.3911    1.7725 H   0  0  0  0  0  0  0  0  0  0  0  0
   -4.0882   -3.1358    0.1824 H   0  0  0  0  0  0  0  0  0  0  0  0
   -2.3135   -2.4484    1.1843 C   0  0  0  0  0  0  0  0  0  0  0  0
   -1.3736   -3.0917    1.6251 O   0  0  0  0  0  0  0  0  0  0  0  0
   -2.1139   -1.1820    0.6753 N   0  0  0  0  0  0  0  0  0  0  0  0
   -2.9386   -0.6511    0.3992 H   0  0  0  0  0  0  0  0  0  0  0  0
   -0.8369   -0.4561    0.7052 C   0  0  1  0  0  0  0  0  0  0  0  0
   -0.1757   -0.9295    1.4387 H   0  0  0  0  0  0  0  0  0  0  0  0
   -0.1817   -0.5391   -0.6850 C   0  0  0  0  0  0  0  0  0  0  0  0
   -0.4671   -1.4745   -1.1782 H   0  0  0  0  0  0  0  0  0  0  0  0
   -0.5470    0.2841   -1.3091 H   0  0  0  0  0  0  0  0  0  0  0  0
    1.3490   -0.4966   -0.5846 C   0  0  0  0  0  0  0  0  0  0  0  0
    1.6547    0.2919    0.1108 H   0  0  0  0  0  0  0  0  0  0  0  0
    1.7154   -1.4524   -0.1945 H   0  0  0  0  0  0  0  0  0  0  0  0
    1.9704   -0.2090   -1.9552 C   0  0  0  0  0  0  0  0  0  0  0  0
    1.6431   -0.9685   -2.6726 H   0  0  0  0  0  0  0  0  0  0  0  0
    1.6293    0.7670   -2.3163 H   0  0  0  0  0  0  0  0  0  0  0  0
    3.4940   -0.2113   -1.8748 C   0  0  0  0  0  0  0  0  0  0  0  0
    3.8350    0.5449   -1.1590 H   0  0  0  0  0  0  0  0  0  0  0  0
    3.8500   -1.1893   -1.5326 H   0  0  0  0  0  0  0  0  0  0  0  0
    4.0298    0.0846   -3.2065 N   0  0  0  0  0  0  0  0  0  0  0  0
    5.0497    0.0773   -3.2058 H   0  0  0  0  0  0  0  0  0  0  0  0
    3.6618   -0.5642   -3.9022 H   0  0  0  0  0  0  0  0  0  0  0  0
   -1.0374    1.0075    1.1452 C   0  0  0  0  0  0  0  0  0  0  0  0
   -1.9942    1.6461    0.7215 O   0  0  0  0  0  0  0  0  0  0  0  0
   -0.1906    1.5850    2.0732 N   0  0  0  0  0  0  0  0  0  0  0  0
    0.5605    1.0121    2.4469 H   0  0  0  0  0  0  0  0  0  0  0  0
   -0.3507    2.9485    2.5627 C   0  0  0  0  0  0  0  0  0  0  0  0
   -1.3237    3.0693    3.0504 H   0  0  0  0  0  0  0  0  0  0  0  0
    0.4321    3.1841    3.2899 H   0  0  0  0  0  0  0  0  0  0  0  0
   -0.2801    3.6622    1.7352 H   0  0  0  0  0  0  0  0  0  0  0  0
  1  2  1  0  0  0  0
  2  3  1  0  0  0  0
  2  4  1  0  0  0  0
  2  5  1  0  0  0  0
  5  6  2  0  0  0  0
  5  7  1  0  0  0  0
  7  8  1  0  0  0  0
  7  9  1  0  0  0  0
  9 10  1  0  0  0  0
  9 11  1  0  0  0  0
  9 26  1  0  0  0  0
 11 12  1  0  0  0  0
 11 13  1  0  0  0  0
 11 14  1  0  0  0  0
 14 15  1  0  0  0  0
 14 16  1  0  0  0  0
 14 17  1  0  0  0  0
 17 18  1  0  0  0  0
 17 19  1  0  0  0  0
 17 20  1  0  0  0  0
 20 21  1  0  0  0  0
 20 22  1  0  0  0  0
 20 23  1  0  0  0  0
 23 24  1  0  0  0  0
 23 25  1  0  0  0  0
 26 27  2  0  0  0  0
 26 28  1  0  0  0  0
 28 29  1  0  0  0  0
 28 30  1  0  0  0  0
 30 31  1  0  0  0  0
 30 32  1  0  0  0  0
 30 33  1  0  0  0  0
M  END
$$$$

  -OEChem-03222214063D

 33 32  0     1  0  0  0  0  0999 V2000
   -3.6954   -4.0313    1.6656 H   0  0  0  0  0  0  0  0  0  0  0  0
   -3.7106   -3.0405    1.2031 C   0  0  0  0  0  0  0  0  0  0  0  0
   -4.3823   -2.3952    1.7744 H   0  0  0  0  0  0  0  0  0  0  0  0
   -4.0877   -3.1343    0.1819 H   0  0  0  0  0  0  0  0  0  0  0  0
   -2.3136   -2.4490    1.1866 C   0  0  0  0  0  0  0  0  0  0  0  0
   -1.3737   -3.0924    1.6274 O   0  0  0  0  0  0  0  0  0  0  0  0
   -2.1144   -1.1826    0.6773 N   0  0  0  0  0  0  0  0  0  0  0  0
   -2.9400   -0.6503    0.4069 H   0  0  0  0  0  0  0  0  0  0  0  0
   -0.8379   -0.4558    0.7075 C   0  0  1  0  0  0  0  0  0  0  0  0
   -0.1778   -0.9298    1.4412 H   0  0  0  0  0  0  0  0  0  0  0  0
   -0.1831   -0.5401   -0.6832 C   0  0  0  0  0  0  0  0  0  0  0  0
   -0.4701   -1.4722   -1.1814 H   0  0  0  0  0  0  0  0  0  0  0  0
   -0.5549    0.2850   -1.3011 H   0  0  0  0  0  0  0  0  0  0  0  0
    1.3505   -0.4977   -0.5920 C   0  0  0  0  0  0  0  0  0  0  0  0
    1.6588    0.0964    0.2744 H   0  0  0  0  0  0  0  0  0  0  0  0
    1.7352   -1.5140   -0.4546 H   0  0  0  0  0  0  0  0  0  0  0  0
    1.9543    0.1412   -1.8471 C   0  0  0  0  0  0  0  0  0  0  0  0
    1.6229   -0.4089   -2.7337 H   0  0  0  0  0  0  0  0  0  0  0  0
    1.6045    1.1749   -1.9395 H   0  0  0  0  0  0  0  0  0  0  0  0
    3.4787    0.1287   -1.7833 C   0  0  0  0  0  0  0  0  0  0  0  0
    3.8228    0.6707   -0.8953 H   0  0  0  0  0  0  0  0  0  0  0  0
    3.8424   -0.9026   -1.7150 H   0  0  0  0  0  0  0  0  0  0  0  0
    4.0025    0.7699   -2.9928 N   0  0  0  0  0  0  0  0  0  0  0  0
    5.0225    0.7787   -2.9952 H   0  0  0  0  0  0  0  0  0  0  0  0
    3.6406    0.3188   -3.8331 H   0  0  0  0  0  0  0  0  0  0  0  0
   -1.0386    1.0085    1.1468 C   0  0  0  0  0  0  0  0  0  0  0  0
   -1.9974    1.6447    0.7243 O   0  0  0  0  0  0  0  0  0  0  0  0
   -0.1930    1.5882    2.0748 N   0  0  0  0  0  0  0  0  0  0  0  0
    0.5615    1.0186    2.4466 H   0  0  0  0  0  0  0  0  0  0  0  0
   -0.3534    2.9529    2.5614 C   0  0  0  0  0  0  0  0  0  0  0  0
   -1.3278    3.0759    3.0459 H   0  0  0  0  0  0  0  0  0  0  0  0
    0.4276    3.1887    3.2908 H   0  0  0  0  0  0  0  0  0  0  0  0
   -0.2794    3.6655    1.7332 H   0  0  0  0  0  0  0  0  0  0  0  0
  1  2  1  0  0  0  0
  2  3  1  0  0  0  0
  2  4  1  0  0  0  0
  2  5  1  0  0  0  0
  5  6  2  0  0  0  0
  5  7  1  0  0  0  0
  7  8  1  0  0  0  0
  7  9  1  0  0  0  0
  9 10  1  0  0  0  0
  9 11  1  0  0  0  0
  9 26  1  0  0  0  0
 11 12  1  0  0  0  0
 11 13  1  0  0  0  0
 11 14  1  0  0  0  0
 14 15  1  0  0  0  0
 14 16  1  0  0  0  0
 14 17  1  0  0  0  0
 17 18  1  0  0  0  0
 17 19  1  0  0  0  0
 17 20  1  0  0  0  0
 20 21  1  0  0  0  0
 20 22  1  0  0  0  0
 20 23  1  0  0  0  0
 23 24  1  0  0  0  0
 23 25  1  0  0  0  0
 26 27  2  0  0  0  0
 26 28  1  0  0  0  0
 28 29  1  0  0  0  0
 28 30  1  0  0  0  0
 30 31  1  0  0  0  0
 30 32  1  0  0  0  0
 30 33  1  0  0  0  0
M  END
$$$$

  -OEChem-03222214063D

 33 32  0     1  0  0  0  0  0999 V2000
   -3.7060   -4.0275    1.6755 H   0  0  0  0  0  0  0  0  0  0  0  0
   -3.7198   -3.0369    1.2123 C   0  0  0  0  0  0  0  0  0  0  0  0
   -4.3845   -2.3884    1.7883 H   0  0  0  0  0  0  0  0  0  0  0  0
   -4.1043   -3.1292    0.1937 H   0  0  0  0  0  0  0  0  0  0  0  0
   -2.3201   -2.4524    1.1862 C   0  0  0  0  0  0  0  0  0  0  0  0
   -1.3806   -3.1003    1.6207 O   0  0  0  0  0  0  0  0  0  0  0  0
   -2.1183   -1.1872    0.6751 N   0  0  0  0  0  0  0  0  0  0  0  0
   -2.9437   -0.6519    0.4099 H   0  0  0  0  0  0  0  0  0  0  0  0
   -0.8412   -0.4612    0.7066 C   0  0  1  0  0  0  0  0  0  0  0  0
   -0.1870   -0.9364    1.4449 H   0  0  0  0  0  0  0  0  0  0  0  0
   -0.1807   -0.5439   -0.6817 C   0  0  0  0  0  0  0  0  0  0  0  0
   -0.4655   -1.4807   -1.1724 H   0  0  0  0  0  0  0  0  0  0  0  0
   -0.5596    0.2724   -1.3070 H   0  0  0  0  0  0  0  0  0  0  0  0
    1.3561   -0.5014   -0.5960 C   0  0  0  0  0  0  0  0  0  0  0  0
    1.6756   -0.1580    0.3932 H   0  0  0  0  0  0  0  0  0  0  0  0
    1.7533   -1.5121   -0.7383 H   0  0  0  0  0  0  0  0  0  0  0  0
    1.9399    0.4504   -1.6457 C   0  0  0  0  0  0  0  0  0  0  0  0
    1.6064    0.1466   -2.6432 H   0  0  0  0  0  0  0  0  0  0  0  0
    1.5761    1.4671   -1.4615 H   0  0  0  0  0  0  0  0  0  0  0  0
    3.4649    0.4435   -1.5980 C   0  0  0  0  0  0  0  0  0  0  0  0
    3.8121    0.7305   -0.5992 H   0  0  0  0  0  0  0  0  0  0  0  0
    3.8420   -0.5624   -1.8136 H   0  0  0  0  0  0  0  0  0  0  0  0
    3.9672    1.3957   -2.5925 N   0  0  0  0  0  0  0  0  0  0  0  0
    4.9869    1.4160   -2.6040 H   0  0  0  0  0  0  0  0  0  0  0  0
    3.5969    1.1866   -3.5197 H   0  0  0  0  0  0  0  0  0  0  0  0
   -1.0390    1.0041    1.1423 C   0  0  0  0  0  0  0  0  0  0  0  0
   -1.9986    1.6396    0.7202 O   0  0  0  0  0  0  0  0  0  0  0  0
   -0.1937    1.5840    2.0700 N   0  0  0  0  0  0  0  0  0  0  0  0
    0.5684    1.0188    2.4328 H   0  0  0  0  0  0  0  0  0  0  0  0
   -0.3468    2.9532    2.5457 C   0  0  0  0  0  0  0  0  0  0  0  0
   -1.3194    3.0839    3.0317 H   0  0  0  0  0  0  0  0  0  0  0  0
    0.4369    3.1914    3.2714 H   0  0  0  0  0  0  0  0  0  0  0  0
   -0.2716    3.6586    1.7114 H   0  0  0  0  0  0  0  0  0  0  0  0
  1  2  1  0  0  0  0
  2  3  1  0  0  0  0
  2  4  1  0  0  0  0
  2  5  1  0  0  0  0
  5  6  2  0  0  0  0
  5  7  1  0  0  0  0
  7  8  1  0  0  0  0
  7  9  1  0  0  0  0
  9 10  1  0  0  0  0
  9 11  1  0  0  0  0
  9 26  1  0  0  0  0
 11 12  1  0  0  0  0
 11 13  1  0  0  0  0
 11 14  1  0  0  0  0
 14 15  1  0  0  0  0
 14 16  1  0  0  0  0
 14 17  1  0  0  0  0
 17 18  1  0  0  0  0
 17 19  1  0  0  0  0
 17 20  1  0  0  0  0
 20 21  1  0  0  0  0
 20 22  1  0  0  0  0
 20 23  1  0  0  0  0
 23 24  1  0  0  0  0
 23 25  1  0  0  0  0
 26 27  2  0  0  0  0
 26 28  1  0  0  0  0
 28 29  1  0  0  0  0
 28 30  1  0  0  0  0
 30 31  1  0  0  0  0
 30 32  1  0  0  0  0
 30 33  1  0  0  0  0
M  END
$$$$

  -OEChem-03222214063D

 33 32  0     1  0  0  0  0  0999 V2000
   -3.7164   -4.0245    1.6802 H   0  0  0  0  0  0  0  0  0  0  0  0
   -3.7269   -3.0343    1.2161 C   0  0  0  0  0  0  0  0  0  0  0  0
   -4.3898   -2.3828    1.7907 H   0  0  0  0  0  0  0  0  0  0  0  0
   -4.1113   -3.1263    0.1976 H   0  0  0  0  0  0  0  0  0  0  0  0
   -2.3255   -2.4537    1.1892 C   0  0  0  0  0  0  0  0  0  0  0  0
   -1.3869   -3.1049    1.6208 O   0  0  0  0  0  0  0  0  0  0  0  0
   -2.1208   -1.1899    0.6757 N   0  0  0  0  0  0  0  0  0  0  0  0
   -2.9454   -0.6516    0.4145 H   0  0  0  0  0  0  0  0  0  0  0  0
   -0.8426   -0.4656    0.7073 C   0  0  1  0  0  0  0  0  0  0  0  0
   -0.1939   -0.9413    1.4494 H   0  0  0  0  0  0  0  0  0  0  0  0
   -0.1794   -0.5478   -0.6802 C   0  0  0  0  0  0  0  0  0  0  0  0
   -0.4590   -1.4968   -1.1504 H   0  0  0  0  0  0  0  0  0  0  0  0
   -0.5662    0.2505   -1.3237 H   0  0  0  0  0  0  0  0  0  0  0  0
    1.3592   -0.5068   -0.6019 C   0  0  0  0  0  0  0  0  0  0  0  0
    1.6985   -0.4553    0.4374 H   0  0  0  0  0  0  0  0  0  0  0  0
    1.7613   -1.4313   -1.0300 H   0  0  0  0  0  0  0  0  0  0  0  0
    1.9173    0.6947   -1.3728 C   0  0  0  0  0  0  0  0  0  0  0  0
    1.5835    0.6522   -2.4147 H   0  0  0  0  0  0  0  0  0  0  0  0
    1.5344    1.6214   -0.9320 H   0  0  0  0  0  0  0  0  0  0  0  0
    3.4423    0.7074   -1.3304 C   0  0  0  0  0  0  0  0  0  0  0  0
    3.7905    0.7270   -0.2918 H   0  0  0  0  0  0  0  0  0  0  0  0
    3.8375   -0.1975   -1.8051 H   0  0  0  0  0  0  0  0  0  0  0  0
    3.9183    1.8995   -2.0375 N   0  0  0  0  0  0  0  0  0  0  0  0
    4.9373    1.9423   -2.0480 H   0  0  0  0  0  0  0  0  0  0  0  0
    3.5427    1.9380   -2.9852 H   0  0  0  0  0  0  0  0  0  0  0  0
   -1.0348    1.0011    1.1388 C   0  0  0  0  0  0  0  0  0  0  0  0
   -1.9937    1.6375    0.7166 O   0  0  0  0  0  0  0  0  0  0  0  0
   -0.1876    1.5799    2.0653 N   0  0  0  0  0  0  0  0  0  0  0  0
    0.5854    1.0201    2.4130 H   0  0  0  0  0  0  0  0  0  0  0  0
   -0.3279    2.9551    2.5273 C   0  0  0  0  0  0  0  0  0  0  0  0
   -1.3030    3.1020    3.0034 H   0  0  0  0  0  0  0  0  0  0  0  0
    0.4522    3.1901    3.2576 H   0  0  0  0  0  0  0  0  0  0  0  0
   -0.2366    3.6516    1.6872 H   0  0  0  0  0  0  0  0  0  0  0  0
  1  2  1  0  0  0  0
  2  3  1  0  0  0  0
  2  4  1  0  0  0  0
  2  5  1  0  0  0  0
  5  6  2  0  0  0  0
  5  7  1  0  0  0  0
  7  8  1  0  0  0  0
  7  9  1  0  0  0  0
  9 10  1  0  0  0  0
  9 11  1  0  0  0  0
  9 26  1  0  0  0  0
 11 12  1  0  0  0  0
 11 13  1  0  0  0  0
 11 14  1  0  0  0  0
 14 15  1  0  0  0  0
 14 16  1  0  0  0  0
 14 17  1  0  0  0  0
 17 18  1  0  0  0  0
 17 19  1  0  0  0  0
 17 20  1  0  0  0  0
 20 21  1  0  0  0  0
 20 22  1  0  0  0  0
 20 23  1  0  0  0  0
 23 24  1  0  0  0  0
 23 25  1  0  0  0  0
 26 27  2  0  0  0  0
 26 28  1  0  0  0  0
 28 29  1  0  0  0  0
 28 30  1  0  0  0  0
 30 31  1  0  0  0  0
 30 32  1  0  0  0  0
 30 33  1  0  0  0  0
M  END
$$$$

  -OEChem-03222214063D

 33 32  0     1  0  0  0  0  0999 V2000
   -3.7098   -4.0259    1.6837 H   0  0  0  0  0  0  0  0  0  0  0  0
   -3.7226   -3.0345    1.2224 C   0  0  0  0  0  0  0  0  0  0  0  0
   -4.3818   -2.3845    1.8028 H   0  0  0  0  0  0  0  0  0  0  0  0
   -4.1129   -3.1234    0.2057 H   0  0  0  0  0  0  0  0  0  0  0  0
   -2.3213   -2.4541    1.1899 C   0  0  0  0  0  0  0  0  0  0  0  0
   -1.3811   -3.1051    1.6185 O   0  0  0  0  0  0  0  0  0  0  0  0
   -2.1187   -1.1895    0.6779 N   0  0  0  0  0  0  0  0  0  0  0  0
   -2.9441   -0.6514    0.4184 H   0  0  0  0  0  0  0  0  0  0  0  0
   -0.8407   -0.4648    0.7073 C   0  0  1  0  0  0  0  0  0  0  0  0
   -0.1901   -0.9384    1.4490 H   0  0  0  0  0  0  0  0  0  0  0  0
   -0.1822   -0.5448   -0.6832 C   0  0  0  0  0  0  0  0  0  0  0  0
   -0.4586   -1.5028   -1.1364 H   0  0  0  0  0  0  0  0  0  0  0  0
   -0.5738    0.2404   -1.3392 H   0  0  0  0  0  0  0  0  0  0  0  0
    1.3560   -0.5045   -0.6161 C   0  0  0  0  0  0  0  0  0  0  0  0
    1.7160   -0.7501    0.3880 H   0  0  0  0  0  0  0  0  0  0  0  0
    1.7532   -1.2657   -1.2960 H   0  0  0  0  0  0  0  0  0  0  0  0
    1.8946    0.8633   -1.0519 C   0  0  0  0  0  0  0  0  0  0  0  0
    1.5566    1.0879   -2.0687 H   0  0  0  0  0  0  0  0  0  0  0  0
    1.5040    1.6412   -0.3878 H   0  0  0  0  0  0  0  0  0  0  0  0
    3.4196    0.8824   -1.0104 C   0  0  0  0  0  0  0  0  0  0  0  0
    3.7729    0.6215   -0.0068 H   0  0  0  0  0  0  0  0  0  0  0  0
    3.8234    0.1469   -1.7151 H   0  0  0  0  0  0  0  0  0  0  0  0
    3.8771    2.2286   -1.3647 N   0  0  0  0  0  0  0  0  0  0  0  0
    4.8955    2.2857   -1.3636 H   0  0  0  0  0  0  0  0  0  0  0  0
    3.4976    2.5191   -2.2661 H   0  0  0  0  0  0  0  0  0  0  0  0
   -1.0372    1.0003    1.1422 C   0  0  0  0  0  0  0  0  0  0  0  0
   -1.9997    1.6343    0.7237 O   0  0  0  0  0  0  0  0  0  0  0  0
   -0.1897    1.5792    2.0685 N   0  0  0  0  0  0  0  0  0  0  0  0
    0.6008    1.0293    2.3921 H   0  0  0  0  0  0  0  0  0  0  0  0
   -0.3178    2.9605    2.5153 C   0  0  0  0  0  0  0  0  0  0  0  0
   -1.2958    3.1242    2.9799 H   0  0  0  0  0  0  0  0  0  0  0  0
    0.4573    3.1934    3.2516 H   0  0  0  0  0  0  0  0  0  0  0  0
   -0.2094    3.6478    1.6696 H   0  0  0  0  0  0  0  0  0  0  0  0
  1  2  1  0  0  0  0
  2  3  1  0  0  0  0
  2  4  1  0  0  0  0
  2  5  1  0  0  0  0
  5  6  2  0  0  0  0
  5  7  1  0  0  0  0
  7  8  1  0  0  0  0
  7  9  1  0  0  0  0
  9 10  1  0  0  0  0
  9 11  1  0  0  0  0
  9 26  1  0  0  0  0
 11 12  1  0  0  0  0
 11 13  1  0  0  0  0
 11 14  1  0  0  0  0
 14 15  1  0  0  0  0
 14 16  1  0  0  0  0
 14 17  1  0  0  0  0
 17 18  1  0  0  0  0
 17 19  1  0  0  0  0
 17 20  1  0  0  0  0
 20 21  1  0  0  0  0
 20 22  1  0  0  0  0
 20 23  1  0  0  0  0
 23 24  1  0  0  0  0
 23 25  1  0  0  0  0
 26 27  2  0  0  0  0
 26 28  1  0  0  0  0
 28 29  1  0  0  0  0
 28 30  1  0  0  0  0
 30 31  1  0  0  0  0
 30 32  1  0  0  0  0
 30 33  1  0  0  0  0
M  END
$$$$

  -OEChem-03222214063D

 33 32  0     1  0  0  0  0  0999 V2000
   -3.6869   -4.0304    1.6670 H   0  0  0  0  0  0  0  0  0  0  0  0
   -3.7025   -3.0392    1.2050 C   0  0  0  0  0  0  0  0  0  0  0  0
   -4.3725   -2.3941    1.7786 H   0  0  0  0  0  0  0  0  0  0  0  0
   -4.0816   -3.1320    0.1843 H   0  0  0  0  0  0  0  0  0  0  0  0
   -2.3051   -2.4487    1.1859 C   0  0  0  0  0  0  0  0  0  0  0  0
   -1.3631   -3.0974    1.6137 O   0  0  0  0  0  0  0  0  0  0  0  0
   -2.1071   -1.1790    0.6848 N   0  0  0  0  0  0  0  0  0  0  0  0
   -2.9343   -0.6412    0.4300 H   0  0  0  0  0  0  0  0  0  0  0  0
   -0.8321   -0.4492    0.7299 C   0  0  1  0  0  0  0  0  0  0  0  0
   -0.1750   -0.9187    1.4689 H   0  0  0  0  0  0  0  0  0  0  0  0
   -0.1773   -0.5257   -0.6656 C   0  0  0  0  0  0  0  0  0  0  0  0
   -0.4572   -1.4820   -1.1204 H   0  0  0  0  0  0  0  0  0  0  0  0
   -0.5682    0.2630   -1.3177 H   0  0  0  0  0  0  0  0  0  0  0  0
    1.3604   -0.4875   -0.6202 C   0  0  0  0  0  0  0  0  0  0  0  0
    1.7308   -0.9934    0.2773 H   0  0  0  0  0  0  0  0  0  0  0  0
    1.7403   -1.0430   -1.4842 H   0  0  0  0  0  0  0  0  0  0  0  0
    1.9090    0.9433   -0.6936 C   0  0  0  0  0  0  0  0  0  0  0  0
    1.5339    1.4375   -1.5957 H   0  0  0  0  0  0  0  0  0  0  0  0
    1.5700    1.5198    0.1702 H   0  0  0  0  0  0  0  0  0  0  0  0
    3.4345    0.9367   -0.7161 C   0  0  0  0  0  0  0  0  0  0  0  0
    3.8223    0.4107    0.1634 H   0  0  0  0  0  0  0  0  0  0  0  0
    3.7950    0.4160   -1.6101 H   0  0  0  0  0  0  0  0  0  0  0  0
    3.9039    2.3252   -0.7125 N   0  0  0  0  0  0  0  0  0  0  0  0
    4.9226    2.3712   -0.7416 H   0  0  0  0  0  0  0  0  0  0  0  0
    3.4944    2.8522   -1.4843 H   0  0  0  0  0  0  0  0  0  0  0  0
   -1.0662    1.0078    1.1778 C   0  0  0  0  0  0  0  0  0  0  0  0
   -2.0310    1.6288    0.7447 O   0  0  0  0  0  0  0  0  0  0  0  0
   -0.2457    1.5977    2.1214 N   0  0  0  0  0  0  0  0  0  0  0  0
    0.5623    1.0683    2.4362 H   0  0  0  0  0  0  0  0  0  0  0  0
   -0.3938    2.9802    2.5585 C   0  0  0  0  0  0  0  0  0  0  0  0
   -1.3887    3.1440    2.9859 H   0  0  0  0  0  0  0  0  0  0  0  0
    0.3525    3.2165    3.3231 H   0  0  0  0  0  0  0  0  0  0  0  0
   -0.2548    3.6648    1.7153 H   0  0  0  0  0  0  0  0  0  0  0  0
  1  2  1  0  0  0  0
  2  3  1  0  0  0  0
  2  4  1  0  0  0  0
  2  5  1  0  0  0  0
  5  6  2  0  0  0  0
  5  7  1  0  0  0  0
  7  8  1  0  0  0  0
  7  9  1  0  0  0  0
  9 10  1  0  0  0  0
  9 11  1  0  0  0  0
  9 26  1  0  0  0  0
 11 12  1  0  0  0  0
 11 13  1  0  0  0  0
 11 14  1  0  0  0  0
 14 15  1  0  0  0  0
 14 16  1  0  0  0  0
 14 17  1  0  0  0  0
 17 18  1  0  0  0  0
 17 19  1  0  0  0  0
 17 20  1  0  0  0  0
 20 21  1  0  0  0  0
 20 22  1  0  0  0  0
 20 23  1  0  0  0  0
 23 24  1  0  0  0  0
 23 25  1  0  0  0  0
 26 27  2  0  0  0  0
 26 28  1  0  0  0  0
 28 29  1  0  0  0  0
 28 30  1  0  0  0  0
 30 31  1  0  0  0  0
 30 32  1  0  0  0  0
 30 33  1  0  0  0  0
M  END
$$$$

  -OEChem-03222214063D

 33 32  0     1  0  0  0  0  0999 V2000
   -3.6937   -4.0266    1.6112 H   0  0  0  0  0  0  0  0  0  0  0  0
   -3.7016   -3.0284    1.1646 C   0  0  0  0  0  0  0  0  0  0  0  0
   -4.3855   -2.3934    1.7330 H   0  0  0  0  0  0  0  0  0  0  0  0
   -4.0577   -3.1064    0.1346 H   0  0  0  0  0  0  0  0  0  0  0  0
   -2.3055   -2.4356    1.1860 C   0  0  0  0  0  0  0  0  0  0  0  0
   -1.3756   -3.0830    1.6413 O   0  0  0  0  0  0  0  0  0  0  0  0
   -2.0933   -1.1670    0.6882 N   0  0  0  0  0  0  0  0  0  0  0  0
   -2.9118   -0.6292    0.4065 H   0  0  0  0  0  0  0  0  0  0  0  0
   -0.8203   -0.4370    0.7726 C   0  0  1  0  0  0  0  0  0  0  0  0
   -0.1721   -0.8997    1.5237 H   0  0  0  0  0  0  0  0  0  0  0  0
   -0.1471   -0.5191   -0.6151 C   0  0  0  0  0  0  0  0  0  0  0  0
   -0.4312   -1.4692   -1.0803 H   0  0  0  0  0  0  0  0  0  0  0  0
   -0.5244    0.2791   -1.2635 H   0  0  0  0  0  0  0  0  0  0  0  0
    1.3900   -0.4909   -0.5766 C   0  0  0  0  0  0  0  0  0  0  0  0
    1.7561   -1.2075    0.1665 H   0  0  0  0  0  0  0  0  0  0  0  0
    1.7542   -0.8204   -1.5555 H   0  0  0  0  0  0  0  0  0  0  0  0
    1.9669    0.8999   -0.2883 C   0  0  0  0  0  0  0  0  0  0  0  0
    1.5096    1.6390   -0.9542 H   0  0  0  0  0  0  0  0  0  0  0  0
    1.7489    1.1858    0.7415 H   0  0  0  0  0  0  0  0  0  0  0  0
    3.4798    0.9088   -0.4814 C   0  0  0  0  0  0  0  0  0  0  0  0
    3.9438    0.1407    0.1476 H   0  0  0  0  0  0  0  0  0  0  0  0
    3.7284    0.6894   -1.5258 H   0  0  0  0  0  0  0  0  0  0  0  0
    3.9851    2.2323   -0.1060 N   0  0  0  0  0  0  0  0  0  0  0  0
    4.9990    2.2820   -0.2072 H   0  0  0  0  0  0  0  0  0  0  0  0
    3.5297    2.9651   -0.6506 H   0  0  0  0  0  0  0  0  0  0  0  0
   -1.0987    1.0171    1.2116 C   0  0  0  0  0  0  0  0  0  0  0  0
   -2.0542    1.6211    0.7350 O   0  0  0  0  0  0  0  0  0  0  0  0
   -0.3314    1.6301    2.1847 N   0  0  0  0  0  0  0  0  0  0  0  0
    0.4741    1.1199    2.5366 H   0  0  0  0  0  0  0  0  0  0  0  0
   -0.5331    3.0076    2.6153 C   0  0  0  0  0  0  0  0  0  0  0  0
   -1.5491    3.1448    3.0000 H   0  0  0  0  0  0  0  0  0  0  0  0
    0.1734    3.2616    3.4113 H   0  0  0  0  0  0  0  0  0  0  0  0
   -0.3758    3.6963    1.7787 H   0  0  0  0  0  0  0  0  0  0  0  0
  1  2  1  0  0  0  0
  2  3  1  0  0  0  0
  2  4  1  0  0  0  0
  2  5  1  0  0  0  0
  5  6  2  0  0  0  0
  5  7  1  0  0  0  0
  7  8  1  0  0  0  0
  7  9  1  0  0  0  0
  9 10  1  0  0  0  0
  9 11  1  0  0  0  0
  9 26  1  0  0  0  0
 11 12  1  0  0  0  0
 11 13  1  0  0  0  0
 11 14  1  0  0  0  0
 14 15  1  0  0  0  0
 14 16  1  0  0  0  0
 14 17  1  0  0  0  0
 17 18  1  0  0  0  0
 17 19  1  0  0  0  0
 17 20  1  0  0  0  0
 20 21  1  0  0  0  0
 20 22  1  0  0  0  0
 20 23  1  0  0  0  0
 23 24  1  0  0  0  0
 23 25  1  0  0  0  0
 26 27  2  0  0  0  0
 26 28  1  0  0  0  0
 28 29  1  0  0  0  0
 28 30  1  0  0  0  0
 30 31  1  0  0  0  0
 30 32  1  0  0  0  0
 30 33  1  0  0  0  0
M  END
$$$$

  -OEChem-03222214063D

 33 32  0     1  0  0  0  0  0999 V2000
   -3.7284   -4.0153    1.5855 H   0  0  0  0  0  0  0  0  0  0  0  0
   -3.7217   -3.0172    1.1387 C   0  0  0  0  0  0  0  0  0  0  0  0
   -4.4139   -2.3784    1.6924 H   0  0  0  0  0  0  0  0  0  0  0  0
   -4.0569   -3.0933    0.1015 H   0  0  0  0  0  0  0  0  0  0  0  0
   -2.3238   -2.4309    1.1889 C   0  0  0  0  0  0  0  0  0  0  0  0
   -1.4066   -3.0807    1.6657 O   0  0  0  0  0  0  0  0  0  0  0  0
   -2.0962   -1.1656    0.6901 N   0  0  0  0  0  0  0  0  0  0  0  0
   -2.9073   -0.6241    0.3944 H   0  0  0  0  0  0  0  0  0  0  0  0
   -0.8204   -0.4430    0.7913 C   0  0  1  0  0  0  0  0  0  0  0  0
   -0.1816   -0.9070    1.5500 H   0  0  0  0  0  0  0  0  0  0  0  0
   -0.1326   -0.5283   -0.5897 C   0  0  0  0  0  0  0  0  0  0  0  0
   -0.4272   -1.4654   -1.0744 H   0  0  0  0  0  0  0  0  0  0  0  0
   -0.4913    0.2877   -1.2263 H   0  0  0  0  0  0  0  0  0  0  0  0
    1.4051   -0.5115   -0.5485 C   0  0  0  0  0  0  0  0  0  0  0  0
    1.7602   -1.3900    0.0011 H   0  0  0  0  0  0  0  0  0  0  0  0
    1.7694   -0.5985   -1.5775 H   0  0  0  0  0  0  0  0  0  0  0  0
    1.9980    0.7510    0.0859 C   0  0  0  0  0  0  0  0  0  0  0  0
    1.5086    1.6398   -0.3257 H   0  0  0  0  0  0  0  0  0  0  0  0
    1.8314    0.7292    1.1649 H   0  0  0  0  0  0  0  0  0  0  0  0
    3.4993    0.8371   -0.1646 C   0  0  0  0  0  0  0  0  0  0  0  0
    3.9961   -0.0602    0.2210 H   0  0  0  0  0  0  0  0  0  0  0  0
    3.7009    0.9032   -1.2396 H   0  0  0  0  0  0  0  0  0  0  0  0
    4.0103    2.0270    0.5223 N   0  0  0  0  0  0  0  0  0  0  0  0
    5.0201    2.1145    0.4059 H   0  0  0  0  0  0  0  0  0  0  0  0
    3.5340    2.8689    0.1979 H   0  0  0  0  0  0  0  0  0  0  0  0
   -1.1067    1.0139    1.2215 C   0  0  0  0  0  0  0  0  0  0  0  0
   -2.0514    1.6164    0.7219 O   0  0  0  0  0  0  0  0  0  0  0  0
   -0.3598    1.6359    2.2049 N   0  0  0  0  0  0  0  0  0  0  0  0
    0.4390    1.1293    2.5771 H   0  0  0  0  0  0  0  0  0  0  0  0
   -0.5698    3.0169    2.6208 C   0  0  0  0  0  0  0  0  0  0  0  0
   -1.5911    3.1561    2.9904 H   0  0  0  0  0  0  0  0  0  0  0  0
    0.1258    3.2791    3.4237 H   0  0  0  0  0  0  0  0  0  0  0  0
   -0.4021    3.6988    1.7806 H   0  0  0  0  0  0  0  0  0  0  0  0
  1  2  1  0  0  0  0
  2  3  1  0  0  0  0
  2  4  1  0  0  0  0
  2  5  1  0  0  0  0
  5  6  2  0  0  0  0
  5  7  1  0  0  0  0
  7  8  1  0  0  0  0
  7  9  1  0  0  0  0
  9 10  1  0  0  0  0
  9 11  1  0  0  0  0
  9 26  1  0  0  0  0
 11 12  1  0  0  0  0
 11 13  1  0  0  0  0
 11 14  1  0  0  0  0
 14 15  1  0  0  0  0
 14 16  1  0  0  0  0
 14 17  1  0  0  0  0
 17 18  1  0  0  0  0
 17 19  1  0  0  0  0
 17 20  1  0  0  0  0
 20 21  1  0  0  0  0
 20 22  1  0  0  0  0
 20 23  1  0  0  0  0
 23 24  1  0  0  0  0
 23 25  1  0  0  0  0
 26 27  2  0  0  0  0
 26 28  1  0  0  0  0
 28 29  1  0  0  0  0
 28 30  1  0  0  0  0
 30 31  1  0  0  0  0
 30 32  1  0  0  0  0
 30 33  1  0  0  0  0
M  END
$$$$

  -OEChem-03222214063D

 33 32  0     1  0  0  0  0  0999 V2000
   -3.7275   -4.0205    1.5863 H   0  0  0  0  0  0  0  0  0  0  0  0
   -3.7259   -3.0200    1.1450 C   0  0  0  0  0  0  0  0  0  0  0  0
   -4.4166   -2.3865    1.7067 H   0  0  0  0  0  0  0  0  0  0  0  0
   -4.0666   -3.0909    0.1091 H   0  0  0  0  0  0  0  0  0  0  0  0
   -2.3288   -2.4305    1.1900 C   0  0  0  0  0  0  0  0  0  0  0  0
   -1.4090   -3.0777    1.6652 O   0  0  0  0  0  0  0  0  0  0  0  0
   -2.1059   -1.1647    0.6898 N   0  0  0  0  0  0  0  0  0  0  0  0
   -2.9200   -0.6269    0.3959 H   0  0  0  0  0  0  0  0  0  0  0  0
   -0.8340   -0.4345    0.7905 C   0  0  1  0  0  0  0  0  0  0  0  0
   -0.2003   -0.8979    1.5534 H   0  0  0  0  0  0  0  0  0  0  0  0
   -0.1365   -0.5232   -0.5867 C   0  0  0  0  0  0  0  0  0  0  0  0
   -0.4337   -1.4540   -1.0817 H   0  0  0  0  0  0  0  0  0  0  0  0
   -0.4947    0.2999   -1.2143 H   0  0  0  0  0  0  0  0  0  0  0  0
    1.4045   -0.4973   -0.5618 C   0  0  0  0  0  0  0  0  0  0  0  0
    1.7618   -1.4798   -0.2346 H   0  0  0  0  0  0  0  0  0  0  0  0
    1.7601   -0.3427   -1.5859 H   0  0  0  0  0  0  0  0  0  0  0  0
    2.0188    0.5664    0.3560 C   0  0  0  0  0  0  0  0  0  0  0  0
    1.5865    1.5450    0.1238 H   0  0  0  0  0  0  0  0  0  0  0  0
    1.8033    0.3257    1.4002 H   0  0  0  0  0  0  0  0  0  0  0  0
    3.5318    0.6327    0.1831 C   0  0  0  0  0  0  0  0  0  0  0  0
    3.9787   -0.3410    0.4138 H   0  0  0  0  0  0  0  0  0  0  0  0
    3.7841    0.8884   -0.8522 H   0  0  0  0  0  0  0  0  0  0  0  0
    4.0506    1.6529    1.0992 N   0  0  0  0  0  0  0  0  0  0  0  0
    5.0684    1.7077    1.0507 H   0  0  0  0  0  0  0  0  0  0  0  0
    3.6299    2.5627    0.9096 H   0  0  0  0  0  0  0  0  0  0  0  0
   -1.1232    1.0229    1.2178 C   0  0  0  0  0  0  0  0  0  0  0  0
   -2.0751    1.6196    0.7249 O   0  0  0  0  0  0  0  0  0  0  0  0
   -0.3761    1.6474    2.1998 N   0  0  0  0  0  0  0  0  0  0  0  0
    0.4246    1.1431    2.5718 H   0  0  0  0  0  0  0  0  0  0  0  0
   -0.6144    3.0146    2.6441 C   0  0  0  0  0  0  0  0  0  0  0  0
   -1.6364    3.1219    3.0224 H   0  0  0  0  0  0  0  0  0  0  0  0
    0.0802    3.2766    3.4479 H   0  0  0  0  0  0  0  0  0  0  0  0
   -0.4684    3.7171    1.8170 H   0  0  0  0  0  0  0  0  0  0  0  0
  1  2  1  0  0  0  0
  2  3  1  0  0  0  0
  2  4  1  0  0  0  0
  2  5  1  0  0  0  0
  5  6  2  0  0  0  0
  5  7  1  0  0  0  0
  7  8  1  0  0  0  0
  7  9  1  0  0  0  0
  9 10  1  0  0  0  0
  9 11  1  0  0  0  0
  9 26  1  0  0  0  0
 11 12  1  0  0  0  0
 11 13  1  0  0  0  0
 11 14  1  0  0  0  0
 14 15  1  0  0  0  0
 14 16  1  0  0  0  0
 14 17  1  0  0  0  0
 17 18  1  0  0  0  0
 17 19  1  0  0  0  0
 17 20  1  0  0  0  0
 20 21  1  0  0  0  0
 20 22  1  0  0  0  0
 20 23  1  0  0  0  0
 23 24  1  0  0  0  0
 23 25  1  0  0  0  0
 26 27  2  0  0  0  0
 26 28  1  0  0  0  0
 28 29  1  0  0  0  0
 28 30  1  0  0  0  0
 30 31  1  0  0  0  0
 30 32  1  0  0  0  0
 30 33  1  0  0  0  0
M  END
$$$$

  -OEChem-03222214063D

 33 32  0     1  0  0  0  0  0999 V2000
   -3.7255   -4.0481    1.5579 H   0  0  0  0  0  0  0  0  0  0  0  0
   -3.7309   -3.0459    1.1201 C   0  0  0  0  0  0  0  0  0  0  0  0
   -4.4390   -2.4240    1.6730 H   0  0  0  0  0  0  0  0  0  0  0  0
   -4.0551   -3.1178    0.0790 H   0  0  0  0  0  0  0  0  0  0  0  0
   -2.3428   -2.4373    1.1885 C   0  0  0  0  0  0  0  0  0  0  0  0
   -1.4224   -3.0736    1.6771 O   0  0  0  0  0  0  0  0  0  0  0  0
   -2.1288   -1.1684    0.6914 N   0  0  0  0  0  0  0  0  0  0  0  0
   -2.9442   -0.6447    0.3770 H   0  0  0  0  0  0  0  0  0  0  0  0
   -0.8673   -0.4212    0.8048 C   0  0  1  0  0  0  0  0  0  0  0  0
   -0.2522   -0.8848    1.5811 H   0  0  0  0  0  0  0  0  0  0  0  0
   -0.1447   -0.5195   -0.5597 C   0  0  0  0  0  0  0  0  0  0  0  0
   -0.4325   -1.4543   -1.0530 H   0  0  0  0  0  0  0  0  0  0  0  0
   -0.5086    0.2963   -1.1937 H   0  0  0  0  0  0  0  0  0  0  0  0
    1.3998   -0.4750   -0.5449 C   0  0  0  0  0  0  0  0  0  0  0  0
    1.7608   -1.5056   -0.4572 H   0  0  0  0  0  0  0  0  0  0  0  0
    1.7435   -0.0906   -1.5108 H   0  0  0  0  0  0  0  0  0  0  0  0
    2.0448    0.3378    0.5872 C   0  0  0  0  0  0  0  0  0  0  0  0
    1.6881    1.3709    0.5368 H   0  0  0  0  0  0  0  0  0  0  0  0
    1.7792   -0.0799    1.5619 H   0  0  0  0  0  0  0  0  0  0  0  0
    3.5646    0.3331    0.4645 C   0  0  0  0  0  0  0  0  0  0  0  0
    3.9444   -0.6919    0.5435 H   0  0  0  0  0  0  0  0  0  0  0  0
    3.8687    0.7352   -0.5085 H   0  0  0  0  0  0  0  0  0  0  0  0
    4.1117    1.1575    1.5466 N   0  0  0  0  0  0  0  0  0  0  0  0
    5.1318    1.1316    1.5491 H   0  0  0  0  0  0  0  0  0  0  0  0
    3.7745    2.1180    1.4806 H   0  0  0  0  0  0  0  0  0  0  0  0
   -1.1538    1.0361    1.2281 C   0  0  0  0  0  0  0  0  0  0  0  0
   -2.0989    1.6375    0.7289 O   0  0  0  0  0  0  0  0  0  0  0  0
   -0.4063    1.6541    2.2140 N   0  0  0  0  0  0  0  0  0  0  0  0
    0.3836    1.1391    2.5953 H   0  0  0  0  0  0  0  0  0  0  0  0
   -0.6362    3.0227    2.6586 C   0  0  0  0  0  0  0  0  0  0  0  0
   -1.6604    3.1393    3.0281 H   0  0  0  0  0  0  0  0  0  0  0  0
    0.0532    3.2773    3.4693 H   0  0  0  0  0  0  0  0  0  0  0  0
   -0.4768    3.7253    1.8340 H   0  0  0  0  0  0  0  0  0  0  0  0
  1  2  1  0  0  0  0
  2  3  1  0  0  0  0
  2  4  1  0  0  0  0
  2  5  1  0  0  0  0
  5  6  2  0  0  0  0
  5  7  1  0  0  0  0
  7  8  1  0  0  0  0
  7  9  1  0  0  0  0
  9 10  1  0  0  0  0
  9 11  1  0  0  0  0
  9 26  1  0  0  0  0
 11 12  1  0  0  0  0
 11 13  1  0  0  0  0
 11 14  1  0  0  0  0
 14 15  1  0  0  0  0
 14 16  1  0  0  0  0
 14 17  1  0  0  0  0
 17 18  1  0  0  0  0
 17 19  1  0  0  0  0
 17 20  1  0  0  0  0
 20 21  1  0  0  0  0
 20 22  1  0  0  0  0
 20 23  1  0  0  0  0
 23 24  1  0  0  0  0
 23 25  1  0  0  0  0
 26 27  2  0  0  0  0
 26 28  1  0  0  0  0
 28 29  1  0  0  0  0
 28 30  1  0  0  0  0
 30 31  1  0  0  0  0
 30 32  1  0  0  0  0
 30 33  1  0  0  0  0
M  END
$$$$

  -OEChem-03222214063D

 33 32  0     1  0  0  0  0  0999 V2000
   -3.7654   -4.0408    1.5312 H   0  0  0  0  0  0  0  0  0  0  0  0
   -3.7612   -3.0382    1.0943 C   0  0  0  0  0  0  0  0  0  0  0  0
   -4.4789   -2.4157    1.6341 H   0  0  0  0  0  0  0  0  0  0  0  0
   -4.0652   -3.1095    0.0473 H   0  0  0  0  0  0  0  0  0  0  0  0
   -2.3741   -2.4308    1.1905 C   0  0  0  0  0  0  0  0  0  0  0  0
   -1.4687   -3.0615    1.7128 O   0  0  0  0  0  0  0  0  0  0  0  0
   -2.1461   -1.1671    0.6860 N   0  0  0  0  0  0  0  0  0  0  0  0
   -2.9526   -0.6479    0.3423 H   0  0  0  0  0  0  0  0  0  0  0  0
   -0.8871   -0.4189    0.8203 C   0  0  1  0  0  0  0  0  0  0  0  0
   -0.2990   -0.8775    1.6184 H   0  0  0  0  0  0  0  0  0  0  0  0
   -0.1333   -0.5264   -0.5277 C   0  0  0  0  0  0  0  0  0  0  0  0
   -0.4134   -1.4682   -1.0120 H   0  0  0  0  0  0  0  0  0  0  0  0
   -0.4930    0.2766   -1.1801 H   0  0  0  0  0  0  0  0  0  0  0  0
    1.4145   -0.4823   -0.5090 C   0  0  0  0  0  0  0  0  0  0  0  0
    1.7746   -1.5003   -0.6935 H   0  0  0  0  0  0  0  0  0  0  0  0
    1.7487    0.1349   -1.3498 H   0  0  0  0  0  0  0  0  0  0  0  0
    2.0906    0.0178    0.7771 C   0  0  0  0  0  0  0  0  0  0  0  0
    1.7782    1.0464    0.9730 H   0  0  0  0  0  0  0  0  0  0  0  0
    1.8132   -0.6071    1.6304 H   0  0  0  0  0  0  0  0  0  0  0  0
    3.6090   -0.0140    0.6367 C   0  0  0  0  0  0  0  0  0  0  0  0
    3.9501   -1.0466    0.5017 H   0  0  0  0  0  0  0  0  0  0  0  0
    3.9215    0.5653   -0.2392 H   0  0  0  0  0  0  0  0  0  0  0  0
    4.1970    0.5554    1.8534 N   0  0  0  0  0  0  0  0  0  0  0  0
    5.2146    0.4806    1.8401 H   0  0  0  0  0  0  0  0  0  0  0  0
    3.9072    1.5246    1.9824 H   0  0  0  0  0  0  0  0  0  0  0  0
   -1.1722    1.0430    1.2217 C   0  0  0  0  0  0  0  0  0  0  0  0
   -2.0975    1.6494    0.6926 O   0  0  0  0  0  0  0  0  0  0  0  0
   -0.4385    1.6609    2.2172 N   0  0  0  0  0  0  0  0  0  0  0  0
    0.3119    1.1251    2.6465 H   0  0  0  0  0  0  0  0  0  0  0  0
   -0.6758    3.0282    2.6615 C   0  0  0  0  0  0  0  0  0  0  0  0
   -1.7018    3.1399    3.0275 H   0  0  0  0  0  0  0  0  0  0  0  0
    0.0105    3.2853    3.4739 H   0  0  0  0  0  0  0  0  0  0  0  0
   -0.5165    3.7317    1.8377 H   0  0  0  0  0  0  0  0  0  0  0  0
  1  2  1  0  0  0  0
  2  3  1  0  0  0  0
  2  4  1  0  0  0  0
  2  5  1  0  0  0  0
  5  6  2  0  0  0  0
  5  7  1  0  0  0  0
  7  8  1  0  0  0  0
  7  9  1  0  0  0  0
  9 10  1  0  0  0  0
  9 11  1  0  0  0  0
  9 26  1  0  0  0  0
 11 12  1  0  0  0  0
 11 13  1  0  0  0  0
 11 14  1  0  0  0  0
 14 15  1  0  0  0  0
 14 16  1  0  0  0  0
 14 17  1  0  0  0  0
 17 18  1  0  0  0  0
 17 19  1  0  0  0  0
 17 20  1  0  0  0  0
 20 21  1  0  0  0  0
 20 22  1  0  0  0  0
 20 23  1  0  0  0  0
 23 24  1  0  0  0  0
 23 25  1  0  0  0  0
 26 27  2  0  0  0  0
 26 28  1  0  0  0  0
 28 29  1  0  0  0  0
 28 30  1  0  0  0  0
 30 31  1  0  0  0  0
 30 32  1  0  0  0  0
 30 33  1  0  0  0  0
M  END
$$$$

  -OEChem-03222214063D

 33 32  0     1  0  0  0  0  0999 V2000
   -3.8066   -4.0144    1.5255 H   0  0  0  0  0  0  0  0  0  0  0  0
   -3.7899   -3.0137    1.0848 C   0  0  0  0  0  0  0  0  0  0  0  0
   -4.5135   -2.3854    1.6097 H   0  0  0  0  0  0  0  0  0  0  0  0
   -4.0766   -3.0876    0.0331 H   0  0  0  0  0  0  0  0  0  0  0  0
   -2.4011   -2.4141    1.2026 C   0  0  0  0  0  0  0  0  0  0  0  0
   -1.5113   -3.0447    1.7510 O   0  0  0  0  0  0  0  0  0  0  0  0
   -2.1531   -1.1591    0.6859 N   0  0  0  0  0  0  0  0  0  0  0  0
   -2.9488   -0.6374    0.3217 H   0  0  0  0  0  0  0  0  0  0  0  0
   -0.8877   -0.4230    0.8263 C   0  0  1  0  0  0  0  0  0  0  0  0
   -0.3141   -0.8767    1.6373 H   0  0  0  0  0  0  0  0  0  0  0  0
   -0.1239   -0.5411   -0.5154 C   0  0  0  0  0  0  0  0  0  0  0  0
   -0.4022   -1.4961   -0.9747 H   0  0  0  0  0  0  0  0  0  0  0  0
   -0.4807    0.2427   -1.1925 H   0  0  0  0  0  0  0  0  0  0  0  0
    1.4251   -0.5122   -0.4918 C   0  0  0  0  0  0  0  0  0  0  0  0
    1.7858   -1.4365   -0.9563 H   0  0  0  0  0  0  0  0  0  0  0  0
    1.7529    0.3164   -1.1287 H   0  0  0  0  0  0  0  0  0  0  0  0
    2.1122   -0.3663    0.8748 C   0  0  0  0  0  0  0  0  0  0  0  0
    1.8078    0.5714    1.3440 H   0  0  0  0  0  0  0  0  0  0  0  0
    1.8319   -1.1968    1.5304 H   0  0  0  0  0  0  0  0  0  0  0  0
    3.6295   -0.3672    0.7141 C   0  0  0  0  0  0  0  0  0  0  0  0
    3.9600   -1.3283    0.3040 H   0  0  0  0  0  0  0  0  0  0  0  0
    3.9381    0.4228    0.0203 H   0  0  0  0  0  0  0  0  0  0  0  0
    4.2386   -0.1462    2.0294 N   0  0  0  0  0  0  0  0  0  0  0  0
    5.2556   -0.2123    1.9803 H   0  0  0  0  0  0  0  0  0  0  0  0
    3.9520    0.7500    2.4219 H   0  0  0  0  0  0  0  0  0  0  0  0
   -1.1573    1.0474    1.2066 C   0  0  0  0  0  0  0  0  0  0  0  0
   -2.0666    1.6603    0.6576 O   0  0  0  0  0  0  0  0  0  0  0  0
   -0.4274    1.6696    2.2024 N   0  0  0  0  0  0  0  0  0  0  0  0
    0.2835    1.1180    2.6757 H   0  0  0  0  0  0  0  0  0  0  0  0
   -0.6751    3.0356    2.6464 C   0  0  0  0  0  0  0  0  0  0  0  0
   -1.7027    3.1403    3.0101 H   0  0  0  0  0  0  0  0  0  0  0  0
    0.0074    3.2983    3.4603 H   0  0  0  0  0  0  0  0  0  0  0  0
   -0.5186    3.7397    1.8225 H   0  0  0  0  0  0  0  0  0  0  0  0
  1  2  1  0  0  0  0
  2  3  1  0  0  0  0
  2  4  1  0  0  0  0
  2  5  1  0  0  0  0
  5  6  2  0  0  0  0
  5  7  1  0  0  0  0
  7  8  1  0  0  0  0
  7  9  1  0  0  0  0
  9 10  1  0  0  0  0
  9 11  1  0  0  0  0
  9 26  1  0  0  0  0
 11 12  1  0  0  0  0
 11 13  1  0  0  0  0
 11 14  1  0  0  0  0
 14 15  1  0  0  0  0
 14 16  1  0  0  0  0
 14 17  1  0  0  0  0
 17 18  1  0  0  0  0
 17 19  1  0  0  0  0
 17 20  1  0  0  0  0
 20 21  1  0  0  0  0
 20 22  1  0  0  0  0
 20 23  1  0  0  0  0
 23 24  1  0  0  0  0
 23 25  1  0  0  0  0
 26 27  2  0  0  0  0
 26 28  1  0  0  0  0
 28 29  1  0  0  0  0
 28 30  1  0  0  0  0
 30 31  1  0  0  0  0
 30 32  1  0  0  0  0
 30 33  1  0  0  0  0
M  END
$$$$

  -OEChem-03222214063D

 33 32  0     1  0  0  0  0  0999 V2000
   -3.8152   -4.0126    1.5396 H   0  0  0  0  0  0  0  0  0  0  0  0
   -3.7970   -3.0135    1.0954 C   0  0  0  0  0  0  0  0  0  0  0  0
   -4.5180   -2.3817    1.6195 H   0  0  0  0  0  0  0  0  0  0  0  0
   -4.0857   -3.0901    0.0443 H   0  0  0  0  0  0  0  0  0  0  0  0
   -2.4070   -2.4160    1.2079 C   0  0  0  0  0  0  0  0  0  0  0  0
   -1.5177   -3.0441    1.7595 O   0  0  0  0  0  0  0  0  0  0  0  0
   -2.1597   -1.1638    0.6848 N   0  0  0  0  0  0  0  0  0  0  0  0
   -2.9556   -0.6461    0.3158 H   0  0  0  0  0  0  0  0  0  0  0  0
   -0.8927   -0.4283    0.8110 C   0  0  1  0  0  0  0  0  0  0  0  0
   -0.3210   -0.8826    1.6229 H   0  0  0  0  0  0  0  0  0  0  0  0
   -0.1282   -0.5431   -0.5293 C   0  0  0  0  0  0  0  0  0  0  0  0
   -0.3931   -1.5108   -0.9695 H   0  0  0  0  0  0  0  0  0  0  0  0
   -0.4901    0.2236   -1.2229 H   0  0  0  0  0  0  0  0  0  0  0  0
    1.4186   -0.5074   -0.4928 C   0  0  0  0  0  0  0  0  0  0  0  0
    1.7940   -1.2598   -1.1949 H   0  0  0  0  0  0  0  0  0  0  0  0
    1.7349    0.4711   -0.8696 H   0  0  0  0  0  0  0  0  0  0  0  0
    2.0926   -0.7184    0.8717 C   0  0  0  0  0  0  0  0  0  0  0  0
    1.8068    0.0828    1.5580 H   0  0  0  0  0  0  0  0  0  0  0  0
    1.7745   -1.6751    1.2997 H   0  0  0  0  0  0  0  0  0  0  0  0
    3.6115   -0.7252    0.7228 C   0  0  0  0  0  0  0  0  0  0  0  0
    3.9193   -1.5577    0.0801 H   0  0  0  0  0  0  0  0  0  0  0  0
    3.9495    0.2072    0.2570 H   0  0  0  0  0  0  0  0  0  0  0  0
    4.2145   -0.8702    2.0510 N   0  0  0  0  0  0  0  0  0  0  0  0
    5.2306   -0.9391    1.9902 H   0  0  0  0  0  0  0  0  0  0  0  0
    3.9378   -0.1076    2.6680 H   0  0  0  0  0  0  0  0  0  0  0  0
   -1.1354    1.0462    1.1868 C   0  0  0  0  0  0  0  0  0  0  0  0
   -2.0425    1.6709    0.6482 O   0  0  0  0  0  0  0  0  0  0  0  0
   -0.3804    1.6566    2.1710 N   0  0  0  0  0  0  0  0  0  0  0  0
    0.3193    1.0901    2.6426 H   0  0  0  0  0  0  0  0  0  0  0  0
   -0.6038    3.0249    2.6205 C   0  0  0  0  0  0  0  0  0  0  0  0
   -1.6203    3.1388    3.0116 H   0  0  0  0  0  0  0  0  0  0  0  0
    0.1031    3.2820    3.4151 H   0  0  0  0  0  0  0  0  0  0  0  0
   -0.4637    3.7272    1.7921 H   0  0  0  0  0  0  0  0  0  0  0  0
  1  2  1  0  0  0  0
  2  3  1  0  0  0  0
  2  4  1  0  0  0  0
  2  5  1  0  0  0  0
  5  6  2  0  0  0  0
  5  7  1  0  0  0  0
  7  8  1  0  0  0  0
  7  9  1  0  0  0  0
  9 10  1  0  0  0  0
  9 11  1  0  0  0  0
  9 26  1  0  0  0  0
 11 12  1  0  0  0  0
 11 13  1  0  0  0  0
 11 14  1  0  0  0  0
 14 15  1  0  0  0  0
 14 16  1  0  0  0  0
 14 17  1  0  0  0  0
 17 18  1  0  0  0  0
 17 19  1  0  0  0  0
 17 20  1  0  0  0  0
 20 21  1  0  0  0  0
 20 22  1  0  0  0  0
 20 23  1  0  0  0  0
 23 24  1  0  0  0  0
 23 25  1  0  0  0  0
 26 27  2  0  0  0  0
 26 28  1  0  0  0  0
 28 29  1  0  0  0  0
 28 30  1  0  0  0  0
 30 31  1  0  0  0  0
 30 32  1  0  0  0  0
 30 33  1  0  0  0  0
M  END
$$$$

  -OEChem-03222214063D

 33 32  0     1  0  0  0  0  0999 V2000
   -3.7911   -4.0295    1.5450 H   0  0  0  0  0  0  0  0  0  0  0  0
   -3.7824   -3.0303    1.1006 C   0  0  0  0  0  0  0  0  0  0  0  0
   -4.5044   -2.4032    1.6292 H   0  0  0  0  0  0  0  0  0  0  0  0
   -4.0773   -3.1091    0.0514 H   0  0  0  0  0  0  0  0  0  0  0  0
   -2.3956   -2.4240    1.2048 C   0  0  0  0  0  0  0  0  0  0  0  0
   -1.4993   -3.0463    1.7518 O   0  0  0  0  0  0  0  0  0  0  0  0
   -2.1602   -1.1687    0.6831 N   0  0  0  0  0  0  0  0  0  0  0  0
   -2.9609   -0.6583    0.3148 H   0  0  0  0  0  0  0  0  0  0  0  0
   -0.8963   -0.4261    0.7961 C   0  0  1  0  0  0  0  0  0  0  0  0
   -0.3211   -0.8807    1.6048 H   0  0  0  0  0  0  0  0  0  0  0  0
   -0.1333   -0.5353   -0.5438 C   0  0  0  0  0  0  0  0  0  0  0  0
   -0.3850   -1.5081   -0.9796 H   0  0  0  0  0  0  0  0  0  0  0  0
   -0.4983    0.2261   -1.2413 H   0  0  0  0  0  0  0  0  0  0  0  0
    1.4102   -0.4841   -0.4882 C   0  0  0  0  0  0  0  0  0  0  0  0
    1.7980   -1.0269   -1.3569 H   0  0  0  0  0  0  0  0  0  0  0  0
    1.7166    0.5617   -0.5961 H   0  0  0  0  0  0  0  0  0  0  0  0
    2.0689   -1.0329    0.7868 C   0  0  0  0  0  0  0  0  0  0  0  0
    1.8290   -0.3908    1.6391 H   0  0  0  0  0  0  0  0  0  0  0  0
    1.6918   -2.0403    0.9941 H   0  0  0  0  0  0  0  0  0  0  0  0
    3.5857   -1.0887    0.6238 C   0  0  0  0  0  0  0  0  0  0  0  0
    3.8486   -1.7609   -0.2008 H   0  0  0  0  0  0  0  0  0  0  0  0
    3.9750   -0.0921    0.3875 H   0  0  0  0  0  0  0  0  0  0  0  0
    4.1778   -1.5770    1.8728 N   0  0  0  0  0  0  0  0  0  0  0  0
    5.1923   -1.6537    1.7979 H   0  0  0  0  0  0  0  0  0  0  0  0
    3.9132   -0.9903    2.6633 H   0  0  0  0  0  0  0  0  0  0  0  0
   -1.1235    1.0477    1.1785 C   0  0  0  0  0  0  0  0  0  0  0  0
   -2.0338    1.6813    0.6566 O   0  0  0  0  0  0  0  0  0  0  0  0
   -0.3458    1.6453    2.1528 N   0  0  0  0  0  0  0  0  0  0  0  0
    0.3616    1.0727    2.6045 H   0  0  0  0  0  0  0  0  0  0  0  0
   -0.5389    3.0178    2.6027 C   0  0  0  0  0  0  0  0  0  0  0  0
   -1.5449    3.1483    3.0153 H   0  0  0  0  0  0  0  0  0  0  0  0
    0.1891    3.2664    3.3809 H   0  0  0  0  0  0  0  0  0  0  0  0
   -0.4061    3.7155    1.7692 H   0  0  0  0  0  0  0  0  0  0  0  0
  1  2  1  0  0  0  0
  2  3  1  0  0  0  0
  2  4  1  0  0  0  0
  2  5  1  0  0  0  0
  5  6  2  0  0  0  0
  5  7  1  0  0  0  0
  7  8  1  0  0  0  0
  7  9  1  0  0  0  0
  9 10  1  0  0  0  0
  9 11  1  0  0  0  0
  9 26  1  0  0  0  0
 11 12  1  0  0  0  0
 11 13  1  0  0  0  0
 11 14  1  0  0  0  0
 14 15  1  0  0  0  0
 14 16  1  0  0  0  0
 14 17  1  0  0  0  0
 17 18  1  0  0  0  0
 17 19  1  0  0  0  0
 17 20  1  0  0  0  0
 20 21  1  0  0  0  0
 20 22  1  0  0  0  0
 20 23  1  0  0  0  0
 23 24  1  0  0  0  0
 23 25  1  0  0  0  0
 26 27  2  0  0  0  0
 26 28  1  0  0  0  0
 28 29  1  0  0  0  0
 28 30  1  0  0  0  0
 30 31  1  0  0  0  0
 30 32  1  0  0  0  0
 30 33  1  0  0  0  0
M  END
$$$$

  -OEChem-03222214063D

 33 32  0     1  0  0  0  0  0999 V2000
   -3.7559   -4.0351    1.5566 H   0  0  0  0  0  0  0  0  0  0  0  0
   -3.7528   -3.0372    1.1093 C   0  0  0  0  0  0  0  0  0  0  0  0
   -4.4776   -2.4121    1.6364 H   0  0  0  0  0  0  0  0  0  0  0  0
   -4.0482   -3.1208    0.0607 H   0  0  0  0  0  0  0  0  0  0  0  0
   -2.3692   -2.4230    1.2102 C   0  0  0  0  0  0  0  0  0  0  0  0
   -1.4694   -3.0365    1.7614 O   0  0  0  0  0  0  0  0  0  0  0  0
   -2.1424   -1.1674    0.6853 N   0  0  0  0  0  0  0  0  0  0  0  0
   -2.9465   -0.6628    0.3163 H   0  0  0  0  0  0  0  0  0  0  0  0
   -0.8796   -0.4217    0.7881 C   0  0  1  0  0  0  0  0  0  0  0  0
   -0.2932   -0.8717    1.5908 H   0  0  0  0  0  0  0  0  0  0  0  0
   -0.1257   -0.5245   -0.5564 C   0  0  0  0  0  0  0  0  0  0  0  0
   -0.3764   -1.4909   -1.0067 H   0  0  0  0  0  0  0  0  0  0  0  0
   -0.4865    0.2490   -1.2428 H   0  0  0  0  0  0  0  0  0  0  0  0
    1.4138   -0.4662   -0.4817 C   0  0  0  0  0  0  0  0  0  0  0  0
    1.8071   -0.7752   -1.4559 H   0  0  0  0  0  0  0  0  0  0  0  0
    1.7167    0.5740   -0.3223 H   0  0  0  0  0  0  0  0  0  0  0  0
    2.0541   -1.3295    0.6172 C   0  0  0  0  0  0  0  0  0  0  0  0
    1.8538   -0.9001    1.6027 H   0  0  0  0  0  0  0  0  0  0  0  0
    1.6285   -2.3386    0.5885 H   0  0  0  0  0  0  0  0  0  0  0  0
    3.5657   -1.4139    0.4193 C   0  0  0  0  0  0  0  0  0  0  0  0
    3.7930   -1.8617   -0.5547 H   0  0  0  0  0  0  0  0  0  0  0  0
    4.0027   -0.4095    0.4419 H   0  0  0  0  0  0  0  0  0  0  0  0
    4.1361   -2.2366    1.4900 N   0  0  0  0  0  0  0  0  0  0  0  0
    5.1493   -2.3131    1.4015 H   0  0  0  0  0  0  0  0  0  0  0  0
    3.8742   -1.8821    2.4095 H   0  0  0  0  0  0  0  0  0  0  0  0
   -1.1095    1.0517    1.1717 C   0  0  0  0  0  0  0  0  0  0  0  0
   -2.0252    1.6829    0.6563 O   0  0  0  0  0  0  0  0  0  0  0  0
   -0.3264    1.6517    2.1401 N   0  0  0  0  0  0  0  0  0  0  0  0
    0.3844    1.0808    2.5886 H   0  0  0  0  0  0  0  0  0  0  0  0
   -0.5239    3.0220    2.5953 C   0  0  0  0  0  0  0  0  0  0  0  0
   -1.5241    3.1435    3.0243 H   0  0  0  0  0  0  0  0  0  0  0  0
    0.2145    3.2758    3.3621 H   0  0  0  0  0  0  0  0  0  0  0  0
   -0.4103    3.7221    1.7609 H   0  0  0  0  0  0  0  0  0  0  0  0
  1  2  1  0  0  0  0
  2  3  1  0  0  0  0
  2  4  1  0  0  0  0
  2  5  1  0  0  0  0
  5  6  2  0  0  0  0
  5  7  1  0  0  0  0
  7  8  1  0  0  0  0
  7  9  1  0  0  0  0
  9 10  1  0  0  0  0
  9 11  1  0  0  0  0
  9 26  1  0  0  0  0
 11 12  1  0  0  0  0
 11 13  1  0  0  0  0
 11 14  1  0  0  0  0
 14 15  1  0  0  0  0
 14 16  1  0  0  0  0
 14 17  1  0  0  0  0
 17 18  1  0  0  0  0
 17 19  1  0  0  0  0
 17 20  1  0  0  0  0
 20 21  1  0  0  0  0
 20 22  1  0  0  0  0
 20 23  1  0  0  0  0
 23 24  1  0  0  0  0
 23 25  1  0  0  0  0
 26 27  2  0  0  0  0
 26 28  1  0  0  0  0
 28 29  1  0  0  0  0
 28 30  1  0  0  0  0
 30 31  1  0  0  0  0
 30 32  1  0  0  0  0
 30 33  1  0  0  0  0
M  END
$$$$

  -OEChem-03222214063D

 33 32  0     1  0  0  0  0  0999 V2000
   -3.7227   -4.0315    1.5873 H   0  0  0  0  0  0  0  0  0  0  0  0
   -3.7268   -3.0353    1.1362 C   0  0  0  0  0  0  0  0  0  0  0  0
   -4.4456   -2.4092    1.6704 H   0  0  0  0  0  0  0  0  0  0  0  0
   -4.0351   -3.1230    0.0916 H   0  0  0  0  0  0  0  0  0  0  0  0
   -2.3426   -2.4197    1.2166 C   0  0  0  0  0  0  0  0  0  0  0  0
   -1.4343   -3.0322    1.7554 O   0  0  0  0  0  0  0  0  0  0  0  0
   -2.1230   -1.1640    0.6891 N   0  0  0  0  0  0  0  0  0  0  0  0
   -2.9304   -0.6571    0.3305 H   0  0  0  0  0  0  0  0  0  0  0  0
   -0.8551   -0.4257    0.7726 C   0  0  1  0  0  0  0  0  0  0  0  0
   -0.2487   -0.8734    1.5615 H   0  0  0  0  0  0  0  0  0  0  0  0
   -0.1285   -0.5269   -0.5858 C   0  0  0  0  0  0  0  0  0  0  0  0
   -0.3956   -1.4793   -1.0566 H   0  0  0  0  0  0  0  0  0  0  0  0
   -0.4838    0.2681   -1.2503 H   0  0  0  0  0  0  0  0  0  0  0  0
    1.4081   -0.4763   -0.5038 C   0  0  0  0  0  0  0  0  0  0  0  0
    1.8009   -0.5365   -1.5243 H   0  0  0  0  0  0  0  0  0  0  0  0
    1.7154    0.4894   -0.0892 H   0  0  0  0  0  0  0  0  0  0  0  0
    2.0280   -1.6066    0.3343 C   0  0  0  0  0  0  0  0  0  0  0  0
    1.7795   -1.4869    1.3918 H   0  0  0  0  0  0  0  0  0  0  0  0
    1.6295   -2.5703   -0.0004 H   0  0  0  0  0  0  0  0  0  0  0  0
    3.5474   -1.6117    0.1878 C   0  0  0  0  0  0  0  0  0  0  0  0
    3.8253   -1.7179   -0.8667 H   0  0  0  0  0  0  0  0  0  0  0  0
    3.9617   -0.6665    0.5552 H   0  0  0  0  0  0  0  0  0  0  0  0
    4.0890   -2.7348    0.9580 N   0  0  0  0  0  0  0  0  0  0  0  0
    5.1077   -2.7577    0.9182 H   0  0  0  0  0  0  0  0  0  0  0  0
    3.7595   -2.7150    1.9232 H   0  0  0  0  0  0  0  0  0  0  0  0
   -1.0812    1.0469    1.1641 C   0  0  0  0  0  0  0  0  0  0  0  0
   -2.0061    1.6778    0.6650 O   0  0  0  0  0  0  0  0  0  0  0  0
   -0.2855    1.6471    2.1224 N   0  0  0  0  0  0  0  0  0  0  0  0
    0.4296    1.0759    2.5637 H   0  0  0  0  0  0  0  0  0  0  0  0
   -0.4861    3.0138    2.5879 C   0  0  0  0  0  0  0  0  0  0  0  0
   -1.4763    3.1227    3.0430 H   0  0  0  0  0  0  0  0  0  0  0  0
    0.2690    3.2731    3.3362 H   0  0  0  0  0  0  0  0  0  0  0  0
   -0.4020    3.7187    1.7540 H   0  0  0  0  0  0  0  0  0  0  0  0
  1  2  1  0  0  0  0
  2  3  1  0  0  0  0
  2  4  1  0  0  0  0
  2  5  1  0  0  0  0
  5  6  2  0  0  0  0
  5  7  1  0  0  0  0
  7  8  1  0  0  0  0
  7  9  1  0  0  0  0
  9 10  1  0  0  0  0
  9 11  1  0  0  0  0
  9 26  1  0  0  0  0
 11 12  1  0  0  0  0
 11 13  1  0  0  0  0
 11 14  1  0  0  0  0
 14 15  1  0  0  0  0
 14 16  1  0  0  0  0
 14 17  1  0  0  0  0
 17 18  1  0  0  0  0
 17 19  1  0  0  0  0
 17 20  1  0  0  0  0
 20 21  1  0  0  0  0
 20 22  1  0  0  0  0
 20 23  1  0  0  0  0
 23 24  1  0  0  0  0
 23 25  1  0  0  0  0
 26 27  2  0  0  0  0
 26 28  1  0  0  0  0
 28 29  1  0  0  0  0
 28 30  1  0  0  0  0
 30 31  1  0  0  0  0
 30 32  1  0  0  0  0
 30 33  1  0  0  0  0
M  END
$$$$

  -OEChem-03222214063D

 33 32  0     1  0  0  0  0  0999 V2000
   -3.6673   -4.0471    1.6355 H   0  0  0  0  0  0  0  0  0  0  0  0
   -3.6843   -3.0541    1.1775 C   0  0  0  0  0  0  0  0  0  0  0  0
   -4.3904   -2.4253    1.7251 H   0  0  0  0  0  0  0  0  0  0  0  0
   -4.0188   -3.1499    0.1418 H   0  0  0  0  0  0  0  0  0  0  0  0
   -2.3000   -2.4353    1.2182 C   0  0  0  0  0  0  0  0  0  0  0  0
   -1.3715   -3.0519    1.7170 O   0  0  0  0  0  0  0  0  0  0  0  0
   -2.1014   -1.1730    0.6980 N   0  0  0  0  0  0  0  0  0  0  0  0
   -2.9210   -0.6633    0.3725 H   0  0  0  0  0  0  0  0  0  0  0  0
   -0.8305   -0.4372    0.7408 C   0  0  1  0  0  0  0  0  0  0  0  0
   -0.1833   -0.8931    1.4945 H   0  0  0  0  0  0  0  0  0  0  0  0
   -0.1588   -0.5245   -0.6451 C   0  0  0  0  0  0  0  0  0  0  0  0
   -0.4487   -1.4591   -1.1378 H   0  0  0  0  0  0  0  0  0  0  0  0
   -0.5211    0.2949   -1.2753 H   0  0  0  0  0  0  0  0  0  0  0  0
    1.3756   -0.4743   -0.5733 C   0  0  0  0  0  0  0  0  0  0  0  0
    1.7626   -0.2714   -1.5773 H   0  0  0  0  0  0  0  0  0  0  0  0
    1.6900    0.3512    0.0735 H   0  0  0  0  0  0  0  0  0  0  0  0
    1.9789   -1.7963   -0.0742 C   0  0  0  0  0  0  0  0  0  0  0  0
    1.6052   -2.0378    0.9249 H   0  0  0  0  0  0  0  0  0  0  0  0
    1.6817   -2.6082   -0.7462 H   0  0  0  0  0  0  0  0  0  0  0  0
    3.5015   -1.7114   -0.0298 C   0  0  0  0  0  0  0  0  0  0  0  0
    3.8947   -1.4547   -1.0198 H   0  0  0  0  0  0  0  0  0  0  0  0
    3.8116   -0.9304    0.6730 H   0  0  0  0  0  0  0  0  0  0  0  0
    4.0280   -3.0115    0.3938 N   0  0  0  0  0  0  0  0  0  0  0  0
    5.0428   -2.9891    0.4917 H   0  0  0  0  0  0  0  0  0  0  0  0
    3.5833   -3.3249    1.2571 H   0  0  0  0  0  0  0  0  0  0  0  0
   -1.0436    1.0303    1.1603 C   0  0  0  0  0  0  0  0  0  0  0  0
   -1.9851    1.6669    0.7011 O   0  0  0  0  0  0  0  0  0  0  0  0
   -0.2130    1.6210    2.0949 N   0  0  0  0  0  0  0  0  0  0  0  0
    0.5148    1.0446    2.5075 H   0  0  0  0  0  0  0  0  0  0  0  0
   -0.3948    2.9837    2.5795 C   0  0  0  0  0  0  0  0  0  0  0  0
   -1.3750    3.0938    3.0554 H   0  0  0  0  0  0  0  0  0  0  0  0
    0.3764    3.2296    3.3158 H   0  0  0  0  0  0  0  0  0  0  0  0
   -0.3222    3.6976    1.7521 H   0  0  0  0  0  0  0  0  0  0  0  0
  1  2  1  0  0  0  0
  2  3  1  0  0  0  0
  2  4  1  0  0  0  0
  2  5  1  0  0  0  0
  5  6  2  0  0  0  0
  5  7  1  0  0  0  0
  7  8  1  0  0  0  0
  7  9  1  0  0  0  0
  9 10  1  0  0  0  0
  9 11  1  0  0  0  0
  9 26  1  0  0  0  0
 11 12  1  0  0  0  0
 11 13  1  0  0  0  0
 11 14  1  0  0  0  0
 14 15  1  0  0  0  0
 14 16  1  0  0  0  0
 14 17  1  0  0  0  0
 17 18  1  0  0  0  0
 17 19  1  0  0  0  0
 17 20  1  0  0  0  0
 20 21  1  0  0  0  0
 20 22  1  0  0  0  0
 20 23  1  0  0  0  0
 23 24  1  0  0  0  0
 23 25  1  0  0  0  0
 26 27  2  0  0  0  0
 26 28  1  0  0  0  0
 28 29  1  0  0  0  0
 28 30  1  0  0  0  0
 30 31  1  0  0  0  0
 30 32  1  0  0  0  0
 30 33  1  0  0  0  0
M  END
$$$$

  -OEChem-03222214063D

 33 32  0     1  0  0  0  0  0999 V2000
   -3.6172   -4.0647    1.6435 H   0  0  0  0  0  0  0  0  0  0  0  0
   -3.6469   -3.0710    1.1880 C   0  0  0  0  0  0  0  0  0  0  0  0
   -4.3486   -2.4476    1.7474 H   0  0  0  0  0  0  0  0  0  0  0  0
   -3.9961   -3.1666    0.1571 H   0  0  0  0  0  0  0  0  0  0  0  0
   -2.2654   -2.4445    1.2093 C   0  0  0  0  0  0  0  0  0  0  0  0
   -1.3239   -3.0619    1.6826 O   0  0  0  0  0  0  0  0  0  0  0  0
   -2.0824   -1.1769    0.6964 N   0  0  0  0  0  0  0  0  0  0  0  0
   -2.9102   -0.6676    0.3917 H   0  0  0  0  0  0  0  0  0  0  0  0
   -0.8145   -0.4351    0.7223 C   0  0  1  0  0  0  0  0  0  0  0  0
   -0.1451   -0.8986    1.4541 H   0  0  0  0  0  0  0  0  0  0  0  0
   -0.1684   -0.5145   -0.6743 C   0  0  0  0  0  0  0  0  0  0  0  0
   -0.4691   -1.4394   -1.1784 H   0  0  0  0  0  0  0  0  0  0  0  0
   -0.5358    0.3156   -1.2874 H   0  0  0  0  0  0  0  0  0  0  0  0
    1.3657   -0.4562   -0.6001 C   0  0  0  0  0  0  0  0  0  0  0  0
    1.7443   -0.0053   -1.5235 H   0  0  0  0  0  0  0  0  0  0  0  0
    1.6862    0.1804    0.2310 H   0  0  0  0  0  0  0  0  0  0  0  0
    1.9645   -1.8623   -0.4664 C   0  0  0  0  0  0  0  0  0  0  0  0
    1.5456   -2.3618    0.4134 H   0  0  0  0  0  0  0  0  0  0  0  0
    1.7021   -2.4582   -1.3469 H   0  0  0  0  0  0  0  0  0  0  0  0
    3.4831   -1.7988   -0.3363 C   0  0  0  0  0  0  0  0  0  0  0  0
    3.9155   -1.2860   -1.2028 H   0  0  0  0  0  0  0  0  0  0  0  0
    3.7585   -1.2384    0.5640 H   0  0  0  0  0  0  0  0  0  0  0  0
    4.0002   -3.1677   -0.2570 N   0  0  0  0  0  0  0  0  0  0  0  0
    5.0112   -3.1764   -0.1230 H   0  0  0  0  0  0  0  0  0  0  0  0
    3.5290   -3.6955    0.4788 H   0  0  0  0  0  0  0  0  0  0  0  0
   -1.0307    1.0275    1.1584 C   0  0  0  0  0  0  0  0  0  0  0  0
   -1.9844    1.6602    0.7192 O   0  0  0  0  0  0  0  0  0  0  0  0
   -0.1897    1.6186    2.0834 N   0  0  0  0  0  0  0  0  0  0  0  0
    0.5463    1.0443    2.4841 H   0  0  0  0  0  0  0  0  0  0  0  0
   -0.3792    2.9745    2.5844 C   0  0  0  0  0  0  0  0  0  0  0  0
   -1.3528    3.0687    3.0768 H   0  0  0  0  0  0  0  0  0  0  0  0
    0.4009    3.2221    3.3107 H   0  0  0  0  0  0  0  0  0  0  0  0
   -0.3279    3.6972    1.7632 H   0  0  0  0  0  0  0  0  0  0  0  0
  1  2  1  0  0  0  0
  2  3  1  0  0  0  0
  2  4  1  0  0  0  0
  2  5  1  0  0  0  0
  5  6  2  0  0  0  0
  5  7  1  0  0  0  0
  7  8  1  0  0  0  0
  7  9  1  0  0  0  0
  9 10  1  0  0  0  0
  9 11  1  0  0  0  0
  9 26  1  0  0  0  0
 11 12  1  0  0  0  0
 11 13  1  0  0  0  0
 11 14  1  0  0  0  0
 14 15  1  0  0  0  0
 14 16  1  0  0  0  0
 14 17  1  0  0  0  0
 17 18  1  0  0  0  0
 17 19  1  0  0  0  0
 17 20  1  0  0  0  0
 20 21  1  0  0  0  0
 20 22  1  0  0  0  0
 20 23  1  0  0  0  0
 23 24  1  0  0  0  0
 23 25  1  0  0  0  0
 26 27  2  0  0  0  0
 26 28  1  0  0  0  0
 28 29  1  0  0  0  0
 28 30  1  0  0  0  0
 30 31  1  0  0  0  0
 30 32  1  0  0  0  0
 30 33  1  0  0  0  0
M  END
$$$$

  -OEChem-03222214063D

 33 32  0     1  0  0  0  0  0999 V2000
   -3.6366   -4.0591    1.6405 H   0  0  0  0  0  0  0  0  0  0  0  0
   -3.6629   -3.0653    1.1849 C   0  0  0  0  0  0  0  0  0  0  0  0
   -4.3579   -2.4379    1.7481 H   0  0  0  0  0  0  0  0  0  0  0  0
   -4.0187   -3.1589    0.1560 H   0  0  0  0  0  0  0  0  0  0  0  0
   -2.2776   -2.4467    1.1988 C   0  0  0  0  0  0  0  0  0  0  0  0
   -1.3362   -3.0702    1.6640 O   0  0  0  0  0  0  0  0  0  0  0  0
   -2.0912   -1.1782    0.6892 N   0  0  0  0  0  0  0  0  0  0  0  0
   -2.9188   -0.6643    0.3911 H   0  0  0  0  0  0  0  0  0  0  0  0
   -0.8224   -0.4379    0.7201 C   0  0  1  0  0  0  0  0  0  0  0  0
   -0.1586   -0.9069    1.4539 H   0  0  0  0  0  0  0  0  0  0  0  0
   -0.1684   -0.5172   -0.6724 C   0  0  0  0  0  0  0  0  0  0  0  0
   -0.4720   -1.4428   -1.1737 H   0  0  0  0  0  0  0  0  0  0  0  0
   -0.5340    0.3103   -1.2902 H   0  0  0  0  0  0  0  0  0  0  0  0
    1.3680   -0.4596   -0.5923 C   0  0  0  0  0  0  0  0  0  0  0  0
    1.7341    0.2221   -1.3673 H   0  0  0  0  0  0  0  0  0  0  0  0
    1.6937   -0.0593    0.3731 H   0  0  0  0  0  0  0  0  0  0  0  0
    1.9845   -1.8434   -0.8293 C   0  0  0  0  0  0  0  0  0  0  0  0
    1.5814   -2.5537   -0.0995 H   0  0  0  0  0  0  0  0  0  0  0  0
    1.7168   -2.1984   -1.8301 H   0  0  0  0  0  0  0  0  0  0  0  0
    3.5040   -1.7955   -0.7015 C   0  0  0  0  0  0  0  0  0  0  0  0
    3.9205   -1.0786   -1.4178 H   0  0  0  0  0  0  0  0  0  0  0  0
    3.7854   -1.4725    0.3070 H   0  0  0  0  0  0  0  0  0  0  0  0
    4.0352   -3.1348   -0.9696 N   0  0  0  0  0  0  0  0  0  0  0  0
    5.0492   -3.1600   -0.8627 H   0  0  0  0  0  0  0  0  0  0  0  0
    3.5880   -3.8321   -0.3735 H   0  0  0  0  0  0  0  0  0  0  0  0
   -1.0348    1.0245    1.1584 C   0  0  0  0  0  0  0  0  0  0  0  0
   -1.9877    1.6595    0.7211 O   0  0  0  0  0  0  0  0  0  0  0  0
   -0.1940    1.6115    2.0861 N   0  0  0  0  0  0  0  0  0  0  0  0
    0.5424    1.0360    2.4844 H   0  0  0  0  0  0  0  0  0  0  0  0
   -0.3789    2.9683    2.5861 C   0  0  0  0  0  0  0  0  0  0  0  0
   -1.3513    3.0660    3.0802 H   0  0  0  0  0  0  0  0  0  0  0  0
    0.4034    3.2146    3.3103 H   0  0  0  0  0  0  0  0  0  0  0  0
   -0.3277    3.6894    1.7635 H   0  0  0  0  0  0  0  0  0  0  0  0
  1  2  1  0  0  0  0
  2  3  1  0  0  0  0
  2  4  1  0  0  0  0
  2  5  1  0  0  0  0
  5  6  2  0  0  0  0
  5  7  1  0  0  0  0
  7  8  1  0  0  0  0
  7  9  1  0  0  0  0
  9 10  1  0  0  0  0
  9 11  1  0  0  0  0
  9 26  1  0  0  0  0
 11 12  1  0  0  0  0
 11 13  1  0  0  0  0
 11 14  1  0  0  0  0
 14 15  1  0  0  0  0
 14 16  1  0  0  0  0
 14 17  1  0  0  0  0
 17 18  1  0  0  0  0
 17 19  1  0  0  0  0
 17 20  1  0  0  0  0
 20 21  1  0  0  0  0
 20 22  1  0  0  0  0
 20 23  1  0  0  0  0
 23 24  1  0  0  0  0
 23 25  1  0  0  0  0
 26 27  2  0  0  0  0
 26 28  1  0  0  0  0
 28 29  1  0  0  0  0
 28 30  1  0  0  0  0
 30 31  1  0  0  0  0
 30 32  1  0  0  0  0
 30 33  1  0  0  0  0
M  END
$$$$

  -OEChem-03222214063D

 33 32  0     1  0  0  0  0  0999 V2000
   -3.6819   -4.0453    1.6382 H   0  0  0  0  0  0  0  0  0  0  0  0
   -3.6971   -3.0539    1.1768 C   0  0  0  0  0  0  0  0  0  0  0  0
   -4.3907   -2.4176    1.7317 H   0  0  0  0  0  0  0  0  0  0  0  0
   -4.0467   -3.1501    0.1461 H   0  0  0  0  0  0  0  0  0  0  0  0
   -2.3071   -2.4466    1.1967 C   0  0  0  0  0  0  0  0  0  0  0  0
   -1.3735   -3.0761    1.6695 O   0  0  0  0  0  0  0  0  0  0  0  0
   -2.1082   -1.1802    0.6869 N   0  0  0  0  0  0  0  0  0  0  0  0
   -2.9298   -0.6624    0.3795 H   0  0  0  0  0  0  0  0  0  0  0  0
   -0.8360   -0.4460    0.7295 C   0  0  1  0  0  0  0  0  0  0  0  0
   -0.1868   -0.9188    1.4731 H   0  0  0  0  0  0  0  0  0  0  0  0
   -0.1660   -0.5261   -0.6561 C   0  0  0  0  0  0  0  0  0  0  0  0
   -0.4669   -1.4612   -1.1412 H   0  0  0  0  0  0  0  0  0  0  0  0
   -0.5291    0.2883   -1.2922 H   0  0  0  0  0  0  0  0  0  0  0  0
    1.3726   -0.4752   -0.5725 C   0  0  0  0  0  0  0  0  0  0  0  0
    1.7277    0.3995   -1.1278 H   0  0  0  0  0  0  0  0  0  0  0  0
    1.7038   -0.3574    0.4642 H   0  0  0  0  0  0  0  0  0  0  0  0
    2.0048   -1.7404   -1.1648 C   0  0  0  0  0  0  0  0  0  0  0  0
    1.6418   -2.6199   -0.6225 H   0  0  0  0  0  0  0  0  0  0  0  0
    1.7071   -1.8421   -2.2137 H   0  0  0  0  0  0  0  0  0  0  0  0
    3.5269   -1.6837   -1.0773 C   0  0  0  0  0  0  0  0  0  0  0  0
    3.9021   -0.8074   -1.6175 H   0  0  0  0  0  0  0  0  0  0  0  0
    3.8402   -1.5994   -0.0308 H   0  0  0  0  0  0  0  0  0  0  0  0
    4.0727   -2.9077   -1.6706 N   0  0  0  0  0  0  0  0  0  0  0  0
    5.0912   -2.9216   -1.6201 H   0  0  0  0  0  0  0  0  0  0  0  0
    3.6747   -3.7371   -1.2291 H   0  0  0  0  0  0  0  0  0  0  0  0
   -1.0414    1.0185    1.1621 C   0  0  0  0  0  0  0  0  0  0  0  0
   -1.9851    1.6602    0.7152 O   0  0  0  0  0  0  0  0  0  0  0  0
   -0.2040    1.5994    2.0966 N   0  0  0  0  0  0  0  0  0  0  0  0
    0.5271    1.0196    2.4983 H   0  0  0  0  0  0  0  0  0  0  0  0
   -0.3690    2.9648    2.5800 C   0  0  0  0  0  0  0  0  0  0  0  0
   -1.3482    3.0892    3.0541 H   0  0  0  0  0  0  0  0  0  0  0  0
    0.4045    3.2004    3.3171 H   0  0  0  0  0  0  0  0  0  0  0  0
   -0.2854    3.6764    1.7519 H   0  0  0  0  0  0  0  0  0  0  0  0
  1  2  1  0  0  0  0
  2  3  1  0  0  0  0
  2  4  1  0  0  0  0
  2  5  1  0  0  0  0
  5  6  2  0  0  0  0
  5  7  1  0  0  0  0
  7  8  1  0  0  0  0
  7  9  1  0  0  0  0
  9 10  1  0  0  0  0
  9 11  1  0  0  0  0
  9 26  1  0  0  0  0
 11 12  1  0  0  0  0
 11 13  1  0  0  0  0
 11 14  1  0  0  0  0
 14 15  1  0  0  0  0
 14 16  1  0  0  0  0
 14 17  1  0  0  0  0
 17 18  1  0  0  0  0
 17 19  1  0  0  0  0
 17 20  1  0  0  0  0
 20 21  1  0  0  0  0
 20 22  1  0  0  0  0
 20 23  1  0  0  0  0
 23 24  1  0  0  0  0
 23 25  1  0  0  0  0
 26 27  2  0  0  0  0
 26 28  1  0  0  0  0
 28 29  1  0  0  0  0
 28 30  1  0  0  0  0
 30 31  1  0  0  0  0
 30 32  1  0  0  0  0
 30 33  1  0  0  0  0
M  END
$$$$

  -OEChem-03222214063D

 33 32  0     1  0  0  0  0  0999 V2000
   -3.7115   -4.0329    1.6369 H   0  0  0  0  0  0  0  0  0  0  0  0
   -3.7182   -3.0416    1.1752 C   0  0  0  0  0  0  0  0  0  0  0  0
   -4.4094   -2.4005    1.7277 H   0  0  0  0  0  0  0  0  0  0  0  0
   -4.0647   -3.1357    0.1433 H   0  0  0  0  0  0  0  0  0  0  0  0
   -2.3242   -2.4433    1.1996 C   0  0  0  0  0  0  0  0  0  0  0  0
   -1.3960   -3.0779    1.6762 O   0  0  0  0  0  0  0  0  0  0  0  0
   -2.1154   -1.1796    0.6874 N   0  0  0  0  0  0  0  0  0  0  0  0
   -2.9329   -0.6580    0.3754 H   0  0  0  0  0  0  0  0  0  0  0  0
   -0.8398   -0.4516    0.7337 C   0  0  1  0  0  0  0  0  0  0  0  0
   -0.1986   -0.9245    1.4841 H   0  0  0  0  0  0  0  0  0  0  0  0
   -0.1640   -0.5347   -0.6492 C   0  0  0  0  0  0  0  0  0  0  0  0
   -0.4600   -1.4821   -1.1131 H   0  0  0  0  0  0  0  0  0  0  0  0
   -0.5275    0.2652   -1.3034 H   0  0  0  0  0  0  0  0  0  0  0  0
    1.3745   -0.4908   -0.5646 C   0  0  0  0  0  0  0  0  0  0  0  0
    1.7209    0.5074   -0.8522 H   0  0  0  0  0  0  0  0  0  0  0  0
    1.7100   -0.6721    0.4613 H   0  0  0  0  0  0  0  0  0  0  0  0
    2.0122   -1.5516   -1.4702 C   0  0  0  0  0  0  0  0  0  0  0  0
    1.6792   -2.5481   -1.1615 H   0  0  0  0  0  0  0  0  0  0  0  0
    1.6900   -1.3915   -2.5046 H   0  0  0  0  0  0  0  0  0  0  0  0
    3.5350   -1.4836   -1.4009 C   0  0  0  0  0  0  0  0  0  0  0  0
    3.8817   -0.4917   -1.7117 H   0  0  0  0  0  0  0  0  0  0  0  0
    3.8719   -1.6557   -0.3726 H   0  0  0  0  0  0  0  0  0  0  0  0
    4.0887   -2.5076   -2.2917 N   0  0  0  0  0  0  0  0  0  0  0  0
    5.1084   -2.5061   -2.2691 H   0  0  0  0  0  0  0  0  0  0  0  0
    3.7208   -3.4308   -2.0607 H   0  0  0  0  0  0  0  0  0  0  0  0
   -1.0392    1.0148    1.1609 C   0  0  0  0  0  0  0  0  0  0  0  0
   -1.9781    1.6600    0.7087 O   0  0  0  0  0  0  0  0  0  0  0  0
   -0.2027    1.5938    2.0972 N   0  0  0  0  0  0  0  0  0  0  0  0
    0.5265    1.0129    2.5007 H   0  0  0  0  0  0  0  0  0  0  0  0
   -0.3637    2.9610    2.5760 C   0  0  0  0  0  0  0  0  0  0  0  0
   -1.3448    3.0909    3.0448 H   0  0  0  0  0  0  0  0  0  0  0  0
    0.4071    3.1956    3.3165 H   0  0  0  0  0  0  0  0  0  0  0  0
   -0.2730    3.6697    1.7460 H   0  0  0  0  0  0  0  0  0  0  0  0
  1  2  1  0  0  0  0
  2  3  1  0  0  0  0
  2  4  1  0  0  0  0
  2  5  1  0  0  0  0
  5  6  2  0  0  0  0
  5  7  1  0  0  0  0
  7  8  1  0  0  0  0
  7  9  1  0  0  0  0
  9 10  1  0  0  0  0
  9 11  1  0  0  0  0
  9 26  1  0  0  0  0
 11 12  1  0  0  0  0
 11 13  1  0  0  0  0
 11 14  1  0  0  0  0
 14 15  1  0  0  0  0
 14 16  1  0  0  0  0
 14 17  1  0  0  0  0
 17 18  1  0  0  0  0
 17 19  1  0  0  0  0
 17 20  1  0  0  0  0
 20 21  1  0  0  0  0
 20 22  1  0  0  0  0
 20 23  1  0  0  0  0
 23 24  1  0  0  0  0
 23 25  1  0  0  0  0
 26 27  2  0  0  0  0
 26 28  1  0  0  0  0
 28 29  1  0  0  0  0
 28 30  1  0  0  0  0
 30 31  1  0  0  0  0
 30 32  1  0  0  0  0
 30 33  1  0  0  0  0
M  END
$$$$

  -OEChem-03222214063D

 33 32  0     1  0  0  0  0  0999 V2000
   -3.7146   -4.0306    1.6402 H   0  0  0  0  0  0  0  0  0  0  0  0
   -3.7220   -3.0403    1.1764 C   0  0  0  0  0  0  0  0  0  0  0  0
   -4.4146   -2.3993    1.7274 H   0  0  0  0  0  0  0  0  0  0  0  0
   -4.0676   -3.1371    0.1443 H   0  0  0  0  0  0  0  0  0  0  0  0
   -2.3283   -2.4412    1.2000 C   0  0  0  0  0  0  0  0  0  0  0  0
   -1.3994   -3.0777    1.6727 O   0  0  0  0  0  0  0  0  0  0  0  0
   -2.1180   -1.1783    0.6861 N   0  0  0  0  0  0  0  0  0  0  0  0
   -2.9351   -0.6537    0.3781 H   0  0  0  0  0  0  0  0  0  0  0  0
   -0.8398   -0.4544    0.7296 C   0  0  1  0  0  0  0  0  0  0  0  0
   -0.1970   -0.9270    1.4784 H   0  0  0  0  0  0  0  0  0  0  0  0
   -0.1668   -0.5383   -0.6542 C   0  0  0  0  0  0  0  0  0  0  0  0
   -0.4575   -1.4904   -1.1116 H   0  0  0  0  0  0  0  0  0  0  0  0
   -0.5292    0.2588   -1.3124 H   0  0  0  0  0  0  0  0  0  0  0  0
    1.3687   -0.4989   -0.5642 C   0  0  0  0  0  0  0  0  0  0  0  0
    1.7080    0.5423   -0.5737 H   0  0  0  0  0  0  0  0  0  0  0  0
    1.7042   -0.9524    0.3740 H   0  0  0  0  0  0  0  0  0  0  0  0
    2.0052   -1.2814   -1.7188 C   0  0  0  0  0  0  0  0  0  0  0  0
    1.6868   -2.3281   -1.6758 H   0  0  0  0  0  0  0  0  0  0  0  0
    1.6677   -0.8637   -2.6733 H   0  0  0  0  0  0  0  0  0  0  0  0
    3.5277   -1.2127   -1.6480 C   0  0  0  0  0  0  0  0  0  0  0  0
    3.8596   -0.1698   -1.6995 H   0  0  0  0  0  0  0  0  0  0  0  0
    3.8790   -1.6358   -0.7003 H   0  0  0  0  0  0  0  0  0  0  0  0
    4.0814   -1.9701   -2.7740 N   0  0  0  0  0  0  0  0  0  0  0  0
    5.1013   -1.9606   -2.7605 H   0  0  0  0  0  0  0  0  0  0  0  0
    3.7266   -2.9265   -2.7811 H   0  0  0  0  0  0  0  0  0  0  0  0
   -1.0349    1.0130    1.1563 C   0  0  0  0  0  0  0  0  0  0  0  0
   -1.9754    1.6589    0.7085 O   0  0  0  0  0  0  0  0  0  0  0  0
   -0.1953    1.5903    2.0911 N   0  0  0  0  0  0  0  0  0  0  0  0
    0.5382    1.0099    2.4875 H   0  0  0  0  0  0  0  0  0  0  0  0
   -0.3526    2.9573    2.5723 C   0  0  0  0  0  0  0  0  0  0  0  0
   -1.3356    3.0905    3.0362 H   0  0  0  0  0  0  0  0  0  0  0  0
    0.4151    3.1859    3.3178 H   0  0  0  0  0  0  0  0  0  0  0  0
   -0.2540    3.6681    1.7450 H   0  0  0  0  0  0  0  0  0  0  0  0
  1  2  1  0  0  0  0
  2  3  1  0  0  0  0
  2  4  1  0  0  0  0
  2  5  1  0  0  0  0
  5  6  2  0  0  0  0
  5  7  1  0  0  0  0
  7  8  1  0  0  0  0
  7  9  1  0  0  0  0
  9 10  1  0  0  0  0
  9 11  1  0  0  0  0
  9 26  1  0  0  0  0
 11 12  1  0  0  0  0
 11 13  1  0  0  0  0
 11 14  1  0  0  0  0
 14 15  1  0  0  0  0
 14 16  1  0  0  0  0
 14 17  1  0  0  0  0
 17 18  1  0  0  0  0
 17 19  1  0  0  0  0
 17 20  1  0  0  0  0
 20 21  1  0  0  0  0
 20 22  1  0  0  0  0
 20 23  1  0  0  0  0
 23 24  1  0  0  0  0
 23 25  1  0  0  0  0
 26 27  2  0  0  0  0
 26 28  1  0  0  0  0
 28 29  1  0  0  0  0
 28 30  1  0  0  0  0
 30 31  1  0  0  0  0
 30 32  1  0  0  0  0
 30 33  1  0  0  0  0
M  END
$$$$

  -OEChem-03222214063D

 33 32  0     1  0  0  0  0  0999 V2000
   -3.7130   -4.0261    1.6521 H   0  0  0  0  0  0  0  0  0  0  0  0
   -3.7214   -3.0348    1.1904 C   0  0  0  0  0  0  0  0  0  0  0  0
   -4.4007   -2.3900    1.7533 H   0  0  0  0  0  0  0  0  0  0  0  0
   -4.0844   -3.1272    0.1640 H   0  0  0  0  0  0  0  0  0  0  0  0
   -2.3241   -2.4437    1.1935 C   0  0  0  0  0  0  0  0  0  0  0  0
   -1.3911   -3.0845    1.6523 O   0  0  0  0  0  0  0  0  0  0  0  0
   -2.1170   -1.1801    0.6806 N   0  0  0  0  0  0  0  0  0  0  0  0
   -2.9376   -0.6519    0.3879 H   0  0  0  0  0  0  0  0  0  0  0  0
   -0.8387   -0.4562    0.7162 C   0  0  1  0  0  0  0  0  0  0  0  0
   -0.1885   -0.9289    1.4595 H   0  0  0  0  0  0  0  0  0  0  0  0
   -0.1736   -0.5413   -0.6698 C   0  0  0  0  0  0  0  0  0  0  0  0
   -0.4593   -1.4916   -1.1336 H   0  0  0  0  0  0  0  0  0  0  0  0
   -0.5356    0.2619   -1.3207 H   0  0  0  0  0  0  0  0  0  0  0  0
    1.3581   -0.5009   -0.5715 C   0  0  0  0  0  0  0  0  0  0  0  0
    1.6831    0.5148   -0.3225 H   0  0  0  0  0  0  0  0  0  0  0  0
    1.6970   -1.1717    0.2253 H   0  0  0  0  0  0  0  0  0  0  0  0
    1.9950   -0.9513   -1.8908 C   0  0  0  0  0  0  0  0  0  0  0  0
    1.6764   -1.9722   -2.1252 H   0  0  0  0  0  0  0  0  0  0  0  0
    1.6577   -0.2969   -2.7015 H   0  0  0  0  0  0  0  0  0  0  0  0
    3.5176   -0.9034   -1.8044 C   0  0  0  0  0  0  0  0  0  0  0  0
    3.8486    0.1142   -1.5691 H   0  0  0  0  0  0  0  0  0  0  0  0
    3.8693   -1.5690   -1.0082 H   0  0  0  0  0  0  0  0  0  0  0  0
    4.0731   -1.3226   -3.0945 N   0  0  0  0  0  0  0  0  0  0  0  0
    5.0929   -1.3086   -3.0804 H   0  0  0  0  0  0  0  0  0  0  0  0
    3.7255   -2.2440   -3.3610 H   0  0  0  0  0  0  0  0  0  0  0  0
   -1.0316    1.0106    1.1471 C   0  0  0  0  0  0  0  0  0  0  0  0
   -1.9783    1.6551    0.7104 O   0  0  0  0  0  0  0  0  0  0  0  0
   -0.1859    1.5871    2.0769 N   0  0  0  0  0  0  0  0  0  0  0  0
    0.5528    1.0080    2.4654 H   0  0  0  0  0  0  0  0  0  0  0  0
   -0.3483    2.9498    2.5683 C   0  0  0  0  0  0  0  0  0  0  0  0
   -1.3222    3.0687    3.0546 H   0  0  0  0  0  0  0  0  0  0  0  0
    0.4332    3.1847    3.2972 H   0  0  0  0  0  0  0  0  0  0  0  0
   -0.2770    3.6653    1.7423 H   0  0  0  0  0  0  0  0  0  0  0  0
  1  2  1  0  0  0  0
  2  3  1  0  0  0  0
  2  4  1  0  0  0  0
  2  5  1  0  0  0  0
  5  6  2  0  0  0  0
  5  7  1  0  0  0  0
  7  8  1  0  0  0  0
  7  9  1  0  0  0  0
  9 10  1  0  0  0  0
  9 11  1  0  0  0  0
  9 26  1  0  0  0  0
 11 12  1  0  0  0  0
 11 13  1  0  0  0  0
 11 14  1  0  0  0  0
 14 15  1  0  0  0  0
 14 16  1  0  0  0  0
 14 17  1  0  0  0  0
 17 18  1  0  0  0  0
 17 19  1  0  0  0  0
 17 20  1  0  0  0  0
 20 21  1  0  0  0  0
 20 22  1  0  0  0  0
 20 23  1  0  0  0  0
 23 24  1  0  0  0  0
 23 25  1  0  0  0  0
 26 27  2  0  0  0  0
 26 28  1  0  0  0  0
 28 29  1  0  0  0  0
 28 30  1  0  0  0  0
 30 31  1  0  0  0  0
 30 32  1  0  0  0  0
 30 33  1  0  0  0  0
M  END
$$$$

  -OEChem-03222214063D

 33 32  0     1  0  0  0  0  0999 V2000
   -3.6979   -4.0278    1.6731 H   0  0  0  0  0  0  0  0  0  0  0  0
   -3.7152   -3.0378    1.2088 C   0  0  0  0  0  0  0  0  0  0  0  0
   -4.3847   -2.3918    1.7819 H   0  0  0  0  0  0  0  0  0  0  0  0
   -4.0965   -3.1334    0.1893 H   0  0  0  0  0  0  0  0  0  0  0  0
   -2.3182   -2.4466    1.1854 C   0  0  0  0  0  0  0  0  0  0  0  0
   -1.3756   -3.0911    1.6187 O   0  0  0  0  0  0  0  0  0  0  0  0
   -2.1213   -1.1795    0.6771 N   0  0  0  0  0  0  0  0  0  0  0  0
   -2.9473   -0.6467    0.4091 H   0  0  0  0  0  0  0  0  0  0  0  0
   -0.8430   -0.4551    0.7017 C   0  0  1  0  0  0  0  0  0  0  0  0
   -0.1863   -0.9258    1.4409 H   0  0  0  0  0  0  0  0  0  0  0  0
   -0.1834   -0.5342   -0.6897 C   0  0  0  0  0  0  0  0  0  0  0  0
   -0.6642   -1.3200   -1.2824 H   0  0  0  0  0  0  0  0  0  0  0  0
   -0.3226    0.4094   -1.2287 H   0  0  0  0  0  0  0  0  0  0  0  0
    1.3100   -0.8628   -0.5763 C   0  0  0  0  0  0  0  0  0  0  0  0
    1.8121   -0.0922    0.0181 H   0  0  0  0  0  0  0  0  0  0  0  0
    1.4342   -1.8235   -0.0643 H   0  0  0  0  0  0  0  0  0  0  0  0
    1.9522   -0.9380   -1.9654 C   0  0  0  0  0  0  0  0  0  0  0  0
    1.4379   -1.6938   -2.5678 H   0  0  0  0  0  0  0  0  0  0  0  0
    1.8467    0.0273   -2.4718 H   0  0  0  0  0  0  0  0  0  0  0  0
    3.4322   -1.2942   -1.8607 C   0  0  0  0  0  0  0  0  0  0  0  0
    3.9568   -0.5465   -1.2556 H   0  0  0  0  0  0  0  0  0  0  0  0
    3.5502   -2.2692   -1.3749 H   0  0  0  0  0  0  0  0  0  0  0  0
    4.0006   -1.3313   -3.2113 N   0  0  0  0  0  0  0  0  0  0  0  0
    4.9921   -1.5699   -3.1886 H   0  0  0  0  0  0  0  0  0  0  0  0
    3.4847   -1.9784   -3.8077 H   0  0  0  0  0  0  0  0  0  0  0  0
   -1.0371    1.0082    1.1446 C   0  0  0  0  0  0  0  0  0  0  0  0
   -1.9947    1.6495    0.7273 O   0  0  0  0  0  0  0  0  0  0  0  0
   -0.1834    1.5820    2.0686 N   0  0  0  0  0  0  0  0  0  0  0  0
    0.5696    1.0073    2.4357 H   0  0  0  0  0  0  0  0  0  0  0  0
   -0.3406    2.9429    2.5665 C   0  0  0  0  0  0  0  0  0  0  0  0
   -1.3111    3.0616    3.0598 H   0  0  0  0  0  0  0  0  0  0  0  0
    0.4460    3.1735    3.2913 H   0  0  0  0  0  0  0  0  0  0  0  0
   -0.2737    3.6616    1.7430 H   0  0  0  0  0  0  0  0  0  0  0  0
  1  2  1  0  0  0  0
  2  3  1  0  0  0  0
  2  4  1  0  0  0  0
  2  5  1  0  0  0  0
  5  6  2  0  0  0  0
  5  7  1  0  0  0  0
  7  8  1  0  0  0  0
  7  9  1  0  0  0  0
  9 10  1  0  0  0  0
  9 11  1  0  0  0  0
  9 26  1  0  0  0  0
 11 12  1  0  0  0  0
 11 13  1  0  0  0  0
 11 14  1  0  0  0  0
 14 15  1  0  0  0  0
 14 16  1  0  0  0  0
 14 17  1  0  0  0  0
 17 18  1  0  0  0  0
 17 19  1  0  0  0  0
 17 20  1  0  0  0  0
 20 21  1  0  0  0  0
 20 22  1  0  0  0  0
 20 23  1  0  0  0  0
 23 24  1  0  0  0  0
 23 25  1  0  0  0  0
 26 27  2  0  0  0  0
 26 28  1  0  0  0  0
 28 29  1  0  0  0  0
 28 30  1  0  0  0  0
 30 31  1  0  0  0  0
 30 32  1  0  0  0  0
 30 33  1  0  0  0  0
M  END
$$$$

  -OEChem-03222214063D

 33 32  0     1  0  0  0  0  0999 V2000
   -3.6916   -4.0316    1.6768 H   0  0  0  0  0  0  0  0  0  0  0  0
   -3.7112   -3.0437    1.2083 C   0  0  0  0  0  0  0  0  0  0  0  0
   -4.3825   -2.3967    1.7783 H   0  0  0  0  0  0  0  0  0  0  0  0
   -4.0921   -3.1446    0.1893 H   0  0  0  0  0  0  0  0  0  0  0  0
   -2.3154   -2.4493    1.1833 C   0  0  0  0  0  0  0  0  0  0  0  0
   -1.3710   -3.0925    1.6147 O   0  0  0  0  0  0  0  0  0  0  0  0
   -2.1211   -1.1810    0.6769 N   0  0  0  0  0  0  0  0  0  0  0  0
   -2.9481   -0.6498    0.4087 H   0  0  0  0  0  0  0  0  0  0  0  0
   -0.8445   -0.4537    0.6998 C   0  0  1  0  0  0  0  0  0  0  0  0
   -0.1858   -0.9251    1.4367 H   0  0  0  0  0  0  0  0  0  0  0  0
   -0.1861   -0.5326   -0.6923 C   0  0  0  0  0  0  0  0  0  0  0  0
   -0.6642   -1.3115   -1.2959 H   0  0  0  0  0  0  0  0  0  0  0  0
   -0.3283    0.4170   -1.2202 H   0  0  0  0  0  0  0  0  0  0  0  0
    1.3089   -0.8577   -0.5804 C   0  0  0  0  0  0  0  0  0  0  0  0
    1.7639   -0.2405    0.2016 H   0  0  0  0  0  0  0  0  0  0  0  0
    1.4324   -1.9089   -0.2976 H   0  0  0  0  0  0  0  0  0  0  0  0
    2.0249   -0.5747   -1.9049 C   0  0  0  0  0  0  0  0  0  0  0  0
    1.5529   -1.1505   -2.7076 H   0  0  0  0  0  0  0  0  0  0  0  0
    1.9346    0.4883   -2.1527 H   0  0  0  0  0  0  0  0  0  0  0  0
    3.5017   -0.9475   -1.8142 C   0  0  0  0  0  0  0  0  0  0  0  0
    3.9862   -0.3761   -1.0146 H   0  0  0  0  0  0  0  0  0  0  0  0
    3.6057   -2.0133   -1.5818 H   0  0  0  0  0  0  0  0  0  0  0  0
    4.1378   -0.6456   -3.0998 N   0  0  0  0  0  0  0  0  0  0  0  0
    5.1269   -0.8949   -3.0907 H   0  0  0  0  0  0  0  0  0  0  0  0
    3.6523   -1.1115   -3.8664 H   0  0  0  0  0  0  0  0  0  0  0  0
   -1.0407    1.0084    1.1454 C   0  0  0  0  0  0  0  0  0  0  0  0
   -2.0017    1.6479    0.7329 O   0  0  0  0  0  0  0  0  0  0  0  0
   -0.1856    1.5815    2.0684 N   0  0  0  0  0  0  0  0  0  0  0  0
    0.5756    1.0106    2.4243 H   0  0  0  0  0  0  0  0  0  0  0  0
   -0.3390    2.9433    2.5644 C   0  0  0  0  0  0  0  0  0  0  0  0
   -1.3133    3.0680    3.0487 H   0  0  0  0  0  0  0  0  0  0  0  0
    0.4420    3.1690    3.2967 H   0  0  0  0  0  0  0  0  0  0  0  0
   -0.2594    3.6611    1.7412 H   0  0  0  0  0  0  0  0  0  0  0  0
  1  2  1  0  0  0  0
  2  3  1  0  0  0  0
  2  4  1  0  0  0  0
  2  5  1  0  0  0  0
  5  6  2  0  0  0  0
  5  7  1  0  0  0  0
  7  8  1  0  0  0  0
  7  9  1  0  0  0  0
  9 10  1  0  0  0  0
  9 11  1  0  0  0  0
  9 26  1  0  0  0  0
 11 12  1  0  0  0  0
 11 13  1  0  0  0  0
 11 14  1  0  0  0  0
 14 15  1  0  0  0  0
 14 16  1  0  0  0  0
 14 17  1  0  0  0  0
 17 18  1  0  0  0  0
 17 19  1  0  0  0  0
 17 20  1  0  0  0  0
 20 21  1  0  0  0  0
 20 22  1  0  0  0  0
 20 23  1  0  0  0  0
 23 24  1  0  0  0  0
 23 25  1  0  0  0  0
 26 27  2  0  0  0  0
 26 28  1  0  0  0  0
 28 29  1  0  0  0  0
 28 30  1  0  0  0  0
 30 31  1  0  0  0  0
 30 32  1  0  0  0  0
 30 33  1  0  0  0  0
M  END
$$$$

  -OEChem-03222214063D

 33 32  0     1  0  0  0  0  0999 V2000
   -3.6957   -4.0319    1.6708 H   0  0  0  0  0  0  0  0  0  0  0  0
   -3.7138   -3.0417    1.2072 C   0  0  0  0  0  0  0  0  0  0  0  0
   -4.3832   -2.3961    1.7808 H   0  0  0  0  0  0  0  0  0  0  0  0
   -4.0954   -3.1367    0.1878 H   0  0  0  0  0  0  0  0  0  0  0  0
   -2.3173   -2.4494    1.1837 C   0  0  0  0  0  0  0  0  0  0  0  0
   -1.3735   -3.0952    1.6122 O   0  0  0  0  0  0  0  0  0  0  0  0
   -2.1220   -1.1813    0.6770 N   0  0  0  0  0  0  0  0  0  0  0  0
   -2.9494   -0.6477    0.4150 H   0  0  0  0  0  0  0  0  0  0  0  0
   -0.8456   -0.4534    0.7049 C   0  0  1  0  0  0  0  0  0  0  0  0
   -0.1935   -0.9256    1.4468 H   0  0  0  0  0  0  0  0  0  0  0  0
   -0.1824   -0.5369   -0.6855 C   0  0  0  0  0  0  0  0  0  0  0  0
   -0.6613   -1.3121   -1.2931 H   0  0  0  0  0  0  0  0  0  0  0  0
   -0.3299    0.4144   -1.2090 H   0  0  0  0  0  0  0  0  0  0  0  0
    1.3164   -0.8622   -0.5845 C   0  0  0  0  0  0  0  0  0  0  0  0
    1.7280   -0.4503    0.3428 H   0  0  0  0  0  0  0  0  0  0  0  0
    1.4519   -1.9489   -0.5579 H   0  0  0  0  0  0  0  0  0  0  0  0
    2.0893   -0.2494   -1.7574 C   0  0  0  0  0  0  0  0  0  0  0  0
    1.6659   -0.6073   -2.7014 H   0  0  0  0  0  0  0  0  0  0  0  0
    1.9917    0.8412   -1.7343 H   0  0  0  0  0  0  0  0  0  0  0  0
    3.5666   -0.6253   -1.6893 C   0  0  0  0  0  0  0  0  0  0  0  0
    3.9995   -0.2800   -0.7439 H   0  0  0  0  0  0  0  0  0  0  0  0
    3.6787   -1.7141   -1.7375 H   0  0  0  0  0  0  0  0  0  0  0  0
    4.2613    0.0047   -2.8157 N   0  0  0  0  0  0  0  0  0  0  0  0
    5.2552   -0.2244   -2.8122 H   0  0  0  0  0  0  0  0  0  0  0  0
    3.8313   -0.2562   -3.7033 H   0  0  0  0  0  0  0  0  0  0  0  0
   -1.0422    1.0097    1.1484 C   0  0  0  0  0  0  0  0  0  0  0  0
   -2.0035    1.6475    0.7337 O   0  0  0  0  0  0  0  0  0  0  0  0
   -0.1912    1.5848    2.0740 N   0  0  0  0  0  0  0  0  0  0  0  0
    0.5729    1.0174    2.4290 H   0  0  0  0  0  0  0  0  0  0  0  0
   -0.3448    2.9490    2.5639 C   0  0  0  0  0  0  0  0  0  0  0  0
   -1.3191    3.0759    3.0474 H   0  0  0  0  0  0  0  0  0  0  0  0
    0.4362    3.1780    3.2953 H   0  0  0  0  0  0  0  0  0  0  0  0
   -0.2651    3.6635    1.7378 H   0  0  0  0  0  0  0  0  0  0  0  0
  1  2  1  0  0  0  0
  2  3  1  0  0  0  0
  2  4  1  0  0  0  0
  2  5  1  0  0  0  0
  5  6  2  0  0  0  0
  5  7  1  0  0  0  0
  7  8  1  0  0  0  0
  7  9  1  0  0  0  0
  9 10  1  0  0  0  0
  9 11  1  0  0  0  0
  9 26  1  0  0  0  0
 11 12  1  0  0  0  0
 11 13  1  0  0  0  0
 11 14  1  0  0  0  0
 14 15  1  0  0  0  0
 14 16  1  0  0  0  0
 14 17  1  0  0  0  0
 17 18  1  0  0  0  0
 17 19  1  0  0  0  0
 17 20  1  0  0  0  0
 20 21  1  0  0  0  0
 20 22  1  0  0  0  0
 20 23  1  0  0  0  0
 23 24  1  0  0  0  0
 23 25  1  0  0  0  0
 26 27  2  0  0  0  0
 26 28  1  0  0  0  0
 28 29  1  0  0  0  0
 28 30  1  0  0  0  0
 30 31  1  0  0  0  0
 30 32  1  0  0  0  0
 30 33  1  0  0  0  0
M  END
$$$$

  -OEChem-03222214063D

 33 32  0     1  0  0  0  0  0999 V2000
   -3.7134   -4.0248    1.6762 H   0  0  0  0  0  0  0  0  0  0  0  0
   -3.7264   -3.0350    1.2116 C   0  0  0  0  0  0  0  0  0  0  0  0
   -4.3912   -2.3852    1.7858 H   0  0  0  0  0  0  0  0  0  0  0  0
   -4.1104   -3.1288    0.1931 H   0  0  0  0  0  0  0  0  0  0  0  0
   -2.3265   -2.4510    1.1852 C   0  0  0  0  0  0  0  0  0  0  0  0
   -1.3862   -3.1013    1.6145 O   0  0  0  0  0  0  0  0  0  0  0  0
   -2.1247   -1.1847    0.6766 N   0  0  0  0  0  0  0  0  0  0  0  0
   -2.9501   -0.6477    0.4148 H   0  0  0  0  0  0  0  0  0  0  0  0
   -0.8470   -0.4589    0.7097 C   0  0  1  0  0  0  0  0  0  0  0  0
   -0.2048   -0.9313    1.4594 H   0  0  0  0  0  0  0  0  0  0  0  0
   -0.1747   -0.5434   -0.6774 C   0  0  0  0  0  0  0  0  0  0  0  0
   -0.6528   -1.3243   -1.2784 H   0  0  0  0  0  0  0  0  0  0  0  0
   -0.3317    0.4012   -1.2103 H   0  0  0  0  0  0  0  0  0  0  0  0
    1.3283   -0.8698   -0.5877 C   0  0  0  0  0  0  0  0  0  0  0  0
    1.6969   -0.7180    0.4318 H   0  0  0  0  0  0  0  0  0  0  0  0
    1.4844   -1.9240   -0.8411 H   0  0  0  0  0  0  0  0  0  0  0  0
    2.1423    0.0298   -1.5249 C   0  0  0  0  0  0  0  0  0  0  0  0
    1.7734   -0.0796   -2.5498 H   0  0  0  0  0  0  0  0  0  0  0  0
    2.0173    1.0771   -1.2294 H   0  0  0  0  0  0  0  0  0  0  0  0
    3.6232   -0.3346   -1.4777 C   0  0  0  0  0  0  0  0  0  0  0  0
    4.0010   -0.2431   -0.4533 H   0  0  0  0  0  0  0  0  0  0  0  0
    3.7640   -1.3718   -1.8013 H   0  0  0  0  0  0  0  0  0  0  0  0
    4.3567    0.5753   -2.3623 N   0  0  0  0  0  0  0  0  0  0  0  0
    5.3538    0.3601   -2.3695 H   0  0  0  0  0  0  0  0  0  0  0  0
    3.9738    0.5554   -3.3076 H   0  0  0  0  0  0  0  0  0  0  0  0
   -1.0416    1.0059    1.1478 C   0  0  0  0  0  0  0  0  0  0  0  0
   -2.0008    1.6437    0.7281 O   0  0  0  0  0  0  0  0  0  0  0  0
   -0.1940    1.5813    2.0761 N   0  0  0  0  0  0  0  0  0  0  0  0
    0.5774    1.0188    2.4235 H   0  0  0  0  0  0  0  0  0  0  0  0
   -0.3432    2.9495    2.5559 C   0  0  0  0  0  0  0  0  0  0  0  0
   -1.3189    3.0837    3.0346 H   0  0  0  0  0  0  0  0  0  0  0  0
    0.4358    3.1804    3.2887 H   0  0  0  0  0  0  0  0  0  0  0  0
   -0.2575    3.6576    1.7251 H   0  0  0  0  0  0  0  0  0  0  0  0
  1  2  1  0  0  0  0
  2  3  1  0  0  0  0
  2  4  1  0  0  0  0
  2  5  1  0  0  0  0
  5  6  2  0  0  0  0
  5  7  1  0  0  0  0
  7  8  1  0  0  0  0
  7  9  1  0  0  0  0
  9 10  1  0  0  0  0
  9 11  1  0  0  0  0
  9 26  1  0  0  0  0
 11 12  1  0  0  0  0
 11 13  1  0  0  0  0
 11 14  1  0  0  0  0
 14 15  1  0  0  0  0
 14 16  1  0  0  0  0
 14 17  1  0  0  0  0
 17 18  1  0  0  0  0
 17 19  1  0  0  0  0
 17 20  1  0  0  0  0
 20 21  1  0  0  0  0
 20 22  1  0  0  0  0
 20 23  1  0  0  0  0
 23 24  1  0  0  0  0
 23 25  1  0  0  0  0
 26 27  2  0  0  0  0
 26 28  1  0  0  0  0
 28 29  1  0  0  0  0
 28 30  1  0  0  0  0
 30 31  1  0  0  0  0
 30 32  1  0  0  0  0
 30 33  1  0  0  0  0
M  END
$$$$

  -OEChem-03222214063D

 33 32  0     1  0  0  0  0  0999 V2000
   -3.7240   -4.0199    1.6800 H   0  0  0  0  0  0  0  0  0  0  0  0
   -3.7326   -3.0305    1.2142 C   0  0  0  0  0  0  0  0  0  0  0  0
   -4.3972   -2.3781    1.7857 H   0  0  0  0  0  0  0  0  0  0  0  0
   -4.1138   -3.1243    0.1945 H   0  0  0  0  0  0  0  0  0  0  0  0
   -2.3310   -2.4504    1.1907 C   0  0  0  0  0  0  0  0  0  0  0  0
   -1.3931   -3.1037    1.6205 O   0  0  0  0  0  0  0  0  0  0  0  0
   -2.1252   -1.1859    0.6799 N   0  0  0  0  0  0  0  0  0  0  0  0
   -2.9493   -0.6463    0.4197 H   0  0  0  0  0  0  0  0  0  0  0  0
   -0.8458   -0.4633    0.7122 C   0  0  1  0  0  0  0  0  0  0  0  0
   -0.2076   -0.9345    1.4659 H   0  0  0  0  0  0  0  0  0  0  0  0
   -0.1728   -0.5461   -0.6754 C   0  0  0  0  0  0  0  0  0  0  0  0
   -0.6508   -1.3409   -1.2580 H   0  0  0  0  0  0  0  0  0  0  0  0
   -0.3422    0.3855   -1.2270 H   0  0  0  0  0  0  0  0  0  0  0  0
    1.3318   -0.8754   -0.5989 C   0  0  0  0  0  0  0  0  0  0  0  0
    1.6556   -1.0241    0.4357 H   0  0  0  0  0  0  0  0  0  0  0  0
    1.5164   -1.8135   -1.1332 H   0  0  0  0  0  0  0  0  0  0  0  0
    2.1698    0.2417   -1.2305 C   0  0  0  0  0  0  0  0  0  0  0  0
    1.8625    0.3907   -2.2709 H   0  0  0  0  0  0  0  0  0  0  0  0
    1.9984    1.1781   -0.6887 H   0  0  0  0  0  0  0  0  0  0  0  0
    3.6553   -0.1032   -1.1861 C   0  0  0  0  0  0  0  0  0  0  0  0
    3.9725   -0.2709   -0.1508 H   0  0  0  0  0  0  0  0  0  0  0  0
    3.8438   -1.0218   -1.7530 H   0  0  0  0  0  0  0  0  0  0  0  0
    4.4099    1.0126   -1.7640 N   0  0  0  0  0  0  0  0  0  0  0  0
    5.4118    0.8205   -1.7643 H   0  0  0  0  0  0  0  0  0  0  0  0
    4.0811    1.2285   -2.7052 H   0  0  0  0  0  0  0  0  0  0  0  0
   -1.0366    1.0026    1.1470 C   0  0  0  0  0  0  0  0  0  0  0  0
   -1.9958    1.6407    0.7278 O   0  0  0  0  0  0  0  0  0  0  0  0
   -0.1878    1.5777    2.0743 N   0  0  0  0  0  0  0  0  0  0  0  0
    0.5917    1.0194    2.4104 H   0  0  0  0  0  0  0  0  0  0  0  0
   -0.3296    2.9492    2.5464 C   0  0  0  0  0  0  0  0  0  0  0  0
   -1.3080    3.0940    3.0166 H   0  0  0  0  0  0  0  0  0  0  0  0
    0.4451    3.1768    3.2849 H   0  0  0  0  0  0  0  0  0  0  0  0
   -0.2310    3.6528    1.7132 H   0  0  0  0  0  0  0  0  0  0  0  0
  1  2  1  0  0  0  0
  2  3  1  0  0  0  0
  2  4  1  0  0  0  0
  2  5  1  0  0  0  0
  5  6  2  0  0  0  0
  5  7  1  0  0  0  0
  7  8  1  0  0  0  0
  7  9  1  0  0  0  0
  9 10  1  0  0  0  0
  9 11  1  0  0  0  0
  9 26  1  0  0  0  0
 11 12  1  0  0  0  0
 11 13  1  0  0  0  0
 11 14  1  0  0  0  0
 14 15  1  0  0  0  0
 14 16  1  0  0  0  0
 14 17  1  0  0  0  0
 17 18  1  0  0  0  0
 17 19  1  0  0  0  0
 17 20  1  0  0  0  0
 20 21  1  0  0  0  0
 20 22  1  0  0  0  0
 20 23  1  0  0  0  0
 23 24  1  0  0  0  0
 23 25  1  0  0  0  0
 26 27  2  0  0  0  0
 26 28  1  0  0  0  0
 28 29  1  0  0  0  0
 28 30  1  0  0  0  0
 30 31  1  0  0  0  0
 30 32  1  0  0  0  0
 30 33  1  0  0  0  0
M  END
$$$$

  -OEChem-03222214063D

 33 32  0     1  0  0  0  0  0999 V2000
   -3.7186   -4.0143    1.7065 H   0  0  0  0  0  0  0  0  0  0  0  0
   -3.7310   -3.0268    1.2366 C   0  0  0  0  0  0  0  0  0  0  0  0
   -4.3826   -2.3693    1.8172 H   0  0  0  0  0  0  0  0  0  0  0  0
   -4.1308   -3.1228    0.2242 H   0  0  0  0  0  0  0  0  0  0  0  0
   -2.3273   -2.4532    1.1863 C   0  0  0  0  0  0  0  0  0  0  0  0
   -1.3847   -3.1098    1.6008 O   0  0  0  0  0  0  0  0  0  0  0  0
   -2.1245   -1.1883    0.6750 N   0  0  0  0  0  0  0  0  0  0  0  0
   -2.9503   -0.6444    0.4293 H   0  0  0  0  0  0  0  0  0  0  0  0
   -0.8435   -0.4682    0.6996 C   0  0  1  0  0  0  0  0  0  0  0  0
   -0.1994   -0.9386    1.4481 H   0  0  0  0  0  0  0  0  0  0  0  0
   -0.1769   -0.5417   -0.6913 C   0  0  0  0  0  0  0  0  0  0  0  0
   -0.6542   -1.3461   -1.2612 H   0  0  0  0  0  0  0  0  0  0  0  0
   -0.3520    0.3823   -1.2534 H   0  0  0  0  0  0  0  0  0  0  0  0
    1.3259   -0.8724   -0.6189 C   0  0  0  0  0  0  0  0  0  0  0  0
    1.5944   -1.3141    0.3459 H   0  0  0  0  0  0  0  0  0  0  0  0
    1.5545   -1.6190   -1.3868 H   0  0  0  0  0  0  0  0  0  0  0  0
    2.1743    0.3755   -0.8894 C   0  0  0  0  0  0  0  0  0  0  0  0
    1.9272    0.7867   -1.8736 H   0  0  0  0  0  0  0  0  0  0  0  0
    1.9497    1.1394   -0.1378 H   0  0  0  0  0  0  0  0  0  0  0  0
    3.6619    0.0421   -0.8392 C   0  0  0  0  0  0  0  0  0  0  0  0
    3.9173   -0.3970    0.1318 H   0  0  0  0  0  0  0  0  0  0  0  0
    3.9099   -0.6873   -1.6185 H   0  0  0  0  0  0  0  0  0  0  0  0
    4.4207    1.2796   -1.0415 N   0  0  0  0  0  0  0  0  0  0  0  0
    5.4256    1.1043   -1.0229 H   0  0  0  0  0  0  0  0  0  0  0  0
    4.1479    1.7384   -1.9110 H   0  0  0  0  0  0  0  0  0  0  0  0
   -1.0322    0.9967    1.1379 C   0  0  0  0  0  0  0  0  0  0  0  0
   -1.9948    1.6353    0.7268 O   0  0  0  0  0  0  0  0  0  0  0  0
   -0.1775    1.5698    2.0611 N   0  0  0  0  0  0  0  0  0  0  0  0
    0.6137    1.0163    2.3779 H   0  0  0  0  0  0  0  0  0  0  0  0
   -0.3101    2.9434    2.5294 C   0  0  0  0  0  0  0  0  0  0  0  0
   -1.2847    3.0937    3.0055 H   0  0  0  0  0  0  0  0  0  0  0  0
    0.4704    3.1697    3.2620 H   0  0  0  0  0  0  0  0  0  0  0  0
   -0.2140    3.6436    1.6930 H   0  0  0  0  0  0  0  0  0  0  0  0
  1  2  1  0  0  0  0
  2  3  1  0  0  0  0
  2  4  1  0  0  0  0
  2  5  1  0  0  0  0
  5  6  2  0  0  0  0
  5  7  1  0  0  0  0
  7  8  1  0  0  0  0
  7  9  1  0  0  0  0
  9 10  1  0  0  0  0
  9 11  1  0  0  0  0
  9 26  1  0  0  0  0
 11 12  1  0  0  0  0
 11 13  1  0  0  0  0
 11 14  1  0  0  0  0
 14 15  1  0  0  0  0
 14 16  1  0  0  0  0
 14 17  1  0  0  0  0
 17 18  1  0  0  0  0
 17 19  1  0  0  0  0
 17 20  1  0  0  0  0
 20 21  1  0  0  0  0
 20 22  1  0  0  0  0
 20 23  1  0  0  0  0
 23 24  1  0  0  0  0
 23 25  1  0  0  0  0
 26 27  2  0  0  0  0
 26 28  1  0  0  0  0
 28 29  1  0  0  0  0
 28 30  1  0  0  0  0
 30 31  1  0  0  0  0
 30 32  1  0  0  0  0
 30 33  1  0  0  0  0
M  END
$$$$

  -OEChem-03222214063D

 33 32  0     1  0  0  0  0  0999 V2000
   -3.6939   -4.0175    1.7036 H   0  0  0  0  0  0  0  0  0  0  0  0
   -3.7104   -3.0309    1.2321 C   0  0  0  0  0  0  0  0  0  0  0  0
   -4.3664   -2.3755    1.8102 H   0  0  0  0  0  0  0  0  0  0  0  0
   -4.1071   -3.1312    0.2190 H   0  0  0  0  0  0  0  0  0  0  0  0
   -2.3093   -2.4509    1.1845 C   0  0  0  0  0  0  0  0  0  0  0  0
   -1.3638   -3.1061    1.5946 O   0  0  0  0  0  0  0  0  0  0  0  0
   -2.1127   -1.1828    0.6788 N   0  0  0  0  0  0  0  0  0  0  0  0
   -2.9411   -0.6406    0.4384 H   0  0  0  0  0  0  0  0  0  0  0  0
   -0.8335   -0.4593    0.7045 C   0  0  1  0  0  0  0  0  0  0  0  0
   -0.1771   -0.9275    1.4445 H   0  0  0  0  0  0  0  0  0  0  0  0
   -0.1778   -0.5260   -0.6929 C   0  0  0  0  0  0  0  0  0  0  0  0
   -0.6577   -1.3281   -1.2638 H   0  0  0  0  0  0  0  0  0  0  0  0
   -0.3494    0.4014   -1.2504 H   0  0  0  0  0  0  0  0  0  0  0  0
    1.3229   -0.8565   -0.6272 C   0  0  0  0  0  0  0  0  0  0  0  0
    1.5364   -1.5359    0.2047 H   0  0  0  0  0  0  0  0  0  0  0  0
    1.5998   -1.3797   -1.5486 H   0  0  0  0  0  0  0  0  0  0  0  0
    2.1736    0.4149   -0.5231 C   0  0  0  0  0  0  0  0  0  0  0  0
    1.9655    1.0707   -1.3746 H   0  0  0  0  0  0  0  0  0  0  0  0
    1.9163    0.9567    0.3914 H   0  0  0  0  0  0  0  0  0  0  0  0
    3.6599    0.0729   -0.4970 C   0  0  0  0  0  0  0  0  0  0  0  0
    3.8762   -0.6059    0.3357 H   0  0  0  0  0  0  0  0  0  0  0  0
    3.9465   -0.4286   -1.4279 H   0  0  0  0  0  0  0  0  0  0  0  0
    4.4173    1.3173   -0.3360 N   0  0  0  0  0  0  0  0  0  0  0  0
    5.4216    1.1383   -0.3170 H   0  0  0  0  0  0  0  0  0  0  0  0
    4.1819    1.9864   -1.0693 H   0  0  0  0  0  0  0  0  0  0  0  0
   -1.0419    1.0013    1.1525 C   0  0  0  0  0  0  0  0  0  0  0  0
   -2.0102    1.6311    0.7407 O   0  0  0  0  0  0  0  0  0  0  0  0
   -0.1975    1.5822    2.0804 N   0  0  0  0  0  0  0  0  0  0  0  0
    0.6069    1.0418    2.3868 H   0  0  0  0  0  0  0  0  0  0  0  0
   -0.3393    2.9572    2.5426 C   0  0  0  0  0  0  0  0  0  0  0  0
   -1.3217    3.1086    3.0023 H   0  0  0  0  0  0  0  0  0  0  0  0
    0.4285    3.1863    3.2879 H   0  0  0  0  0  0  0  0  0  0  0  0
   -0.2292    3.6551    1.7061 H   0  0  0  0  0  0  0  0  0  0  0  0
  1  2  1  0  0  0  0
  2  3  1  0  0  0  0
  2  4  1  0  0  0  0
  2  5  1  0  0  0  0
  5  6  2  0  0  0  0
  5  7  1  0  0  0  0
  7  8  1  0  0  0  0
  7  9  1  0  0  0  0
  9 10  1  0  0  0  0
  9 11  1  0  0  0  0
  9 26  1  0  0  0  0
 11 12  1  0  0  0  0
 11 13  1  0  0  0  0
 11 14  1  0  0  0  0
 14 15  1  0  0  0  0
 14 16  1  0  0  0  0
 14 17  1  0  0  0  0
 17 18  1  0  0  0  0
 17 19  1  0  0  0  0
 17 20  1  0  0  0  0
 20 21  1  0  0  0  0
 20 22  1  0  0  0  0
 20 23  1  0  0  0  0
 23 24  1  0  0  0  0
 23 25  1  0  0  0  0
 26 27  2  0  0  0  0
 26 28  1  0  0  0  0
 28 29  1  0  0  0  0
 28 30  1  0  0  0  0
 30 31  1  0  0  0  0
 30 32  1  0  0  0  0
 30 33  1  0  0  0  0
M  END
$$$$

  -OEChem-03222214063D

 33 32  0     1  0  0  0  0  0999 V2000
   -3.6908   -4.0171    1.6756 H   0  0  0  0  0  0  0  0  0  0  0  0
   -3.7034   -3.0273    1.2110 C   0  0  0  0  0  0  0  0  0  0  0  0
   -4.3706   -2.3781    1.7832 H   0  0  0  0  0  0  0  0  0  0  0  0
   -4.0833   -3.1211    0.1908 H   0  0  0  0  0  0  0  0  0  0  0  0
   -2.3042   -2.4418    1.1889 C   0  0  0  0  0  0  0  0  0  0  0  0
   -1.3639   -3.0924    1.6176 O   0  0  0  0  0  0  0  0  0  0  0  0
   -2.1026   -1.1749    0.6826 N   0  0  0  0  0  0  0  0  0  0  0  0
   -2.9278   -0.6345    0.4267 H   0  0  0  0  0  0  0  0  0  0  0  0
   -0.8246   -0.4503    0.7264 C   0  0  1  0  0  0  0  0  0  0  0  0
   -0.1682   -0.9153    1.4690 H   0  0  0  0  0  0  0  0  0  0  0  0
   -0.1625   -0.5193   -0.6681 C   0  0  0  0  0  0  0  0  0  0  0  0
   -0.6443   -1.3110   -1.2520 H   0  0  0  0  0  0  0  0  0  0  0  0
   -0.3192    0.4169   -1.2152 H   0  0  0  0  0  0  0  0  0  0  0  0
    1.3359   -0.8523   -0.6016 C   0  0  0  0  0  0  0  0  0  0  0  0
    1.4991   -1.7117    0.0580 H   0  0  0  0  0  0  0  0  0  0  0  0
    1.6665   -1.1420   -1.6045 H   0  0  0  0  0  0  0  0  0  0  0  0
    2.1771    0.3419   -0.1347 C   0  0  0  0  0  0  0  0  0  0  0  0
    1.9671    1.2130   -0.7638 H   0  0  0  0  0  0  0  0  0  0  0  0
    1.9190    0.5962    0.8959 H   0  0  0  0  0  0  0  0  0  0  0  0
    3.6653    0.0142   -0.1991 C   0  0  0  0  0  0  0  0  0  0  0  0
    3.8823   -0.8686    0.4129 H   0  0  0  0  0  0  0  0  0  0  0  0
    3.9587   -0.2069   -1.2315 H   0  0  0  0  0  0  0  0  0  0  0  0
    4.4155    1.1681    0.3056 N   0  0  0  0  0  0  0  0  0  0  0  0
    5.4193    0.9845    0.3038 H   0  0  0  0  0  0  0  0  0  0  0  0
    4.1999    2.0079   -0.2320 H   0  0  0  0  0  0  0  0  0  0  0  0
   -1.0593    1.0089    1.1693 C   0  0  0  0  0  0  0  0  0  0  0  0
   -2.0207    1.6297    0.7282 O   0  0  0  0  0  0  0  0  0  0  0  0
   -0.2432    1.6055    2.1123 N   0  0  0  0  0  0  0  0  0  0  0  0
    0.5553    1.0727    2.4471 H   0  0  0  0  0  0  0  0  0  0  0  0
   -0.4119    2.9804    2.5650 C   0  0  0  0  0  0  0  0  0  0  0  0
   -1.4071    3.1224    2.9993 H   0  0  0  0  0  0  0  0  0  0  0  0
    0.3347    3.2211    3.3280 H   0  0  0  0  0  0  0  0  0  0  0  0
   -0.2890    3.6759    1.7282 H   0  0  0  0  0  0  0  0  0  0  0  0
  1  2  1  0  0  0  0
  2  3  1  0  0  0  0
  2  4  1  0  0  0  0
  2  5  1  0  0  0  0
  5  6  2  0  0  0  0
  5  7  1  0  0  0  0
  7  8  1  0  0  0  0
  7  9  1  0  0  0  0
  9 10  1  0  0  0  0
  9 11  1  0  0  0  0
  9 26  1  0  0  0  0
 11 12  1  0  0  0  0
 11 13  1  0  0  0  0
 11 14  1  0  0  0  0
 14 15  1  0  0  0  0
 14 16  1  0  0  0  0
 14 17  1  0  0  0  0
 17 18  1  0  0  0  0
 17 19  1  0  0  0  0
 17 20  1  0  0  0  0
 20 21  1  0  0  0  0
 20 22  1  0  0  0  0
 20 23  1  0  0  0  0
 23 24  1  0  0  0  0
 23 25  1  0  0  0  0
 26 27  2  0  0  0  0
 26 28  1  0  0  0  0
 28 29  1  0  0  0  0
 28 30  1  0  0  0  0
 30 31  1  0  0  0  0
 30 32  1  0  0  0  0
 30 33  1  0  0  0  0
M  END
$$$$

  -OEChem-03222214063D

 33 32  0     1  0  0  0  0  0999 V2000
   -3.7179   -4.0112    1.6512 H   0  0  0  0  0  0  0  0  0  0  0  0
   -3.7228   -3.0191    1.1914 C   0  0  0  0  0  0  0  0  0  0  0  0
   -4.3935   -2.3706    1.7600 H   0  0  0  0  0  0  0  0  0  0  0  0
   -4.0931   -3.1069    0.1672 H   0  0  0  0  0  0  0  0  0  0  0  0
   -2.3215   -2.4378    1.1867 C   0  0  0  0  0  0  0  0  0  0  0  0
   -1.3889   -3.0911    1.6276 O   0  0  0  0  0  0  0  0  0  0  0  0
   -2.1099   -1.1727    0.6796 N   0  0  0  0  0  0  0  0  0  0  0  0
   -2.9307   -0.6317    0.4117 H   0  0  0  0  0  0  0  0  0  0  0  0
   -0.8318   -0.4488    0.7381 C   0  0  1  0  0  0  0  0  0  0  0  0
   -0.1907   -0.9177    1.4913 H   0  0  0  0  0  0  0  0  0  0  0  0
   -0.1487   -0.5314   -0.6452 C   0  0  0  0  0  0  0  0  0  0  0  0
   -0.6287   -1.3146   -1.2416 H   0  0  0  0  0  0  0  0  0  0  0  0
   -0.2894    0.4105   -1.1865 H   0  0  0  0  0  0  0  0  0  0  0  0
    1.3500   -0.8645   -0.5717 C   0  0  0  0  0  0  0  0  0  0  0  0
    1.4785   -1.8509   -0.1124 H   0  0  0  0  0  0  0  0  0  0  0  0
    1.7398   -0.9225   -1.5934 H   0  0  0  0  0  0  0  0  0  0  0  0
    2.1571    0.1741    0.2192 C   0  0  0  0  0  0  0  0  0  0  0  0
    1.9429    1.1769   -0.1646 H   0  0  0  0  0  0  0  0  0  0  0  0
    1.8753    0.1428    1.2746 H   0  0  0  0  0  0  0  0  0  0  0  0
    3.6522   -0.1022    0.1118 C   0  0  0  0  0  0  0  0  0  0  0  0
    3.8758   -1.1052    0.4921 H   0  0  0  0  0  0  0  0  0  0  0  0
    3.9720   -0.0555   -0.9351 H   0  0  0  0  0  0  0  0  0  0  0  0
    4.3630    0.9049    0.9054 N   0  0  0  0  0  0  0  0  0  0  0  0
    5.3687    0.7328    0.9024 H   0  0  0  0  0  0  0  0  0  0  0  0
    4.1558    1.8464    0.5718 H   0  0  0  0  0  0  0  0  0  0  0  0
   -1.0639    1.0139    1.1724 C   0  0  0  0  0  0  0  0  0  0  0  0
   -2.0184    1.6358    0.7181 O   0  0  0  0  0  0  0  0  0  0  0  0
   -0.2574    1.6128    2.1225 N   0  0  0  0  0  0  0  0  0  0  0  0
    0.5337    1.0783    2.4726 H   0  0  0  0  0  0  0  0  0  0  0  0
   -0.4368    2.9856    2.5776 C   0  0  0  0  0  0  0  0  0  0  0  0
   -1.4356    3.1204    3.0057 H   0  0  0  0  0  0  0  0  0  0  0  0
    0.3034    3.2281    3.3461 H   0  0  0  0  0  0  0  0  0  0  0  0
   -0.3128    3.6846    1.7439 H   0  0  0  0  0  0  0  0  0  0  0  0
  1  2  1  0  0  0  0
  2  3  1  0  0  0  0
  2  4  1  0  0  0  0
  2  5  1  0  0  0  0
  5  6  2  0  0  0  0
  5  7  1  0  0  0  0
  7  8  1  0  0  0  0
  7  9  1  0  0  0  0
  9 10  1  0  0  0  0
  9 11  1  0  0  0  0
  9 26  1  0  0  0  0
 11 12  1  0  0  0  0
 11 13  1  0  0  0  0
 11 14  1  0  0  0  0
 14 15  1  0  0  0  0
 14 16  1  0  0  0  0
 14 17  1  0  0  0  0
 17 18  1  0  0  0  0
 17 19  1  0  0  0  0
 17 20  1  0  0  0  0
 20 21  1  0  0  0  0
 20 22  1  0  0  0  0
 20 23  1  0  0  0  0
 23 24  1  0  0  0  0
 23 25  1  0  0  0  0
 26 27  2  0  0  0  0
 26 28  1  0  0  0  0
 28 29  1  0  0  0  0
 28 30  1  0  0  0  0
 30 31  1  0  0  0  0
 30 32  1  0  0  0  0
 30 33  1  0  0  0  0
M  END
$$$$

  -OEChem-03222214063D

 33 32  0     1  0  0  0  0  0999 V2000
   -3.7505   -4.0184    1.6152 H   0  0  0  0  0  0  0  0  0  0  0  0
   -3.7522   -3.0229    1.1624 C   0  0  0  0  0  0  0  0  0  0  0  0
   -4.4323   -2.3804    1.7270 H   0  0  0  0  0  0  0  0  0  0  0  0
   -4.1093   -3.1049    0.1329 H   0  0  0  0  0  0  0  0  0  0  0  0
   -2.3523   -2.4381    1.1804 C   0  0  0  0  0  0  0  0  0  0  0  0
   -1.4263   -3.0900    1.6370 O   0  0  0  0  0  0  0  0  0  0  0  0
   -2.1354   -1.1726    0.6757 N   0  0  0  0  0  0  0  0  0  0  0  0
   -2.9536   -0.6368    0.3904 H   0  0  0  0  0  0  0  0  0  0  0  0
   -0.8622   -0.4414    0.7530 C   0  0  1  0  0  0  0  0  0  0  0  0
   -0.2509   -0.9145    1.5258 H   0  0  0  0  0  0  0  0  0  0  0  0
   -0.1436   -0.5453   -0.6126 C   0  0  0  0  0  0  0  0  0  0  0  0
   -0.6155   -1.3276   -1.2167 H   0  0  0  0  0  0  0  0  0  0  0  0
   -0.2776    0.3961   -1.1565 H   0  0  0  0  0  0  0  0  0  0  0  0
    1.3620   -0.8669   -0.5397 C   0  0  0  0  0  0  0  0  0  0  0  0
    1.4780   -1.9302   -0.3032 H   0  0  0  0  0  0  0  0  0  0  0  0
    1.7985   -0.6998   -1.5298 H   0  0  0  0  0  0  0  0  0  0  0  0
    2.1370   -0.0519    0.5087 C   0  0  0  0  0  0  0  0  0  0  0  0
    1.9430    1.0144    0.3540 H   0  0  0  0  0  0  0  0  0  0  0  0
    1.8177   -0.3175    1.5197 H   0  0  0  0  0  0  0  0  0  0  0  0
    3.6355   -0.3111    0.4001 C   0  0  0  0  0  0  0  0  0  0  0  0
    3.8459   -1.3712    0.5810 H   0  0  0  0  0  0  0  0  0  0  0  0
    3.9931   -0.0590   -0.6045 H   0  0  0  0  0  0  0  0  0  0  0  0
    4.3165    0.5158    1.4012 N   0  0  0  0  0  0  0  0  0  0  0  0
    5.3195    0.3282    1.4125 H   0  0  0  0  0  0  0  0  0  0  0  0
    4.1357    1.5068    1.2415 H   0  0  0  0  0  0  0  0  0  0  0  0
   -1.0858    1.0237    1.1794 C   0  0  0  0  0  0  0  0  0  0  0  0
   -2.0280    1.6544    0.7128 O   0  0  0  0  0  0  0  0  0  0  0  0
   -0.2815    1.6128    2.1374 N   0  0  0  0  0  0  0  0  0  0  0  0
    0.4937    1.0648    2.5021 H   0  0  0  0  0  0  0  0  0  0  0  0
   -0.4543    2.9846    2.5979 C   0  0  0  0  0  0  0  0  0  0  0  0
   -1.4540    3.1239    3.0226 H   0  0  0  0  0  0  0  0  0  0  0  0
    0.2841    3.2196    3.3704 H   0  0  0  0  0  0  0  0  0  0  0  0
   -0.3226    3.6863    1.7678 H   0  0  0  0  0  0  0  0  0  0  0  0
  1  2  1  0  0  0  0
  2  3  1  0  0  0  0
  2  4  1  0  0  0  0
  2  5  1  0  0  0  0
  5  6  2  0  0  0  0
  5  7  1  0  0  0  0
  7  8  1  0  0  0  0
  7  9  1  0  0  0  0
  9 10  1  0  0  0  0
  9 11  1  0  0  0  0
  9 26  1  0  0  0  0
 11 12  1  0  0  0  0
 11 13  1  0  0  0  0
 11 14  1  0  0  0  0
 14 15  1  0  0  0  0
 14 16  1  0  0  0  0
 14 17  1  0  0  0  0
 17 18  1  0  0  0  0
 17 19  1  0  0  0  0
 17 20  1  0  0  0  0
 20 21  1  0  0  0  0
 20 22  1  0  0  0  0
 20 23  1  0  0  0  0
 23 24  1  0  0  0  0
 23 25  1  0  0  0  0
 26 27  2  0  0  0  0
 26 28  1  0  0  0  0
 28 29  1  0  0  0  0
 28 30  1  0  0  0  0
 30 31  1  0  0  0  0
 30 32  1  0  0  0  0
 30 33  1  0  0  0  0
M  END
$$$$

  -OEChem-03222214063D

 33 32  0     1  0  0  0  0  0999 V2000
   -3.8071   -4.0074    1.5681 H   0  0  0  0  0  0  0  0  0  0  0  0
   -3.7940   -3.0080    1.1240 C   0  0  0  0  0  0  0  0  0  0  0  0
   -4.4906   -2.3695    1.6727 H   0  0  0  0  0  0  0  0  0  0  0  0
   -4.1185   -3.0806    0.0832 H   0  0  0  0  0  0  0  0  0  0  0  0
   -2.3954   -2.4241    1.1895 C   0  0  0  0  0  0  0  0  0  0  0  0
   -1.4890   -3.0706    1.6907 O   0  0  0  0  0  0  0  0  0  0  0  0
   -2.1584   -1.1653    0.6768 N   0  0  0  0  0  0  0  0  0  0  0  0
   -2.9639   -0.6358    0.3471 H   0  0  0  0  0  0  0  0  0  0  0  0
   -0.8858   -0.4359    0.7818 C   0  0  1  0  0  0  0  0  0  0  0  0
   -0.3089   -0.9009    1.5829 H   0  0  0  0  0  0  0  0  0  0  0  0
   -0.1308   -0.5641   -0.5645 C   0  0  0  0  0  0  0  0  0  0  0  0
   -0.6013   -1.3428   -1.1740 H   0  0  0  0  0  0  0  0  0  0  0  0
   -0.2529    0.3749   -1.1153 H   0  0  0  0  0  0  0  0  0  0  0  0
    1.3787   -0.8891   -0.4971 C   0  0  0  0  0  0  0  0  0  0  0  0
    1.4900   -1.9787   -0.5156 H   0  0  0  0  0  0  0  0  0  0  0  0
    1.8521   -0.4980   -1.4037 H   0  0  0  0  0  0  0  0  0  0  0  0
    2.1308   -0.3688    0.7400 C   0  0  0  0  0  0  0  0  0  0  0  0
    1.9443    0.7034    0.8520 H   0  0  0  0  0  0  0  0  0  0  0  0
    1.7936   -0.8797    1.6460 H   0  0  0  0  0  0  0  0  0  0  0  0
    3.6315   -0.6003    0.5968 C   0  0  0  0  0  0  0  0  0  0  0  0
    3.8403   -1.6746    0.5416 H   0  0  0  0  0  0  0  0  0  0  0  0
    4.0023   -0.1330   -0.3223 H   0  0  0  0  0  0  0  0  0  0  0  0
    4.3008   -0.0165    1.7634 N   0  0  0  0  0  0  0  0  0  0  0  0
    5.3020   -0.2122    1.7490 H   0  0  0  0  0  0  0  0  0  0  0  0
    4.1285    0.9869    1.8211 H   0  0  0  0  0  0  0  0  0  0  0  0
   -1.1111    1.0350    1.1834 C   0  0  0  0  0  0  0  0  0  0  0  0
   -2.0329    1.6689    0.6819 O   0  0  0  0  0  0  0  0  0  0  0  0
   -0.3276    1.6270    2.1564 N   0  0  0  0  0  0  0  0  0  0  0  0
    0.4089    1.0630    2.5731 H   0  0  0  0  0  0  0  0  0  0  0  0
   -0.5158    2.9975    2.6149 C   0  0  0  0  0  0  0  0  0  0  0  0
   -1.5237    3.1306    3.0218 H   0  0  0  0  0  0  0  0  0  0  0  0
    0.2078    3.2365    3.4000 H   0  0  0  0  0  0  0  0  0  0  0  0
   -0.3739    3.7006    1.7875 H   0  0  0  0  0  0  0  0  0  0  0  0
  1  2  1  0  0  0  0
  2  3  1  0  0  0  0
  2  4  1  0  0  0  0
  2  5  1  0  0  0  0
  5  6  2  0  0  0  0
  5  7  1  0  0  0  0
  7  8  1  0  0  0  0
  7  9  1  0  0  0  0
  9 10  1  0  0  0  0
  9 11  1  0  0  0  0
  9 26  1  0  0  0  0
 11 12  1  0  0  0  0
 11 13  1  0  0  0  0
 11 14  1  0  0  0  0
 14 15  1  0  0  0  0
 14 16  1  0  0  0  0
 14 17  1  0  0  0  0
 17 18  1  0  0  0  0
 17 19  1  0  0  0  0
 17 20  1  0  0  0  0
 20 21  1  0  0  0  0
 20 22  1  0  0  0  0
 20 23  1  0  0  0  0
 23 24  1  0  0  0  0
 23 25  1  0  0  0  0
 26 27  2  0  0  0  0
 26 28  1  0  0  0  0
 28 29  1  0  0  0  0
 28 30  1  0  0  0  0
 30 31  1  0  0  0  0
 30 32  1  0  0  0  0
 30 33  1  0  0  0  0
M  END
$$$$

  -OEChem-03222214063D

 33 32  0     1  0  0  0  0  0999 V2000
   -3.8503   -3.9864    1.5559 H   0  0  0  0  0  0  0  0  0  0  0  0
   -3.8263   -2.9886    1.1090 C   0  0  0  0  0  0  0  0  0  0  0  0
   -4.5329   -2.3470    1.6408 H   0  0  0  0  0  0  0  0  0  0  0  0
   -4.1296   -3.0646    0.0621 H   0  0  0  0  0  0  0  0  0  0  0  0
   -2.4278   -2.4080    1.2020 C   0  0  0  0  0  0  0  0  0  0  0  0
   -1.5370   -3.0500    1.7352 O   0  0  0  0  0  0  0  0  0  0  0  0
   -2.1730   -1.1571    0.6790 N   0  0  0  0  0  0  0  0  0  0  0  0
   -2.9677   -0.6289    0.3226 H   0  0  0  0  0  0  0  0  0  0  0  0
   -0.8976   -0.4347    0.7984 C   0  0  1  0  0  0  0  0  0  0  0  0
   -0.3388   -0.8890    1.6173 H   0  0  0  0  0  0  0  0  0  0  0  0
   -0.1247   -0.5743   -0.5388 C   0  0  0  0  0  0  0  0  0  0  0  0
   -0.5980   -1.3557   -1.1432 H   0  0  0  0  0  0  0  0  0  0  0  0
   -0.2441    0.3583   -1.1007 H   0  0  0  0  0  0  0  0  0  0  0  0
    1.3863   -0.9086   -0.4799 C   0  0  0  0  0  0  0  0  0  0  0  0
    1.5110   -1.9553   -0.7781 H   0  0  0  0  0  0  0  0  0  0  0  0
    1.8949   -0.2967   -1.2322 H   0  0  0  0  0  0  0  0  0  0  0  0
    2.0931   -0.7281    0.8735 C   0  0  0  0  0  0  0  0  0  0  0  0
    1.9091    0.2816    1.2508 H   0  0  0  0  0  0  0  0  0  0  0  0
    1.7136   -1.4514    1.6020 H   0  0  0  0  0  0  0  0  0  0  0  0
    3.5976   -0.9388    0.7272 C   0  0  0  0  0  0  0  0  0  0  0  0
    3.8010   -1.9680    0.4099 H   0  0  0  0  0  0  0  0  0  0  0  0
    4.0035   -0.2622   -0.0332 H   0  0  0  0  0  0  0  0  0  0  0  0
    4.2334   -0.6757    2.0220 N   0  0  0  0  0  0  0  0  0  0  0  0
    5.2334   -0.8751    1.9890 H   0  0  0  0  0  0  0  0  0  0  0  0
    4.0646    0.2824    2.3268 H   0  0  0  0  0  0  0  0  0  0  0  0
   -1.1206    1.0421    1.1784 C   0  0  0  0  0  0  0  0  0  0  0  0
   -2.0253    1.6781    0.6492 O   0  0  0  0  0  0  0  0  0  0  0  0
   -0.3506    1.6398    2.1587 N   0  0  0  0  0  0  0  0  0  0  0  0
    0.3555    1.0670    2.6136 H   0  0  0  0  0  0  0  0  0  0  0  0
   -0.5507    3.0102    2.6125 C   0  0  0  0  0  0  0  0  0  0  0  0
   -1.5622    3.1378    3.0123 H   0  0  0  0  0  0  0  0  0  0  0  0
    0.1664    3.2556    3.4019 H   0  0  0  0  0  0  0  0  0  0  0  0
   -0.4072    3.7122    1.7844 H   0  0  0  0  0  0  0  0  0  0  0  0
  1  2  1  0  0  0  0
  2  3  1  0  0  0  0
  2  4  1  0  0  0  0
  2  5  1  0  0  0  0
  5  6  2  0  0  0  0
  5  7  1  0  0  0  0
  7  8  1  0  0  0  0
  7  9  1  0  0  0  0
  9 10  1  0  0  0  0
  9 11  1  0  0  0  0
  9 26  1  0  0  0  0
 11 12  1  0  0  0  0
 11 13  1  0  0  0  0
 11 14  1  0  0  0  0
 14 15  1  0  0  0  0
 14 16  1  0  0  0  0
 14 17  1  0  0  0  0
 17 18  1  0  0  0  0
 17 19  1  0  0  0  0
 17 20  1  0  0  0  0
 20 21  1  0  0  0  0
 20 22  1  0  0  0  0
 20 23  1  0  0  0  0
 23 24  1  0  0  0  0
 23 25  1  0  0  0  0
 26 27  2  0  0  0  0
 26 28  1  0  0  0  0
 28 29  1  0  0  0  0
 28 30  1  0  0  0  0
 30 31  1  0  0  0  0
 30 32  1  0  0  0  0
 30 33  1  0  0  0  0
M  END
$$$$

  -OEChem-03222214063D

 33 32  0     1  0  0  0  0  0999 V2000
   -3.8597   -3.9854    1.5642 H   0  0  0  0  0  0  0  0  0  0  0  0
   -3.8345   -2.9899    1.1123 C   0  0  0  0  0  0  0  0  0  0  0  0
   -4.5451   -2.3469    1.6372 H   0  0  0  0  0  0  0  0  0  0  0  0
   -4.1324   -3.0715    0.0642 H   0  0  0  0  0  0  0  0  0  0  0  0
   -2.4374   -2.4061    1.2093 C   0  0  0  0  0  0  0  0  0  0  0  0
   -1.5489   -3.0429    1.7525 O   0  0  0  0  0  0  0  0  0  0  0  0
   -2.1829   -1.1571    0.6810 N   0  0  0  0  0  0  0  0  0  0  0  0
   -2.9771   -0.6333    0.3173 H   0  0  0  0  0  0  0  0  0  0  0  0
   -0.9089   -0.4313    0.7984 C   0  0  1  0  0  0  0  0  0  0  0  0
   -0.3567   -0.8799    1.6247 H   0  0  0  0  0  0  0  0  0  0  0  0
   -0.1273   -0.5647   -0.5354 C   0  0  0  0  0  0  0  0  0  0  0  0
   -0.5907   -1.3661   -1.1209 H   0  0  0  0  0  0  0  0  0  0  0  0
   -0.2630    0.3526   -1.1189 H   0  0  0  0  0  0  0  0  0  0  0  0
    1.3870   -0.8910   -0.4776 C   0  0  0  0  0  0  0  0  0  0  0  0
    1.5570   -1.8124   -1.0451 H   0  0  0  0  0  0  0  0  0  0  0  0
    1.9186   -0.0890   -1.0006 H   0  0  0  0  0  0  0  0  0  0  0  0
    2.0248   -1.0622    0.9101 C   0  0  0  0  0  0  0  0  0  0  0  0
    1.8696   -0.1557    1.5025 H   0  0  0  0  0  0  0  0  0  0  0  0
    1.5640   -1.9073    1.4329 H   0  0  0  0  0  0  0  0  0  0  0  0
    3.5231   -1.3245    0.7849 C   0  0  0  0  0  0  0  0  0  0  0  0
    3.6930   -2.2621    0.2435 H   0  0  0  0  0  0  0  0  0  0  0  0
    4.0034   -0.5155    0.2234 H   0  0  0  0  0  0  0  0  0  0  0  0
    4.0994   -1.4103    2.1302 N   0  0  0  0  0  0  0  0  0  0  0  0
    5.0924   -1.6415    2.0929 H   0  0  0  0  0  0  0  0  0  0  0  0
    3.9452   -0.5495    2.6541 H   0  0  0  0  0  0  0  0  0  0  0  0
   -1.1261    1.0474    1.1706 C   0  0  0  0  0  0  0  0  0  0  0  0
   -2.0283    1.6851    0.6394 O   0  0  0  0  0  0  0  0  0  0  0  0
   -0.3512    1.6437    2.1479 N   0  0  0  0  0  0  0  0  0  0  0  0
    0.3458    1.0661    2.6098 H   0  0  0  0  0  0  0  0  0  0  0  0
   -0.5430    3.0169    2.5970 C   0  0  0  0  0  0  0  0  0  0  0  0
   -1.5503    3.1496    3.0057 H   0  0  0  0  0  0  0  0  0  0  0  0
    0.1823    3.2637    3.3782 H   0  0  0  0  0  0  0  0  0  0  0  0
   -0.4055    3.7153    1.7647 H   0  0  0  0  0  0  0  0  0  0  0  0
  1  2  1  0  0  0  0
  2  3  1  0  0  0  0
  2  4  1  0  0  0  0
  2  5  1  0  0  0  0
  5  6  2  0  0  0  0
  5  7  1  0  0  0  0
  7  8  1  0  0  0  0
  7  9  1  0  0  0  0
  9 10  1  0  0  0  0
  9 11  1  0  0  0  0
  9 26  1  0  0  0  0
 11 12  1  0  0  0  0
 11 13  1  0  0  0  0
 11 14  1  0  0  0  0
 14 15  1  0  0  0  0
 14 16  1  0  0  0  0
 14 17  1  0  0  0  0
 17 18  1  0  0  0  0
 17 19  1  0  0  0  0
 17 20  1  0  0  0  0
 20 21  1  0  0  0  0
 20 22  1  0  0  0  0
 20 23  1  0  0  0  0
 23 24  1  0  0  0  0
 23 25  1  0  0  0  0
 26 27  2  0  0  0  0
 26 28  1  0  0  0  0
 28 29  1  0  0  0  0
 28 30  1  0  0  0  0
 30 31  1  0  0  0  0
 30 32  1  0  0  0  0
 30 33  1  0  0  0  0
M  END
$$$$

  -OEChem-03222214063D

 33 32  0     1  0  0  0  0  0999 V2000
   -3.8407   -3.9914    1.5686 H   0  0  0  0  0  0  0  0  0  0  0  0
   -3.8207   -2.9969    1.1144 C   0  0  0  0  0  0  0  0  0  0  0  0
   -4.5400   -2.3584    1.6326 H   0  0  0  0  0  0  0  0  0  0  0  0
   -4.1104   -3.0835    0.0645 H   0  0  0  0  0  0  0  0  0  0  0  0
   -2.4290   -2.4021    1.2193 C   0  0  0  0  0  0  0  0  0  0  0  0
   -1.5410   -3.0281    1.7753 O   0  0  0  0  0  0  0  0  0  0  0  0
   -2.1792   -1.1545    0.6858 N   0  0  0  0  0  0  0  0  0  0  0  0
   -2.9739   -0.6390    0.3115 H   0  0  0  0  0  0  0  0  0  0  0  0
   -0.9085   -0.4224    0.8006 C   0  0  1  0  0  0  0  0  0  0  0  0
   -0.3549   -0.8631    1.6299 H   0  0  0  0  0  0  0  0  0  0  0  0
   -0.1222   -0.5500   -0.5309 C   0  0  0  0  0  0  0  0  0  0  0  0
   -0.5728   -1.3719   -1.0978 H   0  0  0  0  0  0  0  0  0  0  0  0
   -0.2721    0.3523   -1.1336 H   0  0  0  0  0  0  0  0  0  0  0  0
    1.3930   -0.8666   -0.4670 C   0  0  0  0  0  0  0  0  0  0  0  0
    1.6200   -1.5971   -1.2510 H   0  0  0  0  0  0  0  0  0  0  0  0
    1.9338    0.0522   -0.7176 H   0  0  0  0  0  0  0  0  0  0  0  0
    1.9538   -1.3816    0.8677 C   0  0  0  0  0  0  0  0  0  0  0  0
    1.8458   -0.6129    1.6389 H   0  0  0  0  0  0  0  0  0  0  0  0
    1.4012   -2.2733    1.1833 H   0  0  0  0  0  0  0  0  0  0  0  0
    3.4321   -1.7367    0.7272 C   0  0  0  0  0  0  0  0  0  0  0  0
    3.5557   -2.5400   -0.0077 H   0  0  0  0  0  0  0  0  0  0  0  0
    3.9962   -0.8654    0.3768 H   0  0  0  0  0  0  0  0  0  0  0  0
    3.9404   -2.1708    2.0319 N   0  0  0  0  0  0  0  0  0  0  0  0
    4.9227   -2.4400    1.9771 H   0  0  0  0  0  0  0  0  0  0  0  0
    3.7969   -1.4541    2.7423 H   0  0  0  0  0  0  0  0  0  0  0  0
   -1.1308    1.0570    1.1661 C   0  0  0  0  0  0  0  0  0  0  0  0
   -2.0352    1.6897    0.6328 O   0  0  0  0  0  0  0  0  0  0  0  0
   -0.3575    1.6594    2.1411 N   0  0  0  0  0  0  0  0  0  0  0  0
    0.3444    1.0873    2.6022 H   0  0  0  0  0  0  0  0  0  0  0  0
   -0.5505    3.0347    2.5833 C   0  0  0  0  0  0  0  0  0  0  0  0
   -1.5560    3.1676    2.9962 H   0  0  0  0  0  0  0  0  0  0  0  0
    0.1781    3.2875    3.3596 H   0  0  0  0  0  0  0  0  0  0  0  0
   -0.4183    3.7284    1.7463 H   0  0  0  0  0  0  0  0  0  0  0  0
  1  2  1  0  0  0  0
  2  3  1  0  0  0  0
  2  4  1  0  0  0  0
  2  5  1  0  0  0  0
  5  6  2  0  0  0  0
  5  7  1  0  0  0  0
  7  8  1  0  0  0  0
  7  9  1  0  0  0  0
  9 10  1  0  0  0  0
  9 11  1  0  0  0  0
  9 26  1  0  0  0  0
 11 12  1  0  0  0  0
 11 13  1  0  0  0  0
 11 14  1  0  0  0  0
 14 15  1  0  0  0  0
 14 16  1  0  0  0  0
 14 17  1  0  0  0  0
 17 18  1  0  0  0  0
 17 19  1  0  0  0  0
 17 20  1  0  0  0  0
 20 21  1  0  0  0  0
 20 22  1  0  0  0  0
 20 23  1  0  0  0  0
 23 24  1  0  0  0  0
 23 25  1  0  0  0  0
 26 27  2  0  0  0  0
 26 28  1  0  0  0  0
 28 29  1  0  0  0  0
 28 30  1  0  0  0  0
 30 31  1  0  0  0  0
 30 32  1  0  0  0  0
 30 33  1  0  0  0  0
M  END
$$$$

  -OEChem-03222214063D

 33 32  0     1  0  0  0  0  0999 V2000
   -3.8158   -3.9951    1.5688 H   0  0  0  0  0  0  0  0  0  0  0  0
   -3.7959   -3.0003    1.1149 C   0  0  0  0  0  0  0  0  0  0  0  0
   -4.5258   -2.3661    1.6237 H   0  0  0  0  0  0  0  0  0  0  0  0
   -4.0719   -3.0887    0.0613 H   0  0  0  0  0  0  0  0  0  0  0  0
   -2.4094   -2.3967    1.2374 C   0  0  0  0  0  0  0  0  0  0  0  0
   -1.5290   -3.0079    1.8209 O   0  0  0  0  0  0  0  0  0  0  0  0
   -2.1600   -1.1521    0.6975 N   0  0  0  0  0  0  0  0  0  0  0  0
   -2.9511   -0.6465    0.3028 H   0  0  0  0  0  0  0  0  0  0  0  0
   -0.8909   -0.4174    0.8087 C   0  0  1  0  0  0  0  0  0  0  0  0
   -0.3277   -0.8503    1.6356 H   0  0  0  0  0  0  0  0  0  0  0  0
   -0.1093   -0.5386   -0.5253 C   0  0  0  0  0  0  0  0  0  0  0  0
   -0.5558   -1.3634   -1.0914 H   0  0  0  0  0  0  0  0  0  0  0  0
   -0.2586    0.3637   -1.1285 H   0  0  0  0  0  0  0  0  0  0  0  0
    1.4030   -0.8516   -0.4512 C   0  0  0  0  0  0  0  0  0  0  0  0
    1.6864   -1.3585   -1.3798 H   0  0  0  0  0  0  0  0  0  0  0  0
    1.9432    0.1005   -0.4244 H   0  0  0  0  0  0  0  0  0  0  0  0
    1.8803   -1.6887    0.7461 C   0  0  0  0  0  0  0  0  0  0  0  0
    1.8008   -1.1084    1.6697 H   0  0  0  0  0  0  0  0  0  0  0  0
    1.2560   -2.5836    0.8439 H   0  0  0  0  0  0  0  0  0  0  0  0
    3.3364   -2.1076    0.5574 C   0  0  0  0  0  0  0  0  0  0  0  0
    3.4383   -2.7150   -0.3488 H   0  0  0  0  0  0  0  0  0  0  0  0
    3.9692   -1.2203    0.4452 H   0  0  0  0  0  0  0  0  0  0  0  0
    3.7612   -2.8831    1.7263 N   0  0  0  0  0  0  0  0  0  0  0  0
    4.7366   -3.1704    1.6485 H   0  0  0  0  0  0  0  0  0  0  0  0
    3.5980   -2.3689    2.5915 H   0  0  0  0  0  0  0  0  0  0  0  0
   -1.1238    1.0626    1.1663 C   0  0  0  0  0  0  0  0  0  0  0  0
   -2.0282    1.6881    0.6241 O   0  0  0  0  0  0  0  0  0  0  0  0
   -0.3565    1.6761    2.1391 N   0  0  0  0  0  0  0  0  0  0  0  0
    0.3449    1.1109    2.6093 H   0  0  0  0  0  0  0  0  0  0  0  0
   -0.5605    3.0535    2.5701 C   0  0  0  0  0  0  0  0  0  0  0  0
   -1.5678    3.1821    2.9803 H   0  0  0  0  0  0  0  0  0  0  0  0
    0.1649    3.3184    3.3452 H   0  0  0  0  0  0  0  0  0  0  0  0
   -0.4325    3.7413    1.7277 H   0  0  0  0  0  0  0  0  0  0  0  0
  1  2  1  0  0  0  0
  2  3  1  0  0  0  0
  2  4  1  0  0  0  0
  2  5  1  0  0  0  0
  5  6  2  0  0  0  0
  5  7  1  0  0  0  0
  7  8  1  0  0  0  0
  7  9  1  0  0  0  0
  9 10  1  0  0  0  0
  9 11  1  0  0  0  0
  9 26  1  0  0  0  0
 11 12  1  0  0  0  0
 11 13  1  0  0  0  0
 11 14  1  0  0  0  0
 14 15  1  0  0  0  0
 14 16  1  0  0  0  0
 14 17  1  0  0  0  0
 17 18  1  0  0  0  0
 17 19  1  0  0  0  0
 17 20  1  0  0  0  0
 20 21  1  0  0  0  0
 20 22  1  0  0  0  0
 20 23  1  0  0  0  0
 23 24  1  0  0  0  0
 23 25  1  0  0  0  0
 26 27  2  0  0  0  0
 26 28  1  0  0  0  0
 28 29  1  0  0  0  0
 28 30  1  0  0  0  0
 30 31  1  0  0  0  0
 30 32  1  0  0  0  0
 30 33  1  0  0  0  0
M  END
$$$$

  -OEChem-03222214063D

 33 32  0     1  0  0  0  0  0999 V2000
   -3.7791   -3.9978    1.5904 H   0  0  0  0  0  0  0  0  0  0  0  0
   -3.7638   -3.0054    1.1310 C   0  0  0  0  0  0  0  0  0  0  0  0
   -4.4942   -2.3704    1.6382 H   0  0  0  0  0  0  0  0  0  0  0  0
   -4.0422   -3.1001    0.0785 H   0  0  0  0  0  0  0  0  0  0  0  0
   -2.3795   -2.3960    1.2474 C   0  0  0  0  0  0  0  0  0  0  0  0
   -1.4966   -2.9976    1.8376 O   0  0  0  0  0  0  0  0  0  0  0  0
   -2.1364   -1.1521    0.7033 N   0  0  0  0  0  0  0  0  0  0  0  0
   -2.9288   -0.6503    0.3063 H   0  0  0  0  0  0  0  0  0  0  0  0
   -0.8664   -0.4187    0.8034 C   0  0  1  0  0  0  0  0  0  0  0  0
   -0.2856   -0.8454    1.6214 H   0  0  0  0  0  0  0  0  0  0  0  0
   -0.1003   -0.5336   -0.5379 C   0  0  0  0  0  0  0  0  0  0  0  0
   -0.5497   -1.3480   -1.1162 H   0  0  0  0  0  0  0  0  0  0  0  0
   -0.2404    0.3795   -1.1267 H   0  0  0  0  0  0  0  0  0  0  0  0
    1.4071   -0.8484   -0.4488 C   0  0  0  0  0  0  0  0  0  0  0  0
    1.7506   -1.1183   -1.4531 H   0  0  0  0  0  0  0  0  0  0  0  0
    1.9364    0.0644   -0.1562 H   0  0  0  0  0  0  0  0  0  0  0  0
    1.7959   -1.9661    0.5335 C   0  0  0  0  0  0  0  0  0  0  0  0
    1.6728   -1.6324    1.5671 H   0  0  0  0  0  0  0  0  0  0  0  0
    1.1485   -2.8353    0.3746 H   0  0  0  0  0  0  0  0  0  0  0  0
    3.2522   -2.3764    0.3262 C   0  0  0  0  0  0  0  0  0  0  0  0
    3.4092   -2.7055   -0.7070 H   0  0  0  0  0  0  0  0  0  0  0  0
    3.9105   -1.5214    0.5149 H   0  0  0  0  0  0  0  0  0  0  0  0
    3.5700   -3.4715    1.2466 N   0  0  0  0  0  0  0  0  0  0  0  0
    4.5535   -3.7343    1.1892 H   0  0  0  0  0  0  0  0  0  0  0  0
    3.3063   -3.2386    2.2040 H   0  0  0  0  0  0  0  0  0  0  0  0
   -1.1038    1.0606    1.1621 C   0  0  0  0  0  0  0  0  0  0  0  0
   -2.0153    1.6818    0.6271 O   0  0  0  0  0  0  0  0  0  0  0  0
   -0.3330    1.6788    2.1292 N   0  0  0  0  0  0  0  0  0  0  0  0
    0.3711    1.1166    2.5988 H   0  0  0  0  0  0  0  0  0  0  0  0
   -0.5443    3.0544    2.5624 C   0  0  0  0  0  0  0  0  0  0  0  0
   -1.5478    3.1737    2.9841 H   0  0  0  0  0  0  0  0  0  0  0  0
    0.1877    3.3260    3.3290 H   0  0  0  0  0  0  0  0  0  0  0  0
   -0.4323    3.7429    1.7183 H   0  0  0  0  0  0  0  0  0  0  0  0
  1  2  1  0  0  0  0
  2  3  1  0  0  0  0
  2  4  1  0  0  0  0
  2  5  1  0  0  0  0
  5  6  2  0  0  0  0
  5  7  1  0  0  0  0
  7  8  1  0  0  0  0
  7  9  1  0  0  0  0
  9 10  1  0  0  0  0
  9 11  1  0  0  0  0
  9 26  1  0  0  0  0
 11 12  1  0  0  0  0
 11 13  1  0  0  0  0
 11 14  1  0  0  0  0
 14 15  1  0  0  0  0
 14 16  1  0  0  0  0
 14 17  1  0  0  0  0
 17 18  1  0  0  0  0
 17 19  1  0  0  0  0
 17 20  1  0  0  0  0
 20 21  1  0  0  0  0
 20 22  1  0  0  0  0
 20 23  1  0  0  0  0
 23 24  1  0  0  0  0
 23 25  1  0  0  0  0
 26 27  2  0  0  0  0
 26 28  1  0  0  0  0
 28 29  1  0  0  0  0
 28 30  1  0  0  0  0
 30 31  1  0  0  0  0
 30 32  1  0  0  0  0
 30 33  1  0  0  0  0
M  END
$$$$

  -OEChem-03222214063D

 33 32  0     1  0  0  0  0  0999 V2000
   -3.7278   -4.0137    1.6313 H   0  0  0  0  0  0  0  0  0  0  0  0
   -3.7284   -3.0231    1.1682 C   0  0  0  0  0  0  0  0  0  0  0  0
   -4.4491   -2.3900    1.6915 H   0  0  0  0  0  0  0  0  0  0  0  0
   -4.0320   -3.1235    0.1234 H   0  0  0  0  0  0  0  0  0  0  0  0
   -2.3439   -2.4080    1.2474 C   0  0  0  0  0  0  0  0  0  0  0  0
   -1.4406   -3.0131    1.8034 O   0  0  0  0  0  0  0  0  0  0  0  0
   -2.1201   -1.1584    0.7073 N   0  0  0  0  0  0  0  0  0  0  0  0
   -2.9237   -0.6529    0.3382 H   0  0  0  0  0  0  0  0  0  0  0  0
   -0.8447   -0.4315    0.7736 C   0  0  1  0  0  0  0  0  0  0  0  0
   -0.2308   -0.8645    1.5652 H   0  0  0  0  0  0  0  0  0  0  0  0
   -0.1230   -0.5338   -0.5915 C   0  0  0  0  0  0  0  0  0  0  0  0
   -0.5925   -1.3254   -1.1855 H   0  0  0  0  0  0  0  0  0  0  0  0
   -0.2558    0.3987   -1.1508 H   0  0  0  0  0  0  0  0  0  0  0  0
    1.3792   -0.8580   -0.5047 C   0  0  0  0  0  0  0  0  0  0  0  0
    1.7827   -0.8808   -1.5224 H   0  0  0  0  0  0  0  0  0  0  0  0
    1.8878   -0.0521    0.0343 H   0  0  0  0  0  0  0  0  0  0  0  0
    1.6870   -2.1990    0.1835 C   0  0  0  0  0  0  0  0  0  0  0  0
    1.3836   -2.1834    1.2330 H   0  0  0  0  0  0  0  0  0  0  0  0
    1.1275   -2.9981   -0.3146 H   0  0  0  0  0  0  0  0  0  0  0  0
    3.1797   -2.5083    0.1130 C   0  0  0  0  0  0  0  0  0  0  0  0
    3.5214   -2.4971   -0.9279 H   0  0  0  0  0  0  0  0  0  0  0  0
    3.7435   -1.7481    0.6648 H   0  0  0  0  0  0  0  0  0  0  0  0
    3.4093   -3.8328    0.6963 N   0  0  0  0  0  0  0  0  0  0  0  0
    4.4042   -4.0495    0.7504 H   0  0  0  0  0  0  0  0  0  0  0  0
    2.9648   -3.9145    1.6115 H   0  0  0  0  0  0  0  0  0  0  0  0
   -1.0674    1.0445    1.1569 C   0  0  0  0  0  0  0  0  0  0  0  0
   -1.9949    1.6737    0.6602 O   0  0  0  0  0  0  0  0  0  0  0  0
   -0.2642    1.6500    2.1055 N   0  0  0  0  0  0  0  0  0  0  0  0
    0.4541    1.0815    2.5449 H   0  0  0  0  0  0  0  0  0  0  0  0
   -0.4611    3.0191    2.5654 C   0  0  0  0  0  0  0  0  0  0  0  0
   -1.4501    3.1311    3.0221 H   0  0  0  0  0  0  0  0  0  0  0  0
    0.2960    3.2802    3.3111 H   0  0  0  0  0  0  0  0  0  0  0  0
   -0.3774    3.7203    1.7283 H   0  0  0  0  0  0  0  0  0  0  0  0
  1  2  1  0  0  0  0
  2  3  1  0  0  0  0
  2  4  1  0  0  0  0
  2  5  1  0  0  0  0
  5  6  2  0  0  0  0
  5  7  1  0  0  0  0
  7  8  1  0  0  0  0
  7  9  1  0  0  0  0
  9 10  1  0  0  0  0
  9 11  1  0  0  0  0
  9 26  1  0  0  0  0
 11 12  1  0  0  0  0
 11 13  1  0  0  0  0
 11 14  1  0  0  0  0
 14 15  1  0  0  0  0
 14 16  1  0  0  0  0
 14 17  1  0  0  0  0
 17 18  1  0  0  0  0
 17 19  1  0  0  0  0
 17 20  1  0  0  0  0
 20 21  1  0  0  0  0
 20 22  1  0  0  0  0
 20 23  1  0  0  0  0
 23 24  1  0  0  0  0
 23 25  1  0  0  0  0
 26 27  2  0  0  0  0
 26 28  1  0  0  0  0
 28 29  1  0  0  0  0
 28 30  1  0  0  0  0
 30 31  1  0  0  0  0
 30 32  1  0  0  0  0
 30 33  1  0  0  0  0
M  END
$$$$

  -OEChem-03222214063D

 33 32  0     1  0  0  0  0  0999 V2000
   -3.6587   -4.0593    1.6415 H   0  0  0  0  0  0  0  0  0  0  0  0
   -3.6756   -3.0684    1.1790 C   0  0  0  0  0  0  0  0  0  0  0  0
   -4.3913   -2.4413    1.7160 H   0  0  0  0  0  0  0  0  0  0  0  0
   -3.9985   -3.1708    0.1402 H   0  0  0  0  0  0  0  0  0  0  0  0
   -2.2946   -2.4421    1.2324 C   0  0  0  0  0  0  0  0  0  0  0  0
   -1.3722   -3.0494    1.7532 O   0  0  0  0  0  0  0  0  0  0  0  0
   -2.0964   -1.1799    0.7114 N   0  0  0  0  0  0  0  0  0  0  0  0
   -2.9139   -0.6776    0.3697 H   0  0  0  0  0  0  0  0  0  0  0  0
   -0.8252   -0.4426    0.7462 C   0  0  1  0  0  0  0  0  0  0  0  0
   -0.1712   -0.8935    1.4982 H   0  0  0  0  0  0  0  0  0  0  0  0
   -0.1525   -0.5187   -0.6435 C   0  0  0  0  0  0  0  0  0  0  0  0
   -0.6348   -1.2904   -1.2532 H   0  0  0  0  0  0  0  0  0  0  0  0
   -0.2916    0.4316   -1.1706 H   0  0  0  0  0  0  0  0  0  0  0  0
    1.3494   -0.8324   -0.5603 C   0  0  0  0  0  0  0  0  0  0  0  0
    1.8062   -0.6106   -1.5305 H   0  0  0  0  0  0  0  0  0  0  0  0
    1.8228   -0.1843    0.1847 H   0  0  0  0  0  0  0  0  0  0  0  0
    1.6076   -2.3077   -0.2220 C   0  0  0  0  0  0  0  0  0  0  0  0
    1.1483   -2.5636    0.7369 H   0  0  0  0  0  0  0  0  0  0  0  0
    1.1527   -2.9416   -0.9902 H   0  0  0  0  0  0  0  0  0  0  0  0
    3.1029   -2.5991   -0.1493 C   0  0  0  0  0  0  0  0  0  0  0  0
    3.5872   -2.3399   -1.0973 H   0  0  0  0  0  0  0  0  0  0  0  0
    3.5622   -1.9995    0.6442 H   0  0  0  0  0  0  0  0  0  0  0  0
    3.2805   -4.0268    0.1282 N   0  0  0  0  0  0  0  0  0  0  0  0
    4.2637   -4.2607    0.2632 H   0  0  0  0  0  0  0  0  0  0  0  0
    2.7214   -4.3150    0.9324 H   0  0  0  0  0  0  0  0  0  0  0  0
   -1.0426    1.0241    1.1671 C   0  0  0  0  0  0  0  0  0  0  0  0
   -1.9853    1.6596    0.7089 O   0  0  0  0  0  0  0  0  0  0  0  0
   -0.2091    1.6170    2.0975 N   0  0  0  0  0  0  0  0  0  0  0  0
    0.5251    1.0441    2.5036 H   0  0  0  0  0  0  0  0  0  0  0  0
   -0.3818    2.9850    2.5710 C   0  0  0  0  0  0  0  0  0  0  0  0
   -1.3651    3.1089    3.0370 H   0  0  0  0  0  0  0  0  0  0  0  0
    0.3851    3.2278    3.3127 H   0  0  0  0  0  0  0  0  0  0  0  0
   -0.2941    3.6916    1.7389 H   0  0  0  0  0  0  0  0  0  0  0  0
  1  2  1  0  0  0  0
  2  3  1  0  0  0  0
  2  4  1  0  0  0  0
  2  5  1  0  0  0  0
  5  6  2  0  0  0  0
  5  7  1  0  0  0  0
  7  8  1  0  0  0  0
  7  9  1  0  0  0  0
  9 10  1  0  0  0  0
  9 11  1  0  0  0  0
  9 26  1  0  0  0  0
 11 12  1  0  0  0  0
 11 13  1  0  0  0  0
 11 14  1  0  0  0  0
 14 15  1  0  0  0  0
 14 16  1  0  0  0  0
 14 17  1  0  0  0  0
 17 18  1  0  0  0  0
 17 19  1  0  0  0  0
 17 20  1  0  0  0  0
 20 21  1  0  0  0  0
 20 22  1  0  0  0  0
 20 23  1  0  0  0  0
 23 24  1  0  0  0  0
 23 25  1  0  0  0  0
 26 27  2  0  0  0  0
 26 28  1  0  0  0  0
 28 29  1  0  0  0  0
 28 30  1  0  0  0  0
 30 31  1  0  0  0  0
 30 32  1  0  0  0  0
 30 33  1  0  0  0  0
M  END
$$$$

  -OEChem-03222214063D

 33 32  0     1  0  0  0  0  0999 V2000
   -3.6248   -4.0711    1.6376 H   0  0  0  0  0  0  0  0  0  0  0  0
   -3.6504   -3.0779    1.1807 C   0  0  0  0  0  0  0  0  0  0  0  0
   -4.3583   -2.4547    1.7323 H   0  0  0  0  0  0  0  0  0  0  0  0
   -3.9890   -3.1748    0.1464 H   0  0  0  0  0  0  0  0  0  0  0  0
   -2.2697   -2.4504    1.2159 C   0  0  0  0  0  0  0  0  0  0  0  0
   -1.3345   -3.0645    1.7055 O   0  0  0  0  0  0  0  0  0  0  0  0
   -2.0833   -1.1830    0.7034 N   0  0  0  0  0  0  0  0  0  0  0  0
   -2.9086   -0.6775    0.3860 H   0  0  0  0  0  0  0  0  0  0  0  0
   -0.8151   -0.4409    0.7287 C   0  0  1  0  0  0  0  0  0  0  0  0
   -0.1512   -0.9022    1.4667 H   0  0  0  0  0  0  0  0  0  0  0  0
   -0.1597   -0.5143   -0.6681 C   0  0  0  0  0  0  0  0  0  0  0  0
   -0.6521   -1.2753   -1.2837 H   0  0  0  0  0  0  0  0  0  0  0  0
   -0.2987    0.4421   -1.1839 H   0  0  0  0  0  0  0  0  0  0  0  0
    1.3431   -0.8242   -0.5825 C   0  0  0  0  0  0  0  0  0  0  0  0
    1.8431   -0.3764   -1.4477 H   0  0  0  0  0  0  0  0  0  0  0  0
    1.7781   -0.3743    0.3159 H   0  0  0  0  0  0  0  0  0  0  0  0
    1.5943   -2.3369   -0.6087 C   0  0  0  0  0  0  0  0  0  0  0  0
    1.0478   -2.8158    0.2102 H   0  0  0  0  0  0  0  0  0  0  0  0
    1.2233   -2.7549   -1.5505 H   0  0  0  0  0  0  0  0  0  0  0  0
    3.0809   -2.6482   -0.4702 C   0  0  0  0  0  0  0  0  0  0  0  0
    3.6452   -2.1658   -1.2760 H   0  0  0  0  0  0  0  0  0  0  0  0
    3.4556   -2.2662    0.4858 H   0  0  0  0  0  0  0  0  0  0  0  0
    3.2567   -4.1013   -0.5373 N   0  0  0  0  0  0  0  0  0  0  0  0
    4.2311   -4.3645   -0.3931 H   0  0  0  0  0  0  0  0  0  0  0  0
    2.6480   -4.5730    0.1330 H   0  0  0  0  0  0  0  0  0  0  0  0
   -1.0320    1.0216    1.1645 C   0  0  0  0  0  0  0  0  0  0  0  0
   -1.9852    1.6542    0.7244 O   0  0  0  0  0  0  0  0  0  0  0  0
   -0.1909    1.6129    2.0890 N   0  0  0  0  0  0  0  0  0  0  0  0
    0.5506    1.0418    2.4840 H   0  0  0  0  0  0  0  0  0  0  0  0
   -0.3760    2.9719    2.5832 C   0  0  0  0  0  0  0  0  0  0  0  0
   -1.3519    3.0736    3.0695 H   0  0  0  0  0  0  0  0  0  0  0  0
    0.4010    3.2183    3.3132 H   0  0  0  0  0  0  0  0  0  0  0  0
   -0.3160    3.6905    1.7589 H   0  0  0  0  0  0  0  0  0  0  0  0
  1  2  1  0  0  0  0
  2  3  1  0  0  0  0
  2  4  1  0  0  0  0
  2  5  1  0  0  0  0
  5  6  2  0  0  0  0
  5  7  1  0  0  0  0
  7  8  1  0  0  0  0
  7  9  1  0  0  0  0
  9 10  1  0  0  0  0
  9 11  1  0  0  0  0
  9 26  1  0  0  0  0
 11 12  1  0  0  0  0
 11 13  1  0  0  0  0
 11 14  1  0  0  0  0
 14 15  1  0  0  0  0
 14 16  1  0  0  0  0
 14 17  1  0  0  0  0
 17 18  1  0  0  0  0
 17 19  1  0  0  0  0
 17 20  1  0  0  0  0
 20 21  1  0  0  0  0
 20 22  1  0  0  0  0
 20 23  1  0  0  0  0
 23 24  1  0  0  0  0
 23 25  1  0  0  0  0
 26 27  2  0  0  0  0
 26 28  1  0  0  0  0
 28 29  1  0  0  0  0
 28 30  1  0  0  0  0
 30 31  1  0  0  0  0
 30 32  1  0  0  0  0
 30 33  1  0  0  0  0
M  END
$$$$

  -OEChem-03222214063D

 33 32  0     1  0  0  0  0  0999 V2000
   -3.6430   -4.0599    1.6384 H   0  0  0  0  0  0  0  0  0  0  0  0
   -3.6673   -3.0662    1.1821 C   0  0  0  0  0  0  0  0  0  0  0  0
   -4.3642   -2.4377    1.7418 H   0  0  0  0  0  0  0  0  0  0  0  0
   -4.0191   -3.1599    0.1520 H   0  0  0  0  0  0  0  0  0  0  0  0
   -2.2818   -2.4483    1.2002 C   0  0  0  0  0  0  0  0  0  0  0  0
   -1.3420   -3.0732    1.6672 O   0  0  0  0  0  0  0  0  0  0  0  0
   -2.0941   -1.1798    0.6913 N   0  0  0  0  0  0  0  0  0  0  0  0
   -2.9207   -0.6657    0.3911 H   0  0  0  0  0  0  0  0  0  0  0  0
   -0.8251   -0.4398    0.7250 C   0  0  1  0  0  0  0  0  0  0  0  0
   -0.1729   -0.9050    1.4704 H   0  0  0  0  0  0  0  0  0  0  0  0
   -0.1593   -0.5192   -0.6666 C   0  0  0  0  0  0  0  0  0  0  0  0
   -0.6546   -1.2807   -1.2792 H   0  0  0  0  0  0  0  0  0  0  0  0
   -0.2970    0.4341   -1.1885 H   0  0  0  0  0  0  0  0  0  0  0  0
    1.3462   -0.8318   -0.5787 C   0  0  0  0  0  0  0  0  0  0  0  0
    1.8808   -0.1763   -1.2742 H   0  0  0  0  0  0  0  0  0  0  0  0
    1.7345   -0.6238    0.4233 H   0  0  0  0  0  0  0  0  0  0  0  0
    1.6292   -2.2873   -0.9690 C   0  0  0  0  0  0  0  0  0  0  0  0
    1.0508   -2.9569   -0.3234 H   0  0  0  0  0  0  0  0  0  0  0  0
    1.3148   -2.4593   -2.0038 H   0  0  0  0  0  0  0  0  0  0  0  0
    3.1134   -2.6121   -0.8329 C   0  0  0  0  0  0  0  0  0  0  0  0
    3.7060   -1.9435   -1.4671 H   0  0  0  0  0  0  0  0  0  0  0  0
    3.4340   -2.4705    0.2051 H   0  0  0  0  0  0  0  0  0  0  0  0
    3.3241   -4.0040   -1.2399 N   0  0  0  0  0  0  0  0  0  0  0  0
    4.3009   -4.2772   -1.1334 H   0  0  0  0  0  0  0  0  0  0  0  0
    2.7114   -4.6324   -0.7188 H   0  0  0  0  0  0  0  0  0  0  0  0
   -1.0383    1.0223    1.1631 C   0  0  0  0  0  0  0  0  0  0  0  0
   -1.9905    1.6574    0.7246 O   0  0  0  0  0  0  0  0  0  0  0  0
   -0.1990    1.6082    2.0928 N   0  0  0  0  0  0  0  0  0  0  0  0
    0.5443    1.0362    2.4834 H   0  0  0  0  0  0  0  0  0  0  0  0
   -0.3800    2.9672    2.5886 C   0  0  0  0  0  0  0  0  0  0  0  0
   -1.3570    3.0725    3.0722 H   0  0  0  0  0  0  0  0  0  0  0  0
    0.3962    3.2093    3.3208 H   0  0  0  0  0  0  0  0  0  0  0  0
   -0.3148    3.6865    1.7654 H   0  0  0  0  0  0  0  0  0  0  0  0
  1  2  1  0  0  0  0
  2  3  1  0  0  0  0
  2  4  1  0  0  0  0
  2  5  1  0  0  0  0
  5  6  2  0  0  0  0
  5  7  1  0  0  0  0
  7  8  1  0  0  0  0
  7  9  1  0  0  0  0
  9 10  1  0  0  0  0
  9 11  1  0  0  0  0
  9 26  1  0  0  0  0
 11 12  1  0  0  0  0
 11 13  1  0  0  0  0
 11 14  1  0  0  0  0
 14 15  1  0  0  0  0
 14 16  1  0  0  0  0
 14 17  1  0  0  0  0
 17 18  1  0  0  0  0
 17 19  1  0  0  0  0
 17 20  1  0  0  0  0
 20 21  1  0  0  0  0
 20 22  1  0  0  0  0
 20 23  1  0  0  0  0
 23 24  1  0  0  0  0
 23 25  1  0  0  0  0
 26 27  2  0  0  0  0
 26 28  1  0  0  0  0
 28 29  1  0  0  0  0
 28 30  1  0  0  0  0
 30 31  1  0  0  0  0
 30 32  1  0  0  0  0
 30 33  1  0  0  0  0
M  END
$$$$

  -OEChem-03222214063D

 33 32  0     1  0  0  0  0  0999 V2000
   -3.6889   -4.0392    1.6456 H   0  0  0  0  0  0  0  0  0  0  0  0
   -3.7026   -3.0485    1.1826 C   0  0  0  0  0  0  0  0  0  0  0  0
   -4.3933   -2.4096    1.7382 H   0  0  0  0  0  0  0  0  0  0  0  0
   -4.0547   -3.1454    0.1528 H   0  0  0  0  0  0  0  0  0  0  0  0
   -2.3109   -2.4447    1.1983 C   0  0  0  0  0  0  0  0  0  0  0  0
   -1.3772   -3.0778    1.6662 O   0  0  0  0  0  0  0  0  0  0  0  0
   -2.1099   -1.1789    0.6876 N   0  0  0  0  0  0  0  0  0  0  0  0
   -2.9311   -0.6580    0.3841 H   0  0  0  0  0  0  0  0  0  0  0  0
   -0.8365   -0.4464    0.7352 C   0  0  1  0  0  0  0  0  0  0  0  0
   -0.2013   -0.9116    1.4946 H   0  0  0  0  0  0  0  0  0  0  0  0
   -0.1505   -0.5289   -0.6474 C   0  0  0  0  0  0  0  0  0  0  0  0
   -0.6451   -1.3004   -1.2477 H   0  0  0  0  0  0  0  0  0  0  0  0
   -0.2874    0.4145   -1.1870 H   0  0  0  0  0  0  0  0  0  0  0  0
    1.3562   -0.8490   -0.5576 C   0  0  0  0  0  0  0  0  0  0  0  0
    1.9198   -0.0271   -1.0115 H   0  0  0  0  0  0  0  0  0  0  0  0
    1.6837   -0.9289    0.4835 H   0  0  0  0  0  0  0  0  0  0  0  0
    1.6885   -2.1535   -1.2923 C   0  0  0  0  0  0  0  0  0  0  0  0
    1.1121   -2.9757   -0.8547 H   0  0  0  0  0  0  0  0  0  0  0  0
    1.4057   -2.0638   -2.3465 H   0  0  0  0  0  0  0  0  0  0  0  0
    3.1769   -2.4737   -1.1963 C   0  0  0  0  0  0  0  0  0  0  0  0
    3.7661   -1.6592   -1.6321 H   0  0  0  0  0  0  0  0  0  0  0  0
    3.4703   -2.5833   -0.1463 H   0  0  0  0  0  0  0  0  0  0  0  0
    3.4315   -3.7198   -1.9244 N   0  0  0  0  0  0  0  0  0  0  0  0
    4.4140   -3.9873   -1.8678 H   0  0  0  0  0  0  0  0  0  0  0  0
    2.8298   -4.4703   -1.5840 H   0  0  0  0  0  0  0  0  0  0  0  0
   -1.0467    1.0180    1.1658 C   0  0  0  0  0  0  0  0  0  0  0  0
   -1.9909    1.6570    0.7157 O   0  0  0  0  0  0  0  0  0  0  0  0
   -0.2153    1.6008    2.1041 N   0  0  0  0  0  0  0  0  0  0  0  0
    0.5250    1.0278    2.4987 H   0  0  0  0  0  0  0  0  0  0  0  0
   -0.3812    2.9685    2.5802 C   0  0  0  0  0  0  0  0  0  0  0  0
   -1.3625    3.0954    3.0496 H   0  0  0  0  0  0  0  0  0  0  0  0
    0.3892    3.2078    3.3194 H   0  0  0  0  0  0  0  0  0  0  0  0
   -0.2941    3.6759    1.7488 H   0  0  0  0  0  0  0  0  0  0  0  0
  1  2  1  0  0  0  0
  2  3  1  0  0  0  0
  2  4  1  0  0  0  0
  2  5  1  0  0  0  0
  5  6  2  0  0  0  0
  5  7  1  0  0  0  0
  7  8  1  0  0  0  0
  7  9  1  0  0  0  0
  9 10  1  0  0  0  0
  9 11  1  0  0  0  0
  9 26  1  0  0  0  0
 11 12  1  0  0  0  0
 11 13  1  0  0  0  0
 11 14  1  0  0  0  0
 14 15  1  0  0  0  0
 14 16  1  0  0  0  0
 14 17  1  0  0  0  0
 17 18  1  0  0  0  0
 17 19  1  0  0  0  0
 17 20  1  0  0  0  0
 20 21  1  0  0  0  0
 20 22  1  0  0  0  0
 20 23  1  0  0  0  0
 23 24  1  0  0  0  0
 23 25  1  0  0  0  0
 26 27  2  0  0  0  0
 26 28  1  0  0  0  0
 28 29  1  0  0  0  0
 28 30  1  0  0  0  0
 30 31  1  0  0  0  0
 30 32  1  0  0  0  0
 30 33  1  0  0  0  0
M  END
$$$$

  -OEChem-03222214063D

 33 32  0     1  0  0  0  0  0999 V2000
   -3.7189   -4.0247    1.6458 H   0  0  0  0  0  0  0  0  0  0  0  0
   -3.7238   -3.0331    1.1847 C   0  0  0  0  0  0  0  0  0  0  0  0
   -4.4122   -2.3904    1.7387 H   0  0  0  0  0  0  0  0  0  0  0  0
   -4.0725   -3.1259    0.1533 H   0  0  0  0  0  0  0  0  0  0  0  0
   -2.3283   -2.4383    1.2064 C   0  0  0  0  0  0  0  0  0  0  0  0
   -1.4001   -3.0756    1.6799 O   0  0  0  0  0  0  0  0  0  0  0  0
   -2.1175   -1.1766    0.6902 N   0  0  0  0  0  0  0  0  0  0  0  0
   -2.9348   -0.6521    0.3826 H   0  0  0  0  0  0  0  0  0  0  0  0
   -0.8399   -0.4517    0.7366 C   0  0  1  0  0  0  0  0  0  0  0  0
   -0.2092   -0.9151    1.5007 H   0  0  0  0  0  0  0  0  0  0  0  0
   -0.1512   -0.5388   -0.6445 C   0  0  0  0  0  0  0  0  0  0  0  0
   -0.6442   -1.3261   -1.2253 H   0  0  0  0  0  0  0  0  0  0  0  0
   -0.2912    0.3928   -1.2038 H   0  0  0  0  0  0  0  0  0  0  0  0
    1.3529   -0.8667   -0.5524 C   0  0  0  0  0  0  0  0  0  0  0  0
    1.9316    0.0472   -0.7225 H   0  0  0  0  0  0  0  0  0  0  0  0
    1.6105   -1.2388    0.4440 H   0  0  0  0  0  0  0  0  0  0  0  0
    1.7473   -1.9399   -1.5743 C   0  0  0  0  0  0  0  0  0  0  0  0
    1.1773   -2.8555   -1.3841 H   0  0  0  0  0  0  0  0  0  0  0  0
    1.5041   -1.5919   -2.5838 H   0  0  0  0  0  0  0  0  0  0  0  0
    3.2392   -2.2484   -1.4930 C   0  0  0  0  0  0  0  0  0  0  0  0
    3.8218   -1.3397   -1.6809 H   0  0  0  0  0  0  0  0  0  0  0  0
    3.4922   -2.6148   -0.4919 H   0  0  0  0  0  0  0  0  0  0  0  0
    3.5607   -3.2651   -2.4987 N   0  0  0  0  0  0  0  0  0  0  0  0
    4.5507   -3.5095   -2.4741 H   0  0  0  0  0  0  0  0  0  0  0  0
    2.9783   -4.0942   -2.3785 H   0  0  0  0  0  0  0  0  0  0  0  0
   -1.0419    1.0159    1.1593 C   0  0  0  0  0  0  0  0  0  0  0  0
   -1.9844    1.6569    0.7084 O   0  0  0  0  0  0  0  0  0  0  0  0
   -0.2084    1.5978    2.0964 N   0  0  0  0  0  0  0  0  0  0  0  0
    0.5310    1.0234    2.4906 H   0  0  0  0  0  0  0  0  0  0  0  0
   -0.3754    2.9636    2.5774 C   0  0  0  0  0  0  0  0  0  0  0  0
   -1.3575    3.0878    3.0455 H   0  0  0  0  0  0  0  0  0  0  0  0
    0.3938    3.2001    3.3190 H   0  0  0  0  0  0  0  0  0  0  0  0
   -0.2876    3.6745    1.7490 H   0  0  0  0  0  0  0  0  0  0  0  0
  1  2  1  0  0  0  0
  2  3  1  0  0  0  0
  2  4  1  0  0  0  0
  2  5  1  0  0  0  0
  5  6  2  0  0  0  0
  5  7  1  0  0  0  0
  7  8  1  0  0  0  0
  7  9  1  0  0  0  0
  9 10  1  0  0  0  0
  9 11  1  0  0  0  0
  9 26  1  0  0  0  0
 11 12  1  0  0  0  0
 11 13  1  0  0  0  0
 11 14  1  0  0  0  0
 14 15  1  0  0  0  0
 14 16  1  0  0  0  0
 14 17  1  0  0  0  0
 17 18  1  0  0  0  0
 17 19  1  0  0  0  0
 17 20  1  0  0  0  0
 20 21  1  0  0  0  0
 20 22  1  0  0  0  0
 20 23  1  0  0  0  0
 23 24  1  0  0  0  0
 23 25  1  0  0  0  0
 26 27  2  0  0  0  0
 26 28  1  0  0  0  0
 28 29  1  0  0  0  0
 28 30  1  0  0  0  0
 30 31  1  0  0  0  0
 30 32  1  0  0  0  0
 30 33  1  0  0  0  0
M  END
$$$$

  -OEChem-03222214063D

 33 32  0     1  0  0  0  0  0999 V2000
   -3.7259   -4.0188    1.6579 H   0  0  0  0  0  0  0  0  0  0  0  0
   -3.7307   -3.0292    1.1926 C   0  0  0  0  0  0  0  0  0  0  0  0
   -4.4123   -2.3814    1.7492 H   0  0  0  0  0  0  0  0  0  0  0  0
   -4.0879   -3.1248    0.1644 H   0  0  0  0  0  0  0  0  0  0  0  0
   -2.3328   -2.4401    1.2019 C   0  0  0  0  0  0  0  0  0  0  0  0
   -1.4039   -3.0812    1.6685 O   0  0  0  0  0  0  0  0  0  0  0  0
   -2.1209   -1.1781    0.6871 N   0  0  0  0  0  0  0  0  0  0  0  0
   -2.9383   -0.6483    0.3888 H   0  0  0  0  0  0  0  0  0  0  0  0
   -0.8403   -0.4581    0.7289 C   0  0  1  0  0  0  0  0  0  0  0  0
   -0.2029   -0.9230    1.4868 H   0  0  0  0  0  0  0  0  0  0  0  0
   -0.1581   -0.5404   -0.6552 C   0  0  0  0  0  0  0  0  0  0  0  0
   -0.6480   -1.3324   -1.2320 H   0  0  0  0  0  0  0  0  0  0  0  0
   -0.2970    0.3900   -1.2168 H   0  0  0  0  0  0  0  0  0  0  0  0
    1.3412   -0.8738   -0.5548 C   0  0  0  0  0  0  0  0  0  0  0  0
    1.9148    0.0515   -0.4365 H   0  0  0  0  0  0  0  0  0  0  0  0
    1.5308   -1.5015    0.3221 H   0  0  0  0  0  0  0  0  0  0  0  0
    1.8135   -1.6472   -1.7920 C   0  0  0  0  0  0  0  0  0  0  0  0
    1.2540   -2.5845   -1.8778 H   0  0  0  0  0  0  0  0  0  0  0  0
    1.6193   -1.0530   -2.6910 H   0  0  0  0  0  0  0  0  0  0  0  0
    3.3047   -1.9571   -1.7052 C   0  0  0  0  0  0  0  0  0  0  0  0
    3.8790   -1.0275   -1.6241 H   0  0  0  0  0  0  0  0  0  0  0  0
    3.5102   -2.5635   -0.8162 H   0  0  0  0  0  0  0  0  0  0  0  0
    3.7002   -2.6839   -2.9150 N   0  0  0  0  0  0  0  0  0  0  0  0
    4.6910   -2.9252   -2.8944 H   0  0  0  0  0  0  0  0  0  0  0  0
    3.1258   -3.5168   -3.0453 H   0  0  0  0  0  0  0  0  0  0  0  0
   -1.0389    1.0089    1.1564 C   0  0  0  0  0  0  0  0  0  0  0  0
   -1.9831    1.6514    0.7111 O   0  0  0  0  0  0  0  0  0  0  0  0
   -0.2011    1.5884    2.0915 N   0  0  0  0  0  0  0  0  0  0  0  0
    0.5397    1.0131    2.4821 H   0  0  0  0  0  0  0  0  0  0  0  0
   -0.3618    2.9558    2.5703 C   0  0  0  0  0  0  0  0  0  0  0  0
   -1.3421    3.0847    3.0409 H   0  0  0  0  0  0  0  0  0  0  0  0
    0.4101    3.1916    3.3091 H   0  0  0  0  0  0  0  0  0  0  0  0
   -0.2734    3.6642    1.7399 H   0  0  0  0  0  0  0  0  0  0  0  0
  1  2  1  0  0  0  0
  2  3  1  0  0  0  0
  2  4  1  0  0  0  0
  2  5  1  0  0  0  0
  5  6  2  0  0  0  0
  5  7  1  0  0  0  0
  7  8  1  0  0  0  0
  7  9  1  0  0  0  0
  9 10  1  0  0  0  0
  9 11  1  0  0  0  0
  9 26  1  0  0  0  0
 11 12  1  0  0  0  0
 11 13  1  0  0  0  0
 11 14  1  0  0  0  0
 14 15  1  0  0  0  0
 14 16  1  0  0  0  0
 14 17  1  0  0  0  0
 17 18  1  0  0  0  0
 17 19  1  0  0  0  0
 17 20  1  0  0  0  0
 20 21  1  0  0  0  0
 20 22  1  0  0  0  0
 20 23  1  0  0  0  0
 23 24  1  0  0  0  0
 23 25  1  0  0  0  0
 26 27  2  0  0  0  0
 26 28  1  0  0  0  0
 28 29  1  0  0  0  0
 28 30  1  0  0  0  0
 30 31  1  0  0  0  0
 30 32  1  0  0  0  0
 30 33  1  0  0  0  0
M  END
$$$$

  -OEChem-03222214063D

 33 32  0     1  0  0  0  0  0999 V2000
   -3.7143   -4.0220    1.6673 H   0  0  0  0  0  0  0  0  0  0  0  0
   -3.7241   -3.0330    1.2010 C   0  0  0  0  0  0  0  0  0  0  0  0
   -4.3998   -2.3851    1.7643 H   0  0  0  0  0  0  0  0  0  0  0  0
   -4.0915   -3.1295    0.1765 H   0  0  0  0  0  0  0  0  0  0  0  0
   -2.3266   -2.4434    1.1952 C   0  0  0  0  0  0  0  0  0  0  0  0
   -1.3913   -3.0857    1.6475 O   0  0  0  0  0  0  0  0  0  0  0  0
   -2.1217   -1.1792    0.6832 N   0  0  0  0  0  0  0  0  0  0  0  0
   -2.9432   -0.6486    0.3973 H   0  0  0  0  0  0  0  0  0  0  0  0
   -0.8414   -0.4582    0.7144 C   0  0  1  0  0  0  0  0  0  0  0  0
   -0.1925   -0.9264    1.4610 H   0  0  0  0  0  0  0  0  0  0  0  0
   -0.1725   -0.5373   -0.6745 C   0  0  0  0  0  0  0  0  0  0  0  0
   -0.6579   -1.3279   -1.2569 H   0  0  0  0  0  0  0  0  0  0  0  0
   -0.3110    0.3988   -1.2268 H   0  0  0  0  0  0  0  0  0  0  0  0
    1.3225   -0.8695   -0.5662 C   0  0  0  0  0  0  0  0  0  0  0  0
    1.8675    0.0039   -0.1929 H   0  0  0  0  0  0  0  0  0  0  0  0
    1.4670   -1.6904    0.1447 H   0  0  0  0  0  0  0  0  0  0  0  0
    1.8806   -1.3029   -1.9265 C   0  0  0  0  0  0  0  0  0  0  0  0
    1.3379   -2.1837   -2.2849 H   0  0  0  0  0  0  0  0  0  0  0  0
    1.7375   -0.4978   -2.6550 H   0  0  0  0  0  0  0  0  0  0  0  0
    3.3669   -1.6327   -1.8248 C   0  0  0  0  0  0  0  0  0  0  0  0
    3.9228   -0.7576   -1.4700 H   0  0  0  0  0  0  0  0  0  0  0  0
    3.5221   -2.4482   -1.1095 H   0  0  0  0  0  0  0  0  0  0  0  0
    3.8495   -2.0262   -3.1519 N   0  0  0  0  0  0  0  0  0  0  0  0
    4.8408   -2.2654   -3.1288 H   0  0  0  0  0  0  0  0  0  0  0  0
    3.2978   -2.7978   -3.5274 H   0  0  0  0  0  0  0  0  0  0  0  0
   -1.0361    1.0069    1.1498 C   0  0  0  0  0  0  0  0  0  0  0  0
   -1.9861    1.6503    0.7185 O   0  0  0  0  0  0  0  0  0  0  0  0
   -0.1886    1.5826    2.0784 N   0  0  0  0  0  0  0  0  0  0  0  0
    0.5574    1.0063    2.4573 H   0  0  0  0  0  0  0  0  0  0  0  0
   -0.3468    2.9466    2.5675 C   0  0  0  0  0  0  0  0  0  0  0  0
   -1.3232    3.0708    3.0476 H   0  0  0  0  0  0  0  0  0  0  0  0
    0.4310    3.1786    3.3013 H   0  0  0  0  0  0  0  0  0  0  0  0
   -0.2668    3.6608    1.7412 H   0  0  0  0  0  0  0  0  0  0  0  0
  1  2  1  0  0  0  0
  2  3  1  0  0  0  0
  2  4  1  0  0  0  0
  2  5  1  0  0  0  0
  5  6  2  0  0  0  0
  5  7  1  0  0  0  0
  7  8  1  0  0  0  0
  7  9  1  0  0  0  0
  9 10  1  0  0  0  0
  9 11  1  0  0  0  0
  9 26  1  0  0  0  0
 11 12  1  0  0  0  0
 11 13  1  0  0  0  0
 11 14  1  0  0  0  0
 14 15  1  0  0  0  0
 14 16  1  0  0  0  0
 14 17  1  0  0  0  0
 17 18  1  0  0  0  0
 17 19  1  0  0  0  0
 17 20  1  0  0  0  0
 20 21  1  0  0  0  0
 20 22  1  0  0  0  0
 20 23  1  0  0  0  0
 23 24  1  0  0  0  0
 23 25  1  0  0  0  0
 26 27  2  0  0  0  0
 26 28  1  0  0  0  0
 28 29  1  0  0  0  0
 28 30  1  0  0  0  0
 30 31  1  0  0  0  0
 30 32  1  0  0  0  0
 30 33  1  0  0  0  0
M  END
$$$$

  -OEChem-03222214063D

 33 32  0     1  0  0  0  0  0999 V2000
   -3.6992   -4.0192    1.6812 H   0  0  0  0  0  0  0  0  0  0  0  0
   -3.7132   -3.0312    1.2128 C   0  0  0  0  0  0  0  0  0  0  0  0
   -4.3806   -2.3806    1.7831 H   0  0  0  0  0  0  0  0  0  0  0  0
   -4.0943   -3.1295    0.1935 H   0  0  0  0  0  0  0  0  0  0  0  0
   -2.3146   -2.4444    1.1874 C   0  0  0  0  0  0  0  0  0  0  0  0
   -1.3736   -3.0909    1.6214 O   0  0  0  0  0  0  0  0  0  0  0  0
   -2.1141   -1.1782    0.6788 N   0  0  0  0  0  0  0  0  0  0  0  0
   -2.9383   -0.6419    0.4120 H   0  0  0  0  0  0  0  0  0  0  0  0
   -0.8333   -0.4584    0.7075 C   0  0  1  0  0  0  0  0  0  0  0  0
   -0.1740   -0.9208    1.4493 H   0  0  0  0  0  0  0  0  0  0  0  0
   -0.1727   -0.5278   -0.6862 C   0  0  0  0  0  0  0  0  0  0  0  0
   -0.8148   -1.0809   -1.3802 H   0  0  0  0  0  0  0  0  0  0  0  0
   -0.0499    0.4805   -1.0973 H   0  0  0  0  0  0  0  0  0  0  0  0
    1.1957   -1.2151   -0.6117 C   0  0  0  0  0  0  0  0  0  0  0  0
    1.8492   -0.6635    0.0723 H   0  0  0  0  0  0  0  0  0  0  0  0
    1.0703   -2.2298   -0.2174 H   0  0  0  0  0  0  0  0  0  0  0  0
    1.8436   -1.2794   -1.9987 C   0  0  0  0  0  0  0  0  0  0  0  0
    1.1832   -1.8144   -2.6890 H   0  0  0  0  0  0  0  0  0  0  0  0
    1.9869   -0.2649   -2.3855 H   0  0  0  0  0  0  0  0  0  0  0  0
    3.1921   -1.9901   -1.9346 C   0  0  0  0  0  0  0  0  0  0  0  0
    3.8627   -1.4634   -1.2466 H   0  0  0  0  0  0  0  0  0  0  0  0
    3.0598   -3.0129   -1.5644 H   0  0  0  0  0  0  0  0  0  0  0  0
    3.7729   -2.0105   -3.2804 N   0  0  0  0  0  0  0  0  0  0  0  0
    4.6743   -2.4878   -3.2865 H   0  0  0  0  0  0  0  0  0  0  0  0
    3.1311   -2.4369   -3.9488 H   0  0  0  0  0  0  0  0  0  0  0  0
   -1.0409    1.0030    1.1513 C   0  0  0  0  0  0  0  0  0  0  0  0
   -1.9984    1.6396    0.7265 O   0  0  0  0  0  0  0  0  0  0  0  0
   -0.1966    1.5804    2.0816 N   0  0  0  0  0  0  0  0  0  0  0  0
    0.5642    1.0131    2.4445 H   0  0  0  0  0  0  0  0  0  0  0  0
   -0.3591    2.9431    2.5728 C   0  0  0  0  0  0  0  0  0  0  0  0
   -1.3373    3.0650    3.0496 H   0  0  0  0  0  0  0  0  0  0  0  0
    0.4157    3.1745    3.3100 H   0  0  0  0  0  0  0  0  0  0  0  0
   -0.2769    3.6590    1.7483 H   0  0  0  0  0  0  0  0  0  0  0  0
  1  2  1  0  0  0  0
  2  3  1  0  0  0  0
  2  4  1  0  0  0  0
  2  5  1  0  0  0  0
  5  6  2  0  0  0  0
  5  7  1  0  0  0  0
  7  8  1  0  0  0  0
  7  9  1  0  0  0  0
  9 10  1  0  0  0  0
  9 11  1  0  0  0  0
  9 26  1  0  0  0  0
 11 12  1  0  0  0  0
 11 13  1  0  0  0  0
 11 14  1  0  0  0  0
 14 15  1  0  0  0  0
 14 16  1  0  0  0  0
 14 17  1  0  0  0  0
 17 18  1  0  0  0  0
 17 19  1  0  0  0  0
 17 20  1  0  0  0  0
 20 21  1  0  0  0  0
 20 22  1  0  0  0  0
 20 23  1  0  0  0  0
 23 24  1  0  0  0  0
 23 25  1  0  0  0  0
 26 27  2  0  0  0  0
 26 28  1  0  0  0  0
 28 29  1  0  0  0  0
 28 30  1  0  0  0  0
 30 31  1  0  0  0  0
 30 32  1  0  0  0  0
 30 33  1  0  0  0  0
M  END
$$$$

  -OEChem-03222214063D

 33 32  0     1  0  0  0  0  0999 V2000
   -3.6935   -4.0217    1.6806 H   0  0  0  0  0  0  0  0  0  0  0  0
   -3.7102   -3.0335    1.2126 C   0  0  0  0  0  0  0  0  0  0  0  0
   -4.3769   -2.3843    1.7853 H   0  0  0  0  0  0  0  0  0  0  0  0
   -4.0936   -3.1320    0.1943 H   0  0  0  0  0  0  0  0  0  0  0  0
   -2.3125   -2.4448    1.1836 C   0  0  0  0  0  0  0  0  0  0  0  0
   -1.3693   -3.0919    1.6116 O   0  0  0  0  0  0  0  0  0  0  0  0
   -2.1149   -1.1774    0.6767 N   0  0  0  0  0  0  0  0  0  0  0  0
   -2.9407   -0.6407    0.4155 H   0  0  0  0  0  0  0  0  0  0  0  0
   -0.8353   -0.4559    0.7070 C   0  0  1  0  0  0  0  0  0  0  0  0
   -0.1787   -0.9194    1.4503 H   0  0  0  0  0  0  0  0  0  0  0  0
   -0.1744   -0.5278   -0.6868 C   0  0  0  0  0  0  0  0  0  0  0  0
   -0.8129   -1.0724   -1.3905 H   0  0  0  0  0  0  0  0  0  0  0  0
   -0.0525    0.4857   -1.0853 H   0  0  0  0  0  0  0  0  0  0  0  0
    1.1969   -1.2134   -0.6179 C   0  0  0  0  0  0  0  0  0  0  0  0
    1.7665   -0.8207    0.2311 H   0  0  0  0  0  0  0  0  0  0  0  0
    1.0575   -2.2889   -0.4627 H   0  0  0  0  0  0  0  0  0  0  0  0
    1.9964   -0.9580   -1.9000 C   0  0  0  0  0  0  0  0  0  0  0  0
    1.4241   -1.3083   -2.7651 H   0  0  0  0  0  0  0  0  0  0  0  0
    2.1675    0.1170   -2.0199 H   0  0  0  0  0  0  0  0  0  0  0  0
    3.3397   -1.6806   -1.8548 C   0  0  0  0  0  0  0  0  0  0  0  0
    3.9218   -1.3404   -0.9911 H   0  0  0  0  0  0  0  0  0  0  0  0
    3.1815   -2.7602   -1.7542 H   0  0  0  0  0  0  0  0  0  0  0  0
    4.0670   -1.3891   -3.0937 N   0  0  0  0  0  0  0  0  0  0  0  0
    4.9708   -1.8617   -3.1113 H   0  0  0  0  0  0  0  0  0  0  0  0
    3.5107   -1.6385   -3.9114 H   0  0  0  0  0  0  0  0  0  0  0  0
   -1.0440    1.0048    1.1527 C   0  0  0  0  0  0  0  0  0  0  0  0
   -2.0036    1.6402    0.7306 O   0  0  0  0  0  0  0  0  0  0  0  0
   -0.2005    1.5820    2.0839 N   0  0  0  0  0  0  0  0  0  0  0  0
    0.5662    1.0183    2.4397 H   0  0  0  0  0  0  0  0  0  0  0  0
   -0.3622    2.9452    2.5743 C   0  0  0  0  0  0  0  0  0  0  0  0
   -1.3415    3.0686    3.0487 H   0  0  0  0  0  0  0  0  0  0  0  0
    0.4112    3.1758    3.3133 H   0  0  0  0  0  0  0  0  0  0  0  0
   -0.2773    3.6607    1.7496 H   0  0  0  0  0  0  0  0  0  0  0  0
  1  2  1  0  0  0  0
  2  3  1  0  0  0  0
  2  4  1  0  0  0  0
  2  5  1  0  0  0  0
  5  6  2  0  0  0  0
  5  7  1  0  0  0  0
  7  8  1  0  0  0  0
  7  9  1  0  0  0  0
  9 10  1  0  0  0  0
  9 11  1  0  0  0  0
  9 26  1  0  0  0  0
 11 12  1  0  0  0  0
 11 13  1  0  0  0  0
 11 14  1  0  0  0  0
 14 15  1  0  0  0  0
 14 16  1  0  0  0  0
 14 17  1  0  0  0  0
 17 18  1  0  0  0  0
 17 19  1  0  0  0  0
 17 20  1  0  0  0  0
 20 21  1  0  0  0  0
 20 22  1  0  0  0  0
 20 23  1  0  0  0  0
 23 24  1  0  0  0  0
 23 25  1  0  0  0  0
 26 27  2  0  0  0  0
 26 28  1  0  0  0  0
 28 29  1  0  0  0  0
 28 30  1  0  0  0  0
 30 31  1  0  0  0  0
 30 32  1  0  0  0  0
 30 33  1  0  0  0  0
M  END
$$$$

  -OEChem-03222214063D

 33 32  0     1  0  0  0  0  0999 V2000
   -3.7037   -4.0190    1.6793 H   0  0  0  0  0  0  0  0  0  0  0  0
   -3.7169   -3.0309    1.2107 C   0  0  0  0  0  0  0  0  0  0  0  0
   -4.3848   -2.3799    1.7800 H   0  0  0  0  0  0  0  0  0  0  0  0
   -4.0970   -3.1291    0.1910 H   0  0  0  0  0  0  0  0  0  0  0  0
   -2.3177   -2.4449    1.1872 C   0  0  0  0  0  0  0  0  0  0  0  0
   -1.3777   -3.0929    1.6213 O   0  0  0  0  0  0  0  0  0  0  0  0
   -2.1154   -1.1787    0.6789 N   0  0  0  0  0  0  0  0  0  0  0  0
   -2.9394   -0.6413    0.4132 H   0  0  0  0  0  0  0  0  0  0  0  0
   -0.8359   -0.4571    0.7149 C   0  0  1  0  0  0  0  0  0  0  0  0
   -0.1879   -0.9190    1.4664 H   0  0  0  0  0  0  0  0  0  0  0  0
   -0.1686   -0.5330   -0.6769 C   0  0  0  0  0  0  0  0  0  0  0  0
   -0.8068   -1.0724   -1.3848 H   0  0  0  0  0  0  0  0  0  0  0  0
   -0.0527    0.4834   -1.0698 H   0  0  0  0  0  0  0  0  0  0  0  0
    1.2076   -1.2176   -0.6223 C   0  0  0  0  0  0  0  0  0  0  0  0
    1.6855   -1.0311    0.3449 H   0  0  0  0  0  0  0  0  0  0  0  0
    1.0785   -2.3002   -0.7281 H   0  0  0  0  0  0  0  0  0  0  0  0
    2.1353   -0.6722   -1.7137 C   0  0  0  0  0  0  0  0  0  0  0  0
    1.6649   -0.8032   -2.6936 H   0  0  0  0  0  0  0  0  0  0  0  0
    2.2991    0.3993   -1.5571 H   0  0  0  0  0  0  0  0  0  0  0  0
    3.4791   -1.3946   -1.6953 C   0  0  0  0  0  0  0  0  0  0  0  0
    3.9592   -1.2721   -0.7180 H   0  0  0  0  0  0  0  0  0  0  0  0
    3.3315   -2.4663   -1.8698 H   0  0  0  0  0  0  0  0  0  0  0  0
    4.3289   -0.8232   -2.7441 N   0  0  0  0  0  0  0  0  0  0  0  0
    5.2378   -1.2850   -2.7753 H   0  0  0  0  0  0  0  0  0  0  0  0
    3.8676   -0.8667   -3.6529 H   0  0  0  0  0  0  0  0  0  0  0  0
   -1.0468    1.0049    1.1559 C   0  0  0  0  0  0  0  0  0  0  0  0
   -2.0050    1.6390    0.7286 O   0  0  0  0  0  0  0  0  0  0  0  0
   -0.2081    1.5834    2.0903 N   0  0  0  0  0  0  0  0  0  0  0  0
    0.5620    1.0229    2.4440 H   0  0  0  0  0  0  0  0  0  0  0  0
   -0.3684    2.9491    2.5731 C   0  0  0  0  0  0  0  0  0  0  0  0
   -1.3510    3.0788    3.0389 H   0  0  0  0  0  0  0  0  0  0  0  0
    0.3998    3.1793    3.3177 H   0  0  0  0  0  0  0  0  0  0  0  0
   -0.2731    3.6606    1.7461 H   0  0  0  0  0  0  0  0  0  0  0  0
  1  2  1  0  0  0  0
  2  3  1  0  0  0  0
  2  4  1  0  0  0  0
  2  5  1  0  0  0  0
  5  6  2  0  0  0  0
  5  7  1  0  0  0  0
  7  8  1  0  0  0  0
  7  9  1  0  0  0  0
  9 10  1  0  0  0  0
  9 11  1  0  0  0  0
  9 26  1  0  0  0  0
 11 12  1  0  0  0  0
 11 13  1  0  0  0  0
 11 14  1  0  0  0  0
 14 15  1  0  0  0  0
 14 16  1  0  0  0  0
 14 17  1  0  0  0  0
 17 18  1  0  0  0  0
 17 19  1  0  0  0  0
 17 20  1  0  0  0  0
 20 21  1  0  0  0  0
 20 22  1  0  0  0  0
 20 23  1  0  0  0  0
 23 24  1  0  0  0  0
 23 25  1  0  0  0  0
 26 27  2  0  0  0  0
 26 28  1  0  0  0  0
 28 29  1  0  0  0  0
 28 30  1  0  0  0  0
 30 31  1  0  0  0  0
 30 32  1  0  0  0  0
 30 33  1  0  0  0  0
M  END
$$$$

  -OEChem-03222214063D

 33 32  0     1  0  0  0  0  0999 V2000
   -3.7191   -4.0128    1.6803 H   0  0  0  0  0  0  0  0  0  0  0  0
   -3.7267   -3.0249    1.2112 C   0  0  0  0  0  0  0  0  0  0  0  0
   -4.3952   -2.3713    1.7769 H   0  0  0  0  0  0  0  0  0  0  0  0
   -4.1018   -3.1222    0.1896 H   0  0  0  0  0  0  0  0  0  0  0  0
   -2.3256   -2.4435    1.1937 C   0  0  0  0  0  0  0  0  0  0  0  0
   -1.3896   -3.0938    1.6327 O   0  0  0  0  0  0  0  0  0  0  0  0
   -2.1176   -1.1794    0.6828 N   0  0  0  0  0  0  0  0  0  0  0  0
   -2.9392   -0.6395    0.4151 H   0  0  0  0  0  0  0  0  0  0  0  0
   -0.8363   -0.4612    0.7231 C   0  0  1  0  0  0  0  0  0  0  0  0
   -0.1963   -0.9206    1.4822 H   0  0  0  0  0  0  0  0  0  0  0  0
   -0.1633   -0.5387   -0.6677 C   0  0  0  0  0  0  0  0  0  0  0  0
   -0.8042   -1.0802   -1.3714 H   0  0  0  0  0  0  0  0  0  0  0  0
   -0.0575    0.4763   -1.0670 H   0  0  0  0  0  0  0  0  0  0  0  0
    1.2168   -1.2255   -0.6309 C   0  0  0  0  0  0  0  0  0  0  0  0
    1.5910   -1.2975    0.3949 H   0  0  0  0  0  0  0  0  0  0  0  0
    1.1194   -2.2462   -1.0163 H   0  0  0  0  0  0  0  0  0  0  0  0
    2.2453   -0.4418   -1.4544 C   0  0  0  0  0  0  0  0  0  0  0  0
    1.8890   -0.3389   -2.4845 H   0  0  0  0  0  0  0  0  0  0  0  0
    2.3636    0.5627   -1.0344 H   0  0  0  0  0  0  0  0  0  0  0  0
    3.5968   -1.1499   -1.4545 C   0  0  0  0  0  0  0  0  0  0  0  0
    3.9640   -1.2621   -0.4283 H   0  0  0  0  0  0  0  0  0  0  0  0
    3.4962   -2.1498   -1.8911 H   0  0  0  0  0  0  0  0  0  0  0  0
    4.5409   -0.3477   -2.2379 N   0  0  0  0  0  0  0  0  0  0  0  0
    5.4600   -0.7887   -2.2729 H   0  0  0  0  0  0  0  0  0  0  0  0
    4.1838   -0.1771   -3.1781 H   0  0  0  0  0  0  0  0  0  0  0  0
   -1.0468    1.0025    1.1590 C   0  0  0  0  0  0  0  0  0  0  0  0
   -2.0033    1.6361    0.7269 O   0  0  0  0  0  0  0  0  0  0  0  0
   -0.2121    1.5824    2.0961 N   0  0  0  0  0  0  0  0  0  0  0  0
    0.5614    1.0251    2.4474 H   0  0  0  0  0  0  0  0  0  0  0  0
   -0.3692    2.9515    2.5703 C   0  0  0  0  0  0  0  0  0  0  0  0
   -1.3546    3.0887    3.0279 H   0  0  0  0  0  0  0  0  0  0  0  0
    0.3944    3.1817    3.3195 H   0  0  0  0  0  0  0  0  0  0  0  0
   -0.2643    3.6578    1.7401 H   0  0  0  0  0  0  0  0  0  0  0  0
  1  2  1  0  0  0  0
  2  3  1  0  0  0  0
  2  4  1  0  0  0  0
  2  5  1  0  0  0  0
  5  6  2  0  0  0  0
  5  7  1  0  0  0  0
  7  8  1  0  0  0  0
  7  9  1  0  0  0  0
  9 10  1  0  0  0  0
  9 11  1  0  0  0  0
  9 26  1  0  0  0  0
 11 12  1  0  0  0  0
 11 13  1  0  0  0  0
 11 14  1  0  0  0  0
 14 15  1  0  0  0  0
 14 16  1  0  0  0  0
 14 17  1  0  0  0  0
 17 18  1  0  0  0  0
 17 19  1  0  0  0  0
 17 20  1  0  0  0  0
 20 21  1  0  0  0  0
 20 22  1  0  0  0  0
 20 23  1  0  0  0  0
 23 24  1  0  0  0  0
 23 25  1  0  0  0  0
 26 27  2  0  0  0  0
 26 28  1  0  0  0  0
 28 29  1  0  0  0  0
 28 30  1  0  0  0  0
 30 31  1  0  0  0  0
 30 32  1  0  0  0  0
 30 33  1  0  0  0  0
M  END
$$$$

  -OEChem-03222214063D

 33 32  0     1  0  0  0  0  0999 V2000
   -3.7241   -4.0071    1.6992 H   0  0  0  0  0  0  0  0  0  0  0  0
   -3.7318   -3.0210    1.2266 C   0  0  0  0  0  0  0  0  0  0  0  0
   -4.3919   -2.3625    1.7964 H   0  0  0  0  0  0  0  0  0  0  0  0
   -4.1175   -3.1202    0.2092 H   0  0  0  0  0  0  0  0  0  0  0  0
   -2.3282   -2.4457    1.1942 C   0  0  0  0  0  0  0  0  0  0  0  0
   -1.3906   -3.0995    1.6243 O   0  0  0  0  0  0  0  0  0  0  0  0
   -2.1198   -1.1820    0.6823 N   0  0  0  0  0  0  0  0  0  0  0  0
   -2.9418   -0.6385    0.4231 H   0  0  0  0  0  0  0  0  0  0  0  0
   -0.8366   -0.4664    0.7179 C   0  0  1  0  0  0  0  0  0  0  0  0
   -0.1945   -0.9242    1.4758 H   0  0  0  0  0  0  0  0  0  0  0  0
   -0.1661   -0.5353   -0.6746 C   0  0  0  0  0  0  0  0  0  0  0  0
   -0.8113   -1.0908   -1.3633 H   0  0  0  0  0  0  0  0  0  0  0  0
   -0.0751    0.4747   -1.0899 H   0  0  0  0  0  0  0  0  0  0  0  0
    1.2148   -1.2230   -0.6512 C   0  0  0  0  0  0  0  0  0  0  0  0
    1.4670   -1.5820    0.3513 H   0  0  0  0  0  0  0  0  0  0  0  0
    1.1800   -2.1005   -1.3057 H   0  0  0  0  0  0  0  0  0  0  0  0
    2.3147   -0.2733   -1.1401 C   0  0  0  0  0  0  0  0  0  0  0  0
    2.0828    0.0682   -2.1542 H   0  0  0  0  0  0  0  0  0  0  0  0
    2.3561    0.6050   -0.4873 H   0  0  0  0  0  0  0  0  0  0  0  0
    3.6738   -0.9667   -1.1381 C   0  0  0  0  0  0  0  0  0  0  0  0
    3.9149   -1.3208   -0.1295 H   0  0  0  0  0  0  0  0  0  0  0  0
    3.6536   -1.8340   -1.8075 H   0  0  0  0  0  0  0  0  0  0  0  0
    4.6864   -0.0054   -1.5844 N   0  0  0  0  0  0  0  0  0  0  0  0
    5.6144   -0.4286   -1.6032 H   0  0  0  0  0  0  0  0  0  0  0  0
    4.4458    0.3827   -2.4966 H   0  0  0  0  0  0  0  0  0  0  0  0
   -1.0436    0.9974    1.1546 C   0  0  0  0  0  0  0  0  0  0  0  0
   -2.0026    1.6312    0.7282 O   0  0  0  0  0  0  0  0  0  0  0  0
   -0.2049    1.5760    2.0888 N   0  0  0  0  0  0  0  0  0  0  0  0
    0.5744    1.0205    2.4304 H   0  0  0  0  0  0  0  0  0  0  0  0
   -0.3576    2.9456    2.5628 C   0  0  0  0  0  0  0  0  0  0  0  0
   -1.3412    3.0846    3.0237 H   0  0  0  0  0  0  0  0  0  0  0  0
    0.4089    3.1742    3.3094 H   0  0  0  0  0  0  0  0  0  0  0  0
   -0.2538    3.6519    1.7324 H   0  0  0  0  0  0  0  0  0  0  0  0
  1  2  1  0  0  0  0
  2  3  1  0  0  0  0
  2  4  1  0  0  0  0
  2  5  1  0  0  0  0
  5  6  2  0  0  0  0
  5  7  1  0  0  0  0
  7  8  1  0  0  0  0
  7  9  1  0  0  0  0
  9 10  1  0  0  0  0
  9 11  1  0  0  0  0
  9 26  1  0  0  0  0
 11 12  1  0  0  0  0
 11 13  1  0  0  0  0
 11 14  1  0  0  0  0
 14 15  1  0  0  0  0
 14 16  1  0  0  0  0
 14 17  1  0  0  0  0
 17 18  1  0  0  0  0
 17 19  1  0  0  0  0
 17 20  1  0  0  0  0
 20 21  1  0  0  0  0
 20 22  1  0  0  0  0
 20 23  1  0  0  0  0
 23 24  1  0  0  0  0
 23 25  1  0  0  0  0
 26 27  2  0  0  0  0
 26 28  1  0  0  0  0
 28 29  1  0  0  0  0
 28 30  1  0  0  0  0
 30 31  1  0  0  0  0
 30 32  1  0  0  0  0
 30 33  1  0  0  0  0
M  END
$$$$

  -OEChem-03222214063D

 33 32  0     1  0  0  0  0  0999 V2000
   -3.7019   -4.0145    1.7083 H   0  0  0  0  0  0  0  0  0  0  0  0
   -3.7169   -3.0290    1.2347 C   0  0  0  0  0  0  0  0  0  0  0  0
   -4.3754   -2.3728    1.8088 H   0  0  0  0  0  0  0  0  0  0  0  0
   -4.1094   -3.1313    0.2203 H   0  0  0  0  0  0  0  0  0  0  0  0
   -2.3162   -2.4483    1.1908 C   0  0  0  0  0  0  0  0  0  0  0  0
   -1.3717   -3.1017    1.6062 O   0  0  0  0  0  0  0  0  0  0  0  0
   -2.1174   -1.1819    0.6821 N   0  0  0  0  0  0  0  0  0  0  0  0
   -2.9436   -0.6391    0.4354 H   0  0  0  0  0  0  0  0  0  0  0  0
   -0.8351   -0.4642    0.7052 C   0  0  1  0  0  0  0  0  0  0  0  0
   -0.1795   -0.9229    1.4516 H   0  0  0  0  0  0  0  0  0  0  0  0
   -0.1782   -0.5230   -0.6934 C   0  0  0  0  0  0  0  0  0  0  0  0
   -0.8259   -1.0948   -1.3663 H   0  0  0  0  0  0  0  0  0  0  0  0
   -0.0989    0.4812   -1.1250 H   0  0  0  0  0  0  0  0  0  0  0  0
    1.2011   -1.2087   -0.6713 C   0  0  0  0  0  0  0  0  0  0  0  0
    1.3305   -1.8194    0.2283 H   0  0  0  0  0  0  0  0  0  0  0  0
    1.2622   -1.8889   -1.5274 H   0  0  0  0  0  0  0  0  0  0  0  0
    2.3311   -0.1795   -0.7917 C   0  0  0  0  0  0  0  0  0  0  0  0
    2.2228    0.3822   -1.7252 H   0  0  0  0  0  0  0  0  0  0  0  0
    2.2680    0.5302    0.0398 H   0  0  0  0  0  0  0  0  0  0  0  0
    3.6945   -0.8640   -0.7665 C   0  0  0  0  0  0  0  0  0  0  0  0
    3.8116   -1.4355    0.1610 H   0  0  0  0  0  0  0  0  0  0  0  0
    3.7804   -1.5604   -1.6080 H   0  0  0  0  0  0  0  0  0  0  0  0
    4.7344    0.1657   -0.8528 N   0  0  0  0  0  0  0  0  0  0  0  0
    5.6665   -0.2486   -0.8332 H   0  0  0  0  0  0  0  0  0  0  0  0
    4.6110    0.7413   -1.6858 H   0  0  0  0  0  0  0  0  0  0  0  0
   -1.0367    0.9973    1.1511 C   0  0  0  0  0  0  0  0  0  0  0  0
   -1.9996    1.6335    0.7371 O   0  0  0  0  0  0  0  0  0  0  0  0
   -0.1864    1.5724    2.0772 N   0  0  0  0  0  0  0  0  0  0  0  0
    0.5999    1.0172    2.4035 H   0  0  0  0  0  0  0  0  0  0  0  0
   -0.3335    2.9400    2.5590 C   0  0  0  0  0  0  0  0  0  0  0  0
   -1.3146    3.0794    3.0250 H   0  0  0  0  0  0  0  0  0  0  0  0
    0.4366    3.1634    3.3036 H   0  0  0  0  0  0  0  0  0  0  0  0
   -0.2316    3.6497    1.7313 H   0  0  0  0  0  0  0  0  0  0  0  0
  1  2  1  0  0  0  0
  2  3  1  0  0  0  0
  2  4  1  0  0  0  0
  2  5  1  0  0  0  0
  5  6  2  0  0  0  0
  5  7  1  0  0  0  0
  7  8  1  0  0  0  0
  7  9  1  0  0  0  0
  9 10  1  0  0  0  0
  9 11  1  0  0  0  0
  9 26  1  0  0  0  0
 11 12  1  0  0  0  0
 11 13  1  0  0  0  0
 11 14  1  0  0  0  0
 14 15  1  0  0  0  0
 14 16  1  0  0  0  0
 14 17  1  0  0  0  0
 17 18  1  0  0  0  0
 17 19  1  0  0  0  0
 17 20  1  0  0  0  0
 20 21  1  0  0  0  0
 20 22  1  0  0  0  0
 20 23  1  0  0  0  0
 23 24  1  0  0  0  0
 23 25  1  0  0  0  0
 26 27  2  0  0  0  0
 26 28  1  0  0  0  0
 28 29  1  0  0  0  0
 28 30  1  0  0  0  0
 30 31  1  0  0  0  0
 30 32  1  0  0  0  0
 30 33  1  0  0  0  0
M  END
$$$$

  -OEChem-03222214063D

 33 32  0     1  0  0  0  0  0999 V2000
   -3.6718   -4.0268    1.7008 H   0  0  0  0  0  0  0  0  0  0  0  0
   -3.6961   -3.0333    1.2447 C   0  0  0  0  0  0  0  0  0  0  0  0
   -4.3429   -2.3872    1.8433 H   0  0  0  0  0  0  0  0  0  0  0  0
   -4.1093   -3.1182    0.2368 H   0  0  0  0  0  0  0  0  0  0  0  0
   -2.2963   -2.4517    1.1822 C   0  0  0  0  0  0  0  0  0  0  0  0
   -1.3440   -3.1086    1.5736 O   0  0  0  0  0  0  0  0  0  0  0  0
   -2.1076   -1.1818    0.6788 N   0  0  0  0  0  0  0  0  0  0  0  0
   -2.9392   -0.6385    0.4522 H   0  0  0  0  0  0  0  0  0  0  0  0
   -0.8277   -0.4600    0.6880 C   0  0  1  0  0  0  0  0  0  0  0  0
   -0.1587   -0.9229    1.4206 H   0  0  0  0  0  0  0  0  0  0  0  0
   -0.1863   -0.5151   -0.7165 C   0  0  0  0  0  0  0  0  0  0  0  0
   -0.8358   -1.0932   -1.3822 H   0  0  0  0  0  0  0  0  0  0  0  0
   -0.1073    0.4873   -1.1514 H   0  0  0  0  0  0  0  0  0  0  0  0
    1.1908   -1.1967   -0.6911 C   0  0  0  0  0  0  0  0  0  0  0  0
    1.2164   -1.9931    0.0608 H   0  0  0  0  0  0  0  0  0  0  0  0
    1.3657   -1.6665   -1.6646 H   0  0  0  0  0  0  0  0  0  0  0  0
    2.3033   -0.1716   -0.4423 C   0  0  0  0  0  0  0  0  0  0  0  0
    2.3035    0.5762   -1.2421 H   0  0  0  0  0  0  0  0  0  0  0  0
    2.1202    0.3461    0.5045 H   0  0  0  0  0  0  0  0  0  0  0  0
    3.6665   -0.8522   -0.3823 C   0  0  0  0  0  0  0  0  0  0  0  0
    3.6704   -1.6177    0.4018 H   0  0  0  0  0  0  0  0  0  0  0  0
    3.8855   -1.3424   -1.3376 H   0  0  0  0  0  0  0  0  0  0  0  0
    4.6783    0.1675   -0.0895 N   0  0  0  0  0  0  0  0  0  0  0  0
    5.6086   -0.2458   -0.0210 H   0  0  0  0  0  0  0  0  0  0  0  0
    4.6617    0.9105   -0.7885 H   0  0  0  0  0  0  0  0  0  0  0  0
   -1.0270    0.9984    1.1453 C   0  0  0  0  0  0  0  0  0  0  0  0
   -2.0007    1.6322    0.7533 O   0  0  0  0  0  0  0  0  0  0  0  0
   -0.1651    1.5706    2.0624 N   0  0  0  0  0  0  0  0  0  0  0  0
    0.6340    1.0199    2.3648 H   0  0  0  0  0  0  0  0  0  0  0  0
   -0.3114    2.9331    2.5587 C   0  0  0  0  0  0  0  0  0  0  0  0
   -1.2813    3.0603    3.0511 H   0  0  0  0  0  0  0  0  0  0  0  0
    0.4759    3.1570    3.2850 H   0  0  0  0  0  0  0  0  0  0  0  0
   -0.2370    3.6505    1.7347 H   0  0  0  0  0  0  0  0  0  0  0  0
  1  2  1  0  0  0  0
  2  3  1  0  0  0  0
  2  4  1  0  0  0  0
  2  5  1  0  0  0  0
  5  6  2  0  0  0  0
  5  7  1  0  0  0  0
  7  8  1  0  0  0  0
  7  9  1  0  0  0  0
  9 10  1  0  0  0  0
  9 11  1  0  0  0  0
  9 26  1  0  0  0  0
 11 12  1  0  0  0  0
 11 13  1  0  0  0  0
 11 14  1  0  0  0  0
 14 15  1  0  0  0  0
 14 16  1  0  0  0  0
 14 17  1  0  0  0  0
 17 18  1  0  0  0  0
 17 19  1  0  0  0  0
 17 20  1  0  0  0  0
 20 21  1  0  0  0  0
 20 22  1  0  0  0  0
 20 23  1  0  0  0  0
 23 24  1  0  0  0  0
 23 25  1  0  0  0  0
 26 27  2  0  0  0  0
 26 28  1  0  0  0  0
 28 29  1  0  0  0  0
 28 30  1  0  0  0  0
 30 31  1  0  0  0  0
 30 32  1  0  0  0  0
 30 33  1  0  0  0  0
M  END
$$$$

  -OEChem-03222214063D

 33 32  0     1  0  0  0  0  0999 V2000
   -3.6614   -4.0315    1.6889 H   0  0  0  0  0  0  0  0  0  0  0  0
   -3.6882   -3.0368    1.2353 C   0  0  0  0  0  0  0  0  0  0  0  0
   -4.3373   -2.3937    1.8345 H   0  0  0  0  0  0  0  0  0  0  0  0
   -4.0998   -3.1200    0.2266 H   0  0  0  0  0  0  0  0  0  0  0  0
   -2.2900   -2.4511    1.1773 C   0  0  0  0  0  0  0  0  0  0  0  0
   -1.3379   -3.1052    1.5736 O   0  0  0  0  0  0  0  0  0  0  0  0
   -2.1037   -1.1798    0.6759 N   0  0  0  0  0  0  0  0  0  0  0  0
   -2.9366   -0.6397    0.4459 H   0  0  0  0  0  0  0  0  0  0  0  0
   -0.8270   -0.4518    0.6922 C   0  0  1  0  0  0  0  0  0  0  0  0
   -0.1607   -0.9170    1.4261 H   0  0  0  0  0  0  0  0  0  0  0  0
   -0.1781   -0.5115   -0.7089 C   0  0  0  0  0  0  0  0  0  0  0  0
   -0.8218   -1.0864   -1.3829 H   0  0  0  0  0  0  0  0  0  0  0  0
   -0.0901    0.4927   -1.1379 H   0  0  0  0  0  0  0  0  0  0  0  0
    1.2006   -1.1860   -0.6756 C   0  0  0  0  0  0  0  0  0  0  0  0
    1.1438   -2.1207   -0.1064 H   0  0  0  0  0  0  0  0  0  0  0  0
    1.4919   -1.4411   -1.6999 H   0  0  0  0  0  0  0  0  0  0  0  0
    2.2637   -0.2568   -0.0740 C   0  0  0  0  0  0  0  0  0  0  0  0
    2.3250    0.6629   -0.6647 H   0  0  0  0  0  0  0  0  0  0  0  0
    1.9863    0.0163    0.9480 H   0  0  0  0  0  0  0  0  0  0  0  0
    3.6284   -0.9358   -0.0470 C   0  0  0  0  0  0  0  0  0  0  0  0
    3.5753   -1.8616    0.5370 H   0  0  0  0  0  0  0  0  0  0  0  0
    3.9431   -1.1925   -1.0646 H   0  0  0  0  0  0  0  0  0  0  0  0
    4.5887   -0.0124    0.5649 N   0  0  0  0  0  0  0  0  0  0  0  0
    5.5121   -0.4394    0.6426 H   0  0  0  0  0  0  0  0  0  0  0  0
    4.6370    0.8635    0.0443 H   0  0  0  0  0  0  0  0  0  0  0  0
   -1.0329    1.0060    1.1492 C   0  0  0  0  0  0  0  0  0  0  0  0
   -2.0042    1.6384    0.7489 O   0  0  0  0  0  0  0  0  0  0  0  0
   -0.1777    1.5811    2.0706 N   0  0  0  0  0  0  0  0  0  0  0  0
    0.6164    1.0291    2.3843 H   0  0  0  0  0  0  0  0  0  0  0  0
   -0.3322    2.9416    2.5694 C   0  0  0  0  0  0  0  0  0  0  0  0
   -1.3045    3.0630    3.0583 H   0  0  0  0  0  0  0  0  0  0  0  0
    0.4513    3.1672    3.2992 H   0  0  0  0  0  0  0  0  0  0  0  0
   -0.2578    3.6617    1.7478 H   0  0  0  0  0  0  0  0  0  0  0  0
  1  2  1  0  0  0  0
  2  3  1  0  0  0  0
  2  4  1  0  0  0  0
  2  5  1  0  0  0  0
  5  6  2  0  0  0  0
  5  7  1  0  0  0  0
  7  8  1  0  0  0  0
  7  9  1  0  0  0  0
  9 10  1  0  0  0  0
  9 11  1  0  0  0  0
  9 26  1  0  0  0  0
 11 12  1  0  0  0  0
 11 13  1  0  0  0  0
 11 14  1  0  0  0  0
 14 15  1  0  0  0  0
 14 16  1  0  0  0  0
 14 17  1  0  0  0  0
 17 18  1  0  0  0  0
 17 19  1  0  0  0  0
 17 20  1  0  0  0  0
 20 21  1  0  0  0  0
 20 22  1  0  0  0  0
 20 23  1  0  0  0  0
 23 24  1  0  0  0  0
 23 25  1  0  0  0  0
 26 27  2  0  0  0  0
 26 28  1  0  0  0  0
 28 29  1  0  0  0  0
 28 30  1  0  0  0  0
 30 31  1  0  0  0  0
 30 32  1  0  0  0  0
 30 33  1  0  0  0  0
M  END
$$$$

  -OEChem-03222214063D

 33 32  0     1  0  0  0  0  0999 V2000
   -3.7084   -4.0221    1.6665 H   0  0  0  0  0  0  0  0  0  0  0  0
   -3.7230   -3.0316    1.2032 C   0  0  0  0  0  0  0  0  0  0  0  0
   -4.3868   -2.3829    1.7800 H   0  0  0  0  0  0  0  0  0  0  0  0
   -4.1091   -3.1237    0.1852 H   0  0  0  0  0  0  0  0  0  0  0  0
   -2.3232   -2.4470    1.1748 C   0  0  0  0  0  0  0  0  0  0  0  0
   -1.3816   -3.1010    1.5953 O   0  0  0  0  0  0  0  0  0  0  0  0
   -2.1241   -1.1781    0.6718 N   0  0  0  0  0  0  0  0  0  0  0  0
   -2.9512   -0.6414    0.4156 H   0  0  0  0  0  0  0  0  0  0  0  0
   -0.8502   -0.4458    0.7189 C   0  0  1  0  0  0  0  0  0  0  0  0
   -0.2187   -0.9146    1.4782 H   0  0  0  0  0  0  0  0  0  0  0  0
   -0.1586   -0.5266   -0.6616 C   0  0  0  0  0  0  0  0  0  0  0  0
   -0.7871   -1.0949   -1.3553 H   0  0  0  0  0  0  0  0  0  0  0  0
   -0.0544    0.4792   -1.0835 H   0  0  0  0  0  0  0  0  0  0  0  0
    1.2270   -1.1911   -0.6173 C   0  0  0  0  0  0  0  0  0  0  0  0
    1.1168   -2.2228   -0.2654 H   0  0  0  0  0  0  0  0  0  0  0  0
    1.6279   -1.2287   -1.6355 H   0  0  0  0  0  0  0  0  0  0  0  0
    2.2193   -0.4462    0.2921 C   0  0  0  0  0  0  0  0  0  0  0  0
    2.2892    0.5987   -0.0274 H   0  0  0  0  0  0  0  0  0  0  0  0
    1.8820   -0.4597    1.3316 H   0  0  0  0  0  0  0  0  0  0  0  0
    3.5997   -1.0903    0.2275 C   0  0  0  0  0  0  0  0  0  0  0  0
    3.5438   -2.1279    0.5755 H   0  0  0  0  0  0  0  0  0  0  0  0
    3.9679   -1.0966   -0.8044 H   0  0  0  0  0  0  0  0  0  0  0  0
    4.5082   -0.3214    1.0841 N   0  0  0  0  0  0  0  0  0  0  0  0
    5.4328   -0.7517    1.1192 H   0  0  0  0  0  0  0  0  0  0  0  0
    4.5716    0.6481    0.7735 H   0  0  0  0  0  0  0  0  0  0  0  0
   -1.0573    1.0158    1.1594 C   0  0  0  0  0  0  0  0  0  0  0  0
   -2.0089    1.6542    0.7237 O   0  0  0  0  0  0  0  0  0  0  0  0
   -0.2205    1.5907    2.0976 N   0  0  0  0  0  0  0  0  0  0  0  0
    0.5537    1.0300    2.4443 H   0  0  0  0  0  0  0  0  0  0  0  0
   -0.3741    2.9576    2.5785 C   0  0  0  0  0  0  0  0  0  0  0  0
   -1.3582    3.0939    3.0391 H   0  0  0  0  0  0  0  0  0  0  0  0
    0.3916    3.1829    3.3269 H   0  0  0  0  0  0  0  0  0  0  0  0
   -0.2702    3.6681    1.7518 H   0  0  0  0  0  0  0  0  0  0  0  0
  1  2  1  0  0  0  0
  2  3  1  0  0  0  0
  2  4  1  0  0  0  0
  2  5  1  0  0  0  0
  5  6  2  0  0  0  0
  5  7  1  0  0  0  0
  7  8  1  0  0  0  0
  7  9  1  0  0  0  0
  9 10  1  0  0  0  0
  9 11  1  0  0  0  0
  9 26  1  0  0  0  0
 11 12  1  0  0  0  0
 11 13  1  0  0  0  0
 11 14  1  0  0  0  0
 14 15  1  0  0  0  0
 14 16  1  0  0  0  0
 14 17  1  0  0  0  0
 17 18  1  0  0  0  0
 17 19  1  0  0  0  0
 17 20  1  0  0  0  0
 20 21  1  0  0  0  0
 20 22  1  0  0  0  0
 20 23  1  0  0  0  0
 23 24  1  0  0  0  0
 23 25  1  0  0  0  0
 26 27  2  0  0  0  0
 26 28  1  0  0  0  0
 28 29  1  0  0  0  0
 28 30  1  0  0  0  0
 30 31  1  0  0  0  0
 30 32  1  0  0  0  0
 30 33  1  0  0  0  0
M  END
$$$$

  -OEChem-03222214063D

 33 32  0     1  0  0  0  0  0999 V2000
   -3.7979   -3.9912    1.6134 H   0  0  0  0  0  0  0  0  0  0  0  0
   -3.7878   -2.9966    1.1588 C   0  0  0  0  0  0  0  0  0  0  0  0
   -4.4704   -2.3485    1.7138 H   0  0  0  0  0  0  0  0  0  0  0  0
   -4.1324   -3.0781    0.1251 H   0  0  0  0  0  0  0  0  0  0  0  0
   -2.3848   -2.4205    1.1921 C   0  0  0  0  0  0  0  0  0  0  0  0
   -1.4705   -3.0729    1.6707 O   0  0  0  0  0  0  0  0  0  0  0  0
   -2.1518   -1.1637    0.6732 N   0  0  0  0  0  0  0  0  0  0  0  0
   -2.9618   -0.6259    0.3693 H   0  0  0  0  0  0  0  0  0  0  0  0
   -0.8734   -0.4431    0.7576 C   0  0  1  0  0  0  0  0  0  0  0  0
   -0.2880   -0.9010    1.5559 H   0  0  0  0  0  0  0  0  0  0  0  0
   -0.1330   -0.5673   -0.5965 C   0  0  0  0  0  0  0  0  0  0  0  0
   -0.7530   -1.1226   -1.3081 H   0  0  0  0  0  0  0  0  0  0  0  0
   -0.0009    0.4352   -1.0177 H   0  0  0  0  0  0  0  0  0  0  0  0
    1.2523   -1.2415   -0.5437 C   0  0  0  0  0  0  0  0  0  0  0  0
    1.1075   -2.3218   -0.4338 H   0  0  0  0  0  0  0  0  0  0  0  0
    1.7504   -1.0717   -1.5039 H   0  0  0  0  0  0  0  0  0  0  0  0
    2.1631   -0.7606    0.6004 C   0  0  0  0  0  0  0  0  0  0  0  0
    2.1877    0.3339    0.6082 H   0  0  0  0  0  0  0  0  0  0  0  0
    1.7914   -1.1046    1.5691 H   0  0  0  0  0  0  0  0  0  0  0  0
    3.5795   -1.2976    0.4219 C   0  0  0  0  0  0  0  0  0  0  0  0
    3.5706   -2.3925    0.4678 H   0  0  0  0  0  0  0  0  0  0  0  0
    3.9783   -1.0007   -0.5545 H   0  0  0  0  0  0  0  0  0  0  0  0
    4.4208   -0.7559    1.4936 N   0  0  0  0  0  0  0  0  0  0  0  0
    5.3629   -1.1458    1.4542 H   0  0  0  0  0  0  0  0  0  0  0  0
    4.4483    0.2629    1.4587 H   0  0  0  0  0  0  0  0  0  0  0  0
   -1.0804    1.0290    1.1608 C   0  0  0  0  0  0  0  0  0  0  0  0
   -2.0047    1.6709    0.6744 O   0  0  0  0  0  0  0  0  0  0  0  0
   -0.2736    1.6109    2.1207 N   0  0  0  0  0  0  0  0  0  0  0  0
    0.4617    1.0379    2.5269 H   0  0  0  0  0  0  0  0  0  0  0  0
   -0.4399    2.9824    2.5841 C   0  0  0  0  0  0  0  0  0  0  0  0
   -1.4349    3.1222    3.0195 H   0  0  0  0  0  0  0  0  0  0  0  0
    0.3074    3.2164    3.3482 H   0  0  0  0  0  0  0  0  0  0  0  0
   -0.3166    3.6846    1.7530 H   0  0  0  0  0  0  0  0  0  0  0  0
  1  2  1  0  0  0  0
  2  3  1  0  0  0  0
  2  4  1  0  0  0  0
  2  5  1  0  0  0  0
  5  6  2  0  0  0  0
  5  7  1  0  0  0  0
  7  8  1  0  0  0  0
  7  9  1  0  0  0  0
  9 10  1  0  0  0  0
  9 11  1  0  0  0  0
  9 26  1  0  0  0  0
 11 12  1  0  0  0  0
 11 13  1  0  0  0  0
 11 14  1  0  0  0  0
 14 15  1  0  0  0  0
 14 16  1  0  0  0  0
 14 17  1  0  0  0  0
 17 18  1  0  0  0  0
 17 19  1  0  0  0  0
 17 20  1  0  0  0  0
 20 21  1  0  0  0  0
 20 22  1  0  0  0  0
 20 23  1  0  0  0  0
 23 24  1  0  0  0  0
 23 25  1  0  0  0  0
 26 27  2  0  0  0  0
 26 28  1  0  0  0  0
 28 29  1  0  0  0  0
 28 30  1  0  0  0  0
 30 31  1  0  0  0  0
 30 32  1  0  0  0  0
 30 33  1  0  0  0  0
M  END
$$$$

  -OEChem-03222214063D

 33 32  0     1  0  0  0  0  0999 V2000
   -3.8570   -3.9645    1.5929 H   0  0  0  0  0  0  0  0  0  0  0  0
   -3.8302   -2.9704    1.1382 C   0  0  0  0  0  0  0  0  0  0  0  0
   -4.5279   -2.3202    1.6715 H   0  0  0  0  0  0  0  0  0  0  0  0
   -4.1430   -3.0521    0.0946 H   0  0  0  0  0  0  0  0  0  0  0  0
   -2.4271   -2.3986    1.2144 C   0  0  0  0  0  0  0  0  0  0  0  0
   -1.5358   -3.0436    1.7432 O   0  0  0  0  0  0  0  0  0  0  0  0
   -2.1686   -1.1522    0.6826 N   0  0  0  0  0  0  0  0  0  0  0  0
   -2.9622   -0.6178    0.3331 H   0  0  0  0  0  0  0  0  0  0  0  0
   -0.8854   -0.4425    0.7879 C   0  0  1  0  0  0  0  0  0  0  0  0
   -0.3217   -0.8860    1.6086 H   0  0  0  0  0  0  0  0  0  0  0  0
   -0.1242   -0.5844   -0.5568 C   0  0  0  0  0  0  0  0  0  0  0  0
   -0.7477   -1.1206   -1.2801 H   0  0  0  0  0  0  0  0  0  0  0  0
    0.0245    0.4196   -0.9688 H   0  0  0  0  0  0  0  0  0  0  0  0
    1.2610   -1.2697   -0.5221 C   0  0  0  0  0  0  0  0  0  0  0  0
    1.1127   -2.3430   -0.6831 H   0  0  0  0  0  0  0  0  0  0  0  0
    1.8462   -0.8915   -1.3668 H   0  0  0  0  0  0  0  0  0  0  0  0
    2.0681   -1.1052    0.7769 C   0  0  0  0  0  0  0  0  0  0  0  0
    2.0717   -0.0516    1.0730 H   0  0  0  0  0  0  0  0  0  0  0  0
    1.6202   -1.6945    1.5828 H   0  0  0  0  0  0  0  0  0  0  0  0
    3.5057   -1.5790    0.5861 C   0  0  0  0  0  0  0  0  0  0  0  0
    3.5169   -2.6497    0.3529 H   0  0  0  0  0  0  0  0  0  0  0  0
    3.9754   -1.0443   -0.2469 H   0  0  0  0  0  0  0  0  0  0  0  0
    4.2476   -1.3254    1.8253 N   0  0  0  0  0  0  0  0  0  0  0  0
    5.2023   -1.6797    1.7629 H   0  0  0  0  0  0  0  0  0  0  0  0
    4.2425   -0.3334    2.0604 H   0  0  0  0  0  0  0  0  0  0  0  0
   -1.0950    1.0369    1.1639 C   0  0  0  0  0  0  0  0  0  0  0  0
   -1.9956    1.6805    0.6370 O   0  0  0  0  0  0  0  0  0  0  0  0
   -0.3097    1.6279    2.1362 N   0  0  0  0  0  0  0  0  0  0  0  0
    0.3895    1.0470    2.5913 H   0  0  0  0  0  0  0  0  0  0  0  0
   -0.4841    3.0046    2.5811 C   0  0  0  0  0  0  0  0  0  0  0  0
   -1.4873    3.1498    2.9954 H   0  0  0  0  0  0  0  0  0  0  0  0
    0.2487    3.2466    3.3568 H   0  0  0  0  0  0  0  0  0  0  0  0
   -0.3438    3.6977    1.7450 H   0  0  0  0  0  0  0  0  0  0  0  0
  1  2  1  0  0  0  0
  2  3  1  0  0  0  0
  2  4  1  0  0  0  0
  2  5  1  0  0  0  0
  5  6  2  0  0  0  0
  5  7  1  0  0  0  0
  7  8  1  0  0  0  0
  7  9  1  0  0  0  0
  9 10  1  0  0  0  0
  9 11  1  0  0  0  0
  9 26  1  0  0  0  0
 11 12  1  0  0  0  0
 11 13  1  0  0  0  0
 11 14  1  0  0  0  0
 14 15  1  0  0  0  0
 14 16  1  0  0  0  0
 14 17  1  0  0  0  0
 17 18  1  0  0  0  0
 17 19  1  0  0  0  0
 17 20  1  0  0  0  0
 20 21  1  0  0  0  0
 20 22  1  0  0  0  0
 20 23  1  0  0  0  0
 23 24  1  0  0  0  0
 23 25  1  0  0  0  0
 26 27  2  0  0  0  0
 26 28  1  0  0  0  0
 28 29  1  0  0  0  0
 28 30  1  0  0  0  0
 30 31  1  0  0  0  0
 30 32  1  0  0  0  0
 30 33  1  0  0  0  0
M  END
$$$$

  -OEChem-03222214063D

 33 32  0     1  0  0  0  0  0999 V2000
   -3.8761   -3.9433    1.5991 H   0  0  0  0  0  0  0  0  0  0  0  0
   -3.8404   -2.9519    1.1388 C   0  0  0  0  0  0  0  0  0  0  0  0
   -4.5451   -2.2972    1.6570 H   0  0  0  0  0  0  0  0  0  0  0  0
   -4.1377   -3.0394    0.0910 H   0  0  0  0  0  0  0  0  0  0  0  0
   -2.4377   -2.3807    1.2328 C   0  0  0  0  0  0  0  0  0  0  0  0
   -1.5575   -3.0174    1.7892 O   0  0  0  0  0  0  0  0  0  0  0  0
   -2.1694   -1.1413    0.6903 N   0  0  0  0  0  0  0  0  0  0  0  0
   -2.9574   -0.6116    0.3215 H   0  0  0  0  0  0  0  0  0  0  0  0
   -0.8879   -0.4295    0.8047 C   0  0  1  0  0  0  0  0  0  0  0  0
   -0.3335   -0.8565    1.6403 H   0  0  0  0  0  0  0  0  0  0  0  0
   -0.1130   -0.5757   -0.5341 C   0  0  0  0  0  0  0  0  0  0  0  0
   -0.7347   -1.1162   -1.2557 H   0  0  0  0  0  0  0  0  0  0  0  0
    0.0284    0.4266   -0.9532 H   0  0  0  0  0  0  0  0  0  0  0  0
    1.2781   -1.2572   -0.5129 C   0  0  0  0  0  0  0  0  0  0  0  0
    1.1662   -2.2574   -0.9453 H   0  0  0  0  0  0  0  0  0  0  0  0
    1.9404   -0.6922   -1.1773 H   0  0  0  0  0  0  0  0  0  0  0  0
    1.9614   -1.4237    0.8539 C   0  0  0  0  0  0  0  0  0  0  0  0
    1.9992   -0.4569    1.3656 H   0  0  0  0  0  0  0  0  0  0  0  0
    1.3968   -2.1273    1.4749 H   0  0  0  0  0  0  0  0  0  0  0  0
    3.3810   -1.9584    0.6845 C   0  0  0  0  0  0  0  0  0  0  0  0
    3.3521   -2.9538    0.2271 H   0  0  0  0  0  0  0  0  0  0  0  0
    3.9579   -1.2988    0.0268 H   0  0  0  0  0  0  0  0  0  0  0  0
    4.0168   -2.0298    2.0038 N   0  0  0  0  0  0  0  0  0  0  0  0
    4.9540   -2.4275    1.9420 H   0  0  0  0  0  0  0  0  0  0  0  0
    4.0377   -1.1152    2.4533 H   0  0  0  0  0  0  0  0  0  0  0  0
   -1.1133    1.0532    1.1595 C   0  0  0  0  0  0  0  0  0  0  0  0
   -2.0123    1.6831    0.6133 O   0  0  0  0  0  0  0  0  0  0  0  0
   -0.3481    1.6627    2.1365 N   0  0  0  0  0  0  0  0  0  0  0  0
    0.3430    1.0910    2.6147 H   0  0  0  0  0  0  0  0  0  0  0  0
   -0.5591    3.0353    2.5797 C   0  0  0  0  0  0  0  0  0  0  0  0
   -1.5692    3.1561    2.9850 H   0  0  0  0  0  0  0  0  0  0  0  0
    0.1605    3.2948    3.3621 H   0  0  0  0  0  0  0  0  0  0  0  0
   -0.4282    3.7320    1.7451 H   0  0  0  0  0  0  0  0  0  0  0  0
  1  2  1  0  0  0  0
  2  3  1  0  0  0  0
  2  4  1  0  0  0  0
  2  5  1  0  0  0  0
  5  6  2  0  0  0  0
  5  7  1  0  0  0  0
  7  8  1  0  0  0  0
  7  9  1  0  0  0  0
  9 10  1  0  0  0  0
  9 11  1  0  0  0  0
  9 26  1  0  0  0  0
 11 12  1  0  0  0  0
 11 13  1  0  0  0  0
 11 14  1  0  0  0  0
 14 15  1  0  0  0  0
 14 16  1  0  0  0  0
 14 17  1  0  0  0  0
 17 18  1  0  0  0  0
 17 19  1  0  0  0  0
 17 20  1  0  0  0  0
 20 21  1  0  0  0  0
 20 22  1  0  0  0  0
 20 23  1  0  0  0  0
 23 24  1  0  0  0  0
 23 25  1  0  0  0  0
 26 27  2  0  0  0  0
 26 28  1  0  0  0  0
 28 29  1  0  0  0  0
 28 30  1  0  0  0  0
 30 31  1  0  0  0  0
 30 32  1  0  0  0  0
 30 33  1  0  0  0  0
M  END
$$$$

  -OEChem-03222214063D

 33 32  0     1  0  0  0  0  0999 V2000
   -3.8690   -3.9459    1.5975 H   0  0  0  0  0  0  0  0  0  0  0  0
   -3.8332   -2.9559    1.1343 C   0  0  0  0  0  0  0  0  0  0  0  0
   -4.5542   -2.3057    1.6355 H   0  0  0  0  0  0  0  0  0  0  0  0
   -4.1080   -3.0504    0.0810 H   0  0  0  0  0  0  0  0  0  0  0  0
   -2.4380   -2.3723    1.2557 C   0  0  0  0  0  0  0  0  0  0  0  0
   -1.5699   -2.9926    1.8476 O   0  0  0  0  0  0  0  0  0  0  0  0
   -2.1660   -1.1368    0.7062 N   0  0  0  0  0  0  0  0  0  0  0  0
   -2.9479   -0.6193    0.3083 H   0  0  0  0  0  0  0  0  0  0  0  0
   -0.8878   -0.4191    0.8241 C   0  0  1  0  0  0  0  0  0  0  0  0
   -0.3331   -0.8353    1.6652 H   0  0  0  0  0  0  0  0  0  0  0  0
   -0.1049   -0.5581   -0.5121 C   0  0  0  0  0  0  0  0  0  0  0  0
   -0.7238   -1.1195   -1.2203 H   0  0  0  0  0  0  0  0  0  0  0  0
    0.0177    0.4382   -0.9508 H   0  0  0  0  0  0  0  0  0  0  0  0
    1.2918   -1.2309   -0.4958 C   0  0  0  0  0  0  0  0  0  0  0  0
    1.2581   -2.0858   -1.1799 H   0  0  0  0  0  0  0  0  0  0  0  0
    2.0122   -0.5174   -0.9099 H   0  0  0  0  0  0  0  0  0  0  0  0
    1.8319   -1.7273    0.8542 C   0  0  0  0  0  0  0  0  0  0  0  0
    1.9104   -0.8875    1.5514 H   0  0  0  0  0  0  0  0  0  0  0  0
    1.1514   -2.4728    1.2789 H   0  0  0  0  0  0  0  0  0  0  0  0
    3.2097   -2.3612    0.6810 C   0  0  0  0  0  0  0  0  0  0  0  0
    3.1374   -3.2384    0.0284 H   0  0  0  0  0  0  0  0  0  0  0  0
    3.8973   -1.6467    0.2155 H   0  0  0  0  0  0  0  0  0  0  0  0
    3.7170   -2.7574    1.9981 N   0  0  0  0  0  0  0  0  0  0  0  0
    4.6332   -3.1995    1.9254 H   0  0  0  0  0  0  0  0  0  0  0  0
    3.7427   -1.9646    2.6383 H   0  0  0  0  0  0  0  0  0  0  0  0
   -1.1270    1.0649    1.1647 C   0  0  0  0  0  0  0  0  0  0  0  0
   -2.0212    1.6857    0.6006 O   0  0  0  0  0  0  0  0  0  0  0  0
   -0.3749    1.6891    2.1427 N   0  0  0  0  0  0  0  0  0  0  0  0
    0.3155    1.1277    2.6333 H   0  0  0  0  0  0  0  0  0  0  0  0
   -0.5905    3.0687    2.5607 C   0  0  0  0  0  0  0  0  0  0  0  0
   -1.6041    3.1963    2.9554 H   0  0  0  0  0  0  0  0  0  0  0  0
    0.1225    3.3420    3.3445 H   0  0  0  0  0  0  0  0  0  0  0  0
   -0.4527    3.7508    1.7151 H   0  0  0  0  0  0  0  0  0  0  0  0
  1  2  1  0  0  0  0
  2  3  1  0  0  0  0
  2  4  1  0  0  0  0
  2  5  1  0  0  0  0
  5  6  2  0  0  0  0
  5  7  1  0  0  0  0
  7  8  1  0  0  0  0
  7  9  1  0  0  0  0
  9 10  1  0  0  0  0
  9 11  1  0  0  0  0
  9 26  1  0  0  0  0
 11 12  1  0  0  0  0
 11 13  1  0  0  0  0
 11 14  1  0  0  0  0
 14 15  1  0  0  0  0
 14 16  1  0  0  0  0
 14 17  1  0  0  0  0
 17 18  1  0  0  0  0
 17 19  1  0  0  0  0
 17 20  1  0  0  0  0
 20 21  1  0  0  0  0
 20 22  1  0  0  0  0
 20 23  1  0  0  0  0
 23 24  1  0  0  0  0
 23 25  1  0  0  0  0
 26 27  2  0  0  0  0
 26 28  1  0  0  0  0
 28 29  1  0  0  0  0
 28 30  1  0  0  0  0
 30 31  1  0  0  0  0
 30 32  1  0  0  0  0
 30 33  1  0  0  0  0
M  END
$$$$

  -OEChem-03222214063D

 33 32  0     1  0  0  0  0  0999 V2000
   -3.8660   -3.9458    1.6065 H   0  0  0  0  0  0  0  0  0  0  0  0
   -3.8259   -2.9600    1.1347 C   0  0  0  0  0  0  0  0  0  0  0  0
   -4.5648   -2.3111    1.6111 H   0  0  0  0  0  0  0  0  0  0  0  0
   -4.0725   -3.0664    0.0755 H   0  0  0  0  0  0  0  0  0  0  0  0
   -2.4389   -2.3645    1.2868 C   0  0  0  0  0  0  0  0  0  0  0  0
   -1.5905   -2.9614    1.9285 O   0  0  0  0  0  0  0  0  0  0  0  0
   -2.1597   -1.1355    0.7263 N   0  0  0  0  0  0  0  0  0  0  0  0
   -2.9322   -0.6336    0.2919 H   0  0  0  0  0  0  0  0  0  0  0  0
   -0.8815   -0.4165    0.8406 C   0  0  1  0  0  0  0  0  0  0  0  0
   -0.3215   -0.8249    1.6820 H   0  0  0  0  0  0  0  0  0  0  0  0
   -0.0930   -0.5481   -0.4933 C   0  0  0  0  0  0  0  0  0  0  0  0
   -0.7067   -1.1320   -1.1875 H   0  0  0  0  0  0  0  0  0  0  0  0
    0.0151    0.4411   -0.9518 H   0  0  0  0  0  0  0  0  0  0  0  0
    1.3049   -1.2152   -0.4726 C   0  0  0  0  0  0  0  0  0  0  0  0
    1.3773   -1.8671   -1.3497 H   0  0  0  0  0  0  0  0  0  0  0  0
    2.0527   -0.4252   -0.5974 H   0  0  0  0  0  0  0  0  0  0  0  0
    1.6918   -2.0233    0.7752 C   0  0  0  0  0  0  0  0  0  0  0  0
    1.7673   -1.3618    1.6434 H   0  0  0  0  0  0  0  0  0  0  0  0
    0.9277   -2.7802    0.9782 H   0  0  0  0  0  0  0  0  0  0  0  0
    3.0364   -2.7162    0.5672 C   0  0  0  0  0  0  0  0  0  0  0  0
    2.9758   -3.4059   -0.2820 H   0  0  0  0  0  0  0  0  0  0  0  0
    3.8111   -1.9731    0.3478 H   0  0  0  0  0  0  0  0  0  0  0  0
    3.3808   -3.4560    1.7845 N   0  0  0  0  0  0  0  0  0  0  0  0
    4.2859   -3.9173    1.6967 H   0  0  0  0  0  0  0  0  0  0  0  0
    3.3542   -2.8517    2.6051 H   0  0  0  0  0  0  0  0  0  0  0  0
   -1.1270    1.0701    1.1645 C   0  0  0  0  0  0  0  0  0  0  0  0
   -2.0160    1.6853    0.5860 O   0  0  0  0  0  0  0  0  0  0  0  0
   -0.3799    1.7055    2.1390 N   0  0  0  0  0  0  0  0  0  0  0  0
    0.3075    1.1497    2.6401 H   0  0  0  0  0  0  0  0  0  0  0  0
   -0.5933    3.0915    2.5356 C   0  0  0  0  0  0  0  0  0  0  0  0
   -1.6069    3.2262    2.9274 H   0  0  0  0  0  0  0  0  0  0  0  0
    0.1200    3.3755    3.3153 H   0  0  0  0  0  0  0  0  0  0  0  0
   -0.4539    3.7600    1.6796 H   0  0  0  0  0  0  0  0  0  0  0  0
  1  2  1  0  0  0  0
  2  3  1  0  0  0  0
  2  4  1  0  0  0  0
  2  5  1  0  0  0  0
  5  6  2  0  0  0  0
  5  7  1  0  0  0  0
  7  8  1  0  0  0  0
  7  9  1  0  0  0  0
  9 10  1  0  0  0  0
  9 11  1  0  0  0  0
  9 26  1  0  0  0  0
 11 12  1  0  0  0  0
 11 13  1  0  0  0  0
 11 14  1  0  0  0  0
 14 15  1  0  0  0  0
 14 16  1  0  0  0  0
 14 17  1  0  0  0  0
 17 18  1  0  0  0  0
 17 19  1  0  0  0  0
 17 20  1  0  0  0  0
 20 21  1  0  0  0  0
 20 22  1  0  0  0  0
 20 23  1  0  0  0  0
 23 24  1  0  0  0  0
 23 25  1  0  0  0  0
 26 27  2  0  0  0  0
 26 28  1  0  0  0  0
 28 29  1  0  0  0  0
 28 30  1  0  0  0  0
 30 31  1  0  0  0  0
 30 32  1  0  0  0  0
 30 33  1  0  0  0  0
M  END
$$$$

  -OEChem-03222214063D

 33 32  0     1  0  0  0  0  0999 V2000
   -3.8434   -3.9471    1.6280 H   0  0  0  0  0  0  0  0  0  0  0  0
   -3.8038   -2.9646    1.1494 C   0  0  0  0  0  0  0  0  0  0  0  0
   -4.5539   -2.3171    1.6099 H   0  0  0  0  0  0  0  0  0  0  0  0
   -4.0343   -3.0807    0.0877 H   0  0  0  0  0  0  0  0  0  0  0  0
   -2.4239   -2.3574    1.3161 C   0  0  0  0  0  0  0  0  0  0  0  0
   -1.5824   -2.9362    1.9838 O   0  0  0  0  0  0  0  0  0  0  0  0
   -2.1454   -1.1330    0.7453 N   0  0  0  0  0  0  0  0  0  0  0  0
   -2.9130   -0.6402    0.2922 H   0  0  0  0  0  0  0  0  0  0  0  0
   -0.8630   -0.4204    0.8477 C   0  0  1  0  0  0  0  0  0  0  0  0
   -0.2890   -0.8229    1.6824 H   0  0  0  0  0  0  0  0  0  0  0  0
   -0.0845   -0.5454   -0.4911 C   0  0  0  0  0  0  0  0  0  0  0  0
   -0.7012   -1.1294   -1.1824 H   0  0  0  0  0  0  0  0  0  0  0  0
    0.0285    0.4434   -0.9497 H   0  0  0  0  0  0  0  0  0  0  0  0
    1.3069   -1.2198   -0.4640 C   0  0  0  0  0  0  0  0  0  0  0  0
    1.4917   -1.6463   -1.4558 H   0  0  0  0  0  0  0  0  0  0  0  0
    2.0564   -0.4378   -0.3031 H   0  0  0  0  0  0  0  0  0  0  0  0
    1.5356   -2.3046    0.6011 C   0  0  0  0  0  0  0  0  0  0  0  0
    1.5358   -1.8702    1.6041 H   0  0  0  0  0  0  0  0  0  0  0  0
    0.7325   -3.0464    0.5446 H   0  0  0  0  0  0  0  0  0  0  0  0
    2.8773   -2.9982    0.3743 C   0  0  0  0  0  0  0  0  0  0  0  0
    2.9148   -3.4308   -0.6317 H   0  0  0  0  0  0  0  0  0  0  0  0
    3.6913   -2.2704    0.4625 H   0  0  0  0  0  0  0  0  0  0  0  0
    3.0385   -4.0577    1.3737 N   0  0  0  0  0  0  0  0  0  0  0  0
    3.9570   -4.4956    1.3094 H   0  0  0  0  0  0  0  0  0  0  0  0
    2.8623   -3.7076    2.3154 H   0  0  0  0  0  0  0  0  0  0  0  0
   -1.1101    1.0681    1.1651 C   0  0  0  0  0  0  0  0  0  0  0  0
   -2.0000    1.6797    0.5839 O   0  0  0  0  0  0  0  0  0  0  0  0
   -0.3608    1.7120    2.1323 N   0  0  0  0  0  0  0  0  0  0  0  0
    0.3259    1.1601    2.6387 H   0  0  0  0  0  0  0  0  0  0  0  0
   -0.5753    3.1011    2.5184 C   0  0  0  0  0  0  0  0  0  0  0  0
   -1.5854    3.2363    2.9190 H   0  0  0  0  0  0  0  0  0  0  0  0
    0.1446    3.3948    3.2884 H   0  0  0  0  0  0  0  0  0  0  0  0
   -0.4470    3.7630    1.6554 H   0  0  0  0  0  0  0  0  0  0  0  0
  1  2  1  0  0  0  0
  2  3  1  0  0  0  0
  2  4  1  0  0  0  0
  2  5  1  0  0  0  0
  5  6  2  0  0  0  0
  5  7  1  0  0  0  0
  7  8  1  0  0  0  0
  7  9  1  0  0  0  0
  9 10  1  0  0  0  0
  9 11  1  0  0  0  0
  9 26  1  0  0  0  0
 11 12  1  0  0  0  0
 11 13  1  0  0  0  0
 11 14  1  0  0  0  0
 14 15  1  0  0  0  0
 14 16  1  0  0  0  0
 14 17  1  0  0  0  0
 17 18  1  0  0  0  0
 17 19  1  0  0  0  0
 17 20  1  0  0  0  0
 20 21  1  0  0  0  0
 20 22  1  0  0  0  0
 20 23  1  0  0  0  0
 23 24  1  0  0  0  0
 23 25  1  0  0  0  0
 26 27  2  0  0  0  0
 26 28  1  0  0  0  0
 28 29  1  0  0  0  0
 28 30  1  0  0  0  0
 30 31  1  0  0  0  0
 30 32  1  0  0  0  0
 30 33  1  0  0  0  0
M  END
$$$$

  -OEChem-03222214063D

 33 32  0     1  0  0  0  0  0999 V2000
   -3.7886   -3.9657    1.6598 H   0  0  0  0  0  0  0  0  0  0  0  0
   -3.7592   -2.9852    1.1763 C   0  0  0  0  0  0  0  0  0  0  0  0
   -4.5046   -2.3381    1.6450 H   0  0  0  0  0  0  0  0  0  0  0  0
   -4.0050   -3.1074    0.1187 H   0  0  0  0  0  0  0  0  0  0  0  0
   -2.3786   -2.3727    1.3191 C   0  0  0  0  0  0  0  0  0  0  0  0
   -1.5215   -2.9507    1.9682 O   0  0  0  0  0  0  0  0  0  0  0  0
   -2.1169   -1.1439    0.7495 N   0  0  0  0  0  0  0  0  0  0  0  0
   -2.8938   -0.6533    0.3100 H   0  0  0  0  0  0  0  0  0  0  0  0
   -0.8345   -0.4292    0.8311 C   0  0  1  0  0  0  0  0  0  0  0  0
   -0.2341   -0.8316    1.6482 H   0  0  0  0  0  0  0  0  0  0  0  0
   -0.0835   -0.5424   -0.5223 C   0  0  0  0  0  0  0  0  0  0  0  0
   -0.7062   -1.1161   -1.2171 H   0  0  0  0  0  0  0  0  0  0  0  0
    0.0363    0.4518   -0.9667 H   0  0  0  0  0  0  0  0  0  0  0  0
    1.3019   -1.2192   -0.4860 C   0  0  0  0  0  0  0  0  0  0  0  0
    1.6045   -1.4262   -1.5178 H   0  0  0  0  0  0  0  0  0  0  0  0
    2.0242   -0.5101   -0.0686 H   0  0  0  0  0  0  0  0  0  0  0  0
    1.3750   -2.5185    0.3328 C   0  0  0  0  0  0  0  0  0  0  0  0
    1.2350   -2.3214    1.3984 H   0  0  0  0  0  0  0  0  0  0  0  0
    0.5803   -3.1967    0.0047 H   0  0  0  0  0  0  0  0  0  0  0  0
    2.7279   -3.1993    0.1434 C   0  0  0  0  0  0  0  0  0  0  0  0
    2.9262   -3.3644   -0.9214 H   0  0  0  0  0  0  0  0  0  0  0  0
    3.5235   -2.5611    0.5435 H   0  0  0  0  0  0  0  0  0  0  0  0
    2.7058   -4.4847    0.8466 N   0  0  0  0  0  0  0  0  0  0  0  0
    3.6261   -4.9233    0.8535 H   0  0  0  0  0  0  0  0  0  0  0  0
    2.3405   -4.3795    1.7939 H   0  0  0  0  0  0  0  0  0  0  0  0
   -1.0822    1.0565    1.1630 C   0  0  0  0  0  0  0  0  0  0  0  0
   -1.9853    1.6678    0.6025 O   0  0  0  0  0  0  0  0  0  0  0  0
   -0.3179    1.6985    2.1200 N   0  0  0  0  0  0  0  0  0  0  0  0
    0.3800    1.1470    2.6113 H   0  0  0  0  0  0  0  0  0  0  0  0
   -0.5368    3.0825    2.5228 C   0  0  0  0  0  0  0  0  0  0  0  0
   -1.5397    3.2043    2.9455 H   0  0  0  0  0  0  0  0  0  0  0  0
    0.1962    3.3764    3.2802 H   0  0  0  0  0  0  0  0  0  0  0  0
   -0.4326    3.7531    1.6633 H   0  0  0  0  0  0  0  0  0  0  0  0
  1  2  1  0  0  0  0
  2  3  1  0  0  0  0
  2  4  1  0  0  0  0
  2  5  1  0  0  0  0
  5  6  2  0  0  0  0
  5  7  1  0  0  0  0
  7  8  1  0  0  0  0
  7  9  1  0  0  0  0
  9 10  1  0  0  0  0
  9 11  1  0  0  0  0
  9 26  1  0  0  0  0
 11 12  1  0  0  0  0
 11 13  1  0  0  0  0
 11 14  1  0  0  0  0
 14 15  1  0  0  0  0
 14 16  1  0  0  0  0
 14 17  1  0  0  0  0
 17 18  1  0  0  0  0
 17 19  1  0  0  0  0
 17 20  1  0  0  0  0
 20 21  1  0  0  0  0
 20 22  1  0  0  0  0
 20 23  1  0  0  0  0
 23 24  1  0  0  0  0
 23 25  1  0  0  0  0
 26 27  2  0  0  0  0
 26 28  1  0  0  0  0
 28 29  1  0  0  0  0
 28 30  1  0  0  0  0
 30 31  1  0  0  0  0
 30 32  1  0  0  0  0
 30 33  1  0  0  0  0
M  END
$$$$

  -OEChem-03222214063D

 33 32  0     1  0  0  0  0  0999 V2000
   -3.7474   -4.0073    1.6402 H   0  0  0  0  0  0  0  0  0  0  0  0
   -3.7247   -3.0221    1.1660 C   0  0  0  0  0  0  0  0  0  0  0  0
   -4.4749   -2.3848    1.6404 H   0  0  0  0  0  0  0  0  0  0  0  0
   -3.9695   -3.1359    0.1072 H   0  0  0  0  0  0  0  0  0  0  0  0
   -2.3486   -2.4011    1.3154 C   0  0  0  0  0  0  0  0  0  0  0  0
   -1.4913   -2.9765    1.9664 O   0  0  0  0  0  0  0  0  0  0  0  0
   -2.0971   -1.1646    0.7581 N   0  0  0  0  0  0  0  0  0  0  0  0
   -2.8783   -0.6825    0.3171 H   0  0  0  0  0  0  0  0  0  0  0  0
   -0.8167   -0.4432    0.8157 C   0  0  1  0  0  0  0  0  0  0  0  0
   -0.1849   -0.8626    1.6033 H   0  0  0  0  0  0  0  0  0  0  0  0
   -0.1016   -0.5400   -0.5565 C   0  0  0  0  0  0  0  0  0  0  0  0
   -0.7319   -1.0980   -1.2573 H   0  0  0  0  0  0  0  0  0  0  0  0
    0.0229    0.4622   -0.9813 H   0  0  0  0  0  0  0  0  0  0  0  0
    1.2804   -1.2138   -0.5129 C   0  0  0  0  0  0  0  0  0  0  0  0
    1.6958   -1.2074   -1.5261 H   0  0  0  0  0  0  0  0  0  0  0  0
    1.9494   -0.6243    0.1227 H   0  0  0  0  0  0  0  0  0  0  0  0
    1.2384   -2.6596    0.0008 C   0  0  0  0  0  0  0  0  0  0  0  0
    0.9433   -2.6837    1.0523 H   0  0  0  0  0  0  0  0  0  0  0  0
    0.4985   -3.2282   -0.5722 H   0  0  0  0  0  0  0  0  0  0  0  0
    2.6041   -3.3253   -0.1350 C   0  0  0  0  0  0  0  0  0  0  0  0
    2.9521   -3.2741   -1.1726 H   0  0  0  0  0  0  0  0  0  0  0  0
    3.3349   -2.8072    0.4959 H   0  0  0  0  0  0  0  0  0  0  0  0
    2.4780   -4.7252    0.2790 N   0  0  0  0  0  0  0  0  0  0  0  0
    3.3858   -5.1884    0.3088 H   0  0  0  0  0  0  0  0  0  0  0  0
    1.9984   -4.7986    1.1776 H   0  0  0  0  0  0  0  0  0  0  0  0
   -1.0588    1.0373    1.1720 C   0  0  0  0  0  0  0  0  0  0  0  0
   -1.9735    1.6551    0.6382 O   0  0  0  0  0  0  0  0  0  0  0  0
   -0.2702    1.6682    2.1163 N   0  0  0  0  0  0  0  0  0  0  0  0
    0.4371    1.1105    2.5865 H   0  0  0  0  0  0  0  0  0  0  0  0
   -0.4725    3.0502    2.5327 C   0  0  0  0  0  0  0  0  0  0  0  0
   -1.4625    3.1730    2.9843 H   0  0  0  0  0  0  0  0  0  0  0  0
    0.2830    3.3377    3.2702 H   0  0  0  0  0  0  0  0  0  0  0  0
   -0.3903    3.7244    1.6737 H   0  0  0  0  0  0  0  0  0  0  0  0
  1  2  1  0  0  0  0
  2  3  1  0  0  0  0
  2  4  1  0  0  0  0
  2  5  1  0  0  0  0
  5  6  2  0  0  0  0
  5  7  1  0  0  0  0
  7  8  1  0  0  0  0
  7  9  1  0  0  0  0
  9 10  1  0  0  0  0
  9 11  1  0  0  0  0
  9 26  1  0  0  0  0
 11 12  1  0  0  0  0
 11 13  1  0  0  0  0
 11 14  1  0  0  0  0
 14 15  1  0  0  0  0
 14 16  1  0  0  0  0
 14 17  1  0  0  0  0
 17 18  1  0  0  0  0
 17 19  1  0  0  0  0
 17 20  1  0  0  0  0
 20 21  1  0  0  0  0
 20 22  1  0  0  0  0
 20 23  1  0  0  0  0
 23 24  1  0  0  0  0
 23 25  1  0  0  0  0
 26 27  2  0  0  0  0
 26 28  1  0  0  0  0
 28 29  1  0  0  0  0
 28 30  1  0  0  0  0
 30 31  1  0  0  0  0
 30 32  1  0  0  0  0
 30 33  1  0  0  0  0
M  END
$$$$

  -OEChem-03222214063D

 33 32  0     1  0  0  0  0  0999 V2000
   -3.7050   -4.0444    1.6216 H   0  0  0  0  0  0  0  0  0  0  0  0
   -3.6922   -3.0549    1.1561 C   0  0  0  0  0  0  0  0  0  0  0  0
   -4.4485   -2.4294    1.6363 H   0  0  0  0  0  0  0  0  0  0  0  0
   -3.9361   -3.1621    0.0964 H   0  0  0  0  0  0  0  0  0  0  0  0
   -2.3223   -2.4215    1.3104 C   0  0  0  0  0  0  0  0  0  0  0  0
   -1.4586   -2.9941    1.9557 O   0  0  0  0  0  0  0  0  0  0  0  0
   -2.0838   -1.1779    0.7630 N   0  0  0  0  0  0  0  0  0  0  0  0
   -2.8703   -0.7009    0.3263 H   0  0  0  0  0  0  0  0  0  0  0  0
   -0.8038   -0.4545    0.7983 C   0  0  1  0  0  0  0  0  0  0  0  0
   -0.1503   -0.8921    1.5597 H   0  0  0  0  0  0  0  0  0  0  0  0
   -0.1237   -0.5342   -0.5919 C   0  0  0  0  0  0  0  0  0  0  0  0
   -0.7680   -1.0674   -1.2991 H   0  0  0  0  0  0  0  0  0  0  0  0
    0.0063    0.4770   -0.9930 H   0  0  0  0  0  0  0  0  0  0  0  0
    1.2562   -1.2091   -0.5589 C   0  0  0  0  0  0  0  0  0  0  0  0
    1.7712   -0.9890   -1.5001 H   0  0  0  0  0  0  0  0  0  0  0  0
    1.8578   -0.7869    0.2528 H   0  0  0  0  0  0  0  0  0  0  0  0
    1.1515   -2.7302   -0.4023 C   0  0  0  0  0  0  0  0  0  0  0  0
    0.6709   -2.9737    0.5474 H   0  0  0  0  0  0  0  0  0  0  0  0
    0.5362   -3.1413   -1.2092 H   0  0  0  0  0  0  0  0  0  0  0  0
    2.5296   -3.3814   -0.4365 C   0  0  0  0  0  0  0  0  0  0  0  0
    3.0417   -3.1393   -1.3742 H   0  0  0  0  0  0  0  0  0  0  0  0
    3.1398   -3.0073    0.3929 H   0  0  0  0  0  0  0  0  0  0  0  0
    2.3539   -4.8315   -0.3216 N   0  0  0  0  0  0  0  0  0  0  0  0
    3.2518   -5.3112   -0.2643 H   0  0  0  0  0  0  0  0  0  0  0  0
    1.7640   -5.0634    0.4791 H   0  0  0  0  0  0  0  0  0  0  0  0
   -1.0379    1.0218    1.1783 C   0  0  0  0  0  0  0  0  0  0  0  0
   -1.9616    1.6468    0.6690 O   0  0  0  0  0  0  0  0  0  0  0  0
   -0.2272    1.6429    2.1104 N   0  0  0  0  0  0  0  0  0  0  0  0
    0.4873    1.0789    2.5618 H   0  0  0  0  0  0  0  0  0  0  0  0
   -0.4241    3.0187    2.5508 C   0  0  0  0  0  0  0  0  0  0  0  0
   -1.4083    3.1344    3.0166 H   0  0  0  0  0  0  0  0  0  0  0  0
    0.3403    3.2943    3.2837 H   0  0  0  0  0  0  0  0  0  0  0  0
   -0.3527    3.7074    1.7024 H   0  0  0  0  0  0  0  0  0  0  0  0
  1  2  1  0  0  0  0
  2  3  1  0  0  0  0
  2  4  1  0  0  0  0
  2  5  1  0  0  0  0
  5  6  2  0  0  0  0
  5  7  1  0  0  0  0
  7  8  1  0  0  0  0
  7  9  1  0  0  0  0
  9 10  1  0  0  0  0
  9 11  1  0  0  0  0
  9 26  1  0  0  0  0
 11 12  1  0  0  0  0
 11 13  1  0  0  0  0
 11 14  1  0  0  0  0
 14 15  1  0  0  0  0
 14 16  1  0  0  0  0
 14 17  1  0  0  0  0
 17 18  1  0  0  0  0
 17 19  1  0  0  0  0
 17 20  1  0  0  0  0
 20 21  1  0  0  0  0
 20 22  1  0  0  0  0
 20 23  1  0  0  0  0
 23 24  1  0  0  0  0
 23 25  1  0  0  0  0
 26 27  2  0  0  0  0
 26 28  1  0  0  0  0
 28 29  1  0  0  0  0
 28 30  1  0  0  0  0
 30 31  1  0  0  0  0
 30 32  1  0  0  0  0
 30 33  1  0  0  0  0
M  END
$$$$

  -OEChem-03222214063D

 33 32  0     1  0  0  0  0  0999 V2000
   -3.6569   -4.0601    1.6309 H   0  0  0  0  0  0  0  0  0  0  0  0
   -3.6632   -3.0683    1.1700 C   0  0  0  0  0  0  0  0  0  0  0  0
   -4.3948   -2.4433    1.6878 H   0  0  0  0  0  0  0  0  0  0  0  0
   -3.9565   -3.1691    0.1223 H   0  0  0  0  0  0  0  0  0  0  0  0
   -2.2860   -2.4393    1.2628 C   0  0  0  0  0  0  0  0  0  0  0  0
   -1.3824   -3.0350    1.8287 O   0  0  0  0  0  0  0  0  0  0  0  0
   -2.0741   -1.1834    0.7328 N   0  0  0  0  0  0  0  0  0  0  0  0
   -2.8813   -0.6879    0.3581 H   0  0  0  0  0  0  0  0  0  0  0  0
   -0.7989   -0.4535    0.7646 C   0  0  1  0  0  0  0  0  0  0  0  0
   -0.1406   -0.8998    1.5166 H   0  0  0  0  0  0  0  0  0  0  0  0
   -0.1345   -0.5242   -0.6321 C   0  0  0  0  0  0  0  0  0  0  0  0
   -0.7846   -1.0432   -1.3449 H   0  0  0  0  0  0  0  0  0  0  0  0
   -0.0034    0.4925   -1.0182 H   0  0  0  0  0  0  0  0  0  0  0  0
    1.2474   -1.1975   -0.5980 C   0  0  0  0  0  0  0  0  0  0  0  0
    1.8584   -0.7821   -1.4063 H   0  0  0  0  0  0  0  0  0  0  0  0
    1.7606   -0.9780    0.3437 H   0  0  0  0  0  0  0  0  0  0  0  0
    1.1331   -2.7113   -0.8103 C   0  0  0  0  0  0  0  0  0  0  0  0
    0.4832   -3.1431   -0.0443 H   0  0  0  0  0  0  0  0  0  0  0  0
    0.6825   -2.9135   -1.7875 H   0  0  0  0  0  0  0  0  0  0  0  0
    2.5024   -3.3783   -0.7381 C   0  0  0  0  0  0  0  0  0  0  0  0
    3.1675   -2.9597   -1.5015 H   0  0  0  0  0  0  0  0  0  0  0  0
    2.9542   -3.1996    0.2438 H   0  0  0  0  0  0  0  0  0  0  0  0
    2.3286   -4.8163   -0.9590 N   0  0  0  0  0  0  0  0  0  0  0  0
    3.2155   -5.3128   -0.8787 H   0  0  0  0  0  0  0  0  0  0  0  0
    1.6368   -5.2008   -0.3140 H   0  0  0  0  0  0  0  0  0  0  0  0
   -1.0332    1.0145    1.1746 C   0  0  0  0  0  0  0  0  0  0  0  0
   -1.9735    1.6402    0.6976 O   0  0  0  0  0  0  0  0  0  0  0  0
   -0.2128    1.6230    2.1065 N   0  0  0  0  0  0  0  0  0  0  0  0
    0.5200    1.0595    2.5280 H   0  0  0  0  0  0  0  0  0  0  0  0
   -0.4095    2.9900    2.5729 C   0  0  0  0  0  0  0  0  0  0  0  0
   -1.3953    3.0987    3.0375 H   0  0  0  0  0  0  0  0  0  0  0  0
    0.3526    3.2503    3.3137 H   0  0  0  0  0  0  0  0  0  0  0  0
   -0.3341    3.6939    1.7374 H   0  0  0  0  0  0  0  0  0  0  0  0
  1  2  1  0  0  0  0
  2  3  1  0  0  0  0
  2  4  1  0  0  0  0
  2  5  1  0  0  0  0
  5  6  2  0  0  0  0
  5  7  1  0  0  0  0
  7  8  1  0  0  0  0
  7  9  1  0  0  0  0
  9 10  1  0  0  0  0
  9 11  1  0  0  0  0
  9 26  1  0  0  0  0
 11 12  1  0  0  0  0
 11 13  1  0  0  0  0
 11 14  1  0  0  0  0
 14 15  1  0  0  0  0
 14 16  1  0  0  0  0
 14 17  1  0  0  0  0
 17 18  1  0  0  0  0
 17 19  1  0  0  0  0
 17 20  1  0  0  0  0
 20 21  1  0  0  0  0
 20 22  1  0  0  0  0
 20 23  1  0  0  0  0
 23 24  1  0  0  0  0
 23 25  1  0  0  0  0
 26 27  2  0  0  0  0
 26 28  1  0  0  0  0
 28 29  1  0  0  0  0
 28 30  1  0  0  0  0
 30 31  1  0  0  0  0
 30 32  1  0  0  0  0
 30 33  1  0  0  0  0
M  END
$$$$

  -OEChem-03222214063D

 33 32  0     1  0  0  0  0  0999 V2000
   -3.6495   -4.0491    1.6415 H   0  0  0  0  0  0  0  0  0  0  0  0
   -3.6640   -3.0565    1.1827 C   0  0  0  0  0  0  0  0  0  0  0  0
   -4.3671   -2.4249    1.7310 H   0  0  0  0  0  0  0  0  0  0  0  0
   -4.0009   -3.1520    0.1476 H   0  0  0  0  0  0  0  0  0  0  0  0
   -2.2773   -2.4422    1.2200 C   0  0  0  0  0  0  0  0  0  0  0  0
   -1.3483   -3.0643    1.7121 O   0  0  0  0  0  0  0  0  0  0  0  0
   -2.0763   -1.1801    0.7011 N   0  0  0  0  0  0  0  0  0  0  0  0
   -2.8951   -0.6663    0.3794 H   0  0  0  0  0  0  0  0  0  0  0  0
   -0.8037   -0.4467    0.7468 C   0  0  1  0  0  0  0  0  0  0  0  0
   -0.1580   -0.8938    1.5085 H   0  0  0  0  0  0  0  0  0  0  0  0
   -0.1304   -0.5259   -0.6440 C   0  0  0  0  0  0  0  0  0  0  0  0
   -0.7808   -1.0463   -1.3554 H   0  0  0  0  0  0  0  0  0  0  0  0
   -0.0002    0.4885   -1.0363 H   0  0  0  0  0  0  0  0  0  0  0  0
    1.2546   -1.1994   -0.6004 C   0  0  0  0  0  0  0  0  0  0  0  0
    1.9474   -0.6167   -1.2168 H   0  0  0  0  0  0  0  0  0  0  0  0
    1.6609   -1.2127    0.4158 H   0  0  0  0  0  0  0  0  0  0  0  0
    1.1860   -2.6235   -1.1646 C   0  0  0  0  0  0  0  0  0  0  0  0
    0.4478   -3.2040   -0.6014 H   0  0  0  0  0  0  0  0  0  0  0  0
    0.8646   -2.5909   -2.2109 H   0  0  0  0  0  0  0  0  0  0  0  0
    2.5431   -3.3133   -1.0743 C   0  0  0  0  0  0  0  0  0  0  0  0
    3.2940   -2.7432   -1.6323 H   0  0  0  0  0  0  0  0  0  0  0  0
    2.8650   -3.3698   -0.0285 H   0  0  0  0  0  0  0  0  0  0  0  0
    2.4179   -4.6605   -1.6373 N   0  0  0  0  0  0  0  0  0  0  0  0
    3.2997   -5.1691   -1.5773 H   0  0  0  0  0  0  0  0  0  0  0  0
    1.6685   -5.1774   -1.1761 H   0  0  0  0  0  0  0  0  0  0  0  0
   -1.0377    1.0178    1.1687 C   0  0  0  0  0  0  0  0  0  0  0  0
   -1.9832    1.6435    0.7027 O   0  0  0  0  0  0  0  0  0  0  0  0
   -0.2217    1.6191    2.1092 N   0  0  0  0  0  0  0  0  0  0  0  0
    0.5191    1.0574    2.5188 H   0  0  0  0  0  0  0  0  0  0  0  0
   -0.4209    2.9822    2.5861 C   0  0  0  0  0  0  0  0  0  0  0  0
   -1.4083    3.0862    3.0483 H   0  0  0  0  0  0  0  0  0  0  0  0
    0.3382    3.2372    3.3318 H   0  0  0  0  0  0  0  0  0  0  0  0
   -0.3428    3.6931    1.7566 H   0  0  0  0  0  0  0  0  0  0  0  0
  1  2  1  0  0  0  0
  2  3  1  0  0  0  0
  2  4  1  0  0  0  0
  2  5  1  0  0  0  0
  5  6  2  0  0  0  0
  5  7  1  0  0  0  0
  7  8  1  0  0  0  0
  7  9  1  0  0  0  0
  9 10  1  0  0  0  0
  9 11  1  0  0  0  0
  9 26  1  0  0  0  0
 11 12  1  0  0  0  0
 11 13  1  0  0  0  0
 11 14  1  0  0  0  0
 14 15  1  0  0  0  0
 14 16  1  0  0  0  0
 14 17  1  0  0  0  0
 17 18  1  0  0  0  0
 17 19  1  0  0  0  0
 17 20  1  0  0  0  0
 20 21  1  0  0  0  0
 20 22  1  0  0  0  0
 20 23  1  0  0  0  0
 23 24  1  0  0  0  0
 23 25  1  0  0  0  0
 26 27  2  0  0  0  0
 26 28  1  0  0  0  0
 28 29  1  0  0  0  0
 28 30  1  0  0  0  0
 30 31  1  0  0  0  0
 30 32  1  0  0  0  0
 30 33  1  0  0  0  0
M  END
$$$$

  -OEChem-03222214063D

 33 32  0     1  0  0  0  0  0999 V2000
   -3.6931   -4.0292    1.6523 H   0  0  0  0  0  0  0  0  0  0  0  0
   -3.6986   -3.0388    1.1885 C   0  0  0  0  0  0  0  0  0  0  0  0
   -4.3923   -2.3968    1.7369 H   0  0  0  0  0  0  0  0  0  0  0  0
   -4.0417   -3.1355    0.1557 H   0  0  0  0  0  0  0  0  0  0  0  0
   -2.3050   -2.4394    1.2164 C   0  0  0  0  0  0  0  0  0  0  0  0
   -1.3785   -3.0714    1.7003 O   0  0  0  0  0  0  0  0  0  0  0  0
   -2.0932   -1.1794    0.6969 N   0  0  0  0  0  0  0  0  0  0  0  0
   -2.9079   -0.6572    0.3784 H   0  0  0  0  0  0  0  0  0  0  0  0
   -0.8164   -0.4540    0.7534 C   0  0  1  0  0  0  0  0  0  0  0  0
   -0.1829   -0.9005    1.5250 H   0  0  0  0  0  0  0  0  0  0  0  0
   -0.1274   -0.5363   -0.6305 C   0  0  0  0  0  0  0  0  0  0  0  0
   -0.7785   -1.0669   -1.3339 H   0  0  0  0  0  0  0  0  0  0  0  0
    0.0002    0.4726   -1.0380 H   0  0  0  0  0  0  0  0  0  0  0  0
    1.2565   -1.2170   -0.5839 C   0  0  0  0  0  0  0  0  0  0  0  0
    2.0139   -0.5078   -0.9340 H   0  0  0  0  0  0  0  0  0  0  0  0
    1.5262   -1.5023    0.4373 H   0  0  0  0  0  0  0  0  0  0  0  0
    1.2837   -2.4650   -1.4739 C   0  0  0  0  0  0  0  0  0  0  0  0
    0.5114   -3.1664   -1.1406 H   0  0  0  0  0  0  0  0  0  0  0  0
    1.0642   -2.1846   -2.5094 H   0  0  0  0  0  0  0  0  0  0  0  0
    2.6461   -3.1485   -1.4151 C   0  0  0  0  0  0  0  0  0  0  0  0
    3.4272   -2.4601   -1.7562 H   0  0  0  0  0  0  0  0  0  0  0  0
    2.8748   -3.4407   -0.3841 H   0  0  0  0  0  0  0  0  0  0  0  0
    2.6100   -4.3323   -2.2788 N   0  0  0  0  0  0  0  0  0  0  0  0
    3.4987   -4.8320   -2.2578 H   0  0  0  0  0  0  0  0  0  0  0  0
    1.8404   -4.9492   -2.0175 H   0  0  0  0  0  0  0  0  0  0  0  0
   -1.0451    1.0125    1.1708 C   0  0  0  0  0  0  0  0  0  0  0  0
   -1.9828    1.6436    0.6963 O   0  0  0  0  0  0  0  0  0  0  0  0
   -0.2335    1.6091    2.1180 N   0  0  0  0  0  0  0  0  0  0  0  0
    0.5057    1.0455    2.5280 H   0  0  0  0  0  0  0  0  0  0  0  0
   -0.4130    2.9816    2.5759 C   0  0  0  0  0  0  0  0  0  0  0  0
   -1.4038    3.1106    3.0242 H   0  0  0  0  0  0  0  0  0  0  0  0
    0.3414    3.2309    3.3280 H   0  0  0  0  0  0  0  0  0  0  0  0
   -0.3105    3.6807    1.7392 H   0  0  0  0  0  0  0  0  0  0  0  0
  1  2  1  0  0  0  0
  2  3  1  0  0  0  0
  2  4  1  0  0  0  0
  2  5  1  0  0  0  0
  5  6  2  0  0  0  0
  5  7  1  0  0  0  0
  7  8  1  0  0  0  0
  7  9  1  0  0  0  0
  9 10  1  0  0  0  0
  9 11  1  0  0  0  0
  9 26  1  0  0  0  0
 11 12  1  0  0  0  0
 11 13  1  0  0  0  0
 11 14  1  0  0  0  0
 14 15  1  0  0  0  0
 14 16  1  0  0  0  0
 14 17  1  0  0  0  0
 17 18  1  0  0  0  0
 17 19  1  0  0  0  0
 17 20  1  0  0  0  0
 20 21  1  0  0  0  0
 20 22  1  0  0  0  0
 20 23  1  0  0  0  0
 23 24  1  0  0  0  0
 23 25  1  0  0  0  0
 26 27  2  0  0  0  0
 26 28  1  0  0  0  0
 28 29  1  0  0  0  0
 28 30  1  0  0  0  0
 30 31  1  0  0  0  0
 30 32  1  0  0  0  0
 30 33  1  0  0  0  0
M  END
$$$$

  -OEChem-03222214063D

 33 32  0     1  0  0  0  0  0999 V2000
   -3.7186   -4.0146    1.6611 H   0  0  0  0  0  0  0  0  0  0  0  0
   -3.7198   -3.0251    1.1954 C   0  0  0  0  0  0  0  0  0  0  0  0
   -4.4080   -2.3781    1.7447 H   0  0  0  0  0  0  0  0  0  0  0  0
   -4.0665   -3.1217    0.1637 H   0  0  0  0  0  0  0  0  0  0  0  0
   -2.3225   -2.4344    1.2181 C   0  0  0  0  0  0  0  0  0  0  0  0
   -1.3983   -3.0712    1.7000 O   0  0  0  0  0  0  0  0  0  0  0  0
   -2.1040   -1.1766    0.6963 N   0  0  0  0  0  0  0  0  0  0  0  0
   -2.9165   -0.6467    0.3848 H   0  0  0  0  0  0  0  0  0  0  0  0
   -0.8219   -0.4605    0.7491 C   0  0  1  0  0  0  0  0  0  0  0  0
   -0.1874   -0.9082    1.5195 H   0  0  0  0  0  0  0  0  0  0  0  0
   -0.1324   -0.5417   -0.6341 C   0  0  0  0  0  0  0  0  0  0  0  0
   -0.7859   -1.0878   -1.3232 H   0  0  0  0  0  0  0  0  0  0  0  0
   -0.0084    0.4605   -1.0590 H   0  0  0  0  0  0  0  0  0  0  0  0
    1.2458   -1.2313   -0.5806 C   0  0  0  0  0  0  0  0  0  0  0  0
    2.0339   -0.4728   -0.6296 H   0  0  0  0  0  0  0  0  0  0  0  0
    1.3691   -1.7780    0.3597 H   0  0  0  0  0  0  0  0  0  0  0  0
    1.4026   -2.2354   -1.7285 C   0  0  0  0  0  0  0  0  0  0  0  0
    0.6195   -2.9976   -1.6579 H   0  0  0  0  0  0  0  0  0  0  0  0
    1.2879   -1.7180   -2.6868 H   0  0  0  0  0  0  0  0  0  0  0  0
    2.7699   -2.9104   -1.6797 C   0  0  0  0  0  0  0  0  0  0  0  0
    3.5633   -2.1588   -1.7598 H   0  0  0  0  0  0  0  0  0  0  0  0
    2.8947   -3.4376   -0.7271 H   0  0  0  0  0  0  0  0  0  0  0  0
    2.8623   -3.8565   -2.7954 N   0  0  0  0  0  0  0  0  0  0  0  0
    3.7584   -4.3437   -2.7931 H   0  0  0  0  0  0  0  0  0  0  0  0
    2.0881   -4.5206   -2.7744 H   0  0  0  0  0  0  0  0  0  0  0  0
   -1.0430    1.0072    1.1656 C   0  0  0  0  0  0  0  0  0  0  0  0
   -1.9817    1.6406    0.6960 O   0  0  0  0  0  0  0  0  0  0  0  0
   -0.2269    1.6006    2.1110 N   0  0  0  0  0  0  0  0  0  0  0  0
    0.5134    1.0351    2.5165 H   0  0  0  0  0  0  0  0  0  0  0  0
   -0.4005    2.9732    2.5704 C   0  0  0  0  0  0  0  0  0  0  0  0
   -1.3898    3.1054    3.0210 H   0  0  0  0  0  0  0  0  0  0  0  0
    0.3568    3.2189    3.3209 H   0  0  0  0  0  0  0  0  0  0  0  0
   -0.2977    3.6723    1.7338 H   0  0  0  0  0  0  0  0  0  0  0  0
  1  2  1  0  0  0  0
  2  3  1  0  0  0  0
  2  4  1  0  0  0  0
  2  5  1  0  0  0  0
  5  6  2  0  0  0  0
  5  7  1  0  0  0  0
  7  8  1  0  0  0  0
  7  9  1  0  0  0  0
  9 10  1  0  0  0  0
  9 11  1  0  0  0  0
  9 26  1  0  0  0  0
 11 12  1  0  0  0  0
 11 13  1  0  0  0  0
 11 14  1  0  0  0  0
 14 15  1  0  0  0  0
 14 16  1  0  0  0  0
 14 17  1  0  0  0  0
 17 18  1  0  0  0  0
 17 19  1  0  0  0  0
 17 20  1  0  0  0  0
 20 21  1  0  0  0  0
 20 22  1  0  0  0  0
 20 23  1  0  0  0  0
 23 24  1  0  0  0  0
 23 25  1  0  0  0  0
 26 27  2  0  0  0  0
 26 28  1  0  0  0  0
 28 29  1  0  0  0  0
 28 30  1  0  0  0  0
 30 31  1  0  0  0  0
 30 32  1  0  0  0  0
 30 33  1  0  0  0  0
M  END
$$$$

  -OEChem-03222214063D

 33 32  0     1  0  0  0  0  0999 V2000
   -3.7212   -4.0078    1.6726 H   0  0  0  0  0  0  0  0  0  0  0  0
   -3.7254   -3.0177    1.2081 C   0  0  0  0  0  0  0  0  0  0  0  0
   -4.4007   -2.3677    1.7697 H   0  0  0  0  0  0  0  0  0  0  0  0
   -4.0901   -3.1112    0.1823 H   0  0  0  0  0  0  0  0  0  0  0  0
   -2.3251   -2.4340    1.2079 C   0  0  0  0  0  0  0  0  0  0  0  0
   -1.3951   -3.0780    1.6687 O   0  0  0  0  0  0  0  0  0  0  0  0
   -2.1104   -1.1746    0.6884 N   0  0  0  0  0  0  0  0  0  0  0  0
   -2.9271   -0.6388    0.3984 H   0  0  0  0  0  0  0  0  0  0  0  0
   -0.8264   -0.4611    0.7305 C   0  0  1  0  0  0  0  0  0  0  0  0
   -0.1829   -0.9138    1.4914 H   0  0  0  0  0  0  0  0  0  0  0  0
   -0.1467   -0.5402   -0.6555 C   0  0  0  0  0  0  0  0  0  0  0  0
   -0.7987   -1.0976   -1.3368 H   0  0  0  0  0  0  0  0  0  0  0  0
   -0.0238    0.4590   -1.0873 H   0  0  0  0  0  0  0  0  0  0  0  0
    1.2252   -1.2330   -0.5900 C   0  0  0  0  0  0  0  0  0  0  0  0
    2.0000   -0.4951   -0.3573 H   0  0  0  0  0  0  0  0  0  0  0  0
    1.2264   -1.9864    0.2054 H   0  0  0  0  0  0  0  0  0  0  0  0
    1.5381   -1.9487   -1.9091 C   0  0  0  0  0  0  0  0  0  0  0  0
    0.7678   -2.6996   -2.1136 H   0  0  0  0  0  0  0  0  0  0  0  0
    1.5305   -1.2228   -2.7290 H   0  0  0  0  0  0  0  0  0  0  0  0
    2.9021   -2.6295   -1.8487 C   0  0  0  0  0  0  0  0  0  0  0  0
    3.6830   -1.8897   -1.6410 H   0  0  0  0  0  0  0  0  0  0  0  0
    2.9144   -3.3732   -1.0442 H   0  0  0  0  0  0  0  0  0  0  0  0
    3.1587   -3.2764   -3.1388 N   0  0  0  0  0  0  0  0  0  0  0  0
    4.0633   -3.7472   -3.1420 H   0  0  0  0  0  0  0  0  0  0  0  0
    2.4098   -3.9271   -3.3762 H   0  0  0  0  0  0  0  0  0  0  0  0
   -1.0377    1.0058    1.1545 C   0  0  0  0  0  0  0  0  0  0  0  0
   -1.9833    1.6415    0.7023 O   0  0  0  0  0  0  0  0  0  0  0  0
   -0.2095    1.5932    2.0930 N   0  0  0  0  0  0  0  0  0  0  0  0
    0.5355    1.0252    2.4860 H   0  0  0  0  0  0  0  0  0  0  0  0
   -0.3858    2.9583    2.5729 C   0  0  0  0  0  0  0  0  0  0  0  0
   -1.3677    3.0755    3.0435 H   0  0  0  0  0  0  0  0  0  0  0  0
    0.3832    3.2016    3.3123 H   0  0  0  0  0  0  0  0  0  0  0  0
   -0.3051    3.6690    1.7437 H   0  0  0  0  0  0  0  0  0  0  0  0
  1  2  1  0  0  0  0
  2  3  1  0  0  0  0
  2  4  1  0  0  0  0
  2  5  1  0  0  0  0
  5  6  2  0  0  0  0
  5  7  1  0  0  0  0
  7  8  1  0  0  0  0
  7  9  1  0  0  0  0
  9 10  1  0  0  0  0
  9 11  1  0  0  0  0
  9 26  1  0  0  0  0
 11 12  1  0  0  0  0
 11 13  1  0  0  0  0
 11 14  1  0  0  0  0
 14 15  1  0  0  0  0
 14 16  1  0  0  0  0
 14 17  1  0  0  0  0
 17 18  1  0  0  0  0
 17 19  1  0  0  0  0
 17 20  1  0  0  0  0
 20 21  1  0  0  0  0
 20 22  1  0  0  0  0
 20 23  1  0  0  0  0
 23 24  1  0  0  0  0
 23 25  1  0  0  0  0
 26 27  2  0  0  0  0
 26 28  1  0  0  0  0
 28 29  1  0  0  0  0
 28 30  1  0  0  0  0
 30 31  1  0  0  0  0
 30 32  1  0  0  0  0
 30 33  1  0  0  0  0
M  END
$$$$

  -OEChem-03222214063D

 33 32  0     1  0  0  0  0  0999 V2000
   -3.7117   -4.0138    1.6780 H   0  0  0  0  0  0  0  0  0  0  0  0
   -3.7203   -3.0255    1.2104 C   0  0  0  0  0  0  0  0  0  0  0  0
   -4.3916   -2.3748    1.7758 H   0  0  0  0  0  0  0  0  0  0  0  0
   -4.0928   -3.1225    0.1878 H   0  0  0  0  0  0  0  0  0  0  0  0
   -2.3207   -2.4404    1.1977 C   0  0  0  0  0  0  0  0  0  0  0  0
   -1.3854   -3.0850    1.6468 O   0  0  0  0  0  0  0  0  0  0  0  0
   -2.1135   -1.1772    0.6843 N   0  0  0  0  0  0  0  0  0  0  0  0
   -2.9339   -0.6416    0.4045 H   0  0  0  0  0  0  0  0  0  0  0  0
   -0.8305   -0.4615    0.7173 C   0  0  1  0  0  0  0  0  0  0  0  0
   -0.1757   -0.9204    1.4653 H   0  0  0  0  0  0  0  0  0  0  0  0
   -0.1633   -0.5322   -0.6742 C   0  0  0  0  0  0  0  0  0  0  0  0
   -0.8107   -1.0898   -1.3596 H   0  0  0  0  0  0  0  0  0  0  0  0
   -0.0401    0.4709   -1.0973 H   0  0  0  0  0  0  0  0  0  0  0  0
    1.2050   -1.2234   -0.6025 C   0  0  0  0  0  0  0  0  0  0  0  0
    1.9307   -0.5579   -0.1235 H   0  0  0  0  0  0  0  0  0  0  0  0
    1.1235   -2.1316    0.0055 H   0  0  0  0  0  0  0  0  0  0  0  0
    1.6877   -1.6172   -2.0029 C   0  0  0  0  0  0  0  0  0  0  0  0
    0.9604   -2.2903   -2.4683 H   0  0  0  0  0  0  0  0  0  0  0  0
    1.7690   -0.7218   -2.6282 H   0  0  0  0  0  0  0  0  0  0  0  0
    3.0452   -2.3104   -1.9342 C   0  0  0  0  0  0  0  0  0  0  0  0
    3.7841   -1.6458   -1.4727 H   0  0  0  0  0  0  0  0  0  0  0  0
    2.9725   -3.2167   -1.3226 H   0  0  0  0  0  0  0  0  0  0  0  0
    3.4636   -2.6526   -3.2968 N   0  0  0  0  0  0  0  0  0  0  0  0
    4.3665   -3.1271   -3.2977 H   0  0  0  0  0  0  0  0  0  0  0  0
    2.7554   -3.2176   -3.7655 H   0  0  0  0  0  0  0  0  0  0  0  0
   -1.0387    1.0021    1.1533 C   0  0  0  0  0  0  0  0  0  0  0  0
   -1.9902    1.6398    0.7166 O   0  0  0  0  0  0  0  0  0  0  0  0
   -0.2000    1.5828    2.0865 N   0  0  0  0  0  0  0  0  0  0  0  0
    0.5520    1.0136    2.4642 H   0  0  0  0  0  0  0  0  0  0  0  0
   -0.3658    2.9474    2.5713 C   0  0  0  0  0  0  0  0  0  0  0  0
   -1.3459    3.0701    3.0441 H   0  0  0  0  0  0  0  0  0  0  0  0
    0.4062    3.1833    3.3102 H   0  0  0  0  0  0  0  0  0  0  0  0
   -0.2820    3.6598    1.7439 H   0  0  0  0  0  0  0  0  0  0  0  0
  1  2  1  0  0  0  0
  2  3  1  0  0  0  0
  2  4  1  0  0  0  0
  2  5  1  0  0  0  0
  5  6  2  0  0  0  0
  5  7  1  0  0  0  0
  7  8  1  0  0  0  0
  7  9  1  0  0  0  0
  9 10  1  0  0  0  0
  9 11  1  0  0  0  0
  9 26  1  0  0  0  0
 11 12  1  0  0  0  0
 11 13  1  0  0  0  0
 11 14  1  0  0  0  0
 14 15  1  0  0  0  0
 14 16  1  0  0  0  0
 14 17  1  0  0  0  0
 17 18  1  0  0  0  0
 17 19  1  0  0  0  0
 17 20  1  0  0  0  0
 20 21  1  0  0  0  0
 20 22  1  0  0  0  0
 20 23  1  0  0  0  0
 23 24  1  0  0  0  0
 23 25  1  0  0  0  0
 26 27  2  0  0  0  0
 26 28  1  0  0  0  0
 28 29  1  0  0  0  0
 28 30  1  0  0  0  0
 30 31  1  0  0  0  0
 30 32  1  0  0  0  0
 30 33  1  0  0  0  0
M  END
$$$$

  -OEChem-03222214063D

 33 32  0     1  0  0  0  0  0999 V2000
   -3.7061   -4.0104    1.6748 H   0  0  0  0  0  0  0  0  0  0  0  0
   -3.7116   -3.0219    1.2074 C   0  0  0  0  0  0  0  0  0  0  0  0
   -4.3843   -2.3701    1.7700 H   0  0  0  0  0  0  0  0  0  0  0  0
   -4.0805   -3.1182    0.1835 H   0  0  0  0  0  0  0  0  0  0  0  0
   -2.3109   -2.4393    1.2003 C   0  0  0  0  0  0  0  0  0  0  0  0
   -1.3789   -3.0854    1.6541 O   0  0  0  0  0  0  0  0  0  0  0  0
   -2.0975   -1.1779    0.6853 N   0  0  0  0  0  0  0  0  0  0  0  0
   -2.9151   -0.6389    0.4036 H   0  0  0  0  0  0  0  0  0  0  0  0
   -0.8130   -0.4654    0.7243 C   0  0  1  0  0  0  0  0  0  0  0  0
   -0.1509   -0.9188    1.4695 H   0  0  0  0  0  0  0  0  0  0  0  0
   -0.1548   -0.5283   -0.6693 C   0  0  0  0  0  0  0  0  0  0  0  0
   -0.8968   -0.8011   -1.4275 H   0  0  0  0  0  0  0  0  0  0  0  0
    0.2362    0.4586   -0.9408 H   0  0  0  0  0  0  0  0  0  0  0  0
    1.0052   -1.5307   -0.6835 C   0  0  0  0  0  0  0  0  0  0  0  0
    1.7558   -1.2383    0.0583 H   0  0  0  0  0  0  0  0  0  0  0  0
    0.6300   -2.5239   -0.4124 H   0  0  0  0  0  0  0  0  0  0  0  0
    1.6530   -1.5868   -2.0704 C   0  0  0  0  0  0  0  0  0  0  0  0
    0.9029   -1.8688   -2.8161 H   0  0  0  0  0  0  0  0  0  0  0  0
    2.0389   -0.5973   -2.3365 H   0  0  0  0  0  0  0  0  0  0  0  0
    2.7956   -2.5973   -2.0932 C   0  0  0  0  0  0  0  0  0  0  0  0
    3.5555   -2.3229   -1.3529 H   0  0  0  0  0  0  0  0  0  0  0  0
    2.4192   -3.5949   -1.8405 H   0  0  0  0  0  0  0  0  0  0  0  0
    3.3853   -2.6034   -3.4353 N   0  0  0  0  0  0  0  0  0  0  0  0
    4.1528   -3.2723   -3.4979 H   0  0  0  0  0  0  0  0  0  0  0  0
    2.6777   -2.7950   -4.1445 H   0  0  0  0  0  0  0  0  0  0  0  0
   -1.0353    0.9974    1.1570 C   0  0  0  0  0  0  0  0  0  0  0  0
   -1.9859    1.6294    0.7097 O   0  0  0  0  0  0  0  0  0  0  0  0
   -0.2085    1.5846    2.0967 N   0  0  0  0  0  0  0  0  0  0  0  0
    0.5491    1.0233    2.4751 H   0  0  0  0  0  0  0  0  0  0  0  0
   -0.3836    2.9501    2.5752 C   0  0  0  0  0  0  0  0  0  0  0  0
   -1.3700    3.0723    3.0349 H   0  0  0  0  0  0  0  0  0  0  0  0
    0.3782    3.1894    3.3234 H   0  0  0  0  0  0  0  0  0  0  0  0
   -0.2902    3.6601    1.7467 H   0  0  0  0  0  0  0  0  0  0  0  0
  1  2  1  0  0  0  0
  2  3  1  0  0  0  0
  2  4  1  0  0  0  0
  2  5  1  0  0  0  0
  5  6  2  0  0  0  0
  5  7  1  0  0  0  0
  7  8  1  0  0  0  0
  7  9  1  0  0  0  0
  9 10  1  0  0  0  0
  9 11  1  0  0  0  0
  9 26  1  0  0  0  0
 11 12  1  0  0  0  0
 11 13  1  0  0  0  0
 11 14  1  0  0  0  0
 14 15  1  0  0  0  0
 14 16  1  0  0  0  0
 14 17  1  0  0  0  0
 17 18  1  0  0  0  0
 17 19  1  0  0  0  0
 17 20  1  0  0  0  0
 20 21  1  0  0  0  0
 20 22  1  0  0  0  0
 20 23  1  0  0  0  0
 23 24  1  0  0  0  0
 23 25  1  0  0  0  0
 26 27  2  0  0  0  0
 26 28  1  0  0  0  0
 28 29  1  0  0  0  0
 28 30  1  0  0  0  0
 30 31  1  0  0  0  0
 30 32  1  0  0  0  0
 30 33  1  0  0  0  0
M  END
$$$$

  -OEChem-03222214063D

 33 32  0     1  0  0  0  0  0999 V2000
   -3.7042   -4.0076    1.6792 H   0  0  0  0  0  0  0  0  0  0  0  0
   -3.7107   -3.0191    1.2115 C   0  0  0  0  0  0  0  0  0  0  0  0
   -4.3777   -2.3654    1.7788 H   0  0  0  0  0  0  0  0  0  0  0  0
   -4.0873   -3.1146    0.1902 H   0  0  0  0  0  0  0  0  0  0  0  0
   -2.3087   -2.4396    1.1939 C   0  0  0  0  0  0  0  0  0  0  0  0
   -1.3741   -3.0890    1.6373 O   0  0  0  0  0  0  0  0  0  0  0  0
   -2.0975   -1.1770    0.6810 N   0  0  0  0  0  0  0  0  0  0  0  0
   -2.9169   -0.6353    0.4098 H   0  0  0  0  0  0  0  0  0  0  0  0
   -0.8141   -0.4633    0.7237 C   0  0  1  0  0  0  0  0  0  0  0  0
   -0.1561   -0.9160    1.4726 H   0  0  0  0  0  0  0  0  0  0  0  0
   -0.1549   -0.5279   -0.6701 C   0  0  0  0  0  0  0  0  0  0  0  0
   -0.8910   -0.7894   -1.4378 H   0  0  0  0  0  0  0  0  0  0  0  0
    0.2365    0.4628   -0.9262 H   0  0  0  0  0  0  0  0  0  0  0  0
    1.0085   -1.5288   -0.6929 C   0  0  0  0  0  0  0  0  0  0  0  0
    1.6362   -1.3923    0.1939 H   0  0  0  0  0  0  0  0  0  0  0  0
    0.6098   -2.5488   -0.6690 H   0  0  0  0  0  0  0  0  0  0  0  0
    1.8771   -1.3238   -1.9384 C   0  0  0  0  0  0  0  0  0  0  0  0
    1.2605   -1.4270   -2.8371 H   0  0  0  0  0  0  0  0  0  0  0  0
    2.3000   -0.3137   -1.9319 H   0  0  0  0  0  0  0  0  0  0  0  0
    3.0108   -2.3439   -1.9810 C   0  0  0  0  0  0  0  0  0  0  0  0
    3.6350   -2.2510   -1.0853 H   0  0  0  0  0  0  0  0  0  0  0  0
    2.6007   -3.3598   -2.0057 H   0  0  0  0  0  0  0  0  0  0  0  0
    3.8169   -2.0936   -3.1796 N   0  0  0  0  0  0  0  0  0  0  0  0
    4.5873   -2.7583   -3.2517 H   0  0  0  0  0  0  0  0  0  0  0  0
    3.2391   -2.1142   -4.0199 H   0  0  0  0  0  0  0  0  0  0  0  0
   -1.0398    0.9987    1.1584 C   0  0  0  0  0  0  0  0  0  0  0  0
   -1.9925    1.6287    0.7128 O   0  0  0  0  0  0  0  0  0  0  0  0
   -0.2157    1.5853    2.1009 N   0  0  0  0  0  0  0  0  0  0  0  0
    0.5462    1.0265    2.4747 H   0  0  0  0  0  0  0  0  0  0  0  0
   -0.3916    2.9508    2.5790 C   0  0  0  0  0  0  0  0  0  0  0  0
   -1.3786    3.0729    3.0375 H   0  0  0  0  0  0  0  0  0  0  0  0
    0.3691    3.1901    3.3282 H   0  0  0  0  0  0  0  0  0  0  0  0
   -0.2970    3.6606    1.7507 H   0  0  0  0  0  0  0  0  0  0  0  0
  1  2  1  0  0  0  0
  2  3  1  0  0  0  0
  2  4  1  0  0  0  0
  2  5  1  0  0  0  0
  5  6  2  0  0  0  0
  5  7  1  0  0  0  0
  7  8  1  0  0  0  0
  7  9  1  0  0  0  0
  9 10  1  0  0  0  0
  9 11  1  0  0  0  0
  9 26  1  0  0  0  0
 11 12  1  0  0  0  0
 11 13  1  0  0  0  0
 11 14  1  0  0  0  0
 14 15  1  0  0  0  0
 14 16  1  0  0  0  0
 14 17  1  0  0  0  0
 17 18  1  0  0  0  0
 17 19  1  0  0  0  0
 17 20  1  0  0  0  0
 20 21  1  0  0  0  0
 20 22  1  0  0  0  0
 20 23  1  0  0  0  0
 23 24  1  0  0  0  0
 23 25  1  0  0  0  0
 26 27  2  0  0  0  0
 26 28  1  0  0  0  0
 28 29  1  0  0  0  0
 28 30  1  0  0  0  0
 30 31  1  0  0  0  0
 30 32  1  0  0  0  0
 30 33  1  0  0  0  0
M  END
$$$$

  -OEChem-03222214063D

 33 32  0     1  0  0  0  0  0999 V2000
   -3.7131   -4.0014    1.6847 H   0  0  0  0  0  0  0  0  0  0  0  0
   -3.7171   -3.0135    1.2157 C   0  0  0  0  0  0  0  0  0  0  0  0
   -4.3812   -2.3573    1.7833 H   0  0  0  0  0  0  0  0  0  0  0  0
   -4.0953   -3.1090    0.1951 H   0  0  0  0  0  0  0  0  0  0  0  0
   -2.3131   -2.4390    1.1957 C   0  0  0  0  0  0  0  0  0  0  0  0
   -1.3802   -3.0912    1.6387 O   0  0  0  0  0  0  0  0  0  0  0  0
   -2.0979   -1.1775    0.6820 N   0  0  0  0  0  0  0  0  0  0  0  0
   -2.9159   -0.6335    0.4112 H   0  0  0  0  0  0  0  0  0  0  0  0
   -0.8139   -0.4652    0.7311 C   0  0  1  0  0  0  0  0  0  0  0  0
   -0.1633   -0.9154    1.4873 H   0  0  0  0  0  0  0  0  0  0  0  0
   -0.1503   -0.5311   -0.6620 C   0  0  0  0  0  0  0  0  0  0  0  0
   -0.8845   -0.7823   -1.4348 H   0  0  0  0  0  0  0  0  0  0  0  0
    0.2373    0.4638   -0.9072 H   0  0  0  0  0  0  0  0  0  0  0  0
    1.0179   -1.5316   -0.7029 C   0  0  0  0  0  0  0  0  0  0  0  0
    1.5021   -1.5931    0.2770 H   0  0  0  0  0  0  0  0  0  0  0  0
    0.6318   -2.5277   -0.9445 H   0  0  0  0  0  0  0  0  0  0  0  0
    2.0772   -1.0998   -1.7234 C   0  0  0  0  0  0  0  0  0  0  0  0
    1.6154   -0.9993   -2.7109 H   0  0  0  0  0  0  0  0  0  0  0  0
    2.4877   -0.1249   -1.4400 H   0  0  0  0  0  0  0  0  0  0  0  0
    3.2089   -2.1206   -1.7934 C   0  0  0  0  0  0  0  0  0  0  0  0
    3.6762   -2.2328   -0.8088 H   0  0  0  0  0  0  0  0  0  0  0  0
    2.8149   -3.0971   -2.0962 H   0  0  0  0  0  0  0  0  0  0  0  0
    4.2002   -1.6515   -2.7659 N   0  0  0  0  0  0  0  0  0  0  0  0
    4.9761   -2.3085   -2.8479 H   0  0  0  0  0  0  0  0  0  0  0  0
    3.7695   -1.4829   -3.6749 H   0  0  0  0  0  0  0  0  0  0  0  0
   -1.0425    0.9978    1.1623 C   0  0  0  0  0  0  0  0  0  0  0  0
   -1.9936    1.6259    0.7104 O   0  0  0  0  0  0  0  0  0  0  0  0
   -0.2253    1.5874    2.1089 N   0  0  0  0  0  0  0  0  0  0  0  0
    0.5392    1.0328    2.4834 H   0  0  0  0  0  0  0  0  0  0  0  0
   -0.4032    2.9553    2.5798 C   0  0  0  0  0  0  0  0  0  0  0  0
   -1.3927    3.0804    3.0319 H   0  0  0  0  0  0  0  0  0  0  0  0
    0.3533    3.1974    3.3325 H   0  0  0  0  0  0  0  0  0  0  0  0
   -0.3033    3.6617    1.7490 H   0  0  0  0  0  0  0  0  0  0  0  0
  1  2  1  0  0  0  0
  2  3  1  0  0  0  0
  2  4  1  0  0  0  0
  2  5  1  0  0  0  0
  5  6  2  0  0  0  0
  5  7  1  0  0  0  0
  7  8  1  0  0  0  0
  7  9  1  0  0  0  0
  9 10  1  0  0  0  0
  9 11  1  0  0  0  0
  9 26  1  0  0  0  0
 11 12  1  0  0  0  0
 11 13  1  0  0  0  0
 11 14  1  0  0  0  0
 14 15  1  0  0  0  0
 14 16  1  0  0  0  0
 14 17  1  0  0  0  0
 17 18  1  0  0  0  0
 17 19  1  0  0  0  0
 17 20  1  0  0  0  0
 20 21  1  0  0  0  0
 20 22  1  0  0  0  0
 20 23  1  0  0  0  0
 23 24  1  0  0  0  0
 23 25  1  0  0  0  0
 26 27  2  0  0  0  0
 26 28  1  0  0  0  0
 28 29  1  0  0  0  0
 28 30  1  0  0  0  0
 30 31  1  0  0  0  0
 30 32  1  0  0  0  0
 30 33  1  0  0  0  0
M  END
$$$$

  -OEChem-03222214063D

 33 32  0     1  0  0  0  0  0999 V2000
   -3.7172   -4.0011    1.6863 H   0  0  0  0  0  0  0  0  0  0  0  0
   -3.7198   -3.0136    1.2165 C   0  0  0  0  0  0  0  0  0  0  0  0
   -4.3864   -2.3568    1.7808 H   0  0  0  0  0  0  0  0  0  0  0  0
   -4.0946   -3.1103    0.1947 H   0  0  0  0  0  0  0  0  0  0  0  0
   -2.3162   -2.4379    1.2010 C   0  0  0  0  0  0  0  0  0  0  0  0
   -1.3840   -3.0900    1.6453 O   0  0  0  0  0  0  0  0  0  0  0  0
   -2.1000   -1.1768    0.6868 N   0  0  0  0  0  0  0  0  0  0  0  0
   -2.9173   -0.6319    0.4159 H   0  0  0  0  0  0  0  0  0  0  0  0
   -0.8154   -0.4659    0.7367 C   0  0  1  0  0  0  0  0  0  0  0  0
   -0.1658   -0.9125    1.4953 H   0  0  0  0  0  0  0  0  0  0  0  0
   -0.1523   -0.5286   -0.6579 C   0  0  0  0  0  0  0  0  0  0  0  0
   -0.8914   -0.7814   -1.4254 H   0  0  0  0  0  0  0  0  0  0  0  0
    0.2243    0.4698   -0.9078 H   0  0  0  0  0  0  0  0  0  0  0  0
    1.0195   -1.5289   -0.7178 C   0  0  0  0  0  0  0  0  0  0  0  0
    1.3352   -1.8220    0.2883 H   0  0  0  0  0  0  0  0  0  0  0  0
    0.6854   -2.4372   -1.2301 H   0  0  0  0  0  0  0  0  0  0  0  0
    2.2298   -0.9281   -1.4428 C   0  0  0  0  0  0  0  0  0  0  0  0
    1.9390   -0.6262   -2.4544 H   0  0  0  0  0  0  0  0  0  0  0  0
    2.5751   -0.0369   -0.9084 H   0  0  0  0  0  0  0  0  0  0  0  0
    3.3703   -1.9386   -1.5228 C   0  0  0  0  0  0  0  0  0  0  0  0
    3.6682   -2.2503   -0.5154 H   0  0  0  0  0  0  0  0  0  0  0  0
    3.0451   -2.8292   -2.0720 H   0  0  0  0  0  0  0  0  0  0  0  0
    4.5041   -1.3079   -2.2057 N   0  0  0  0  0  0  0  0  0  0  0  0
    5.2940   -1.9493   -2.2787 H   0  0  0  0  0  0  0  0  0  0  0  0
    4.2306   -0.9619   -3.1255 H   0  0  0  0  0  0  0  0  0  0  0  0
   -1.0446    0.9969    1.1674 C   0  0  0  0  0  0  0  0  0  0  0  0
   -1.9949    1.6254    0.7143 O   0  0  0  0  0  0  0  0  0  0  0  0
   -0.2282    1.5863    2.1148 N   0  0  0  0  0  0  0  0  0  0  0  0
    0.5391    1.0333    2.4864 H   0  0  0  0  0  0  0  0  0  0  0  0
   -0.4019    2.9566    2.5798 C   0  0  0  0  0  0  0  0  0  0  0  0
   -1.3939    3.0878    3.0250 H   0  0  0  0  0  0  0  0  0  0  0  0
    0.3509    3.1974    3.3365 H   0  0  0  0  0  0  0  0  0  0  0  0
   -0.2929    3.6594    1.7469 H   0  0  0  0  0  0  0  0  0  0  0  0
  1  2  1  0  0  0  0
  2  3  1  0  0  0  0
  2  4  1  0  0  0  0
  2  5  1  0  0  0  0
  5  6  2  0  0  0  0
  5  7  1  0  0  0  0
  7  8  1  0  0  0  0
  7  9  1  0  0  0  0
  9 10  1  0  0  0  0
  9 11  1  0  0  0  0
  9 26  1  0  0  0  0
 11 12  1  0  0  0  0
 11 13  1  0  0  0  0
 11 14  1  0  0  0  0
 14 15  1  0  0  0  0
 14 16  1  0  0  0  0
 14 17  1  0  0  0  0
 17 18  1  0  0  0  0
 17 19  1  0  0  0  0
 17 20  1  0  0  0  0
 20 21  1  0  0  0  0
 20 22  1  0  0  0  0
 20 23  1  0  0  0  0
 23 24  1  0  0  0  0
 23 25  1  0  0  0  0
 26 27  2  0  0  0  0
 26 28  1  0  0  0  0
 28 29  1  0  0  0  0
 28 30  1  0  0  0  0
 30 31  1  0  0  0  0
 30 32  1  0  0  0  0
 30 33  1  0  0  0  0
M  END
$$$$

  -OEChem-03222214063D

 33 32  0     1  0  0  0  0  0999 V2000
   -3.7056   -4.0057    1.6959 H   0  0  0  0  0  0  0  0  0  0  0  0
   -3.7134   -3.0187    1.2253 C   0  0  0  0  0  0  0  0  0  0  0  0
   -4.3767   -2.3627    1.7942 H   0  0  0  0  0  0  0  0  0  0  0  0
   -4.0949   -3.1168    0.2062 H   0  0  0  0  0  0  0  0  0  0  0  0
   -2.3110   -2.4409    1.1987 C   0  0  0  0  0  0  0  0  0  0  0  0
   -1.3741   -3.0933    1.6326 O   0  0  0  0  0  0  0  0  0  0  0  0
   -2.1020   -1.1775    0.6872 N   0  0  0  0  0  0  0  0  0  0  0  0
   -2.9231   -0.6330    0.4269 H   0  0  0  0  0  0  0  0  0  0  0  0
   -0.8177   -0.4648    0.7268 C   0  0  1  0  0  0  0  0  0  0  0  0
   -0.1585   -0.9115    1.4775 H   0  0  0  0  0  0  0  0  0  0  0  0
   -0.1618   -0.5166   -0.6717 C   0  0  0  0  0  0  0  0  0  0  0  0
   -0.9096   -0.7872   -1.4247 H   0  0  0  0  0  0  0  0  0  0  0  0
    0.1970    0.4828   -0.9417 H   0  0  0  0  0  0  0  0  0  0  0  0
    1.0121   -1.5148   -0.7392 C   0  0  0  0  0  0  0  0  0  0  0  0
    1.1409   -2.0413    0.2118 H   0  0  0  0  0  0  0  0  0  0  0  0
    0.7817   -2.2746   -1.4934 H   0  0  0  0  0  0  0  0  0  0  0  0
    2.3228   -0.8138   -1.1156 C   0  0  0  0  0  0  0  0  0  0  0  0
    2.2125   -0.3211   -2.0872 H   0  0  0  0  0  0  0  0  0  0  0  0
    2.5546   -0.0462   -0.3697 H   0  0  0  0  0  0  0  0  0  0  0  0
    3.4728   -1.8143   -1.1799 C   0  0  0  0  0  0  0  0  0  0  0  0
    3.5903   -2.3142   -0.2119 H   0  0  0  0  0  0  0  0  0  0  0  0
    3.2628   -2.5801   -1.9348 H   0  0  0  0  0  0  0  0  0  0  0  0
    4.7011   -1.0902   -1.5205 N   0  0  0  0  0  0  0  0  0  0  0  0
    5.5016   -1.7211   -1.5612 H   0  0  0  0  0  0  0  0  0  0  0  0
    4.5945   -0.5816   -2.3982 H   0  0  0  0  0  0  0  0  0  0  0  0
   -1.0434    0.9962    1.1656 C   0  0  0  0  0  0  0  0  0  0  0  0
   -1.9981    1.6260    0.7235 O   0  0  0  0  0  0  0  0  0  0  0  0
   -0.2175    1.5825    2.1067 N   0  0  0  0  0  0  0  0  0  0  0  0
    0.5542    1.0284    2.4675 H   0  0  0  0  0  0  0  0  0  0  0  0
   -0.3875    2.9503    2.5811 C   0  0  0  0  0  0  0  0  0  0  0  0
   -1.3770    3.0800    3.0319 H   0  0  0  0  0  0  0  0  0  0  0  0
    0.3690    3.1859    3.3358 H   0  0  0  0  0  0  0  0  0  0  0  0
   -0.2818    3.6581    1.7523 H   0  0  0  0  0  0  0  0  0  0  0  0
  1  2  1  0  0  0  0
  2  3  1  0  0  0  0
  2  4  1  0  0  0  0
  2  5  1  0  0  0  0
  5  6  2  0  0  0  0
  5  7  1  0  0  0  0
  7  8  1  0  0  0  0
  7  9  1  0  0  0  0
  9 10  1  0  0  0  0
  9 11  1  0  0  0  0
  9 26  1  0  0  0  0
 11 12  1  0  0  0  0
 11 13  1  0  0  0  0
 11 14  1  0  0  0  0
 14 15  1  0  0  0  0
 14 16  1  0  0  0  0
 14 17  1  0  0  0  0
 17 18  1  0  0  0  0
 17 19  1  0  0  0  0
 17 20  1  0  0  0  0
 20 21  1  0  0  0  0
 20 22  1  0  0  0  0
 20 23  1  0  0  0  0
 23 24  1  0  0  0  0
 23 25  1  0  0  0  0
 26 27  2  0  0  0  0
 26 28  1  0  0  0  0
 28 29  1  0  0  0  0
 28 30  1  0  0  0  0
 30 31  1  0  0  0  0
 30 32  1  0  0  0  0
 30 33  1  0  0  0  0
M  END
$$$$

  -OEChem-03222214063D

 33 32  0     1  0  0  0  0  0999 V2000
   -3.6814   -4.0182    1.6985 H   0  0  0  0  0  0  0  0  0  0  0  0
   -3.6968   -3.0314    1.2275 C   0  0  0  0  0  0  0  0  0  0  0  0
   -4.3600   -2.3784    1.8000 H   0  0  0  0  0  0  0  0  0  0  0  0
   -4.0837   -3.1321    0.2106 H   0  0  0  0  0  0  0  0  0  0  0  0
   -2.2974   -2.4469    1.1924 C   0  0  0  0  0  0  0  0  0  0  0  0
   -1.3540   -3.0979    1.6139 O   0  0  0  0  0  0  0  0  0  0  0  0
   -2.0985   -1.1794    0.6866 N   0  0  0  0  0  0  0  0  0  0  0  0
   -2.9242   -0.6368    0.4374 H   0  0  0  0  0  0  0  0  0  0  0  0
   -0.8162   -0.4621    0.7135 C   0  0  1  0  0  0  0  0  0  0  0  0
   -0.1436   -0.9135    1.4500 H   0  0  0  0  0  0  0  0  0  0  0  0
   -0.1727   -0.5011   -0.6900 C   0  0  0  0  0  0  0  0  0  0  0  0
   -0.9285   -0.7919   -1.4271 H   0  0  0  0  0  0  0  0  0  0  0  0
    0.1721    0.4980   -0.9794 H   0  0  0  0  0  0  0  0  0  0  0  0
    1.0010   -1.4953   -0.7572 C   0  0  0  0  0  0  0  0  0  0  0  0
    0.9562   -2.2142    0.0681 H   0  0  0  0  0  0  0  0  0  0  0  0
    0.9160   -2.0703   -1.6852 H   0  0  0  0  0  0  0  0  0  0  0  0
    2.3489   -0.7647   -0.7612 C   0  0  0  0  0  0  0  0  0  0  0  0
    2.4107   -0.1043   -1.6324 H   0  0  0  0  0  0  0  0  0  0  0  0
    2.4316   -0.1472    0.1393 H   0  0  0  0  0  0  0  0  0  0  0  0
    3.5042   -1.7606   -0.7932 C   0  0  0  0  0  0  0  0  0  0  0  0
    3.4532   -2.4222    0.0789 H   0  0  0  0  0  0  0  0  0  0  0  0
    3.4421   -2.3809   -1.6944 H   0  0  0  0  0  0  0  0  0  0  0  0
    4.7647   -1.0119   -0.7798 N   0  0  0  0  0  0  0  0  0  0  0  0
    5.5673   -1.6417   -0.7787 H   0  0  0  0  0  0  0  0  0  0  0  0
    4.8132   -0.3635   -1.5656 H   0  0  0  0  0  0  0  0  0  0  0  0
   -1.0376    0.9954    1.1644 C   0  0  0  0  0  0  0  0  0  0  0  0
   -1.9980    1.6271    0.7376 O   0  0  0  0  0  0  0  0  0  0  0  0
   -0.1992    1.5770    2.0974 N   0  0  0  0  0  0  0  0  0  0  0  0
    0.5801    1.0225    2.4415 H   0  0  0  0  0  0  0  0  0  0  0  0
   -0.3633    2.9422    2.5811 C   0  0  0  0  0  0  0  0  0  0  0  0
   -1.3494    3.0712    3.0395 H   0  0  0  0  0  0  0  0  0  0  0  0
    0.3986    3.1718    3.3321 H   0  0  0  0  0  0  0  0  0  0  0  0
   -0.2618    3.6546    1.7557 H   0  0  0  0  0  0  0  0  0  0  0  0
  1  2  1  0  0  0  0
  2  3  1  0  0  0  0
  2  4  1  0  0  0  0
  2  5  1  0  0  0  0
  5  6  2  0  0  0  0
  5  7  1  0  0  0  0
  7  8  1  0  0  0  0
  7  9  1  0  0  0  0
  9 10  1  0  0  0  0
  9 11  1  0  0  0  0
  9 26  1  0  0  0  0
 11 12  1  0  0  0  0
 11 13  1  0  0  0  0
 11 14  1  0  0  0  0
 14 15  1  0  0  0  0
 14 16  1  0  0  0  0
 14 17  1  0  0  0  0
 17 18  1  0  0  0  0
 17 19  1  0  0  0  0
 17 20  1  0  0  0  0
 20 21  1  0  0  0  0
 20 22  1  0  0  0  0
 20 23  1  0  0  0  0
 23 24  1  0  0  0  0
 23 25  1  0  0  0  0
 26 27  2  0  0  0  0
 26 28  1  0  0  0  0
 28 29  1  0  0  0  0
 28 30  1  0  0  0  0
 30 31  1  0  0  0  0
 30 32  1  0  0  0  0
 30 33  1  0  0  0  0
M  END
$$$$

  -OEChem-03222214063D

 33 32  0     1  0  0  0  0  0999 V2000
   -3.6578   -4.0287    1.6937 H   0  0  0  0  0  0  0  0  0  0  0  0
   -3.6794   -3.0369    1.2336 C   0  0  0  0  0  0  0  0  0  0  0  0
   -4.3328   -2.3893    1.8232 H   0  0  0  0  0  0  0  0  0  0  0  0
   -4.0827   -3.1255    0.2221 H   0  0  0  0  0  0  0  0  0  0  0  0
   -2.2803   -2.4532    1.1822 C   0  0  0  0  0  0  0  0  0  0  0  0
   -1.3312   -3.1075    1.5851 O   0  0  0  0  0  0  0  0  0  0  0  0
   -2.0901   -1.1827    0.6809 N   0  0  0  0  0  0  0  0  0  0  0  0
   -2.9209   -0.6410    0.4473 H   0  0  0  0  0  0  0  0  0  0  0  0
   -0.8114   -0.4586    0.6960 C   0  0  1  0  0  0  0  0  0  0  0  0
   -0.1302   -0.9146    1.4222 H   0  0  0  0  0  0  0  0  0  0  0  0
   -0.1779   -0.4944   -0.7109 C   0  0  0  0  0  0  0  0  0  0  0  0
   -0.9354   -0.7960   -1.4420 H   0  0  0  0  0  0  0  0  0  0  0  0
    0.1646    0.5029   -1.0082 H   0  0  0  0  0  0  0  0  0  0  0  0
    0.9970   -1.4820   -0.7713 C   0  0  0  0  0  0  0  0  0  0  0  0
    0.8145   -2.3367   -0.1103 H   0  0  0  0  0  0  0  0  0  0  0  0
    1.0774   -1.8712   -1.7915 H   0  0  0  0  0  0  0  0  0  0  0  0
    2.3154   -0.7869   -0.4100 C   0  0  0  0  0  0  0  0  0  0  0  0
    2.5232    0.0103   -1.1312 H   0  0  0  0  0  0  0  0  0  0  0  0
    2.2316   -0.3316    0.5822 H   0  0  0  0  0  0  0  0  0  0  0  0
    3.4694   -1.7837   -0.4056 C   0  0  0  0  0  0  0  0  0  0  0  0
    3.2698   -2.5849    0.3149 H   0  0  0  0  0  0  0  0  0  0  0  0
    3.5795   -2.2371   -1.3969 H   0  0  0  0  0  0  0  0  0  0  0  0
    4.6957   -1.0710   -0.0351 N   0  0  0  0  0  0  0  0  0  0  0  0
    5.4909   -1.7081    0.0150 H   0  0  0  0  0  0  0  0  0  0  0  0
    4.8840   -0.3058   -0.6826 H   0  0  0  0  0  0  0  0  0  0  0  0
   -1.0274    0.9965    1.1548 C   0  0  0  0  0  0  0  0  0  0  0  0
   -1.9971    1.6274    0.7483 O   0  0  0  0  0  0  0  0  0  0  0  0
   -0.1762    1.5735    2.0788 N   0  0  0  0  0  0  0  0  0  0  0  0
    0.6084    1.0175    2.4085 H   0  0  0  0  0  0  0  0  0  0  0  0
   -0.3448    2.9291    2.5871 C   0  0  0  0  0  0  0  0  0  0  0  0
   -1.3210    3.0383    3.0714 H   0  0  0  0  0  0  0  0  0  0  0  0
    0.4326    3.1567    3.3228 H   0  0  0  0  0  0  0  0  0  0  0  0
   -0.2726    3.6556    1.7710 H   0  0  0  0  0  0  0  0  0  0  0  0
  1  2  1  0  0  0  0
  2  3  1  0  0  0  0
  2  4  1  0  0  0  0
  2  5  1  0  0  0  0
  5  6  2  0  0  0  0
  5  7  1  0  0  0  0
  7  8  1  0  0  0  0
  7  9  1  0  0  0  0
  9 10  1  0  0  0  0
  9 11  1  0  0  0  0
  9 26  1  0  0  0  0
 11 12  1  0  0  0  0
 11 13  1  0  0  0  0
 11 14  1  0  0  0  0
 14 15  1  0  0  0  0
 14 16  1  0  0  0  0
 14 17  1  0  0  0  0
 17 18  1  0  0  0  0
 17 19  1  0  0  0  0
 17 20  1  0  0  0  0
 20 21  1  0  0  0  0
 20 22  1  0  0  0  0
 20 23  1  0  0  0  0
 23 24  1  0  0  0  0
 23 25  1  0  0  0  0
 26 27  2  0  0  0  0
 26 28  1  0  0  0  0
 28 29  1  0  0  0  0
 28 30  1  0  0  0  0
 30 31  1  0  0  0  0
 30 32  1  0  0  0  0
 30 33  1  0  0  0  0
M  END
$$$$

  -OEChem-03222214063D

 33 32  0     1  0  0  0  0  0999 V2000
   -3.6569   -4.0310    1.6862 H   0  0  0  0  0  0  0  0  0  0  0  0
   -3.6789   -3.0400    1.2245 C   0  0  0  0  0  0  0  0  0  0  0  0
   -4.3353   -2.3930    1.8114 H   0  0  0  0  0  0  0  0  0  0  0  0
   -4.0788   -3.1319    0.2119 H   0  0  0  0  0  0  0  0  0  0  0  0
   -2.2809   -2.4528    1.1779 C   0  0  0  0  0  0  0  0  0  0  0  0
   -1.3328   -3.1054    1.5857 O   0  0  0  0  0  0  0  0  0  0  0  0
   -2.0916   -1.1819    0.6768 N   0  0  0  0  0  0  0  0  0  0  0  0
   -2.9232   -0.6445    0.4367 H   0  0  0  0  0  0  0  0  0  0  0  0
   -0.8171   -0.4503    0.7063 C   0  0  1  0  0  0  0  0  0  0  0  0
   -0.1517   -0.9083    1.4445 H   0  0  0  0  0  0  0  0  0  0  0  0
   -0.1656   -0.4939   -0.6933 C   0  0  0  0  0  0  0  0  0  0  0  0
   -0.9126   -0.7932   -1.4358 H   0  0  0  0  0  0  0  0  0  0  0  0
    0.1844    0.5032   -0.9821 H   0  0  0  0  0  0  0  0  0  0  0  0
    1.0174   -1.4705   -0.7489 C   0  0  0  0  0  0  0  0  0  0  0  0
    0.7294   -2.4241   -0.2928 H   0  0  0  0  0  0  0  0  0  0  0  0
    1.2634   -1.6669   -1.7976 H   0  0  0  0  0  0  0  0  0  0  0  0
    2.2580   -0.8984   -0.0462 C   0  0  0  0  0  0  0  0  0  0  0  0
    2.5643    0.0277   -0.5434 H   0  0  0  0  0  0  0  0  0  0  0  0
    2.0299   -0.6598    0.9966 H   0  0  0  0  0  0  0  0  0  0  0  0
    3.4080   -1.8990   -0.0801 C   0  0  0  0  0  0  0  0  0  0  0  0
    3.1172   -2.8207    0.4366 H   0  0  0  0  0  0  0  0  0  0  0  0
    3.6565   -2.1534   -1.1165 H   0  0  0  0  0  0  0  0  0  0  0  0
    4.5666   -1.2945    0.5851 N   0  0  0  0  0  0  0  0  0  0  0  0
    5.3465   -1.9504    0.6340 H   0  0  0  0  0  0  0  0  0  0  0  0
    4.8468   -0.4312    0.1200 H   0  0  0  0  0  0  0  0  0  0  0  0
   -1.0389    1.0055    1.1588 C   0  0  0  0  0  0  0  0  0  0  0  0
   -2.0026    1.6354    0.7371 O   0  0  0  0  0  0  0  0  0  0  0  0
   -0.1980    1.5851    2.0905 N   0  0  0  0  0  0  0  0  0  0  0  0
    0.5776    1.0265    2.4372 H   0  0  0  0  0  0  0  0  0  0  0  0
   -0.3706    2.9429    2.5905 C   0  0  0  0  0  0  0  0  0  0  0  0
   -1.3505    3.0536    3.0669 H   0  0  0  0  0  0  0  0  0  0  0  0
    0.4013    3.1739    3.3307 H   0  0  0  0  0  0  0  0  0  0  0  0
   -0.2921    3.6659    1.7716 H   0  0  0  0  0  0  0  0  0  0  0  0
  1  2  1  0  0  0  0
  2  3  1  0  0  0  0
  2  4  1  0  0  0  0
  2  5  1  0  0  0  0
  5  6  2  0  0  0  0
  5  7  1  0  0  0  0
  7  8  1  0  0  0  0
  7  9  1  0  0  0  0
  9 10  1  0  0  0  0
  9 11  1  0  0  0  0
  9 26  1  0  0  0  0
 11 12  1  0  0  0  0
 11 13  1  0  0  0  0
 11 14  1  0  0  0  0
 14 15  1  0  0  0  0
 14 16  1  0  0  0  0
 14 17  1  0  0  0  0
 17 18  1  0  0  0  0
 17 19  1  0  0  0  0
 17 20  1  0  0  0  0
 20 21  1  0  0  0  0
 20 22  1  0  0  0  0
 20 23  1  0  0  0  0
 23 24  1  0  0  0  0
 23 25  1  0  0  0  0
 26 27  2  0  0  0  0
 26 28  1  0  0  0  0
 28 29  1  0  0  0  0
 28 30  1  0  0  0  0
 30 31  1  0  0  0  0
 30 32  1  0  0  0  0
 30 33  1  0  0  0  0
M  END
$$$$

  -OEChem-03222214063D

 33 32  0     1  0  0  0  0  0999 V2000
   -3.7365   -3.9992    1.6509 H   0  0  0  0  0  0  0  0  0  0  0  0
   -3.7367   -3.0067    1.1917 C   0  0  0  0  0  0  0  0  0  0  0  0
   -4.4146   -2.3591    1.7530 H   0  0  0  0  0  0  0  0  0  0  0  0
   -4.0954   -3.0947    0.1634 H   0  0  0  0  0  0  0  0  0  0  0  0
   -2.3355   -2.4247    1.2039 C   0  0  0  0  0  0  0  0  0  0  0  0
   -1.4120   -3.0720    1.6719 O   0  0  0  0  0  0  0  0  0  0  0  0
   -2.1146   -1.1667    0.6832 N   0  0  0  0  0  0  0  0  0  0  0  0
   -2.9298   -0.6316    0.3881 H   0  0  0  0  0  0  0  0  0  0  0  0
   -0.8379   -0.4419    0.7542 C   0  0  1  0  0  0  0  0  0  0  0  0
   -0.2200   -0.8870    1.5360 H   0  0  0  0  0  0  0  0  0  0  0  0
   -0.1340   -0.5303   -0.6197 C   0  0  0  0  0  0  0  0  0  0  0  0
   -0.8594   -0.8179   -1.3883 H   0  0  0  0  0  0  0  0  0  0  0  0
    0.2405    0.4607   -0.8979 H   0  0  0  0  0  0  0  0  0  0  0  0
    1.0541   -1.5069   -0.6627 C   0  0  0  0  0  0  0  0  0  0  0  0
    0.6906   -2.5169   -0.4436 H   0  0  0  0  0  0  0  0  0  0  0  0
    1.4565   -1.5129   -1.6808 H   0  0  0  0  0  0  0  0  0  0  0  0
    2.1818   -1.1533    0.3232 C   0  0  0  0  0  0  0  0  0  0  0  0
    2.4936   -0.1168    0.1599 H   0  0  0  0  0  0  0  0  0  0  0  0
    1.8437   -1.2474    1.3577 H   0  0  0  0  0  0  0  0  0  0  0  0
    3.3770   -2.0804    0.1282 C   0  0  0  0  0  0  0  0  0  0  0  0
    3.0854   -3.1142    0.3456 H   0  0  0  0  0  0  0  0  0  0  0  0
    3.7269   -2.0360   -0.9091 H   0  0  0  0  0  0  0  0  0  0  0  0
    4.4464   -1.6579    1.0383 N   0  0  0  0  0  0  0  0  0  0  0  0
    5.2453   -2.2903    0.9865 H   0  0  0  0  0  0  0  0  0  0  0  0
    4.7306   -0.6971    0.8494 H   0  0  0  0  0  0  0  0  0  0  0  0
   -1.0673    1.0258    1.1627 C   0  0  0  0  0  0  0  0  0  0  0  0
   -2.0015    1.6552    0.6788 O   0  0  0  0  0  0  0  0  0  0  0  0
   -0.2643    1.6209    2.1180 N   0  0  0  0  0  0  0  0  0  0  0  0
    0.4801    1.0596    2.5236 H   0  0  0  0  0  0  0  0  0  0  0  0
   -0.4501    2.9906    2.5800 C   0  0  0  0  0  0  0  0  0  0  0  0
   -1.4447    3.1148    3.0209 H   0  0  0  0  0  0  0  0  0  0  0  0
    0.2976    3.2383    3.3394 H   0  0  0  0  0  0  0  0  0  0  0  0
   -0.3427    3.6931    1.7469 H   0  0  0  0  0  0  0  0  0  0  0  0
  1  2  1  0  0  0  0
  2  3  1  0  0  0  0
  2  4  1  0  0  0  0
  2  5  1  0  0  0  0
  5  6  2  0  0  0  0
  5  7  1  0  0  0  0
  7  8  1  0  0  0  0
  7  9  1  0  0  0  0
  9 10  1  0  0  0  0
  9 11  1  0  0  0  0
  9 26  1  0  0  0  0
 11 12  1  0  0  0  0
 11 13  1  0  0  0  0
 11 14  1  0  0  0  0
 14 15  1  0  0  0  0
 14 16  1  0  0  0  0
 14 17  1  0  0  0  0
 17 18  1  0  0  0  0
 17 19  1  0  0  0  0
 17 20  1  0  0  0  0
 20 21  1  0  0  0  0
 20 22  1  0  0  0  0
 20 23  1  0  0  0  0
 23 24  1  0  0  0  0
 23 25  1  0  0  0  0
 26 27  2  0  0  0  0
 26 28  1  0  0  0  0
 28 29  1  0  0  0  0
 28 30  1  0  0  0  0
 30 31  1  0  0  0  0
 30 32  1  0  0  0  0
 30 33  1  0  0  0  0
M  END
$$$$

  -OEChem-03222214063D

 33 32  0     1  0  0  0  0  0999 V2000
   -3.8233   -3.9532    1.6309 H   0  0  0  0  0  0  0  0  0  0  0  0
   -3.7986   -2.9616    1.1705 C   0  0  0  0  0  0  0  0  0  0  0  0
   -4.4942   -2.3085    1.7030 H   0  0  0  0  0  0  0  0  0  0  0  0
   -4.1159   -3.0491    0.1286 H   0  0  0  0  0  0  0  0  0  0  0  0
   -2.3953   -2.3892    1.2372 C   0  0  0  0  0  0  0  0  0  0  0  0
   -1.5016   -3.0297    1.7676 O   0  0  0  0  0  0  0  0  0  0  0  0
   -2.1379   -1.1478    0.6944 N   0  0  0  0  0  0  0  0  0  0  0  0
   -2.9319   -0.6132    0.3460 H   0  0  0  0  0  0  0  0  0  0  0  0
   -0.8523   -0.4424    0.7909 C   0  0  1  0  0  0  0  0  0  0  0  0
   -0.2659   -0.8693    1.6046 H   0  0  0  0  0  0  0  0  0  0  0  0
   -0.1170   -0.5700   -0.5659 C   0  0  0  0  0  0  0  0  0  0  0  0
   -0.8311   -0.8330   -1.3535 H   0  0  0  0  0  0  0  0  0  0  0  0
    0.2874    0.4130   -0.8306 H   0  0  0  0  0  0  0  0  0  0  0  0
    1.0641   -1.5609   -0.6092 C   0  0  0  0  0  0  0  0  0  0  0  0
    0.6606   -2.5784   -0.6487 H   0  0  0  0  0  0  0  0  0  0  0  0
    1.6149   -1.3888   -1.5395 H   0  0  0  0  0  0  0  0  0  0  0  0
    2.0343   -1.4780    0.5822 C   0  0  0  0  0  0  0  0  0  0  0  0
    2.3023   -0.4320    0.7619 H   0  0  0  0  0  0  0  0  0  0  0  0
    1.5690   -1.8780    1.4875 H   0  0  0  0  0  0  0  0  0  0  0  0
    3.2991   -2.2855    0.3051 C   0  0  0  0  0  0  0  0  0  0  0  0
    3.0447   -3.3452    0.1902 H   0  0  0  0  0  0  0  0  0  0  0  0
    3.7706   -1.9454   -0.6235 H   0  0  0  0  0  0  0  0  0  0  0  0
    4.2246   -2.1093    1.4288 N   0  0  0  0  0  0  0  0  0  0  0  0
    5.0621   -2.6793    1.3094 H   0  0  0  0  0  0  0  0  0  0  0  0
    4.4677   -1.1273    1.5544 H   0  0  0  0  0  0  0  0  0  0  0  0
   -1.0783    1.0372    1.1576 C   0  0  0  0  0  0  0  0  0  0  0  0
   -1.9838    1.6690    0.6247 O   0  0  0  0  0  0  0  0  0  0  0  0
   -0.3002    1.6432    2.1267 N   0  0  0  0  0  0  0  0  0  0  0  0
    0.4069    1.0744    2.5848 H   0  0  0  0  0  0  0  0  0  0  0  0
   -0.4921    3.0203    2.5637 C   0  0  0  0  0  0  0  0  0  0  0  0
   -1.4970    3.1549    2.9776 H   0  0  0  0  0  0  0  0  0  0  0  0
    0.2379    3.2760    3.3378 H   0  0  0  0  0  0  0  0  0  0  0  0
   -0.3611    3.7104    1.7236 H   0  0  0  0  0  0  0  0  0  0  0  0
  1  2  1  0  0  0  0
  2  3  1  0  0  0  0
  2  4  1  0  0  0  0
  2  5  1  0  0  0  0
  5  6  2  0  0  0  0
  5  7  1  0  0  0  0
  7  8  1  0  0  0  0
  7  9  1  0  0  0  0
  9 10  1  0  0  0  0
  9 11  1  0  0  0  0
  9 26  1  0  0  0  0
 11 12  1  0  0  0  0
 11 13  1  0  0  0  0
 11 14  1  0  0  0  0
 14 15  1  0  0  0  0
 14 16  1  0  0  0  0
 14 17  1  0  0  0  0
 17 18  1  0  0  0  0
 17 19  1  0  0  0  0
 17 20  1  0  0  0  0
 20 21  1  0  0  0  0
 20 22  1  0  0  0  0
 20 23  1  0  0  0  0
 23 24  1  0  0  0  0
 23 25  1  0  0  0  0
 26 27  2  0  0  0  0
 26 28  1  0  0  0  0
 28 29  1  0  0  0  0
 28 30  1  0  0  0  0
 30 31  1  0  0  0  0
 30 32  1  0  0  0  0
 30 33  1  0  0  0  0
M  END
$$$$

  -OEChem-03222214063D

 33 32  0     1  0  0  0  0  0999 V2000
   -3.8629   -3.9237    1.6354 H   0  0  0  0  0  0  0  0  0  0  0  0
   -3.8245   -2.9362    1.1670 C   0  0  0  0  0  0  0  0  0  0  0  0
   -4.5282   -2.2755    1.6789 H   0  0  0  0  0  0  0  0  0  0  0  0
   -4.1203   -3.0317    0.1196 H   0  0  0  0  0  0  0  0  0  0  0  0
   -2.4207   -2.3688    1.2588 C   0  0  0  0  0  0  0  0  0  0  0  0
   -1.5449   -3.0028    1.8246 O   0  0  0  0  0  0  0  0  0  0  0  0
   -2.1454   -1.1360    0.7055 N   0  0  0  0  0  0  0  0  0  0  0  0
   -2.9290   -0.6035    0.3308 H   0  0  0  0  0  0  0  0  0  0  0  0
   -0.8580   -0.4358    0.8147 C   0  0  1  0  0  0  0  0  0  0  0  0
   -0.2841   -0.8483    1.6449 H   0  0  0  0  0  0  0  0  0  0  0  0
   -0.1075   -0.5753   -0.5352 C   0  0  0  0  0  0  0  0  0  0  0  0
   -0.8171   -0.8209   -1.3324 H   0  0  0  0  0  0  0  0  0  0  0  0
    0.3062    0.4073   -0.7866 H   0  0  0  0  0  0  0  0  0  0  0  0
    1.0772   -1.5663   -0.5963 C   0  0  0  0  0  0  0  0  0  0  0  0
    0.6850   -2.5421   -0.9028 H   0  0  0  0  0  0  0  0  0  0  0  0
    1.7609   -1.2282   -1.3821 H   0  0  0  0  0  0  0  0  0  0  0  0
    1.8621   -1.7757    0.7088 C   0  0  0  0  0  0  0  0  0  0  0  0
    2.1265   -0.8034    1.1363 H   0  0  0  0  0  0  0  0  0  0  0  0
    1.2529   -2.3227    1.4352 H   0  0  0  0  0  0  0  0  0  0  0  0
    3.1353   -2.5763    0.4506 C   0  0  0  0  0  0  0  0  0  0  0  0
    2.8785   -3.5762    0.0829 H   0  0  0  0  0  0  0  0  0  0  0  0
    3.7461   -2.0800   -0.3116 H   0  0  0  0  0  0  0  0  0  0  0  0
    3.8881   -2.6784    1.7048 N   0  0  0  0  0  0  0  0  0  0  0  0
    4.7320   -3.2386    1.5852 H   0  0  0  0  0  0  0  0  0  0  0  0
    4.1118   -1.7559    2.0764 H   0  0  0  0  0  0  0  0  0  0  0  0
   -1.0909    1.0487    1.1587 C   0  0  0  0  0  0  0  0  0  0  0  0
   -1.9832    1.6752    0.5978 O   0  0  0  0  0  0  0  0  0  0  0  0
   -0.3310    1.6677    2.1339 N   0  0  0  0  0  0  0  0  0  0  0  0
    0.3590    1.1018    2.6208 H   0  0  0  0  0  0  0  0  0  0  0  0
   -0.5384    3.0475    2.5556 C   0  0  0  0  0  0  0  0  0  0  0  0
   -1.5494    3.1782    2.9556 H   0  0  0  0  0  0  0  0  0  0  0  0
    0.1798    3.3161    3.3363 H   0  0  0  0  0  0  0  0  0  0  0  0
   -0.4021    3.7308    1.7109 H   0  0  0  0  0  0  0  0  0  0  0  0
  1  2  1  0  0  0  0
  2  3  1  0  0  0  0
  2  4  1  0  0  0  0
  2  5  1  0  0  0  0
  5  6  2  0  0  0  0
  5  7  1  0  0  0  0
  7  8  1  0  0  0  0
  7  9  1  0  0  0  0
  9 10  1  0  0  0  0
  9 11  1  0  0  0  0
  9 26  1  0  0  0  0
 11 12  1  0  0  0  0
 11 13  1  0  0  0  0
 11 14  1  0  0  0  0
 14 15  1  0  0  0  0
 14 16  1  0  0  0  0
 14 17  1  0  0  0  0
 17 18  1  0  0  0  0
 17 19  1  0  0  0  0
 17 20  1  0  0  0  0
 20 21  1  0  0  0  0
 20 22  1  0  0  0  0
 20 23  1  0  0  0  0
 23 24  1  0  0  0  0
 23 25  1  0  0  0  0
 26 27  2  0  0  0  0
 26 28  1  0  0  0  0
 28 29  1  0  0  0  0
 28 30  1  0  0  0  0
 30 31  1  0  0  0  0
 30 32  1  0  0  0  0
 30 33  1  0  0  0  0
M  END
$$$$

  -OEChem-03222214063D

 33 32  0     1  0  0  0  0  0999 V2000
   -3.8993   -3.9012    1.6384 H   0  0  0  0  0  0  0  0  0  0  0  0
   -3.8375   -2.9211    1.1570 C   0  0  0  0  0  0  0  0  0  0  0  0
   -4.5636   -2.2520    1.6250 H   0  0  0  0  0  0  0  0  0  0  0  0
   -4.0847   -3.0326    0.0985 H   0  0  0  0  0  0  0  0  0  0  0  0
   -2.4390   -2.3519    1.3061 C   0  0  0  0  0  0  0  0  0  0  0  0
   -1.6012   -2.9617    1.9492 O   0  0  0  0  0  0  0  0  0  0  0  0
   -2.1388   -1.1310    0.7396 N   0  0  0  0  0  0  0  0  0  0  0  0
   -2.9040   -0.6171    0.3064 H   0  0  0  0  0  0  0  0  0  0  0  0
   -0.8531   -0.4271    0.8570 C   0  0  1  0  0  0  0  0  0  0  0  0
   -0.2807   -0.8243    1.6966 H   0  0  0  0  0  0  0  0  0  0  0  0
   -0.0888   -0.5639   -0.4881 C   0  0  0  0  0  0  0  0  0  0  0  0
   -0.7964   -0.8076   -1.2879 H   0  0  0  0  0  0  0  0  0  0  0  0
    0.3179    0.4225   -0.7367 H   0  0  0  0  0  0  0  0  0  0  0  0
    1.1070   -1.5445   -0.5694 C   0  0  0  0  0  0  0  0  0  0  0  0
    0.7762   -2.4204   -1.1375 H   0  0  0  0  0  0  0  0  0  0  0  0
    1.9017   -1.0652   -1.1510 H   0  0  0  0  0  0  0  0  0  0  0  0
    1.6949   -2.0558    0.7549 C   0  0  0  0  0  0  0  0  0  0  0  0
    1.9861   -1.2058    1.3797 H   0  0  0  0  0  0  0  0  0  0  0  0
    0.9509   -2.6472    1.2966 H   0  0  0  0  0  0  0  0  0  0  0  0
    2.9188   -2.9306    0.4936 C   0  0  0  0  0  0  0  0  0  0  0  0
    2.6287   -3.8142   -0.0861 H   0  0  0  0  0  0  0  0  0  0  0  0
    3.6627   -2.3728   -0.0857 H   0  0  0  0  0  0  0  0  0  0  0  0
    3.4937   -3.3413    1.7782 N   0  0  0  0  0  0  0  0  0  0  0  0
    4.3090   -3.9395    1.6460 H   0  0  0  0  0  0  0  0  0  0  0  0
    3.7223   -2.5333    2.3559 H   0  0  0  0  0  0  0  0  0  0  0  0
   -1.1100    1.0615    1.1681 C   0  0  0  0  0  0  0  0  0  0  0  0
   -1.9917    1.6690    0.5703 O   0  0  0  0  0  0  0  0  0  0  0  0
   -0.3779    1.7104    2.1453 N   0  0  0  0  0  0  0  0  0  0  0  0
    0.2999    1.1610    2.6665 H   0  0  0  0  0  0  0  0  0  0  0  0
   -0.6081    3.0976    2.5295 C   0  0  0  0  0  0  0  0  0  0  0  0
   -1.6261    3.2252    2.9124 H   0  0  0  0  0  0  0  0  0  0  0  0
    0.0960    3.3952    3.3125 H   0  0  0  0  0  0  0  0  0  0  0  0
   -0.4693    3.7613    1.6696 H   0  0  0  0  0  0  0  0  0  0  0  0
  1  2  1  0  0  0  0
  2  3  1  0  0  0  0
  2  4  1  0  0  0  0
  2  5  1  0  0  0  0
  5  6  2  0  0  0  0
  5  7  1  0  0  0  0
  7  8  1  0  0  0  0
  7  9  1  0  0  0  0
  9 10  1  0  0  0  0
  9 11  1  0  0  0  0
  9 26  1  0  0  0  0
 11 12  1  0  0  0  0
 11 13  1  0  0  0  0
 11 14  1  0  0  0  0
 14 15  1  0  0  0  0
 14 16  1  0  0  0  0
 14 17  1  0  0  0  0
 17 18  1  0  0  0  0
 17 19  1  0  0  0  0
 17 20  1  0  0  0  0
 20 21  1  0  0  0  0
 20 22  1  0  0  0  0
 20 23  1  0  0  0  0
 23 24  1  0  0  0  0
 23 25  1  0  0  0  0
 26 27  2  0  0  0  0
 26 28  1  0  0  0  0
 28 29  1  0  0  0  0
 28 30  1  0  0  0  0
 30 31  1  0  0  0  0
 30 32  1  0  0  0  0
 30 33  1  0  0  0  0
M  END
$$$$

  -OEChem-03222214063D

 33 32  0     1  0  0  0  0  0999 V2000
   -3.9087   -3.8990    1.6421 H   0  0  0  0  0  0  0  0  0  0  0  0
   -3.8369   -2.9265    1.1468 C   0  0  0  0  0  0  0  0  0  0  0  0
   -4.6076   -2.2662    1.5518 H   0  0  0  0  0  0  0  0  0  0  0  0
   -4.0089   -3.0636    0.0766 H   0  0  0  0  0  0  0  0  0  0  0  0
   -2.4642   -2.3231    1.3772 C   0  0  0  0  0  0  0  0  0  0  0  0
   -1.6751   -2.8797    2.1215 O   0  0  0  0  0  0  0  0  0  0  0  0
   -2.1447   -1.1181    0.7883 N   0  0  0  0  0  0  0  0  0  0  0  0
   -2.8832   -0.6394    0.2758 H   0  0  0  0  0  0  0  0  0  0  0  0
   -0.8537   -0.4214    0.8951 C   0  0  1  0  0  0  0  0  0  0  0  0
   -0.2774   -0.8093    1.7368 H   0  0  0  0  0  0  0  0  0  0  0  0
   -0.0869   -0.5636   -0.4503 C   0  0  0  0  0  0  0  0  0  0  0  0
   -0.8039   -0.8257   -1.2357 H   0  0  0  0  0  0  0  0  0  0  0  0
    0.3069    0.4216   -0.7241 H   0  0  0  0  0  0  0  0  0  0  0  0
    1.1091   -1.5446   -0.5435 C   0  0  0  0  0  0  0  0  0  0  0  0
    0.8865   -2.2628   -1.3397 H   0  0  0  0  0  0  0  0  0  0  0  0
    1.9877   -0.9743   -0.8631 H   0  0  0  0  0  0  0  0  0  0  0  0
    1.4872   -2.3400    0.7141 C   0  0  0  0  0  0  0  0  0  0  0  0
    1.7391   -1.6555    1.5295 H   0  0  0  0  0  0  0  0  0  0  0  0
    0.6458   -2.9632    1.0274 H   0  0  0  0  0  0  0  0  0  0  0  0
    2.6907   -3.2376    0.4338 C   0  0  0  0  0  0  0  0  0  0  0  0
    2.4563   -3.9373   -0.3760 H   0  0  0  0  0  0  0  0  0  0  0  0
    3.5461   -2.6292    0.1207 H   0  0  0  0  0  0  0  0  0  0  0  0
    3.0246   -3.9815    1.6517 N   0  0  0  0  0  0  0  0  0  0  0  0
    3.8457   -4.5705    1.5158 H   0  0  0  0  0  0  0  0  0  0  0  0
    3.1494   -3.3546    2.4460 H   0  0  0  0  0  0  0  0  0  0  0  0
   -1.1088    1.0742    1.1738 C   0  0  0  0  0  0  0  0  0  0  0  0
   -1.9766    1.6761    0.5502 O   0  0  0  0  0  0  0  0  0  0  0  0
   -0.3788    1.7401    2.1408 N   0  0  0  0  0  0  0  0  0  0  0  0
    0.2825    1.1951    2.6869 H   0  0  0  0  0  0  0  0  0  0  0  0
   -0.6074    3.1351    2.4963 C   0  0  0  0  0  0  0  0  0  0  0  0
   -1.6261    3.2720    2.8743 H   0  0  0  0  0  0  0  0  0  0  0  0
    0.0957    3.4468    3.2747 H   0  0  0  0  0  0  0  0  0  0  0  0
   -0.4649    3.7813    1.6237 H   0  0  0  0  0  0  0  0  0  0  0  0
  1  2  1  0  0  0  0
  2  3  1  0  0  0  0
  2  4  1  0  0  0  0
  2  5  1  0  0  0  0
  5  6  2  0  0  0  0
  5  7  1  0  0  0  0
  7  8  1  0  0  0  0
  7  9  1  0  0  0  0
  9 10  1  0  0  0  0
  9 11  1  0  0  0  0
  9 26  1  0  0  0  0
 11 12  1  0  0  0  0
 11 13  1  0  0  0  0
 11 14  1  0  0  0  0
 14 15  1  0  0  0  0
 14 16  1  0  0  0  0
 14 17  1  0  0  0  0
 17 18  1  0  0  0  0
 17 19  1  0  0  0  0
 17 20  1  0  0  0  0
 20 21  1  0  0  0  0
 20 22  1  0  0  0  0
 20 23  1  0  0  0  0
 23 24  1  0  0  0  0
 23 25  1  0  0  0  0
 26 27  2  0  0  0  0
 26 28  1  0  0  0  0
 28 29  1  0  0  0  0
 28 30  1  0  0  0  0
 30 31  1  0  0  0  0
 30 32  1  0  0  0  0
 30 33  1  0  0  0  0
M  END
$$$$

  -OEChem-03222214063D

 33 32  0     1  0  0  0  0  0999 V2000
   -3.8879   -3.8971    1.6889 H   0  0  0  0  0  0  0  0  0  0  0  0
   -3.8200   -2.9324    1.1782 C   0  0  0  0  0  0  0  0  0  0  0  0
   -4.6027   -2.2736    1.5620 H   0  0  0  0  0  0  0  0  0  0  0  0
   -3.9769   -3.0892    0.1084 H   0  0  0  0  0  0  0  0  0  0  0  0
   -2.4569   -2.3106    1.4158 C   0  0  0  0  0  0  0  0  0  0  0  0
   -1.6762   -2.8373    2.1917 O   0  0  0  0  0  0  0  0  0  0  0  0
   -2.1401   -1.1129    0.8104 N   0  0  0  0  0  0  0  0  0  0  0  0
   -2.8716   -0.6500    0.2741 H   0  0  0  0  0  0  0  0  0  0  0  0
   -0.8438   -0.4245    0.9044 C   0  0  1  0  0  0  0  0  0  0  0  0
   -0.2597   -0.8058    1.7438 H   0  0  0  0  0  0  0  0  0  0  0  0
   -0.0776   -0.5597   -0.4421 C   0  0  0  0  0  0  0  0  0  0  0  0
   -0.8014   -0.8392   -1.2151 H   0  0  0  0  0  0  0  0  0  0  0  0
    0.3077    0.4233   -0.7349 H   0  0  0  0  0  0  0  0  0  0  0  0
    1.1131   -1.5455   -0.5357 C   0  0  0  0  0  0  0  0  0  0  0  0
    1.0470   -2.0626   -1.4988 H   0  0  0  0  0  0  0  0  0  0  0  0
    2.0339   -0.9529   -0.5521 H   0  0  0  0  0  0  0  0  0  0  0  0
    1.2625   -2.5937    0.5761 C   0  0  0  0  0  0  0  0  0  0  0  0
    1.4093   -2.1119    1.5464 H   0  0  0  0  0  0  0  0  0  0  0  0
    0.3570   -3.2052    0.6215 H   0  0  0  0  0  0  0  0  0  0  0  0
    2.4603   -3.4998    0.2986 C   0  0  0  0  0  0  0  0  0  0  0  0
    2.3670   -3.9601   -0.6913 H   0  0  0  0  0  0  0  0  0  0  0  0
    3.3838   -2.9106    0.3144 H   0  0  0  0  0  0  0  0  0  0  0  0
    2.5104   -4.5442    1.3254 N   0  0  0  0  0  0  0  0  0  0  0  0
    3.3557   -5.1084    1.2443 H   0  0  0  0  0  0  0  0  0  0  0  0
    2.4201   -4.1472    2.2609 H   0  0  0  0  0  0  0  0  0  0  0  0
   -1.0958    1.0743    1.1710 C   0  0  0  0  0  0  0  0  0  0  0  0
   -1.9603    1.6748    0.5415 O   0  0  0  0  0  0  0  0  0  0  0  0
   -0.3611    1.7479    2.1291 N   0  0  0  0  0  0  0  0  0  0  0  0
    0.2987    1.2061    2.6800 H   0  0  0  0  0  0  0  0  0  0  0  0
   -0.5869    3.1465    2.4725 C   0  0  0  0  0  0  0  0  0  0  0  0
   -1.6037    3.2880    2.8536 H   0  0  0  0  0  0  0  0  0  0  0  0
    0.1198    3.4652    3.2448 H   0  0  0  0  0  0  0  0  0  0  0  0
   -0.4477    3.7843    1.5933 H   0  0  0  0  0  0  0  0  0  0  0  0
  1  2  1  0  0  0  0
  2  3  1  0  0  0  0
  2  4  1  0  0  0  0
  2  5  1  0  0  0  0
  5  6  2  0  0  0  0
  5  7  1  0  0  0  0
  7  8  1  0  0  0  0
  7  9  1  0  0  0  0
  9 10  1  0  0  0  0
  9 11  1  0  0  0  0
  9 26  1  0  0  0  0
 11 12  1  0  0  0  0
 11 13  1  0  0  0  0
 11 14  1  0  0  0  0
 14 15  1  0  0  0  0
 14 16  1  0  0  0  0
 14 17  1  0  0  0  0
 17 18  1  0  0  0  0
 17 19  1  0  0  0  0
 17 20  1  0  0  0  0
 20 21  1  0  0  0  0
 20 22  1  0  0  0  0
 20 23  1  0  0  0  0
 23 24  1  0  0  0  0
 23 25  1  0  0  0  0
 26 27  2  0  0  0  0
 26 28  1  0  0  0  0
 28 29  1  0  0  0  0
 28 30  1  0  0  0  0
 30 31  1  0  0  0  0
 30 32  1  0  0  0  0
 30 33  1  0  0  0  0
M  END
$$$$

  -OEChem-03222214063D

 33 32  0     1  0  0  0  0  0999 V2000
   -3.8450   -3.9209    1.7113 H   0  0  0  0  0  0  0  0  0  0  0  0
   -3.7885   -2.9541    1.2034 C   0  0  0  0  0  0  0  0  0  0  0  0
   -4.5679   -2.2999    1.6012 H   0  0  0  0  0  0  0  0  0  0  0  0
   -3.9608   -3.1079    0.1354 H   0  0  0  0  0  0  0  0  0  0  0  0
   -2.4245   -2.3272    1.4231 C   0  0  0  0  0  0  0  0  0  0  0  0
   -1.6286   -2.8558    2.1830 O   0  0  0  0  0  0  0  0  0  0  0  0
   -2.1214   -1.1252    0.8180 N   0  0  0  0  0  0  0  0  0  0  0  0
   -2.8618   -0.6619    0.2946 H   0  0  0  0  0  0  0  0  0  0  0  0
   -0.8244   -0.4361    0.8947 C   0  0  1  0  0  0  0  0  0  0  0  0
   -0.2197   -0.8185    1.7197 H   0  0  0  0  0  0  0  0  0  0  0  0
   -0.0742   -0.5570   -0.4604 C   0  0  0  0  0  0  0  0  0  0  0  0
   -0.8036   -0.8425   -1.2259 H   0  0  0  0  0  0  0  0  0  0  0  0
    0.3089    0.4257   -0.7570 H   0  0  0  0  0  0  0  0  0  0  0  0
    1.1108   -1.5453   -0.5469 C   0  0  0  0  0  0  0  0  0  0  0  0
    1.2146   -1.8630   -1.5898 H   0  0  0  0  0  0  0  0  0  0  0  0
    2.0221   -0.9996   -0.2808 H   0  0  0  0  0  0  0  0  0  0  0  0
    1.0368   -2.7854    0.3554 C   0  0  0  0  0  0  0  0  0  0  0  0
    1.0394   -2.5043    1.4113 H   0  0  0  0  0  0  0  0  0  0  0  0
    0.1096   -3.3268    0.1433 H   0  0  0  0  0  0  0  0  0  0  0  0
    2.2239   -3.7103    0.1000 C   0  0  0  0  0  0  0  0  0  0  0  0
    2.2931   -3.9578   -0.9651 H   0  0  0  0  0  0  0  0  0  0  0  0
    3.1536   -3.2116    0.3952 H   0  0  0  0  0  0  0  0  0  0  0  0
    2.0337   -4.9355    0.8808 N   0  0  0  0  0  0  0  0  0  0  0  0
    2.8636   -5.5269    0.8575 H   0  0  0  0  0  0  0  0  0  0  0  0
    1.7606   -4.7202    1.8407 H   0  0  0  0  0  0  0  0  0  0  0  0
   -1.0768    1.0606    1.1740 C   0  0  0  0  0  0  0  0  0  0  0  0
   -1.9524    1.6623    0.5611 O   0  0  0  0  0  0  0  0  0  0  0  0
   -0.3293    1.7315    2.1241 N   0  0  0  0  0  0  0  0  0  0  0  0
    0.3413    1.1900    2.6619 H   0  0  0  0  0  0  0  0  0  0  0  0
   -0.5471    3.1305    2.4705 C   0  0  0  0  0  0  0  0  0  0  0  0
   -1.5562    3.2733    2.8713 H   0  0  0  0  0  0  0  0  0  0  0  0
    0.1750    3.4497    3.2282 H   0  0  0  0  0  0  0  0  0  0  0  0
   -0.4248    3.7672    1.5877 H   0  0  0  0  0  0  0  0  0  0  0  0
  1  2  1  0  0  0  0
  2  3  1  0  0  0  0
  2  4  1  0  0  0  0
  2  5  1  0  0  0  0
  5  6  2  0  0  0  0
  5  7  1  0  0  0  0
  7  8  1  0  0  0  0
  7  9  1  0  0  0  0
  9 10  1  0  0  0  0
  9 11  1  0  0  0  0
  9 26  1  0  0  0  0
 11 12  1  0  0  0  0
 11 13  1  0  0  0  0
 11 14  1  0  0  0  0
 14 15  1  0  0  0  0
 14 16  1  0  0  0  0
 14 17  1  0  0  0  0
 17 18  1  0  0  0  0
 17 19  1  0  0  0  0
 17 20  1  0  0  0  0
 20 21  1  0  0  0  0
 20 22  1  0  0  0  0
 20 23  1  0  0  0  0
 23 24  1  0  0  0  0
 23 25  1  0  0  0  0
 26 27  2  0  0  0  0
 26 28  1  0  0  0  0
 28 29  1  0  0  0  0
 28 30  1  0  0  0  0
 30 31  1  0  0  0  0
 30 32  1  0  0  0  0
 30 33  1  0  0  0  0
M  END
$$$$

  -OEChem-03222214063D

 33 32  0     1  0  0  0  0  0999 V2000
   -3.7961   -3.9669    1.6855 H   0  0  0  0  0  0  0  0  0  0  0  0
   -3.7457   -2.9968    1.1835 C   0  0  0  0  0  0  0  0  0  0  0  0
   -4.5368   -2.3539    1.5769 H   0  0  0  0  0  0  0  0  0  0  0  0
   -3.9048   -3.1467    0.1129 H   0  0  0  0  0  0  0  0  0  0  0  0
   -2.3915   -2.3559    1.4202 C   0  0  0  0  0  0  0  0  0  0  0  0
   -1.6006   -2.8779    2.1896 O   0  0  0  0  0  0  0  0  0  0  0  0
   -2.0986   -1.1476    0.8228 N   0  0  0  0  0  0  0  0  0  0  0  0
   -2.8421   -0.6971    0.2926 H   0  0  0  0  0  0  0  0  0  0  0  0
   -0.8069   -0.4457    0.8837 C   0  0  1  0  0  0  0  0  0  0  0  0
   -0.1823   -0.8400    1.6902 H   0  0  0  0  0  0  0  0  0  0  0  0
   -0.0741   -0.5578   -0.4808 C   0  0  0  0  0  0  0  0  0  0  0  0
   -0.8029   -0.8485   -1.2449 H   0  0  0  0  0  0  0  0  0  0  0  0
    0.3070    0.4262   -0.7761 H   0  0  0  0  0  0  0  0  0  0  0  0
    1.1126   -1.5393   -0.5473 C   0  0  0  0  0  0  0  0  0  0  0  0
    1.3806   -1.6792   -1.5999 H   0  0  0  0  0  0  0  0  0  0  0  0
    1.9727   -1.0822   -0.0474 H   0  0  0  0  0  0  0  0  0  0  0  0
    0.8534   -2.9057    0.0970 C   0  0  0  0  0  0  0  0  0  0  0  0
    0.7554   -2.7988    1.1797 H   0  0  0  0  0  0  0  0  0  0  0  0
   -0.0793   -3.3222   -0.2967 H   0  0  0  0  0  0  0  0  0  0  0  0
    1.9961   -3.8746   -0.1888 C   0  0  0  0  0  0  0  0  0  0  0  0
    2.1619   -3.9638   -1.2681 H   0  0  0  0  0  0  0  0  0  0  0  0
    2.9202   -3.5055    0.2698 H   0  0  0  0  0  0  0  0  0  0  0  0
    1.6372   -5.1816    0.3683 N   0  0  0  0  0  0  0  0  0  0  0  0
    2.4203   -5.8331    0.3260 H   0  0  0  0  0  0  0  0  0  0  0  0
    1.2880   -5.0876    1.3236 H   0  0  0  0  0  0  0  0  0  0  0  0
   -1.0606    1.0476    1.1770 C   0  0  0  0  0  0  0  0  0  0  0  0
   -1.9470    1.6508    0.5815 O   0  0  0  0  0  0  0  0  0  0  0  0
   -0.2982    1.7128    2.1194 N   0  0  0  0  0  0  0  0  0  0  0  0
    0.3793    1.1666    2.6439 H   0  0  0  0  0  0  0  0  0  0  0  0
   -0.5123    3.1081    2.4826 C   0  0  0  0  0  0  0  0  0  0  0  0
   -1.5150    3.2462    2.9006 H   0  0  0  0  0  0  0  0  0  0  0  0
    0.2215    3.4198    3.2321 H   0  0  0  0  0  0  0  0  0  0  0  0
   -0.4041    3.7539    1.6048 H   0  0  0  0  0  0  0  0  0  0  0  0
  1  2  1  0  0  0  0
  2  3  1  0  0  0  0
  2  4  1  0  0  0  0
  2  5  1  0  0  0  0
  5  6  2  0  0  0  0
  5  7  1  0  0  0  0
  7  8  1  0  0  0  0
  7  9  1  0  0  0  0
  9 10  1  0  0  0  0
  9 11  1  0  0  0  0
  9 26  1  0  0  0  0
 11 12  1  0  0  0  0
 11 13  1  0  0  0  0
 11 14  1  0  0  0  0
 14 15  1  0  0  0  0
 14 16  1  0  0  0  0
 14 17  1  0  0  0  0
 17 18  1  0  0  0  0
 17 19  1  0  0  0  0
 17 20  1  0  0  0  0
 20 21  1  0  0  0  0
 20 22  1  0  0  0  0
 20 23  1  0  0  0  0
 23 24  1  0  0  0  0
 23 25  1  0  0  0  0
 26 27  2  0  0  0  0
 26 28  1  0  0  0  0
 28 29  1  0  0  0  0
 28 30  1  0  0  0  0
 30 31  1  0  0  0  0
 30 32  1  0  0  0  0
 30 33  1  0  0  0  0
M  END
$$$$

  -OEChem-03222214063D

 33 32  0     1  0  0  0  0  0999 V2000
   -3.7809   -3.9949    1.6564 H   0  0  0  0  0  0  0  0  0  0  0  0
   -3.7298   -3.0237    1.1562 C   0  0  0  0  0  0  0  0  0  0  0  0
   -4.5322   -2.3872    1.5369 H   0  0  0  0  0  0  0  0  0  0  0  0
   -3.8705   -3.1738    0.0831 H   0  0  0  0  0  0  0  0  0  0  0  0
   -2.3849   -2.3717    1.4163 C   0  0  0  0  0  0  0  0  0  0  0  0
   -1.6070   -2.8825    2.2063 O   0  0  0  0  0  0  0  0  0  0  0  0
   -2.0904   -1.1616    0.8235 N   0  0  0  0  0  0  0  0  0  0  0  0
   -2.8248   -0.7248    0.2699 H   0  0  0  0  0  0  0  0  0  0  0  0
   -0.7989   -0.4583    0.8835 C   0  0  1  0  0  0  0  0  0  0  0  0
   -0.1687   -0.8659    1.6805 H   0  0  0  0  0  0  0  0  0  0  0  0
   -0.0728   -0.5659   -0.4833 C   0  0  0  0  0  0  0  0  0  0  0  0
   -0.7964   -0.8421   -1.2576 H   0  0  0  0  0  0  0  0  0  0  0  0
    0.3218    0.4171   -0.7637 H   0  0  0  0  0  0  0  0  0  0  0  0
    1.1076   -1.5504   -0.5285 C   0  0  0  0  0  0  0  0  0  0  0  0
    1.5382   -1.5150   -1.5348 H   0  0  0  0  0  0  0  0  0  0  0  0
    1.8813   -1.2228    0.1736 H   0  0  0  0  0  0  0  0  0  0  0  0
    0.7147   -2.9944   -0.2049 C   0  0  0  0  0  0  0  0  0  0  0  0
    0.4850   -3.0813    0.8583 H   0  0  0  0  0  0  0  0  0  0  0  0
   -0.1768   -3.2726   -0.7765 H   0  0  0  0  0  0  0  0  0  0  0  0
    1.8475   -3.9605   -0.5353 C   0  0  0  0  0  0  0  0  0  0  0  0
    2.1247   -3.8772   -1.5920 H   0  0  0  0  0  0  0  0  0  0  0  0
    2.7295   -3.7218    0.0693 H   0  0  0  0  0  0  0  0  0  0  0  0
    1.3873   -5.3212   -0.2464 N   0  0  0  0  0  0  0  0  0  0  0  0
    2.1388   -6.0001   -0.3647 H   0  0  0  0  0  0  0  0  0  0  0  0
    0.9877   -5.3777    0.6918 H   0  0  0  0  0  0  0  0  0  0  0  0
   -1.0467    1.0349    1.1821 C   0  0  0  0  0  0  0  0  0  0  0  0
   -1.9268    1.6442    0.5838 O   0  0  0  0  0  0  0  0  0  0  0  0
   -0.2797    1.6960    2.1236 N   0  0  0  0  0  0  0  0  0  0  0  0
    0.3940    1.1465    2.6494 H   0  0  0  0  0  0  0  0  0  0  0  0
   -0.4830    3.0940    2.4822 C   0  0  0  0  0  0  0  0  0  0  0  0
   -1.4772    3.2369    2.9179 H   0  0  0  0  0  0  0  0  0  0  0  0
    0.2656    3.4087    3.2155 H   0  0  0  0  0  0  0  0  0  0  0  0
   -0.3898    3.7343    1.5987 H   0  0  0  0  0  0  0  0  0  0  0  0
  1  2  1  0  0  0  0
  2  3  1  0  0  0  0
  2  4  1  0  0  0  0
  2  5  1  0  0  0  0
  5  6  2  0  0  0  0
  5  7  1  0  0  0  0
  7  8  1  0  0  0  0
  7  9  1  0  0  0  0
  9 10  1  0  0  0  0
  9 11  1  0  0  0  0
  9 26  1  0  0  0  0
 11 12  1  0  0  0  0
 11 13  1  0  0  0  0
 11 14  1  0  0  0  0
 14 15  1  0  0  0  0
 14 16  1  0  0  0  0
 14 17  1  0  0  0  0
 17 18  1  0  0  0  0
 17 19  1  0  0  0  0
 17 20  1  0  0  0  0
 20 21  1  0  0  0  0
 20 22  1  0  0  0  0
 20 23  1  0  0  0  0
 23 24  1  0  0  0  0
 23 25  1  0  0  0  0
 26 27  2  0  0  0  0
 26 28  1  0  0  0  0
 28 29  1  0  0  0  0
 28 30  1  0  0  0  0
 30 31  1  0  0  0  0
 30 32  1  0  0  0  0
 30 33  1  0  0  0  0
M  END
$$$$

  -OEChem-03222214063D

 33 32  0     1  0  0  0  0  0999 V2000
   -3.7571   -4.0080    1.6672 H   0  0  0  0  0  0  0  0  0  0  0  0
   -3.7185   -3.0334    1.1727 C   0  0  0  0  0  0  0  0  0  0  0  0
   -4.5066   -2.3976    1.5835 H   0  0  0  0  0  0  0  0  0  0  0  0
   -3.8934   -3.1751    0.1034 H   0  0  0  0  0  0  0  0  0  0  0  0
   -2.3636   -2.3879    1.3943 C   0  0  0  0  0  0  0  0  0  0  0  0
   -1.5525   -2.9192    2.1371 O   0  0  0  0  0  0  0  0  0  0  0  0
   -2.0854   -1.1695    0.8106 N   0  0  0  0  0  0  0  0  0  0  0  0
   -2.8372   -0.7146    0.2962 H   0  0  0  0  0  0  0  0  0  0  0  0
   -0.7902   -0.4733    0.8511 C   0  0  1  0  0  0  0  0  0  0  0  0
   -0.1449   -0.8949    1.6287 H   0  0  0  0  0  0  0  0  0  0  0  0
   -0.0932   -0.5625   -0.5314 C   0  0  0  0  0  0  0  0  0  0  0  0
   -0.8271   -0.8045   -1.3074 H   0  0  0  0  0  0  0  0  0  0  0  0
    0.3158    0.4211   -0.7874 H   0  0  0  0  0  0  0  0  0  0  0  0
    1.0776   -1.5567   -0.5936 C   0  0  0  0  0  0  0  0  0  0  0  0
    1.6542   -1.3488   -1.5010 H   0  0  0  0  0  0  0  0  0  0  0  0
    1.7424   -1.4019    0.2625 H   0  0  0  0  0  0  0  0  0  0  0  0
    0.6141   -3.0164   -0.6370 C   0  0  0  0  0  0  0  0  0  0  0  0
    0.1046   -3.2716    0.2920 H   0  0  0  0  0  0  0  0  0  0  0  0
   -0.0917   -3.1553   -1.4624 H   0  0  0  0  0  0  0  0  0  0  0  0
    1.7971   -3.9610   -0.8201 C   0  0  0  0  0  0  0  0  0  0  0  0
    2.3300   -3.7266   -1.7481 H   0  0  0  0  0  0  0  0  0  0  0  0
    2.4984   -3.8475    0.0140 H   0  0  0  0  0  0  0  0  0  0  0  0
    1.2864   -5.3339   -0.8677 N   0  0  0  0  0  0  0  0  0  0  0  0
    2.0474   -6.0091   -0.9375 H   0  0  0  0  0  0  0  0  0  0  0  0
    0.6997   -5.5301   -0.0555 H   0  0  0  0  0  0  0  0  0  0  0  0
   -1.0292    1.0158    1.1788 C   0  0  0  0  0  0  0  0  0  0  0  0
   -1.9275    1.6329    0.6165 O   0  0  0  0  0  0  0  0  0  0  0  0
   -0.2404    1.6619    2.1128 N   0  0  0  0  0  0  0  0  0  0  0  0
    0.4463    1.1045    2.6130 H   0  0  0  0  0  0  0  0  0  0  0  0
   -0.4480    3.0486    2.5112 C   0  0  0  0  0  0  0  0  0  0  0  0
   -1.4370    3.1728    2.9645 H   0  0  0  0  0  0  0  0  0  0  0  0
    0.3085    3.3491    3.2424 H   0  0  0  0  0  0  0  0  0  0  0  0
   -0.3719    3.7126    1.6437 H   0  0  0  0  0  0  0  0  0  0  0  0
  1  2  1  0  0  0  0
  2  3  1  0  0  0  0
  2  4  1  0  0  0  0
  2  5  1  0  0  0  0
  5  6  2  0  0  0  0
  5  7  1  0  0  0  0
  7  8  1  0  0  0  0
  7  9  1  0  0  0  0
  9 10  1  0  0  0  0
  9 11  1  0  0  0  0
  9 26  1  0  0  0  0
 11 12  1  0  0  0  0
 11 13  1  0  0  0  0
 11 14  1  0  0  0  0
 14 15  1  0  0  0  0
 14 16  1  0  0  0  0
 14 17  1  0  0  0  0
 17 18  1  0  0  0  0
 17 19  1  0  0  0  0
 17 20  1  0  0  0  0
 20 21  1  0  0  0  0
 20 22  1  0  0  0  0
 20 23  1  0  0  0  0
 23 24  1  0  0  0  0
 23 25  1  0  0  0  0
 26 27  2  0  0  0  0
 26 28  1  0  0  0  0
 28 29  1  0  0  0  0
 28 30  1  0  0  0  0
 30 31  1  0  0  0  0
 30 32  1  0  0  0  0
 30 33  1  0  0  0  0
M  END
$$$$

  -OEChem-03222214063D

 33 32  0     1  0  0  0  0  0999 V2000
   -3.6839   -4.0408    1.6620 H   0  0  0  0  0  0  0  0  0  0  0  0
   -3.6754   -3.0550    1.1887 C   0  0  0  0  0  0  0  0  0  0  0  0
   -4.4173   -2.4212    1.6805 H   0  0  0  0  0  0  0  0  0  0  0  0
   -3.9424   -3.1680    0.1352 H   0  0  0  0  0  0  0  0  0  0  0  0
   -2.2990   -2.4293    1.3081 C   0  0  0  0  0  0  0  0  0  0  0  0
   -1.4156   -3.0143    1.9163 O   0  0  0  0  0  0  0  0  0  0  0  0
   -2.0643   -1.1873    0.7559 N   0  0  0  0  0  0  0  0  0  0  0  0
   -2.8559   -0.6955    0.3449 H   0  0  0  0  0  0  0  0  0  0  0  0
   -0.7802   -0.4739    0.7949 C   0  0  1  0  0  0  0  0  0  0  0  0
   -0.1241   -0.9036    1.5582 H   0  0  0  0  0  0  0  0  0  0  0  0
   -0.1062   -0.5399   -0.5975 C   0  0  0  0  0  0  0  0  0  0  0  0
   -0.8437   -0.7696   -1.3742 H   0  0  0  0  0  0  0  0  0  0  0  0
    0.2986    0.4493   -0.8375 H   0  0  0  0  0  0  0  0  0  0  0  0
    1.0699   -1.5292   -0.6584 C   0  0  0  0  0  0  0  0  0  0  0  0
    1.7865   -1.1758   -1.4071 H   0  0  0  0  0  0  0  0  0  0  0  0
    1.5929   -1.5642    0.3028 H   0  0  0  0  0  0  0  0  0  0  0  0
    0.6029   -2.9325   -1.0637 C   0  0  0  0  0  0  0  0  0  0  0  0
   -0.1543   -3.2902   -0.3628 H   0  0  0  0  0  0  0  0  0  0  0  0
    0.1485   -2.8957   -2.0592 H   0  0  0  0  0  0  0  0  0  0  0  0
    1.7704   -3.9133   -1.0775 C   0  0  0  0  0  0  0  0  0  0  0  0
    2.5327   -3.5823   -1.7914 H   0  0  0  0  0  0  0  0  0  0  0  0
    2.2302   -3.9614   -0.0839 H   0  0  0  0  0  0  0  0  0  0  0  0
    1.2625   -5.2337   -1.4611 N   0  0  0  0  0  0  0  0  0  0  0  0
    2.0093   -5.9280   -1.4677 H   0  0  0  0  0  0  0  0  0  0  0  0
    0.5048   -5.5224   -0.8411 H   0  0  0  0  0  0  0  0  0  0  0  0
   -1.0281    1.0008    1.1744 C   0  0  0  0  0  0  0  0  0  0  0  0
   -1.9545    1.6186    0.6610 O   0  0  0  0  0  0  0  0  0  0  0  0
   -0.2292    1.6280    2.1125 N   0  0  0  0  0  0  0  0  0  0  0  0
    0.4918    1.0722    2.5636 H   0  0  0  0  0  0  0  0  0  0  0  0
   -0.4383    3.0028    2.5499 C   0  0  0  0  0  0  0  0  0  0  0  0
   -1.4305    3.1155    2.9991 H   0  0  0  0  0  0  0  0  0  0  0  0
    0.3126    3.2807    3.2956 H   0  0  0  0  0  0  0  0  0  0  0  0
   -0.3548    3.6916    1.7027 H   0  0  0  0  0  0  0  0  0  0  0  0
  1  2  1  0  0  0  0
  2  3  1  0  0  0  0
  2  4  1  0  0  0  0
  2  5  1  0  0  0  0
  5  6  2  0  0  0  0
  5  7  1  0  0  0  0
  7  8  1  0  0  0  0
  7  9  1  0  0  0  0
  9 10  1  0  0  0  0
  9 11  1  0  0  0  0
  9 26  1  0  0  0  0
 11 12  1  0  0  0  0
 11 13  1  0  0  0  0
 11 14  1  0  0  0  0
 14 15  1  0  0  0  0
 14 16  1  0  0  0  0
 14 17  1  0  0  0  0
 17 18  1  0  0  0  0
 17 19  1  0  0  0  0
 17 20  1  0  0  0  0
 20 21  1  0  0  0  0
 20 22  1  0  0  0  0
 20 23  1  0  0  0  0
 23 24  1  0  0  0  0
 23 25  1  0  0  0  0
 26 27  2  0  0  0  0
 26 28  1  0  0  0  0
 28 29  1  0  0  0  0
 28 30  1  0  0  0  0
 30 31  1  0  0  0  0
 30 32  1  0  0  0  0
 30 33  1  0  0  0  0
M  END
$$$$

  -OEChem-03222214063D

 33 32  0     1  0  0  0  0  0999 V2000
   -3.6567   -4.0379    1.6523 H   0  0  0  0  0  0  0  0  0  0  0  0
   -3.6605   -3.0478    1.1882 C   0  0  0  0  0  0  0  0  0  0  0  0
   -4.3685   -2.4102    1.7233 H   0  0  0  0  0  0  0  0  0  0  0  0
   -3.9830   -3.1468    0.1489 H   0  0  0  0  0  0  0  0  0  0  0  0
   -2.2724   -2.4389    1.2416 C   0  0  0  0  0  0  0  0  0  0  0  0
   -1.3527   -3.0587    1.7539 O   0  0  0  0  0  0  0  0  0  0  0  0
   -2.0583   -1.1849    0.7095 N   0  0  0  0  0  0  0  0  0  0  0  0
   -2.8696   -0.6696    0.3717 H   0  0  0  0  0  0  0  0  0  0  0  0
   -0.7821   -0.4603    0.7641 C   0  0  1  0  0  0  0  0  0  0  0  0
   -0.1336   -0.8899    1.5334 H   0  0  0  0  0  0  0  0  0  0  0  0
   -0.1087   -0.5380   -0.6251 C   0  0  0  0  0  0  0  0  0  0  0  0
   -0.8459   -0.7770   -1.3996 H   0  0  0  0  0  0  0  0  0  0  0  0
    0.2909    0.4505   -0.8759 H   0  0  0  0  0  0  0  0  0  0  0  0
    1.0711   -1.5276   -0.6614 C   0  0  0  0  0  0  0  0  0  0  0  0
    1.9043   -1.0640   -1.2000 H   0  0  0  0  0  0  0  0  0  0  0  0
    1.4267   -1.7615    0.3470 H   0  0  0  0  0  0  0  0  0  0  0  0
    0.6768   -2.8164   -1.3920 C   0  0  0  0  0  0  0  0  0  0  0  0
   -0.1934   -3.2635   -0.9010 H   0  0  0  0  0  0  0  0  0  0  0  0
    0.4010   -2.5853   -2.4262 H   0  0  0  0  0  0  0  0  0  0  0  0
    1.8262   -3.8186   -1.3862 C   0  0  0  0  0  0  0  0  0  0  0  0
    2.7050   -3.3868   -1.8780 H   0  0  0  0  0  0  0  0  0  0  0  0
    2.0998   -4.0679   -0.3546 H   0  0  0  0  0  0  0  0  0  0  0  0
    1.3960   -5.0249   -2.0991 N   0  0  0  0  0  0  0  0  0  0  0  0
    2.1352   -5.7271   -2.1133 H   0  0  0  0  0  0  0  0  0  0  0  0
    0.5438   -5.4042   -1.6856 H   0  0  0  0  0  0  0  0  0  0  0  0
   -1.0323    1.0071    1.1662 C   0  0  0  0  0  0  0  0  0  0  0  0
   -1.9707    1.6249    0.6755 O   0  0  0  0  0  0  0  0  0  0  0  0
   -0.2350    1.6210    2.1144 N   0  0  0  0  0  0  0  0  0  0  0  0
    0.5008    1.0662    2.5423 H   0  0  0  0  0  0  0  0  0  0  0  0
   -0.4457    2.9885    2.5724 C   0  0  0  0  0  0  0  0  0  0  0  0
   -1.4415    3.0950    3.0154 H   0  0  0  0  0  0  0  0  0  0  0  0
    0.2993    3.2531    3.3288 H   0  0  0  0  0  0  0  0  0  0  0  0
   -0.3542    3.6902    1.7366 H   0  0  0  0  0  0  0  0  0  0  0  0
  1  2  1  0  0  0  0
  2  3  1  0  0  0  0
  2  4  1  0  0  0  0
  2  5  1  0  0  0  0
  5  6  2  0  0  0  0
  5  7  1  0  0  0  0
  7  8  1  0  0  0  0
  7  9  1  0  0  0  0
  9 10  1  0  0  0  0
  9 11  1  0  0  0  0
  9 26  1  0  0  0  0
 11 12  1  0  0  0  0
 11 13  1  0  0  0  0
 11 14  1  0  0  0  0
 14 15  1  0  0  0  0
 14 16  1  0  0  0  0
 14 17  1  0  0  0  0
 17 18  1  0  0  0  0
 17 19  1  0  0  0  0
 17 20  1  0  0  0  0
 20 21  1  0  0  0  0
 20 22  1  0  0  0  0
 20 23  1  0  0  0  0
 23 24  1  0  0  0  0
 23 25  1  0  0  0  0
 26 27  2  0  0  0  0
 26 28  1  0  0  0  0
 28 29  1  0  0  0  0
 28 30  1  0  0  0  0
 30 31  1  0  0  0  0
 30 32  1  0  0  0  0
 30 33  1  0  0  0  0
M  END
$$$$

  -OEChem-03222214063D

 33 32  0     1  0  0  0  0  0999 V2000
   -3.6823   -4.0221    1.6587 H   0  0  0  0  0  0  0  0  0  0  0  0
   -3.6840   -3.0321    1.1944 C   0  0  0  0  0  0  0  0  0  0  0  0
   -4.3795   -2.3887    1.7388 H   0  0  0  0  0  0  0  0  0  0  0  0
   -4.0211   -3.1287    0.1595 H   0  0  0  0  0  0  0  0  0  0  0  0
   -2.2898   -2.4351    1.2298 C   0  0  0  0  0  0  0  0  0  0  0  0
   -1.3670   -3.0664    1.7219 O   0  0  0  0  0  0  0  0  0  0  0  0
   -2.0712   -1.1809    0.6999 N   0  0  0  0  0  0  0  0  0  0  0  0
   -2.8827   -0.6558    0.3781 H   0  0  0  0  0  0  0  0  0  0  0  0
   -0.7920   -0.4612    0.7604 C   0  0  1  0  0  0  0  0  0  0  0  0
   -0.1496   -0.8914    1.5344 H   0  0  0  0  0  0  0  0  0  0  0  0
   -0.1114   -0.5445   -0.6243 C   0  0  0  0  0  0  0  0  0  0  0  0
   -0.8528   -0.7955   -1.3911 H   0  0  0  0  0  0  0  0  0  0  0  0
    0.2844    0.4412   -0.8924 H   0  0  0  0  0  0  0  0  0  0  0  0
    1.0655   -1.5408   -0.6510 C   0  0  0  0  0  0  0  0  0  0  0  0
    1.9843   -1.0048   -0.9115 H   0  0  0  0  0  0  0  0  0  0  0  0
    1.2200   -1.9978    0.3317 H   0  0  0  0  0  0  0  0  0  0  0  0
    0.8149   -2.6497   -1.6789 C   0  0  0  0  0  0  0  0  0  0  0  0
   -0.1157   -3.1716   -1.4320 H   0  0  0  0  0  0  0  0  0  0  0  0
    0.7048   -2.2102   -2.6758 H   0  0  0  0  0  0  0  0  0  0  0  0
    1.9656   -3.6507   -1.6917 C   0  0  0  0  0  0  0  0  0  0  0  0
    2.9038   -3.1422   -1.9398 H   0  0  0  0  0  0  0  0  0  0  0  0
    2.0763   -4.1076   -0.7017 H   0  0  0  0  0  0  0  0  0  0  0  0
    1.6753   -4.6806   -2.6934 N   0  0  0  0  0  0  0  0  0  0  0  0
    2.4203   -5.3759   -2.7332 H   0  0  0  0  0  0  0  0  0  0  0  0
    0.7752   -5.1234   -2.5080 H   0  0  0  0  0  0  0  0  0  0  0  0
   -1.0343    1.0074    1.1635 C   0  0  0  0  0  0  0  0  0  0  0  0
   -1.9707    1.6290    0.6741 O   0  0  0  0  0  0  0  0  0  0  0  0
   -0.2367    1.6162    2.1148 N   0  0  0  0  0  0  0  0  0  0  0  0
    0.5025    1.0609    2.5361 H   0  0  0  0  0  0  0  0  0  0  0  0
   -0.4381    2.9861    2.5705 C   0  0  0  0  0  0  0  0  0  0  0  0
   -1.4344    3.1010    3.0105 H   0  0  0  0  0  0  0  0  0  0  0  0
    0.3067    3.2460    3.3290 H   0  0  0  0  0  0  0  0  0  0  0  0
   -0.3387    3.6862    1.7342 H   0  0  0  0  0  0  0  0  0  0  0  0
  1  2  1  0  0  0  0
  2  3  1  0  0  0  0
  2  4  1  0  0  0  0
  2  5  1  0  0  0  0
  5  6  2  0  0  0  0
  5  7  1  0  0  0  0
  7  8  1  0  0  0  0
  7  9  1  0  0  0  0
  9 10  1  0  0  0  0
  9 11  1  0  0  0  0
  9 26  1  0  0  0  0
 11 12  1  0  0  0  0
 11 13  1  0  0  0  0
 11 14  1  0  0  0  0
 14 15  1  0  0  0  0
 14 16  1  0  0  0  0
 14 17  1  0  0  0  0
 17 18  1  0  0  0  0
 17 19  1  0  0  0  0
 17 20  1  0  0  0  0
 20 21  1  0  0  0  0
 20 22  1  0  0  0  0
 20 23  1  0  0  0  0
 23 24  1  0  0  0  0
 23 25  1  0  0  0  0
 26 27  2  0  0  0  0
 26 28  1  0  0  0  0
 28 29  1  0  0  0  0
 28 30  1  0  0  0  0
 30 31  1  0  0  0  0
 30 32  1  0  0  0  0
 30 33  1  0  0  0  0
M  END
$$$$

  -OEChem-03222214063D

 33 32  0     1  0  0  0  0  0999 V2000
   -3.7095   -4.0097    1.6667 H   0  0  0  0  0  0  0  0  0  0  0  0
   -3.7069   -3.0202    1.2014 C   0  0  0  0  0  0  0  0  0  0  0  0
   -4.3963   -2.3721    1.7479 H   0  0  0  0  0  0  0  0  0  0  0  0
   -4.0489   -3.1161    0.1681 H   0  0  0  0  0  0  0  0  0  0  0  0
   -2.3090   -2.4318    1.2314 C   0  0  0  0  0  0  0  0  0  0  0  0
   -1.3901   -3.0659    1.7270 O   0  0  0  0  0  0  0  0  0  0  0  0
   -2.0838   -1.1788    0.7018 N   0  0  0  0  0  0  0  0  0  0  0  0
   -2.8927   -0.6480    0.3824 H   0  0  0  0  0  0  0  0  0  0  0  0
   -0.7992   -0.4680    0.7569 C   0  0  1  0  0  0  0  0  0  0  0  0
   -0.1523   -0.9033    1.5248 H   0  0  0  0  0  0  0  0  0  0  0  0
   -0.1201   -0.5449   -0.6287 C   0  0  0  0  0  0  0  0  0  0  0  0
   -0.8686   -0.8100   -1.3834 H   0  0  0  0  0  0  0  0  0  0  0  0
    0.2711    0.4382   -0.9128 H   0  0  0  0  0  0  0  0  0  0  0  0
    1.0491   -1.5484   -0.6528 C   0  0  0  0  0  0  0  0  0  0  0  0
    1.9994   -1.0060   -0.6079 H   0  0  0  0  0  0  0  0  0  0  0  0
    1.0021   -2.2100    0.2187 H   0  0  0  0  0  0  0  0  0  0  0  0
    0.9940   -2.4241   -1.9101 C   0  0  0  0  0  0  0  0  0  0  0  0
    0.0459   -2.9712   -1.9349 H   0  0  0  0  0  0  0  0  0  0  0  0
    1.0438   -1.7906   -2.8019 H   0  0  0  0  0  0  0  0  0  0  0  0
    2.1506   -3.4187   -1.9302 C   0  0  0  0  0  0  0  0  0  0  0  0
    3.1066   -2.8839   -1.9151 H   0  0  0  0  0  0  0  0  0  0  0  0
    2.1064   -4.0625   -1.0446 H   0  0  0  0  0  0  0  0  0  0  0  0
    2.0491   -4.2274   -3.1486 N   0  0  0  0  0  0  0  0  0  0  0  0
    2.8026   -4.9126   -3.1999 H   0  0  0  0  0  0  0  0  0  0  0  0
    1.1389   -4.6840   -3.2075 H   0  0  0  0  0  0  0  0  0  0  0  0
   -1.0341    1.0006    1.1630 C   0  0  0  0  0  0  0  0  0  0  0  0
   -1.9710    1.6263    0.6795 O   0  0  0  0  0  0  0  0  0  0  0  0
   -0.2300    1.6043    2.1121 N   0  0  0  0  0  0  0  0  0  0  0  0
    0.5076    1.0449    2.5309 H   0  0  0  0  0  0  0  0  0  0  0  0
   -0.4199    2.9768    2.5643 C   0  0  0  0  0  0  0  0  0  0  0  0
   -1.4139    3.1003    3.0069 H   0  0  0  0  0  0  0  0  0  0  0  0
    0.3291    3.2340    3.3192 H   0  0  0  0  0  0  0  0  0  0  0  0
   -0.3182    3.6730    1.7251 H   0  0  0  0  0  0  0  0  0  0  0  0
  1  2  1  0  0  0  0
  2  3  1  0  0  0  0
  2  4  1  0  0  0  0
  2  5  1  0  0  0  0
  5  6  2  0  0  0  0
  5  7  1  0  0  0  0
  7  8  1  0  0  0  0
  7  9  1  0  0  0  0
  9 10  1  0  0  0  0
  9 11  1  0  0  0  0
  9 26  1  0  0  0  0
 11 12  1  0  0  0  0
 11 13  1  0  0  0  0
 11 14  1  0  0  0  0
 14 15  1  0  0  0  0
 14 16  1  0  0  0  0
 14 17  1  0  0  0  0
 17 18  1  0  0  0  0
 17 19  1  0  0  0  0
 17 20  1  0  0  0  0
 20 21  1  0  0  0  0
 20 22  1  0  0  0  0
 20 23  1  0  0  0  0
 23 24  1  0  0  0  0
 23 25  1  0  0  0  0
 26 27  2  0  0  0  0
 26 28  1  0  0  0  0
 28 29  1  0  0  0  0
 28 30  1  0  0  0  0
 30 31  1  0  0  0  0
 30 32  1  0  0  0  0
 30 33  1  0  0  0  0
M  END
$$$$

  -OEChem-03222214063D

 33 32  0     1  0  0  0  0  0999 V2000
   -3.7188   -4.0087    1.6679 H   0  0  0  0  0  0  0  0  0  0  0  0
   -3.7161   -3.0195    1.2019 C   0  0  0  0  0  0  0  0  0  0  0  0
   -4.4015   -2.3693    1.7509 H   0  0  0  0  0  0  0  0  0  0  0  0
   -4.0636   -3.1151    0.1704 H   0  0  0  0  0  0  0  0  0  0  0  0
   -2.3164   -2.4346    1.2240 C   0  0  0  0  0  0  0  0  0  0  0  0
   -1.3951   -3.0743    1.7077 O   0  0  0  0  0  0  0  0  0  0  0  0
   -2.0925   -1.1792    0.6992 N   0  0  0  0  0  0  0  0  0  0  0  0
   -2.9031   -0.6457    0.3888 H   0  0  0  0  0  0  0  0  0  0  0  0
   -0.8064   -0.4699    0.7449 C   0  0  1  0  0  0  0  0  0  0  0  0
   -0.1511   -0.9142    1.5012 H   0  0  0  0  0  0  0  0  0  0  0  0
   -0.1362   -0.5399   -0.6441 C   0  0  0  0  0  0  0  0  0  0  0  0
   -0.8873   -0.8172   -1.3918 H   0  0  0  0  0  0  0  0  0  0  0  0
    0.2513    0.4424   -0.9355 H   0  0  0  0  0  0  0  0  0  0  0  0
    1.0272   -1.5446   -0.6614 C   0  0  0  0  0  0  0  0  0  0  0  0
    1.9494   -1.0474   -0.3436 H   0  0  0  0  0  0  0  0  0  0  0  0
    0.8245   -2.3591    0.0429 H   0  0  0  0  0  0  0  0  0  0  0  0
    1.1981   -2.1585   -2.0553 C   0  0  0  0  0  0  0  0  0  0  0  0
    0.2769   -2.6732   -2.3472 H   0  0  0  0  0  0  0  0  0  0  0  0
    1.3886   -1.3645   -2.7850 H   0  0  0  0  0  0  0  0  0  0  0  0
    2.3576   -3.1497   -2.0723 C   0  0  0  0  0  0  0  0  0  0  0  0
    3.2887   -2.6438   -1.7934 H   0  0  0  0  0  0  0  0  0  0  0  0
    2.1761   -3.9524   -1.3487 H   0  0  0  0  0  0  0  0  0  0  0  0
    2.4755   -3.7042   -3.4240 N   0  0  0  0  0  0  0  0  0  0  0  0
    3.2360   -4.3814   -3.4798 H   0  0  0  0  0  0  0  0  0  0  0  0
    1.5948   -4.1215   -3.7251 H   0  0  0  0  0  0  0  0  0  0  0  0
   -1.0326    0.9973    1.1608 C   0  0  0  0  0  0  0  0  0  0  0  0
   -1.9739    1.6274    0.6919 O   0  0  0  0  0  0  0  0  0  0  0  0
   -0.2168    1.5943    2.1040 N   0  0  0  0  0  0  0  0  0  0  0  0
    0.5281    1.0330    2.5068 H   0  0  0  0  0  0  0  0  0  0  0  0
   -0.3973    2.9650    2.5659 C   0  0  0  0  0  0  0  0  0  0  0  0
   -1.3878    3.0915    3.0158 H   0  0  0  0  0  0  0  0  0  0  0  0
    0.3577    3.2135    3.3180 H   0  0  0  0  0  0  0  0  0  0  0  0
   -0.2970    3.6658    1.7303 H   0  0  0  0  0  0  0  0  0  0  0  0
  1  2  1  0  0  0  0
  2  3  1  0  0  0  0
  2  4  1  0  0  0  0
  2  5  1  0  0  0  0
  5  6  2  0  0  0  0
  5  7  1  0  0  0  0
  7  8  1  0  0  0  0
  7  9  1  0  0  0  0
  9 10  1  0  0  0  0
  9 11  1  0  0  0  0
  9 26  1  0  0  0  0
 11 12  1  0  0  0  0
 11 13  1  0  0  0  0
 11 14  1  0  0  0  0
 14 15  1  0  0  0  0
 14 16  1  0  0  0  0
 14 17  1  0  0  0  0
 17 18  1  0  0  0  0
 17 19  1  0  0  0  0
 17 20  1  0  0  0  0
 20 21  1  0  0  0  0
 20 22  1  0  0  0  0
 20 23  1  0  0  0  0
 23 24  1  0  0  0  0
 23 25  1  0  0  0  0
 26 27  2  0  0  0  0
 26 28  1  0  0  0  0
 28 29  1  0  0  0  0
 28 30  1  0  0  0  0
 30 31  1  0  0  0  0
 30 32  1  0  0  0  0
 30 33  1  0  0  0  0
M  END
$$$$

  -OEChem-03222214063D

 33 32  0     1  0  0  0  0  0999 V2000
   -3.7176   -4.0067    1.6758 H   0  0  0  0  0  0  0  0  0  0  0  0
   -3.7179   -3.0179    1.2087 C   0  0  0  0  0  0  0  0  0  0  0  0
   -4.3938   -2.3651    1.7664 H   0  0  0  0  0  0  0  0  0  0  0  0
   -4.0792   -3.1134    0.1819 H   0  0  0  0  0  0  0  0  0  0  0  0
   -2.3161   -2.4375    1.2123 C   0  0  0  0  0  0  0  0  0  0  0  0
   -1.3902   -3.0817    1.6808 O   0  0  0  0  0  0  0  0  0  0  0  0
   -2.0957   -1.1796    0.6920 N   0  0  0  0  0  0  0  0  0  0  0  0
   -2.9094   -0.6423    0.3962 H   0  0  0  0  0  0  0  0  0  0  0  0
   -0.8095   -0.4701    0.7325 C   0  0  1  0  0  0  0  0  0  0  0  0
   -0.1492   -0.9206    1.4810 H   0  0  0  0  0  0  0  0  0  0  0  0
   -0.1457   -0.5342   -0.6586 C   0  0  0  0  0  0  0  0  0  0  0  0
   -0.8932   -0.8128   -1.4093 H   0  0  0  0  0  0  0  0  0  0  0  0
    0.2435    0.4495   -0.9430 H   0  0  0  0  0  0  0  0  0  0  0  0
    1.0140   -1.5382   -0.6725 C   0  0  0  0  0  0  0  0  0  0  0  0
    1.8657   -1.1272   -0.1206 H   0  0  0  0  0  0  0  0  0  0  0  0
    0.7020   -2.4628   -0.1742 H   0  0  0  0  0  0  0  0  0  0  0  0
    1.4246   -1.8712   -2.1106 C   0  0  0  0  0  0  0  0  0  0  0  0
    0.5699   -2.2909   -2.6510 H   0  0  0  0  0  0  0  0  0  0  0  0
    1.7343   -0.9554   -2.6249 H   0  0  0  0  0  0  0  0  0  0  0  0
    2.5751   -2.8730   -2.1269 C   0  0  0  0  0  0  0  0  0  0  0  0
    3.4394   -2.4615   -1.5938 H   0  0  0  0  0  0  0  0  0  0  0  0
    2.2738   -3.7986   -1.6235 H   0  0  0  0  0  0  0  0  0  0  0  0
    2.9334   -3.1485   -3.5215 N   0  0  0  0  0  0  0  0  0  0  0  0
    3.6953   -3.8241   -3.5799 H   0  0  0  0  0  0  0  0  0  0  0  0
    2.1222   -3.4692   -4.0503 H   0  0  0  0  0  0  0  0  0  0  0  0
   -1.0327    0.9950    1.1568 C   0  0  0  0  0  0  0  0  0  0  0  0
   -1.9788    1.6265    0.6994 O   0  0  0  0  0  0  0  0  0  0  0  0
   -0.2102    1.5869    2.0974 N   0  0  0  0  0  0  0  0  0  0  0  0
    0.5414    1.0255    2.4874 H   0  0  0  0  0  0  0  0  0  0  0  0
   -0.3889    2.9545    2.5690 C   0  0  0  0  0  0  0  0  0  0  0  0
   -1.3752    3.0757    3.0293 H   0  0  0  0  0  0  0  0  0  0  0  0
    0.3731    3.2001    3.3149 H   0  0  0  0  0  0  0  0  0  0  0  0
   -0.2989    3.6605    1.7368 H   0  0  0  0  0  0  0  0  0  0  0  0
  1  2  1  0  0  0  0
  2  3  1  0  0  0  0
  2  4  1  0  0  0  0
  2  5  1  0  0  0  0
  5  6  2  0  0  0  0
  5  7  1  0  0  0  0
  7  8  1  0  0  0  0
  7  9  1  0  0  0  0
  9 10  1  0  0  0  0
  9 11  1  0  0  0  0
  9 26  1  0  0  0  0
 11 12  1  0  0  0  0
 11 13  1  0  0  0  0
 11 14  1  0  0  0  0
 14 15  1  0  0  0  0
 14 16  1  0  0  0  0
 14 17  1  0  0  0  0
 17 18  1  0  0  0  0
 17 19  1  0  0  0  0
 17 20  1  0  0  0  0
 20 21  1  0  0  0  0
 20 22  1  0  0  0  0
 20 23  1  0  0  0  0
 23 24  1  0  0  0  0
 23 25  1  0  0  0  0
 26 27  2  0  0  0  0
 26 28  1  0  0  0  0
 28 29  1  0  0  0  0
 28 30  1  0  0  0  0
 30 31  1  0  0  0  0
 30 32  1  0  0  0  0
 30 33  1  0  0  0  0
M  END
$$$$

  -OEChem-03222214063D

 33 32  0     1  0  0  0  0  0999 V2000
   -3.7335   -3.9981    1.6768 H   0  0  0  0  0  0  0  0  0  0  0  0
   -3.7237   -3.0091    1.2103 C   0  0  0  0  0  0  0  0  0  0  0  0
   -4.3984   -2.3516    1.7638 H   0  0  0  0  0  0  0  0  0  0  0  0
   -4.0791   -3.1016    0.1813 H   0  0  0  0  0  0  0  0  0  0  0  0
   -2.3182   -2.4380    1.2232 C   0  0  0  0  0  0  0  0  0  0  0  0
   -1.4005   -3.0848    1.7040 O   0  0  0  0  0  0  0  0  0  0  0  0
   -2.0860   -1.1849    0.6965 N   0  0  0  0  0  0  0  0  0  0  0  0
   -2.8949   -0.6449    0.3926 H   0  0  0  0  0  0  0  0  0  0  0  0
   -0.7973   -0.4802    0.7424 C   0  0  1  0  0  0  0  0  0  0  0  0
   -0.1357   -0.9296    1.4903 H   0  0  0  0  0  0  0  0  0  0  0  0
   -0.1363   -0.5425   -0.6467 C   0  0  0  0  0  0  0  0  0  0  0  0
   -0.9034   -0.5318   -1.4285 H   0  0  0  0  0  0  0  0  0  0  0  0
    0.4904    0.3440   -0.7921 H   0  0  0  0  0  0  0  0  0  0  0  0
    0.7526   -1.7843   -0.7852 C   0  0  0  0  0  0  0  0  0  0  0  0
    1.5323   -1.7690   -0.0165 H   0  0  0  0  0  0  0  0  0  0  0  0
    0.1490   -2.6857   -0.6353 H   0  0  0  0  0  0  0  0  0  0  0  0
    1.4007   -1.8282   -2.1725 C   0  0  0  0  0  0  0  0  0  0  0  0
    0.6222   -1.8414   -2.9421 H   0  0  0  0  0  0  0  0  0  0  0  0
    2.0101   -0.9308   -2.3228 H   0  0  0  0  0  0  0  0  0  0  0  0
    2.2796   -3.0663   -2.3198 C   0  0  0  0  0  0  0  0  0  0  0  0
    3.0653   -3.0630   -1.5560 H   0  0  0  0  0  0  0  0  0  0  0  0
    1.6775   -3.9719   -2.1845 H   0  0  0  0  0  0  0  0  0  0  0  0
    2.8819   -3.0529   -3.6563 N   0  0  0  0  0  0  0  0  0  0  0  0
    3.4749   -3.8699   -3.8017 H   0  0  0  0  0  0  0  0  0  0  0  0
    2.1653   -2.9905   -4.3794 H   0  0  0  0  0  0  0  0  0  0  0  0
   -1.0238    0.9880    1.1552 C   0  0  0  0  0  0  0  0  0  0  0  0
   -1.9664    1.6160    0.6854 O   0  0  0  0  0  0  0  0  0  0  0  0
   -0.2104    1.5872    2.0991 N   0  0  0  0  0  0  0  0  0  0  0  0
    0.5374    1.0287    2.5006 H   0  0  0  0  0  0  0  0  0  0  0  0
   -0.3972    2.9563    2.5635 C   0  0  0  0  0  0  0  0  0  0  0  0
   -1.3850    3.0750    3.0210 H   0  0  0  0  0  0  0  0  0  0  0  0
    0.3616    3.2093    3.3101 H   0  0  0  0  0  0  0  0  0  0  0  0
   -0.3082    3.6587    1.7281 H   0  0  0  0  0  0  0  0  0  0  0  0
  1  2  1  0  0  0  0
  2  3  1  0  0  0  0
  2  4  1  0  0  0  0
  2  5  1  0  0  0  0
  5  6  2  0  0  0  0
  5  7  1  0  0  0  0
  7  8  1  0  0  0  0
  7  9  1  0  0  0  0
  9 10  1  0  0  0  0
  9 11  1  0  0  0  0
  9 26  1  0  0  0  0
 11 12  1  0  0  0  0
 11 13  1  0  0  0  0
 11 14  1  0  0  0  0
 14 15  1  0  0  0  0
 14 16  1  0  0  0  0
 14 17  1  0  0  0  0
 17 18  1  0  0  0  0
 17 19  1  0  0  0  0
 17 20  1  0  0  0  0
 20 21  1  0  0  0  0
 20 22  1  0  0  0  0
 20 23  1  0  0  0  0
 23 24  1  0  0  0  0
 23 25  1  0  0  0  0
 26 27  2  0  0  0  0
 26 28  1  0  0  0  0
 28 29  1  0  0  0  0
 28 30  1  0  0  0  0
 30 31  1  0  0  0  0
 30 32  1  0  0  0  0
 30 33  1  0  0  0  0
M  END
$$$$

  -OEChem-03222214063D

 33 32  0     1  0  0  0  0  0999 V2000
   -3.7210   -3.9976    1.6797 H   0  0  0  0  0  0  0  0  0  0  0  0
   -3.7167   -3.0090    1.2121 C   0  0  0  0  0  0  0  0  0  0  0  0
   -4.3844   -2.3514    1.7740 H   0  0  0  0  0  0  0  0  0  0  0  0
   -4.0852   -3.1020    0.1876 H   0  0  0  0  0  0  0  0  0  0  0  0
   -2.3109   -2.4387    1.2067 C   0  0  0  0  0  0  0  0  0  0  0  0
   -1.3863   -3.0896    1.6683 O   0  0  0  0  0  0  0  0  0  0  0  0
   -2.0858   -1.1817    0.6864 N   0  0  0  0  0  0  0  0  0  0  0  0
   -2.8986   -0.6384    0.3994 H   0  0  0  0  0  0  0  0  0  0  0  0
   -0.7995   -0.4739    0.7372 C   0  0  1  0  0  0  0  0  0  0  0  0
   -0.1391   -0.9231    1.4861 H   0  0  0  0  0  0  0  0  0  0  0  0
   -0.1409   -0.5334   -0.6535 C   0  0  0  0  0  0  0  0  0  0  0  0
   -0.9000   -0.5126   -1.4427 H   0  0  0  0  0  0  0  0  0  0  0  0
    0.4858    0.3559   -0.7823 H   0  0  0  0  0  0  0  0  0  0  0  0
    0.7513   -1.7738   -0.7994 C   0  0  0  0  0  0  0  0  0  0  0  0
    1.3688   -1.8960    0.0966 H   0  0  0  0  0  0  0  0  0  0  0  0
    0.1226   -2.6654   -0.8966 H   0  0  0  0  0  0  0  0  0  0  0  0
    1.6743   -1.6393   -2.0150 C   0  0  0  0  0  0  0  0  0  0  0  0
    1.0728   -1.4962   -2.9184 H   0  0  0  0  0  0  0  0  0  0  0  0
    2.3192   -0.7625   -1.8950 H   0  0  0  0  0  0  0  0  0  0  0  0
    2.5419   -2.8842   -2.1729 C   0  0  0  0  0  0  0  0  0  0  0  0
    3.1482   -3.0360   -1.2729 H   0  0  0  0  0  0  0  0  0  0  0  0
    1.9089   -3.7682   -2.3097 H   0  0  0  0  0  0  0  0  0  0  0  0
    3.4134   -2.7008   -3.3375 N   0  0  0  0  0  0  0  0  0  0  0  0
    4.0124   -3.5137   -3.4817 H   0  0  0  0  0  0  0  0  0  0  0  0
    2.8671   -2.4988   -4.1747 H   0  0  0  0  0  0  0  0  0  0  0  0
   -1.0284    0.9917    1.1580 C   0  0  0  0  0  0  0  0  0  0  0  0
   -1.9738    1.6194    0.6937 O   0  0  0  0  0  0  0  0  0  0  0  0
   -0.2163    1.5870    2.1055 N   0  0  0  0  0  0  0  0  0  0  0  0
    0.5366    1.0296    2.4991 H   0  0  0  0  0  0  0  0  0  0  0  0
   -0.4030    2.9544    2.5751 C   0  0  0  0  0  0  0  0  0  0  0  0
   -1.3926    3.0732    3.0287 H   0  0  0  0  0  0  0  0  0  0  0  0
    0.3529    3.2028    3.3262 H   0  0  0  0  0  0  0  0  0  0  0  0
   -0.3094    3.6605    1.7433 H   0  0  0  0  0  0  0  0  0  0  0  0
  1  2  1  0  0  0  0
  2  3  1  0  0  0  0
  2  4  1  0  0  0  0
  2  5  1  0  0  0  0
  5  6  2  0  0  0  0
  5  7  1  0  0  0  0
  7  8  1  0  0  0  0
  7  9  1  0  0  0  0
  9 10  1  0  0  0  0
  9 11  1  0  0  0  0
  9 26  1  0  0  0  0
 11 12  1  0  0  0  0
 11 13  1  0  0  0  0
 11 14  1  0  0  0  0
 14 15  1  0  0  0  0
 14 16  1  0  0  0  0
 14 17  1  0  0  0  0
 17 18  1  0  0  0  0
 17 19  1  0  0  0  0
 17 20  1  0  0  0  0
 20 21  1  0  0  0  0
 20 22  1  0  0  0  0
 20 23  1  0  0  0  0
 23 24  1  0  0  0  0
 23 25  1  0  0  0  0
 26 27  2  0  0  0  0
 26 28  1  0  0  0  0
 28 29  1  0  0  0  0
 28 30  1  0  0  0  0
 30 31  1  0  0  0  0
 30 32  1  0  0  0  0
 30 33  1  0  0  0  0
M  END
$$$$

  -OEChem-03222214063D

 33 32  0     1  0  0  0  0  0999 V2000
   -3.7119   -4.0007    1.6741 H   0  0  0  0  0  0  0  0  0  0  0  0
   -3.7113   -3.0119    1.2071 C   0  0  0  0  0  0  0  0  0  0  0  0
   -4.3830   -2.3573    1.7678 H   0  0  0  0  0  0  0  0  0  0  0  0
   -4.0768   -3.1061    0.1817 H   0  0  0  0  0  0  0  0  0  0  0  0
   -2.3080   -2.4359    1.2054 C   0  0  0  0  0  0  0  0  0  0  0  0
   -1.3810   -3.0856    1.6641 O   0  0  0  0  0  0  0  0  0  0  0  0
   -2.0866   -1.1774    0.6873 N   0  0  0  0  0  0  0  0  0  0  0  0
   -2.9009   -0.6345    0.4036 H   0  0  0  0  0  0  0  0  0  0  0  0
   -0.8015   -0.4682    0.7412 C   0  0  1  0  0  0  0  0  0  0  0  0
   -0.1426   -0.9144    1.4928 H   0  0  0  0  0  0  0  0  0  0  0  0
   -0.1441   -0.5278   -0.6512 C   0  0  0  0  0  0  0  0  0  0  0  0
   -0.9009   -0.4997   -1.4424 H   0  0  0  0  0  0  0  0  0  0  0  0
    0.4783    0.3658   -0.7711 H   0  0  0  0  0  0  0  0  0  0  0  0
    0.7531   -1.7673   -0.8108 C   0  0  0  0  0  0  0  0  0  0  0  0
    1.1794   -2.0538    0.1562 H   0  0  0  0  0  0  0  0  0  0  0  0
    0.1473   -2.6077   -1.1657 H   0  0  0  0  0  0  0  0  0  0  0  0
    1.9099   -1.4921   -1.7779 C   0  0  0  0  0  0  0  0  0  0  0  0
    1.5099   -1.1881   -2.7505 H   0  0  0  0  0  0  0  0  0  0  0  0
    2.5272   -0.6733   -1.3938 H   0  0  0  0  0  0  0  0  0  0  0  0
    2.7767   -2.7353   -1.9502 C   0  0  0  0  0  0  0  0  0  0  0  0
    3.1842   -3.0467   -0.9819 H   0  0  0  0  0  0  0  0  0  0  0  0
    2.1752   -3.5606   -2.3470 H   0  0  0  0  0  0  0  0  0  0  0  0
    3.8701   -2.4165   -2.8731 N   0  0  0  0  0  0  0  0  0  0  0  0
    4.4822   -3.2205   -3.0116 H   0  0  0  0  0  0  0  0  0  0  0  0
    3.5092   -2.0765   -3.7644 H   0  0  0  0  0  0  0  0  0  0  0  0
   -1.0335    0.9961    1.1647 C   0  0  0  0  0  0  0  0  0  0  0  0
   -1.9780    1.6244    0.6994 O   0  0  0  0  0  0  0  0  0  0  0  0
   -0.2228    1.5891    2.1147 N   0  0  0  0  0  0  0  0  0  0  0  0
    0.5318    1.0319    2.5052 H   0  0  0  0  0  0  0  0  0  0  0  0
   -0.4063    2.9575    2.5815 C   0  0  0  0  0  0  0  0  0  0  0  0
   -1.3995    3.0816    3.0256 H   0  0  0  0  0  0  0  0  0  0  0  0
    0.3441    3.2028    3.3391 H   0  0  0  0  0  0  0  0  0  0  0  0
   -0.3018    3.6617    1.7495 H   0  0  0  0  0  0  0  0  0  0  0  0
  1  2  1  0  0  0  0
  2  3  1  0  0  0  0
  2  4  1  0  0  0  0
  2  5  1  0  0  0  0
  5  6  2  0  0  0  0
  5  7  1  0  0  0  0
  7  8  1  0  0  0  0
  7  9  1  0  0  0  0
  9 10  1  0  0  0  0
  9 11  1  0  0  0  0
  9 26  1  0  0  0  0
 11 12  1  0  0  0  0
 11 13  1  0  0  0  0
 11 14  1  0  0  0  0
 14 15  1  0  0  0  0
 14 16  1  0  0  0  0
 14 17  1  0  0  0  0
 17 18  1  0  0  0  0
 17 19  1  0  0  0  0
 17 20  1  0  0  0  0
 20 21  1  0  0  0  0
 20 22  1  0  0  0  0
 20 23  1  0  0  0  0
 23 24  1  0  0  0  0
 23 25  1  0  0  0  0
 26 27  2  0  0  0  0
 26 28  1  0  0  0  0
 28 29  1  0  0  0  0
 28 30  1  0  0  0  0
 30 31  1  0  0  0  0
 30 32  1  0  0  0  0
 30 33  1  0  0  0  0
M  END
$$$$

  -OEChem-03222214063D

 33 32  0     1  0  0  0  0  0999 V2000
   -3.7141   -3.9993    1.6771 H   0  0  0  0  0  0  0  0  0  0  0  0
   -3.7125   -3.0096    1.2120 C   0  0  0  0  0  0  0  0  0  0  0  0
   -4.3818   -2.3545    1.7749 H   0  0  0  0  0  0  0  0  0  0  0  0
   -4.0803   -3.1009    0.1873 H   0  0  0  0  0  0  0  0  0  0  0  0
   -2.3083   -2.4357    1.2080 C   0  0  0  0  0  0  0  0  0  0  0  0
   -1.3814   -3.0866    1.6647 O   0  0  0  0  0  0  0  0  0  0  0  0
   -2.0870   -1.1771    0.6899 N   0  0  0  0  0  0  0  0  0  0  0  0
   -2.9024   -0.6332    0.4113 H   0  0  0  0  0  0  0  0  0  0  0  0
   -0.8020   -0.4671    0.7407 C   0  0  1  0  0  0  0  0  0  0  0  0
   -0.1407   -0.9115    1.4912 H   0  0  0  0  0  0  0  0  0  0  0  0
   -0.1457   -0.5228   -0.6528 C   0  0  0  0  0  0  0  0  0  0  0  0
   -0.9073   -0.4988   -1.4395 H   0  0  0  0  0  0  0  0  0  0  0  0
    0.4663    0.3774   -0.7780 H   0  0  0  0  0  0  0  0  0  0  0  0
    0.7563   -1.7603   -0.8243 C   0  0  0  0  0  0  0  0  0  0  0  0
    0.9648   -2.2224    0.1461 H   0  0  0  0  0  0  0  0  0  0  0  0
    0.2303   -2.5048   -1.4311 H   0  0  0  0  0  0  0  0  0  0  0  0
    2.0928   -1.3920   -1.4793 C   0  0  0  0  0  0  0  0  0  0  0  0
    1.9085   -0.9277   -2.4535 H   0  0  0  0  0  0  0  0  0  0  0  0
    2.6236   -0.6677   -0.8526 H   0  0  0  0  0  0  0  0  0  0  0  0
    2.9652   -2.6301   -1.6614 C   0  0  0  0  0  0  0  0  0  0  0  0
    3.1554   -3.1010   -0.6904 H   0  0  0  0  0  0  0  0  0  0  0  0
    2.4541   -3.3600   -2.2991 H   0  0  0  0  0  0  0  0  0  0  0  0
    4.2321   -2.2212   -2.2753 N   0  0  0  0  0  0  0  0  0  0  0  0
    4.8544   -3.0193   -2.4031 H   0  0  0  0  0  0  0  0  0  0  0  0
    4.0716   -1.7402   -3.1602 H   0  0  0  0  0  0  0  0  0  0  0  0
   -1.0346    0.9970    1.1649 C   0  0  0  0  0  0  0  0  0  0  0  0
   -1.9814    1.6241    0.7025 O   0  0  0  0  0  0  0  0  0  0  0  0
   -0.2224    1.5911    2.1130 N   0  0  0  0  0  0  0  0  0  0  0  0
    0.5320    1.0338    2.5040 H   0  0  0  0  0  0  0  0  0  0  0  0
   -0.4105    2.9570    2.5859 C   0  0  0  0  0  0  0  0  0  0  0  0
   -1.4026    3.0745    3.0345 H   0  0  0  0  0  0  0  0  0  0  0  0
    0.3413    3.2025    3.3421 H   0  0  0  0  0  0  0  0  0  0  0  0
   -0.3117    3.6657    1.7570 H   0  0  0  0  0  0  0  0  0  0  0  0
  1  2  1  0  0  0  0
  2  3  1  0  0  0  0
  2  4  1  0  0  0  0
  2  5  1  0  0  0  0
  5  6  2  0  0  0  0
  5  7  1  0  0  0  0
  7  8  1  0  0  0  0
  7  9  1  0  0  0  0
  9 10  1  0  0  0  0
  9 11  1  0  0  0  0
  9 26  1  0  0  0  0
 11 12  1  0  0  0  0
 11 13  1  0  0  0  0
 11 14  1  0  0  0  0
 14 15  1  0  0  0  0
 14 16  1  0  0  0  0
 14 17  1  0  0  0  0
 17 18  1  0  0  0  0
 17 19  1  0  0  0  0
 17 20  1  0  0  0  0
 20 21  1  0  0  0  0
 20 22  1  0  0  0  0
 20 23  1  0  0  0  0
 23 24  1  0  0  0  0
 23 25  1  0  0  0  0
 26 27  2  0  0  0  0
 26 28  1  0  0  0  0
 28 29  1  0  0  0  0
 28 30  1  0  0  0  0
 30 31  1  0  0  0  0
 30 32  1  0  0  0  0
 30 33  1  0  0  0  0
M  END
$$$$

  -OEChem-03222214063D

 33 32  0     1  0  0  0  0  0999 V2000
   -3.7071   -4.0120    1.6699 H   0  0  0  0  0  0  0  0  0  0  0  0
   -3.7071   -3.0230    1.2033 C   0  0  0  0  0  0  0  0  0  0  0  0
   -4.3856   -2.3715    1.7593 H   0  0  0  0  0  0  0  0  0  0  0  0
   -4.0645   -3.1187    0.1752 H   0  0  0  0  0  0  0  0  0  0  0  0
   -2.3063   -2.4409    1.2127 C   0  0  0  0  0  0  0  0  0  0  0  0
   -1.3815   -3.0866    1.6804 O   0  0  0  0  0  0  0  0  0  0  0  0
   -2.0876   -1.1800    0.6988 N   0  0  0  0  0  0  0  0  0  0  0  0
   -2.9032   -0.6420    0.4098 H   0  0  0  0  0  0  0  0  0  0  0  0
   -0.8034   -0.4669    0.7417 C   0  0  1  0  0  0  0  0  0  0  0  0
   -0.1324   -0.9143    1.4826 H   0  0  0  0  0  0  0  0  0  0  0  0
   -0.1548   -0.5096   -0.6561 C   0  0  0  0  0  0  0  0  0  0  0  0
   -0.9322   -0.5014   -1.4276 H   0  0  0  0  0  0  0  0  0  0  0  0
    0.4403    0.3985   -0.8022 H   0  0  0  0  0  0  0  0  0  0  0  0
    0.7507   -1.7430   -0.8412 C   0  0  0  0  0  0  0  0  0  0  0  0
    0.7331   -2.3768    0.0514 H   0  0  0  0  0  0  0  0  0  0  0  0
    0.3626   -2.3447   -1.6696 H   0  0  0  0  0  0  0  0  0  0  0  0
    2.1978   -1.3365   -1.1443 C   0  0  0  0  0  0  0  0  0  0  0  0
    2.2285   -0.7431   -2.0639 H   0  0  0  0  0  0  0  0  0  0  0  0
    2.5844   -0.7181   -0.3274 H   0  0  0  0  0  0  0  0  0  0  0  0
    3.0840   -2.5682   -1.3019 C   0  0  0  0  0  0  0  0  0  0  0  0
    3.0668   -3.1626   -0.3813 H   0  0  0  0  0  0  0  0  0  0  0  0
    2.7124   -3.1965   -2.1190 H   0  0  0  0  0  0  0  0  0  0  0  0
    4.4527   -2.1256   -1.5856 N   0  0  0  0  0  0  0  0  0  0  0  0
    5.0861   -2.9203   -1.6744 H   0  0  0  0  0  0  0  0  0  0  0  0
    4.4826   -1.5418   -2.4214 H   0  0  0  0  0  0  0  0  0  0  0  0
   -1.0344    0.9949    1.1735 C   0  0  0  0  0  0  0  0  0  0  0  0
   -1.9809    1.6255    0.7148 O   0  0  0  0  0  0  0  0  0  0  0  0
   -0.2146    1.5857    2.1170 N   0  0  0  0  0  0  0  0  0  0  0  0
    0.5445    1.0275    2.4980 H   0  0  0  0  0  0  0  0  0  0  0  0
   -0.3908    2.9540    2.5870 C   0  0  0  0  0  0  0  0  0  0  0  0
   -1.3832    3.0817    3.0318 H   0  0  0  0  0  0  0  0  0  0  0  0
    0.3609    3.1937    3.3451 H   0  0  0  0  0  0  0  0  0  0  0  0
   -0.2826    3.6598    1.7569 H   0  0  0  0  0  0  0  0  0  0  0  0
  1  2  1  0  0  0  0
  2  3  1  0  0  0  0
  2  4  1  0  0  0  0
  2  5  1  0  0  0  0
  5  6  2  0  0  0  0
  5  7  1  0  0  0  0
  7  8  1  0  0  0  0
  7  9  1  0  0  0  0
  9 10  1  0  0  0  0
  9 11  1  0  0  0  0
  9 26  1  0  0  0  0
 11 12  1  0  0  0  0
 11 13  1  0  0  0  0
 11 14  1  0  0  0  0
 14 15  1  0  0  0  0
 14 16  1  0  0  0  0
 14 17  1  0  0  0  0
 17 18  1  0  0  0  0
 17 19  1  0  0  0  0
 17 20  1  0  0  0  0
 20 21  1  0  0  0  0
 20 22  1  0  0  0  0
 20 23  1  0  0  0  0
 23 24  1  0  0  0  0
 23 25  1  0  0  0  0
 26 27  2  0  0  0  0
 26 28  1  0  0  0  0
 28 29  1  0  0  0  0
 28 30  1  0  0  0  0
 30 31  1  0  0  0  0
 30 32  1  0  0  0  0
 30 33  1  0  0  0  0
M  END
$$$$

  -OEChem-03222214063D

 33 32  0     1  0  0  0  0  0999 V2000
   -3.6987   -4.0233    1.6639 H   0  0  0  0  0  0  0  0  0  0  0  0
   -3.6997   -3.0327    1.2006 C   0  0  0  0  0  0  0  0  0  0  0  0
   -4.3810   -2.3844    1.7569 H   0  0  0  0  0  0  0  0  0  0  0  0
   -4.0543   -3.1257    0.1713 H   0  0  0  0  0  0  0  0  0  0  0  0
   -2.3003   -2.4471    1.2149 C   0  0  0  0  0  0  0  0  0  0  0  0
   -1.3768   -3.0904    1.6882 O   0  0  0  0  0  0  0  0  0  0  0  0
   -2.0842   -1.1849    0.7026 N   0  0  0  0  0  0  0  0  0  0  0  0
   -2.9020   -0.6497    0.4149 H   0  0  0  0  0  0  0  0  0  0  0  0
   -0.8007   -0.4684    0.7346 C   0  0  1  0  0  0  0  0  0  0  0  0
   -0.1210   -0.9210    1.4644 H   0  0  0  0  0  0  0  0  0  0  0  0
   -0.1585   -0.4983   -0.6663 C   0  0  0  0  0  0  0  0  0  0  0  0
   -0.9482   -0.5047   -1.4252 H   0  0  0  0  0  0  0  0  0  0  0  0
    0.4253    0.4145   -0.8296 H   0  0  0  0  0  0  0  0  0  0  0  0
    0.7490   -1.7268   -0.8564 C   0  0  0  0  0  0  0  0  0  0  0  0
    0.5259   -2.4943   -0.1085 H   0  0  0  0  0  0  0  0  0  0  0  0
    0.5457   -2.1652   -1.8389 H   0  0  0  0  0  0  0  0  0  0  0  0
    2.2304   -1.3383   -0.7879 C   0  0  0  0  0  0  0  0  0  0  0  0
    2.4641   -0.6321   -1.5912 H   0  0  0  0  0  0  0  0  0  0  0  0
    2.4361   -0.8460    0.1683 H   0  0  0  0  0  0  0  0  0  0  0  0
    3.1203   -2.5701   -0.9175 C   0  0  0  0  0  0  0  0  0  0  0  0
    2.9064   -3.2747   -0.1058 H   0  0  0  0  0  0  0  0  0  0  0  0
    2.9247   -3.0777   -1.8687 H   0  0  0  0  0  0  0  0  0  0  0  0
    4.5205   -2.1399   -0.8520 N   0  0  0  0  0  0  0  0  0  0  0  0
    5.1540   -2.9374   -0.9080 H   0  0  0  0  0  0  0  0  0  0  0  0
    4.7285   -1.4585   -1.5817 H   0  0  0  0  0  0  0  0  0  0  0  0
   -1.0280    0.9923    1.1712 C   0  0  0  0  0  0  0  0  0  0  0  0
   -1.9811    1.6219    0.7253 O   0  0  0  0  0  0  0  0  0  0  0  0
   -0.1991    1.5821    2.1073 N   0  0  0  0  0  0  0  0  0  0  0  0
    0.5649    1.0239    2.4783 H   0  0  0  0  0  0  0  0  0  0  0  0
   -0.3765    2.9463    2.5893 C   0  0  0  0  0  0  0  0  0  0  0  0
   -1.3646    3.0663    3.0460 H   0  0  0  0  0  0  0  0  0  0  0  0
    0.3823    3.1829    3.3413 H   0  0  0  0  0  0  0  0  0  0  0  0
   -0.2802    3.6598    1.7642 H   0  0  0  0  0  0  0  0  0  0  0  0
  1  2  1  0  0  0  0
  2  3  1  0  0  0  0
  2  4  1  0  0  0  0
  2  5  1  0  0  0  0
  5  6  2  0  0  0  0
  5  7  1  0  0  0  0
  7  8  1  0  0  0  0
  7  9  1  0  0  0  0
  9 10  1  0  0  0  0
  9 11  1  0  0  0  0
  9 26  1  0  0  0  0
 11 12  1  0  0  0  0
 11 13  1  0  0  0  0
 11 14  1  0  0  0  0
 14 15  1  0  0  0  0
 14 16  1  0  0  0  0
 14 17  1  0  0  0  0
 17 18  1  0  0  0  0
 17 19  1  0  0  0  0
 17 20  1  0  0  0  0
 20 21  1  0  0  0  0
 20 22  1  0  0  0  0
 20 23  1  0  0  0  0
 23 24  1  0  0  0  0
 23 25  1  0  0  0  0
 26 27  2  0  0  0  0
 26 28  1  0  0  0  0
 28 29  1  0  0  0  0
 28 30  1  0  0  0  0
 30 31  1  0  0  0  0
 30 32  1  0  0  0  0
 30 33  1  0  0  0  0
M  END
$$$$

  -OEChem-03222214063D

 33 32  0     1  0  0  0  0  0999 V2000
   -3.6805   -4.0314    1.6625 H   0  0  0  0  0  0  0  0  0  0  0  0
   -3.6856   -3.0401    1.2008 C   0  0  0  0  0  0  0  0  0  0  0  0
   -4.3646   -2.3939    1.7622 H   0  0  0  0  0  0  0  0  0  0  0  0
   -4.0462   -3.1318    0.1734 H   0  0  0  0  0  0  0  0  0  0  0  0
   -2.2872   -2.4526    1.2077 C   0  0  0  0  0  0  0  0  0  0  0  0
   -1.3599   -3.0963    1.6730 O   0  0  0  0  0  0  0  0  0  0  0  0
   -2.0776   -1.1880    0.6990 N   0  0  0  0  0  0  0  0  0  0  0  0
   -2.8989   -0.6542    0.4188 H   0  0  0  0  0  0  0  0  0  0  0  0
   -0.7973   -0.4656    0.7283 C   0  0  1  0  0  0  0  0  0  0  0  0
   -0.1157   -0.9200    1.4552 H   0  0  0  0  0  0  0  0  0  0  0  0
   -0.1563   -0.4890   -0.6734 C   0  0  0  0  0  0  0  0  0  0  0  0
   -0.9485   -0.5041   -1.4293 H   0  0  0  0  0  0  0  0  0  0  0  0
    0.4247    0.4242   -0.8427 H   0  0  0  0  0  0  0  0  0  0  0  0
    0.7553   -1.7111   -0.8625 C   0  0  0  0  0  0  0  0  0  0  0  0
    0.3662   -2.5697   -0.3061 H   0  0  0  0  0  0  0  0  0  0  0  0
    0.7612   -1.9850   -1.9226 H   0  0  0  0  0  0  0  0  0  0  0  0
    2.1934   -1.3978   -0.4311 C   0  0  0  0  0  0  0  0  0  0  0  0
    2.6008   -0.5992   -1.0595 H   0  0  0  0  0  0  0  0  0  0  0  0
    2.2006   -1.0493    0.6067 H   0  0  0  0  0  0  0  0  0  0  0  0
    3.0750   -2.6367   -0.5456 C   0  0  0  0  0  0  0  0  0  0  0  0
    2.6912   -3.4305    0.1054 H   0  0  0  0  0  0  0  0  0  0  0  0
    3.0695   -3.0090   -1.5760 H   0  0  0  0  0  0  0  0  0  0  0  0
    4.4386   -2.2750   -0.1458 N   0  0  0  0  0  0  0  0  0  0  0  0
    5.0567   -3.0863   -0.1705 H   0  0  0  0  0  0  0  0  0  0  0  0
    4.8035   -1.5219   -0.7286 H   0  0  0  0  0  0  0  0  0  0  0  0
   -1.0267    0.9928    1.1700 C   0  0  0  0  0  0  0  0  0  0  0  0
   -1.9828    1.6215    0.7292 O   0  0  0  0  0  0  0  0  0  0  0  0
   -0.1950    1.5817    2.1042 N   0  0  0  0  0  0  0  0  0  0  0  0
    0.5701    1.0228    2.4726 H   0  0  0  0  0  0  0  0  0  0  0  0
   -0.3768    2.9425    2.5937 C   0  0  0  0  0  0  0  0  0  0  0  0
   -1.3622    3.0542    3.0582 H   0  0  0  0  0  0  0  0  0  0  0  0
    0.3861    3.1806    3.3411 H   0  0  0  0  0  0  0  0  0  0  0  0
   -0.2911    3.6603    1.7710 H   0  0  0  0  0  0  0  0  0  0  0  0
  1  2  1  0  0  0  0
  2  3  1  0  0  0  0
  2  4  1  0  0  0  0
  2  5  1  0  0  0  0
  5  6  2  0  0  0  0
  5  7  1  0  0  0  0
  7  8  1  0  0  0  0
  7  9  1  0  0  0  0
  9 10  1  0  0  0  0
  9 11  1  0  0  0  0
  9 26  1  0  0  0  0
 11 12  1  0  0  0  0
 11 13  1  0  0  0  0
 11 14  1  0  0  0  0
 14 15  1  0  0  0  0
 14 16  1  0  0  0  0
 14 17  1  0  0  0  0
 17 18  1  0  0  0  0
 17 19  1  0  0  0  0
 17 20  1  0  0  0  0
 20 21  1  0  0  0  0
 20 22  1  0  0  0  0
 20 23  1  0  0  0  0
 23 24  1  0  0  0  0
 23 25  1  0  0  0  0
 26 27  2  0  0  0  0
 26 28  1  0  0  0  0
 28 29  1  0  0  0  0
 28 30  1  0  0  0  0
 30 31  1  0  0  0  0
 30 32  1  0  0  0  0
 30 33  1  0  0  0  0
M  END
$$$$

  -OEChem-03222214063D

 33 32  0     1  0  0  0  0  0999 V2000
   -3.6869   -4.0221    1.6591 H   0  0  0  0  0  0  0  0  0  0  0  0
   -3.6910   -3.0308    1.1977 C   0  0  0  0  0  0  0  0  0  0  0  0
   -4.3735   -2.3854    1.7558 H   0  0  0  0  0  0  0  0  0  0  0  0
   -4.0464   -3.1226    0.1686 H   0  0  0  0  0  0  0  0  0  0  0  0
   -2.2932   -2.4417    1.2113 C   0  0  0  0  0  0  0  0  0  0  0  0
   -1.3670   -3.0834    1.6813 O   0  0  0  0  0  0  0  0  0  0  0  0
   -2.0809   -1.1803    0.6956 N   0  0  0  0  0  0  0  0  0  0  0  0
   -2.9001   -0.6493    0.4041 H   0  0  0  0  0  0  0  0  0  0  0  0
   -0.8043   -0.4535    0.7463 C   0  0  1  0  0  0  0  0  0  0  0  0
   -0.1472   -0.9003    1.4977 H   0  0  0  0  0  0  0  0  0  0  0  0
   -0.1383   -0.4969   -0.6445 C   0  0  0  0  0  0  0  0  0  0  0  0
   -0.9155   -0.5110   -1.4160 H   0  0  0  0  0  0  0  0  0  0  0  0
    0.4517    0.4122   -0.8034 H   0  0  0  0  0  0  0  0  0  0  0  0
    0.7847   -1.7118   -0.8253 C   0  0  0  0  0  0  0  0  0  0  0  0
    0.2707   -2.6186   -0.4903 H   0  0  0  0  0  0  0  0  0  0  0  0
    1.0006   -1.8309   -1.8919 H   0  0  0  0  0  0  0  0  0  0  0  0
    2.1114   -1.5490   -0.0678 C   0  0  0  0  0  0  0  0  0  0  0  0
    2.6366   -0.6635   -0.4396 H   0  0  0  0  0  0  0  0  0  0  0  0
    1.9287   -1.4081    1.0011 H   0  0  0  0  0  0  0  0  0  0  0  0
    2.9922   -2.7798   -0.2536 C   0  0  0  0  0  0  0  0  0  0  0  0
    2.4948   -3.6607    0.1680 H   0  0  0  0  0  0  0  0  0  0  0  0
    3.1647   -2.9636   -1.3198 H   0  0  0  0  0  0  0  0  0  0  0  0
    4.2684   -2.5467    0.4304 N   0  0  0  0  0  0  0  0  0  0  0  0
    4.8696   -3.3691    0.3779 H   0  0  0  0  0  0  0  0  0  0  0  0
    4.7413   -1.7255    0.0539 H   0  0  0  0  0  0  0  0  0  0  0  0
   -1.0431    1.0084    1.1701 C   0  0  0  0  0  0  0  0  0  0  0  0
   -1.9890    1.6333    0.7030 O   0  0  0  0  0  0  0  0  0  0  0  0
   -0.2308    1.6052    2.1160 N   0  0  0  0  0  0  0  0  0  0  0  0
    0.5210    1.0465    2.5110 H   0  0  0  0  0  0  0  0  0  0  0  0
   -0.4220    2.9703    2.5893 C   0  0  0  0  0  0  0  0  0  0  0  0
   -1.4137    3.0845    3.0395 H   0  0  0  0  0  0  0  0  0  0  0  0
    0.3307    3.2173    3.3440 H   0  0  0  0  0  0  0  0  0  0  0  0
   -0.3268    3.6796    1.7604 H   0  0  0  0  0  0  0  0  0  0  0  0
  1  2  1  0  0  0  0
  2  3  1  0  0  0  0
  2  4  1  0  0  0  0
  2  5  1  0  0  0  0
  5  6  2  0  0  0  0
  5  7  1  0  0  0  0
  7  8  1  0  0  0  0
  7  9  1  0  0  0  0
  9 10  1  0  0  0  0
  9 11  1  0  0  0  0
  9 26  1  0  0  0  0
 11 12  1  0  0  0  0
 11 13  1  0  0  0  0
 11 14  1  0  0  0  0
 14 15  1  0  0  0  0
 14 16  1  0  0  0  0
 14 17  1  0  0  0  0
 17 18  1  0  0  0  0
 17 19  1  0  0  0  0
 17 20  1  0  0  0  0
 20 21  1  0  0  0  0
 20 22  1  0  0  0  0
 20 23  1  0  0  0  0
 23 24  1  0  0  0  0
 23 25  1  0  0  0  0
 26 27  2  0  0  0  0
 26 28  1  0  0  0  0
 28 29  1  0  0  0  0
 28 30  1  0  0  0  0
 30 31  1  0  0  0  0
 30 32  1  0  0  0  0
 30 33  1  0  0  0  0
M  END
$$$$

  -OEChem-03222214063D

 33 32  0     1  0  0  0  0  0999 V2000
   -3.7647   -3.9705    1.6549 H   0  0  0  0  0  0  0  0  0  0  0  0
   -3.7468   -2.9798    1.1921 C   0  0  0  0  0  0  0  0  0  0  0  0
   -4.4400   -2.3273    1.7285 H   0  0  0  0  0  0  0  0  0  0  0  0
   -4.0721   -3.0706    0.1530 H   0  0  0  0  0  0  0  0  0  0  0  0
   -2.3451   -2.4023    1.2469 C   0  0  0  0  0  0  0  0  0  0  0  0
   -1.4437   -3.0392    1.7685 O   0  0  0  0  0  0  0  0  0  0  0  0
   -2.0993   -1.1582    0.7054 N   0  0  0  0  0  0  0  0  0  0  0  0
   -2.8995   -0.6277    0.3649 H   0  0  0  0  0  0  0  0  0  0  0  0
   -0.8166   -0.4461    0.7863 C   0  0  1  0  0  0  0  0  0  0  0  0
   -0.1969   -0.8711    1.5779 H   0  0  0  0  0  0  0  0  0  0  0  0
   -0.1143   -0.5403   -0.5849 C   0  0  0  0  0  0  0  0  0  0  0  0
   -0.8665   -0.5412   -1.3808 H   0  0  0  0  0  0  0  0  0  0  0  0
    0.5008    0.3543   -0.7306 H   0  0  0  0  0  0  0  0  0  0  0  0
    0.8056   -1.7632   -0.7500 C   0  0  0  0  0  0  0  0  0  0  0  0
    0.2057   -2.6752   -0.6600 H   0  0  0  0  0  0  0  0  0  0  0  0
    1.2230   -1.7407   -1.7619 H   0  0  0  0  0  0  0  0  0  0  0  0
    1.9568   -1.8196    0.2682 C   0  0  0  0  0  0  0  0  0  0  0  0
    2.4995   -0.8690    0.2571 H   0  0  0  0  0  0  0  0  0  0  0  0
    1.5742   -1.9843    1.2788 H   0  0  0  0  0  0  0  0  0  0  0  0
    2.9158   -2.9572   -0.0680 C   0  0  0  0  0  0  0  0  0  0  0  0
    2.3945   -3.9178    0.0131 H   0  0  0  0  0  0  0  0  0  0  0  0
    3.2814   -2.8541   -1.0956 H   0  0  0  0  0  0  0  0  0  0  0  0
    4.0417   -2.9137    0.8709 N   0  0  0  0  0  0  0  0  0  0  0  0
    4.6806   -3.6938    0.7171 H   0  0  0  0  0  0  0  0  0  0  0  0
    4.5338   -2.0226    0.8139 H   0  0  0  0  0  0  0  0  0  0  0  0
   -1.0556    1.0292    1.1611 C   0  0  0  0  0  0  0  0  0  0  0  0
   -1.9741    1.6520    0.6395 O   0  0  0  0  0  0  0  0  0  0  0  0
   -0.2744    1.6432    2.1223 N   0  0  0  0  0  0  0  0  0  0  0  0
    0.4448    1.0830    2.5722 H   0  0  0  0  0  0  0  0  0  0  0  0
   -0.4812    3.0164    2.5648 C   0  0  0  0  0  0  0  0  0  0  0  0
   -1.4844    3.1354    2.9874 H   0  0  0  0  0  0  0  0  0  0  0  0
    0.2514    3.2803    3.3334 H   0  0  0  0  0  0  0  0  0  0  0  0
   -0.3671    3.7105    1.7256 H   0  0  0  0  0  0  0  0  0  0  0  0
  1  2  1  0  0  0  0
  2  3  1  0  0  0  0
  2  4  1  0  0  0  0
  2  5  1  0  0  0  0
  5  6  2  0  0  0  0
  5  7  1  0  0  0  0
  7  8  1  0  0  0  0
  7  9  1  0  0  0  0
  9 10  1  0  0  0  0
  9 11  1  0  0  0  0
  9 26  1  0  0  0  0
 11 12  1  0  0  0  0
 11 13  1  0  0  0  0
 11 14  1  0  0  0  0
 14 15  1  0  0  0  0
 14 16  1  0  0  0  0
 14 17  1  0  0  0  0
 17 18  1  0  0  0  0
 17 19  1  0  0  0  0
 17 20  1  0  0  0  0
 20 21  1  0  0  0  0
 20 22  1  0  0  0  0
 20 23  1  0  0  0  0
 23 24  1  0  0  0  0
 23 25  1  0  0  0  0
 26 27  2  0  0  0  0
 26 28  1  0  0  0  0
 28 29  1  0  0  0  0
 28 30  1  0  0  0  0
 30 31  1  0  0  0  0
 30 32  1  0  0  0  0
 30 33  1  0  0  0  0
M  END
$$$$

  -OEChem-03222214063D

 33 32  0     1  0  0  0  0  0999 V2000
   -3.8387   -3.9290    1.6538 H   0  0  0  0  0  0  0  0  0  0  0  0
   -3.7990   -2.9413    1.1858 C   0  0  0  0  0  0  0  0  0  0  0  0
   -4.5039   -2.2805    1.6959 H   0  0  0  0  0  0  0  0  0  0  0  0
   -4.0918   -3.0366    0.1375 H   0  0  0  0  0  0  0  0  0  0  0  0
   -2.3955   -2.3737    1.2819 C   0  0  0  0  0  0  0  0  0  0  0  0
   -1.5240   -3.0033    1.8587 O   0  0  0  0  0  0  0  0  0  0  0  0
   -2.1174   -1.1439    0.7239 N   0  0  0  0  0  0  0  0  0  0  0  0
   -2.8984   -0.6165    0.3371 H   0  0  0  0  0  0  0  0  0  0  0  0
   -0.8274   -0.4464    0.8208 C   0  0  1  0  0  0  0  0  0  0  0  0
   -0.2259   -0.8580    1.6332 H   0  0  0  0  0  0  0  0  0  0  0  0
   -0.1056   -0.5675   -0.5405 C   0  0  0  0  0  0  0  0  0  0  0  0
   -0.8407   -0.5433   -1.3520 H   0  0  0  0  0  0  0  0  0  0  0  0
    0.5291    0.3163   -0.6646 H   0  0  0  0  0  0  0  0  0  0  0  0
    0.8118   -1.7944   -0.7176 C   0  0  0  0  0  0  0  0  0  0  0  0
    0.1831   -2.6747   -0.8887 H   0  0  0  0  0  0  0  0  0  0  0  0
    1.4140   -1.6400   -1.6189 H   0  0  0  0  0  0  0  0  0  0  0  0
    1.7388   -2.0949    0.4720 C   0  0  0  0  0  0  0  0  0  0  0  0
    2.2580   -1.1784    0.7699 H   0  0  0  0  0  0  0  0  0  0  0  0
    1.1609   -2.4583    1.3267 H   0  0  0  0  0  0  0  0  0  0  0  0
    2.7646   -3.1623    0.1010 C   0  0  0  0  0  0  0  0  0  0  0  0
    2.2538   -4.1061   -0.1207 H   0  0  0  0  0  0  0  0  0  0  0  0
    3.3213   -2.8585   -0.7923 H   0  0  0  0  0  0  0  0  0  0  0  0
    3.6875   -3.3414    1.2266 N   0  0  0  0  0  0  0  0  0  0  0  0
    4.3685   -4.0755    1.0332 H   0  0  0  0  0  0  0  0  0  0  0  0
    4.1520   -2.4659    1.4650 H   0  0  0  0  0  0  0  0  0  0  0  0
   -1.0629    1.0383    1.1621 C   0  0  0  0  0  0  0  0  0  0  0  0
   -1.9576    1.6617    0.6011 O   0  0  0  0  0  0  0  0  0  0  0  0
   -0.2996    1.6639    2.1304 N   0  0  0  0  0  0  0  0  0  0  0  0
    0.3916    1.1014    2.6193 H   0  0  0  0  0  0  0  0  0  0  0  0
   -0.5045    3.0470    2.5424 C   0  0  0  0  0  0  0  0  0  0  0  0
   -1.5121    3.1803    2.9499 H   0  0  0  0  0  0  0  0  0  0  0  0
    0.2204    3.3227    3.3143 H   0  0  0  0  0  0  0  0  0  0  0  0
   -0.3759    3.7231    1.6905 H   0  0  0  0  0  0  0  0  0  0  0  0
  1  2  1  0  0  0  0
  2  3  1  0  0  0  0
  2  4  1  0  0  0  0
  2  5  1  0  0  0  0
  5  6  2  0  0  0  0
  5  7  1  0  0  0  0
  7  8  1  0  0  0  0
  7  9  1  0  0  0  0
  9 10  1  0  0  0  0
  9 11  1  0  0  0  0
  9 26  1  0  0  0  0
 11 12  1  0  0  0  0
 11 13  1  0  0  0  0
 11 14  1  0  0  0  0
 14 15  1  0  0  0  0
 14 16  1  0  0  0  0
 14 17  1  0  0  0  0
 17 18  1  0  0  0  0
 17 19  1  0  0  0  0
 17 20  1  0  0  0  0
 20 21  1  0  0  0  0
 20 22  1  0  0  0  0
 20 23  1  0  0  0  0
 23 24  1  0  0  0  0
 23 25  1  0  0  0  0
 26 27  2  0  0  0  0
 26 28  1  0  0  0  0
 28 29  1  0  0  0  0
 28 30  1  0  0  0  0
 30 31  1  0  0  0  0
 30 32  1  0  0  0  0
 30 33  1  0  0  0  0
M  END
$$$$

  -OEChem-03222214063D

 33 32  0     1  0  0  0  0  0999 V2000
   -3.9055   -3.9040    1.6510 H   0  0  0  0  0  0  0  0  0  0  0  0
   -3.8339   -2.9262    1.1664 C   0  0  0  0  0  0  0  0  0  0  0  0
   -4.5769   -2.2581    1.6084 H   0  0  0  0  0  0  0  0  0  0  0  0
   -4.0475   -3.0447    0.1015 H   0  0  0  0  0  0  0  0  0  0  0  0
   -2.4431   -2.3499    1.3545 C   0  0  0  0  0  0  0  0  0  0  0  0
   -1.6344   -2.9383    2.0515 O   0  0  0  0  0  0  0  0  0  0  0  0
   -2.1265   -1.1387    0.7768 N   0  0  0  0  0  0  0  0  0  0  0  0
   -2.8778   -0.6398    0.3036 H   0  0  0  0  0  0  0  0  0  0  0  0
   -0.8336   -0.4440    0.8761 C   0  0  1  0  0  0  0  0  0  0  0  0
   -0.2366   -0.8433    1.6993 H   0  0  0  0  0  0  0  0  0  0  0  0
   -0.0983   -0.5745   -0.4813 C   0  0  0  0  0  0  0  0  0  0  0  0
   -0.8259   -0.5347   -1.2991 H   0  0  0  0  0  0  0  0  0  0  0  0
    0.5384    0.3102   -0.5903 H   0  0  0  0  0  0  0  0  0  0  0  0
    0.8333   -1.7889   -0.6906 C   0  0  0  0  0  0  0  0  0  0  0  0
    0.2371   -2.5990   -1.1234 H   0  0  0  0  0  0  0  0  0  0  0  0
    1.5935   -1.5128   -1.4289 H   0  0  0  0  0  0  0  0  0  0  0  0
    1.5205   -2.3436    0.5669 C   0  0  0  0  0  0  0  0  0  0  0  0
    2.0312   -1.5301    1.0915 H   0  0  0  0  0  0  0  0  0  0  0  0
    0.7856   -2.7826    1.2455 H   0  0  0  0  0  0  0  0  0  0  0  0
    2.5380   -3.4181    0.1919 C   0  0  0  0  0  0  0  0  0  0  0  0
    2.0291   -4.2637   -0.2842 H   0  0  0  0  0  0  0  0  0  0  0  0
    3.2664   -3.0146   -0.5199 H   0  0  0  0  0  0  0  0  0  0  0  0
    3.2246   -3.8656    1.4075 N   0  0  0  0  0  0  0  0  0  0  0  0
    3.9069   -4.5949    1.2018 H   0  0  0  0  0  0  0  0  0  0  0  0
    3.6598   -3.0833    1.8949 H   0  0  0  0  0  0  0  0  0  0  0  0
   -1.0767    1.0491    1.1741 C   0  0  0  0  0  0  0  0  0  0  0  0
   -1.9502    1.6618    0.5696 O   0  0  0  0  0  0  0  0  0  0  0  0
   -0.3303    1.6997    2.1392 N   0  0  0  0  0  0  0  0  0  0  0  0
    0.3395    1.1460    2.6662 H   0  0  0  0  0  0  0  0  0  0  0  0
   -0.5403    3.0938    2.5093 C   0  0  0  0  0  0  0  0  0  0  0  0
   -1.5514    3.2375    2.9042 H   0  0  0  0  0  0  0  0  0  0  0  0
    0.1779    3.3928    3.2790 H   0  0  0  0  0  0  0  0  0  0  0  0
   -0.4056    3.7455    1.6397 H   0  0  0  0  0  0  0  0  0  0  0  0
  1  2  1  0  0  0  0
  2  3  1  0  0  0  0
  2  4  1  0  0  0  0
  2  5  1  0  0  0  0
  5  6  2  0  0  0  0
  5  7  1  0  0  0  0
  7  8  1  0  0  0  0
  7  9  1  0  0  0  0
  9 10  1  0  0  0  0
  9 11  1  0  0  0  0
  9 26  1  0  0  0  0
 11 12  1  0  0  0  0
 11 13  1  0  0  0  0
 11 14  1  0  0  0  0
 14 15  1  0  0  0  0
 14 16  1  0  0  0  0
 14 17  1  0  0  0  0
 17 18  1  0  0  0  0
 17 19  1  0  0  0  0
 17 20  1  0  0  0  0
 20 21  1  0  0  0  0
 20 22  1  0  0  0  0
 20 23  1  0  0  0  0
 23 24  1  0  0  0  0
 23 25  1  0  0  0  0
 26 27  2  0  0  0  0
 26 28  1  0  0  0  0
 28 29  1  0  0  0  0
 28 30  1  0  0  0  0
 30 31  1  0  0  0  0
 30 32  1  0  0  0  0
 30 33  1  0  0  0  0
M  END
$$$$

  -OEChem-03222214063D

 33 32  0     1  0  0  0  0  0999 V2000
   -3.9205   -3.8928    1.6778 H   0  0  0  0  0  0  0  0  0  0  0  0
   -3.8362   -2.9307    1.1650 C   0  0  0  0  0  0  0  0  0  0  0  0
   -4.6329   -2.2712    1.5175 H   0  0  0  0  0  0  0  0  0  0  0  0
   -3.9551   -3.0935    0.0913 H   0  0  0  0  0  0  0  0  0  0  0  0
   -2.4833   -2.3055    1.4482 C   0  0  0  0  0  0  0  0  0  0  0  0
   -1.7441   -2.8121    2.2749 O   0  0  0  0  0  0  0  0  0  0  0  0
   -2.1422   -1.1172    0.8380 N   0  0  0  0  0  0  0  0  0  0  0  0
   -2.8524   -0.6706    0.2612 H   0  0  0  0  0  0  0  0  0  0  0  0
   -0.8413   -0.4367    0.9312 C   0  0  1  0  0  0  0  0  0  0  0  0
   -0.2469   -0.8267    1.7614 H   0  0  0  0  0  0  0  0  0  0  0  0
   -0.0977   -0.5775   -0.4240 C   0  0  0  0  0  0  0  0  0  0  0  0
   -0.8264   -0.5288   -1.2403 H   0  0  0  0  0  0  0  0  0  0  0  0
    0.5418    0.3057   -0.5317 H   0  0  0  0  0  0  0  0  0  0  0  0
    0.8341   -1.7898   -0.6593 C   0  0  0  0  0  0  0  0  0  0  0  0
    0.3194   -2.4764   -1.3397 H   0  0  0  0  0  0  0  0  0  0  0  0
    1.7302   -1.4336   -1.1786 H   0  0  0  0  0  0  0  0  0  0  0  0
    1.2584   -2.6015    0.5716 C   0  0  0  0  0  0  0  0  0  0  0  0
    1.6941   -1.9379    1.3247 H   0  0  0  0  0  0  0  0  0  0  0  0
    0.3918   -3.1006    1.0079 H   0  0  0  0  0  0  0  0  0  0  0  0
    2.2895   -3.6589    0.1819 C   0  0  0  0  0  0  0  0  0  0  0  0
    1.8709   -4.3290   -0.5772 H   0  0  0  0  0  0  0  0  0  0  0  0
    3.1774   -3.1772   -0.2424 H   0  0  0  0  0  0  0  0  0  0  0  0
    2.6580   -4.4280    1.3740 N   0  0  0  0  0  0  0  0  0  0  0  0
    3.3705   -5.1259    1.1621 H   0  0  0  0  0  0  0  0  0  0  0  0
    2.9575   -3.8150    2.1318 H   0  0  0  0  0  0  0  0  0  0  0  0
   -1.0799    1.0669    1.1826 C   0  0  0  0  0  0  0  0  0  0  0  0
   -1.9257    1.6736    0.5337 O   0  0  0  0  0  0  0  0  0  0  0  0
   -0.3414    1.7404    2.1378 N   0  0  0  0  0  0  0  0  0  0  0  0
    0.2966    1.1923    2.7078 H   0  0  0  0  0  0  0  0  0  0  0  0
   -0.5492    3.1456    2.4644 C   0  0  0  0  0  0  0  0  0  0  0  0
   -1.5634    3.3041    2.8458 H   0  0  0  0  0  0  0  0  0  0  0  0
    0.1634    3.4651    3.2308 H   0  0  0  0  0  0  0  0  0  0  0  0
   -0.4044    3.7705    1.5769 H   0  0  0  0  0  0  0  0  0  0  0  0
  1  2  1  0  0  0  0
  2  3  1  0  0  0  0
  2  4  1  0  0  0  0
  2  5  1  0  0  0  0
  5  6  2  0  0  0  0
  5  7  1  0  0  0  0
  7  8  1  0  0  0  0
  7  9  1  0  0  0  0
  9 10  1  0  0  0  0
  9 11  1  0  0  0  0
  9 26  1  0  0  0  0
 11 12  1  0  0  0  0
 11 13  1  0  0  0  0
 11 14  1  0  0  0  0
 14 15  1  0  0  0  0
 14 16  1  0  0  0  0
 14 17  1  0  0  0  0
 17 18  1  0  0  0  0
 17 19  1  0  0  0  0
 17 20  1  0  0  0  0
 20 21  1  0  0  0  0
 20 22  1  0  0  0  0
 20 23  1  0  0  0  0
 23 24  1  0  0  0  0
 23 25  1  0  0  0  0
 26 27  2  0  0  0  0
 26 28  1  0  0  0  0
 28 29  1  0  0  0  0
 28 30  1  0  0  0  0
 30 31  1  0  0  0  0
 30 32  1  0  0  0  0
 30 33  1  0  0  0  0
M  END
$$$$

  -OEChem-03222214063D

 33 32  0     1  0  0  0  0  0999 V2000
   -3.9212   -3.8738    1.7428 H   0  0  0  0  0  0  0  0  0  0  0  0
   -3.8375   -2.9231    1.2088 C   0  0  0  0  0  0  0  0  0  0  0  0
   -4.6426   -2.2612    1.5367 H   0  0  0  0  0  0  0  0  0  0  0  0
   -3.9423   -3.1118    0.1377 H   0  0  0  0  0  0  0  0  0  0  0  0
   -2.4925   -2.2820    1.4931 C   0  0  0  0  0  0  0  0  0  0  0  0
   -1.7598   -2.7609    2.3438 O   0  0  0  0  0  0  0  0  0  0  0  0
   -2.1505   -1.1040    0.8629 N   0  0  0  0  0  0  0  0  0  0  0  0
   -2.8508   -0.6731    0.2626 H   0  0  0  0  0  0  0  0  0  0  0  0
   -0.8415   -0.4388    0.9464 C   0  0  1  0  0  0  0  0  0  0  0  0
   -0.2469   -0.8209    1.7795 H   0  0  0  0  0  0  0  0  0  0  0  0
   -0.0881   -0.5760   -0.4047 C   0  0  0  0  0  0  0  0  0  0  0  0
   -0.8242   -0.5341   -1.2148 H   0  0  0  0  0  0  0  0  0  0  0  0
    0.5459    0.3099   -0.5241 H   0  0  0  0  0  0  0  0  0  0  0  0
    0.8390   -1.7925   -0.6494 C   0  0  0  0  0  0  0  0  0  0  0  0
    0.4839   -2.3118   -1.5458 H   0  0  0  0  0  0  0  0  0  0  0  0
    1.8383   -1.4069   -0.8782 H   0  0  0  0  0  0  0  0  0  0  0  0
    0.9745   -2.8282    0.4737 C   0  0  0  0  0  0  0  0  0  0  0  0
    1.2647   -2.3462    1.4112 H   0  0  0  0  0  0  0  0  0  0  0  0
    0.0162   -3.3314    0.6184 H   0  0  0  0  0  0  0  0  0  0  0  0
    2.0270   -3.8744    0.1130 C   0  0  0  0  0  0  0  0  0  0  0  0
    1.7978   -4.3229   -0.8600 H   0  0  0  0  0  0  0  0  0  0  0  0
    3.0135   -3.4024    0.0464 H   0  0  0  0  0  0  0  0  0  0  0  0
    2.0320   -4.9135    1.1462 N   0  0  0  0  0  0  0  0  0  0  0  0
    2.7929   -5.5773    1.0056 H   0  0  0  0  0  0  0  0  0  0  0  0
    2.0670   -4.5049    2.0804 H   0  0  0  0  0  0  0  0  0  0  0  0
   -1.0760    1.0688    1.1815 C   0  0  0  0  0  0  0  0  0  0  0  0
   -1.9178    1.6726    0.5243 O   0  0  0  0  0  0  0  0  0  0  0  0
   -0.3358    1.7514    2.1291 N   0  0  0  0  0  0  0  0  0  0  0  0
    0.3019    1.2089    2.7049 H   0  0  0  0  0  0  0  0  0  0  0  0
   -0.5370    3.1620    2.4362 C   0  0  0  0  0  0  0  0  0  0  0  0
   -1.5505    3.3311    2.8148 H   0  0  0  0  0  0  0  0  0  0  0  0
    0.1768    3.4885    3.1986 H   0  0  0  0  0  0  0  0  0  0  0  0
   -0.3885    3.7743    1.5405 H   0  0  0  0  0  0  0  0  0  0  0  0
  1  2  1  0  0  0  0
  2  3  1  0  0  0  0
  2  4  1  0  0  0  0
  2  5  1  0  0  0  0
  5  6  2  0  0  0  0
  5  7  1  0  0  0  0
  7  8  1  0  0  0  0
  7  9  1  0  0  0  0
  9 10  1  0  0  0  0
  9 11  1  0  0  0  0
  9 26  1  0  0  0  0
 11 12  1  0  0  0  0
 11 13  1  0  0  0  0
 11 14  1  0  0  0  0
 14 15  1  0  0  0  0
 14 16  1  0  0  0  0
 14 17  1  0  0  0  0
 17 18  1  0  0  0  0
 17 19  1  0  0  0  0
 17 20  1  0  0  0  0
 20 21  1  0  0  0  0
 20 22  1  0  0  0  0
 20 23  1  0  0  0  0
 23 24  1  0  0  0  0
 23 25  1  0  0  0  0
 26 27  2  0  0  0  0
 26 28  1  0  0  0  0
 28 29  1  0  0  0  0
 28 30  1  0  0  0  0
 30 31  1  0  0  0  0
 30 32  1  0  0  0  0
 30 33  1  0  0  0  0
M  END
$$$$

  -OEChem-03222214063D

 33 32  0     1  0  0  0  0  0999 V2000
   -3.9116   -3.8732    1.7869 H   0  0  0  0  0  0  0  0  0  0  0  0
   -3.8315   -2.9228    1.2519 C   0  0  0  0  0  0  0  0  0  0  0  0
   -4.6284   -2.2571    1.5921 H   0  0  0  0  0  0  0  0  0  0  0  0
   -3.9538   -3.1107    0.1825 H   0  0  0  0  0  0  0  0  0  0  0  0
   -2.4790   -2.2881    1.5145 C   0  0  0  0  0  0  0  0  0  0  0  0
   -1.7280   -2.7784    2.3434 O   0  0  0  0  0  0  0  0  0  0  0  0
   -2.1432   -1.1106    0.8795 N   0  0  0  0  0  0  0  0  0  0  0  0
   -2.8539   -0.6734    0.2961 H   0  0  0  0  0  0  0  0  0  0  0  0
   -0.8312   -0.4484    0.9424 C   0  0  1  0  0  0  0  0  0  0  0  0
   -0.2229   -0.8306    1.7664 H   0  0  0  0  0  0  0  0  0  0  0  0
   -0.0855   -0.5794   -0.4137 C   0  0  0  0  0  0  0  0  0  0  0  0
   -0.8386   -0.5614   -1.2090 H   0  0  0  0  0  0  0  0  0  0  0  0
    0.5348    0.3119   -0.5604 H   0  0  0  0  0  0  0  0  0  0  0  0
    0.8382   -1.7972   -0.6581 C   0  0  0  0  0  0  0  0  0  0  0  0
    0.6824   -2.1452   -1.6847 H   0  0  0  0  0  0  0  0  0  0  0  0
    1.8724   -1.4430   -0.5919 H   0  0  0  0  0  0  0  0  0  0  0  0
    0.7017   -2.9900    0.2950 C   0  0  0  0  0  0  0  0  0  0  0  0
    0.8457   -2.6777    1.3325 H   0  0  0  0  0  0  0  0  0  0  0  0
   -0.3001   -3.4156    0.1918 H   0  0  0  0  0  0  0  0  0  0  0  0
    1.7298   -4.0687   -0.0345 C   0  0  0  0  0  0  0  0  0  0  0  0
    1.6770   -4.3363   -1.0957 H   0  0  0  0  0  0  0  0  0  0  0  0
    2.7390   -3.6963    0.1734 H   0  0  0  0  0  0  0  0  0  0  0  0
    1.4425   -5.2473    0.7874 N   0  0  0  0  0  0  0  0  0  0  0  0
    2.1883   -5.9393    0.7225 H   0  0  0  0  0  0  0  0  0  0  0  0
    1.2675   -4.9835    1.7583 H   0  0  0  0  0  0  0  0  0  0  0  0
   -1.0618    1.0592    1.1815 C   0  0  0  0  0  0  0  0  0  0  0  0
   -1.9147    1.6624    0.5385 O   0  0  0  0  0  0  0  0  0  0  0  0
   -0.3077    1.7425    2.1176 N   0  0  0  0  0  0  0  0  0  0  0  0
    0.3374    1.2004    2.6854 H   0  0  0  0  0  0  0  0  0  0  0  0
   -0.5071    3.1525    2.4288 C   0  0  0  0  0  0  0  0  0  0  0  0
   -1.5152    3.3189    2.8226 H   0  0  0  0  0  0  0  0  0  0  0  0
    0.2171    3.4801    3.1808 H   0  0  0  0  0  0  0  0  0  0  0  0
   -0.3734    3.7658    1.5315 H   0  0  0  0  0  0  0  0  0  0  0  0
  1  2  1  0  0  0  0
  2  3  1  0  0  0  0
  2  4  1  0  0  0  0
  2  5  1  0  0  0  0
  5  6  2  0  0  0  0
  5  7  1  0  0  0  0
  7  8  1  0  0  0  0
  7  9  1  0  0  0  0
  9 10  1  0  0  0  0
  9 11  1  0  0  0  0
  9 26  1  0  0  0  0
 11 12  1  0  0  0  0
 11 13  1  0  0  0  0
 11 14  1  0  0  0  0
 14 15  1  0  0  0  0
 14 16  1  0  0  0  0
 14 17  1  0  0  0  0
 17 18  1  0  0  0  0
 17 19  1  0  0  0  0
 17 20  1  0  0  0  0
 20 21  1  0  0  0  0
 20 22  1  0  0  0  0
 20 23  1  0  0  0  0
 23 24  1  0  0  0  0
 23 25  1  0  0  0  0
 26 27  2  0  0  0  0
 26 28  1  0  0  0  0
 28 29  1  0  0  0  0
 28 30  1  0  0  0  0
 30 31  1  0  0  0  0
 30 32  1  0  0  0  0
 30 33  1  0  0  0  0
M  END
$$$$

  -OEChem-03222214063D

 33 32  0     1  0  0  0  0  0999 V2000
   -3.8861   -3.9052    1.7808 H   0  0  0  0  0  0  0  0  0  0  0  0
   -3.8072   -2.9537    1.2477 C   0  0  0  0  0  0  0  0  0  0  0  0
   -4.6142   -2.2952    1.5778 H   0  0  0  0  0  0  0  0  0  0  0  0
   -3.9135   -3.1421    0.1766 H   0  0  0  0  0  0  0  0  0  0  0  0
   -2.4636   -2.3079    1.5278 C   0  0  0  0  0  0  0  0  0  0  0  0
   -1.7219   -2.7909    2.3691 O   0  0  0  0  0  0  0  0  0  0  0  0
   -2.1293   -1.1291    0.8935 N   0  0  0  0  0  0  0  0  0  0  0  0
   -2.8395   -0.7035    0.3012 H   0  0  0  0  0  0  0  0  0  0  0  0
   -0.8190   -0.4595    0.9432 C   0  0  1  0  0  0  0  0  0  0  0  0
   -0.1988   -0.8489    1.7563 H   0  0  0  0  0  0  0  0  0  0  0  0
   -0.0766   -0.5825   -0.4163 C   0  0  0  0  0  0  0  0  0  0  0  0
   -0.8339   -0.5800   -1.2076 H   0  0  0  0  0  0  0  0  0  0  0  0
    0.5364    0.3122   -0.5723 H   0  0  0  0  0  0  0  0  0  0  0  0
    0.8514   -1.7959   -0.6484 C   0  0  0  0  0  0  0  0  0  0  0  0
    0.9032   -1.9870   -1.7255 H   0  0  0  0  0  0  0  0  0  0  0  0
    1.8577   -1.5169   -0.3187 H   0  0  0  0  0  0  0  0  0  0  0  0
    0.4718   -3.0889    0.0772 C   0  0  0  0  0  0  0  0  0  0  0  0
    0.5182   -2.9381    1.1583 H   0  0  0  0  0  0  0  0  0  0  0  0
   -0.5489   -3.3708   -0.1984 H   0  0  0  0  0  0  0  0  0  0  0  0
    1.4167   -4.2285   -0.2908 C   0  0  0  0  0  0  0  0  0  0  0  0
    1.4547   -4.3593   -1.3779 H   0  0  0  0  0  0  0  0  0  0  0  0
    2.4290   -4.0011    0.0612 H   0  0  0  0  0  0  0  0  0  0  0  0
    0.9212   -5.4543    0.3408 N   0  0  0  0  0  0  0  0  0  0  0  0
    1.5868   -6.2202    0.2414 H   0  0  0  0  0  0  0  0  0  0  0  0
    0.6928   -5.2914    1.3231 H   0  0  0  0  0  0  0  0  0  0  0  0
   -1.0529    1.0470    1.1850 C   0  0  0  0  0  0  0  0  0  0  0  0
   -1.9129    1.6475    0.5491 O   0  0  0  0  0  0  0  0  0  0  0  0
   -0.2911    1.7322    2.1134 N   0  0  0  0  0  0  0  0  0  0  0  0
    0.3593    1.1913    2.6761 H   0  0  0  0  0  0  0  0  0  0  0  0
   -0.4896    3.1421    2.4258 C   0  0  0  0  0  0  0  0  0  0  0  0
   -1.4930    3.3068    2.8321 H   0  0  0  0  0  0  0  0  0  0  0  0
    0.2433    3.4715    3.1685 H   0  0  0  0  0  0  0  0  0  0  0  0
   -0.3680    3.7549    1.5264 H   0  0  0  0  0  0  0  0  0  0  0  0
  1  2  1  0  0  0  0
  2  3  1  0  0  0  0
  2  4  1  0  0  0  0
  2  5  1  0  0  0  0
  5  6  2  0  0  0  0
  5  7  1  0  0  0  0
  7  8  1  0  0  0  0
  7  9  1  0  0  0  0
  9 10  1  0  0  0  0
  9 11  1  0  0  0  0
  9 26  1  0  0  0  0
 11 12  1  0  0  0  0
 11 13  1  0  0  0  0
 11 14  1  0  0  0  0
 14 15  1  0  0  0  0
 14 16  1  0  0  0  0
 14 17  1  0  0  0  0
 17 18  1  0  0  0  0
 17 19  1  0  0  0  0
 17 20  1  0  0  0  0
 20 21  1  0  0  0  0
 20 22  1  0  0  0  0
 20 23  1  0  0  0  0
 23 24  1  0  0  0  0
 23 25  1  0  0  0  0
 26 27  2  0  0  0  0
 26 28  1  0  0  0  0
 28 29  1  0  0  0  0
 28 30  1  0  0  0  0
 30 31  1  0  0  0  0
 30 32  1  0  0  0  0
 30 33  1  0  0  0  0
M  END
$$$$

  -OEChem-03222214063D

 33 32  0     1  0  0  0  0  0999 V2000
   -3.8632   -3.9311    1.7745 H   0  0  0  0  0  0  0  0  0  0  0  0
   -3.7815   -2.9852    1.2321 C   0  0  0  0  0  0  0  0  0  0  0  0
   -4.6018   -2.3309    1.5368 H   0  0  0  0  0  0  0  0  0  0  0  0
   -3.8622   -3.1872    0.1613 H   0  0  0  0  0  0  0  0  0  0  0  0
   -2.4511   -2.3225    1.5339 C   0  0  0  0  0  0  0  0  0  0  0  0
   -1.7234   -2.7870    2.3978 O   0  0  0  0  0  0  0  0  0  0  0  0
   -2.1173   -1.1451    0.8971 N   0  0  0  0  0  0  0  0  0  0  0  0
   -2.8186   -0.7369    0.2824 H   0  0  0  0  0  0  0  0  0  0  0  0
   -0.8093   -0.4706    0.9479 C   0  0  1  0  0  0  0  0  0  0  0  0
   -0.1888   -0.8630    1.7598 H   0  0  0  0  0  0  0  0  0  0  0  0
   -0.0618   -0.5960   -0.4081 C   0  0  0  0  0  0  0  0  0  0  0  0
   -0.8095   -0.5963   -1.2085 H   0  0  0  0  0  0  0  0  0  0  0  0
    0.5568    0.2958   -0.5586 H   0  0  0  0  0  0  0  0  0  0  0  0
    0.8658   -1.8105   -0.6122 C   0  0  0  0  0  0  0  0  0  0  0  0
    1.1255   -1.8616   -1.6748 H   0  0  0  0  0  0  0  0  0  0  0  0
    1.7933   -1.6392   -0.0560 H   0  0  0  0  0  0  0  0  0  0  0  0
    0.2868   -3.1548   -0.1698 C   0  0  0  0  0  0  0  0  0  0  0  0
    0.2322   -3.1841    0.9197 H   0  0  0  0  0  0  0  0  0  0  0  0
   -0.7208   -3.2741   -0.5803 H   0  0  0  0  0  0  0  0  0  0  0  0
    1.1560   -4.3167   -0.6373 C   0  0  0  0  0  0  0  0  0  0  0  0
    1.2645   -4.2987   -1.7273 H   0  0  0  0  0  0  0  0  0  0  0  0
    2.1544   -4.2387   -0.1928 H   0  0  0  0  0  0  0  0  0  0  0  0
    0.5091   -5.5639   -0.2205 N   0  0  0  0  0  0  0  0  0  0  0  0
    1.0923   -6.3731   -0.4320 H   0  0  0  0  0  0  0  0  0  0  0  0
    0.2705   -5.5350    0.7722 H   0  0  0  0  0  0  0  0  0  0  0  0
   -1.0451    1.0362    1.1840 C   0  0  0  0  0  0  0  0  0  0  0  0
   -1.8999    1.6355    0.5400 O   0  0  0  0  0  0  0  0  0  0  0  0
   -0.2855    1.7244    2.1120 N   0  0  0  0  0  0  0  0  0  0  0  0
    0.3599    1.1844    2.6814 H   0  0  0  0  0  0  0  0  0  0  0  0
   -0.4827    3.1363    2.4158 C   0  0  0  0  0  0  0  0  0  0  0  0
   -1.4855    3.3039    2.8226 H   0  0  0  0  0  0  0  0  0  0  0  0
    0.2517    3.4709    3.1548 H   0  0  0  0  0  0  0  0  0  0  0  0
   -0.3629    3.7431    1.5121 H   0  0  0  0  0  0  0  0  0  0  0  0
  1  2  1  0  0  0  0
  2  3  1  0  0  0  0
  2  4  1  0  0  0  0
  2  5  1  0  0  0  0
  5  6  2  0  0  0  0
  5  7  1  0  0  0  0
  7  8  1  0  0  0  0
  7  9  1  0  0  0  0
  9 10  1  0  0  0  0
  9 11  1  0  0  0  0
  9 26  1  0  0  0  0
 11 12  1  0  0  0  0
 11 13  1  0  0  0  0
 11 14  1  0  0  0  0
 14 15  1  0  0  0  0
 14 16  1  0  0  0  0
 14 17  1  0  0  0  0
 17 18  1  0  0  0  0
 17 19  1  0  0  0  0
 17 20  1  0  0  0  0
 20 21  1  0  0  0  0
 20 22  1  0  0  0  0
 20 23  1  0  0  0  0
 23 24  1  0  0  0  0
 23 25  1  0  0  0  0
 26 27  2  0  0  0  0
 26 28  1  0  0  0  0
 28 29  1  0  0  0  0
 28 30  1  0  0  0  0
 30 31  1  0  0  0  0
 30 32  1  0  0  0  0
 30 33  1  0  0  0  0
M  END
$$$$

  -OEChem-03222214063D

 33 32  0     1  0  0  0  0  0999 V2000
   -3.8764   -3.9230    1.7767 H   0  0  0  0  0  0  0  0  0  0  0  0
   -3.7881   -2.9821    1.2263 C   0  0  0  0  0  0  0  0  0  0  0  0
   -4.5986   -2.3160    1.5318 H   0  0  0  0  0  0  0  0  0  0  0  0
   -3.8794   -3.1907    0.1574 H   0  0  0  0  0  0  0  0  0  0  0  0
   -2.4482   -2.3319    1.5134 C   0  0  0  0  0  0  0  0  0  0  0  0
   -1.7082   -2.8106    2.3593 O   0  0  0  0  0  0  0  0  0  0  0  0
   -2.1132   -1.1540    0.8793 N   0  0  0  0  0  0  0  0  0  0  0  0
   -2.8168   -0.7362    0.2737 H   0  0  0  0  0  0  0  0  0  0  0  0
   -0.8041   -0.4844    0.9348 C   0  0  1  0  0  0  0  0  0  0  0  0
   -0.1881   -0.8822    1.7477 H   0  0  0  0  0  0  0  0  0  0  0  0
   -0.0546   -0.6167   -0.4168 C   0  0  0  0  0  0  0  0  0  0  0  0
   -0.7879   -0.6029   -1.2303 H   0  0  0  0  0  0  0  0  0  0  0  0
    0.5815    0.2651   -0.5522 H   0  0  0  0  0  0  0  0  0  0  0  0
    0.8607   -1.8424   -0.5907 C   0  0  0  0  0  0  0  0  0  0  0  0
    1.3237   -1.7724   -1.5806 H   0  0  0  0  0  0  0  0  0  0  0  0
    1.6642   -1.8024    0.1519 H   0  0  0  0  0  0  0  0  0  0  0  0
    0.1430   -3.1901   -0.4751 C   0  0  0  0  0  0  0  0  0  0  0  0
   -0.0860   -3.3901    0.5715 H   0  0  0  0  0  0  0  0  0  0  0  0
   -0.7942   -3.1621   -1.0405 H   0  0  0  0  0  0  0  0  0  0  0  0
    1.0123   -4.3283   -0.9992 C   0  0  0  0  0  0  0  0  0  0  0  0
    1.2621   -4.1619   -2.0529 H   0  0  0  0  0  0  0  0  0  0  0  0
    1.9470   -4.3772   -0.4296 H   0  0  0  0  0  0  0  0  0  0  0  0
    0.2645   -5.5806   -0.8536 N   0  0  0  0  0  0  0  0  0  0  0  0
    0.8217   -6.3809   -1.1518 H   0  0  0  0  0  0  0  0  0  0  0  0
   -0.0584   -5.7003    0.1076 H   0  0  0  0  0  0  0  0  0  0  0  0
   -1.0325    1.0233    1.1743 C   0  0  0  0  0  0  0  0  0  0  0  0
   -1.8866    1.6274    0.5340 O   0  0  0  0  0  0  0  0  0  0  0  0
   -0.2714    1.7055    2.1055 N   0  0  0  0  0  0  0  0  0  0  0  0
    0.3709    1.1611    2.6742 H   0  0  0  0  0  0  0  0  0  0  0  0
   -0.4687    3.1153    2.4191 C   0  0  0  0  0  0  0  0  0  0  0  0
   -1.4706    3.2797    2.8288 H   0  0  0  0  0  0  0  0  0  0  0  0
    0.2668    3.4445    3.1590 H   0  0  0  0  0  0  0  0  0  0  0  0
   -0.3507    3.7284    1.5195 H   0  0  0  0  0  0  0  0  0  0  0  0
  1  2  1  0  0  0  0
  2  3  1  0  0  0  0
  2  4  1  0  0  0  0
  2  5  1  0  0  0  0
  5  6  2  0  0  0  0
  5  7  1  0  0  0  0
  7  8  1  0  0  0  0
  7  9  1  0  0  0  0
  9 10  1  0  0  0  0
  9 11  1  0  0  0  0
  9 26  1  0  0  0  0
 11 12  1  0  0  0  0
 11 13  1  0  0  0  0
 11 14  1  0  0  0  0
 14 15  1  0  0  0  0
 14 16  1  0  0  0  0
 14 17  1  0  0  0  0
 17 18  1  0  0  0  0
 17 19  1  0  0  0  0
 17 20  1  0  0  0  0
 20 21  1  0  0  0  0
 20 22  1  0  0  0  0
 20 23  1  0  0  0  0
 23 24  1  0  0  0  0
 23 25  1  0  0  0  0
 26 27  2  0  0  0  0
 26 28  1  0  0  0  0
 28 29  1  0  0  0  0
 28 30  1  0  0  0  0
 30 31  1  0  0  0  0
 30 32  1  0  0  0  0
 30 33  1  0  0  0  0
M  END
$$$$

  -OEChem-03222214063D

 33 32  0     1  0  0  0  0  0999 V2000
   -3.8900   -3.9098    1.8112 H   0  0  0  0  0  0  0  0  0  0  0  0
   -3.8087   -2.9676    1.2622 C   0  0  0  0  0  0  0  0  0  0  0  0
   -4.5742   -2.2789    1.6276 H   0  0  0  0  0  0  0  0  0  0  0  0
   -3.9803   -3.1629    0.2009 H   0  0  0  0  0  0  0  0  0  0  0  0
   -2.4319   -2.3629    1.4604 C   0  0  0  0  0  0  0  0  0  0  0  0
   -1.6289   -2.9057    2.2044 O   0  0  0  0  0  0  0  0  0  0  0  0
   -2.1178   -1.1693    0.8452 N   0  0  0  0  0  0  0  0  0  0  0  0
   -2.8572   -0.7026    0.3232 H   0  0  0  0  0  0  0  0  0  0  0  0
   -0.8075   -0.5029    0.8854 C   0  0  1  0  0  0  0  0  0  0  0  0
   -0.1796   -0.9164    1.6812 H   0  0  0  0  0  0  0  0  0  0  0  0
   -0.0787   -0.6143   -0.4771 C   0  0  0  0  0  0  0  0  0  0  0  0
   -0.8116   -0.5726   -1.2900 H   0  0  0  0  0  0  0  0  0  0  0  0
    0.5697    0.2613   -0.5921 H   0  0  0  0  0  0  0  0  0  0  0  0
    0.8250   -1.8469   -0.6548 C   0  0  0  0  0  0  0  0  0  0  0  0
    1.4727   -1.6650   -1.5187 H   0  0  0  0  0  0  0  0  0  0  0  0
    1.4704   -1.9607    0.2223 H   0  0  0  0  0  0  0  0  0  0  0  0
    0.0512   -3.1483   -0.8970 C   0  0  0  0  0  0  0  0  0  0  0  0
   -0.4808   -3.4409    0.0066 H   0  0  0  0  0  0  0  0  0  0  0  0
   -0.6841   -2.9995   -1.6944 H   0  0  0  0  0  0  0  0  0  0  0  0
    0.9968   -4.2793   -1.2878 C   0  0  0  0  0  0  0  0  0  0  0  0
    1.5278   -4.0260   -2.2120 H   0  0  0  0  0  0  0  0  0  0  0  0
    1.7402   -4.4348   -0.4979 H   0  0  0  0  0  0  0  0  0  0  0  0
    0.2051   -5.4975   -1.4822 N   0  0  0  0  0  0  0  0  0  0  0  0
    0.7988   -6.2866   -1.7370 H   0  0  0  0  0  0  0  0  0  0  0  0
   -0.3418   -5.7100   -0.6470 H   0  0  0  0  0  0  0  0  0  0  0  0
   -1.0267    0.9988    1.1668 C   0  0  0  0  0  0  0  0  0  0  0  0
   -1.9059    1.6146    0.5735 O   0  0  0  0  0  0  0  0  0  0  0  0
   -0.2425    1.6586    2.0951 N   0  0  0  0  0  0  0  0  0  0  0  0
    0.4270    1.1047    2.6217 H   0  0  0  0  0  0  0  0  0  0  0  0
   -0.4360    3.0584    2.4537 C   0  0  0  0  0  0  0  0  0  0  0  0
   -1.4274    3.2072    2.8942 H   0  0  0  0  0  0  0  0  0  0  0  0
    0.3177    3.3697    3.1834 H   0  0  0  0  0  0  0  0  0  0  0  0
   -0.3437    3.6976    1.5693 H   0  0  0  0  0  0  0  0  0  0  0  0
  1  2  1  0  0  0  0
  2  3  1  0  0  0  0
  2  4  1  0  0  0  0
  2  5  1  0  0  0  0
  5  6  2  0  0  0  0
  5  7  1  0  0  0  0
  7  8  1  0  0  0  0
  7  9  1  0  0  0  0
  9 10  1  0  0  0  0
  9 11  1  0  0  0  0
  9 26  1  0  0  0  0
 11 12  1  0  0  0  0
 11 13  1  0  0  0  0
 11 14  1  0  0  0  0
 14 15  1  0  0  0  0
 14 16  1  0  0  0  0
 14 17  1  0  0  0  0
 17 18  1  0  0  0  0
 17 19  1  0  0  0  0
 17 20  1  0  0  0  0
 20 21  1  0  0  0  0
 20 22  1  0  0  0  0
 20 23  1  0  0  0  0
 23 24  1  0  0  0  0
 23 25  1  0  0  0  0
 26 27  2  0  0  0  0
 26 28  1  0  0  0  0
 28 29  1  0  0  0  0
 28 30  1  0  0  0  0
 30 31  1  0  0  0  0
 30 32  1  0  0  0  0
 30 33  1  0  0  0  0
M  END
$$$$

  -OEChem-03222214063D

 33 32  0     1  0  0  0  0  0999 V2000
   -3.7446   -4.0040    1.7320 H   0  0  0  0  0  0  0  0  0  0  0  0
   -3.7241   -3.0244    1.2464 C   0  0  0  0  0  0  0  0  0  0  0  0
   -4.4442   -2.3695    1.7428 H   0  0  0  0  0  0  0  0  0  0  0  0
   -4.0121   -3.1440    0.1992 H   0  0  0  0  0  0  0  0  0  0  0  0
   -2.3330   -2.4261    1.3337 C   0  0  0  0  0  0  0  0  0  0  0  0
   -1.4435   -3.0329    1.9113 O   0  0  0  0  0  0  0  0  0  0  0  0
   -2.0838   -1.1933    0.7675 N   0  0  0  0  0  0  0  0  0  0  0  0
   -2.8740   -0.6858    0.3728 H   0  0  0  0  0  0  0  0  0  0  0  0
   -0.7910   -0.4962    0.8008 C   0  0  1  0  0  0  0  0  0  0  0  0
   -0.1371   -0.9245    1.5669 H   0  0  0  0  0  0  0  0  0  0  0  0
   -0.1027   -0.5625   -0.5819 C   0  0  0  0  0  0  0  0  0  0  0  0
   -0.8490   -0.5128   -1.3824 H   0  0  0  0  0  0  0  0  0  0  0  0
    0.5348    0.3219   -0.6892 H   0  0  0  0  0  0  0  0  0  0  0  0
    0.8077   -1.7896   -0.7637 C   0  0  0  0  0  0  0  0  0  0  0  0
    1.6154   -1.5264   -1.4545 H   0  0  0  0  0  0  0  0  0  0  0  0
    1.2689   -2.0613    0.1915 H   0  0  0  0  0  0  0  0  0  0  0  0
    0.0514   -2.9918   -1.3445 C   0  0  0  0  0  0  0  0  0  0  0  0
   -0.7966   -3.2497   -0.7087 H   0  0  0  0  0  0  0  0  0  0  0  0
   -0.3386   -2.7356   -2.3348 H   0  0  0  0  0  0  0  0  0  0  0  0
    0.9699   -4.2034   -1.4605 C   0  0  0  0  0  0  0  0  0  0  0  0
    1.8139   -3.9741   -2.1202 H   0  0  0  0  0  0  0  0  0  0  0  0
    1.3684   -4.4656   -0.4741 H   0  0  0  0  0  0  0  0  0  0  0  0
    0.1979   -5.3242   -2.0050 N   0  0  0  0  0  0  0  0  0  0  0  0
    0.7778   -6.1577   -2.0997 H   0  0  0  0  0  0  0  0  0  0  0  0
   -0.6180   -5.5158   -1.4232 H   0  0  0  0  0  0  0  0  0  0  0  0
   -1.0277    0.9842    1.1641 C   0  0  0  0  0  0  0  0  0  0  0  0
   -1.9522    1.6026    0.6479 O   0  0  0  0  0  0  0  0  0  0  0  0
   -0.2259    1.6145    2.0977 N   0  0  0  0  0  0  0  0  0  0  0  0
    0.4937    1.0594    2.5519 H   0  0  0  0  0  0  0  0  0  0  0  0
   -0.4294    2.9931    2.5256 C   0  0  0  0  0  0  0  0  0  0  0  0
   -1.4200    3.1113    2.9775 H   0  0  0  0  0  0  0  0  0  0  0  0
    0.3249    3.2747    3.2668 H   0  0  0  0  0  0  0  0  0  0  0  0
   -0.3469    3.6752    1.6728 H   0  0  0  0  0  0  0  0  0  0  0  0
  1  2  1  0  0  0  0
  2  3  1  0  0  0  0
  2  4  1  0  0  0  0
  2  5  1  0  0  0  0
  5  6  2  0  0  0  0
  5  7  1  0  0  0  0
  7  8  1  0  0  0  0
  7  9  1  0  0  0  0
  9 10  1  0  0  0  0
  9 11  1  0  0  0  0
  9 26  1  0  0  0  0
 11 12  1  0  0  0  0
 11 13  1  0  0  0  0
 11 14  1  0  0  0  0
 14 15  1  0  0  0  0
 14 16  1  0  0  0  0
 14 17  1  0  0  0  0
 17 18  1  0  0  0  0
 17 19  1  0  0  0  0
 17 20  1  0  0  0  0
 20 21  1  0  0  0  0
 20 22  1  0  0  0  0
 20 23  1  0  0  0  0
 23 24  1  0  0  0  0
 23 25  1  0  0  0  0
 26 27  2  0  0  0  0
 26 28  1  0  0  0  0
 28 29  1  0  0  0  0
 28 30  1  0  0  0  0
 30 31  1  0  0  0  0
 30 32  1  0  0  0  0
 30 33  1  0  0  0  0
M  END
$$$$

  -OEChem-03222214063D

 33 32  0     1  0  0  0  0  0999 V2000
   -3.6690   -4.0344    1.6676 H   0  0  0  0  0  0  0  0  0  0  0  0
   -3.6691   -3.0458    1.2002 C   0  0  0  0  0  0  0  0  0  0  0  0
   -4.3758   -2.4047    1.7325 H   0  0  0  0  0  0  0  0  0  0  0  0
   -3.9908   -3.1474    0.1609 H   0  0  0  0  0  0  0  0  0  0  0  0
   -2.2790   -2.4413    1.2532 C   0  0  0  0  0  0  0  0  0  0  0  0
   -1.3620   -3.0639    1.7671 O   0  0  0  0  0  0  0  0  0  0  0  0
   -2.0582   -1.1915    0.7144 N   0  0  0  0  0  0  0  0  0  0  0  0
   -2.8664   -0.6742    0.3723 H   0  0  0  0  0  0  0  0  0  0  0  0
   -0.7788   -0.4724    0.7657 C   0  0  1  0  0  0  0  0  0  0  0  0
   -0.1215   -0.9004    1.5292 H   0  0  0  0  0  0  0  0  0  0  0  0
   -0.1090   -0.5470   -0.6216 C   0  0  0  0  0  0  0  0  0  0  0  0
   -0.8633   -0.5129   -1.4154 H   0  0  0  0  0  0  0  0  0  0  0  0
    0.5209    0.3401   -0.7490 H   0  0  0  0  0  0  0  0  0  0  0  0
    0.8035   -1.7791   -0.7698 C   0  0  0  0  0  0  0  0  0  0  0  0
    1.7410   -1.4706   -1.2445 H   0  0  0  0  0  0  0  0  0  0  0  0
    1.0559   -2.1988    0.2095 H   0  0  0  0  0  0  0  0  0  0  0  0
    0.1443   -2.8533   -1.6435 C   0  0  0  0  0  0  0  0  0  0  0  0
   -0.8255   -3.1297   -1.2190 H   0  0  0  0  0  0  0  0  0  0  0  0
   -0.0275   -2.4561   -2.6492 H   0  0  0  0  0  0  0  0  0  0  0  0
    1.0257   -4.0950   -1.7316 C   0  0  0  0  0  0  0  0  0  0  0  0
    2.0014   -3.8335   -2.1556 H   0  0  0  0  0  0  0  0  0  0  0  0
    1.1884   -4.5097   -0.7304 H   0  0  0  0  0  0  0  0  0  0  0  0
    0.3592   -5.0835   -2.5847 N   0  0  0  0  0  0  0  0  0  0  0  0
    0.9230   -5.9281   -2.6777 H   0  0  0  0  0  0  0  0  0  0  0  0
   -0.5685   -5.3058   -2.2242 H   0  0  0  0  0  0  0  0  0  0  0  0
   -1.0243    0.9981    1.1595 C   0  0  0  0  0  0  0  0  0  0  0  0
   -1.9588    1.6168    0.6625 O   0  0  0  0  0  0  0  0  0  0  0  0
   -0.2262    1.6152    2.1052 N   0  0  0  0  0  0  0  0  0  0  0  0
    0.5021    1.0580    2.5430 H   0  0  0  0  0  0  0  0  0  0  0  0
   -0.4395    2.9831    2.5616 C   0  0  0  0  0  0  0  0  0  0  0  0
   -1.4349    3.0880    3.0061 H   0  0  0  0  0  0  0  0  0  0  0  0
    0.3057    3.2504    3.3167 H   0  0  0  0  0  0  0  0  0  0  0  0
   -0.3505    3.6844    1.7252 H   0  0  0  0  0  0  0  0  0  0  0  0
  1  2  1  0  0  0  0
  2  3  1  0  0  0  0
  2  4  1  0  0  0  0
  2  5  1  0  0  0  0
  5  6  2  0  0  0  0
  5  7  1  0  0  0  0
  7  8  1  0  0  0  0
  7  9  1  0  0  0  0
  9 10  1  0  0  0  0
  9 11  1  0  0  0  0
  9 26  1  0  0  0  0
 11 12  1  0  0  0  0
 11 13  1  0  0  0  0
 11 14  1  0  0  0  0
 14 15  1  0  0  0  0
 14 16  1  0  0  0  0
 14 17  1  0  0  0  0
 17 18  1  0  0  0  0
 17 19  1  0  0  0  0
 17 20  1  0  0  0  0
 20 21  1  0  0  0  0
 20 22  1  0  0  0  0
 20 23  1  0  0  0  0
 23 24  1  0  0  0  0
 23 25  1  0  0  0  0
 26 27  2  0  0  0  0
 26 28  1  0  0  0  0
 28 29  1  0  0  0  0
 28 30  1  0  0  0  0
 30 31  1  0  0  0  0
 30 32  1  0  0  0  0
 30 33  1  0  0  0  0
M  END
$$$$

  -OEChem-03222214063D

 33 32  0     1  0  0  0  0  0999 V2000
   -3.6852   -4.0266    1.6575 H   0  0  0  0  0  0  0  0  0  0  0  0
   -3.6815   -3.0367    1.1931 C   0  0  0  0  0  0  0  0  0  0  0  0
   -4.3849   -2.3941    1.7281 H   0  0  0  0  0  0  0  0  0  0  0  0
   -4.0046   -3.1337    0.1539 H   0  0  0  0  0  0  0  0  0  0  0  0
   -2.2885   -2.4385    1.2464 C   0  0  0  0  0  0  0  0  0  0  0  0
   -1.3751   -3.0650    1.7613 O   0  0  0  0  0  0  0  0  0  0  0  0
   -2.0623   -1.1886    0.7099 N   0  0  0  0  0  0  0  0  0  0  0  0
   -2.8690   -0.6686    0.3683 H   0  0  0  0  0  0  0  0  0  0  0  0
   -0.7818   -0.4708    0.7653 C   0  0  1  0  0  0  0  0  0  0  0  0
   -0.1253   -0.9004    1.5287 H   0  0  0  0  0  0  0  0  0  0  0  0
   -0.1131   -0.5501   -0.6213 C   0  0  0  0  0  0  0  0  0  0  0  0
   -0.8778   -0.5286   -1.4059 H   0  0  0  0  0  0  0  0  0  0  0  0
    0.5111    0.3379   -0.7683 H   0  0  0  0  0  0  0  0  0  0  0  0
    0.7955   -1.7869   -0.7617 C   0  0  0  0  0  0  0  0  0  0  0  0
    1.8212   -1.4587   -0.9597 H   0  0  0  0  0  0  0  0  0  0  0  0
    0.8110   -2.3663    0.1672 H   0  0  0  0  0  0  0  0  0  0  0  0
    0.3212   -2.6901   -1.9060 C   0  0  0  0  0  0  0  0  0  0  0  0
   -0.7143   -2.9957   -1.7243 H   0  0  0  0  0  0  0  0  0  0  0  0
    0.3522   -2.1371   -2.8507 H   0  0  0  0  0  0  0  0  0  0  0  0
    1.2012   -3.9311   -2.0163 C   0  0  0  0  0  0  0  0  0  0  0  0
    2.2416   -3.6384   -2.1961 H   0  0  0  0  0  0  0  0  0  0  0  0
    1.1640   -4.5010   -1.0810 H   0  0  0  0  0  0  0  0  0  0  0  0
    0.7143   -4.7531   -3.1286 N   0  0  0  0  0  0  0  0  0  0  0  0
    1.2831   -5.5918   -3.2430 H   0  0  0  0  0  0  0  0  0  0  0  0
   -0.2675   -4.9963   -2.9988 H   0  0  0  0  0  0  0  0  0  0  0  0
   -1.0234    1.0002    1.1592 C   0  0  0  0  0  0  0  0  0  0  0  0
   -1.9562    1.6213    0.6619 O   0  0  0  0  0  0  0  0  0  0  0  0
   -0.2252    1.6139    2.1070 N   0  0  0  0  0  0  0  0  0  0  0  0
    0.5030    1.0551    2.5428 H   0  0  0  0  0  0  0  0  0  0  0  0
   -0.4313    2.9837    2.5611 C   0  0  0  0  0  0  0  0  0  0  0  0
   -1.4265    3.0951    3.0040 H   0  0  0  0  0  0  0  0  0  0  0  0
    0.3148    3.2479    3.3165 H   0  0  0  0  0  0  0  0  0  0  0  0
   -0.3377    3.6827    1.7233 H   0  0  0  0  0  0  0  0  0  0  0  0
  1  2  1  0  0  0  0
  2  3  1  0  0  0  0
  2  4  1  0  0  0  0
  2  5  1  0  0  0  0
  5  6  2  0  0  0  0
  5  7  1  0  0  0  0
  7  8  1  0  0  0  0
  7  9  1  0  0  0  0
  9 10  1  0  0  0  0
  9 11  1  0  0  0  0
  9 26  1  0  0  0  0
 11 12  1  0  0  0  0
 11 13  1  0  0  0  0
 11 14  1  0  0  0  0
 14 15  1  0  0  0  0
 14 16  1  0  0  0  0
 14 17  1  0  0  0  0
 17 18  1  0  0  0  0
 17 19  1  0  0  0  0
 17 20  1  0  0  0  0
 20 21  1  0  0  0  0
 20 22  1  0  0  0  0
 20 23  1  0  0  0  0
 23 24  1  0  0  0  0
 23 25  1  0  0  0  0
 26 27  2  0  0  0  0
 26 28  1  0  0  0  0
 28 29  1  0  0  0  0
 28 30  1  0  0  0  0
 30 31  1  0  0  0  0
 30 32  1  0  0  0  0
 30 33  1  0  0  0  0
M  END
$$$$

  -OEChem-03222214063D

 33 32  0     1  0  0  0  0  0999 V2000
   -3.7210   -4.0174    1.6552 H   0  0  0  0  0  0  0  0  0  0  0  0
   -3.7070   -3.0267    1.1926 C   0  0  0  0  0  0  0  0  0  0  0  0
   -4.4107   -2.3806    1.7230 H   0  0  0  0  0  0  0  0  0  0  0  0
   -4.0219   -3.1201    0.1504 H   0  0  0  0  0  0  0  0  0  0  0  0
   -2.3110   -2.4371    1.2594 C   0  0  0  0  0  0  0  0  0  0  0  0
   -1.4100   -3.0627    1.7962 O   0  0  0  0  0  0  0  0  0  0  0  0
   -2.0717   -1.1909    0.7202 N   0  0  0  0  0  0  0  0  0  0  0  0
   -2.8716   -0.6714    0.3620 H   0  0  0  0  0  0  0  0  0  0  0  0
   -0.7861   -0.4806    0.7719 C   0  0  1  0  0  0  0  0  0  0  0  0
   -0.1271   -0.9156    1.5305 H   0  0  0  0  0  0  0  0  0  0  0  0
   -0.1183   -0.5560   -0.6149 C   0  0  0  0  0  0  0  0  0  0  0  0
   -0.8945   -0.5460   -1.3880 H   0  0  0  0  0  0  0  0  0  0  0  0
    0.5017    0.3321   -0.7790 H   0  0  0  0  0  0  0  0  0  0  0  0
    0.7827   -1.7960   -0.7572 C   0  0  0  0  0  0  0  0  0  0  0  0
    1.8319   -1.4972   -0.6620 H   0  0  0  0  0  0  0  0  0  0  0  0
    0.5710   -2.5146    0.0411 H   0  0  0  0  0  0  0  0  0  0  0  0
    0.5517   -2.4906   -2.1036 C   0  0  0  0  0  0  0  0  0  0  0  0
   -0.4972   -2.7946   -2.1841 H   0  0  0  0  0  0  0  0  0  0  0  0
    0.7672   -1.7929   -2.9196 H   0  0  0  0  0  0  0  0  0  0  0  0
    1.4461   -3.7187   -2.2389 C   0  0  0  0  0  0  0  0  0  0  0  0
    2.4995   -3.4247   -2.1729 H   0  0  0  0  0  0  0  0  0  0  0  0
    1.2378   -4.4252   -1.4275 H   0  0  0  0  0  0  0  0  0  0  0  0
    1.1830   -4.3475   -3.5369 N   0  0  0  0  0  0  0  0  0  0  0  0
    1.7611   -5.1774   -3.6682 H   0  0  0  0  0  0  0  0  0  0  0  0
    0.1938   -4.5745   -3.6377 H   0  0  0  0  0  0  0  0  0  0  0  0
   -1.0207    0.9925    1.1615 C   0  0  0  0  0  0  0  0  0  0  0  0
   -1.9503    1.6165    0.6619 O   0  0  0  0  0  0  0  0  0  0  0  0
   -0.2197    1.6063    2.1068 N   0  0  0  0  0  0  0  0  0  0  0  0
    0.5109    1.0485    2.5396 H   0  0  0  0  0  0  0  0  0  0  0  0
   -0.4142    2.9818    2.5489 C   0  0  0  0  0  0  0  0  0  0  0  0
   -1.4091    3.1065    2.9893 H   0  0  0  0  0  0  0  0  0  0  0  0
    0.3331    3.2458    3.3033 H   0  0  0  0  0  0  0  0  0  0  0  0
   -0.3128    3.6725    1.7051 H   0  0  0  0  0  0  0  0  0  0  0  0
  1  2  1  0  0  0  0
  2  3  1  0  0  0  0
  2  4  1  0  0  0  0
  2  5  1  0  0  0  0
  5  6  2  0  0  0  0
  5  7  1  0  0  0  0
  7  8  1  0  0  0  0
  7  9  1  0  0  0  0
  9 10  1  0  0  0  0
  9 11  1  0  0  0  0
  9 26  1  0  0  0  0
 11 12  1  0  0  0  0
 11 13  1  0  0  0  0
 11 14  1  0  0  0  0
 14 15  1  0  0  0  0
 14 16  1  0  0  0  0
 14 17  1  0  0  0  0
 17 18  1  0  0  0  0
 17 19  1  0  0  0  0
 17 20  1  0  0  0  0
 20 21  1  0  0  0  0
 20 22  1  0  0  0  0
 20 23  1  0  0  0  0
 23 24  1  0  0  0  0
 23 25  1  0  0  0  0
 26 27  2  0  0  0  0
 26 28  1  0  0  0  0
 28 29  1  0  0  0  0
 28 30  1  0  0  0  0
 30 31  1  0  0  0  0
 30 32  1  0  0  0  0
 30 33  1  0  0  0  0
M  END
$$$$

  -OEChem-03222214063D

 33 32  0     1  0  0  0  0  0999 V2000
   -3.7328   -4.0111    1.6606 H   0  0  0  0  0  0  0  0  0  0  0  0
   -3.7195   -3.0212    1.1960 C   0  0  0  0  0  0  0  0  0  0  0  0
   -4.4202   -2.3724    1.7273 H   0  0  0  0  0  0  0  0  0  0  0  0
   -4.0391   -3.1162    0.1554 H   0  0  0  0  0  0  0  0  0  0  0  0
   -2.3221   -2.4342    1.2569 C   0  0  0  0  0  0  0  0  0  0  0  0
   -1.4208   -3.0616    1.7911 O   0  0  0  0  0  0  0  0  0  0  0  0
   -2.0821   -1.1871    0.7195 N   0  0  0  0  0  0  0  0  0  0  0  0
   -2.8828   -0.6623    0.3710 H   0  0  0  0  0  0  0  0  0  0  0  0
   -0.7932   -0.4819    0.7635 C   0  0  1  0  0  0  0  0  0  0  0  0
   -0.1309   -0.9244    1.5150 H   0  0  0  0  0  0  0  0  0  0  0  0
   -0.1281   -0.5522   -0.6248 C   0  0  0  0  0  0  0  0  0  0  0  0
   -0.9090   -0.5511   -1.3933 H   0  0  0  0  0  0  0  0  0  0  0  0
    0.4902    0.3357   -0.7960 H   0  0  0  0  0  0  0  0  0  0  0  0
    0.7665   -1.7943   -0.7649 C   0  0  0  0  0  0  0  0  0  0  0  0
    1.7730   -1.5660   -0.3993 H   0  0  0  0  0  0  0  0  0  0  0  0
    0.3687   -2.6111   -0.1543 H   0  0  0  0  0  0  0  0  0  0  0  0
    0.8183   -2.2694   -2.2210 C   0  0  0  0  0  0  0  0  0  0  0  0
   -0.1911   -2.5195   -2.5632 H   0  0  0  0  0  0  0  0  0  0  0  0
    1.2019   -1.4644   -2.8564 H   0  0  0  0  0  0  0  0  0  0  0  0
    1.7168   -3.4947   -2.3582 C   0  0  0  0  0  0  0  0  0  0  0  0
    2.7339   -3.2535   -2.0302 H   0  0  0  0  0  0  0  0  0  0  0  0
    1.3406   -4.3086   -1.7284 H   0  0  0  0  0  0  0  0  0  0  0  0
    1.7301   -3.9088   -3.7643 N   0  0  0  0  0  0  0  0  0  0  0  0
    2.3231   -4.7272   -3.9018 H   0  0  0  0  0  0  0  0  0  0  0  0
    0.7840   -4.0851   -4.1020 H   0  0  0  0  0  0  0  0  0  0  0  0
   -1.0206    0.9904    1.1598 C   0  0  0  0  0  0  0  0  0  0  0  0
   -1.9531    1.6182    0.6705 O   0  0  0  0  0  0  0  0  0  0  0  0
   -0.2102    1.5978    2.1011 N   0  0  0  0  0  0  0  0  0  0  0  0
    0.5212    1.0355    2.5271 H   0  0  0  0  0  0  0  0  0  0  0  0
   -0.3971    2.9719    2.5502 C   0  0  0  0  0  0  0  0  0  0  0  0
   -1.3891    3.0978    2.9964 H   0  0  0  0  0  0  0  0  0  0  0  0
    0.3553    3.2304    3.3013 H   0  0  0  0  0  0  0  0  0  0  0  0
   -0.2983    3.6658    1.7089 H   0  0  0  0  0  0  0  0  0  0  0  0
  1  2  1  0  0  0  0
  2  3  1  0  0  0  0
  2  4  1  0  0  0  0
  2  5  1  0  0  0  0
  5  6  2  0  0  0  0
  5  7  1  0  0  0  0
  7  8  1  0  0  0  0
  7  9  1  0  0  0  0
  9 10  1  0  0  0  0
  9 11  1  0  0  0  0
  9 26  1  0  0  0  0
 11 12  1  0  0  0  0
 11 13  1  0  0  0  0
 11 14  1  0  0  0  0
 14 15  1  0  0  0  0
 14 16  1  0  0  0  0
 14 17  1  0  0  0  0
 17 18  1  0  0  0  0
 17 19  1  0  0  0  0
 17 20  1  0  0  0  0
 20 21  1  0  0  0  0
 20 22  1  0  0  0  0
 20 23  1  0  0  0  0
 23 24  1  0  0  0  0
 23 25  1  0  0  0  0
 26 27  2  0  0  0  0
 26 28  1  0  0  0  0
 28 29  1  0  0  0  0
 28 30  1  0  0  0  0
 30 31  1  0  0  0  0
 30 32  1  0  0  0  0
 30 33  1  0  0  0  0
M  END
$$$$

  -OEChem-03222214063D

 33 32  0     1  0  0  0  0  0999 V2000
   -3.7361   -4.0049    1.6680 H   0  0  0  0  0  0  0  0  0  0  0  0
   -3.7246   -3.0157    1.2023 C   0  0  0  0  0  0  0  0  0  0  0  0
   -4.4148   -2.3636    1.7429 H   0  0  0  0  0  0  0  0  0  0  0  0
   -4.0587   -3.1101    0.1663 H   0  0  0  0  0  0  0  0  0  0  0  0
   -2.3237   -2.4353    1.2434 C   0  0  0  0  0  0  0  0  0  0  0  0
   -1.4158   -3.0702    1.7573 O   0  0  0  0  0  0  0  0  0  0  0  0
   -2.0862   -1.1861    0.7100 N   0  0  0  0  0  0  0  0  0  0  0  0
   -2.8899   -0.6547    0.3784 H   0  0  0  0  0  0  0  0  0  0  0  0
   -0.7963   -0.4828    0.7532 C   0  0  1  0  0  0  0  0  0  0  0  0
   -0.1337   -0.9299    1.5020 H   0  0  0  0  0  0  0  0  0  0  0  0
   -0.1328   -0.5487   -0.6351 C   0  0  0  0  0  0  0  0  0  0  0  0
   -0.9090   -0.5462   -1.4081 H   0  0  0  0  0  0  0  0  0  0  0  0
    0.4896    0.3379   -0.7974 H   0  0  0  0  0  0  0  0  0  0  0  0
    0.7569   -1.7912   -0.7727 C   0  0  0  0  0  0  0  0  0  0  0  0
    1.6691   -1.6595   -0.1813 H   0  0  0  0  0  0  0  0  0  0  0  0
    0.2285   -2.6678   -0.3843 H   0  0  0  0  0  0  0  0  0  0  0  0
    1.1078   -2.0424   -2.2427 C   0  0  0  0  0  0  0  0  0  0  0  0
    0.1901   -2.1905   -2.8211 H   0  0  0  0  0  0  0  0  0  0  0  0
    1.6277   -1.1691   -2.6501 H   0  0  0  0  0  0  0  0  0  0  0  0
    1.9994   -3.2721   -2.3840 C   0  0  0  0  0  0  0  0  0  0  0  0
    2.9267   -3.1313   -1.8176 H   0  0  0  0  0  0  0  0  0  0  0  0
    1.4878   -4.1549   -1.9845 H   0  0  0  0  0  0  0  0  0  0  0  0
    2.3061   -3.4648   -3.8046 N   0  0  0  0  0  0  0  0  0  0  0  0
    2.9026   -4.2801   -3.9459 H   0  0  0  0  0  0  0  0  0  0  0  0
    1.4513   -3.5401   -4.3559 H   0  0  0  0  0  0  0  0  0  0  0  0
   -1.0204    0.9883    1.1565 C   0  0  0  0  0  0  0  0  0  0  0  0
   -1.9562    1.6179    0.6755 O   0  0  0  0  0  0  0  0  0  0  0  0
   -0.2067    1.5911    2.0978 N   0  0  0  0  0  0  0  0  0  0  0  0
    0.5314    1.0294    2.5127 H   0  0  0  0  0  0  0  0  0  0  0  0
   -0.3926    2.9629    2.5542 C   0  0  0  0  0  0  0  0  0  0  0  0
   -1.3824    3.0859    3.0061 H   0  0  0  0  0  0  0  0  0  0  0  0
    0.3635    3.2186    3.3028 H   0  0  0  0  0  0  0  0  0  0  0  0
   -0.2989    3.6604    1.7154 H   0  0  0  0  0  0  0  0  0  0  0  0
  1  2  1  0  0  0  0
  2  3  1  0  0  0  0
  2  4  1  0  0  0  0
  2  5  1  0  0  0  0
  5  6  2  0  0  0  0
  5  7  1  0  0  0  0
  7  8  1  0  0  0  0
  7  9  1  0  0  0  0
  9 10  1  0  0  0  0
  9 11  1  0  0  0  0
  9 26  1  0  0  0  0
 11 12  1  0  0  0  0
 11 13  1  0  0  0  0
 11 14  1  0  0  0  0
 14 15  1  0  0  0  0
 14 16  1  0  0  0  0
 14 17  1  0  0  0  0
 17 18  1  0  0  0  0
 17 19  1  0  0  0  0
 17 20  1  0  0  0  0
 20 21  1  0  0  0  0
 20 22  1  0  0  0  0
 20 23  1  0  0  0  0
 23 24  1  0  0  0  0
 23 25  1  0  0  0  0
 26 27  2  0  0  0  0
 26 28  1  0  0  0  0
 28 29  1  0  0  0  0
 28 30  1  0  0  0  0
 30 31  1  0  0  0  0
 30 32  1  0  0  0  0
 30 33  1  0  0  0  0
M  END
$$$$

  -OEChem-03222214063D

 33 32  0     1  0  0  0  0  0999 V2000
   -3.7587   -3.9962    1.6940 H   0  0  0  0  0  0  0  0  0  0  0  0
   -3.7448   -3.0085    1.2247 C   0  0  0  0  0  0  0  0  0  0  0  0
   -4.4229   -2.3489    1.7714 H   0  0  0  0  0  0  0  0  0  0  0  0
   -4.0927   -3.1036    0.1933 H   0  0  0  0  0  0  0  0  0  0  0  0
   -2.3390   -2.4387    1.2462 C   0  0  0  0  0  0  0  0  0  0  0  0
   -1.4269   -3.0831    1.7405 O   0  0  0  0  0  0  0  0  0  0  0  0
   -2.1005   -1.1906    0.7100 N   0  0  0  0  0  0  0  0  0  0  0  0
   -2.9059   -0.6535    0.3923 H   0  0  0  0  0  0  0  0  0  0  0  0
   -0.8087   -0.4898    0.7477 C   0  0  1  0  0  0  0  0  0  0  0  0
   -0.1469   -0.9420    1.4938 H   0  0  0  0  0  0  0  0  0  0  0  0
   -0.1394   -0.5577   -0.6358 C   0  0  0  0  0  0  0  0  0  0  0  0
   -0.8681   -0.2921   -1.4096 H   0  0  0  0  0  0  0  0  0  0  0  0
    0.6716    0.1772   -0.6804 H   0  0  0  0  0  0  0  0  0  0  0  0
    0.4459   -1.9477   -0.9184 C   0  0  0  0  0  0  0  0  0  0  0  0
    1.1849   -2.2000   -0.1505 H   0  0  0  0  0  0  0  0  0  0  0  0
   -0.3488   -2.6994   -0.8792 H   0  0  0  0  0  0  0  0  0  0  0  0
    1.1042   -1.9813   -2.3012 C   0  0  0  0  0  0  0  0  0  0  0  0
    0.3623   -1.7340   -3.0673 H   0  0  0  0  0  0  0  0  0  0  0  0
    1.9020   -1.2327   -2.3487 H   0  0  0  0  0  0  0  0  0  0  0  0
    1.6902   -3.3603   -2.5877 C   0  0  0  0  0  0  0  0  0  0  0  0
    2.4445   -3.6122   -1.8339 H   0  0  0  0  0  0  0  0  0  0  0  0
    0.9014   -4.1196   -2.5459 H   0  0  0  0  0  0  0  0  0  0  0  0
    2.3020   -3.3389   -3.9200 N   0  0  0  0  0  0  0  0  0  0  0  0
    2.7120   -4.2434   -4.1525 H   0  0  0  0  0  0  0  0  0  0  0  0
    1.6263   -3.0530   -4.6285 H   0  0  0  0  0  0  0  0  0  0  0  0
   -1.0208    0.9831    1.1489 C   0  0  0  0  0  0  0  0  0  0  0  0
   -1.9588    1.6160    0.6768 O   0  0  0  0  0  0  0  0  0  0  0  0
   -0.1981    1.5814    2.0853 N   0  0  0  0  0  0  0  0  0  0  0  0
    0.5401    1.0156    2.4947 H   0  0  0  0  0  0  0  0  0  0  0  0
   -0.3762    2.9525    2.5468 C   0  0  0  0  0  0  0  0  0  0  0  0
   -1.3617    3.0765    3.0078 H   0  0  0  0  0  0  0  0  0  0  0  0
    0.3871    3.2042    3.2892 H   0  0  0  0  0  0  0  0  0  0  0  0
   -0.2880    3.6528    1.7095 H   0  0  0  0  0  0  0  0  0  0  0  0
  1  2  1  0  0  0  0
  2  3  1  0  0  0  0
  2  4  1  0  0  0  0
  2  5  1  0  0  0  0
  5  6  2  0  0  0  0
  5  7  1  0  0  0  0
  7  8  1  0  0  0  0
  7  9  1  0  0  0  0
  9 10  1  0  0  0  0
  9 11  1  0  0  0  0
  9 26  1  0  0  0  0
 11 12  1  0  0  0  0
 11 13  1  0  0  0  0
 11 14  1  0  0  0  0
 14 15  1  0  0  0  0
 14 16  1  0  0  0  0
 14 17  1  0  0  0  0
 17 18  1  0  0  0  0
 17 19  1  0  0  0  0
 17 20  1  0  0  0  0
 20 21  1  0  0  0  0
 20 22  1  0  0  0  0
 20 23  1  0  0  0  0
 23 24  1  0  0  0  0
 23 25  1  0  0  0  0
 26 27  2  0  0  0  0
 26 28  1  0  0  0  0
 28 29  1  0  0  0  0
 28 30  1  0  0  0  0
 30 31  1  0  0  0  0
 30 32  1  0  0  0  0
 30 33  1  0  0  0  0
M  END
$$$$

  -OEChem-03222214063D

 33 32  0     1  0  0  0  0  0999 V2000
   -3.7374   -4.0015    1.6783 H   0  0  0  0  0  0  0  0  0  0  0  0
   -3.7293   -3.0128    1.2108 C   0  0  0  0  0  0  0  0  0  0  0  0
   -4.4050   -2.3562    1.7641 H   0  0  0  0  0  0  0  0  0  0  0  0
   -4.0841   -3.1062    0.1816 H   0  0  0  0  0  0  0  0  0  0  0  0
   -2.3249   -2.4398    1.2225 C   0  0  0  0  0  0  0  0  0  0  0  0
   -1.4055   -3.0878    1.6981 O   0  0  0  0  0  0  0  0  0  0  0  0
   -2.0948   -1.1859    0.6968 N   0  0  0  0  0  0  0  0  0  0  0  0
   -2.9044   -0.6465    0.3942 H   0  0  0  0  0  0  0  0  0  0  0  0
   -0.8067   -0.4798    0.7419 C   0  0  1  0  0  0  0  0  0  0  0  0
   -0.1439   -0.9337    1.4861 H   0  0  0  0  0  0  0  0  0  0  0  0
   -0.1438   -0.5418   -0.6444 C   0  0  0  0  0  0  0  0  0  0  0  0
   -0.8638   -0.2680   -1.4231 H   0  0  0  0  0  0  0  0  0  0  0  0
    0.6679    0.1930   -0.6735 H   0  0  0  0  0  0  0  0  0  0  0  0
    0.4423   -1.9313   -0.9309 C   0  0  0  0  0  0  0  0  0  0  0  0
    0.9887   -2.2896   -0.0519 H   0  0  0  0  0  0  0  0  0  0  0  0
   -0.3696   -2.6381   -1.1314 H   0  0  0  0  0  0  0  0  0  0  0  0
    1.4022   -1.8808   -2.1239 C   0  0  0  0  0  0  0  0  0  0  0  0
    0.8691   -1.5170   -3.0082 H   0  0  0  0  0  0  0  0  0  0  0  0
    2.2212   -1.1858   -1.9115 H   0  0  0  0  0  0  0  0  0  0  0  0
    1.9786   -3.2640   -2.4092 C   0  0  0  0  0  0  0  0  0  0  0  0
    2.5230   -3.6317   -1.5323 H   0  0  0  0  0  0  0  0  0  0  0  0
    1.1700   -3.9703   -2.6276 H   0  0  0  0  0  0  0  0  0  0  0  0
    2.8863   -3.1636   -3.5561 N   0  0  0  0  0  0  0  0  0  0  0  0
    3.3012   -4.0685   -3.7786 H   0  0  0  0  0  0  0  0  0  0  0  0
    2.4078   -2.7734   -4.3679 H   0  0  0  0  0  0  0  0  0  0  0  0
   -1.0229    0.9891    1.1555 C   0  0  0  0  0  0  0  0  0  0  0  0
   -1.9639    1.6221    0.6896 O   0  0  0  0  0  0  0  0  0  0  0  0
   -0.2026    1.5825    2.0971 N   0  0  0  0  0  0  0  0  0  0  0  0
    0.5434    1.0188    2.4951 H   0  0  0  0  0  0  0  0  0  0  0  0
   -0.3807    2.9514    2.5653 C   0  0  0  0  0  0  0  0  0  0  0  0
   -1.3686    3.0759    3.0213 H   0  0  0  0  0  0  0  0  0  0  0  0
    0.3786    3.1965    3.3141 H   0  0  0  0  0  0  0  0  0  0  0  0
   -0.2853    3.6560    1.7325 H   0  0  0  0  0  0  0  0  0  0  0  0
  1  2  1  0  0  0  0
  2  3  1  0  0  0  0
  2  4  1  0  0  0  0
  2  5  1  0  0  0  0
  5  6  2  0  0  0  0
  5  7  1  0  0  0  0
  7  8  1  0  0  0  0
  7  9  1  0  0  0  0
  9 10  1  0  0  0  0
  9 11  1  0  0  0  0
  9 26  1  0  0  0  0
 11 12  1  0  0  0  0
 11 13  1  0  0  0  0
 11 14  1  0  0  0  0
 14 15  1  0  0  0  0
 14 16  1  0  0  0  0
 14 17  1  0  0  0  0
 17 18  1  0  0  0  0
 17 19  1  0  0  0  0
 17 20  1  0  0  0  0
 20 21  1  0  0  0  0
 20 22  1  0  0  0  0
 20 23  1  0  0  0  0
 23 24  1  0  0  0  0
 23 25  1  0  0  0  0
 26 27  2  0  0  0  0
 26 28  1  0  0  0  0
 28 29  1  0  0  0  0
 28 30  1  0  0  0  0
 30 31  1  0  0  0  0
 30 32  1  0  0  0  0
 30 33  1  0  0  0  0
M  END
$$$$

  -OEChem-03222214063D

 33 32  0     1  0  0  0  0  0999 V2000
   -3.7336   -4.0016    1.6716 H   0  0  0  0  0  0  0  0  0  0  0  0
   -3.7251   -3.0121    1.2058 C   0  0  0  0  0  0  0  0  0  0  0  0
   -4.4011   -2.3559    1.7593 H   0  0  0  0  0  0  0  0  0  0  0  0
   -4.0797   -3.1040    0.1764 H   0  0  0  0  0  0  0  0  0  0  0  0
   -2.3207   -2.4392    1.2202 C   0  0  0  0  0  0  0  0  0  0  0  0
   -1.4038   -3.0853    1.7029 O   0  0  0  0  0  0  0  0  0  0  0  0
   -2.0906   -1.1844    0.6965 N   0  0  0  0  0  0  0  0  0  0  0  0
   -2.9002   -0.6472    0.3903 H   0  0  0  0  0  0  0  0  0  0  0  0
   -0.8041   -0.4759    0.7447 C   0  0  1  0  0  0  0  0  0  0  0  0
   -0.1410   -0.9285    1.4891 H   0  0  0  0  0  0  0  0  0  0  0  0
   -0.1436   -0.5345   -0.6433 C   0  0  0  0  0  0  0  0  0  0  0  0
   -0.8601   -0.2547   -1.4230 H   0  0  0  0  0  0  0  0  0  0  0  0
    0.6646    0.2048   -0.6635 H   0  0  0  0  0  0  0  0  0  0  0  0
    0.4470   -1.9228   -0.9406 C   0  0  0  0  0  0  0  0  0  0  0  0
    0.7715   -2.3974   -0.0083 H   0  0  0  0  0  0  0  0  0  0  0  0
   -0.3249   -2.5597   -1.3852 H   0  0  0  0  0  0  0  0  0  0  0  0
    1.6604   -1.8187   -1.8712 C   0  0  0  0  0  0  0  0  0  0  0  0
    1.3638   -1.3346   -2.8073 H   0  0  0  0  0  0  0  0  0  0  0  0
    2.4355   -1.2038   -1.4019 H   0  0  0  0  0  0  0  0  0  0  0  0
    2.2309   -3.2014   -2.1703 C   0  0  0  0  0  0  0  0  0  0  0  0
    2.5393   -3.6893   -1.2389 H   0  0  0  0  0  0  0  0  0  0  0  0
    1.4682   -3.8282   -2.6456 H   0  0  0  0  0  0  0  0  0  0  0  0
    3.3854   -3.0470   -3.0606 N   0  0  0  0  0  0  0  0  0  0  0  0
    3.8107   -3.9494   -3.2726 H   0  0  0  0  0  0  0  0  0  0  0  0
    3.1246   -2.5579   -3.9167 H   0  0  0  0  0  0  0  0  0  0  0  0
   -1.0244    0.9921    1.1593 C   0  0  0  0  0  0  0  0  0  0  0  0
   -1.9643    1.6248    0.6906 O   0  0  0  0  0  0  0  0  0  0  0  0
   -0.2068    1.5854    2.1033 N   0  0  0  0  0  0  0  0  0  0  0  0
    0.5363    1.0206    2.5053 H   0  0  0  0  0  0  0  0  0  0  0  0
   -0.3879    2.9531    2.5738 C   0  0  0  0  0  0  0  0  0  0  0  0
   -1.3762    3.0744    3.0298 H   0  0  0  0  0  0  0  0  0  0  0  0
    0.3708    3.1987    3.3230 H   0  0  0  0  0  0  0  0  0  0  0  0
   -0.2939    3.6590    1.7419 H   0  0  0  0  0  0  0  0  0  0  0  0
  1  2  1  0  0  0  0
  2  3  1  0  0  0  0
  2  4  1  0  0  0  0
  2  5  1  0  0  0  0
  5  6  2  0  0  0  0
  5  7  1  0  0  0  0
  7  8  1  0  0  0  0
  7  9  1  0  0  0  0
  9 10  1  0  0  0  0
  9 11  1  0  0  0  0
  9 26  1  0  0  0  0
 11 12  1  0  0  0  0
 11 13  1  0  0  0  0
 11 14  1  0  0  0  0
 14 15  1  0  0  0  0
 14 16  1  0  0  0  0
 14 17  1  0  0  0  0
 17 18  1  0  0  0  0
 17 19  1  0  0  0  0
 17 20  1  0  0  0  0
 20 21  1  0  0  0  0
 20 22  1  0  0  0  0
 20 23  1  0  0  0  0
 23 24  1  0  0  0  0
 23 25  1  0  0  0  0
 26 27  2  0  0  0  0
 26 28  1  0  0  0  0
 28 29  1  0  0  0  0
 28 30  1  0  0  0  0
 30 31  1  0  0  0  0
 30 32  1  0  0  0  0
 30 33  1  0  0  0  0
M  END
$$$$

  -OEChem-03222214063D

 33 32  0     1  0  0  0  0  0999 V2000
   -3.7392   -4.0105    1.6551 H   0  0  0  0  0  0  0  0  0  0  0  0
   -3.7273   -3.0201    1.1915 C   0  0  0  0  0  0  0  0  0  0  0  0
   -4.4183   -2.3697    1.7331 H   0  0  0  0  0  0  0  0  0  0  0  0
   -4.0606   -3.1123    0.1551 H   0  0  0  0  0  0  0  0  0  0  0  0
   -2.3264   -2.4391    1.2340 C   0  0  0  0  0  0  0  0  0  0  0  0
   -1.4175   -3.0794    1.7386 O   0  0  0  0  0  0  0  0  0  0  0  0
   -2.0916   -1.1850    0.7100 N   0  0  0  0  0  0  0  0  0  0  0  0
   -2.8987   -0.6529    0.3884 H   0  0  0  0  0  0  0  0  0  0  0  0
   -0.8048   -0.4752    0.7538 C   0  0  1  0  0  0  0  0  0  0  0  0
   -0.1377   -0.9277    1.4951 H   0  0  0  0  0  0  0  0  0  0  0  0
   -0.1470   -0.5297   -0.6367 C   0  0  0  0  0  0  0  0  0  0  0  0
   -0.8719   -0.2539   -1.4101 H   0  0  0  0  0  0  0  0  0  0  0  0
    0.6515    0.2197   -0.6637 H   0  0  0  0  0  0  0  0  0  0  0  0
    0.4501   -1.9143   -0.9498 C   0  0  0  0  0  0  0  0  0  0  0  0
    0.5313   -2.5066   -0.0327 H   0  0  0  0  0  0  0  0  0  0  0  0
   -0.2186   -2.4520   -1.6298 H   0  0  0  0  0  0  0  0  0  0  0  0
    1.8498   -1.7930   -1.5639 C   0  0  0  0  0  0  0  0  0  0  0  0
    1.7937   -1.2109   -2.4895 H   0  0  0  0  0  0  0  0  0  0  0  0
    2.5143   -1.2660   -0.8710 H   0  0  0  0  0  0  0  0  0  0  0  0
    2.4303   -3.1720   -1.8621 C   0  0  0  0  0  0  0  0  0  0  0  0
    2.5046   -3.7548   -0.9371 H   0  0  0  0  0  0  0  0  0  0  0  0
    1.7757   -3.7139   -2.5536 H   0  0  0  0  0  0  0  0  0  0  0  0
    3.7605   -3.0015   -2.4546 N   0  0  0  0  0  0  0  0  0  0  0  0
    4.1944   -3.9033   -2.6520 H   0  0  0  0  0  0  0  0  0  0  0  0
    3.7156   -2.4274   -3.2964 H   0  0  0  0  0  0  0  0  0  0  0  0
   -1.0236    0.9934    1.1672 C   0  0  0  0  0  0  0  0  0  0  0  0
   -1.9614    1.6276    0.6963 O   0  0  0  0  0  0  0  0  0  0  0  0
   -0.2028    1.5872    2.1079 N   0  0  0  0  0  0  0  0  0  0  0  0
    0.5395    1.0217    2.5103 H   0  0  0  0  0  0  0  0  0  0  0  0
   -0.3804    2.9563    2.5754 C   0  0  0  0  0  0  0  0  0  0  0  0
   -1.3704    3.0824    3.0261 H   0  0  0  0  0  0  0  0  0  0  0  0
    0.3752    3.2002    3.3285 H   0  0  0  0  0  0  0  0  0  0  0  0
   -0.2792    3.6609    1.7433 H   0  0  0  0  0  0  0  0  0  0  0  0
  1  2  1  0  0  0  0
  2  3  1  0  0  0  0
  2  4  1  0  0  0  0
  2  5  1  0  0  0  0
  5  6  2  0  0  0  0
  5  7  1  0  0  0  0
  7  8  1  0  0  0  0
  7  9  1  0  0  0  0
  9 10  1  0  0  0  0
  9 11  1  0  0  0  0
  9 26  1  0  0  0  0
 11 12  1  0  0  0  0
 11 13  1  0  0  0  0
 11 14  1  0  0  0  0
 14 15  1  0  0  0  0
 14 16  1  0  0  0  0
 14 17  1  0  0  0  0
 17 18  1  0  0  0  0
 17 19  1  0  0  0  0
 17 20  1  0  0  0  0
 20 21  1  0  0  0  0
 20 22  1  0  0  0  0
 20 23  1  0  0  0  0
 23 24  1  0  0  0  0
 23 25  1  0  0  0  0
 26 27  2  0  0  0  0
 26 28  1  0  0  0  0
 28 29  1  0  0  0  0
 28 30  1  0  0  0  0
 30 31  1  0  0  0  0
 30 32  1  0  0  0  0
 30 33  1  0  0  0  0
M  END
$$$$

  -OEChem-03222214063D

 33 32  0     1  0  0  0  0  0999 V2000
   -3.7516   -4.0105    1.6562 H   0  0  0  0  0  0  0  0  0  0  0  0
   -3.7342   -3.0215    1.1899 C   0  0  0  0  0  0  0  0  0  0  0  0
   -4.4287   -2.3682    1.7234 H   0  0  0  0  0  0  0  0  0  0  0  0
   -4.0582   -3.1163    0.1508 H   0  0  0  0  0  0  0  0  0  0  0  0
   -2.3333   -2.4425    1.2450 C   0  0  0  0  0  0  0  0  0  0  0  0
   -1.4340   -3.0771    1.7734 O   0  0  0  0  0  0  0  0  0  0  0  0
   -2.0934   -1.1897    0.7201 N   0  0  0  0  0  0  0  0  0  0  0  0
   -2.8972   -0.6604    0.3860 H   0  0  0  0  0  0  0  0  0  0  0  0
   -0.8049   -0.4821    0.7602 C   0  0  1  0  0  0  0  0  0  0  0  0
   -0.1345   -0.9381    1.4964 H   0  0  0  0  0  0  0  0  0  0  0  0
   -0.1461   -0.5242   -0.6316 C   0  0  0  0  0  0  0  0  0  0  0  0
   -0.8863   -0.2549   -1.3929 H   0  0  0  0  0  0  0  0  0  0  0  0
    0.6411    0.2367   -0.6725 H   0  0  0  0  0  0  0  0  0  0  0  0
    0.4555   -1.9028   -0.9666 C   0  0  0  0  0  0  0  0  0  0  0  0
    0.2827   -2.6077   -0.1485 H   0  0  0  0  0  0  0  0  0  0  0  0
   -0.0429   -2.3050   -1.8544 H   0  0  0  0  0  0  0  0  0  0  0  0
    1.9639   -1.8056   -1.2241 C   0  0  0  0  0  0  0  0  0  0  0  0
    2.1492   -1.1416   -2.0747 H   0  0  0  0  0  0  0  0  0  0  0  0
    2.4605   -1.3798   -0.3458 H   0  0  0  0  0  0  0  0  0  0  0  0
    2.5540   -3.1826   -1.5127 C   0  0  0  0  0  0  0  0  0  0  0  0
    2.3945   -3.8453   -0.6546 H   0  0  0  0  0  0  0  0  0  0  0  0
    2.0601   -3.6286   -2.3832 H   0  0  0  0  0  0  0  0  0  0  0  0
    3.9900   -3.0318   -1.7686 N   0  0  0  0  0  0  0  0  0  0  0  0
    4.4311   -3.9360   -1.9374 H   0  0  0  0  0  0  0  0  0  0  0  0
    4.1585   -2.3938   -2.5461 H   0  0  0  0  0  0  0  0  0  0  0  0
   -1.0237    0.9865    1.1733 C   0  0  0  0  0  0  0  0  0  0  0  0
   -1.9591    1.6222    0.6997 O   0  0  0  0  0  0  0  0  0  0  0  0
   -0.2013    1.5807    2.1124 N   0  0  0  0  0  0  0  0  0  0  0  0
    0.5390    1.0138    2.5167 H   0  0  0  0  0  0  0  0  0  0  0  0
   -0.3736    2.9524    2.5740 C   0  0  0  0  0  0  0  0  0  0  0  0
   -1.3617    3.0831    3.0279 H   0  0  0  0  0  0  0  0  0  0  0  0
    0.3857    3.1981    3.3227 H   0  0  0  0  0  0  0  0  0  0  0  0
   -0.2740    3.6525    1.7378 H   0  0  0  0  0  0  0  0  0  0  0  0
  1  2  1  0  0  0  0
  2  3  1  0  0  0  0
  2  4  1  0  0  0  0
  2  5  1  0  0  0  0
  5  6  2  0  0  0  0
  5  7  1  0  0  0  0
  7  8  1  0  0  0  0
  7  9  1  0  0  0  0
  9 10  1  0  0  0  0
  9 11  1  0  0  0  0
  9 26  1  0  0  0  0
 11 12  1  0  0  0  0
 11 13  1  0  0  0  0
 11 14  1  0  0  0  0
 14 15  1  0  0  0  0
 14 16  1  0  0  0  0
 14 17  1  0  0  0  0
 17 18  1  0  0  0  0
 17 19  1  0  0  0  0
 17 20  1  0  0  0  0
 20 21  1  0  0  0  0
 20 22  1  0  0  0  0
 20 23  1  0  0  0  0
 23 24  1  0  0  0  0
 23 25  1  0  0  0  0
 26 27  2  0  0  0  0
 26 28  1  0  0  0  0
 28 29  1  0  0  0  0
 28 30  1  0  0  0  0
 30 31  1  0  0  0  0
 30 32  1  0  0  0  0
 30 33  1  0  0  0  0
M  END
$$$$

  -OEChem-03222214063D

 33 32  0     1  0  0  0  0  0999 V2000
   -3.7494   -4.0164    1.6597 H   0  0  0  0  0  0  0  0  0  0  0  0
   -3.7327   -3.0281    1.1917 C   0  0  0  0  0  0  0  0  0  0  0  0
   -4.4264   -2.3738    1.7254 H   0  0  0  0  0  0  0  0  0  0  0  0
   -4.0583   -3.1247    0.1532 H   0  0  0  0  0  0  0  0  0  0  0  0
   -2.3316   -2.4492    1.2436 C   0  0  0  0  0  0  0  0  0  0  0  0
   -1.4313   -3.0845    1.7695 O   0  0  0  0  0  0  0  0  0  0  0  0
   -2.0936   -1.1948    0.7216 N   0  0  0  0  0  0  0  0  0  0  0  0
   -2.8988   -0.6658    0.3905 H   0  0  0  0  0  0  0  0  0  0  0  0
   -0.8052   -0.4857    0.7579 C   0  0  1  0  0  0  0  0  0  0  0  0
   -0.1320   -0.9454    1.4894 H   0  0  0  0  0  0  0  0  0  0  0  0
   -0.1430   -0.5128   -0.6335 C   0  0  0  0  0  0  0  0  0  0  0  0
   -0.8975   -0.2549   -1.3845 H   0  0  0  0  0  0  0  0  0  0  0  0
    0.6336    0.2580   -0.6877 H   0  0  0  0  0  0  0  0  0  0  0  0
    0.4645   -1.8838   -0.9820 C   0  0  0  0  0  0  0  0  0  0  0  0
    0.0587   -2.6670   -0.3367 H   0  0  0  0  0  0  0  0  0  0  0  0
    0.1928   -2.1389   -2.0115 H   0  0  0  0  0  0  0  0  0  0  0  0
    1.9934   -1.8557   -0.8684 C   0  0  0  0  0  0  0  0  0  0  0  0
    2.4027   -1.1365   -1.5851 H   0  0  0  0  0  0  0  0  0  0  0  0
    2.2811   -1.5341    0.1381 H   0  0  0  0  0  0  0  0  0  0  0  0
    2.5817   -3.2372   -1.1375 C   0  0  0  0  0  0  0  0  0  0  0  0
    2.2056   -3.9538   -0.3985 H   0  0  0  0  0  0  0  0  0  0  0  0
    2.2834   -3.5863   -2.1321 H   0  0  0  0  0  0  0  0  0  0  0  0
    4.0428   -3.1479   -1.0517 N   0  0  0  0  0  0  0  0  0  0  0  0
    4.4764   -4.0611   -1.1883 H   0  0  0  0  0  0  0  0  0  0  0  0
    4.4081   -2.4680   -1.7182 H   0  0  0  0  0  0  0  0  0  0  0  0
   -1.0258    0.9809    1.1766 C   0  0  0  0  0  0  0  0  0  0  0  0
   -1.9630    1.6171    0.7068 O   0  0  0  0  0  0  0  0  0  0  0  0
   -0.2007    1.5738    2.1140 N   0  0  0  0  0  0  0  0  0  0  0  0
    0.5413    1.0065    2.5144 H   0  0  0  0  0  0  0  0  0  0  0  0
   -0.3686    2.9462    2.5753 C   0  0  0  0  0  0  0  0  0  0  0  0
   -1.3557    3.0803    3.0300 H   0  0  0  0  0  0  0  0  0  0  0  0
    0.3921    3.1898    3.3231 H   0  0  0  0  0  0  0  0  0  0  0  0
   -0.2674    3.6453    1.7386 H   0  0  0  0  0  0  0  0  0  0  0  0
  1  2  1  0  0  0  0
  2  3  1  0  0  0  0
  2  4  1  0  0  0  0
  2  5  1  0  0  0  0
  5  6  2  0  0  0  0
  5  7  1  0  0  0  0
  7  8  1  0  0  0  0
  7  9  1  0  0  0  0
  9 10  1  0  0  0  0
  9 11  1  0  0  0  0
  9 26  1  0  0  0  0
 11 12  1  0  0  0  0
 11 13  1  0  0  0  0
 11 14  1  0  0  0  0
 14 15  1  0  0  0  0
 14 16  1  0  0  0  0
 14 17  1  0  0  0  0
 17 18  1  0  0  0  0
 17 19  1  0  0  0  0
 17 20  1  0  0  0  0
 20 21  1  0  0  0  0
 20 22  1  0  0  0  0
 20 23  1  0  0  0  0
 23 24  1  0  0  0  0
 23 25  1  0  0  0  0
 26 27  2  0  0  0  0
 26 28  1  0  0  0  0
 28 29  1  0  0  0  0
 28 30  1  0  0  0  0
 30 31  1  0  0  0  0
 30 32  1  0  0  0  0
 30 33  1  0  0  0  0
M  END
$$$$

  -OEChem-03222214063D

 33 32  0     1  0  0  0  0  0999 V2000
   -3.7293   -4.0231    1.6620 H   0  0  0  0  0  0  0  0  0  0  0  0
   -3.7211   -3.0345    1.1944 C   0  0  0  0  0  0  0  0  0  0  0  0
   -4.4119   -2.3833    1.7355 H   0  0  0  0  0  0  0  0  0  0  0  0
   -4.0572   -3.1312    0.1593 H   0  0  0  0  0  0  0  0  0  0  0  0
   -2.3214   -2.4509    1.2315 C   0  0  0  0  0  0  0  0  0  0  0  0
   -1.4114   -3.0884    1.7376 O   0  0  0  0  0  0  0  0  0  0  0  0
   -2.0924   -1.1935    0.7120 N   0  0  0  0  0  0  0  0  0  0  0  0
   -2.9020   -0.6638    0.3930 H   0  0  0  0  0  0  0  0  0  0  0  0
   -0.8068   -0.4795    0.7510 C   0  0  1  0  0  0  0  0  0  0  0  0
   -0.1372   -0.9379    1.4860 H   0  0  0  0  0  0  0  0  0  0  0  0
   -0.1368   -0.5046   -0.6369 C   0  0  0  0  0  0  0  0  0  0  0  0
   -0.8912   -0.2538   -1.3904 H   0  0  0  0  0  0  0  0  0  0  0  0
    0.6392    0.2668   -0.6926 H   0  0  0  0  0  0  0  0  0  0  0  0
    0.4780   -1.8710   -0.9809 C   0  0  0  0  0  0  0  0  0  0  0  0
   -0.1098   -2.6835   -0.5452 H   0  0  0  0  0  0  0  0  0  0  0  0
    0.4567   -2.0009   -2.0677 H   0  0  0  0  0  0  0  0  0  0  0  0
    1.9357   -1.9526   -0.5106 C   0  0  0  0  0  0  0  0  0  0  0  0
    2.5331   -1.1976   -1.0318 H   0  0  0  0  0  0  0  0  0  0  0  0
    1.9911   -1.7467    0.5632 H   0  0  0  0  0  0  0  0  0  0  0  0
    2.5143   -3.3379   -0.7794 C   0  0  0  0  0  0  0  0  0  0  0  0
    1.9571   -4.0908   -0.2102 H   0  0  0  0  0  0  0  0  0  0  0  0
    2.4282   -3.5830   -1.8438 H   0  0  0  0  0  0  0  0  0  0  0  0
    3.9239   -3.3430   -0.3744 N   0  0  0  0  0  0  0  0  0  0  0  0
    4.3372   -4.2682   -0.4907 H   0  0  0  0  0  0  0  0  0  0  0  0
    4.4551   -2.6399   -0.8872 H   0  0  0  0  0  0  0  0  0  0  0  0
   -1.0297    0.9851    1.1734 C   0  0  0  0  0  0  0  0  0  0  0  0
   -1.9683    1.6210    0.7062 O   0  0  0  0  0  0  0  0  0  0  0  0
   -0.2048    1.5757    2.1123 N   0  0  0  0  0  0  0  0  0  0  0  0
    0.5389    1.0080    2.5096 H   0  0  0  0  0  0  0  0  0  0  0  0
   -0.3766    2.9453    2.5803 C   0  0  0  0  0  0  0  0  0  0  0  0
   -1.3650    3.0744    3.0339 H   0  0  0  0  0  0  0  0  0  0  0  0
    0.3821    3.1868    3.3309 H   0  0  0  0  0  0  0  0  0  0  0  0
   -0.2756    3.6494    1.7476 H   0  0  0  0  0  0  0  0  0  0  0  0
  1  2  1  0  0  0  0
  2  3  1  0  0  0  0
  2  4  1  0  0  0  0
  2  5  1  0  0  0  0
  5  6  2  0  0  0  0
  5  7  1  0  0  0  0
  7  8  1  0  0  0  0
  7  9  1  0  0  0  0
  9 10  1  0  0  0  0
  9 11  1  0  0  0  0
  9 26  1  0  0  0  0
 11 12  1  0  0  0  0
 11 13  1  0  0  0  0
 11 14  1  0  0  0  0
 14 15  1  0  0  0  0
 14 16  1  0  0  0  0
 14 17  1  0  0  0  0
 17 18  1  0  0  0  0
 17 19  1  0  0  0  0
 17 20  1  0  0  0  0
 20 21  1  0  0  0  0
 20 22  1  0  0  0  0
 20 23  1  0  0  0  0
 23 24  1  0  0  0  0
 23 25  1  0  0  0  0
 26 27  2  0  0  0  0
 26 28  1  0  0  0  0
 28 29  1  0  0  0  0
 28 30  1  0  0  0  0
 30 31  1  0  0  0  0
 30 32  1  0  0  0  0
 30 33  1  0  0  0  0
M  END
$$$$

  -OEChem-03222214063D

 33 32  0     1  0  0  0  0  0999 V2000
   -3.7345   -4.0037    1.6640 H   0  0  0  0  0  0  0  0  0  0  0  0
   -3.7229   -3.0140    1.1988 C   0  0  0  0  0  0  0  0  0  0  0  0
   -4.4108   -2.3615    1.7421 H   0  0  0  0  0  0  0  0  0  0  0  0
   -4.0597   -3.1071    0.1636 H   0  0  0  0  0  0  0  0  0  0  0  0
   -2.3212   -2.4347    1.2359 C   0  0  0  0  0  0  0  0  0  0  0  0
   -1.4116   -3.0738    1.7403 O   0  0  0  0  0  0  0  0  0  0  0  0
   -2.0876   -1.1823    0.7072 N   0  0  0  0  0  0  0  0  0  0  0  0
   -2.8955   -0.6512    0.3863 H   0  0  0  0  0  0  0  0  0  0  0  0
   -0.8045   -0.4661    0.7655 C   0  0  1  0  0  0  0  0  0  0  0  0
   -0.1550   -0.9109    1.5246 H   0  0  0  0  0  0  0  0  0  0  0  0
   -0.1164   -0.5142   -0.6130 C   0  0  0  0  0  0  0  0  0  0  0  0
   -0.8542   -0.2631   -1.3824 H   0  0  0  0  0  0  0  0  0  0  0  0
    0.6688    0.2482   -0.6584 H   0  0  0  0  0  0  0  0  0  0  0  0
    0.5056   -1.8815   -0.9408 C   0  0  0  0  0  0  0  0  0  0  0  0
   -0.2119   -2.6808   -0.7317 H   0  0  0  0  0  0  0  0  0  0  0  0
    0.7271   -1.9135   -2.0125 H   0  0  0  0  0  0  0  0  0  0  0  0
    1.8069   -2.1260   -0.1626 C   0  0  0  0  0  0  0  0  0  0  0  0
    2.5319   -1.3440   -0.4098 H   0  0  0  0  0  0  0  0  0  0  0  0
    1.6211   -2.0872    0.9146 H   0  0  0  0  0  0  0  0  0  0  0  0
    2.3907   -3.4924   -0.5063 C   0  0  0  0  0  0  0  0  0  0  0  0
    1.7038   -4.2817   -0.1801 H   0  0  0  0  0  0  0  0  0  0  0  0
    2.5254   -3.5845   -1.5896 H   0  0  0  0  0  0  0  0  0  0  0  0
    3.6826   -3.6352    0.1734 N   0  0  0  0  0  0  0  0  0  0  0  0
    4.0815   -4.5605    0.0160 H   0  0  0  0  0  0  0  0  0  0  0  0
    4.3319   -2.9039   -0.1149 H   0  0  0  0  0  0  0  0  0  0  0  0
   -1.0382    1.0028    1.1675 C   0  0  0  0  0  0  0  0  0  0  0  0
   -1.9705    1.6304    0.6771 O   0  0  0  0  0  0  0  0  0  0  0  0
   -0.2346    1.6060    2.1171 N   0  0  0  0  0  0  0  0  0  0  0  0
    0.4974    1.0425    2.5409 H   0  0  0  0  0  0  0  0  0  0  0  0
   -0.4270    2.9761    2.5754 C   0  0  0  0  0  0  0  0  0  0  0  0
   -1.4195    3.0956    3.0221 H   0  0  0  0  0  0  0  0  0  0  0  0
    0.3244    3.2318    3.3286 H   0  0  0  0  0  0  0  0  0  0  0  0
   -0.3304    3.6758    1.7387 H   0  0  0  0  0  0  0  0  0  0  0  0
  1  2  1  0  0  0  0
  2  3  1  0  0  0  0
  2  4  1  0  0  0  0
  2  5  1  0  0  0  0
  5  6  2  0  0  0  0
  5  7  1  0  0  0  0
  7  8  1  0  0  0  0
  7  9  1  0  0  0  0
  9 10  1  0  0  0  0
  9 11  1  0  0  0  0
  9 26  1  0  0  0  0
 11 12  1  0  0  0  0
 11 13  1  0  0  0  0
 11 14  1  0  0  0  0
 14 15  1  0  0  0  0
 14 16  1  0  0  0  0
 14 17  1  0  0  0  0
 17 18  1  0  0  0  0
 17 19  1  0  0  0  0
 17 20  1  0  0  0  0
 20 21  1  0  0  0  0
 20 22  1  0  0  0  0
 20 23  1  0  0  0  0
 23 24  1  0  0  0  0
 23 25  1  0  0  0  0
 26 27  2  0  0  0  0
 26 28  1  0  0  0  0
 28 29  1  0  0  0  0
 28 30  1  0  0  0  0
 30 31  1  0  0  0  0
 30 32  1  0  0  0  0
 30 33  1  0  0  0  0
M  END
$$$$

  -OEChem-03222214063D

 33 32  0     1  0  0  0  0  0999 V2000
   -3.7966   -3.9574    1.6673 H   0  0  0  0  0  0  0  0  0  0  0  0
   -3.7643   -2.9698    1.1986 C   0  0  0  0  0  0  0  0  0  0  0  0
   -4.4679   -2.3116    1.7140 H   0  0  0  0  0  0  0  0  0  0  0  0
   -4.0647   -3.0665    0.1525 H   0  0  0  0  0  0  0  0  0  0  0  0
   -2.3622   -2.3970    1.2832 C   0  0  0  0  0  0  0  0  0  0  0  0
   -1.4825   -3.0262    1.8477 O   0  0  0  0  0  0  0  0  0  0  0  0
   -2.0969   -1.1618    0.7304 N   0  0  0  0  0  0  0  0  0  0  0  0
   -2.8859   -0.6369    0.3569 H   0  0  0  0  0  0  0  0  0  0  0  0
   -0.8083   -0.4582    0.8040 C   0  0  1  0  0  0  0  0  0  0  0  0
   -0.1804   -0.8831    1.5910 H   0  0  0  0  0  0  0  0  0  0  0  0
   -0.1061   -0.5513   -0.5660 C   0  0  0  0  0  0  0  0  0  0  0  0
   -0.8214   -0.2900   -1.3532 H   0  0  0  0  0  0  0  0  0  0  0  0
    0.6964    0.1929   -0.6007 H   0  0  0  0  0  0  0  0  0  0  0  0
    0.5116   -1.9246   -0.8845 C   0  0  0  0  0  0  0  0  0  0  0  0
   -0.2810   -2.6794   -0.9126 H   0  0  0  0  0  0  0  0  0  0  0  0
    0.9561   -1.8764   -1.8839 H   0  0  0  0  0  0  0  0  0  0  0  0
    1.5868   -2.3620    0.1232 C   0  0  0  0  0  0  0  0  0  0  0  0
    2.3448   -1.5773    0.2091 H   0  0  0  0  0  0  0  0  0  0  0  0
    1.1483   -2.5223    1.1119 H   0  0  0  0  0  0  0  0  0  0  0  0
    2.2479   -3.6617   -0.3255 C   0  0  0  0  0  0  0  0  0  0  0  0
    1.5113   -4.4731   -0.3222 H   0  0  0  0  0  0  0  0  0  0  0  0
    2.6349   -3.5572   -1.3450 H   0  0  0  0  0  0  0  0  0  0  0  0
    3.3464   -3.9742    0.5945 N   0  0  0  0  0  0  0  0  0  0  0  0
    3.7863   -4.8629    0.3567 H   0  0  0  0  0  0  0  0  0  0  0  0
    4.0326   -3.2207    0.6173 H   0  0  0  0  0  0  0  0  0  0  0  0
   -1.0382    1.0226    1.1617 C   0  0  0  0  0  0  0  0  0  0  0  0
   -1.9488    1.6466    0.6278 O   0  0  0  0  0  0  0  0  0  0  0  0
   -0.2543    1.6429    2.1168 N   0  0  0  0  0  0  0  0  0  0  0  0
    0.4489    1.0787    2.5862 H   0  0  0  0  0  0  0  0  0  0  0  0
   -0.4621    3.0185    2.5513 C   0  0  0  0  0  0  0  0  0  0  0  0
   -1.4625    3.1373    2.9804 H   0  0  0  0  0  0  0  0  0  0  0  0
    0.2754    3.2900    3.3125 H   0  0  0  0  0  0  0  0  0  0  0  0
   -0.3562    3.7074    1.7067 H   0  0  0  0  0  0  0  0  0  0  0  0
  1  2  1  0  0  0  0
  2  3  1  0  0  0  0
  2  4  1  0  0  0  0
  2  5  1  0  0  0  0
  5  6  2  0  0  0  0
  5  7  1  0  0  0  0
  7  8  1  0  0  0  0
  7  9  1  0  0  0  0
  9 10  1  0  0  0  0
  9 11  1  0  0  0  0
  9 26  1  0  0  0  0
 11 12  1  0  0  0  0
 11 13  1  0  0  0  0
 11 14  1  0  0  0  0
 14 15  1  0  0  0  0
 14 16  1  0  0  0  0
 14 17  1  0  0  0  0
 17 18  1  0  0  0  0
 17 19  1  0  0  0  0
 17 20  1  0  0  0  0
 20 21  1  0  0  0  0
 20 22  1  0  0  0  0
 20 23  1  0  0  0  0
 23 24  1  0  0  0  0
 23 25  1  0  0  0  0
 26 27  2  0  0  0  0
 26 28  1  0  0  0  0
 28 29  1  0  0  0  0
 28 30  1  0  0  0  0
 30 31  1  0  0  0  0
 30 32  1  0  0  0  0
 30 33  1  0  0  0  0
M  END
$$$$

  -OEChem-03222214063D

 33 32  0     1  0  0  0  0  0999 V2000
   -3.8766   -3.9315    1.6583 H   0  0  0  0  0  0  0  0  0  0  0  0
   -3.8073   -2.9536    1.1738 C   0  0  0  0  0  0  0  0  0  0  0  0
   -4.5641   -2.2928    1.6034 H   0  0  0  0  0  0  0  0  0  0  0  0
   -4.0028   -3.0758    0.1058 H   0  0  0  0  0  0  0  0  0  0  0  0
   -2.4255   -2.3634    1.3832 C   0  0  0  0  0  0  0  0  0  0  0  0
   -1.6285   -2.9340    2.1076 O   0  0  0  0  0  0  0  0  0  0  0  0
   -2.1103   -1.1536    0.8019 N   0  0  0  0  0  0  0  0  0  0  0  0
   -2.8565   -0.6706    0.3051 H   0  0  0  0  0  0  0  0  0  0  0  0
   -0.8154   -0.4593    0.8805 C   0  0  1  0  0  0  0  0  0  0  0  0
   -0.1948   -0.8715    1.6813 H   0  0  0  0  0  0  0  0  0  0  0  0
   -0.1047   -0.5750   -0.4871 C   0  0  0  0  0  0  0  0  0  0  0  0
   -0.8039   -0.2929   -1.2817 H   0  0  0  0  0  0  0  0  0  0  0  0
    0.7071    0.1602   -0.5012 H   0  0  0  0  0  0  0  0  0  0  0  0
    0.5240   -1.9368   -0.8397 C   0  0  0  0  0  0  0  0  0  0  0  0
   -0.2794   -2.6264   -1.1190 H   0  0  0  0  0  0  0  0  0  0  0  0
    1.1631   -1.8028   -1.7186 H   0  0  0  0  0  0  0  0  0  0  0  0
    1.3384   -2.5848    0.2907 C   0  0  0  0  0  0  0  0  0  0  0  0
    2.0887   -1.8731    0.6495 H   0  0  0  0  0  0  0  0  0  0  0  0
    0.6966   -2.8528    1.1315 H   0  0  0  0  0  0  0  0  0  0  0  0
    2.0345   -3.8476   -0.2106 C   0  0  0  0  0  0  0  0  0  0  0  0
    1.2865   -4.5929   -0.5038 H   0  0  0  0  0  0  0  0  0  0  0  0
    2.6475   -3.6164   -1.0888 H   0  0  0  0  0  0  0  0  0  0  0  0
    2.8812   -4.3809    0.8610 N   0  0  0  0  0  0  0  0  0  0  0  0
    3.3542   -5.2362    0.5699 H   0  0  0  0  0  0  0  0  0  0  0  0
    3.5507   -3.6832    1.1836 H   0  0  0  0  0  0  0  0  0  0  0  0
   -1.0451    1.0353    1.1809 C   0  0  0  0  0  0  0  0  0  0  0  0
   -1.9219    1.6525    0.5856 O   0  0  0  0  0  0  0  0  0  0  0  0
   -0.2806    1.6847    2.1323 N   0  0  0  0  0  0  0  0  0  0  0  0
    0.3889    1.1278    2.6562 H   0  0  0  0  0  0  0  0  0  0  0  0
   -0.4825    3.0799    2.5030 C   0  0  0  0  0  0  0  0  0  0  0  0
   -1.4846    3.2248    2.9201 H   0  0  0  0  0  0  0  0  0  0  0  0
    0.2526    3.3818    3.2552 H   0  0  0  0  0  0  0  0  0  0  0  0
   -0.3674    3.7289    1.6284 H   0  0  0  0  0  0  0  0  0  0  0  0
  1  2  1  0  0  0  0
  2  3  1  0  0  0  0
  2  4  1  0  0  0  0
  2  5  1  0  0  0  0
  5  6  2  0  0  0  0
  5  7  1  0  0  0  0
  7  8  1  0  0  0  0
  7  9  1  0  0  0  0
  9 10  1  0  0  0  0
  9 11  1  0  0  0  0
  9 26  1  0  0  0  0
 11 12  1  0  0  0  0
 11 13  1  0  0  0  0
 11 14  1  0  0  0  0
 14 15  1  0  0  0  0
 14 16  1  0  0  0  0
 14 17  1  0  0  0  0
 17 18  1  0  0  0  0
 17 19  1  0  0  0  0
 17 20  1  0  0  0  0
 20 21  1  0  0  0  0
 20 22  1  0  0  0  0
 20 23  1  0  0  0  0
 23 24  1  0  0  0  0
 23 25  1  0  0  0  0
 26 27  2  0  0  0  0
 26 28  1  0  0  0  0
 28 29  1  0  0  0  0
 28 30  1  0  0  0  0
 30 31  1  0  0  0  0
 30 32  1  0  0  0  0
 30 33  1  0  0  0  0
M  END
$$$$

  -OEChem-03222214063D

 33 32  0     1  0  0  0  0  0999 V2000
   -3.9243   -3.8942    1.7459 H   0  0  0  0  0  0  0  0  0  0  0  0
   -3.8266   -2.9545    1.1950 C   0  0  0  0  0  0  0  0  0  0  0  0
   -4.6426   -2.2883    1.4848 H   0  0  0  0  0  0  0  0  0  0  0  0
   -3.8990   -3.1647    0.1253 H   0  0  0  0  0  0  0  0  0  0  0  0
   -2.4919   -2.3041    1.5055 C   0  0  0  0  0  0  0  0  0  0  0  0
   -1.7784   -2.7722    2.3770 O   0  0  0  0  0  0  0  0  0  0  0  0
   -2.1473   -1.1250    0.8793 N   0  0  0  0  0  0  0  0  0  0  0  0
   -2.8430   -0.7069    0.2653 H   0  0  0  0  0  0  0  0  0  0  0  0
   -0.8377   -0.4579    0.9446 C   0  0  1  0  0  0  0  0  0  0  0  0
   -0.2235   -0.8636    1.7540 H   0  0  0  0  0  0  0  0  0  0  0  0
   -0.1201   -0.5946   -0.4216 C   0  0  0  0  0  0  0  0  0  0  0  0
   -0.8056   -0.2870   -1.2189 H   0  0  0  0  0  0  0  0  0  0  0  0
    0.7040    0.1272   -0.4197 H   0  0  0  0  0  0  0  0  0  0  0  0
    0.5041   -1.9510   -0.8109 C   0  0  0  0  0  0  0  0  0  0  0  0
   -0.2533   -2.5315   -1.3481 H   0  0  0  0  0  0  0  0  0  0  0  0
    1.3232   -1.7587   -1.5117 H   0  0  0  0  0  0  0  0  0  0  0  0
    1.0147   -2.8187    0.3463 C   0  0  0  0  0  0  0  0  0  0  0  0
    1.6432   -2.2184    1.0112 H   0  0  0  0  0  0  0  0  0  0  0  0
    0.1769   -3.2088    0.9238 H   0  0  0  0  0  0  0  0  0  0  0  0
    1.8283   -3.9947   -0.1898 C   0  0  0  0  0  0  0  0  0  0  0  0
    1.2163   -4.5936   -0.8734 H   0  0  0  0  0  0  0  0  0  0  0  0
    2.6975   -3.6261   -0.7457 H   0  0  0  0  0  0  0  0  0  0  0  0
    2.2681   -4.8221    0.9371 N   0  0  0  0  0  0  0  0  0  0  0  0
    2.8504   -5.5986    0.6247 H   0  0  0  0  0  0  0  0  0  0  0  0
    2.7486   -4.2624    1.6411 H   0  0  0  0  0  0  0  0  0  0  0  0
   -1.0461    1.0513    1.1879 C   0  0  0  0  0  0  0  0  0  0  0  0
   -1.8892    1.6688    0.5457 O   0  0  0  0  0  0  0  0  0  0  0  0
   -0.2794    1.7202    2.1241 N   0  0  0  0  0  0  0  0  0  0  0  0
    0.3464    1.1634    2.6994 H   0  0  0  0  0  0  0  0  0  0  0  0
   -0.4631    3.1303    2.4446 C   0  0  0  0  0  0  0  0  0  0  0  0
   -1.4676    3.3040    2.8446 H   0  0  0  0  0  0  0  0  0  0  0  0
    0.2684    3.4464    3.1945 H   0  0  0  0  0  0  0  0  0  0  0  0
   -0.3282    3.7477    1.5502 H   0  0  0  0  0  0  0  0  0  0  0  0
  1  2  1  0  0  0  0
  2  3  1  0  0  0  0
  2  4  1  0  0  0  0
  2  5  1  0  0  0  0
  5  6  2  0  0  0  0
  5  7  1  0  0  0  0
  7  8  1  0  0  0  0
  7  9  1  0  0  0  0
  9 10  1  0  0  0  0
  9 11  1  0  0  0  0
  9 26  1  0  0  0  0
 11 12  1  0  0  0  0
 11 13  1  0  0  0  0
 11 14  1  0  0  0  0
 14 15  1  0  0  0  0
 14 16  1  0  0  0  0
 14 17  1  0  0  0  0
 17 18  1  0  0  0  0
 17 19  1  0  0  0  0
 17 20  1  0  0  0  0
 20 21  1  0  0  0  0
 20 22  1  0  0  0  0
 20 23  1  0  0  0  0
 23 24  1  0  0  0  0
 23 25  1  0  0  0  0
 26 27  2  0  0  0  0
 26 28  1  0  0  0  0
 28 29  1  0  0  0  0
 28 30  1  0  0  0  0
 30 31  1  0  0  0  0
 30 32  1  0  0  0  0
 30 33  1  0  0  0  0
M  END
$$$$

  -OEChem-03222214063D

 33 32  0     1  0  0  0  0  0999 V2000
   -3.9039   -3.8345    2.1143 H   0  0  0  0  0  0  0  0  0  0  0  0
   -3.8267   -2.9386    1.4918 C   0  0  0  0  0  0  0  0  0  0  0  0
   -4.6255   -2.2464    1.7685 H   0  0  0  0  0  0  0  0  0  0  0  0
   -3.9483   -3.2259    0.4447 H   0  0  0  0  0  0  0  0  0  0  0  0
   -2.4761   -2.2782    1.6915 C   0  0  0  0  0  0  0  0  0  0  0  0
   -1.6976   -2.7227    2.5206 O   0  0  0  0  0  0  0  0  0  0  0  0
   -2.1766   -1.1171    1.0104 N   0  0  0  0  0  0  0  0  0  0  0  0
   -2.9084   -0.7166    0.4273 H   0  0  0  0  0  0  0  0  0  0  0  0
   -0.8601   -0.4628    0.9714 C   0  0  1  0  0  0  0  0  0  0  0  0
   -0.1991   -0.8498    1.7519 H   0  0  0  0  0  0  0  0  0  0  0  0
   -0.2132   -0.6169   -0.4299 C   0  0  0  0  0  0  0  0  0  0  0  0
   -0.9440   -0.3132   -1.1875 H   0  0  0  0  0  0  0  0  0  0  0  0
    0.6069    0.1079   -0.4800 H   0  0  0  0  0  0  0  0  0  0  0  0
    0.3934   -1.9721   -0.8632 C   0  0  0  0  0  0  0  0  0  0  0  0
   -0.2806   -2.4265   -1.5971 H   0  0  0  0  0  0  0  0  0  0  0  0
    1.3354   -1.7627   -1.3812 H   0  0  0  0  0  0  0  0  0  0  0  0
    0.6506   -3.0135    0.2324 C   0  0  0  0  0  0  0  0  0  0  0  0
   -0.2982   -3.4503    0.5471 H   0  0  0  0  0  0  0  0  0  0  0  0
    1.1295   -2.5491    1.0993 H   0  0  0  0  0  0  0  0  0  0  0  0
    1.5494   -4.1319   -0.2893 C   0  0  0  0  0  0  0  0  0  0  0  0
    1.1339   -4.5532   -1.2116 H   0  0  0  0  0  0  0  0  0  0  0  0
    2.5448   -3.7337   -0.5147 H   0  0  0  0  0  0  0  0  0  0  0  0
    1.6426   -5.1762    0.7344 N   0  0  0  0  0  0  0  0  0  0  0  0
    2.3288   -5.8868    0.4821 H   0  0  0  0  0  0  0  0  0  0  0  0
    1.8464   -4.7763    1.6508 H   0  0  0  0  0  0  0  0  0  0  0  0
   -1.0478    1.0530    1.1926 C   0  0  0  0  0  0  0  0  0  0  0  0
   -1.9271    1.6623    0.5923 O   0  0  0  0  0  0  0  0  0  0  0  0
   -0.2170    1.7373    2.0605 N   0  0  0  0  0  0  0  0  0  0  0  0
    0.4476    1.1905    2.6006 H   0  0  0  0  0  0  0  0  0  0  0  0
   -0.3602    3.1586    2.3497 C   0  0  0  0  0  0  0  0  0  0  0  0
   -1.3424    3.3625    2.7887 H   0  0  0  0  0  0  0  0  0  0  0  0
    0.4095    3.4799    3.0579 H   0  0  0  0  0  0  0  0  0  0  0  0
   -0.2534    3.7481    1.4331 H   0  0  0  0  0  0  0  0  0  0  0  0
  1  2  1  0  0  0  0
  2  3  1  0  0  0  0
  2  4  1  0  0  0  0
  2  5  1  0  0  0  0
  5  6  2  0  0  0  0
  5  7  1  0  0  0  0
  7  8  1  0  0  0  0
  7  9  1  0  0  0  0
  9 10  1  0  0  0  0
  9 11  1  0  0  0  0
  9 26  1  0  0  0  0
 11 12  1  0  0  0  0
 11 13  1  0  0  0  0
 11 14  1  0  0  0  0
 14 15  1  0  0  0  0
 14 16  1  0  0  0  0
 14 17  1  0  0  0  0
 17 18  1  0  0  0  0
 17 19  1  0  0  0  0
 17 20  1  0  0  0  0
 20 21  1  0  0  0  0
 20 22  1  0  0  0  0
 20 23  1  0  0  0  0
 23 24  1  0  0  0  0
 23 25  1  0  0  0  0
 26 27  2  0  0  0  0
 26 28  1  0  0  0  0
 28 29  1  0  0  0  0
 28 30  1  0  0  0  0
 30 31  1  0  0  0  0
 30 32  1  0  0  0  0
 30 33  1  0  0  0  0
M  END
$$$$

  -OEChem-03222214063D

 33 32  0     1  0  0  0  0  0999 V2000
   -3.9964   -3.8325    1.8550 H   0  0  0  0  0  0  0  0  0  0  0  0
   -3.9041   -2.8860    1.3151 C   0  0  0  0  0  0  0  0  0  0  0  0
   -4.6954   -2.2100    1.6477 H   0  0  0  0  0  0  0  0  0  0  0  0
   -4.0229   -3.0789    0.2463 H   0  0  0  0  0  0  0  0  0  0  0  0
   -2.5466   -2.2634    1.5802 C   0  0  0  0  0  0  0  0  0  0  0  0
   -1.8098   -2.7459    2.4267 O   0  0  0  0  0  0  0  0  0  0  0  0
   -2.1883   -1.1025    0.9269 N   0  0  0  0  0  0  0  0  0  0  0  0
   -2.8866   -0.6716    0.3245 H   0  0  0  0  0  0  0  0  0  0  0  0
   -0.8618   -0.4671    0.9683 C   0  0  1  0  0  0  0  0  0  0  0  0
   -0.2540   -0.8665    1.7856 H   0  0  0  0  0  0  0  0  0  0  0  0
   -0.1165   -0.6098   -0.3863 C   0  0  0  0  0  0  0  0  0  0  0  0
   -0.8076   -0.3056   -1.1801 H   0  0  0  0  0  0  0  0  0  0  0  0
    0.6997    0.1213   -0.3891 H   0  0  0  0  0  0  0  0  0  0  0  0
    0.5128   -1.9619   -0.8053 C   0  0  0  0  0  0  0  0  0  0  0  0
    0.0823   -2.2568   -1.7683 H   0  0  0  0  0  0  0  0  0  0  0  0
    1.5807   -1.7866   -0.9740 H   0  0  0  0  0  0  0  0  0  0  0  0
    0.3741   -3.1451    0.1571 C   0  0  0  0  0  0  0  0  0  0  0  0
    0.6446   -2.8478    1.1740 H   0  0  0  0  0  0  0  0  0  0  0  0
   -0.6624   -3.4896    0.1521 H   0  0  0  0  0  0  0  0  0  0  0  0
    1.2708   -4.3041   -0.2697 C   0  0  0  0  0  0  0  0  0  0  0  0
    1.0942   -4.5564   -1.3212 H   0  0  0  0  0  0  0  0  0  0  0  0
    2.3235   -4.0208   -0.1594 H   0  0  0  0  0  0  0  0  0  0  0  0
    0.9639   -5.4612    0.5755 N   0  0  0  0  0  0  0  0  0  0  0  0
    1.6332   -6.2168    0.4320 H   0  0  0  0  0  0  0  0  0  0  0  0
    0.9162   -5.1936    1.5599 H   0  0  0  0  0  0  0  0  0  0  0  0
   -1.0505    1.0490    1.1894 C   0  0  0  0  0  0  0  0  0  0  0  0
   -1.8929    1.6672    0.5469 O   0  0  0  0  0  0  0  0  0  0  0  0
   -0.2684    1.7238    2.1085 N   0  0  0  0  0  0  0  0  0  0  0  0
    0.3642    1.1713    2.6802 H   0  0  0  0  0  0  0  0  0  0  0  0
   -0.4230    3.1439    2.3987 C   0  0  0  0  0  0  0  0  0  0  0  0
   -1.4172    3.3445    2.8118 H   0  0  0  0  0  0  0  0  0  0  0  0
    0.3271    3.4649    3.1279 H   0  0  0  0  0  0  0  0  0  0  0  0
   -0.2938    3.7375    1.4875 H   0  0  0  0  0  0  0  0  0  0  0  0
  1  2  1  0  0  0  0
  2  3  1  0  0  0  0
  2  4  1  0  0  0  0
  2  5  1  0  0  0  0
  5  6  2  0  0  0  0
  5  7  1  0  0  0  0
  7  8  1  0  0  0  0
  7  9  1  0  0  0  0
  9 10  1  0  0  0  0
  9 11  1  0  0  0  0
  9 26  1  0  0  0  0
 11 12  1  0  0  0  0
 11 13  1  0  0  0  0
 11 14  1  0  0  0  0
 14 15  1  0  0  0  0
 14 16  1  0  0  0  0
 14 17  1  0  0  0  0
 17 18  1  0  0  0  0
 17 19  1  0  0  0  0
 17 20  1  0  0  0  0
 20 21  1  0  0  0  0
 20 22  1  0  0  0  0
 20 23  1  0  0  0  0
 23 24  1  0  0  0  0
 23 25  1  0  0  0  0
 26 27  2  0  0  0  0
 26 28  1  0  0  0  0
 28 29  1  0  0  0  0
 28 30  1  0  0  0  0
 30 31  1  0  0  0  0
 30 32  1  0  0  0  0
 30 33  1  0  0  0  0
M  END
$$$$

  -OEChem-03222214063D

 33 32  0     1  0  0  0  0  0999 V2000
   -4.0067   -3.8213    1.9057 H   0  0  0  0  0  0  0  0  0  0  0  0
   -3.9040   -2.8865    1.3475 C   0  0  0  0  0  0  0  0  0  0  0  0
   -4.6940   -2.1991    1.6593 H   0  0  0  0  0  0  0  0  0  0  0  0
   -4.0147   -3.1004    0.2818 H   0  0  0  0  0  0  0  0  0  0  0  0
   -2.5451   -2.2671    1.6117 C   0  0  0  0  0  0  0  0  0  0  0  0
   -1.8135   -2.7476    2.4638 O   0  0  0  0  0  0  0  0  0  0  0  0
   -2.1821   -1.1117    0.9499 N   0  0  0  0  0  0  0  0  0  0  0  0
   -2.8803   -0.6874    0.3426 H   0  0  0  0  0  0  0  0  0  0  0  0
   -0.8544   -0.4752    0.9784 C   0  0  1  0  0  0  0  0  0  0  0  0
   -0.2432   -0.8729    1.7947 H   0  0  0  0  0  0  0  0  0  0  0  0
   -0.0972   -0.6158   -0.3726 C   0  0  0  0  0  0  0  0  0  0  0  0
   -0.8024   -0.3370   -1.1634 H   0  0  0  0  0  0  0  0  0  0  0  0
    0.7044    0.1309   -0.3947 H   0  0  0  0  0  0  0  0  0  0  0  0
    0.5439   -1.9631   -0.7869 C   0  0  0  0  0  0  0  0  0  0  0  0
    0.3547   -2.1207   -1.8540 H   0  0  0  0  0  0  0  0  0  0  0  0
    1.6273   -1.8604   -0.6645 H   0  0  0  0  0  0  0  0  0  0  0  0
    0.1165   -3.2143   -0.0203 C   0  0  0  0  0  0  0  0  0  0  0  0
    0.2911   -3.0726    1.0493 H   0  0  0  0  0  0  0  0  0  0  0  0
   -0.9478   -3.3948   -0.1922 H   0  0  0  0  0  0  0  0  0  0  0  0
    0.8966   -4.4411   -0.4809 C   0  0  0  0  0  0  0  0  0  0  0  0
    0.8118   -4.5639   -1.5664 H   0  0  0  0  0  0  0  0  0  0  0  0
    1.9570   -4.3244   -0.2321 H   0  0  0  0  0  0  0  0  0  0  0  0
    0.3398   -5.6141    0.1984 N   0  0  0  0  0  0  0  0  0  0  0  0
    0.9094   -6.4439    0.0361 H   0  0  0  0  0  0  0  0  0  0  0  0
    0.2270   -5.4364    1.1980 H   0  0  0  0  0  0  0  0  0  0  0  0
   -1.0484    1.0421    1.1889 C   0  0  0  0  0  0  0  0  0  0  0  0
   -1.8970    1.6520    0.5465 O   0  0  0  0  0  0  0  0  0  0  0  0
   -0.2641    1.7271    2.0985 N   0  0  0  0  0  0  0  0  0  0  0  0
    0.3689    1.1804    2.6752 H   0  0  0  0  0  0  0  0  0  0  0  0
   -0.4292    3.1471    2.3843 C   0  0  0  0  0  0  0  0  0  0  0  0
   -1.4254    3.3418    2.7954 H   0  0  0  0  0  0  0  0  0  0  0  0
    0.3171    3.4758    3.1138 H   0  0  0  0  0  0  0  0  0  0  0  0
   -0.3026    3.7389    1.4714 H   0  0  0  0  0  0  0  0  0  0  0  0
  1  2  1  0  0  0  0
  2  3  1  0  0  0  0
  2  4  1  0  0  0  0
  2  5  1  0  0  0  0
  5  6  2  0  0  0  0
  5  7  1  0  0  0  0
  7  8  1  0  0  0  0
  7  9  1  0  0  0  0
  9 10  1  0  0  0  0
  9 11  1  0  0  0  0
  9 26  1  0  0  0  0
 11 12  1  0  0  0  0
 11 13  1  0  0  0  0
 11 14  1  0  0  0  0
 14 15  1  0  0  0  0
 14 16  1  0  0  0  0
 14 17  1  0  0  0  0
 17 18  1  0  0  0  0
 17 19  1  0  0  0  0
 17 20  1  0  0  0  0
 20 21  1  0  0  0  0
 20 22  1  0  0  0  0
 20 23  1  0  0  0  0
 23 24  1  0  0  0  0
 23 25  1  0  0  0  0
 26 27  2  0  0  0  0
 26 28  1  0  0  0  0
 28 29  1  0  0  0  0
 28 30  1  0  0  0  0
 30 31  1  0  0  0  0
 30 32  1  0  0  0  0
 30 33  1  0  0  0  0
M  END
$$$$

  -OEChem-03222214063D

 33 32  0     1  0  0  0  0  0999 V2000
   -4.0043   -3.8284    1.9392 H   0  0  0  0  0  0  0  0  0  0  0  0
   -3.8947   -2.9057    1.3625 C   0  0  0  0  0  0  0  0  0  0  0  0
   -4.6934   -2.2152    1.6435 H   0  0  0  0  0  0  0  0  0  0  0  0
   -3.9844   -3.1437    0.2998 H   0  0  0  0  0  0  0  0  0  0  0  0
   -2.5438   -2.2737    1.6387 C   0  0  0  0  0  0  0  0  0  0  0  0
   -1.8233   -2.7352    2.5107 O   0  0  0  0  0  0  0  0  0  0  0  0
   -2.1789   -1.1242    0.9677 N   0  0  0  0  0  0  0  0  0  0  0  0
   -2.8712   -0.7149    0.3439 H   0  0  0  0  0  0  0  0  0  0  0  0
   -0.8517   -0.4854    0.9916 C   0  0  1  0  0  0  0  0  0  0  0  0
   -0.2429   -0.8793    1.8117 H   0  0  0  0  0  0  0  0  0  0  0  0
   -0.0843   -0.6321   -0.3537 C   0  0  0  0  0  0  0  0  0  0  0  0
   -0.7899   -0.3693   -1.1496 H   0  0  0  0  0  0  0  0  0  0  0  0
    0.7139    0.1178   -0.3817 H   0  0  0  0  0  0  0  0  0  0  0  0
    0.5626   -1.9793   -0.7492 C   0  0  0  0  0  0  0  0  0  0  0  0
    0.6163   -2.0216   -1.8421 H   0  0  0  0  0  0  0  0  0  0  0  0
    1.5913   -1.9788   -0.3742 H   0  0  0  0  0  0  0  0  0  0  0  0
   -0.1094   -3.2498   -0.2327 C   0  0  0  0  0  0  0  0  0  0  0  0
   -0.0383   -3.2787    0.8561 H   0  0  0  0  0  0  0  0  0  0  0  0
   -1.1626   -3.2527   -0.5283 H   0  0  0  0  0  0  0  0  0  0  0  0
    0.5606   -4.5008   -0.7893 C   0  0  0  0  0  0  0  0  0  0  0  0
    0.5554   -4.4819   -1.8847 H   0  0  0  0  0  0  0  0  0  0  0  0
    1.6022   -4.5482   -0.4526 H   0  0  0  0  0  0  0  0  0  0  0  0
   -0.1849   -5.6659   -0.3051 N   0  0  0  0  0  0  0  0  0  0  0  0
    0.2671   -6.5369   -0.5823 H   0  0  0  0  0  0  0  0  0  0  0  0
   -0.3061   -5.6238    0.7082 H   0  0  0  0  0  0  0  0  0  0  0  0
   -1.0469    1.0334    1.1880 C   0  0  0  0  0  0  0  0  0  0  0  0
   -1.8931    1.6372    0.5366 O   0  0  0  0  0  0  0  0  0  0  0  0
   -0.2637    1.7275    2.0919 N   0  0  0  0  0  0  0  0  0  0  0  0
    0.3695    1.1872    2.6747 H   0  0  0  0  0  0  0  0  0  0  0  0
   -0.4293    3.1503    2.3620 C   0  0  0  0  0  0  0  0  0  0  0  0
   -1.4257    3.3486    2.7706 H   0  0  0  0  0  0  0  0  0  0  0  0
    0.3167    3.4876    3.0878 H   0  0  0  0  0  0  0  0  0  0  0  0
   -0.3035    3.7320    1.4428 H   0  0  0  0  0  0  0  0  0  0  0  0
  1  2  1  0  0  0  0
  2  3  1  0  0  0  0
  2  4  1  0  0  0  0
  2  5  1  0  0  0  0
  5  6  2  0  0  0  0
  5  7  1  0  0  0  0
  7  8  1  0  0  0  0
  7  9  1  0  0  0  0
  9 10  1  0  0  0  0
  9 11  1  0  0  0  0
  9 26  1  0  0  0  0
 11 12  1  0  0  0  0
 11 13  1  0  0  0  0
 11 14  1  0  0  0  0
 14 15  1  0  0  0  0
 14 16  1  0  0  0  0
 14 17  1  0  0  0  0
 17 18  1  0  0  0  0
 17 19  1  0  0  0  0
 17 20  1  0  0  0  0
 20 21  1  0  0  0  0
 20 22  1  0  0  0  0
 20 23  1  0  0  0  0
 23 24  1  0  0  0  0
 23 25  1  0  0  0  0
 26 27  2  0  0  0  0
 26 28  1  0  0  0  0
 28 29  1  0  0  0  0
 28 30  1  0  0  0  0
 30 31  1  0  0  0  0
 30 32  1  0  0  0  0
 30 33  1  0  0  0  0
M  END
$$$$

  -OEChem-03222214063D

 33 32  0     1  0  0  0  0  0999 V2000
   -3.9300   -4.0550    1.6369 H   0  0  0  0  0  0  0  0  0  0  0  0
   -3.8497   -3.0759    1.1565 C   0  0  0  0  0  0  0  0  0  0  0  0
   -4.5811   -2.4008    1.6073 H   0  0  0  0  0  0  0  0  0  0  0  0
   -4.0737   -3.1864    0.0926 H   0  0  0  0  0  0  0  0  0  0  0  0
   -2.4508   -2.5176    1.3337 C   0  0  0  0  0  0  0  0  0  0  0  0
   -1.6227   -3.1495    1.9702 O   0  0  0  0  0  0  0  0  0  0  0  0
   -2.1464   -1.2745    0.8214 N   0  0  0  0  0  0  0  0  0  0  0  0
   -2.9115   -0.7522    0.3981 H   0  0  0  0  0  0  0  0  0  0  0  0
   -0.8231   -0.6301    0.7962 C   0  0  1  0  0  0  0  0  0  0  0  0
   -0.1336   -1.1391    1.4773 H   0  0  0  0  0  0  0  0  0  0  0  0
   -0.1915   -0.5530   -0.6238 C   0  0  0  0  0  0  0  0  0  0  0  0
   -0.9694   -0.1732   -1.2951 H   0  0  0  0  0  0  0  0  0  0  0  0
    0.6013    0.2027   -0.6017 H   0  0  0  0  0  0  0  0  0  0  0  0
    0.4216   -1.7995   -1.3055 C   0  0  0  0  0  0  0  0  0  0  0  0
    0.5764   -1.5450   -2.3593 H   0  0  0  0  0  0  0  0  0  0  0  0
    1.4169   -1.9601   -0.8775 H   0  0  0  0  0  0  0  0  0  0  0  0
   -0.3550   -3.1235   -1.2581 C   0  0  0  0  0  0  0  0  0  0  0  0
   -0.3555   -3.5707   -2.2572 H   0  0  0  0  0  0  0  0  0  0  0  0
   -1.3995   -2.9513   -1.0038 H   0  0  0  0  0  0  0  0  0  0  0  0
    0.3052   -4.1206   -0.3044 C   0  0  0  0  0  0  0  0  0  0  0  0
    1.2229   -4.5083   -0.7601 H   0  0  0  0  0  0  0  0  0  0  0  0
    0.5797   -3.6298    0.6356 H   0  0  0  0  0  0  0  0  0  0  0  0
   -0.6260   -5.2168   -0.0315 N   0  0  0  0  0  0  0  0  0  0  0  0
   -0.1416   -5.9974    0.4098 H   0  0  0  0  0  0  0  0  0  0  0  0
   -1.3712   -4.8794    0.5834 H   0  0  0  0  0  0  0  0  0  0  0  0
   -0.9952    0.8350    1.2532 C   0  0  0  0  0  0  0  0  0  0  0  0
   -1.9210    1.5117    0.8181 O   0  0  0  0  0  0  0  0  0  0  0  0
   -0.1160    1.3935    2.1628 N   0  0  0  0  0  0  0  0  0  0  0  0
    0.5985    0.7889    2.5580 H   0  0  0  0  0  0  0  0  0  0  0  0
   -0.2524    2.7522    2.6735 C   0  0  0  0  0  0  0  0  0  0  0  0
   -1.2055    2.8699    3.1997 H   0  0  0  0  0  0  0  0  0  0  0  0
    0.5590    2.9774    3.3723 H   0  0  0  0  0  0  0  0  0  0  0  0
   -0.2114    3.4760    1.8527 H   0  0  0  0  0  0  0  0  0  0  0  0
  1  2  1  0  0  0  0
  2  3  1  0  0  0  0
  2  4  1  0  0  0  0
  2  5  1  0  0  0  0
  5  6  2  0  0  0  0
  5  7  1  0  0  0  0
  7  8  1  0  0  0  0
  7  9  1  0  0  0  0
  9 10  1  0  0  0  0
  9 11  1  0  0  0  0
  9 26  1  0  0  0  0
 11 12  1  0  0  0  0
 11 13  1  0  0  0  0
 11 14  1  0  0  0  0
 14 15  1  0  0  0  0
 14 16  1  0  0  0  0
 14 17  1  0  0  0  0
 17 18  1  0  0  0  0
 17 19  1  0  0  0  0
 17 20  1  0  0  0  0
 20 21  1  0  0  0  0
 20 22  1  0  0  0  0
 20 23  1  0  0  0  0
 23 24  1  0  0  0  0
 23 25  1  0  0  0  0
 26 27  2  0  0  0  0
 26 28  1  0  0  0  0
 28 29  1  0  0  0  0
 28 30  1  0  0  0  0
 30 31  1  0  0  0  0
 30 32  1  0  0  0  0
 30 33  1  0  0  0  0
M  END
$$$$

  -OEChem-03222214063D

 33 32  0     1  0  0  0  0  0999 V2000
   -4.0228   -3.8087    1.9771 H   0  0  0  0  0  0  0  0  0  0  0  0
   -3.9113   -2.8921    1.3911 C   0  0  0  0  0  0  0  0  0  0  0  0
   -4.6766   -2.1777    1.7039 H   0  0  0  0  0  0  0  0  0  0  0  0
   -4.0545   -3.1310    0.3343 H   0  0  0  0  0  0  0  0  0  0  0  0
   -2.5315   -2.2995    1.6046 C   0  0  0  0  0  0  0  0  0  0  0  0
   -1.7655   -2.8113    2.4075 O   0  0  0  0  0  0  0  0  0  0  0  0
   -2.1708   -1.1506    0.9321 N   0  0  0  0  0  0  0  0  0  0  0  0
   -2.8803   -0.7065    0.3522 H   0  0  0  0  0  0  0  0  0  0  0  0
   -0.8441   -0.5159    0.9638 C   0  0  1  0  0  0  0  0  0  0  0  0
   -0.2460   -0.9067    1.7932 H   0  0  0  0  0  0  0  0  0  0  0  0
   -0.0630   -0.6901   -0.3645 C   0  0  0  0  0  0  0  0  0  0  0  0
   -0.7318   -0.4235   -1.1903 H   0  0  0  0  0  0  0  0  0  0  0  0
    0.7581    0.0349   -0.3732 H   0  0  0  0  0  0  0  0  0  0  0  0
    0.5613   -2.0647   -0.6772 C   0  0  0  0  0  0  0  0  0  0  0  0
    1.0838   -1.9731   -1.6352 H   0  0  0  0  0  0  0  0  0  0  0  0
    1.3126   -2.2986    0.0843 H   0  0  0  0  0  0  0  0  0  0  0  0
   -0.4277   -3.2324   -0.7660 C   0  0  0  0  0  0  0  0  0  0  0  0
   -0.6844   -3.5693    0.2379 H   0  0  0  0  0  0  0  0  0  0  0  0
   -1.3417   -2.9094   -1.2748 H   0  0  0  0  0  0  0  0  0  0  0  0
    0.1748   -4.4122   -1.5218 C   0  0  0  0  0  0  0  0  0  0  0  0
    0.4269   -4.1166   -2.5462 H   0  0  0  0  0  0  0  0  0  0  0  0
    1.0934   -4.7450   -1.0263 H   0  0  0  0  0  0  0  0  0  0  0  0
   -0.8104   -5.4977   -1.5420 N   0  0  0  0  0  0  0  0  0  0  0  0
   -0.4501   -6.3139   -2.0360 H   0  0  0  0  0  0  0  0  0  0  0  0
   -1.0969   -5.7448   -0.5942 H   0  0  0  0  0  0  0  0  0  0  0  0
   -1.0320    1.0036    1.1578 C   0  0  0  0  0  0  0  0  0  0  0  0
   -1.8814    1.6076    0.5111 O   0  0  0  0  0  0  0  0  0  0  0  0
   -0.2512    1.6957    2.0653 N   0  0  0  0  0  0  0  0  0  0  0  0
    0.3879    1.1558    2.6419 H   0  0  0  0  0  0  0  0  0  0  0  0
   -0.4177    3.1180    2.3392 C   0  0  0  0  0  0  0  0  0  0  0  0
   -1.4093    3.3129    2.7610 H   0  0  0  0  0  0  0  0  0  0  0  0
    0.3367    3.4568    3.0556 H   0  0  0  0  0  0  0  0  0  0  0  0
   -0.3048    3.7014    1.4192 H   0  0  0  0  0  0  0  0  0  0  0  0
  1  2  1  0  0  0  0
  2  3  1  0  0  0  0
  2  4  1  0  0  0  0
  2  5  1  0  0  0  0
  5  6  2  0  0  0  0
  5  7  1  0  0  0  0
  7  8  1  0  0  0  0
  7  9  1  0  0  0  0
  9 10  1  0  0  0  0
  9 11  1  0  0  0  0
  9 26  1  0  0  0  0
 11 12  1  0  0  0  0
 11 13  1  0  0  0  0
 11 14  1  0  0  0  0
 14 15  1  0  0  0  0
 14 16  1  0  0  0  0
 14 17  1  0  0  0  0
 17 18  1  0  0  0  0
 17 19  1  0  0  0  0
 17 20  1  0  0  0  0
 20 21  1  0  0  0  0
 20 22  1  0  0  0  0
 20 23  1  0  0  0  0
 23 24  1  0  0  0  0
 23 25  1  0  0  0  0
 26 27  2  0  0  0  0
 26 28  1  0  0  0  0
 28 29  1  0  0  0  0
 28 30  1  0  0  0  0
 30 31  1  0  0  0  0
 30 32  1  0  0  0  0
 30 33  1  0  0  0  0
M  END
$$$$

  -OEChem-03222214063D

 33 32  0     1  0  0  0  0  0999 V2000
   -3.9931   -3.8295    1.9748 H   0  0  0  0  0  0  0  0  0  0  0  0
   -3.9098   -2.8893    1.4227 C   0  0  0  0  0  0  0  0  0  0  0  0
   -4.6179   -2.1701    1.8411 H   0  0  0  0  0  0  0  0  0  0  0  0
   -4.1620   -3.0715    0.3751 H   0  0  0  0  0  0  0  0  0  0  0  0
   -2.4983   -2.3442    1.5264 C   0  0  0  0  0  0  0  0  0  0  0  0
   -1.6622   -2.9356    2.1930 O   0  0  0  0  0  0  0  0  0  0  0  0
   -2.1752   -1.1666    0.8855 N   0  0  0  0  0  0  0  0  0  0  0  0
   -2.9270   -0.6662    0.4143 H   0  0  0  0  0  0  0  0  0  0  0  0
   -0.8521   -0.5265    0.8938 C   0  0  1  0  0  0  0  0  0  0  0  0
   -0.2304   -0.9414    1.6934 H   0  0  0  0  0  0  0  0  0  0  0  0
   -0.1079   -0.6647   -0.4565 C   0  0  0  0  0  0  0  0  0  0  0  0
   -0.7830   -0.3705   -1.2675 H   0  0  0  0  0  0  0  0  0  0  0  0
    0.7209    0.0515   -0.4555 H   0  0  0  0  0  0  0  0  0  0  0  0
    0.5000   -2.0419   -0.7837 C   0  0  0  0  0  0  0  0  0  0  0  0
    1.2089   -1.9012   -1.6065 H   0  0  0  0  0  0  0  0  0  0  0  0
    1.0663   -2.4038    0.0808 H   0  0  0  0  0  0  0  0  0  0  0  0
   -0.5194   -3.1094   -1.2056 C   0  0  0  0  0  0  0  0  0  0  0  0
   -1.1151   -3.4252   -0.3516 H   0  0  0  0  0  0  0  0  0  0  0  0
   -1.1955   -2.6984   -1.9623 H   0  0  0  0  0  0  0  0  0  0  0  0
    0.1877   -4.3360   -1.7740 C   0  0  0  0  0  0  0  0  0  0  0  0
    0.7708   -4.0593   -2.6594 H   0  0  0  0  0  0  0  0  0  0  0  0
    0.8757   -4.7495   -1.0281 H   0  0  0  0  0  0  0  0  0  0  0  0
   -0.8249   -5.3335   -2.1329 N   0  0  0  0  0  0  0  0  0  0  0  0
   -0.3938   -6.1714   -2.5229 H   0  0  0  0  0  0  0  0  0  0  0  0
   -1.4046   -5.5666   -1.3264 H   0  0  0  0  0  0  0  0  0  0  0  0
   -1.0343    0.9834    1.1541 C   0  0  0  0  0  0  0  0  0  0  0  0
   -1.9239    1.6043    0.5822 O   0  0  0  0  0  0  0  0  0  0  0  0
   -0.2205    1.6406    2.0586 N   0  0  0  0  0  0  0  0  0  0  0  0
    0.4565    1.0834    2.5721 H   0  0  0  0  0  0  0  0  0  0  0  0
   -0.3838    3.0472    2.4056 C   0  0  0  0  0  0  0  0  0  0  0  0
   -1.3607    3.2157    2.8709 H   0  0  0  0  0  0  0  0  0  0  0  0
    0.3939    3.3557    3.1108 H   0  0  0  0  0  0  0  0  0  0  0  0
   -0.3064    3.6748    1.5115 H   0  0  0  0  0  0  0  0  0  0  0  0
  1  2  1  0  0  0  0
  2  3  1  0  0  0  0
  2  4  1  0  0  0  0
  2  5  1  0  0  0  0
  5  6  2  0  0  0  0
  5  7  1  0  0  0  0
  7  8  1  0  0  0  0
  7  9  1  0  0  0  0
  9 10  1  0  0  0  0
  9 11  1  0  0  0  0
  9 26  1  0  0  0  0
 11 12  1  0  0  0  0
 11 13  1  0  0  0  0
 11 14  1  0  0  0  0
 14 15  1  0  0  0  0
 14 16  1  0  0  0  0
 14 17  1  0  0  0  0
 17 18  1  0  0  0  0
 17 19  1  0  0  0  0
 17 20  1  0  0  0  0
 20 21  1  0  0  0  0
 20 22  1  0  0  0  0
 20 23  1  0  0  0  0
 23 24  1  0  0  0  0
 23 25  1  0  0  0  0
 26 27  2  0  0  0  0
 26 28  1  0  0  0  0
 28 29  1  0  0  0  0
 28 30  1  0  0  0  0
 30 31  1  0  0  0  0
 30 32  1  0  0  0  0
 30 33  1  0  0  0  0
M  END
$$$$

  -OEChem-03222214063D

 33 32  0     1  0  0  0  0  0999 V2000
   -3.7824   -3.9846    1.8040 H   0  0  0  0  0  0  0  0  0  0  0  0
   -3.7655   -3.0050    1.3182 C   0  0  0  0  0  0  0  0  0  0  0  0
   -4.4504   -2.3372    1.8464 H   0  0  0  0  0  0  0  0  0  0  0  0
   -4.1024   -3.1182    0.2848 H   0  0  0  0  0  0  0  0  0  0  0  0
   -2.3615   -2.4321    1.3440 C   0  0  0  0  0  0  0  0  0  0  0  0
   -1.4538   -3.0655    1.8612 O   0  0  0  0  0  0  0  0  0  0  0  0
   -2.1188   -1.1985    0.7765 N   0  0  0  0  0  0  0  0  0  0  0  0
   -2.9189   -0.6742    0.4259 H   0  0  0  0  0  0  0  0  0  0  0  0
   -0.8232   -0.5066    0.7885 C   0  0  1  0  0  0  0  0  0  0  0  0
   -0.1657   -0.9439    1.5469 H   0  0  0  0  0  0  0  0  0  0  0  0
   -0.1268   -0.5724   -0.5883 C   0  0  0  0  0  0  0  0  0  0  0  0
   -0.8264   -0.2725   -1.3761 H   0  0  0  0  0  0  0  0  0  0  0  0
    0.6887    0.1584   -0.5884 H   0  0  0  0  0  0  0  0  0  0  0  0
    0.4891   -1.9440   -0.9184 C   0  0  0  0  0  0  0  0  0  0  0  0
    1.3591   -1.7895   -1.5653 H   0  0  0  0  0  0  0  0  0  0  0  0
    0.8445   -2.4184    0.0025 H   0  0  0  0  0  0  0  0  0  0  0  0
   -0.4885   -2.8797   -1.6450 C   0  0  0  0  0  0  0  0  0  0  0  0
   -1.4095   -2.9962   -1.0736 H   0  0  0  0  0  0  0  0  0  0  0  0
   -0.7522   -2.4483   -2.6161 H   0  0  0  0  0  0  0  0  0  0  0  0
    0.1390   -4.2541   -1.8535 C   0  0  0  0  0  0  0  0  0  0  0  0
    1.0578   -4.1627   -2.4434 H   0  0  0  0  0  0  0  0  0  0  0  0
    0.3981   -4.6974   -0.8853 H   0  0  0  0  0  0  0  0  0  0  0  0
   -0.8255   -5.1074   -2.5547 N   0  0  0  0  0  0  0  0  0  0  0  0
   -0.4389   -6.0359   -2.7236 H   0  0  0  0  0  0  0  0  0  0  0  0
   -1.6995   -5.1691   -2.0331 H   0  0  0  0  0  0  0  0  0  0  0  0
   -1.0393    0.9744    1.1589 C   0  0  0  0  0  0  0  0  0  0  0  0
   -1.9769    1.5976    0.6733 O   0  0  0  0  0  0  0  0  0  0  0  0
   -0.2135    1.5947    2.0783 N   0  0  0  0  0  0  0  0  0  0  0  0
    0.5191    1.0354    2.5058 H   0  0  0  0  0  0  0  0  0  0  0  0
   -0.3961    2.9733    2.5155 C   0  0  0  0  0  0  0  0  0  0  0  0
   -1.3748    3.0987    2.9904 H   0  0  0  0  0  0  0  0  0  0  0  0
    0.3774    3.2455    3.2401 H   0  0  0  0  0  0  0  0  0  0  0  0
   -0.3277    3.6577    1.6634 H   0  0  0  0  0  0  0  0  0  0  0  0
  1  2  1  0  0  0  0
  2  3  1  0  0  0  0
  2  4  1  0  0  0  0
  2  5  1  0  0  0  0
  5  6  2  0  0  0  0
  5  7  1  0  0  0  0
  7  8  1  0  0  0  0
  7  9  1  0  0  0  0
  9 10  1  0  0  0  0
  9 11  1  0  0  0  0
  9 26  1  0  0  0  0
 11 12  1  0  0  0  0
 11 13  1  0  0  0  0
 11 14  1  0  0  0  0
 14 15  1  0  0  0  0
 14 16  1  0  0  0  0
 14 17  1  0  0  0  0
 17 18  1  0  0  0  0
 17 19  1  0  0  0  0
 17 20  1  0  0  0  0
 20 21  1  0  0  0  0
 20 22  1  0  0  0  0
 20 23  1  0  0  0  0
 23 24  1  0  0  0  0
 23 25  1  0  0  0  0
 26 27  2  0  0  0  0
 26 28  1  0  0  0  0
 28 29  1  0  0  0  0
 28 30  1  0  0  0  0
 30 31  1  0  0  0  0
 30 32  1  0  0  0  0
 30 33  1  0  0  0  0
M  END
$$$$

  -OEChem-03222214063D

 33 32  0     1  0  0  0  0  0999 V2000
   -3.6965   -4.0402    1.6758 H   0  0  0  0  0  0  0  0  0  0  0  0
   -3.6915   -3.0514    1.2090 C   0  0  0  0  0  0  0  0  0  0  0  0
   -4.3985   -2.4082    1.7384 H   0  0  0  0  0  0  0  0  0  0  0  0
   -4.0086   -3.1512    0.1680 H   0  0  0  0  0  0  0  0  0  0  0  0
   -2.3002   -2.4509    1.2705 C   0  0  0  0  0  0  0  0  0  0  0  0
   -1.3913   -3.0719    1.7997 O   0  0  0  0  0  0  0  0  0  0  0  0
   -2.0734   -1.2031    0.7292 N   0  0  0  0  0  0  0  0  0  0  0  0
   -2.8776   -0.6921    0.3688 H   0  0  0  0  0  0  0  0  0  0  0  0
   -0.7925   -0.4846    0.7704 C   0  0  1  0  0  0  0  0  0  0  0  0
   -0.1285   -0.9214    1.5236 H   0  0  0  0  0  0  0  0  0  0  0  0
   -0.1221   -0.5555   -0.6147 C   0  0  0  0  0  0  0  0  0  0  0  0
   -0.8359   -0.2701   -1.3953 H   0  0  0  0  0  0  0  0  0  0  0  0
    0.6897    0.1791   -0.6408 H   0  0  0  0  0  0  0  0  0  0  0  0
    0.4883   -1.9390   -0.9059 C   0  0  0  0  0  0  0  0  0  0  0  0
    1.4837   -1.8019   -1.3412 H   0  0  0  0  0  0  0  0  0  0  0  0
    0.6156   -2.5070    0.0214 H   0  0  0  0  0  0  0  0  0  0  0  0
   -0.3708   -2.7337   -1.8981 C   0  0  0  0  0  0  0  0  0  0  0  0
   -1.3913   -2.8249   -1.5148 H   0  0  0  0  0  0  0  0  0  0  0  0
   -0.4159   -2.2028   -2.8547 H   0  0  0  0  0  0  0  0  0  0  0  0
    0.2098   -4.1270   -2.1170 C   0  0  0  0  0  0  0  0  0  0  0  0
    1.2302   -4.0508   -2.5088 H   0  0  0  0  0  0  0  0  0  0  0  0
    0.2497   -4.6691   -1.1654 H   0  0  0  0  0  0  0  0  0  0  0  0
   -0.6400   -4.8454   -3.0719 N   0  0  0  0  0  0  0  0  0  0  0  0
   -0.2772   -5.7809   -3.2550 H   0  0  0  0  0  0  0  0  0  0  0  0
   -1.6033   -4.8885   -2.7405 H   0  0  0  0  0  0  0  0  0  0  0  0
   -1.0265    0.9878    1.1613 C   0  0  0  0  0  0  0  0  0  0  0  0
   -1.9587    1.6116    0.6663 O   0  0  0  0  0  0  0  0  0  0  0  0
   -0.2175    1.6028    2.0989 N   0  0  0  0  0  0  0  0  0  0  0  0
    0.5071    1.0411    2.5369 H   0  0  0  0  0  0  0  0  0  0  0  0
   -0.4116    2.9775    2.5435 C   0  0  0  0  0  0  0  0  0  0  0  0
   -1.4012    3.0979    2.9965 H   0  0  0  0  0  0  0  0  0  0  0  0
    0.3446    3.2450    3.2877 H   0  0  0  0  0  0  0  0  0  0  0  0
   -0.3246    3.6688    1.6986 H   0  0  0  0  0  0  0  0  0  0  0  0
  1  2  1  0  0  0  0
  2  3  1  0  0  0  0
  2  4  1  0  0  0  0
  2  5  1  0  0  0  0
  5  6  2  0  0  0  0
  5  7  1  0  0  0  0
  7  8  1  0  0  0  0
  7  9  1  0  0  0  0
  9 10  1  0  0  0  0
  9 11  1  0  0  0  0
  9 26  1  0  0  0  0
 11 12  1  0  0  0  0
 11 13  1  0  0  0  0
 11 14  1  0  0  0  0
 14 15  1  0  0  0  0
 14 16  1  0  0  0  0
 14 17  1  0  0  0  0
 17 18  1  0  0  0  0
 17 19  1  0  0  0  0
 17 20  1  0  0  0  0
 20 21  1  0  0  0  0
 20 22  1  0  0  0  0
 20 23  1  0  0  0  0
 23 24  1  0  0  0  0
 23 25  1  0  0  0  0
 26 27  2  0  0  0  0
 26 28  1  0  0  0  0
 28 29  1  0  0  0  0
 28 30  1  0  0  0  0
 30 31  1  0  0  0  0
 30 32  1  0  0  0  0
 30 33  1  0  0  0  0
M  END
$$$$

  -OEChem-03222214063D

 33 32  0     1  0  0  0  0  0999 V2000
   -3.7149   -4.0393    1.6518 H   0  0  0  0  0  0  0  0  0  0  0  0
   -3.7018   -3.0482    1.1898 C   0  0  0  0  0  0  0  0  0  0  0  0
   -4.4223   -2.4088    1.7054 H   0  0  0  0  0  0  0  0  0  0  0  0
   -3.9947   -3.1445    0.1416 H   0  0  0  0  0  0  0  0  0  0  0  0
   -2.3135   -2.4447    1.2852 C   0  0  0  0  0  0  0  0  0  0  0  0
   -1.4220   -3.0565    1.8530 O   0  0  0  0  0  0  0  0  0  0  0  0
   -2.0722   -1.2019    0.7383 N   0  0  0  0  0  0  0  0  0  0  0  0
   -2.8674   -0.6968    0.3506 H   0  0  0  0  0  0  0  0  0  0  0  0
   -0.7883   -0.4867    0.7814 C   0  0  1  0  0  0  0  0  0  0  0  0
   -0.1248   -0.9239    1.5349 H   0  0  0  0  0  0  0  0  0  0  0  0
   -0.1230   -0.5663   -0.6046 C   0  0  0  0  0  0  0  0  0  0  0  0
   -0.8513   -0.2894   -1.3751 H   0  0  0  0  0  0  0  0  0  0  0  0
    0.6857    0.1706   -0.6522 H   0  0  0  0  0  0  0  0  0  0  0  0
    0.4811   -1.9536   -0.8931 C   0  0  0  0  0  0  0  0  0  0  0  0
    1.5572   -1.8445   -1.0630 H   0  0  0  0  0  0  0  0  0  0  0  0
    0.3564   -2.6191   -0.0338 H   0  0  0  0  0  0  0  0  0  0  0  0
   -0.1589   -2.5901   -2.1316 C   0  0  0  0  0  0  0  0  0  0  0  0
   -1.2396   -2.6785   -1.9796 H   0  0  0  0  0  0  0  0  0  0  0  0
    0.0107   -1.9514   -3.0049 H   0  0  0  0  0  0  0  0  0  0  0  0
    0.4291   -3.9730   -2.3927 C   0  0  0  0  0  0  0  0  0  0  0  0
    1.5093   -3.8956   -2.5591 H   0  0  0  0  0  0  0  0  0  0  0  0
    0.2638   -4.6207   -1.5243 H   0  0  0  0  0  0  0  0  0  0  0  0
   -0.2203   -4.5413   -3.5781 N   0  0  0  0  0  0  0  0  0  0  0  0
    0.1495   -5.4676   -3.7918 H   0  0  0  0  0  0  0  0  0  0  0  0
   -1.2327   -4.5732   -3.4593 H   0  0  0  0  0  0  0  0  0  0  0  0
   -1.0180    0.9897    1.1605 C   0  0  0  0  0  0  0  0  0  0  0  0
   -1.9464    1.6130    0.6579 O   0  0  0  0  0  0  0  0  0  0  0  0
   -0.2114    1.6086    2.0978 N   0  0  0  0  0  0  0  0  0  0  0  0
    0.5128    1.0491    2.5391 H   0  0  0  0  0  0  0  0  0  0  0  0
   -0.4045    2.9860    2.5347 C   0  0  0  0  0  0  0  0  0  0  0  0
   -1.3972    3.1117    2.9799 H   0  0  0  0  0  0  0  0  0  0  0  0
    0.3467    3.2540    3.2838 H   0  0  0  0  0  0  0  0  0  0  0  0
   -0.3080    3.6730    1.6874 H   0  0  0  0  0  0  0  0  0  0  0  0
  1  2  1  0  0  0  0
  2  3  1  0  0  0  0
  2  4  1  0  0  0  0
  2  5  1  0  0  0  0
  5  6  2  0  0  0  0
  5  7  1  0  0  0  0
  7  8  1  0  0  0  0
  7  9  1  0  0  0  0
  9 10  1  0  0  0  0
  9 11  1  0  0  0  0
  9 26  1  0  0  0  0
 11 12  1  0  0  0  0
 11 13  1  0  0  0  0
 11 14  1  0  0  0  0
 14 15  1  0  0  0  0
 14 16  1  0  0  0  0
 14 17  1  0  0  0  0
 17 18  1  0  0  0  0
 17 19  1  0  0  0  0
 17 20  1  0  0  0  0
 20 21  1  0  0  0  0
 20 22  1  0  0  0  0
 20 23  1  0  0  0  0
 23 24  1  0  0  0  0
 23 25  1  0  0  0  0
 26 27  2  0  0  0  0
 26 28  1  0  0  0  0
 28 29  1  0  0  0  0
 28 30  1  0  0  0  0
 30 31  1  0  0  0  0
 30 32  1  0  0  0  0
 30 33  1  0  0  0  0
M  END
$$$$

  -OEChem-03222214063D

 33 32  0     1  0  0  0  0  0999 V2000
   -3.7645   -4.0110    1.7028 H   0  0  0  0  0  0  0  0  0  0  0  0
   -3.7388   -3.0272    1.2256 C   0  0  0  0  0  0  0  0  0  0  0  0
   -4.4506   -2.3706    1.7320 H   0  0  0  0  0  0  0  0  0  0  0  0
   -4.0343   -3.1353    0.1792 H   0  0  0  0  0  0  0  0  0  0  0  0
   -2.3425   -2.4403    1.3098 C   0  0  0  0  0  0  0  0  0  0  0  0
   -1.4574   -3.0551    1.8841 O   0  0  0  0  0  0  0  0  0  0  0  0
   -2.0896   -1.2042    0.7525 N   0  0  0  0  0  0  0  0  0  0  0  0
   -2.8829   -0.6917    0.3710 H   0  0  0  0  0  0  0  0  0  0  0  0
   -0.7987   -0.4998    0.7850 C   0  0  1  0  0  0  0  0  0  0  0  0
   -0.1367   -0.9384    1.5391 H   0  0  0  0  0  0  0  0  0  0  0  0
   -0.1261   -0.5797   -0.5989 C   0  0  0  0  0  0  0  0  0  0  0  0
   -0.8670   -0.3135   -1.3610 H   0  0  0  0  0  0  0  0  0  0  0  0
    0.6766    0.1626   -0.6617 H   0  0  0  0  0  0  0  0  0  0  0  0
    0.4754   -1.9664   -0.8955 C   0  0  0  0  0  0  0  0  0  0  0  0
    1.5625   -1.9233   -0.7714 H   0  0  0  0  0  0  0  0  0  0  0  0
    0.0979   -2.7084   -0.1869 H   0  0  0  0  0  0  0  0  0  0  0  0
    0.1287   -2.4284   -2.3152 C   0  0  0  0  0  0  0  0  0  0  0  0
   -0.9591   -2.4709   -2.4321 H   0  0  0  0  0  0  0  0  0  0  0  0
    0.5208   -1.7095   -3.0422 H   0  0  0  0  0  0  0  0  0  0  0  0
    0.7217   -3.8060   -2.5942 C   0  0  0  0  0  0  0  0  0  0  0  0
    1.8114   -3.7750   -2.4843 H   0  0  0  0  0  0  0  0  0  0  0  0
    0.3285   -4.5356   -1.8774 H   0  0  0  0  0  0  0  0  0  0  0  0
    0.3677   -4.1989   -3.9615 N   0  0  0  0  0  0  0  0  0  0  0  0
    0.7504   -5.1157   -4.1925 H   0  0  0  0  0  0  0  0  0  0  0  0
   -0.6429   -4.1823   -4.0963 H   0  0  0  0  0  0  0  0  0  0  0  0
   -1.0184    0.9811    1.1536 C   0  0  0  0  0  0  0  0  0  0  0  0
   -1.9472    1.6052    0.6525 O   0  0  0  0  0  0  0  0  0  0  0  0
   -0.2045    1.6011    2.0836 N   0  0  0  0  0  0  0  0  0  0  0  0
    0.5193    1.0402    2.5241 H   0  0  0  0  0  0  0  0  0  0  0  0
   -0.3914    2.9803    2.5176 C   0  0  0  0  0  0  0  0  0  0  0  0
   -1.3745    3.1059    2.9833 H   0  0  0  0  0  0  0  0  0  0  0  0
    0.3752    3.2538    3.2488 H   0  0  0  0  0  0  0  0  0  0  0  0
   -0.3149    3.6642    1.6657 H   0  0  0  0  0  0  0  0  0  0  0  0
  1  2  1  0  0  0  0
  2  3  1  0  0  0  0
  2  4  1  0  0  0  0
  2  5  1  0  0  0  0
  5  6  2  0  0  0  0
  5  7  1  0  0  0  0
  7  8  1  0  0  0  0
  7  9  1  0  0  0  0
  9 10  1  0  0  0  0
  9 11  1  0  0  0  0
  9 26  1  0  0  0  0
 11 12  1  0  0  0  0
 11 13  1  0  0  0  0
 11 14  1  0  0  0  0
 14 15  1  0  0  0  0
 14 16  1  0  0  0  0
 14 17  1  0  0  0  0
 17 18  1  0  0  0  0
 17 19  1  0  0  0  0
 17 20  1  0  0  0  0
 20 21  1  0  0  0  0
 20 22  1  0  0  0  0
 20 23  1  0  0  0  0
 23 24  1  0  0  0  0
 23 25  1  0  0  0  0
 26 27  2  0  0  0  0
 26 28  1  0  0  0  0
 28 29  1  0  0  0  0
 28 30  1  0  0  0  0
 30 31  1  0  0  0  0
 30 32  1  0  0  0  0
 30 33  1  0  0  0  0
M  END
$$$$

  -OEChem-03222214063D

 33 32  0     1  0  0  0  0  0999 V2000
   -3.7865   -3.9953    1.7203 H   0  0  0  0  0  0  0  0  0  0  0  0
   -3.7591   -3.0121    1.2421 C   0  0  0  0  0  0  0  0  0  0  0  0
   -4.4559   -2.3483    1.7594 H   0  0  0  0  0  0  0  0  0  0  0  0
   -4.0726   -3.1179    0.2008 H   0  0  0  0  0  0  0  0  0  0  0  0
   -2.3560   -2.4388    1.3042 C   0  0  0  0  0  0  0  0  0  0  0  0
   -1.4662   -3.0638    1.8603 O   0  0  0  0  0  0  0  0  0  0  0  0
   -2.1002   -1.2031    0.7472 N   0  0  0  0  0  0  0  0  0  0  0  0
   -2.8949   -0.6797    0.3832 H   0  0  0  0  0  0  0  0  0  0  0  0
   -0.8051   -0.5063    0.7776 C   0  0  1  0  0  0  0  0  0  0  0  0
   -0.1455   -0.9499    1.5307 H   0  0  0  0  0  0  0  0  0  0  0  0
   -0.1284   -0.5845   -0.6041 C   0  0  0  0  0  0  0  0  0  0  0  0
   -0.8726   -0.3246   -1.3651 H   0  0  0  0  0  0  0  0  0  0  0  0
    0.6746    0.1572   -0.6708 H   0  0  0  0  0  0  0  0  0  0  0  0
    0.4663   -1.9720   -0.8995 C   0  0  0  0  0  0  0  0  0  0  0  0
    1.4891   -2.0219   -0.5116 H   0  0  0  0  0  0  0  0  0  0  0  0
   -0.1145   -2.7494   -0.3963 H   0  0  0  0  0  0  0  0  0  0  0  0
    0.4490   -2.2642   -2.4039 C   0  0  0  0  0  0  0  0  0  0  0  0
   -0.5807   -2.2312   -2.7743 H   0  0  0  0  0  0  0  0  0  0  0  0
    1.0245   -1.4976   -2.9333 H   0  0  0  0  0  0  0  0  0  0  0  0
    1.0470   -3.6373   -2.6949 C   0  0  0  0  0  0  0  0  0  0  0  0
    2.0816   -3.6803   -2.3367 H   0  0  0  0  0  0  0  0  0  0  0  0
    0.4747   -4.4135   -2.1747 H   0  0  0  0  0  0  0  0  0  0  0  0
    1.0090   -3.8658   -4.1426 N   0  0  0  0  0  0  0  0  0  0  0  0
    1.4028   -4.7756   -4.3828 H   0  0  0  0  0  0  0  0  0  0  0  0
    0.0591   -3.7741   -4.5023 H   0  0  0  0  0  0  0  0  0  0  0  0
   -1.0184    0.9747    1.1493 C   0  0  0  0  0  0  0  0  0  0  0  0
   -1.9479    1.6019    0.6532 O   0  0  0  0  0  0  0  0  0  0  0  0
   -0.2008    1.5910    2.0786 N   0  0  0  0  0  0  0  0  0  0  0  0
    0.5250    1.0290    2.5143 H   0  0  0  0  0  0  0  0  0  0  0  0
   -0.3821    2.9709    2.5130 C   0  0  0  0  0  0  0  0  0  0  0  0
   -1.3634    3.0994    2.9818 H   0  0  0  0  0  0  0  0  0  0  0  0
    0.3877    3.2426    3.2417 H   0  0  0  0  0  0  0  0  0  0  0  0
   -0.3064    3.6542    1.6605 H   0  0  0  0  0  0  0  0  0  0  0  0
  1  2  1  0  0  0  0
  2  3  1  0  0  0  0
  2  4  1  0  0  0  0
  2  5  1  0  0  0  0
  5  6  2  0  0  0  0
  5  7  1  0  0  0  0
  7  8  1  0  0  0  0
  7  9  1  0  0  0  0
  9 10  1  0  0  0  0
  9 11  1  0  0  0  0
  9 26  1  0  0  0  0
 11 12  1  0  0  0  0
 11 13  1  0  0  0  0
 11 14  1  0  0  0  0
 14 15  1  0  0  0  0
 14 16  1  0  0  0  0
 14 17  1  0  0  0  0
 17 18  1  0  0  0  0
 17 19  1  0  0  0  0
 17 20  1  0  0  0  0
 20 21  1  0  0  0  0
 20 22  1  0  0  0  0
 20 23  1  0  0  0  0
 23 24  1  0  0  0  0
 23 25  1  0  0  0  0
 26 27  2  0  0  0  0
 26 28  1  0  0  0  0
 28 29  1  0  0  0  0
 28 30  1  0  0  0  0
 30 31  1  0  0  0  0
 30 32  1  0  0  0  0
 30 33  1  0  0  0  0
M  END
$$$$

  -OEChem-03222214063D

 33 32  0     1  0  0  0  0  0999 V2000
   -3.7826   -3.9894    1.7222 H   0  0  0  0  0  0  0  0  0  0  0  0
   -3.7615   -3.0053    1.2457 C   0  0  0  0  0  0  0  0  0  0  0  0
   -4.4427   -2.3396    1.7813 H   0  0  0  0  0  0  0  0  0  0  0  0
   -4.1002   -3.1072    0.2119 H   0  0  0  0  0  0  0  0  0  0  0  0
   -2.3541   -2.4398    1.2759 C   0  0  0  0  0  0  0  0  0  0  0  0
   -1.4508   -3.0802    1.7912 O   0  0  0  0  0  0  0  0  0  0  0  0
   -2.1056   -1.1985    0.7283 N   0  0  0  0  0  0  0  0  0  0  0  0
   -2.9065   -0.6623    0.3980 H   0  0  0  0  0  0  0  0  0  0  0  0
   -0.8105   -0.5025    0.7607 C   0  0  1  0  0  0  0  0  0  0  0  0
   -0.1513   -0.9522    1.5105 H   0  0  0  0  0  0  0  0  0  0  0  0
   -0.1339   -0.5747   -0.6204 C   0  0  0  0  0  0  0  0  0  0  0  0
   -0.8717   -0.3138   -1.3870 H   0  0  0  0  0  0  0  0  0  0  0  0
    0.6734    0.1631   -0.6773 H   0  0  0  0  0  0  0  0  0  0  0  0
    0.4554   -1.9628   -0.9106 C   0  0  0  0  0  0  0  0  0  0  0  0
    1.3554   -2.1133   -0.3052 H   0  0  0  0  0  0  0  0  0  0  0  0
   -0.2645   -2.7399   -0.6380 H   0  0  0  0  0  0  0  0  0  0  0  0
    0.7835   -2.1100   -2.4003 C   0  0  0  0  0  0  0  0  0  0  0  0
   -0.1258   -1.9723   -2.9943 H   0  0  0  0  0  0  0  0  0  0  0  0
    1.5014   -1.3377   -2.6958 H   0  0  0  0  0  0  0  0  0  0  0  0
    1.3744   -3.4865   -2.6897 C   0  0  0  0  0  0  0  0  0  0  0  0
    2.2909   -3.6319   -2.1073 H   0  0  0  0  0  0  0  0  0  0  0  0
    0.6621   -4.2683   -2.4034 H   0  0  0  0  0  0  0  0  0  0  0  0
    1.6735   -3.5749   -4.1222 N   0  0  0  0  0  0  0  0  0  0  0  0
    2.0758   -4.4816   -4.3594 H   0  0  0  0  0  0  0  0  0  0  0  0
    0.8416   -3.3887   -4.6819 H   0  0  0  0  0  0  0  0  0  0  0  0
   -1.0204    0.9751    1.1470 C   0  0  0  0  0  0  0  0  0  0  0  0
   -1.9541    1.6057    0.6634 O   0  0  0  0  0  0  0  0  0  0  0  0
   -0.1992    1.5828    2.0788 N   0  0  0  0  0  0  0  0  0  0  0  0
    0.5306    1.0181    2.5039 H   0  0  0  0  0  0  0  0  0  0  0  0
   -0.3764    2.9596    2.5246 C   0  0  0  0  0  0  0  0  0  0  0  0
   -1.3563    3.0863    2.9969 H   0  0  0  0  0  0  0  0  0  0  0  0
    0.3959    3.2235    3.2536 H   0  0  0  0  0  0  0  0  0  0  0  0
   -0.3015    3.6495    1.6773 H   0  0  0  0  0  0  0  0  0  0  0  0
  1  2  1  0  0  0  0
  2  3  1  0  0  0  0
  2  4  1  0  0  0  0
  2  5  1  0  0  0  0
  5  6  2  0  0  0  0
  5  7  1  0  0  0  0
  7  8  1  0  0  0  0
  7  9  1  0  0  0  0
  9 10  1  0  0  0  0
  9 11  1  0  0  0  0
  9 26  1  0  0  0  0
 11 12  1  0  0  0  0
 11 13  1  0  0  0  0
 11 14  1  0  0  0  0
 14 15  1  0  0  0  0
 14 16  1  0  0  0  0
 14 17  1  0  0  0  0
 17 18  1  0  0  0  0
 17 19  1  0  0  0  0
 17 20  1  0  0  0  0
 20 21  1  0  0  0  0
 20 22  1  0  0  0  0
 20 23  1  0  0  0  0
 23 24  1  0  0  0  0
 23 25  1  0  0  0  0
 26 27  2  0  0  0  0
 26 28  1  0  0  0  0
 28 29  1  0  0  0  0
 28 30  1  0  0  0  0
 30 31  1  0  0  0  0
 30 32  1  0  0  0  0
 30 33  1  0  0  0  0
M  END
$$$$

  -OEChem-03222214063D

 33 32  0     1  0  0  0  0  0999 V2000
   -3.8025   -3.9817    1.7576 H   0  0  0  0  0  0  0  0  0  0  0  0
   -3.7872   -2.9983    1.2794 C   0  0  0  0  0  0  0  0  0  0  0  0
   -4.4525   -2.3287    1.8299 H   0  0  0  0  0  0  0  0  0  0  0  0
   -4.1500   -3.0994    0.2536 H   0  0  0  0  0  0  0  0  0  0  0  0
   -2.3767   -2.4402    1.2764 C   0  0  0  0  0  0  0  0  0  0  0  0
   -1.4620   -3.0914    1.7567 O   0  0  0  0  0  0  0  0  0  0  0  0
   -2.1363   -1.1968    0.7297 N   0  0  0  0  0  0  0  0  0  0  0  0
   -2.9427   -0.6549    0.4228 H   0  0  0  0  0  0  0  0  0  0  0  0
   -0.8394   -0.5034    0.7450 C   0  0  1  0  0  0  0  0  0  0  0  0
   -0.1812   -0.9625    1.4899 H   0  0  0  0  0  0  0  0  0  0  0  0
   -0.1561   -0.5850   -0.6323 C   0  0  0  0  0  0  0  0  0  0  0  0
   -0.7908   -0.0910   -1.3762 H   0  0  0  0  0  0  0  0  0  0  0  0
    0.7933   -0.0406   -0.5920 H   0  0  0  0  0  0  0  0  0  0  0  0
    0.1144   -2.0290   -1.0793 C   0  0  0  0  0  0  0  0  0  0  0  0
    0.7529   -2.5268   -0.3416 H   0  0  0  0  0  0  0  0  0  0  0  0
   -0.8257   -2.5857   -1.1425 H   0  0  0  0  0  0  0  0  0  0  0  0
    0.7943   -2.0442   -2.4519 C   0  0  0  0  0  0  0  0  0  0  0  0
    0.1485   -1.5533   -3.1871 H   0  0  0  0  0  0  0  0  0  0  0  0
    1.7358   -1.4873   -2.4027 H   0  0  0  0  0  0  0  0  0  0  0  0
    1.0784   -3.4742   -2.9004 C   0  0  0  0  0  0  0  0  0  0  0  0
    1.7426   -3.9685   -2.1825 H   0  0  0  0  0  0  0  0  0  0  0  0
    0.1445   -4.0452   -2.9490 H   0  0  0  0  0  0  0  0  0  0  0  0
    1.7122   -3.4297   -4.2218 N   0  0  0  0  0  0  0  0  0  0  0  0
    1.9199   -4.3681   -4.5632 H   0  0  0  0  0  0  0  0  0  0  0  0
    1.1328   -2.9195   -4.8883 H   0  0  0  0  0  0  0  0  0  0  0  0
   -1.0284    0.9742    1.1395 C   0  0  0  0  0  0  0  0  0  0  0  0
   -1.9710    1.6118    0.6833 O   0  0  0  0  0  0  0  0  0  0  0  0
   -0.1848    1.5699    2.0589 N   0  0  0  0  0  0  0  0  0  0  0  0
    0.5557    0.9999    2.4580 H   0  0  0  0  0  0  0  0  0  0  0  0
   -0.3460    2.9430    2.5206 C   0  0  0  0  0  0  0  0  0  0  0  0
   -1.3187    3.0728    3.0066 H   0  0  0  0  0  0  0  0  0  0  0  0
    0.4369    3.1934    3.2426 H   0  0  0  0  0  0  0  0  0  0  0  0
   -0.2763    3.6401    1.6789 H   0  0  0  0  0  0  0  0  0  0  0  0
  1  2  1  0  0  0  0
  2  3  1  0  0  0  0
  2  4  1  0  0  0  0
  2  5  1  0  0  0  0
  5  6  2  0  0  0  0
  5  7  1  0  0  0  0
  7  8  1  0  0  0  0
  7  9  1  0  0  0  0
  9 10  1  0  0  0  0
  9 11  1  0  0  0  0
  9 26  1  0  0  0  0
 11 12  1  0  0  0  0
 11 13  1  0  0  0  0
 11 14  1  0  0  0  0
 14 15  1  0  0  0  0
 14 16  1  0  0  0  0
 14 17  1  0  0  0  0
 17 18  1  0  0  0  0
 17 19  1  0  0  0  0
 17 20  1  0  0  0  0
 20 21  1  0  0  0  0
 20 22  1  0  0  0  0
 20 23  1  0  0  0  0
 23 24  1  0  0  0  0
 23 25  1  0  0  0  0
 26 27  2  0  0  0  0
 26 28  1  0  0  0  0
 28 29  1  0  0  0  0
 28 30  1  0  0  0  0
 30 31  1  0  0  0  0
 30 32  1  0  0  0  0
 30 33  1  0  0  0  0
M  END
$$$$

  -OEChem-03222214063D

 33 32  0     1  0  0  0  0  0999 V2000
   -3.7796   -3.9941    1.7119 H   0  0  0  0  0  0  0  0  0  0  0  0
   -3.7666   -3.0076    1.2402 C   0  0  0  0  0  0  0  0  0  0  0  0
   -4.4400   -2.3456    1.7897 H   0  0  0  0  0  0  0  0  0  0  0  0
   -4.1207   -3.1040    0.2111 H   0  0  0  0  0  0  0  0  0  0  0  0
   -2.3596   -2.4410    1.2516 C   0  0  0  0  0  0  0  0  0  0  0  0
   -1.4453   -3.0895    1.7359 O   0  0  0  0  0  0  0  0  0  0  0  0
   -2.1234   -1.1916    0.7169 N   0  0  0  0  0  0  0  0  0  0  0  0
   -2.9310   -0.6540    0.4060 H   0  0  0  0  0  0  0  0  0  0  0  0
   -0.8307   -0.4906    0.7420 C   0  0  1  0  0  0  0  0  0  0  0  0
   -0.1701   -0.9523    1.4830 H   0  0  0  0  0  0  0  0  0  0  0  0
   -0.1558   -0.5630   -0.6392 C   0  0  0  0  0  0  0  0  0  0  0  0
   -0.7825   -0.0632   -1.3858 H   0  0  0  0  0  0  0  0  0  0  0  0
    0.7939   -0.0202   -0.5872 H   0  0  0  0  0  0  0  0  0  0  0  0
    0.1127   -2.0075   -1.0862 C   0  0  0  0  0  0  0  0  0  0  0  0
    0.5400   -2.5747   -0.2521 H   0  0  0  0  0  0  0  0  0  0  0  0
   -0.8280   -2.4883   -1.3738 H   0  0  0  0  0  0  0  0  0  0  0  0
    1.0958   -2.0370   -2.2609 C   0  0  0  0  0  0  0  0  0  0  0  0
    0.6806   -1.4697   -3.1002 H   0  0  0  0  0  0  0  0  0  0  0  0
    2.0391   -1.5654   -1.9667 H   0  0  0  0  0  0  0  0  0  0  0  0
    1.3687   -3.4718   -2.7009 C   0  0  0  0  0  0  0  0  0  0  0  0
    1.8032   -4.0422   -1.8723 H   0  0  0  0  0  0  0  0  0  0  0  0
    0.4327   -3.9595   -2.9953 H   0  0  0  0  0  0  0  0  0  0  0  0
    2.3011   -3.4413   -3.8320 N   0  0  0  0  0  0  0  0  0  0  0  0
    2.5213   -4.3836   -4.1544 H   0  0  0  0  0  0  0  0  0  0  0  0
    1.9330   -2.8724   -4.5943 H   0  0  0  0  0  0  0  0  0  0  0  0
   -1.0249    0.9830    1.1481 C   0  0  0  0  0  0  0  0  0  0  0  0
   -1.9660    1.6229    0.6920 O   0  0  0  0  0  0  0  0  0  0  0  0
   -0.1848    1.5729    2.0742 N   0  0  0  0  0  0  0  0  0  0  0  0
    0.5547    1.0007    2.4721 H   0  0  0  0  0  0  0  0  0  0  0  0
   -0.3485    2.9429    2.5444 C   0  0  0  0  0  0  0  0  0  0  0  0
   -1.3254    3.0705    3.0225 H   0  0  0  0  0  0  0  0  0  0  0  0
    0.4283    3.1874    3.2752 H   0  0  0  0  0  0  0  0  0  0  0  0
   -0.2704    3.6456    1.7082 H   0  0  0  0  0  0  0  0  0  0  0  0
  1  2  1  0  0  0  0
  2  3  1  0  0  0  0
  2  4  1  0  0  0  0
  2  5  1  0  0  0  0
  5  6  2  0  0  0  0
  5  7  1  0  0  0  0
  7  8  1  0  0  0  0
  7  9  1  0  0  0  0
  9 10  1  0  0  0  0
  9 11  1  0  0  0  0
  9 26  1  0  0  0  0
 11 12  1  0  0  0  0
 11 13  1  0  0  0  0
 11 14  1  0  0  0  0
 14 15  1  0  0  0  0
 14 16  1  0  0  0  0
 14 17  1  0  0  0  0
 17 18  1  0  0  0  0
 17 19  1  0  0  0  0
 17 20  1  0  0  0  0
 20 21  1  0  0  0  0
 20 22  1  0  0  0  0
 20 23  1  0  0  0  0
 23 24  1  0  0  0  0
 23 25  1  0  0  0  0
 26 27  2  0  0  0  0
 26 28  1  0  0  0  0
 28 29  1  0  0  0  0
 28 30  1  0  0  0  0
 30 31  1  0  0  0  0
 30 32  1  0  0  0  0
 30 33  1  0  0  0  0
M  END
$$$$

  -OEChem-03222214063D

 33 32  0     1  0  0  0  0  0999 V2000
   -3.7887   -3.9938    1.6936 H   0  0  0  0  0  0  0  0  0  0  0  0
   -3.7676   -3.0071    1.2229 C   0  0  0  0  0  0  0  0  0  0  0  0
   -4.4484   -2.3447    1.7630 H   0  0  0  0  0  0  0  0  0  0  0  0
   -4.1068   -3.1027    0.1887 H   0  0  0  0  0  0  0  0  0  0  0  0
   -2.3607   -2.4415    1.2557 C   0  0  0  0  0  0  0  0  0  0  0  0
   -1.4575   -3.0844    1.7672 O   0  0  0  0  0  0  0  0  0  0  0  0
   -2.1171   -1.1933    0.7218 N   0  0  0  0  0  0  0  0  0  0  0  0
   -2.9203   -0.6602    0.3926 H   0  0  0  0  0  0  0  0  0  0  0  0
   -0.8248   -0.4917    0.7518 C   0  0  1  0  0  0  0  0  0  0  0  0
   -0.1635   -0.9542    1.4923 H   0  0  0  0  0  0  0  0  0  0  0  0
   -0.1529   -0.5593   -0.6317 C   0  0  0  0  0  0  0  0  0  0  0  0
   -0.7750   -0.0528   -1.3775 H   0  0  0  0  0  0  0  0  0  0  0  0
    0.7946   -0.0134   -0.5709 H   0  0  0  0  0  0  0  0  0  0  0  0
    0.1185   -2.0011   -1.0928 C   0  0  0  0  0  0  0  0  0  0  0  0
    0.3096   -2.6363   -0.2216 H   0  0  0  0  0  0  0  0  0  0  0  0
   -0.7624   -2.3964   -1.6091 H   0  0  0  0  0  0  0  0  0  0  0  0
    1.3513   -2.0634   -2.0013 C   0  0  0  0  0  0  0  0  0  0  0  0
    1.1911   -1.4281   -2.8784 H   0  0  0  0  0  0  0  0  0  0  0  0
    2.2272   -1.6852   -1.4640 H   0  0  0  0  0  0  0  0  0  0  0  0
    1.6220   -3.4955   -2.4516 C   0  0  0  0  0  0  0  0  0  0  0  0
    1.8058   -4.1345   -1.5805 H   0  0  0  0  0  0  0  0  0  0  0  0
    0.7527   -3.8927   -2.9872 H   0  0  0  0  0  0  0  0  0  0  0  0
    2.7977   -3.4921   -3.3278 N   0  0  0  0  0  0  0  0  0  0  0  0
    3.0290   -4.4353   -3.6394 H   0  0  0  0  0  0  0  0  0  0  0  0
    2.6597   -2.8695   -4.1236 H   0  0  0  0  0  0  0  0  0  0  0  0
   -1.0217    0.9826    1.1551 C   0  0  0  0  0  0  0  0  0  0  0  0
   -1.9570    1.6234    0.6883 O   0  0  0  0  0  0  0  0  0  0  0  0
   -0.1862    1.5745    2.0843 N   0  0  0  0  0  0  0  0  0  0  0  0
    0.5458    1.0005    2.4933 H   0  0  0  0  0  0  0  0  0  0  0  0
   -0.3504    2.9464    2.5484 C   0  0  0  0  0  0  0  0  0  0  0  0
   -1.3264    3.0748    3.0280 H   0  0  0  0  0  0  0  0  0  0  0  0
    0.4279    3.1954    3.2760 H   0  0  0  0  0  0  0  0  0  0  0  0
   -0.2753    3.6454    1.7090 H   0  0  0  0  0  0  0  0  0  0  0  0
  1  2  1  0  0  0  0
  2  3  1  0  0  0  0
  2  4  1  0  0  0  0
  2  5  1  0  0  0  0
  5  6  2  0  0  0  0
  5  7  1  0  0  0  0
  7  8  1  0  0  0  0
  7  9  1  0  0  0  0
  9 10  1  0  0  0  0
  9 11  1  0  0  0  0
  9 26  1  0  0  0  0
 11 12  1  0  0  0  0
 11 13  1  0  0  0  0
 11 14  1  0  0  0  0
 14 15  1  0  0  0  0
 14 16  1  0  0  0  0
 14 17  1  0  0  0  0
 17 18  1  0  0  0  0
 17 19  1  0  0  0  0
 17 20  1  0  0  0  0
 20 21  1  0  0  0  0
 20 22  1  0  0  0  0
 20 23  1  0  0  0  0
 23 24  1  0  0  0  0
 23 25  1  0  0  0  0
 26 27  2  0  0  0  0
 26 28  1  0  0  0  0
 28 29  1  0  0  0  0
 28 30  1  0  0  0  0
 30 31  1  0  0  0  0
 30 32  1  0  0  0  0
 30 33  1  0  0  0  0
M  END
$$$$

  -OEChem-03222214063D

 33 32  0     1  0  0  0  0  0999 V2000
   -3.8067   -3.9937    1.6891 H   0  0  0  0  0  0  0  0  0  0  0  0
   -3.7796   -3.0083    1.2155 C   0  0  0  0  0  0  0  0  0  0  0  0
   -4.4708   -2.3451    1.7416 H   0  0  0  0  0  0  0  0  0  0  0  0
   -4.1009   -3.1081    0.1759 H   0  0  0  0  0  0  0  0  0  0  0  0
   -2.3742   -2.4404    1.2709 C   0  0  0  0  0  0  0  0  0  0  0  0
   -1.4831   -3.0761    1.8116 O   0  0  0  0  0  0  0  0  0  0  0  0
   -2.1219   -1.1951    0.7339 N   0  0  0  0  0  0  0  0  0  0  0  0
   -2.9199   -0.6670    0.3847 H   0  0  0  0  0  0  0  0  0  0  0  0
   -0.8274   -0.4961    0.7629 C   0  0  1  0  0  0  0  0  0  0  0  0
   -0.1671   -0.9591    1.5034 H   0  0  0  0  0  0  0  0  0  0  0  0
   -0.1508   -0.5582   -0.6203 C   0  0  0  0  0  0  0  0  0  0  0  0
   -0.7770   -0.0495   -1.3612 H   0  0  0  0  0  0  0  0  0  0  0  0
    0.7908   -0.0019   -0.5585 H   0  0  0  0  0  0  0  0  0  0  0  0
    0.1297   -1.9937   -1.1037 C   0  0  0  0  0  0  0  0  0  0  0  0
    0.0574   -2.6925   -0.2657 H   0  0  0  0  0  0  0  0  0  0  0  0
   -0.6213   -2.2850   -1.8450 H   0  0  0  0  0  0  0  0  0  0  0  0
    1.5409   -2.1165   -1.6901 C   0  0  0  0  0  0  0  0  0  0  0  0
    1.6436   -1.4338   -2.5396 H   0  0  0  0  0  0  0  0  0  0  0  0
    2.2818   -1.8333   -0.9350 H   0  0  0  0  0  0  0  0  0  0  0  0
    1.8159   -3.5458   -2.1474 C   0  0  0  0  0  0  0  0  0  0  0  0
    1.7471   -4.2317   -1.2955 H   0  0  0  0  0  0  0  0  0  0  0  0
    1.0727   -3.8526   -2.8918 H   0  0  0  0  0  0  0  0  0  0  0  0
    3.1620   -3.5989   -2.7263 N   0  0  0  0  0  0  0  0  0  0  0  0
    3.3985   -4.5453   -3.0241 H   0  0  0  0  0  0  0  0  0  0  0  0
    3.2546   -2.9403   -3.4993 H   0  0  0  0  0  0  0  0  0  0  0  0
   -1.0230    0.9796    1.1610 C   0  0  0  0  0  0  0  0  0  0  0  0
   -1.9531    1.6232    0.6875 O   0  0  0  0  0  0  0  0  0  0  0  0
   -0.1871    1.5715    2.0896 N   0  0  0  0  0  0  0  0  0  0  0  0
    0.5397    0.9949    2.5043 H   0  0  0  0  0  0  0  0  0  0  0  0
   -0.3445    2.9466    2.5467 C   0  0  0  0  0  0  0  0  0  0  0  0
   -1.3206    3.0824    3.0243 H   0  0  0  0  0  0  0  0  0  0  0  0
    0.4342    3.1953    3.2741 H   0  0  0  0  0  0  0  0  0  0  0  0
   -0.2643    3.6414    1.7041 H   0  0  0  0  0  0  0  0  0  0  0  0
  1  2  1  0  0  0  0
  2  3  1  0  0  0  0
  2  4  1  0  0  0  0
  2  5  1  0  0  0  0
  5  6  2  0  0  0  0
  5  7  1  0  0  0  0
  7  8  1  0  0  0  0
  7  9  1  0  0  0  0
  9 10  1  0  0  0  0
  9 11  1  0  0  0  0
  9 26  1  0  0  0  0
 11 12  1  0  0  0  0
 11 13  1  0  0  0  0
 11 14  1  0  0  0  0
 14 15  1  0  0  0  0
 14 16  1  0  0  0  0
 14 17  1  0  0  0  0
 17 18  1  0  0  0  0
 17 19  1  0  0  0  0
 17 20  1  0  0  0  0
 20 21  1  0  0  0  0
 20 22  1  0  0  0  0
 20 23  1  0  0  0  0
 23 24  1  0  0  0  0
 23 25  1  0  0  0  0
 26 27  2  0  0  0  0
 26 28  1  0  0  0  0
 28 29  1  0  0  0  0
 28 30  1  0  0  0  0
 30 31  1  0  0  0  0
 30 32  1  0  0  0  0
 30 33  1  0  0  0  0
M  END
$$$$

  -OEChem-03222214063D

 33 32  0     1  0  0  0  0  0999 V2000
   -3.8292   -3.9884    1.6954 H   0  0  0  0  0  0  0  0  0  0  0  0
   -3.7958   -3.0041    1.2201 C   0  0  0  0  0  0  0  0  0  0  0  0
   -4.4863   -2.3369    1.7417 H   0  0  0  0  0  0  0  0  0  0  0  0
   -4.1128   -3.1040    0.1794 H   0  0  0  0  0  0  0  0  0  0  0  0
   -2.3884   -2.4417    1.2802 C   0  0  0  0  0  0  0  0  0  0  0  0
   -1.5020   -3.0789    1.8268 O   0  0  0  0  0  0  0  0  0  0  0  0
   -2.1296   -1.1980    0.7420 N   0  0  0  0  0  0  0  0  0  0  0  0
   -2.9246   -0.6675    0.3895 H   0  0  0  0  0  0  0  0  0  0  0  0
   -0.8315   -0.5045    0.7686 C   0  0  1  0  0  0  0  0  0  0  0  0
   -0.1724   -0.9709    1.5085 H   0  0  0  0  0  0  0  0  0  0  0  0
   -0.1466   -0.5559   -0.6127 C   0  0  0  0  0  0  0  0  0  0  0  0
   -0.7889   -0.0512   -1.3425 H   0  0  0  0  0  0  0  0  0  0  0  0
    0.7858    0.0164   -0.5607 H   0  0  0  0  0  0  0  0  0  0  0  0
    0.1431   -1.9814   -1.1239 C   0  0  0  0  0  0  0  0  0  0  0  0
   -0.2040   -2.7287   -0.4068 H   0  0  0  0  0  0  0  0  0  0  0  0
   -0.4002   -2.1463   -2.0600 H   0  0  0  0  0  0  0  0  0  0  0  0
    1.6443   -2.1927   -1.3551 C   0  0  0  0  0  0  0  0  0  0  0  0
    1.9995   -1.4935   -2.1190 H   0  0  0  0  0  0  0  0  0  0  0  0
    2.1921   -1.9913   -0.4285 H   0  0  0  0  0  0  0  0  0  0  0  0
    1.9283   -3.6239   -1.8006 C   0  0  0  0  0  0  0  0  0  0  0  0
    1.6163   -4.3273   -1.0203 H   0  0  0  0  0  0  0  0  0  0  0  0
    1.3642   -3.8538   -2.7111 H   0  0  0  0  0  0  0  0  0  0  0  0
    3.3666   -3.7584   -2.0514 N   0  0  0  0  0  0  0  0  0  0  0  0
    3.6062   -4.7120   -2.3225 H   0  0  0  0  0  0  0  0  0  0  0  0
    3.6802   -3.0903   -2.7550 H   0  0  0  0  0  0  0  0  0  0  0  0
   -1.0260    0.9716    1.1667 C   0  0  0  0  0  0  0  0  0  0  0  0
   -1.9552    1.6165    0.6930 O   0  0  0  0  0  0  0  0  0  0  0  0
   -0.1889    1.5629    2.0947 N   0  0  0  0  0  0  0  0  0  0  0  0
    0.5377    0.9855    2.5085 H   0  0  0  0  0  0  0  0  0  0  0  0
   -0.3399    2.9401    2.5474 C   0  0  0  0  0  0  0  0  0  0  0  0
   -1.3173    3.0839    3.0200 H   0  0  0  0  0  0  0  0  0  0  0  0
    0.4370    3.1851    3.2781 H   0  0  0  0  0  0  0  0  0  0  0  0
   -0.2505    3.6321    1.7033 H   0  0  0  0  0  0  0  0  0  0  0  0
  1  2  1  0  0  0  0
  2  3  1  0  0  0  0
  2  4  1  0  0  0  0
  2  5  1  0  0  0  0
  5  6  2  0  0  0  0
  5  7  1  0  0  0  0
  7  8  1  0  0  0  0
  7  9  1  0  0  0  0
  9 10  1  0  0  0  0
  9 11  1  0  0  0  0
  9 26  1  0  0  0  0
 11 12  1  0  0  0  0
 11 13  1  0  0  0  0
 11 14  1  0  0  0  0
 14 15  1  0  0  0  0
 14 16  1  0  0  0  0
 14 17  1  0  0  0  0
 17 18  1  0  0  0  0
 17 19  1  0  0  0  0
 17 20  1  0  0  0  0
 20 21  1  0  0  0  0
 20 22  1  0  0  0  0
 20 23  1  0  0  0  0
 23 24  1  0  0  0  0
 23 25  1  0  0  0  0
 26 27  2  0  0  0  0
 26 28  1  0  0  0  0
 28 29  1  0  0  0  0
 28 30  1  0  0  0  0
 30 31  1  0  0  0  0
 30 32  1  0  0  0  0
 30 33  1  0  0  0  0
M  END
$$$$

  -OEChem-03222214063D

 33 32  0     1  0  0  0  0  0999 V2000
   -3.8140   -3.9967    1.6920 H   0  0  0  0  0  0  0  0  0  0  0  0
   -3.7893   -3.0111    1.2190 C   0  0  0  0  0  0  0  0  0  0  0  0
   -4.4789   -2.3489    1.7483 H   0  0  0  0  0  0  0  0  0  0  0  0
   -4.1139   -3.1105    0.1804 H   0  0  0  0  0  0  0  0  0  0  0  0
   -2.3837   -2.4432    1.2699 C   0  0  0  0  0  0  0  0  0  0  0  0
   -1.4883   -3.0839    1.7974 O   0  0  0  0  0  0  0  0  0  0  0  0
   -2.1325   -1.1958    0.7361 N   0  0  0  0  0  0  0  0  0  0  0  0
   -2.9315   -0.6625    0.3974 H   0  0  0  0  0  0  0  0  0  0  0  0
   -0.8349   -0.5011    0.7617 C   0  0  1  0  0  0  0  0  0  0  0  0
   -0.1760   -0.9695    1.5001 H   0  0  0  0  0  0  0  0  0  0  0  0
   -0.1411   -0.5432   -0.6159 C   0  0  0  0  0  0  0  0  0  0  0  0
   -0.7985   -0.0487   -1.3394 H   0  0  0  0  0  0  0  0  0  0  0  0
    0.7839    0.0421   -0.5757 H   0  0  0  0  0  0  0  0  0  0  0  0
    0.1579   -1.9629   -1.1361 C   0  0  0  0  0  0  0  0  0  0  0  0
   -0.4321   -2.7146   -0.6083 H   0  0  0  0  0  0  0  0  0  0  0  0
   -0.1207   -2.0170   -2.1934 H   0  0  0  0  0  0  0  0  0  0  0  0
    1.6494   -2.2917   -1.0041 C   0  0  0  0  0  0  0  0  0  0  0  0
    2.2340   -1.6034   -1.6231 H   0  0  0  0  0  0  0  0  0  0  0  0
    1.9625   -2.1629    0.0373 H   0  0  0  0  0  0  0  0  0  0  0  0
    1.9279   -3.7290   -1.4330 C   0  0  0  0  0  0  0  0  0  0  0  0
    1.3932   -4.4242   -0.7758 H   0  0  0  0  0  0  0  0  0  0  0  0
    1.5766   -3.8908   -2.4579 H   0  0  0  0  0  0  0  0  0  0  0  0
    3.3719   -3.9714   -1.3512 N   0  0  0  0  0  0  0  0  0  0  0  0
    3.5980   -4.9365   -1.5916 H   0  0  0  0  0  0  0  0  0  0  0  0
    3.8875   -3.3185   -1.9407 H   0  0  0  0  0  0  0  0  0  0  0  0
   -1.0300    0.9725    1.1683 C   0  0  0  0  0  0  0  0  0  0  0  0
   -1.9615    1.6188    0.7010 O   0  0  0  0  0  0  0  0  0  0  0  0
   -0.1904    1.5595    2.0965 N   0  0  0  0  0  0  0  0  0  0  0  0
    0.5416    0.9820    2.5007 H   0  0  0  0  0  0  0  0  0  0  0  0
   -0.3422    2.9337    2.5576 C   0  0  0  0  0  0  0  0  0  0  0  0
   -1.3247    3.0771    3.0193 H   0  0  0  0  0  0  0  0  0  0  0  0
    0.4261    3.1708    3.2996 H   0  0  0  0  0  0  0  0  0  0  0  0
   -0.2407    3.6312    1.7196 H   0  0  0  0  0  0  0  0  0  0  0  0
  1  2  1  0  0  0  0
  2  3  1  0  0  0  0
  2  4  1  0  0  0  0
  2  5  1  0  0  0  0
  5  6  2  0  0  0  0
  5  7  1  0  0  0  0
  7  8  1  0  0  0  0
  7  9  1  0  0  0  0
  9 10  1  0  0  0  0
  9 11  1  0  0  0  0
  9 26  1  0  0  0  0
 11 12  1  0  0  0  0
 11 13  1  0  0  0  0
 11 14  1  0  0  0  0
 14 15  1  0  0  0  0
 14 16  1  0  0  0  0
 14 17  1  0  0  0  0
 17 18  1  0  0  0  0
 17 19  1  0  0  0  0
 17 20  1  0  0  0  0
 20 21  1  0  0  0  0
 20 22  1  0  0  0  0
 20 23  1  0  0  0  0
 23 24  1  0  0  0  0
 23 25  1  0  0  0  0
 26 27  2  0  0  0  0
 26 28  1  0  0  0  0
 28 29  1  0  0  0  0
 28 30  1  0  0  0  0
 30 31  1  0  0  0  0
 30 32  1  0  0  0  0
 30 33  1  0  0  0  0
M  END
$$$$

  -OEChem-03222214063D

 33 32  0     1  0  0  0  0  0999 V2000
   -3.7933   -4.0034    1.6898 H   0  0  0  0  0  0  0  0  0  0  0  0
   -3.7757   -3.0175    1.2164 C   0  0  0  0  0  0  0  0  0  0  0  0
   -4.4595   -2.3566    1.7545 H   0  0  0  0  0  0  0  0  0  0  0  0
   -4.1141   -3.1168    0.1824 H   0  0  0  0  0  0  0  0  0  0  0  0
   -2.3701   -2.4472    1.2480 C   0  0  0  0  0  0  0  0  0  0  0  0
   -1.4628   -3.0960    1.7439 O   0  0  0  0  0  0  0  0  0  0  0  0
   -2.1289   -1.1948    0.7214 N   0  0  0  0  0  0  0  0  0  0  0  0
   -2.9341   -0.6577    0.4039 H   0  0  0  0  0  0  0  0  0  0  0  0
   -0.8359   -0.4926    0.7548 C   0  0  1  0  0  0  0  0  0  0  0  0
   -0.1805   -0.9595    1.4972 H   0  0  0  0  0  0  0  0  0  0  0  0
   -0.1322   -0.5325   -0.6178 C   0  0  0  0  0  0  0  0  0  0  0  0
   -0.7910   -0.0465   -1.3455 H   0  0  0  0  0  0  0  0  0  0  0  0
    0.7908    0.0555   -0.5784 H   0  0  0  0  0  0  0  0  0  0  0  0
    0.1772   -1.9504   -1.1308 C   0  0  0  0  0  0  0  0  0  0  0  0
   -0.5899   -2.6634   -0.8199 H   0  0  0  0  0  0  0  0  0  0  0  0
    0.1753   -1.9329   -2.2257 H   0  0  0  0  0  0  0  0  0  0  0  0
    1.5606   -2.4133   -0.6577 C   0  0  0  0  0  0  0  0  0  0  0  0
    2.3305   -1.7567   -1.0754 H   0  0  0  0  0  0  0  0  0  0  0  0
    1.6184   -2.3522    0.4340 H   0  0  0  0  0  0  0  0  0  0  0  0
    1.8256   -3.8527   -1.0866 C   0  0  0  0  0  0  0  0  0  0  0  0
    1.1069   -4.5228   -0.6011 H   0  0  0  0  0  0  0  0  0  0  0  0
    1.7047   -3.9513   -2.1709 H   0  0  0  0  0  0  0  0  0  0  0  0
    3.1929   -4.2149   -0.6988 N   0  0  0  0  0  0  0  0  0  0  0  0
    3.3947   -5.1887   -0.9249 H   0  0  0  0  0  0  0  0  0  0  0  0
    3.8746   -3.5913   -1.1299 H   0  0  0  0  0  0  0  0  0  0  0  0
   -1.0368    0.9778    1.1688 C   0  0  0  0  0  0  0  0  0  0  0  0
   -1.9698    1.6226    0.7030 O   0  0  0  0  0  0  0  0  0  0  0  0
   -0.2012    1.5629    2.1020 N   0  0  0  0  0  0  0  0  0  0  0  0
    0.5300    0.9846    2.5068 H   0  0  0  0  0  0  0  0  0  0  0  0
   -0.3533    2.9368    2.5643 C   0  0  0  0  0  0  0  0  0  0  0  0
   -1.3375    3.0815    3.0222 H   0  0  0  0  0  0  0  0  0  0  0  0
    0.4124    3.1713    3.3100 H   0  0  0  0  0  0  0  0  0  0  0  0
   -0.2473    3.6358    1.7281 H   0  0  0  0  0  0  0  0  0  0  0  0
  1  2  1  0  0  0  0
  2  3  1  0  0  0  0
  2  4  1  0  0  0  0
  2  5  1  0  0  0  0
  5  6  2  0  0  0  0
  5  7  1  0  0  0  0
  7  8  1  0  0  0  0
  7  9  1  0  0  0  0
  9 10  1  0  0  0  0
  9 11  1  0  0  0  0
  9 26  1  0  0  0  0
 11 12  1  0  0  0  0
 11 13  1  0  0  0  0
 11 14  1  0  0  0  0
 14 15  1  0  0  0  0
 14 16  1  0  0  0  0
 14 17  1  0  0  0  0
 17 18  1  0  0  0  0
 17 19  1  0  0  0  0
 17 20  1  0  0  0  0
 20 21  1  0  0  0  0
 20 22  1  0  0  0  0
 20 23  1  0  0  0  0
 23 24  1  0  0  0  0
 23 25  1  0  0  0  0
 26 27  2  0  0  0  0
 26 28  1  0  0  0  0
 28 29  1  0  0  0  0
 28 30  1  0  0  0  0
 30 31  1  0  0  0  0
 30 32  1  0  0  0  0
 30 33  1  0  0  0  0
M  END
$$$$

  -OEChem-03222214063D

 33 32  0     1  0  0  0  0  0999 V2000
   -3.7952   -3.9874    1.6811 H   0  0  0  0  0  0  0  0  0  0  0  0
   -3.7717   -2.9998    1.2119 C   0  0  0  0  0  0  0  0  0  0  0  0
   -4.4580   -2.3391    1.7470 H   0  0  0  0  0  0  0  0  0  0  0  0
   -4.1015   -3.0946    0.1746 H   0  0  0  0  0  0  0  0  0  0  0  0
   -2.3657   -2.4322    1.2583 C   0  0  0  0  0  0  0  0  0  0  0  0
   -1.4682   -3.0741    1.7794 O   0  0  0  0  0  0  0  0  0  0  0  0
   -2.1169   -1.1856    0.7225 N   0  0  0  0  0  0  0  0  0  0  0  0
   -2.9175   -0.6533    0.3861 H   0  0  0  0  0  0  0  0  0  0  0  0
   -0.8260   -0.4809    0.7696 C   0  0  1  0  0  0  0  0  0  0  0  0
   -0.1821   -0.9348    1.5290 H   0  0  0  0  0  0  0  0  0  0  0  0
   -0.1143   -0.5403   -0.5982 C   0  0  0  0  0  0  0  0  0  0  0  0
   -0.7576   -0.0546   -1.3400 H   0  0  0  0  0  0  0  0  0  0  0  0
    0.8163    0.0349   -0.5500 H   0  0  0  0  0  0  0  0  0  0  0  0
    0.1976   -1.9629   -1.0931 C   0  0  0  0  0  0  0  0  0  0  0  0
   -0.6836   -2.6042   -1.0018 H   0  0  0  0  0  0  0  0  0  0  0  0
    0.4524   -1.9116   -2.1566 H   0  0  0  0  0  0  0  0  0  0  0  0
    1.3815   -2.5792   -0.3347 C   0  0  0  0  0  0  0  0  0  0  0  0
    2.2725   -1.9622   -0.4881 H   0  0  0  0  0  0  0  0  0  0  0  0
    1.1710   -2.6092    0.7386 H   0  0  0  0  0  0  0  0  0  0  0  0
    1.6519   -3.9998   -0.8195 C   0  0  0  0  0  0  0  0  0  0  0  0
    0.8046   -4.6456   -0.5630 H   0  0  0  0  0  0  0  0  0  0  0  0
    1.7714   -4.0111   -1.9084 H   0  0  0  0  0  0  0  0  0  0  0  0
    2.8748   -4.4938   -0.1780 N   0  0  0  0  0  0  0  0  0  0  0  0
    3.0624   -5.4622   -0.4366 H   0  0  0  0  0  0  0  0  0  0  0  0
    3.6713   -3.8960   -0.3957 H   0  0  0  0  0  0  0  0  0  0  0  0
   -1.0365    0.9935    1.1637 C   0  0  0  0  0  0  0  0  0  0  0  0
   -1.9634    1.6312    0.6763 O   0  0  0  0  0  0  0  0  0  0  0  0
   -0.2181    1.5909    2.1043 N   0  0  0  0  0  0  0  0  0  0  0  0
    0.5043    1.0174    2.5311 H   0  0  0  0  0  0  0  0  0  0  0  0
   -0.3935    2.9635    2.5622 C   0  0  0  0  0  0  0  0  0  0  0  0
   -1.3787    3.0911    3.0229 H   0  0  0  0  0  0  0  0  0  0  0  0
    0.3705    3.2152    3.3039 H   0  0  0  0  0  0  0  0  0  0  0  0
   -0.3034    3.6611    1.7229 H   0  0  0  0  0  0  0  0  0  0  0  0
  1  2  1  0  0  0  0
  2  3  1  0  0  0  0
  2  4  1  0  0  0  0
  2  5  1  0  0  0  0
  5  6  2  0  0  0  0
  5  7  1  0  0  0  0
  7  8  1  0  0  0  0
  7  9  1  0  0  0  0
  9 10  1  0  0  0  0
  9 11  1  0  0  0  0
  9 26  1  0  0  0  0
 11 12  1  0  0  0  0
 11 13  1  0  0  0  0
 11 14  1  0  0  0  0
 14 15  1  0  0  0  0
 14 16  1  0  0  0  0
 14 17  1  0  0  0  0
 17 18  1  0  0  0  0
 17 19  1  0  0  0  0
 17 20  1  0  0  0  0
 20 21  1  0  0  0  0
 20 22  1  0  0  0  0
 20 23  1  0  0  0  0
 23 24  1  0  0  0  0
 23 25  1  0  0  0  0
 26 27  2  0  0  0  0
 26 28  1  0  0  0  0
 28 29  1  0  0  0  0
 28 30  1  0  0  0  0
 30 31  1  0  0  0  0
 30 32  1  0  0  0  0
 30 33  1  0  0  0  0
M  END
$$$$

  -OEChem-03222214063D

 33 32  0     1  0  0  0  0  0999 V2000
   -3.7995   -4.0079    1.6193 H   0  0  0  0  0  0  0  0  0  0  0  0
   -3.7659   -3.0111    1.1708 C   0  0  0  0  0  0  0  0  0  0  0  0
   -4.5217   -2.3832    1.6487 H   0  0  0  0  0  0  0  0  0  0  0  0
   -3.9933   -3.0973    0.1056 H   0  0  0  0  0  0  0  0  0  0  0  0
   -2.3902   -2.3999    1.3595 C   0  0  0  0  0  0  0  0  0  0  0  0
   -1.5630   -2.9758    2.0452 O   0  0  0  0  0  0  0  0  0  0  0  0
   -2.1074   -1.1747    0.7925 N   0  0  0  0  0  0  0  0  0  0  0  0
   -2.8728   -0.6914    0.3266 H   0  0  0  0  0  0  0  0  0  0  0  0
   -0.8168   -0.4690    0.8447 C   0  0  1  0  0  0  0  0  0  0  0  0
   -0.1770   -0.9005    1.6200 H   0  0  0  0  0  0  0  0  0  0  0  0
   -0.1136   -0.5577   -0.5284 C   0  0  0  0  0  0  0  0  0  0  0  0
   -0.7457   -0.0666   -1.2763 H   0  0  0  0  0  0  0  0  0  0  0  0
    0.8231    0.0072   -0.4755 H   0  0  0  0  0  0  0  0  0  0  0  0
    0.2077   -1.9748   -1.0353 C   0  0  0  0  0  0  0  0  0  0  0  0
   -0.7258   -2.5328   -1.1603 H   0  0  0  0  0  0  0  0  0  0  0  0
    0.6763   -1.8937   -2.0217 H   0  0  0  0  0  0  0  0  0  0  0  0
    1.1419   -2.7562   -0.0984 C   0  0  0  0  0  0  0  0  0  0  0  0
    2.0889   -2.2158   -0.0043 H   0  0  0  0  0  0  0  0  0  0  0  0
    0.7117   -2.8484    0.9004 H   0  0  0  0  0  0  0  0  0  0  0  0
    1.4051   -4.1551   -0.6484 C   0  0  0  0  0  0  0  0  0  0  0  0
    0.4758   -4.7360   -0.6458 H   0  0  0  0  0  0  0  0  0  0  0  0
    1.7651   -4.0923   -1.6812 H   0  0  0  0  0  0  0  0  0  0  0  0
    2.4112   -4.8138    0.1909 N   0  0  0  0  0  0  0  0  0  0  0  0
    2.5995   -5.7628   -0.1310 H   0  0  0  0  0  0  0  0  0  0  0  0
    3.2692   -4.2654    0.2376 H   0  0  0  0  0  0  0  0  0  0  0  0
   -1.0343    1.0190    1.1820 C   0  0  0  0  0  0  0  0  0  0  0  0
   -1.9329    1.6478    0.6332 O   0  0  0  0  0  0  0  0  0  0  0  0
   -0.2364    1.6472    2.1200 N   0  0  0  0  0  0  0  0  0  0  0  0
    0.4545    1.0801    2.6035 H   0  0  0  0  0  0  0  0  0  0  0  0
   -0.4189    3.0354    2.5249 C   0  0  0  0  0  0  0  0  0  0  0  0
   -1.4143    3.1811    2.9575 H   0  0  0  0  0  0  0  0  0  0  0  0
    0.3283    3.3119    3.2750 H   0  0  0  0  0  0  0  0  0  0  0  0
   -0.3076    3.7027    1.6639 H   0  0  0  0  0  0  0  0  0  0  0  0
  1  2  1  0  0  0  0
  2  3  1  0  0  0  0
  2  4  1  0  0  0  0
  2  5  1  0  0  0  0
  5  6  2  0  0  0  0
  5  7  1  0  0  0  0
  7  8  1  0  0  0  0
  7  9  1  0  0  0  0
  9 10  1  0  0  0  0
  9 11  1  0  0  0  0
  9 26  1  0  0  0  0
 11 12  1  0  0  0  0
 11 13  1  0  0  0  0
 11 14  1  0  0  0  0
 14 15  1  0  0  0  0
 14 16  1  0  0  0  0
 14 17  1  0  0  0  0
 17 18  1  0  0  0  0
 17 19  1  0  0  0  0
 17 20  1  0  0  0  0
 20 21  1  0  0  0  0
 20 22  1  0  0  0  0
 20 23  1  0  0  0  0
 23 24  1  0  0  0  0
 23 25  1  0  0  0  0
 26 27  2  0  0  0  0
 26 28  1  0  0  0  0
 28 29  1  0  0  0  0
 28 30  1  0  0  0  0
 30 31  1  0  0  0  0
 30 32  1  0  0  0  0
 30 33  1  0  0  0  0
M  END
$$$$

  -OEChem-03222214063D

 33 32  0     1  0  0  0  0  0999 V2000
   -3.8981   -3.9179    1.7935 H   0  0  0  0  0  0  0  0  0  0  0  0
   -3.8018   -2.9929    1.2180 C   0  0  0  0  0  0  0  0  0  0  0  0
   -4.6262   -2.3257    1.4810 H   0  0  0  0  0  0  0  0  0  0  0  0
   -3.8607   -3.2334    0.1539 H   0  0  0  0  0  0  0  0  0  0  0  0
   -2.4757   -2.3234    1.5247 C   0  0  0  0  0  0  0  0  0  0  0  0
   -1.7550   -2.7780    2.3978 O   0  0  0  0  0  0  0  0  0  0  0  0
   -2.1479   -1.1404    0.8964 N   0  0  0  0  0  0  0  0  0  0  0  0
   -2.8508   -0.7346    0.2827 H   0  0  0  0  0  0  0  0  0  0  0  0
   -0.8368   -0.4719    0.9295 C   0  0  1  0  0  0  0  0  0  0  0  0
   -0.2045   -0.8946    1.7169 H   0  0  0  0  0  0  0  0  0  0  0  0
   -0.1365   -0.6014   -0.4463 C   0  0  0  0  0  0  0  0  0  0  0  0
   -0.7426   -0.0852   -1.1991 H   0  0  0  0  0  0  0  0  0  0  0  0
    0.8157   -0.0645   -0.3789 H   0  0  0  0  0  0  0  0  0  0  0  0
    0.1731   -2.0100   -0.9876 C   0  0  0  0  0  0  0  0  0  0  0  0
   -0.7567   -2.4534   -1.3589 H   0  0  0  0  0  0  0  0  0  0  0  0
    0.8503   -1.9058   -1.8417 H   0  0  0  0  0  0  0  0  0  0  0  0
    0.7890   -2.9725    0.0363 C   0  0  0  0  0  0  0  0  0  0  0  0
    1.6458   -2.4925    0.5194 H   0  0  0  0  0  0  0  0  0  0  0  0
    0.0669   -3.2290    0.8090 H   0  0  0  0  0  0  0  0  0  0  0  0
    1.2478   -4.2577   -0.6480 C   0  0  0  0  0  0  0  0  0  0  0  0
    0.3979   -4.7450   -1.1386 H   0  0  0  0  0  0  0  0  0  0  0  0
    1.9971   -4.0276   -1.4135 H   0  0  0  0  0  0  0  0  0  0  0  0
    1.8202   -5.1530    0.3613 N   0  0  0  0  0  0  0  0  0  0  0  0
    2.1729   -6.0123   -0.0592 H   0  0  0  0  0  0  0  0  0  0  0  0
    2.5466   -4.6838    0.9017 H   0  0  0  0  0  0  0  0  0  0  0  0
   -1.0244    1.0376    1.1872 C   0  0  0  0  0  0  0  0  0  0  0  0
   -1.8851    1.6657    0.5796 O   0  0  0  0  0  0  0  0  0  0  0  0
   -0.2242    1.6938    2.1043 N   0  0  0  0  0  0  0  0  0  0  0  0
    0.4134    1.1271    2.6565 H   0  0  0  0  0  0  0  0  0  0  0  0
   -0.4001    3.0980    2.4541 C   0  0  0  0  0  0  0  0  0  0  0  0
   -1.3929    3.2636    2.8855 H   0  0  0  0  0  0  0  0  0  0  0  0
    0.3517    3.4022    3.1885 H   0  0  0  0  0  0  0  0  0  0  0  0
   -0.2912    3.7303    1.5668 H   0  0  0  0  0  0  0  0  0  0  0  0
  1  2  1  0  0  0  0
  2  3  1  0  0  0  0
  2  4  1  0  0  0  0
  2  5  1  0  0  0  0
  5  6  2  0  0  0  0
  5  7  1  0  0  0  0
  7  8  1  0  0  0  0
  7  9  1  0  0  0  0
  9 10  1  0  0  0  0
  9 11  1  0  0  0  0
  9 26  1  0  0  0  0
 11 12  1  0  0  0  0
 11 13  1  0  0  0  0
 11 14  1  0  0  0  0
 14 15  1  0  0  0  0
 14 16  1  0  0  0  0
 14 17  1  0  0  0  0
 17 18  1  0  0  0  0
 17 19  1  0  0  0  0
 17 20  1  0  0  0  0
 20 21  1  0  0  0  0
 20 22  1  0  0  0  0
 20 23  1  0  0  0  0
 23 24  1  0  0  0  0
 23 25  1  0  0  0  0
 26 27  2  0  0  0  0
 26 28  1  0  0  0  0
 28 29  1  0  0  0  0
 28 30  1  0  0  0  0
 30 31  1  0  0  0  0
 30 32  1  0  0  0  0
 30 33  1  0  0  0  0
M  END
$$$$

  -OEChem-03222214063D

 33 32  0     1  0  0  0  0  0999 V2000
   -3.9702   -3.8082    2.1440 H   0  0  0  0  0  0  0  0  0  0  0  0
   -3.8759   -2.9311    1.4978 C   0  0  0  0  0  0  0  0  0  0  0  0
   -4.6619   -2.2173    1.7552 H   0  0  0  0  0  0  0  0  0  0  0  0
   -4.0014   -3.2447    0.4588 H   0  0  0  0  0  0  0  0  0  0  0  0
   -2.5138   -2.2906    1.6822 C   0  0  0  0  0  0  0  0  0  0  0  0
   -1.7273   -2.7535    2.4939 O   0  0  0  0  0  0  0  0  0  0  0  0
   -2.2081   -1.1277    1.0070 N   0  0  0  0  0  0  0  0  0  0  0  0
   -2.9439   -0.7107    0.4408 H   0  0  0  0  0  0  0  0  0  0  0  0
   -0.8839   -0.4892    0.9535 C   0  0  1  0  0  0  0  0  0  0  0  0
   -0.2230   -0.9036    1.7211 H   0  0  0  0  0  0  0  0  0  0  0  0
   -0.2325   -0.6412   -0.4459 C   0  0  0  0  0  0  0  0  0  0  0  0
   -0.8493   -0.1079   -1.1779 H   0  0  0  0  0  0  0  0  0  0  0  0
    0.7287   -0.1181   -0.4010 H   0  0  0  0  0  0  0  0  0  0  0  0
    0.0547   -2.0437   -1.0255 C   0  0  0  0  0  0  0  0  0  0  0  0
   -0.8148   -2.3611   -1.6105 H   0  0  0  0  0  0  0  0  0  0  0  0
    0.8934   -1.9455   -1.7229 H   0  0  0  0  0  0  0  0  0  0  0  0
    0.3610   -3.1558   -0.0146 C   0  0  0  0  0  0  0  0  0  0  0  0
   -0.5714   -3.5509    0.3892 H   0  0  0  0  0  0  0  0  0  0  0  0
    0.9625   -2.7641    0.8112 H   0  0  0  0  0  0  0  0  0  0  0  0
    1.1166   -4.3020   -0.6828 C   0  0  0  0  0  0  0  0  0  0  0  0
    0.5709   -4.6515   -1.5664 H   0  0  0  0  0  0  0  0  0  0  0  0
    2.1049   -3.9575   -1.0067 H   0  0  0  0  0  0  0  0  0  0  0  0
    1.2534   -5.3983    0.2800 N   0  0  0  0  0  0  0  0  0  0  0  0
    1.8536   -6.1396   -0.0805 H   0  0  0  0  0  0  0  0  0  0  0  0
    1.5906   -5.0571    1.1806 H   0  0  0  0  0  0  0  0  0  0  0  0
   -1.0370    1.0283    1.1898 C   0  0  0  0  0  0  0  0  0  0  0  0
   -1.9232    1.6573    0.6211 O   0  0  0  0  0  0  0  0  0  0  0  0
   -0.1784    1.6891    2.0491 N   0  0  0  0  0  0  0  0  0  0  0  0
    0.4885    1.1250    2.5683 H   0  0  0  0  0  0  0  0  0  0  0  0
   -0.3043    3.1051    2.3718 C   0  0  0  0  0  0  0  0  0  0  0  0
   -1.2726    3.3067    2.8418 H   0  0  0  0  0  0  0  0  0  0  0  0
    0.4865    3.4064    3.0655 H   0  0  0  0  0  0  0  0  0  0  0  0
   -0.2182    3.7138    1.4656 H   0  0  0  0  0  0  0  0  0  0  0  0
  1  2  1  0  0  0  0
  2  3  1  0  0  0  0
  2  4  1  0  0  0  0
  2  5  1  0  0  0  0
  5  6  2  0  0  0  0
  5  7  1  0  0  0  0
  7  8  1  0  0  0  0
  7  9  1  0  0  0  0
  9 10  1  0  0  0  0
  9 11  1  0  0  0  0
  9 26  1  0  0  0  0
 11 12  1  0  0  0  0
 11 13  1  0  0  0  0
 11 14  1  0  0  0  0
 14 15  1  0  0  0  0
 14 16  1  0  0  0  0
 14 17  1  0  0  0  0
 17 18  1  0  0  0  0
 17 19  1  0  0  0  0
 17 20  1  0  0  0  0
 20 21  1  0  0  0  0
 20 22  1  0  0  0  0
 20 23  1  0  0  0  0
 23 24  1  0  0  0  0
 23 25  1  0  0  0  0
 26 27  2  0  0  0  0
 26 28  1  0  0  0  0
 28 29  1  0  0  0  0
 28 30  1  0  0  0  0
 30 31  1  0  0  0  0
 30 32  1  0  0  0  0
 30 33  1  0  0  0  0
M  END
$$$$

  -OEChem-03222214063D

 33 32  0     1  0  0  0  0  0999 V2000
   -4.0748   -3.7815    1.9687 H   0  0  0  0  0  0  0  0  0  0  0  0
   -3.9758   -2.8471    1.4092 C   0  0  0  0  0  0  0  0  0  0  0  0
   -4.7427   -2.1475    1.7501 H   0  0  0  0  0  0  0  0  0  0  0  0
   -4.1273   -3.0564    0.3475 H   0  0  0  0  0  0  0  0  0  0  0  0
   -2.5978   -2.2519    1.6272 C   0  0  0  0  0  0  0  0  0  0  0  0
   -1.8413   -2.7513    2.4465 O   0  0  0  0  0  0  0  0  0  0  0  0
   -2.2374   -1.0987    0.9606 N   0  0  0  0  0  0  0  0  0  0  0  0
   -2.9457   -0.6565    0.3785 H   0  0  0  0  0  0  0  0  0  0  0  0
   -0.8994   -0.4860    0.9624 C   0  0  1  0  0  0  0  0  0  0  0  0
   -0.2876   -0.9053    1.7672 H   0  0  0  0  0  0  0  0  0  0  0  0
   -0.1584   -0.6429   -0.3945 C   0  0  0  0  0  0  0  0  0  0  0  0
   -0.7268   -0.0981   -1.1567 H   0  0  0  0  0  0  0  0  0  0  0  0
    0.7993   -0.1224   -0.2866 H   0  0  0  0  0  0  0  0  0  0  0  0
    0.1650   -2.0362   -0.9871 C   0  0  0  0  0  0  0  0  0  0  0  0
   -0.5070   -2.2141   -1.8333 H   0  0  0  0  0  0  0  0  0  0  0  0
    1.1815   -1.9905   -1.3922 H   0  0  0  0  0  0  0  0  0  0  0  0
    0.0597   -3.2470   -0.0556 C   0  0  0  0  0  0  0  0  0  0  0  0
    0.4630   -3.0036    0.9319 H   0  0  0  0  0  0  0  0  0  0  0  0
   -0.9892   -3.5299    0.0483 H   0  0  0  0  0  0  0  0  0  0  0  0
    0.8215   -4.4429   -0.6198 C   0  0  0  0  0  0  0  0  0  0  0  0
    0.5083   -4.6432   -1.6505 H   0  0  0  0  0  0  0  0  0  0  0  0
    1.8964   -4.2313   -0.6247 H   0  0  0  0  0  0  0  0  0  0  0  0
    0.5364   -5.6087    0.2209 N   0  0  0  0  0  0  0  0  0  0  0  0
    1.1258   -6.4022   -0.0289 H   0  0  0  0  0  0  0  0  0  0  0  0
    0.6309   -5.3775    1.2112 H   0  0  0  0  0  0  0  0  0  0  0  0
   -1.0423    1.0348    1.1847 C   0  0  0  0  0  0  0  0  0  0  0  0
   -1.8969    1.6730    0.5791 O   0  0  0  0  0  0  0  0  0  0  0  0
   -0.2138    1.6872    2.0789 N   0  0  0  0  0  0  0  0  0  0  0  0
    0.4240    1.1169    2.6269 H   0  0  0  0  0  0  0  0  0  0  0  0
   -0.3350    3.1057    2.3913 C   0  0  0  0  0  0  0  0  0  0  0  0
   -1.3145    3.3181    2.8328 H   0  0  0  0  0  0  0  0  0  0  0  0
    0.4390    3.4033    3.1053 H   0  0  0  0  0  0  0  0  0  0  0  0
   -0.2181    3.7092    1.4849 H   0  0  0  0  0  0  0  0  0  0  0  0
  1  2  1  0  0  0  0
  2  3  1  0  0  0  0
  2  4  1  0  0  0  0
  2  5  1  0  0  0  0
  5  6  2  0  0  0  0
  5  7  1  0  0  0  0
  7  8  1  0  0  0  0
  7  9  1  0  0  0  0
  9 10  1  0  0  0  0
  9 11  1  0  0  0  0
  9 26  1  0  0  0  0
 11 12  1  0  0  0  0
 11 13  1  0  0  0  0
 11 14  1  0  0  0  0
 14 15  1  0  0  0  0
 14 16  1  0  0  0  0
 14 17  1  0  0  0  0
 17 18  1  0  0  0  0
 17 19  1  0  0  0  0
 17 20  1  0  0  0  0
 20 21  1  0  0  0  0
 20 22  1  0  0  0  0
 20 23  1  0  0  0  0
 23 24  1  0  0  0  0
 23 25  1  0  0  0  0
 26 27  2  0  0  0  0
 26 28  1  0  0  0  0
 28 29  1  0  0  0  0
 28 30  1  0  0  0  0
 30 31  1  0  0  0  0
 30 32  1  0  0  0  0
 30 33  1  0  0  0  0
M  END
$$$$

  -OEChem-03222214063D

 33 32  0     1  0  0  0  0  0999 V2000
   -4.1123   -3.7487    2.0239 H   0  0  0  0  0  0  0  0  0  0  0  0
   -4.0029   -2.8172    1.4615 C   0  0  0  0  0  0  0  0  0  0  0  0
   -4.7618   -2.1079    1.8005 H   0  0  0  0  0  0  0  0  0  0  0  0
   -4.1579   -3.0281    0.4006 H   0  0  0  0  0  0  0  0  0  0  0  0
   -2.6181   -2.2366    1.6767 C   0  0  0  0  0  0  0  0  0  0  0  0
   -1.8707   -2.7368    2.5038 O   0  0  0  0  0  0  0  0  0  0  0  0
   -2.2425   -1.0961    0.9954 N   0  0  0  0  0  0  0  0  0  0  0  0
   -2.9464   -0.6546    0.4073 H   0  0  0  0  0  0  0  0  0  0  0  0
   -0.9009   -0.4889    0.9921 C   0  0  1  0  0  0  0  0  0  0  0  0
   -0.2970   -0.8992    1.8074 H   0  0  0  0  0  0  0  0  0  0  0  0
   -0.1318   -0.6518   -0.3517 C   0  0  0  0  0  0  0  0  0  0  0  0
   -0.7107   -0.1256   -1.1191 H   0  0  0  0  0  0  0  0  0  0  0  0
    0.8133   -0.1077   -0.2484 H   0  0  0  0  0  0  0  0  0  0  0  0
    0.2171   -2.0389   -0.9490 C   0  0  0  0  0  0  0  0  0  0  0  0
   -0.2117   -2.0970   -1.9550 H   0  0  0  0  0  0  0  0  0  0  0  0
    1.3055   -2.0776   -1.0643 H   0  0  0  0  0  0  0  0  0  0  0  0
   -0.2161   -3.2855   -0.1789 C   0  0  0  0  0  0  0  0  0  0  0  0
    0.0804   -3.1975    0.8699 H   0  0  0  0  0  0  0  0  0  0  0  0
   -1.3016   -3.3879   -0.2423 H   0  0  0  0  0  0  0  0  0  0  0  0
    0.4170   -4.5439   -0.7626 C   0  0  0  0  0  0  0  0  0  0  0  0
    0.2055   -4.6147   -1.8353 H   0  0  0  0  0  0  0  0  0  0  0  0
    1.5040   -4.5119   -0.6298 H   0  0  0  0  0  0  0  0  0  0  0  0
   -0.1475   -5.7023   -0.0649 N   0  0  0  0  0  0  0  0  0  0  0  0
    0.3233   -6.5653   -0.3352 H   0  0  0  0  0  0  0  0  0  0  0  0
   -0.1149   -5.5688    0.9472 H   0  0  0  0  0  0  0  0  0  0  0  0
   -1.0499    1.0351    1.1902 C   0  0  0  0  0  0  0  0  0  0  0  0
   -1.9037    1.6594    0.5688 O   0  0  0  0  0  0  0  0  0  0  0  0
   -0.2290    1.7074    2.0770 N   0  0  0  0  0  0  0  0  0  0  0  0
    0.4104    1.1511    2.6374 H   0  0  0  0  0  0  0  0  0  0  0  0
   -0.3515    3.1333    2.3543 C   0  0  0  0  0  0  0  0  0  0  0  0
   -1.3287    3.3554    2.7958 H   0  0  0  0  0  0  0  0  0  0  0  0
    0.4260    3.4504    3.0559 H   0  0  0  0  0  0  0  0  0  0  0  0
   -0.2409    3.7139    1.4324 H   0  0  0  0  0  0  0  0  0  0  0  0
  1  2  1  0  0  0  0
  2  3  1  0  0  0  0
  2  4  1  0  0  0  0
  2  5  1  0  0  0  0
  5  6  2  0  0  0  0
  5  7  1  0  0  0  0
  7  8  1  0  0  0  0
  7  9  1  0  0  0  0
  9 10  1  0  0  0  0
  9 11  1  0  0  0  0
  9 26  1  0  0  0  0
 11 12  1  0  0  0  0
 11 13  1  0  0  0  0
 11 14  1  0  0  0  0
 14 15  1  0  0  0  0
 14 16  1  0  0  0  0
 14 17  1  0  0  0  0
 17 18  1  0  0  0  0
 17 19  1  0  0  0  0
 17 20  1  0  0  0  0
 20 21  1  0  0  0  0
 20 22  1  0  0  0  0
 20 23  1  0  0  0  0
 23 24  1  0  0  0  0
 23 25  1  0  0  0  0
 26 27  2  0  0  0  0
 26 28  1  0  0  0  0
 28 29  1  0  0  0  0
 28 30  1  0  0  0  0
 30 31  1  0  0  0  0
 30 32  1  0  0  0  0
 30 33  1  0  0  0  0
M  END
$$$$

  -OEChem-03222214063D

 33 32  0     1  0  0  0  0  0999 V2000
   -4.1170   -3.7212    2.1281 H   0  0  0  0  0  0  0  0  0  0  0  0
   -3.9972   -2.8175    1.5240 C   0  0  0  0  0  0  0  0  0  0  0  0
   -4.7588   -2.0914    1.8186 H   0  0  0  0  0  0  0  0  0  0  0  0
   -4.1374   -3.0776    0.4718 H   0  0  0  0  0  0  0  0  0  0  0  0
   -2.6144   -2.2296    1.7305 C   0  0  0  0  0  0  0  0  0  0  0  0
   -1.8655   -2.7145    2.5656 O   0  0  0  0  0  0  0  0  0  0  0  0
   -2.2439   -1.0977    1.0322 N   0  0  0  0  0  0  0  0  0  0  0  0
   -2.9473   -0.6745    0.4302 H   0  0  0  0  0  0  0  0  0  0  0  0
   -0.9027   -0.4898    1.0121 C   0  0  1  0  0  0  0  0  0  0  0  0
   -0.2968   -0.8888    1.8318 H   0  0  0  0  0  0  0  0  0  0  0  0
   -0.1266   -0.6655   -0.3279 C   0  0  0  0  0  0  0  0  0  0  0  0
   -0.7285   -0.1679   -1.0968 H   0  0  0  0  0  0  0  0  0  0  0  0
    0.8078   -0.0994   -0.2491 H   0  0  0  0  0  0  0  0  0  0  0  0
    0.2351   -2.0545   -0.9142 C   0  0  0  0  0  0  0  0  0  0  0  0
    0.0718   -2.0194   -1.9968 H   0  0  0  0  0  0  0  0  0  0  0  0
    1.3090   -2.2015   -0.7577 H   0  0  0  0  0  0  0  0  0  0  0  0
   -0.4717   -3.2865   -0.3534 C   0  0  0  0  0  0  0  0  0  0  0  0
   -0.2746   -3.3625    0.7182 H   0  0  0  0  0  0  0  0  0  0  0  0
   -1.5478   -3.1977   -0.5237 H   0  0  0  0  0  0  0  0  0  0  0  0
    0.0185   -4.5637   -1.0269 C   0  0  0  0  0  0  0  0  0  0  0  0
   -0.1155   -4.4974   -2.1122 H   0  0  0  0  0  0  0  0  0  0  0  0
    1.0849   -4.7095   -0.8220 H   0  0  0  0  0  0  0  0  0  0  0  0
   -0.7601   -5.6861   -0.4950 N   0  0  0  0  0  0  0  0  0  0  0  0
   -0.4249   -6.5765   -0.8620 H   0  0  0  0  0  0  0  0  0  0  0  0
   -0.7474   -5.6850    0.5263 H   0  0  0  0  0  0  0  0  0  0  0  0
   -1.0540    1.0366    1.1918 C   0  0  0  0  0  0  0  0  0  0  0  0
   -1.9131    1.6518    0.5687 O   0  0  0  0  0  0  0  0  0  0  0  0
   -0.2286    1.7214    2.0649 N   0  0  0  0  0  0  0  0  0  0  0  0
    0.4153    1.1727    2.6278 H   0  0  0  0  0  0  0  0  0  0  0  0
   -0.3593    3.1483    2.3341 C   0  0  0  0  0  0  0  0  0  0  0  0
   -1.3404    3.3677    2.7684 H   0  0  0  0  0  0  0  0  0  0  0  0
    0.4122    3.4721    3.0394 H   0  0  0  0  0  0  0  0  0  0  0  0
   -0.2456    3.7252    1.4102 H   0  0  0  0  0  0  0  0  0  0  0  0
  1  2  1  0  0  0  0
  2  3  1  0  0  0  0
  2  4  1  0  0  0  0
  2  5  1  0  0  0  0
  5  6  2  0  0  0  0
  5  7  1  0  0  0  0
  7  8  1  0  0  0  0
  7  9  1  0  0  0  0
  9 10  1  0  0  0  0
  9 11  1  0  0  0  0
  9 26  1  0  0  0  0
 11 12  1  0  0  0  0
 11 13  1  0  0  0  0
 11 14  1  0  0  0  0
 14 15  1  0  0  0  0
 14 16  1  0  0  0  0
 14 17  1  0  0  0  0
 17 18  1  0  0  0  0
 17 19  1  0  0  0  0
 17 20  1  0  0  0  0
 20 21  1  0  0  0  0
 20 22  1  0  0  0  0
 20 23  1  0  0  0  0
 23 24  1  0  0  0  0
 23 25  1  0  0  0  0
 26 27  2  0  0  0  0
 26 28  1  0  0  0  0
 28 29  1  0  0  0  0
 28 30  1  0  0  0  0
 30 31  1  0  0  0  0
 30 32  1  0  0  0  0
 30 33  1  0  0  0  0
M  END
$$$$

  -OEChem-03222214063D

 33 32  0     1  0  0  0  0  0999 V2000
   -4.1569   -3.9218    1.7040 H   0  0  0  0  0  0  0  0  0  0  0  0
   -4.0333   -2.9547    1.2090 C   0  0  0  0  0  0  0  0  0  0  0  0
   -4.7371   -2.2424    1.6463 H   0  0  0  0  0  0  0  0  0  0  0  0
   -4.2579   -3.0725    0.1460 H   0  0  0  0  0  0  0  0  0  0  0  0
   -2.6130   -2.4524    1.3846 C   0  0  0  0  0  0  0  0  0  0  0  0
   -1.8177   -3.1034    2.0434 O   0  0  0  0  0  0  0  0  0  0  0  0
   -2.2559   -1.2303    0.8561 N   0  0  0  0  0  0  0  0  0  0  0  0
   -2.9967   -0.6866    0.4169 H   0  0  0  0  0  0  0  0  0  0  0  0
   -0.9080   -0.6409    0.8236 C   0  0  1  0  0  0  0  0  0  0  0  0
   -0.2523   -1.1731    1.5200 H   0  0  0  0  0  0  0  0  0  0  0  0
   -0.2321   -0.6014   -0.5810 C   0  0  0  0  0  0  0  0  0  0  0  0
   -0.8870    0.0172   -1.2053 H   0  0  0  0  0  0  0  0  0  0  0  0
    0.7107   -0.0532   -0.4779 H   0  0  0  0  0  0  0  0  0  0  0  0
    0.0796   -1.8550   -1.4416 C   0  0  0  0  0  0  0  0  0  0  0  0
    0.0639   -1.5279   -2.4867 H   0  0  0  0  0  0  0  0  0  0  0  0
    1.1125   -2.1524   -1.2313 H   0  0  0  0  0  0  0  0  0  0  0  0
   -0.8014   -3.1075   -1.3462 C   0  0  0  0  0  0  0  0  0  0  0  0
   -0.8750   -3.5620   -2.3393 H   0  0  0  0  0  0  0  0  0  0  0  0
   -1.8185   -2.8496   -1.0577 H   0  0  0  0  0  0  0  0  0  0  0  0
   -0.1770   -4.1474   -0.4142 C   0  0  0  0  0  0  0  0  0  0  0  0
    0.6887   -4.6024   -0.9078 H   0  0  0  0  0  0  0  0  0  0  0  0
    0.1774   -3.6755    0.5087 H   0  0  0  0  0  0  0  0  0  0  0  0
   -1.1687   -5.1771   -0.0965 N   0  0  0  0  0  0  0  0  0  0  0  0
   -0.7151   -6.0013    0.2959 H   0  0  0  0  0  0  0  0  0  0  0  0
   -1.8428   -4.8020    0.5748 H   0  0  0  0  0  0  0  0  0  0  0  0
   -1.0157    0.8364    1.2606 C   0  0  0  0  0  0  0  0  0  0  0  0
   -1.9151    1.5470    0.8240 O   0  0  0  0  0  0  0  0  0  0  0  0
   -0.1107    1.3645    2.1627 N   0  0  0  0  0  0  0  0  0  0  0  0
    0.5779    0.7331    2.5619 H   0  0  0  0  0  0  0  0  0  0  0  0
   -0.1879    2.7311    2.6639 C   0  0  0  0  0  0  0  0  0  0  0  0
   -1.1431    2.8993    3.1722 H   0  0  0  0  0  0  0  0  0  0  0  0
    0.6210    2.9188    3.3764 H   0  0  0  0  0  0  0  0  0  0  0  0
   -0.0957    3.4470    1.8403 H   0  0  0  0  0  0  0  0  0  0  0  0
  1  2  1  0  0  0  0
  2  3  1  0  0  0  0
  2  4  1  0  0  0  0
  2  5  1  0  0  0  0
  5  6  2  0  0  0  0
  5  7  1  0  0  0  0
  7  8  1  0  0  0  0
  7  9  1  0  0  0  0
  9 10  1  0  0  0  0
  9 11  1  0  0  0  0
  9 26  1  0  0  0  0
 11 12  1  0  0  0  0
 11 13  1  0  0  0  0
 11 14  1  0  0  0  0
 14 15  1  0  0  0  0
 14 16  1  0  0  0  0
 14 17  1  0  0  0  0
 17 18  1  0  0  0  0
 17 19  1  0  0  0  0
 17 20  1  0  0  0  0
 20 21  1  0  0  0  0
 20 22  1  0  0  0  0
 20 23  1  0  0  0  0
 23 24  1  0  0  0  0
 23 25  1  0  0  0  0
 26 27  2  0  0  0  0
 26 28  1  0  0  0  0
 28 29  1  0  0  0  0
 28 30  1  0  0  0  0
 30 31  1  0  0  0  0
 30 32  1  0  0  0  0
 30 33  1  0  0  0  0
M  END
$$$$

  -OEChem-03222214063D

 33 32  0     1  0  0  0  0  0999 V2000
   -4.0917   -3.7289    2.2157 H   0  0  0  0  0  0  0  0  0  0  0  0
   -3.9897   -2.8257    1.6077 C   0  0  0  0  0  0  0  0  0  0  0  0
   -4.7294   -2.0923    1.9376 H   0  0  0  0  0  0  0  0  0  0  0  0
   -4.1805   -3.0822    0.5626 H   0  0  0  0  0  0  0  0  0  0  0  0
   -2.5925   -2.2534    1.7514 C   0  0  0  0  0  0  0  0  0  0  0  0
   -1.7963   -2.7724    2.5196 O   0  0  0  0  0  0  0  0  0  0  0  0
   -2.2424   -1.1238    1.0409 N   0  0  0  0  0  0  0  0  0  0  0  0
   -2.9691   -0.6806    0.4823 H   0  0  0  0  0  0  0  0  0  0  0  0
   -0.9054   -0.5116    0.9992 C   0  0  1  0  0  0  0  0  0  0  0  0
   -0.2940   -0.8991    1.8200 H   0  0  0  0  0  0  0  0  0  0  0  0
   -0.1340   -0.7172   -0.3355 C   0  0  0  0  0  0  0  0  0  0  0  0
   -0.7323   -0.2419   -1.1209 H   0  0  0  0  0  0  0  0  0  0  0  0
    0.8058   -0.1589   -0.2708 H   0  0  0  0  0  0  0  0  0  0  0  0
    0.2152   -2.1304   -0.8568 C   0  0  0  0  0  0  0  0  0  0  0  0
    0.5510   -2.0177   -1.8930 H   0  0  0  0  0  0  0  0  0  0  0  0
    1.0659   -2.5069   -0.2794 H   0  0  0  0  0  0  0  0  0  0  0  0
   -0.8836   -3.1959   -0.8090 C   0  0  0  0  0  0  0  0  0  0  0  0
   -0.9805   -3.5701    0.2104 H   0  0  0  0  0  0  0  0  0  0  0  0
   -1.8373   -2.7644   -1.1281 H   0  0  0  0  0  0  0  0  0  0  0  0
   -0.5471   -4.3760   -1.7140 C   0  0  0  0  0  0  0  0  0  0  0  0
   -0.4698   -4.0442   -2.7555 H   0  0  0  0  0  0  0  0  0  0  0  0
    0.4152   -4.8108   -1.4215 H   0  0  0  0  0  0  0  0  0  0  0  0
   -1.6134   -5.3735   -1.5825 N   0  0  0  0  0  0  0  0  0  0  0  0
   -1.4322   -6.1862   -2.1713 H   0  0  0  0  0  0  0  0  0  0  0  0
   -1.7315   -5.6513   -0.6076 H   0  0  0  0  0  0  0  0  0  0  0  0
   -1.0532    1.0151    1.1714 C   0  0  0  0  0  0  0  0  0  0  0  0
   -1.9246    1.6251    0.5609 O   0  0  0  0  0  0  0  0  0  0  0  0
   -0.2153    1.7047    2.0286 N   0  0  0  0  0  0  0  0  0  0  0  0
    0.4398    1.1596    2.5820 H   0  0  0  0  0  0  0  0  0  0  0  0
   -0.3368    3.1342    2.2878 C   0  0  0  0  0  0  0  0  0  0  0  0
   -1.3048    3.3587    2.7480 H   0  0  0  0  0  0  0  0  0  0  0  0
    0.4555    3.4636    2.9670 H   0  0  0  0  0  0  0  0  0  0  0  0
   -0.2490    3.7026    1.3559 H   0  0  0  0  0  0  0  0  0  0  0  0
  1  2  1  0  0  0  0
  2  3  1  0  0  0  0
  2  4  1  0  0  0  0
  2  5  1  0  0  0  0
  5  6  2  0  0  0  0
  5  7  1  0  0  0  0
  7  8  1  0  0  0  0
  7  9  1  0  0  0  0
  9 10  1  0  0  0  0
  9 11  1  0  0  0  0
  9 26  1  0  0  0  0
 11 12  1  0  0  0  0
 11 13  1  0  0  0  0
 11 14  1  0  0  0  0
 14 15  1  0  0  0  0
 14 16  1  0  0  0  0
 14 17  1  0  0  0  0
 17 18  1  0  0  0  0
 17 19  1  0  0  0  0
 17 20  1  0  0  0  0
 20 21  1  0  0  0  0
 20 22  1  0  0  0  0
 20 23  1  0  0  0  0
 23 24  1  0  0  0  0
 23 25  1  0  0  0  0
 26 27  2  0  0  0  0
 26 28  1  0  0  0  0
 28 29  1  0  0  0  0
 28 30  1  0  0  0  0
 30 31  1  0  0  0  0
 30 32  1  0  0  0  0
 30 33  1  0  0  0  0
M  END
$$$$

  -OEChem-03222214063D

 33 32  0     1  0  0  0  0  0999 V2000
   -4.0843   -3.7439    2.1790 H   0  0  0  0  0  0  0  0  0  0  0  0
   -3.9918   -2.8237    1.5959 C   0  0  0  0  0  0  0  0  0  0  0  0
   -4.7014   -2.0881    1.9821 H   0  0  0  0  0  0  0  0  0  0  0  0
   -4.2342   -3.0421    0.5528 H   0  0  0  0  0  0  0  0  0  0  0  0
   -2.5784   -2.2821    1.6942 C   0  0  0  0  0  0  0  0  0  0  0  0
   -1.7554   -2.8474    2.3987 O   0  0  0  0  0  0  0  0  0  0  0  0
   -2.2344   -1.1439    0.9947 N   0  0  0  0  0  0  0  0  0  0  0  0
   -2.9725   -0.6701    0.4771 H   0  0  0  0  0  0  0  0  0  0  0  0
   -0.8986   -0.5307    0.9639 C   0  0  1  0  0  0  0  0  0  0  0  0
   -0.2923   -0.9229    1.7867 H   0  0  0  0  0  0  0  0  0  0  0  0
   -0.1253   -0.7432   -0.3638 C   0  0  0  0  0  0  0  0  0  0  0  0
   -0.6986   -0.2613   -1.1636 H   0  0  0  0  0  0  0  0  0  0  0  0
    0.8262   -0.2070   -0.2845 H   0  0  0  0  0  0  0  0  0  0  0  0
    0.1997   -2.1758   -0.8378 C   0  0  0  0  0  0  0  0  0  0  0  0
    0.7679   -2.0836   -1.7694 H   0  0  0  0  0  0  0  0  0  0  0  0
    0.8549   -2.6539   -0.1020 H   0  0  0  0  0  0  0  0  0  0  0  0
   -1.0047   -3.0943   -1.0868 C   0  0  0  0  0  0  0  0  0  0  0  0
   -1.3239   -3.5446   -0.1474 H   0  0  0  0  0  0  0  0  0  0  0  0
   -1.8364   -2.5164   -1.5026 H   0  0  0  0  0  0  0  0  0  0  0  0
   -0.6503   -4.2210   -2.0518 C   0  0  0  0  0  0  0  0  0  0  0  0
   -0.3688   -3.8080   -3.0269 H   0  0  0  0  0  0  0  0  0  0  0  0
    0.2001   -4.7931   -1.6644 H   0  0  0  0  0  0  0  0  0  0  0  0
   -1.8212   -5.0918   -2.1948 N   0  0  0  0  0  0  0  0  0  0  0  0
   -1.6330   -5.8582   -2.8408 H   0  0  0  0  0  0  0  0  0  0  0  0
   -2.1205   -5.4486   -1.2872 H   0  0  0  0  0  0  0  0  0  0  0  0
   -1.0432    0.9942    1.1507 C   0  0  0  0  0  0  0  0  0  0  0  0
   -1.9214    1.6086    0.5545 O   0  0  0  0  0  0  0  0  0  0  0  0
   -0.2068    1.6744    2.0166 N   0  0  0  0  0  0  0  0  0  0  0  0
    0.4616    1.1263    2.5506 H   0  0  0  0  0  0  0  0  0  0  0  0
   -0.3354    3.0991    2.2974 C   0  0  0  0  0  0  0  0  0  0  0  0
   -1.3054    3.3119    2.7588 H   0  0  0  0  0  0  0  0  0  0  0  0
    0.4533    3.4229    2.9833 H   0  0  0  0  0  0  0  0  0  0  0  0
   -0.2491    3.6812    1.3738 H   0  0  0  0  0  0  0  0  0  0  0  0
  1  2  1  0  0  0  0
  2  3  1  0  0  0  0
  2  4  1  0  0  0  0
  2  5  1  0  0  0  0
  5  6  2  0  0  0  0
  5  7  1  0  0  0  0
  7  8  1  0  0  0  0
  7  9  1  0  0  0  0
  9 10  1  0  0  0  0
  9 11  1  0  0  0  0
  9 26  1  0  0  0  0
 11 12  1  0  0  0  0
 11 13  1  0  0  0  0
 11 14  1  0  0  0  0
 14 15  1  0  0  0  0
 14 16  1  0  0  0  0
 14 17  1  0  0  0  0
 17 18  1  0  0  0  0
 17 19  1  0  0  0  0
 17 20  1  0  0  0  0
 20 21  1  0  0  0  0
 20 22  1  0  0  0  0
 20 23  1  0  0  0  0
 23 24  1  0  0  0  0
 23 25  1  0  0  0  0
 26 27  2  0  0  0  0
 26 28  1  0  0  0  0
 28 29  1  0  0  0  0
 28 30  1  0  0  0  0
 30 31  1  0  0  0  0
 30 32  1  0  0  0  0
 30 33  1  0  0  0  0
M  END
$$$$

  -OEChem-03222214063D

 33 32  0     1  0  0  0  0  0999 V2000
   -4.0086   -3.8114    2.1135 H   0  0  0  0  0  0  0  0  0  0  0  0
   -3.9537   -2.8499    1.5954 C   0  0  0  0  0  0  0  0  0  0  0  0
   -4.5900   -2.1310    2.1174 H   0  0  0  0  0  0  0  0  0  0  0  0
   -4.3218   -2.9781    0.5744 H   0  0  0  0  0  0  0  0  0  0  0  0
   -2.5220   -2.3493    1.5704 C   0  0  0  0  0  0  0  0  0  0  0  0
   -1.6413   -2.9893    2.1245 O   0  0  0  0  0  0  0  0  0  0  0  0
   -2.2268   -1.1667    0.9239 N   0  0  0  0  0  0  0  0  0  0  0  0
   -3.0049   -0.6329    0.5400 H   0  0  0  0  0  0  0  0  0  0  0  0
   -0.9017   -0.5343    0.8801 C   0  0  1  0  0  0  0  0  0  0  0  0
   -0.2665   -0.9599    1.6637 H   0  0  0  0  0  0  0  0  0  0  0  0
   -0.1689   -0.6835   -0.4754 C   0  0  0  0  0  0  0  0  0  0  0  0
   -0.7524   -0.1697   -1.2471 H   0  0  0  0  0  0  0  0  0  0  0  0
    0.7876   -0.1566   -0.3931 H   0  0  0  0  0  0  0  0  0  0  0  0
    0.1356   -2.1099   -0.9744 C   0  0  0  0  0  0  0  0  0  0  0  0
    0.8826   -2.0259   -1.7708 H   0  0  0  0  0  0  0  0  0  0  0  0
    0.5857   -2.6872   -0.1600 H   0  0  0  0  0  0  0  0  0  0  0  0
   -1.0740   -2.8778   -1.5311 C   0  0  0  0  0  0  0  0  0  0  0  0
   -1.7523   -3.1671   -0.7313 H   0  0  0  0  0  0  0  0  0  0  0  0
   -1.6247   -2.2415   -2.2314 H   0  0  0  0  0  0  0  0  0  0  0  0
   -0.6185   -4.1429   -2.2519 C   0  0  0  0  0  0  0  0  0  0  0  0
    0.0291   -3.8820   -3.0964 H   0  0  0  0  0  0  0  0  0  0  0  0
   -0.0461   -4.7782   -1.5668 H   0  0  0  0  0  0  0  0  0  0  0  0
   -1.8031   -4.8607   -2.7325 N   0  0  0  0  0  0  0  0  0  0  0  0
   -1.5406   -5.7054   -3.2401 H   0  0  0  0  0  0  0  0  0  0  0  0
   -2.4307   -5.0829   -1.9602 H   0  0  0  0  0  0  0  0  0  0  0  0
   -1.0524    0.9750    1.1589 C   0  0  0  0  0  0  0  0  0  0  0  0
   -1.9701    1.6064    0.6463 O   0  0  0  0  0  0  0  0  0  0  0  0
   -0.1909    1.6155    2.0303 N   0  0  0  0  0  0  0  0  0  0  0  0
    0.5125    1.0501    2.4969 H   0  0  0  0  0  0  0  0  0  0  0  0
   -0.3189    3.0221    2.3912 C   0  0  0  0  0  0  0  0  0  0  0  0
   -1.2602    3.1965    2.9229 H   0  0  0  0  0  0  0  0  0  0  0  0
    0.5079    3.3225    3.0419 H   0  0  0  0  0  0  0  0  0  0  0  0
   -0.2979    3.6518    1.4953 H   0  0  0  0  0  0  0  0  0  0  0  0
  1  2  1  0  0  0  0
  2  3  1  0  0  0  0
  2  4  1  0  0  0  0
  2  5  1  0  0  0  0
  5  6  2  0  0  0  0
  5  7  1  0  0  0  0
  7  8  1  0  0  0  0
  7  9  1  0  0  0  0
  9 10  1  0  0  0  0
  9 11  1  0  0  0  0
  9 26  1  0  0  0  0
 11 12  1  0  0  0  0
 11 13  1  0  0  0  0
 11 14  1  0  0  0  0
 14 15  1  0  0  0  0
 14 16  1  0  0  0  0
 14 17  1  0  0  0  0
 17 18  1  0  0  0  0
 17 19  1  0  0  0  0
 17 20  1  0  0  0  0
 20 21  1  0  0  0  0
 20 22  1  0  0  0  0
 20 23  1  0  0  0  0
 23 24  1  0  0  0  0
 23 25  1  0  0  0  0
 26 27  2  0  0  0  0
 26 28  1  0  0  0  0
 28 29  1  0  0  0  0
 28 30  1  0  0  0  0
 30 31  1  0  0  0  0
 30 32  1  0  0  0  0
 30 33  1  0  0  0  0
M  END
$$$$

  -OEChem-03222214063D

 33 32  0     1  0  0  0  0  0999 V2000
   -3.7846   -3.9914    1.8418 H   0  0  0  0  0  0  0  0  0  0  0  0
   -3.7808   -3.0064    1.3667 C   0  0  0  0  0  0  0  0  0  0  0  0
   -4.4452   -2.3426    1.9254 H   0  0  0  0  0  0  0  0  0  0  0  0
   -4.1524   -3.1065    0.3441 H   0  0  0  0  0  0  0  0  0  0  0  0
   -2.3749   -2.4372    1.3526 C   0  0  0  0  0  0  0  0  0  0  0  0
   -1.4531   -3.0794    1.8319 O   0  0  0  0  0  0  0  0  0  0  0  0
   -2.1493   -1.1966    0.7929 N   0  0  0  0  0  0  0  0  0  0  0  0
   -2.9603   -0.6706    0.4712 H   0  0  0  0  0  0  0  0  0  0  0  0
   -0.8569   -0.4988    0.7763 C   0  0  1  0  0  0  0  0  0  0  0  0
   -0.1903   -0.9477    1.5196 H   0  0  0  0  0  0  0  0  0  0  0  0
   -0.1656   -0.5702   -0.6031 C   0  0  0  0  0  0  0  0  0  0  0  0
   -0.7793   -0.0536   -1.3493 H   0  0  0  0  0  0  0  0  0  0  0  0
    0.7816   -0.0256   -0.5321 H   0  0  0  0  0  0  0  0  0  0  0  0
    0.1432   -1.9970   -1.0937 C   0  0  0  0  0  0  0  0  0  0  0  0
    1.0379   -1.9615   -1.7239 H   0  0  0  0  0  0  0  0  0  0  0  0
    0.3754   -2.6350   -0.2345 H   0  0  0  0  0  0  0  0  0  0  0  0
   -0.9969   -2.6160   -1.9188 C   0  0  0  0  0  0  0  0  0  0  0  0
   -1.9415   -2.5766   -1.3746 H   0  0  0  0  0  0  0  0  0  0  0  0
   -1.1242   -2.0454   -2.8445 H   0  0  0  0  0  0  0  0  0  0  0  0
   -0.6820   -4.0698   -2.2563 C   0  0  0  0  0  0  0  0  0  0  0  0
    0.2666   -4.1316   -2.8012 H   0  0  0  0  0  0  0  0  0  0  0  0
   -0.5838   -4.6544   -1.3344 H   0  0  0  0  0  0  0  0  0  0  0  0
   -1.7687   -4.6068   -3.0819 N   0  0  0  0  0  0  0  0  0  0  0  0
   -1.5887   -5.5766   -3.3414 H   0  0  0  0  0  0  0  0  0  0  0  0
   -2.6660   -4.5193   -2.6063 H   0  0  0  0  0  0  0  0  0  0  0  0
   -1.0518    0.9794    1.1655 C   0  0  0  0  0  0  0  0  0  0  0  0
   -2.0020    1.6108    0.7169 O   0  0  0  0  0  0  0  0  0  0  0  0
   -0.1946    1.5863    2.0647 N   0  0  0  0  0  0  0  0  0  0  0  0
    0.5483    1.0193    2.4634 H   0  0  0  0  0  0  0  0  0  0  0  0
   -0.3579    2.9603    2.5230 C   0  0  0  0  0  0  0  0  0  0  0  0
   -1.3191    3.0826    3.0332 H   0  0  0  0  0  0  0  0  0  0  0  0
    0.4412    3.2227    3.2229 H   0  0  0  0  0  0  0  0  0  0  0  0
   -0.3174    3.6537    1.6764 H   0  0  0  0  0  0  0  0  0  0  0  0
  1  2  1  0  0  0  0
  2  3  1  0  0  0  0
  2  4  1  0  0  0  0
  2  5  1  0  0  0  0
  5  6  2  0  0  0  0
  5  7  1  0  0  0  0
  7  8  1  0  0  0  0
  7  9  1  0  0  0  0
  9 10  1  0  0  0  0
  9 11  1  0  0  0  0
  9 26  1  0  0  0  0
 11 12  1  0  0  0  0
 11 13  1  0  0  0  0
 11 14  1  0  0  0  0
 14 15  1  0  0  0  0
 14 16  1  0  0  0  0
 14 17  1  0  0  0  0
 17 18  1  0  0  0  0
 17 19  1  0  0  0  0
 17 20  1  0  0  0  0
 20 21  1  0  0  0  0
 20 22  1  0  0  0  0
 20 23  1  0  0  0  0
 23 24  1  0  0  0  0
 23 25  1  0  0  0  0
 26 27  2  0  0  0  0
 26 28  1  0  0  0  0
 28 29  1  0  0  0  0
 28 30  1  0  0  0  0
 30 31  1  0  0  0  0
 30 32  1  0  0  0  0
 30 33  1  0  0  0  0
M  END
$$$$

  -OEChem-03222214063D

 33 32  0     1  0  0  0  0  0999 V2000
   -3.7312   -4.0476    1.7014 H   0  0  0  0  0  0  0  0  0  0  0  0
   -3.7222   -3.0600    1.2321 C   0  0  0  0  0  0  0  0  0  0  0  0
   -4.4399   -2.4179    1.7483 H   0  0  0  0  0  0  0  0  0  0  0  0
   -4.0222   -3.1640    0.1865 H   0  0  0  0  0  0  0  0  0  0  0  0
   -2.3341   -2.4541    1.3144 C   0  0  0  0  0  0  0  0  0  0  0  0
   -1.4349   -3.0661    1.8697 O   0  0  0  0  0  0  0  0  0  0  0  0
   -2.1021   -1.2108    0.7642 N   0  0  0  0  0  0  0  0  0  0  0  0
   -2.9030   -0.7103    0.3828 H   0  0  0  0  0  0  0  0  0  0  0  0
   -0.8182   -0.4939    0.7798 C   0  0  1  0  0  0  0  0  0  0  0  0
   -0.1500   -0.9396    1.5237 H   0  0  0  0  0  0  0  0  0  0  0  0
   -0.1448   -0.5689   -0.6053 C   0  0  0  0  0  0  0  0  0  0  0  0
   -0.7674   -0.0571   -1.3476 H   0  0  0  0  0  0  0  0  0  0  0  0
    0.8034   -0.0240   -0.5527 H   0  0  0  0  0  0  0  0  0  0  0  0
    0.1522   -2.0089   -1.0645 C   0  0  0  0  0  0  0  0  0  0  0  0
    1.1621   -2.0400   -1.4866 H   0  0  0  0  0  0  0  0  0  0  0  0
    0.1418   -2.6953   -0.2127 H   0  0  0  0  0  0  0  0  0  0  0  0
   -0.8341   -2.4746   -2.1436 C   0  0  0  0  0  0  0  0  0  0  0  0
   -1.8595   -2.3810   -1.7739 H   0  0  0  0  0  0  0  0  0  0  0  0
   -0.7366   -1.8406   -3.0310 H   0  0  0  0  0  0  0  0  0  0  0  0
   -0.5679   -3.9272   -2.5251 C   0  0  0  0  0  0  0  0  0  0  0  0
    0.4521   -4.0332   -2.9109 H   0  0  0  0  0  0  0  0  0  0  0  0
   -0.6671   -4.5704   -1.6434 H   0  0  0  0  0  0  0  0  0  0  0  0
   -1.5350   -4.3259   -3.5525 N   0  0  0  0  0  0  0  0  0  0  0  0
   -1.3879   -5.2930   -3.8414 H   0  0  0  0  0  0  0  0  0  0  0  0
   -2.4916   -4.1841   -3.2297 H   0  0  0  0  0  0  0  0  0  0  0  0
   -1.0326    0.9833    1.1640 C   0  0  0  0  0  0  0  0  0  0  0  0
   -1.9697    1.6106    0.6833 O   0  0  0  0  0  0  0  0  0  0  0  0
   -0.2019    1.5987    2.0824 N   0  0  0  0  0  0  0  0  0  0  0  0
    0.5273    1.0352    2.5102 H   0  0  0  0  0  0  0  0  0  0  0  0
   -0.3788    2.9773    2.5222 C   0  0  0  0  0  0  0  0  0  0  0  0
   -1.3585    3.1064    2.9941 H   0  0  0  0  0  0  0  0  0  0  0  0
    0.3935    3.2449    3.2498 H   0  0  0  0  0  0  0  0  0  0  0  0
   -0.3044    3.6629    1.6714 H   0  0  0  0  0  0  0  0  0  0  0  0
  1  2  1  0  0  0  0
  2  3  1  0  0  0  0
  2  4  1  0  0  0  0
  2  5  1  0  0  0  0
  5  6  2  0  0  0  0
  5  7  1  0  0  0  0
  7  8  1  0  0  0  0
  7  9  1  0  0  0  0
  9 10  1  0  0  0  0
  9 11  1  0  0  0  0
  9 26  1  0  0  0  0
 11 12  1  0  0  0  0
 11 13  1  0  0  0  0
 11 14  1  0  0  0  0
 14 15  1  0  0  0  0
 14 16  1  0  0  0  0
 14 17  1  0  0  0  0
 17 18  1  0  0  0  0
 17 19  1  0  0  0  0
 17 20  1  0  0  0  0
 20 21  1  0  0  0  0
 20 22  1  0  0  0  0
 20 23  1  0  0  0  0
 23 24  1  0  0  0  0
 23 25  1  0  0  0  0
 26 27  2  0  0  0  0
 26 28  1  0  0  0  0
 28 29  1  0  0  0  0
 28 30  1  0  0  0  0
 30 31  1  0  0  0  0
 30 32  1  0  0  0  0
 30 33  1  0  0  0  0
M  END
$$$$

  -OEChem-03222214063D

 33 32  0     1  0  0  0  0  0999 V2000
   -3.7742   -4.0203    1.7607 H   0  0  0  0  0  0  0  0  0  0  0  0
   -3.7531   -3.0425    1.2711 C   0  0  0  0  0  0  0  0  0  0  0  0
   -4.4667   -2.3828    1.7707 H   0  0  0  0  0  0  0  0  0  0  0  0
   -4.0497   -3.1651    0.2266 H   0  0  0  0  0  0  0  0  0  0  0  0
   -2.3592   -2.4488    1.3467 C   0  0  0  0  0  0  0  0  0  0  0  0
   -1.4692   -3.0570    1.9208 O   0  0  0  0  0  0  0  0  0  0  0  0
   -2.1135   -1.2147    0.7814 N   0  0  0  0  0  0  0  0  0  0  0  0
   -2.9097   -0.7108    0.3948 H   0  0  0  0  0  0  0  0  0  0  0  0
   -0.8234   -0.5065    0.7902 C   0  0  1  0  0  0  0  0  0  0  0  0
   -0.1586   -0.9493    1.5387 H   0  0  0  0  0  0  0  0  0  0  0  0
   -0.1481   -0.5921   -0.5938 C   0  0  0  0  0  0  0  0  0  0  0  0
   -0.7837   -0.0859   -1.3289 H   0  0  0  0  0  0  0  0  0  0  0  0
    0.7970   -0.0404   -0.5573 H   0  0  0  0  0  0  0  0  0  0  0  0
    0.1476   -2.0319   -1.0590 C   0  0  0  0  0  0  0  0  0  0  0  0
    1.2265   -2.1363   -1.2150 H   0  0  0  0  0  0  0  0  0  0  0  0
   -0.1322   -2.7585   -0.2929 H   0  0  0  0  0  0  0  0  0  0  0  0
   -0.5763   -2.3568   -2.3708 C   0  0  0  0  0  0  0  0  0  0  0  0
   -1.6540   -2.2173   -2.2381 H   0  0  0  0  0  0  0  0  0  0  0  0
   -0.2393   -1.6737   -3.1574 H   0  0  0  0  0  0  0  0  0  0  0  0
   -0.3012   -3.7957   -2.7961 C   0  0  0  0  0  0  0  0  0  0  0  0
    0.7755   -3.9475   -2.9298 H   0  0  0  0  0  0  0  0  0  0  0  0
   -0.6484   -4.4882   -2.0212 H   0  0  0  0  0  0  0  0  0  0  0  0
   -1.0031   -4.0546   -4.0570 N   0  0  0  0  0  0  0  0  0  0  0  0
   -0.8385   -5.0073   -4.3822 H   0  0  0  0  0  0  0  0  0  0  0  0
   -2.0015   -3.8686   -3.9655 H   0  0  0  0  0  0  0  0  0  0  0  0
   -1.0300    0.9769    1.1553 C   0  0  0  0  0  0  0  0  0  0  0  0
   -1.9674    1.6014    0.6711 O   0  0  0  0  0  0  0  0  0  0  0  0
   -0.1972    1.5982    2.0676 N   0  0  0  0  0  0  0  0  0  0  0  0
    0.5326    1.0370    2.4975 H   0  0  0  0  0  0  0  0  0  0  0  0
   -0.3712    2.9799    2.4987 C   0  0  0  0  0  0  0  0  0  0  0  0
   -1.3420    3.1093    2.9885 H   0  0  0  0  0  0  0  0  0  0  0  0
    0.4140    3.2565    3.2087 H   0  0  0  0  0  0  0  0  0  0  0  0
   -0.3155    3.6587    1.6412 H   0  0  0  0  0  0  0  0  0  0  0  0
  1  2  1  0  0  0  0
  2  3  1  0  0  0  0
  2  4  1  0  0  0  0
  2  5  1  0  0  0  0
  5  6  2  0  0  0  0
  5  7  1  0  0  0  0
  7  8  1  0  0  0  0
  7  9  1  0  0  0  0
  9 10  1  0  0  0  0
  9 11  1  0  0  0  0
  9 26  1  0  0  0  0
 11 12  1  0  0  0  0
 11 13  1  0  0  0  0
 11 14  1  0  0  0  0
 14 15  1  0  0  0  0
 14 16  1  0  0  0  0
 14 17  1  0  0  0  0
 17 18  1  0  0  0  0
 17 19  1  0  0  0  0
 17 20  1  0  0  0  0
 20 21  1  0  0  0  0
 20 22  1  0  0  0  0
 20 23  1  0  0  0  0
 23 24  1  0  0  0  0
 23 25  1  0  0  0  0
 26 27  2  0  0  0  0
 26 28  1  0  0  0  0
 28 29  1  0  0  0  0
 28 30  1  0  0  0  0
 30 31  1  0  0  0  0
 30 32  1  0  0  0  0
 30 33  1  0  0  0  0
M  END
$$$$

  -OEChem-03222214063D

 33 32  0     1  0  0  0  0  0999 V2000
   -3.8183   -3.9917    1.8219 H   0  0  0  0  0  0  0  0  0  0  0  0
   -3.7939   -3.0179    1.3250 C   0  0  0  0  0  0  0  0  0  0  0  0
   -4.4875   -2.3450    1.8350 H   0  0  0  0  0  0  0  0  0  0  0  0
   -4.1145   -3.1436    0.2880 H   0  0  0  0  0  0  0  0  0  0  0  0
   -2.3902   -2.4437    1.3669 C   0  0  0  0  0  0  0  0  0  0  0  0
   -1.4956   -3.0632    1.9214 O   0  0  0  0  0  0  0  0  0  0  0  0
   -2.1377   -1.2154    0.7915 N   0  0  0  0  0  0  0  0  0  0  0  0
   -2.9342   -0.6992    0.4215 H   0  0  0  0  0  0  0  0  0  0  0  0
   -0.8403   -0.5200    0.7888 C   0  0  1  0  0  0  0  0  0  0  0  0
   -0.1791   -0.9629    1.5405 H   0  0  0  0  0  0  0  0  0  0  0  0
   -0.1558   -0.6127   -0.5913 C   0  0  0  0  0  0  0  0  0  0  0  0
   -0.8062   -0.1168   -1.3205 H   0  0  0  0  0  0  0  0  0  0  0  0
    0.7847   -0.0525   -0.5697 H   0  0  0  0  0  0  0  0  0  0  0  0
    0.1396   -2.0508   -1.0634 C   0  0  0  0  0  0  0  0  0  0  0  0
    1.2070   -2.2576   -0.9326 H   0  0  0  0  0  0  0  0  0  0  0  0
   -0.4031   -2.7814   -0.4607 H   0  0  0  0  0  0  0  0  0  0  0  0
   -0.2532   -2.2453   -2.5324 C   0  0  0  0  0  0  0  0  0  0  0  0
   -1.3212   -2.0395   -2.6572 H   0  0  0  0  0  0  0  0  0  0  0  0
    0.3042   -1.5406   -3.1584 H   0  0  0  0  0  0  0  0  0  0  0  0
    0.0431   -3.6711   -2.9869 C   0  0  0  0  0  0  0  0  0  0  0  0
    1.1110   -3.8871   -2.8716 H   0  0  0  0  0  0  0  0  0  0  0  0
   -0.5163   -4.3849   -2.3720 H   0  0  0  0  0  0  0  0  0  0  0  0
   -0.3453   -3.8037   -4.3944 N   0  0  0  0  0  0  0  0  0  0  0  0
   -0.1610   -4.7449   -4.7412 H   0  0  0  0  0  0  0  0  0  0  0  0
   -1.3240   -3.5511   -4.5301 H   0  0  0  0  0  0  0  0  0  0  0  0
   -1.0345    0.9671    1.1461 C   0  0  0  0  0  0  0  0  0  0  0  0
   -1.9744    1.5934    0.6690 O   0  0  0  0  0  0  0  0  0  0  0  0
   -0.1923    1.5872    2.0508 N   0  0  0  0  0  0  0  0  0  0  0  0
    0.5435    1.0263    2.4707 H   0  0  0  0  0  0  0  0  0  0  0  0
   -0.3556    2.9714    2.4784 C   0  0  0  0  0  0  0  0  0  0  0  0
   -1.3233    3.1086    2.9722 H   0  0  0  0  0  0  0  0  0  0  0  0
    0.4347    3.2450    3.1841 H   0  0  0  0  0  0  0  0  0  0  0  0
   -0.2999    3.6473    1.6185 H   0  0  0  0  0  0  0  0  0  0  0  0
  1  2  1  0  0  0  0
  2  3  1  0  0  0  0
  2  4  1  0  0  0  0
  2  5  1  0  0  0  0
  5  6  2  0  0  0  0
  5  7  1  0  0  0  0
  7  8  1  0  0  0  0
  7  9  1  0  0  0  0
  9 10  1  0  0  0  0
  9 11  1  0  0  0  0
  9 26  1  0  0  0  0
 11 12  1  0  0  0  0
 11 13  1  0  0  0  0
 11 14  1  0  0  0  0
 14 15  1  0  0  0  0
 14 16  1  0  0  0  0
 14 17  1  0  0  0  0
 17 18  1  0  0  0  0
 17 19  1  0  0  0  0
 17 20  1  0  0  0  0
 20 21  1  0  0  0  0
 20 22  1  0  0  0  0
 20 23  1  0  0  0  0
 23 24  1  0  0  0  0
 23 25  1  0  0  0  0
 26 27  2  0  0  0  0
 26 28  1  0  0  0  0
 28 29  1  0  0  0  0
 28 30  1  0  0  0  0
 30 31  1  0  0  0  0
 30 32  1  0  0  0  0
 30 33  1  0  0  0  0
M  END
$$$$

  -OEChem-03222214063D

 33 32  0     1  0  0  0  0  0999 V2000
   -3.8375   -3.9732    1.8415 H   0  0  0  0  0  0  0  0  0  0  0  0
   -3.8141   -2.9987    1.3456 C   0  0  0  0  0  0  0  0  0  0  0  0
   -4.4852   -2.3179    1.8749 H   0  0  0  0  0  0  0  0  0  0  0  0
   -4.1638   -3.1181    0.3173 H   0  0  0  0  0  0  0  0  0  0  0  0
   -2.4025   -2.4428    1.3506 C   0  0  0  0  0  0  0  0  0  0  0  0
   -1.4983   -3.0810    1.8667 O   0  0  0  0  0  0  0  0  0  0  0  0
   -2.1508   -1.2128    0.7784 N   0  0  0  0  0  0  0  0  0  0  0  0
   -2.9509   -0.6812    0.4390 H   0  0  0  0  0  0  0  0  0  0  0  0
   -0.8500   -0.5245    0.7747 C   0  0  1  0  0  0  0  0  0  0  0  0
   -0.1916   -0.9719    1.5264 H   0  0  0  0  0  0  0  0  0  0  0  0
   -0.1600   -0.6178   -0.6019 C   0  0  0  0  0  0  0  0  0  0  0  0
   -0.8143   -0.1288   -1.3321 H   0  0  0  0  0  0  0  0  0  0  0  0
    0.7803   -0.0572   -0.5835 H   0  0  0  0  0  0  0  0  0  0  0  0
    0.1297   -2.0561   -1.0709 C   0  0  0  0  0  0  0  0  0  0  0  0
    1.1049   -2.3735   -0.6869 H   0  0  0  0  0  0  0  0  0  0  0  0
   -0.6172   -2.7502   -0.6800 H   0  0  0  0  0  0  0  0  0  0  0  0
    0.0994   -2.1488   -2.6006 C   0  0  0  0  0  0  0  0  0  0  0  0
   -0.8880   -1.8511   -2.9684 H   0  0  0  0  0  0  0  0  0  0  0  0
    0.8407   -1.4636   -3.0251 H   0  0  0  0  0  0  0  0  0  0  0  0
    0.4028   -3.5713   -3.0615 C   0  0  0  0  0  0  0  0  0  0  0  0
    1.3927   -3.8781   -2.7055 H   0  0  0  0  0  0  0  0  0  0  0  0
   -0.3373   -4.2654   -2.6477 H   0  0  0  0  0  0  0  0  0  0  0  0
    0.3643   -3.6061   -4.5267 N   0  0  0  0  0  0  0  0  0  0  0  0
    0.5655   -4.5420   -4.8789 H   0  0  0  0  0  0  0  0  0  0  0  0
   -0.5327   -3.2703   -4.8772 H   0  0  0  0  0  0  0  0  0  0  0  0
   -1.0368    0.9617    1.1391 C   0  0  0  0  0  0  0  0  0  0  0  0
   -1.9782    1.5924    0.6710 O   0  0  0  0  0  0  0  0  0  0  0  0
   -0.1897    1.5746    2.0440 N   0  0  0  0  0  0  0  0  0  0  0  0
    0.5495    1.0111    2.4544 H   0  0  0  0  0  0  0  0  0  0  0  0
   -0.3455    2.9579    2.4768 C   0  0  0  0  0  0  0  0  0  0  0  0
   -1.3107    3.0975    2.9748 H   0  0  0  0  0  0  0  0  0  0  0  0
    0.4487    3.2262    3.1801 H   0  0  0  0  0  0  0  0  0  0  0  0
   -0.2902    3.6358    1.6187 H   0  0  0  0  0  0  0  0  0  0  0  0
  1  2  1  0  0  0  0
  2  3  1  0  0  0  0
  2  4  1  0  0  0  0
  2  5  1  0  0  0  0
  5  6  2  0  0  0  0
  5  7  1  0  0  0  0
  7  8  1  0  0  0  0
  7  9  1  0  0  0  0
  9 10  1  0  0  0  0
  9 11  1  0  0  0  0
  9 26  1  0  0  0  0
 11 12  1  0  0  0  0
 11 13  1  0  0  0  0
 11 14  1  0  0  0  0
 14 15  1  0  0  0  0
 14 16  1  0  0  0  0
 14 17  1  0  0  0  0
 17 18  1  0  0  0  0
 17 19  1  0  0  0  0
 17 20  1  0  0  0  0
 20 21  1  0  0  0  0
 20 22  1  0  0  0  0
 20 23  1  0  0  0  0
 23 24  1  0  0  0  0
 23 25  1  0  0  0  0
 26 27  2  0  0  0  0
 26 28  1  0  0  0  0
 28 29  1  0  0  0  0
 28 30  1  0  0  0  0
 30 31  1  0  0  0  0
 30 32  1  0  0  0  0
 30 33  1  0  0  0  0
M  END
$$$$

  -OEChem-03222214063D

 33 32  0     1  0  0  0  0  0999 V2000
   -3.8261   -3.9729    1.8081 H   0  0  0  0  0  0  0  0  0  0  0  0
   -3.8066   -2.9940    1.3211 C   0  0  0  0  0  0  0  0  0  0  0  0
   -4.4682   -2.3163    1.8659 H   0  0  0  0  0  0  0  0  0  0  0  0
   -4.1708   -3.1023    0.2966 H   0  0  0  0  0  0  0  0  0  0  0  0
   -2.3938   -2.4422    1.3122 C   0  0  0  0  0  0  0  0  0  0  0  0
   -1.4812   -3.0934    1.7963 O   0  0  0  0  0  0  0  0  0  0  0  0
   -2.1489   -1.2051    0.7533 N   0  0  0  0  0  0  0  0  0  0  0  0
   -2.9545   -0.6617    0.4471 H   0  0  0  0  0  0  0  0  0  0  0  0
   -0.8493   -0.5158    0.7565 C   0  0  1  0  0  0  0  0  0  0  0  0
   -0.1919   -0.9697    1.5053 H   0  0  0  0  0  0  0  0  0  0  0  0
   -0.1596   -0.6040   -0.6191 C   0  0  0  0  0  0  0  0  0  0  0  0
   -0.8074   -0.1163   -1.3559 H   0  0  0  0  0  0  0  0  0  0  0  0
    0.7842   -0.0494   -0.5931 H   0  0  0  0  0  0  0  0  0  0  0  0
    0.1215   -2.0453   -1.0763 C   0  0  0  0  0  0  0  0  0  0  0  0
    0.9468   -2.4613   -0.4886 H   0  0  0  0  0  0  0  0  0  0  0  0
   -0.7559   -2.6766   -0.9122 H   0  0  0  0  0  0  0  0  0  0  0  0
    0.4573   -2.0802   -2.5714 C   0  0  0  0  0  0  0  0  0  0  0  0
   -0.3833   -1.6805   -3.1477 H   0  0  0  0  0  0  0  0  0  0  0  0
    1.3315   -1.4504   -2.7671 H   0  0  0  0  0  0  0  0  0  0  0  0
    0.7500   -3.5067   -3.0265 C   0  0  0  0  0  0  0  0  0  0  0  0
    1.5988   -3.9138   -2.4656 H   0  0  0  0  0  0  0  0  0  0  0  0
   -0.1199   -4.1460   -2.8388 H   0  0  0  0  0  0  0  0  0  0  0  0
    1.0606   -3.4842   -4.4590 N   0  0  0  0  0  0  0  0  0  0  0  0
    1.2701   -4.4201   -4.8060 H   0  0  0  0  0  0  0  0  0  0  0  0
    0.3010   -3.0602   -4.9913 H   0  0  0  0  0  0  0  0  0  0  0  0
   -1.0356    0.9656    1.1382 C   0  0  0  0  0  0  0  0  0  0  0  0
   -1.9797    1.6003    0.6808 O   0  0  0  0  0  0  0  0  0  0  0  0
   -0.1878    1.5685    2.0489 N   0  0  0  0  0  0  0  0  0  0  0  0
    0.5526    1.0009    2.4516 H   0  0  0  0  0  0  0  0  0  0  0  0
   -0.3426    2.9477    2.4948 C   0  0  0  0  0  0  0  0  0  0  0  0
   -1.3093    3.0841    2.9906 H   0  0  0  0  0  0  0  0  0  0  0  0
    0.4491    3.2072    3.2040 H   0  0  0  0  0  0  0  0  0  0  0  0
   -0.2823    3.6347    1.6441 H   0  0  0  0  0  0  0  0  0  0  0  0
  1  2  1  0  0  0  0
  2  3  1  0  0  0  0
  2  4  1  0  0  0  0
  2  5  1  0  0  0  0
  5  6  2  0  0  0  0
  5  7  1  0  0  0  0
  7  8  1  0  0  0  0
  7  9  1  0  0  0  0
  9 10  1  0  0  0  0
  9 11  1  0  0  0  0
  9 26  1  0  0  0  0
 11 12  1  0  0  0  0
 11 13  1  0  0  0  0
 11 14  1  0  0  0  0
 14 15  1  0  0  0  0
 14 16  1  0  0  0  0
 14 17  1  0  0  0  0
 17 18  1  0  0  0  0
 17 19  1  0  0  0  0
 17 20  1  0  0  0  0
 20 21  1  0  0  0  0
 20 22  1  0  0  0  0
 20 23  1  0  0  0  0
 23 24  1  0  0  0  0
 23 25  1  0  0  0  0
 26 27  2  0  0  0  0
 26 28  1  0  0  0  0
 28 29  1  0  0  0  0
 28 30  1  0  0  0  0
 30 31  1  0  0  0  0
 30 32  1  0  0  0  0
 30 33  1  0  0  0  0
M  END
$$$$

  -OEChem-03222214063D

 33 32  0     1  0  0  0  0  0999 V2000
   -3.8323   -3.9740    1.8414 H   0  0  0  0  0  0  0  0  0  0  0  0
   -3.8233   -2.9958    1.3524 C   0  0  0  0  0  0  0  0  0  0  0  0
   -4.4734   -2.3173    1.9102 H   0  0  0  0  0  0  0  0  0  0  0  0
   -4.2089   -3.1060    0.3361 H   0  0  0  0  0  0  0  0  0  0  0  0
   -2.4113   -2.4437    1.3115 C   0  0  0  0  0  0  0  0  0  0  0  0
   -1.4865   -3.1003    1.7637 O   0  0  0  0  0  0  0  0  0  0  0  0
   -2.1820   -1.2006    0.7592 N   0  0  0  0  0  0  0  0  0  0  0  0
   -2.9949   -0.6579    0.4719 H   0  0  0  0  0  0  0  0  0  0  0  0
   -0.8832   -0.5095    0.7388 C   0  0  1  0  0  0  0  0  0  0  0  0
   -0.2218   -0.9743    1.4774 H   0  0  0  0  0  0  0  0  0  0  0  0
   -0.1950   -0.6038   -0.6389 C   0  0  0  0  0  0  0  0  0  0  0  0
   -0.6933    0.0866   -1.3286 H   0  0  0  0  0  0  0  0  0  0  0  0
    0.8448   -0.2760   -0.5378 H   0  0  0  0  0  0  0  0  0  0  0  0
   -0.2282   -2.0096   -1.2593 C   0  0  0  0  0  0  0  0  0  0  0  0
    0.2650   -2.7177   -0.5846 H   0  0  0  0  0  0  0  0  0  0  0  0
   -1.2627   -2.3383   -1.3984 H   0  0  0  0  0  0  0  0  0  0  0  0
    0.4765   -2.0087   -2.6200 C   0  0  0  0  0  0  0  0  0  0  0  0
   -0.0281   -1.3092   -3.2943 H   0  0  0  0  0  0  0  0  0  0  0  0
    1.5121   -1.6741   -2.4985 H   0  0  0  0  0  0  0  0  0  0  0  0
    0.4687   -3.4042   -3.2362 C   0  0  0  0  0  0  0  0  0  0  0  0
    0.9921   -4.1079   -2.5792 H   0  0  0  0  0  0  0  0  0  0  0  0
   -0.5618   -3.7555   -3.3583 H   0  0  0  0  0  0  0  0  0  0  0  0
    1.1387   -3.3411   -4.5387 N   0  0  0  0  0  0  0  0  0  0  0  0
    1.1574   -4.2558   -4.9894 H   0  0  0  0  0  0  0  0  0  0  0  0
    0.7000   -2.6463   -5.1429 H   0  0  0  0  0  0  0  0  0  0  0  0
   -1.0470    0.9698    1.1373 C   0  0  0  0  0  0  0  0  0  0  0  0
   -1.9971    1.6157    0.7094 O   0  0  0  0  0  0  0  0  0  0  0  0
   -0.1708    1.5573    2.0310 N   0  0  0  0  0  0  0  0  0  0  0  0
    0.5738    0.9793    2.4104 H   0  0  0  0  0  0  0  0  0  0  0  0
   -0.3056    2.9317    2.4974 C   0  0  0  0  0  0  0  0  0  0  0  0
   -1.2598    3.0678    3.0171 H   0  0  0  0  0  0  0  0  0  0  0  0
    0.5044    3.1770    3.1910 H   0  0  0  0  0  0  0  0  0  0  0  0
   -0.2608    3.6286    1.6538 H   0  0  0  0  0  0  0  0  0  0  0  0
  1  2  1  0  0  0  0
  2  3  1  0  0  0  0
  2  4  1  0  0  0  0
  2  5  1  0  0  0  0
  5  6  2  0  0  0  0
  5  7  1  0  0  0  0
  7  8  1  0  0  0  0
  7  9  1  0  0  0  0
  9 10  1  0  0  0  0
  9 11  1  0  0  0  0
  9 26  1  0  0  0  0
 11 12  1  0  0  0  0
 11 13  1  0  0  0  0
 11 14  1  0  0  0  0
 14 15  1  0  0  0  0
 14 16  1  0  0  0  0
 14 17  1  0  0  0  0
 17 18  1  0  0  0  0
 17 19  1  0  0  0  0
 17 20  1  0  0  0  0
 20 21  1  0  0  0  0
 20 22  1  0  0  0  0
 20 23  1  0  0  0  0
 23 24  1  0  0  0  0
 23 25  1  0  0  0  0
 26 27  2  0  0  0  0
 26 28  1  0  0  0  0
 28 29  1  0  0  0  0
 28 30  1  0  0  0  0
 30 31  1  0  0  0  0
 30 32  1  0  0  0  0
 30 33  1  0  0  0  0
M  END
$$$$

  -OEChem-03222214063D

 33 32  0     1  0  0  0  0  0999 V2000
   -3.8223   -3.9840    1.7820 H   0  0  0  0  0  0  0  0  0  0  0  0
   -3.8107   -3.0028    1.2991 C   0  0  0  0  0  0  0  0  0  0  0  0
   -4.4762   -2.3323    1.8483 H   0  0  0  0  0  0  0  0  0  0  0  0
   -4.1763   -3.1095    0.2750 H   0  0  0  0  0  0  0  0  0  0  0  0
   -2.4013   -2.4419    1.2897 C   0  0  0  0  0  0  0  0  0  0  0  0
   -1.4857   -3.0908    1.7705 O   0  0  0  0  0  0  0  0  0  0  0  0
   -2.1662   -1.1961    0.7455 N   0  0  0  0  0  0  0  0  0  0  0  0
   -2.9750   -0.6592    0.4368 H   0  0  0  0  0  0  0  0  0  0  0  0
   -0.8687   -0.5013    0.7403 C   0  0  1  0  0  0  0  0  0  0  0  0
   -0.2083   -0.9694    1.4775 H   0  0  0  0  0  0  0  0  0  0  0  0
   -0.1845   -0.5866   -0.6395 C   0  0  0  0  0  0  0  0  0  0  0  0
   -0.6700    0.1097   -1.3320 H   0  0  0  0  0  0  0  0  0  0  0  0
    0.8564   -0.2658   -0.5256 H   0  0  0  0  0  0  0  0  0  0  0  0
   -0.2244   -1.9916   -1.2605 C   0  0  0  0  0  0  0  0  0  0  0  0
    0.0456   -2.7331   -0.5009 H   0  0  0  0  0  0  0  0  0  0  0  0
   -1.2369   -2.2169   -1.6111 H   0  0  0  0  0  0  0  0  0  0  0  0
    0.7685   -2.0955   -2.4228 C   0  0  0  0  0  0  0  0  0  0  0  0
    0.5112   -1.3584   -3.1901 H   0  0  0  0  0  0  0  0  0  0  0  0
    1.7801   -1.8747   -2.0667 H   0  0  0  0  0  0  0  0  0  0  0  0
    0.7465   -3.4942   -3.0311 C   0  0  0  0  0  0  0  0  0  0  0  0
    1.0292   -4.2365   -2.2761 H   0  0  0  0  0  0  0  0  0  0  0  0
   -0.2623   -3.7351   -3.3839 H   0  0  0  0  0  0  0  0  0  0  0  0
    1.6947   -3.5300   -4.1488 N   0  0  0  0  0  0  0  0  0  0  0  0
    1.7227   -4.4538   -4.5800 H   0  0  0  0  0  0  0  0  0  0  0  0
    1.4742   -2.8123   -4.8391 H   0  0  0  0  0  0  0  0  0  0  0  0
   -1.0378    0.9763    1.1432 C   0  0  0  0  0  0  0  0  0  0  0  0
   -1.9807    1.6252    0.7040 O   0  0  0  0  0  0  0  0  0  0  0  0
   -0.1699    1.5603    2.0473 N   0  0  0  0  0  0  0  0  0  0  0  0
    0.5656    0.9779    2.4379 H   0  0  0  0  0  0  0  0  0  0  0  0
   -0.3077    2.9330    2.5177 C   0  0  0  0  0  0  0  0  0  0  0  0
   -1.2669    3.0692    3.0284 H   0  0  0  0  0  0  0  0  0  0  0  0
    0.4955    3.1741    3.2207 H   0  0  0  0  0  0  0  0  0  0  0  0
   -0.2527    3.6326    1.6770 H   0  0  0  0  0  0  0  0  0  0  0  0
  1  2  1  0  0  0  0
  2  3  1  0  0  0  0
  2  4  1  0  0  0  0
  2  5  1  0  0  0  0
  5  6  2  0  0  0  0
  5  7  1  0  0  0  0
  7  8  1  0  0  0  0
  7  9  1  0  0  0  0
  9 10  1  0  0  0  0
  9 11  1  0  0  0  0
  9 26  1  0  0  0  0
 11 12  1  0  0  0  0
 11 13  1  0  0  0  0
 11 14  1  0  0  0  0
 14 15  1  0  0  0  0
 14 16  1  0  0  0  0
 14 17  1  0  0  0  0
 17 18  1  0  0  0  0
 17 19  1  0  0  0  0
 17 20  1  0  0  0  0
 20 21  1  0  0  0  0
 20 22  1  0  0  0  0
 20 23  1  0  0  0  0
 23 24  1  0  0  0  0
 23 25  1  0  0  0  0
 26 27  2  0  0  0  0
 26 28  1  0  0  0  0
 28 29  1  0  0  0  0
 28 30  1  0  0  0  0
 30 31  1  0  0  0  0
 30 32  1  0  0  0  0
 30 33  1  0  0  0  0
M  END
$$$$

  -OEChem-03222214063D

 33 32  0     1  0  0  0  0  0999 V2000
   -3.8324   -3.9873    1.7487 H   0  0  0  0  0  0  0  0  0  0  0  0
   -3.8122   -3.0049    1.2686 C   0  0  0  0  0  0  0  0  0  0  0  0
   -4.4943   -2.3383    1.8019 H   0  0  0  0  0  0  0  0  0  0  0  0
   -4.1506   -3.1107    0.2351 H   0  0  0  0  0  0  0  0  0  0  0  0
   -2.4054   -2.4383    1.2965 C   0  0  0  0  0  0  0  0  0  0  0  0
   -1.5027   -3.0789    1.8116 O   0  0  0  0  0  0  0  0  0  0  0  0
   -2.1600   -1.1947    0.7516 N   0  0  0  0  0  0  0  0  0  0  0  0
   -2.9626   -0.6638    0.4174 H   0  0  0  0  0  0  0  0  0  0  0  0
   -0.8613   -0.5011    0.7515 C   0  0  1  0  0  0  0  0  0  0  0  0
   -0.2021   -0.9699    1.4895 H   0  0  0  0  0  0  0  0  0  0  0  0
   -0.1771   -0.5817   -0.6298 C   0  0  0  0  0  0  0  0  0  0  0  0
   -0.6552    0.1210   -1.3211 H   0  0  0  0  0  0  0  0  0  0  0  0
    0.8623   -0.2600   -0.5057 H   0  0  0  0  0  0  0  0  0  0  0  0
   -0.2136   -1.9821   -1.2659 C   0  0  0  0  0  0  0  0  0  0  0  0
   -0.1879   -2.7428   -0.4797 H   0  0  0  0  0  0  0  0  0  0  0  0
   -1.1423   -2.1097   -1.8315 H   0  0  0  0  0  0  0  0  0  0  0  0
    1.0064   -2.2086   -2.1657 C   0  0  0  0  0  0  0  0  0  0  0  0
    1.0150   -1.4597   -2.9642 H   0  0  0  0  0  0  0  0  0  0  0  0
    1.9255   -2.0928   -1.5818 H   0  0  0  0  0  0  0  0  0  0  0  0
    0.9771   -3.6063   -2.7766 C   0  0  0  0  0  0  0  0  0  0  0  0
    1.0046   -4.3623   -1.9836 H   0  0  0  0  0  0  0  0  0  0  0  0
    0.0539   -3.7478   -3.3495 H   0  0  0  0  0  0  0  0  0  0  0  0
    2.1431   -3.7560   -3.6528 N   0  0  0  0  0  0  0  0  0  0  0  0
    2.1744   -4.6862   -4.0701 H   0  0  0  0  0  0  0  0  0  0  0  0
    2.1554   -3.0333   -4.3723 H   0  0  0  0  0  0  0  0  0  0  0  0
   -1.0331    0.9774    1.1501 C   0  0  0  0  0  0  0  0  0  0  0  0
   -1.9719    1.6264    0.7021 O   0  0  0  0  0  0  0  0  0  0  0  0
   -0.1699    1.5625    2.0578 N   0  0  0  0  0  0  0  0  0  0  0  0
    0.5596    0.9786    2.4572 H   0  0  0  0  0  0  0  0  0  0  0  0
   -0.3080    2.9364    2.5244 C   0  0  0  0  0  0  0  0  0  0  0  0
   -1.2727    3.0777    3.0231 H   0  0  0  0  0  0  0  0  0  0  0  0
    0.4874    3.1750    3.2370 H   0  0  0  0  0  0  0  0  0  0  0  0
   -0.2396    3.6346    1.6836 H   0  0  0  0  0  0  0  0  0  0  0  0
  1  2  1  0  0  0  0
  2  3  1  0  0  0  0
  2  4  1  0  0  0  0
  2  5  1  0  0  0  0
  5  6  2  0  0  0  0
  5  7  1  0  0  0  0
  7  8  1  0  0  0  0
  7  9  1  0  0  0  0
  9 10  1  0  0  0  0
  9 11  1  0  0  0  0
  9 26  1  0  0  0  0
 11 12  1  0  0  0  0
 11 13  1  0  0  0  0
 11 14  1  0  0  0  0
 14 15  1  0  0  0  0
 14 16  1  0  0  0  0
 14 17  1  0  0  0  0
 17 18  1  0  0  0  0
 17 19  1  0  0  0  0
 17 20  1  0  0  0  0
 20 21  1  0  0  0  0
 20 22  1  0  0  0  0
 20 23  1  0  0  0  0
 23 24  1  0  0  0  0
 23 25  1  0  0  0  0
 26 27  2  0  0  0  0
 26 28  1  0  0  0  0
 28 29  1  0  0  0  0
 28 30  1  0  0  0  0
 30 31  1  0  0  0  0
 30 32  1  0  0  0  0
 30 33  1  0  0  0  0
M  END
$$$$

  -OEChem-03222214063D

 33 32  0     1  0  0  0  0  0999 V2000
   -3.8742   -3.9689    1.7655 H   0  0  0  0  0  0  0  0  0  0  0  0
   -3.8427   -2.9886    1.2819 C   0  0  0  0  0  0  0  0  0  0  0  0
   -4.5210   -2.3139    1.8097 H   0  0  0  0  0  0  0  0  0  0  0  0
   -4.1773   -3.0955    0.2472 H   0  0  0  0  0  0  0  0  0  0  0  0
   -2.4308   -2.4349    1.3143 C   0  0  0  0  0  0  0  0  0  0  0  0
   -1.5371   -3.0786    1.8413 O   0  0  0  0  0  0  0  0  0  0  0  0
   -2.1720   -1.1968    0.7627 N   0  0  0  0  0  0  0  0  0  0  0  0
   -2.9693   -0.6603    0.4249 H   0  0  0  0  0  0  0  0  0  0  0  0
   -0.8674   -0.5141    0.7610 C   0  0  1  0  0  0  0  0  0  0  0  0
   -0.2135   -0.9853    1.5022 H   0  0  0  0  0  0  0  0  0  0  0  0
   -0.1731   -0.5920   -0.6170 C   0  0  0  0  0  0  0  0  0  0  0  0
   -0.6491    0.1172   -1.3030 H   0  0  0  0  0  0  0  0  0  0  0  0
    0.8629   -0.2623   -0.4849 H   0  0  0  0  0  0  0  0  0  0  0  0
   -0.1985   -1.9817   -1.2832 C   0  0  0  0  0  0  0  0  0  0  0  0
   -0.4505   -2.7506   -0.5491 H   0  0  0  0  0  0  0  0  0  0  0  0
   -0.9642   -2.0014   -2.0655 H   0  0  0  0  0  0  0  0  0  0  0  0
    1.1748   -2.3385   -1.8633 C   0  0  0  0  0  0  0  0  0  0  0  0
    1.4536   -1.5997   -2.6216 H   0  0  0  0  0  0  0  0  0  0  0  0
    1.9302   -2.3139   -1.0707 H   0  0  0  0  0  0  0  0  0  0  0  0
    1.1530   -3.7296   -2.4882 C   0  0  0  0  0  0  0  0  0  0  0  0
    0.9149   -4.4789   -1.7246 H   0  0  0  0  0  0  0  0  0  0  0  0
    0.3839   -3.7803   -3.2668 H   0  0  0  0  0  0  0  0  0  0  0  0
    2.4729   -4.0030   -3.0647 N   0  0  0  0  0  0  0  0  0  0  0  0
    2.5111   -4.9365   -3.4736 H   0  0  0  0  0  0  0  0  0  0  0  0
    2.7271   -3.2935   -3.7517 H   0  0  0  0  0  0  0  0  0  0  0  0
   -1.0329    0.9676    1.1515 C   0  0  0  0  0  0  0  0  0  0  0  0
   -1.9681    1.6188    0.6988 O   0  0  0  0  0  0  0  0  0  0  0  0
   -0.1693    1.5534    2.0582 N   0  0  0  0  0  0  0  0  0  0  0  0
    0.5618    0.9706    2.4562 H   0  0  0  0  0  0  0  0  0  0  0  0
   -0.3042    2.9297    2.5183 C   0  0  0  0  0  0  0  0  0  0  0  0
   -1.2672    3.0732    3.0194 H   0  0  0  0  0  0  0  0  0  0  0  0
    0.4939    3.1713    3.2267 H   0  0  0  0  0  0  0  0  0  0  0  0
   -0.2386    3.6240    1.6740 H   0  0  0  0  0  0  0  0  0  0  0  0
  1  2  1  0  0  0  0
  2  3  1  0  0  0  0
  2  4  1  0  0  0  0
  2  5  1  0  0  0  0
  5  6  2  0  0  0  0
  5  7  1  0  0  0  0
  7  8  1  0  0  0  0
  7  9  1  0  0  0  0
  9 10  1  0  0  0  0
  9 11  1  0  0  0  0
  9 26  1  0  0  0  0
 11 12  1  0  0  0  0
 11 13  1  0  0  0  0
 11 14  1  0  0  0  0
 14 15  1  0  0  0  0
 14 16  1  0  0  0  0
 14 17  1  0  0  0  0
 17 18  1  0  0  0  0
 17 19  1  0  0  0  0
 17 20  1  0  0  0  0
 20 21  1  0  0  0  0
 20 22  1  0  0  0  0
 20 23  1  0  0  0  0
 23 24  1  0  0  0  0
 23 25  1  0  0  0  0
 26 27  2  0  0  0  0
 26 28  1  0  0  0  0
 28 29  1  0  0  0  0
 28 30  1  0  0  0  0
 30 31  1  0  0  0  0
 30 32  1  0  0  0  0
 30 33  1  0  0  0  0
M  END
$$$$

  -OEChem-03222214063D

 33 32  0     1  0  0  0  0  0999 V2000
   -3.9122   -3.9478    1.7903 H   0  0  0  0  0  0  0  0  0  0  0  0
   -3.8744   -2.9703    1.3010 C   0  0  0  0  0  0  0  0  0  0  0  0
   -4.5345   -2.2828    1.8357 H   0  0  0  0  0  0  0  0  0  0  0  0
   -4.2264   -3.0776    0.2721 H   0  0  0  0  0  0  0  0  0  0  0  0
   -2.4550   -2.4349    1.3093 C   0  0  0  0  0  0  0  0  0  0  0  0
   -1.5592   -3.0935    1.8135 O   0  0  0  0  0  0  0  0  0  0  0  0
   -2.1900   -1.1963    0.7612 N   0  0  0  0  0  0  0  0  0  0  0  0
   -2.9862   -0.6494    0.4377 H   0  0  0  0  0  0  0  0  0  0  0  0
   -0.8807   -0.5217    0.7585 C   0  0  1  0  0  0  0  0  0  0  0  0
   -0.2325   -0.9980    1.5014 H   0  0  0  0  0  0  0  0  0  0  0  0
   -0.1703   -0.5944   -0.6128 C   0  0  0  0  0  0  0  0  0  0  0  0
   -0.6618    0.1112   -1.2915 H   0  0  0  0  0  0  0  0  0  0  0  0
    0.8593   -0.2437   -0.4860 H   0  0  0  0  0  0  0  0  0  0  0  0
   -0.1792   -1.9738   -1.3050 C   0  0  0  0  0  0  0  0  0  0  0  0
   -0.7104   -2.7163   -0.7073 H   0  0  0  0  0  0  0  0  0  0  0  0
   -0.6989   -1.8932   -2.2653 H   0  0  0  0  0  0  0  0  0  0  0  0
    1.2512   -2.4767   -1.5335 C   0  0  0  0  0  0  0  0  0  0  0  0
    1.7814   -1.7825   -2.1936 H   0  0  0  0  0  0  0  0  0  0  0  0
    1.7865   -2.5142   -0.5788 H   0  0  0  0  0  0  0  0  0  0  0  0
    1.2446   -3.8696   -2.1550 C   0  0  0  0  0  0  0  0  0  0  0  0
    0.7667   -4.5809   -1.4717 H   0  0  0  0  0  0  0  0  0  0  0  0
    0.6756   -3.8618   -3.0911 H   0  0  0  0  0  0  0  0  0  0  0  0
    2.6308   -4.2731   -2.4115 N   0  0  0  0  0  0  0  0  0  0  0  0
    2.6754   -5.2155   -2.7990 H   0  0  0  0  0  0  0  0  0  0  0  0
    3.1004   -3.6049   -3.0220 H   0  0  0  0  0  0  0  0  0  0  0  0
   -1.0387    0.9591    1.1547 C   0  0  0  0  0  0  0  0  0  0  0  0
   -1.9712    1.6161    0.7049 O   0  0  0  0  0  0  0  0  0  0  0  0
   -0.1711    1.5386    2.0618 N   0  0  0  0  0  0  0  0  0  0  0  0
    0.5582    0.9517    2.4575 H   0  0  0  0  0  0  0  0  0  0  0  0
   -0.2969    2.9160    2.5214 C   0  0  0  0  0  0  0  0  0  0  0  0
   -1.2585    3.0656    3.0234 H   0  0  0  0  0  0  0  0  0  0  0  0
    0.5034    3.1538    3.2287 H   0  0  0  0  0  0  0  0  0  0  0  0
   -0.2282    3.6092    1.6765 H   0  0  0  0  0  0  0  0  0  0  0  0
  1  2  1  0  0  0  0
  2  3  1  0  0  0  0
  2  4  1  0  0  0  0
  2  5  1  0  0  0  0
  5  6  2  0  0  0  0
  5  7  1  0  0  0  0
  7  8  1  0  0  0  0
  7  9  1  0  0  0  0
  9 10  1  0  0  0  0
  9 11  1  0  0  0  0
  9 26  1  0  0  0  0
 11 12  1  0  0  0  0
 11 13  1  0  0  0  0
 11 14  1  0  0  0  0
 14 15  1  0  0  0  0
 14 16  1  0  0  0  0
 14 17  1  0  0  0  0
 17 18  1  0  0  0  0
 17 19  1  0  0  0  0
 17 20  1  0  0  0  0
 20 21  1  0  0  0  0
 20 22  1  0  0  0  0
 20 23  1  0  0  0  0
 23 24  1  0  0  0  0
 23 25  1  0  0  0  0
 26 27  2  0  0  0  0
 26 28  1  0  0  0  0
 28 29  1  0  0  0  0
 28 30  1  0  0  0  0
 30 31  1  0  0  0  0
 30 32  1  0  0  0  0
 30 33  1  0  0  0  0
M  END
$$$$

  -OEChem-03222214063D

 33 32  0     1  0  0  0  0  0999 V2000
   -3.8982   -3.9500    1.7712 H   0  0  0  0  0  0  0  0  0  0  0  0
   -3.8674   -2.9665    1.2939 C   0  0  0  0  0  0  0  0  0  0  0  0
   -4.5241   -2.2876    1.8432 H   0  0  0  0  0  0  0  0  0  0  0  0
   -4.2291   -3.0615    0.2672 H   0  0  0  0  0  0  0  0  0  0  0  0
   -2.4488   -2.4287    1.2946 C   0  0  0  0  0  0  0  0  0  0  0  0
   -1.5463   -3.0921    1.7796 O   0  0  0  0  0  0  0  0  0  0  0  0
   -2.1905   -1.1869    0.7507 N   0  0  0  0  0  0  0  0  0  0  0  0
   -2.9904   -0.6365    0.4425 H   0  0  0  0  0  0  0  0  0  0  0  0
   -0.8824   -0.5109    0.7481 C   0  0  1  0  0  0  0  0  0  0  0  0
   -0.2366   -0.9873    1.4928 H   0  0  0  0  0  0  0  0  0  0  0  0
   -0.1609   -0.5846   -0.6181 C   0  0  0  0  0  0  0  0  0  0  0  0
   -0.6723    0.1085   -1.2951 H   0  0  0  0  0  0  0  0  0  0  0  0
    0.8640   -0.2157   -0.5054 H   0  0  0  0  0  0  0  0  0  0  0  0
   -0.1581   -1.9636   -1.3112 C   0  0  0  0  0  0  0  0  0  0  0  0
   -0.9221   -2.6292   -0.9063 H   0  0  0  0  0  0  0  0  0  0  0  0
   -0.3859   -1.8230   -2.3729 H   0  0  0  0  0  0  0  0  0  0  0  0
    1.2202   -2.6248   -1.1915 C   0  0  0  0  0  0  0  0  0  0  0  0
    1.9690   -2.0063   -1.6966 H   0  0  0  0  0  0  0  0  0  0  0  0
    1.4998   -2.7034   -0.1355 H   0  0  0  0  0  0  0  0  0  0  0  0
    1.2111   -4.0199   -1.8080 C   0  0  0  0  0  0  0  0  0  0  0  0
    0.5151   -4.6650   -1.2598 H   0  0  0  0  0  0  0  0  0  0  0  0
    0.8794   -3.9690   -2.8510 H   0  0  0  0  0  0  0  0  0  0  0  0
    2.5685   -4.5711   -1.7387 N   0  0  0  0  0  0  0  0  0  0  0  0
    2.6025   -5.5184   -2.1151 H   0  0  0  0  0  0  0  0  0  0  0  0
    3.2357   -3.9647   -2.2147 H   0  0  0  0  0  0  0  0  0  0  0  0
   -1.0423    0.9677    1.1515 C   0  0  0  0  0  0  0  0  0  0  0  0
   -1.9805    1.6242    0.7130 O   0  0  0  0  0  0  0  0  0  0  0  0
   -0.1728    1.5426    2.0597 N   0  0  0  0  0  0  0  0  0  0  0  0
    0.5578    0.9531    2.4490 H   0  0  0  0  0  0  0  0  0  0  0  0
   -0.3092    2.9105    2.5438 C   0  0  0  0  0  0  0  0  0  0  0  0
   -1.2722    3.0443    3.0477 H   0  0  0  0  0  0  0  0  0  0  0  0
    0.4888    3.1406    3.2564 H   0  0  0  0  0  0  0  0  0  0  0  0
   -0.2447    3.6194    1.7117 H   0  0  0  0  0  0  0  0  0  0  0  0
  1  2  1  0  0  0  0
  2  3  1  0  0  0  0
  2  4  1  0  0  0  0
  2  5  1  0  0  0  0
  5  6  2  0  0  0  0
  5  7  1  0  0  0  0
  7  8  1  0  0  0  0
  7  9  1  0  0  0  0
  9 10  1  0  0  0  0
  9 11  1  0  0  0  0
  9 26  1  0  0  0  0
 11 12  1  0  0  0  0
 11 13  1  0  0  0  0
 11 14  1  0  0  0  0
 14 15  1  0  0  0  0
 14 16  1  0  0  0  0
 14 17  1  0  0  0  0
 17 18  1  0  0  0  0
 17 19  1  0  0  0  0
 17 20  1  0  0  0  0
 20 21  1  0  0  0  0
 20 22  1  0  0  0  0
 20 23  1  0  0  0  0
 23 24  1  0  0  0  0
 23 25  1  0  0  0  0
 26 27  2  0  0  0  0
 26 28  1  0  0  0  0
 28 29  1  0  0  0  0
 28 30  1  0  0  0  0
 30 31  1  0  0  0  0
 30 32  1  0  0  0  0
 30 33  1  0  0  0  0
M  END
$$$$

  -OEChem-03222214063D

 33 32  0     1  0  0  0  0  0999 V2000
   -3.8750   -3.9571    1.7490 H   0  0  0  0  0  0  0  0  0  0  0  0
   -3.8489   -2.9730    1.2726 C   0  0  0  0  0  0  0  0  0  0  0  0
   -4.5062   -2.2971    1.8250 H   0  0  0  0  0  0  0  0  0  0  0  0
   -4.2134   -3.0678    0.2470 H   0  0  0  0  0  0  0  0  0  0  0  0
   -2.4320   -2.4305    1.2699 C   0  0  0  0  0  0  0  0  0  0  0  0
   -1.5262   -3.0933    1.7487 O   0  0  0  0  0  0  0  0  0  0  0  0
   -2.1804   -1.1841    0.7338 N   0  0  0  0  0  0  0  0  0  0  0  0
   -2.9834   -0.6347    0.4319 H   0  0  0  0  0  0  0  0  0  0  0  0
   -0.8770   -0.5000    0.7445 C   0  0  1  0  0  0  0  0  0  0  0  0
   -0.2352   -0.9755    1.4936 H   0  0  0  0  0  0  0  0  0  0  0  0
   -0.1453   -0.5713   -0.6159 C   0  0  0  0  0  0  0  0  0  0  0  0
   -0.6576    0.1159   -1.2980 H   0  0  0  0  0  0  0  0  0  0  0  0
    0.8792   -0.2021   -0.5016 H   0  0  0  0  0  0  0  0  0  0  0  0
   -0.1356   -1.9528   -1.2986 C   0  0  0  0  0  0  0  0  0  0  0  0
   -1.0544   -2.5111   -1.1056 H   0  0  0  0  0  0  0  0  0  0  0  0
   -0.0767   -1.8030   -2.3816 H   0  0  0  0  0  0  0  0  0  0  0  0
    1.0901   -2.7626   -0.8589 C   0  0  0  0  0  0  0  0  0  0  0  0
    2.0023   -2.2420   -1.1669 H   0  0  0  0  0  0  0  0  0  0  0  0
    1.1025   -2.8524    0.2324 H   0  0  0  0  0  0  0  0  0  0  0  0
    1.0678   -4.1596   -1.4708 C   0  0  0  0  0  0  0  0  0  0  0  0
    0.2102   -4.7212   -1.0831 H   0  0  0  0  0  0  0  0  0  0  0  0
    0.9673   -4.0927   -2.5597 H   0  0  0  0  0  0  0  0  0  0  0  0
    2.3174   -4.8452   -1.1249 N   0  0  0  0  0  0  0  0  0  0  0  0
    2.3287   -5.7987   -1.4862 H   0  0  0  0  0  0  0  0  0  0  0  0
    3.1275   -4.3199   -1.4523 H   0  0  0  0  0  0  0  0  0  0  0  0
   -1.0454    0.9759    1.1536 C   0  0  0  0  0  0  0  0  0  0  0  0
   -1.9816    1.6315    0.7095 O   0  0  0  0  0  0  0  0  0  0  0  0
   -0.1846    1.5499    2.0704 N   0  0  0  0  0  0  0  0  0  0  0  0
    0.5424    0.9600    2.4658 H   0  0  0  0  0  0  0  0  0  0  0  0
   -0.3262    2.9167    2.5560 C   0  0  0  0  0  0  0  0  0  0  0  0
   -1.2903    3.0464    3.0588 H   0  0  0  0  0  0  0  0  0  0  0  0
    0.4703    3.1487    3.2695 H   0  0  0  0  0  0  0  0  0  0  0  0
   -0.2630    3.6272    1.7250 H   0  0  0  0  0  0  0  0  0  0  0  0
  1  2  1  0  0  0  0
  2  3  1  0  0  0  0
  2  4  1  0  0  0  0
  2  5  1  0  0  0  0
  5  6  2  0  0  0  0
  5  7  1  0  0  0  0
  7  8  1  0  0  0  0
  7  9  1  0  0  0  0
  9 10  1  0  0  0  0
  9 11  1  0  0  0  0
  9 26  1  0  0  0  0
 11 12  1  0  0  0  0
 11 13  1  0  0  0  0
 11 14  1  0  0  0  0
 14 15  1  0  0  0  0
 14 16  1  0  0  0  0
 14 17  1  0  0  0  0
 17 18  1  0  0  0  0
 17 19  1  0  0  0  0
 17 20  1  0  0  0  0
 20 21  1  0  0  0  0
 20 22  1  0  0  0  0
 20 23  1  0  0  0  0
 23 24  1  0  0  0  0
 23 25  1  0  0  0  0
 26 27  2  0  0  0  0
 26 28  1  0  0  0  0
 28 29  1  0  0  0  0
 28 30  1  0  0  0  0
 30 31  1  0  0  0  0
 30 32  1  0  0  0  0
 30 33  1  0  0  0  0
M  END
$$$$

  -OEChem-03222214063D

 33 32  0     1  0  0  0  0  0999 V2000
   -3.8478   -3.9854    1.6921 H   0  0  0  0  0  0  0  0  0  0  0  0
   -3.8116   -3.0001    1.2189 C   0  0  0  0  0  0  0  0  0  0  0  0
   -4.5291   -2.3435    1.7169 H   0  0  0  0  0  0  0  0  0  0  0  0
   -4.0909   -3.1040    0.1677 H   0  0  0  0  0  0  0  0  0  0  0  0
   -2.4148   -2.4187    1.3277 C   0  0  0  0  0  0  0  0  0  0  0  0
   -1.5489   -3.0311    1.9297 O   0  0  0  0  0  0  0  0  0  0  0  0
   -2.1485   -1.1832    0.7748 N   0  0  0  0  0  0  0  0  0  0  0  0
   -2.9344   -0.6708    0.3792 H   0  0  0  0  0  0  0  0  0  0  0  0
   -0.8498   -0.4909    0.7939 C   0  0  1  0  0  0  0  0  0  0  0  0
   -0.2063   -0.9513    1.5504 H   0  0  0  0  0  0  0  0  0  0  0  0
   -0.1305   -0.5701   -0.5744 C   0  0  0  0  0  0  0  0  0  0  0  0
   -0.6377    0.1180   -1.2595 H   0  0  0  0  0  0  0  0  0  0  0  0
    0.8985   -0.2129   -0.4619 H   0  0  0  0  0  0  0  0  0  0  0  0
   -0.1207   -1.9512   -1.2539 C   0  0  0  0  0  0  0  0  0  0  0  0
   -1.1222   -2.3906   -1.2564 H   0  0  0  0  0  0  0  0  0  0  0  0
    0.1759   -1.8220   -2.2998 H   0  0  0  0  0  0  0  0  0  0  0  0
    0.8769   -2.9012   -0.5772 C   0  0  0  0  0  0  0  0  0  0  0  0
    1.8878   -2.4922   -0.6734 H   0  0  0  0  0  0  0  0  0  0  0  0
    0.6540   -2.9924    0.4895 H   0  0  0  0  0  0  0  0  0  0  0  0
    0.8228   -4.2858   -1.2155 C   0  0  0  0  0  0  0  0  0  0  0  0
   -0.1543   -4.7437   -1.0251 H   0  0  0  0  0  0  0  0  0  0  0  0
    0.9565   -4.2061   -2.2999 H   0  0  0  0  0  0  0  0  0  0  0  0
    1.8874   -5.1149   -0.6419 N   0  0  0  0  0  0  0  0  0  0  0  0
    1.8600   -6.0637   -1.0141 H   0  0  0  0  0  0  0  0  0  0  0  0
    2.8029   -4.6907   -0.7873 H   0  0  0  0  0  0  0  0  0  0  0  0
   -1.0358    0.9920    1.1711 C   0  0  0  0  0  0  0  0  0  0  0  0
   -1.9569    1.6372    0.6821 O   0  0  0  0  0  0  0  0  0  0  0  0
   -0.1962    1.5925    2.0911 N   0  0  0  0  0  0  0  0  0  0  0  0
    0.5124    1.0110    2.5299 H   0  0  0  0  0  0  0  0  0  0  0  0
   -0.3573    2.9694    2.5416 C   0  0  0  0  0  0  0  0  0  0  0  0
   -1.3308    3.1031    3.0248 H   0  0  0  0  0  0  0  0  0  0  0  0
    0.4249    3.2252    3.2625 H   0  0  0  0  0  0  0  0  0  0  0  0
   -0.2856    3.6602    1.6950 H   0  0  0  0  0  0  0  0  0  0  0  0
  1  2  1  0  0  0  0
  2  3  1  0  0  0  0
  2  4  1  0  0  0  0
  2  5  1  0  0  0  0
  5  6  2  0  0  0  0
  5  7  1  0  0  0  0
  7  8  1  0  0  0  0
  7  9  1  0  0  0  0
  9 10  1  0  0  0  0
  9 11  1  0  0  0  0
  9 26  1  0  0  0  0
 11 12  1  0  0  0  0
 11 13  1  0  0  0  0
 11 14  1  0  0  0  0
 14 15  1  0  0  0  0
 14 16  1  0  0  0  0
 14 17  1  0  0  0  0
 17 18  1  0  0  0  0
 17 19  1  0  0  0  0
 17 20  1  0  0  0  0
 20 21  1  0  0  0  0
 20 22  1  0  0  0  0
 20 23  1  0  0  0  0
 23 24  1  0  0  0  0
 23 25  1  0  0  0  0
 26 27  2  0  0  0  0
 26 28  1  0  0  0  0
 28 29  1  0  0  0  0
 28 30  1  0  0  0  0
 30 31  1  0  0  0  0
 30 32  1  0  0  0  0
 30 33  1  0  0  0  0
M  END
$$$$

  -OEChem-03222214063D

 33 32  0     1  0  0  0  0  0999 V2000
   -3.8700   -3.9563    1.8051 H   0  0  0  0  0  0  0  0  0  0  0  0
   -3.7925   -3.0266    1.2345 C   0  0  0  0  0  0  0  0  0  0  0  0
   -4.5990   -2.3563    1.5413 H   0  0  0  0  0  0  0  0  0  0  0  0
   -3.9014   -3.2559    0.1719 H   0  0  0  0  0  0  0  0  0  0  0  0
   -2.4484   -2.3703    1.4869 C   0  0  0  0  0  0  0  0  0  0  0  0
   -1.6782   -2.8594    2.2970 O   0  0  0  0  0  0  0  0  0  0  0  0
   -2.1519   -1.1687    0.8779 N   0  0  0  0  0  0  0  0  0  0  0  0
   -2.8861   -0.7404    0.3182 H   0  0  0  0  0  0  0  0  0  0  0  0
   -0.8465   -0.4872    0.8893 C   0  0  1  0  0  0  0  0  0  0  0  0
   -0.2053   -0.9242    1.6616 H   0  0  0  0  0  0  0  0  0  0  0  0
   -0.1349   -0.5925   -0.4850 C   0  0  0  0  0  0  0  0  0  0  0  0
   -0.6184    0.1064   -1.1767 H   0  0  0  0  0  0  0  0  0  0  0  0
    0.8988   -0.2548   -0.3587 H   0  0  0  0  0  0  0  0  0  0  0  0
   -0.1153   -1.9618   -1.1876 C   0  0  0  0  0  0  0  0  0  0  0  0
   -1.1430   -2.2714   -1.4026 H   0  0  0  0  0  0  0  0  0  0  0  0
    0.3999   -1.8497   -2.1473 H   0  0  0  0  0  0  0  0  0  0  0  0
    0.5829   -3.0591   -0.3726 C   0  0  0  0  0  0  0  0  0  0  0  0
    1.6136   -2.7549   -0.1655 H   0  0  0  0  0  0  0  0  0  0  0  0
    0.0858   -3.2115    0.5844 H   0  0  0  0  0  0  0  0  0  0  0  0
    0.5875   -4.3753   -1.1460 C   0  0  0  0  0  0  0  0  0  0  0  0
   -0.4414   -4.6987   -1.3400 H   0  0  0  0  0  0  0  0  0  0  0  0
    1.0903   -4.2418   -2.1103 H   0  0  0  0  0  0  0  0  0  0  0  0
    1.2872   -5.3903   -0.3535 N   0  0  0  0  0  0  0  0  0  0  0  0
    1.3272   -6.2835   -0.8436 H   0  0  0  0  0  0  0  0  0  0  0  0
    2.2202   -5.0746   -0.0899 H   0  0  0  0  0  0  0  0  0  0  0  0
   -1.0336    1.0144    1.1882 C   0  0  0  0  0  0  0  0  0  0  0  0
   -1.9233    1.6491    0.6313 O   0  0  0  0  0  0  0  0  0  0  0  0
   -0.2087    1.6519    2.0963 N   0  0  0  0  0  0  0  0  0  0  0  0
    0.4603    1.0786    2.6027 H   0  0  0  0  0  0  0  0  0  0  0  0
   -0.3659    3.0510    2.4743 C   0  0  0  0  0  0  0  0  0  0  0  0
   -1.3318    3.2088    2.9653 H   0  0  0  0  0  0  0  0  0  0  0  0
    0.4282    3.3465    3.1666 H   0  0  0  0  0  0  0  0  0  0  0  0
   -0.3101    3.6961    1.5911 H   0  0  0  0  0  0  0  0  0  0  0  0
  1  2  1  0  0  0  0
  2  3  1  0  0  0  0
  2  4  1  0  0  0  0
  2  5  1  0  0  0  0
  5  6  2  0  0  0  0
  5  7  1  0  0  0  0
  7  8  1  0  0  0  0
  7  9  1  0  0  0  0
  9 10  1  0  0  0  0
  9 11  1  0  0  0  0
  9 26  1  0  0  0  0
 11 12  1  0  0  0  0
 11 13  1  0  0  0  0
 11 14  1  0  0  0  0
 14 15  1  0  0  0  0
 14 16  1  0  0  0  0
 14 17  1  0  0  0  0
 17 18  1  0  0  0  0
 17 19  1  0  0  0  0
 17 20  1  0  0  0  0
 20 21  1  0  0  0  0
 20 22  1  0  0  0  0
 20 23  1  0  0  0  0
 23 24  1  0  0  0  0
 23 25  1  0  0  0  0
 26 27  2  0  0  0  0
 26 28  1  0  0  0  0
 28 29  1  0  0  0  0
 28 30  1  0  0  0  0
 30 31  1  0  0  0  0
 30 32  1  0  0  0  0
 30 33  1  0  0  0  0
M  END
$$$$

  -OEChem-03222214063D

 33 32  0     1  0  0  0  0  0999 V2000
   -3.9725   -3.8186    2.2223 H   0  0  0  0  0  0  0  0  0  0  0  0
   -3.8953   -2.9449    1.5690 C   0  0  0  0  0  0  0  0  0  0  0  0
   -4.6656   -2.2237    1.8524 H   0  0  0  0  0  0  0  0  0  0  0  0
   -4.0625   -3.2614    0.5367 H   0  0  0  0  0  0  0  0  0  0  0  0
   -2.5209   -2.3165    1.6987 C   0  0  0  0  0  0  0  0  0  0  0  0
   -1.6924   -2.8112    2.4477 O   0  0  0  0  0  0  0  0  0  0  0  0
   -2.2386   -1.1432    1.0305 N   0  0  0  0  0  0  0  0  0  0  0  0
   -2.9980   -0.7091    0.5102 H   0  0  0  0  0  0  0  0  0  0  0  0
   -0.9138   -0.5108    0.9278 C   0  0  1  0  0  0  0  0  0  0  0  0
   -0.2346   -0.9476    1.6670 H   0  0  0  0  0  0  0  0  0  0  0  0
   -0.2894   -0.6590   -0.4853 C   0  0  0  0  0  0  0  0  0  0  0  0
   -0.7746    0.0585   -1.1564 H   0  0  0  0  0  0  0  0  0  0  0  0
    0.7607   -0.3596   -0.4050 H   0  0  0  0  0  0  0  0  0  0  0  0
   -0.3300   -2.0209   -1.2071 C   0  0  0  0  0  0  0  0  0  0  0  0
   -1.3377   -2.1849   -1.6032 H   0  0  0  0  0  0  0  0  0  0  0  0
    0.3485   -1.9567   -2.0646 H   0  0  0  0  0  0  0  0  0  0  0  0
    0.0479   -3.2338   -0.3458 C   0  0  0  0  0  0  0  0  0  0  0  0
   -0.8333   -3.6089    0.1742 H   0  0  0  0  0  0  0  0  0  0  0  0
    0.7954   -2.9477    0.4007 H   0  0  0  0  0  0  0  0  0  0  0  0
    0.6069   -4.3607   -1.2107 C   0  0  0  0  0  0  0  0  0  0  0  0
   -0.0986   -4.6082   -2.0117 H   0  0  0  0  0  0  0  0  0  0  0  0
    1.5491   -4.0442   -1.6718 H   0  0  0  0  0  0  0  0  0  0  0  0
    0.8280   -5.5364   -0.3641 N   0  0  0  0  0  0  0  0  0  0  0  0
    1.2891   -6.2859   -0.8793 H   0  0  0  0  0  0  0  0  0  0  0  0
    1.3528   -5.2911    0.4760 H   0  0  0  0  0  0  0  0  0  0  0  0
   -1.0335    1.0041    1.1953 C   0  0  0  0  0  0  0  0  0  0  0  0
   -1.9396    1.6538    0.6842 O   0  0  0  0  0  0  0  0  0  0  0  0
   -0.1259    1.6380    2.0238 N   0  0  0  0  0  0  0  0  0  0  0  0
    0.5567    1.0560    2.5013 H   0  0  0  0  0  0  0  0  0  0  0  0
   -0.2149    3.0501    2.3743 C   0  0  0  0  0  0  0  0  0  0  0  0
   -1.1449    3.2519    2.9159 H   0  0  0  0  0  0  0  0  0  0  0  0
    0.6273    3.3346    3.0123 H   0  0  0  0  0  0  0  0  0  0  0  0
   -0.1895    3.6713    1.4729 H   0  0  0  0  0  0  0  0  0  0  0  0
  1  2  1  0  0  0  0
  2  3  1  0  0  0  0
  2  4  1  0  0  0  0
  2  5  1  0  0  0  0
  5  6  2  0  0  0  0
  5  7  1  0  0  0  0
  7  8  1  0  0  0  0
  7  9  1  0  0  0  0
  9 10  1  0  0  0  0
  9 11  1  0  0  0  0
  9 26  1  0  0  0  0
 11 12  1  0  0  0  0
 11 13  1  0  0  0  0
 11 14  1  0  0  0  0
 14 15  1  0  0  0  0
 14 16  1  0  0  0  0
 14 17  1  0  0  0  0
 17 18  1  0  0  0  0
 17 19  1  0  0  0  0
 17 20  1  0  0  0  0
 20 21  1  0  0  0  0
 20 22  1  0  0  0  0
 20 23  1  0  0  0  0
 23 24  1  0  0  0  0
 23 25  1  0  0  0  0
 26 27  2  0  0  0  0
 26 28  1  0  0  0  0
 28 29  1  0  0  0  0
 28 30  1  0  0  0  0
 30 31  1  0  0  0  0
 30 32  1  0  0  0  0
 30 33  1  0  0  0  0
M  END
$$$$

  -OEChem-03222214063D

 33 32  0     1  0  0  0  0  0999 V2000
   -3.4709   -4.2665    1.9180 H   0  0  0  0  0  0  0  0  0  0  0  0
   -3.5170   -3.2707    1.4684 C   0  0  0  0  0  0  0  0  0  0  0  0
   -4.2638   -2.6759    1.9999 H   0  0  0  0  0  0  0  0  0  0  0  0
   -3.8193   -3.3734    0.4236 H   0  0  0  0  0  0  0  0  0  0  0  0
   -2.1617   -2.5943    1.5549 C   0  0  0  0  0  0  0  0  0  0  0  0
   -1.2866   -3.0867    2.2517 O   0  0  0  0  0  0  0  0  0  0  0  0
   -1.9718   -1.3777    0.9311 N   0  0  0  0  0  0  0  0  0  0  0  0
   -2.7863   -0.9633    0.4810 H   0  0  0  0  0  0  0  0  0  0  0  0
   -0.7287   -0.5880    0.8801 C   0  0  1  0  0  0  0  0  0  0  0  0
   -0.0311   -0.9585    1.6378 H   0  0  0  0  0  0  0  0  0  0  0  0
   -0.0206   -0.5827   -0.5094 C   0  0  0  0  0  0  0  0  0  0  0  0
   -0.5549    0.1168   -1.1621 H   0  0  0  0  0  0  0  0  0  0  0  0
    0.9732   -0.1558   -0.3391 H   0  0  0  0  0  0  0  0  0  0  0  0
    0.1886   -1.8652   -1.3508 C   0  0  0  0  0  0  0  0  0  0  0  0
   -0.6691   -1.9587   -2.0254 H   0  0  0  0  0  0  0  0  0  0  0  0
    1.0670   -1.7147   -1.9873 H   0  0  0  0  0  0  0  0  0  0  0  0
    0.3592   -3.1894   -0.5913 C   0  0  0  0  0  0  0  0  0  0  0  0
    0.4316   -3.0006    0.4793 H   0  0  0  0  0  0  0  0  0  0  0  0
    1.3126   -3.6415   -0.8824 H   0  0  0  0  0  0  0  0  0  0  0  0
   -0.7520   -4.1916   -0.9047 C   0  0  0  0  0  0  0  0  0  0  0  0
   -1.7278   -3.6975   -0.9071 H   0  0  0  0  0  0  0  0  0  0  0  0
   -0.5994   -4.6261   -1.8986 H   0  0  0  0  0  0  0  0  0  0  0  0
   -0.7322   -5.2344    0.1223 N   0  0  0  0  0  0  0  0  0  0  0  0
    0.1379   -5.7639    0.0830 H   0  0  0  0  0  0  0  0  0  0  0  0
   -0.8465   -4.8144    1.0525 H   0  0  0  0  0  0  0  0  0  0  0  0
   -1.0604    0.8893    1.1819 C   0  0  0  0  0  0  0  0  0  0  0  0
   -2.0494    1.4140    0.6808 O   0  0  0  0  0  0  0  0  0  0  0  0
   -0.2719    1.6183    2.0529 N   0  0  0  0  0  0  0  0  0  0  0  0
    0.4935    1.1329    2.5121 H   0  0  0  0  0  0  0  0  0  0  0  0
   -0.5684    2.9922    2.4399 C   0  0  0  0  0  0  0  0  0  0  0  0
   -1.5377    3.0466    2.9466 H   0  0  0  0  0  0  0  0  0  0  0  0
    0.2005    3.3673    3.1222 H   0  0  0  0  0  0  0  0  0  0  0  0
   -0.5941    3.6416    1.5585 H   0  0  0  0  0  0  0  0  0  0  0  0
  1  2  1  0  0  0  0
  2  3  1  0  0  0  0
  2  4  1  0  0  0  0
  2  5  1  0  0  0  0
  5  6  2  0  0  0  0
  5  7  1  0  0  0  0
  7  8  1  0  0  0  0
  7  9  1  0  0  0  0
  9 10  1  0  0  0  0
  9 11  1  0  0  0  0
  9 26  1  0  0  0  0
 11 12  1  0  0  0  0
 11 13  1  0  0  0  0
 11 14  1  0  0  0  0
 14 15  1  0  0  0  0
 14 16  1  0  0  0  0
 14 17  1  0  0  0  0
 17 18  1  0  0  0  0
 17 19  1  0  0  0  0
 17 20  1  0  0  0  0
 20 21  1  0  0  0  0
 20 22  1  0  0  0  0
 20 23  1  0  0  0  0
 23 24  1  0  0  0  0
 23 25  1  0  0  0  0
 26 27  2  0  0  0  0
 26 28  1  0  0  0  0
 28 29  1  0  0  0  0
 28 30  1  0  0  0  0
 30 31  1  0  0  0  0
 30 32  1  0  0  0  0
 30 33  1  0  0  0  0
M  END
$$$$

  -OEChem-03222214063D

 33 32  0     1  0  0  0  0  0999 V2000
   -3.6273   -4.1451    2.1766 H   0  0  0  0  0  0  0  0  0  0  0  0
   -3.6259   -3.2002    1.6263 C   0  0  0  0  0  0  0  0  0  0  0  0
   -4.3505   -2.5229    2.0848 H   0  0  0  0  0  0  0  0  0  0  0  0
   -3.9246   -3.3988    0.5941 H   0  0  0  0  0  0  0  0  0  0  0  0
   -2.2420   -2.5777    1.6583 C   0  0  0  0  0  0  0  0  0  0  0  0
   -1.3752   -3.0761    2.3602 O   0  0  0  0  0  0  0  0  0  0  0  0
   -2.0145   -1.3986    0.9772 N   0  0  0  0  0  0  0  0  0  0  0  0
   -2.8202   -0.9754    0.5189 H   0  0  0  0  0  0  0  0  0  0  0  0
   -0.7602   -0.6277    0.9245 C   0  0  1  0  0  0  0  0  0  0  0  0
   -0.1033   -0.9644    1.7331 H   0  0  0  0  0  0  0  0  0  0  0  0
    0.0411   -0.6735   -0.4165 C   0  0  0  0  0  0  0  0  0  0  0  0
   -0.4597    0.0032   -1.1185 H   0  0  0  0  0  0  0  0  0  0  0  0
    1.0135   -0.2218   -0.1938 H   0  0  0  0  0  0  0  0  0  0  0  0
    0.3369   -1.9562   -1.2392 C   0  0  0  0  0  0  0  0  0  0  0  0
   -0.2689   -1.9225   -2.1513 H   0  0  0  0  0  0  0  0  0  0  0  0
    1.3808   -1.8928   -1.5640 H   0  0  0  0  0  0  0  0  0  0  0  0
    0.1437   -3.3275   -0.5864 C   0  0  0  0  0  0  0  0  0  0  0  0
    0.2293   -3.2335    0.4959 H   0  0  0  0  0  0  0  0  0  0  0  0
    0.9611   -3.9829   -0.9031 H   0  0  0  0  0  0  0  0  0  0  0  0
   -1.1649   -3.9960   -1.0028 C   0  0  0  0  0  0  0  0  0  0  0  0
   -1.9950   -3.2866   -0.9496 H   0  0  0  0  0  0  0  0  0  0  0  0
   -1.0985   -4.3431   -2.0398 H   0  0  0  0  0  0  0  0  0  0  0  0
   -1.4031   -5.1258   -0.1013 N   0  0  0  0  0  0  0  0  0  0  0  0
   -0.7143   -5.8614   -0.2564 H   0  0  0  0  0  0  0  0  0  0  0  0
   -1.3668   -4.8129    0.8745 H   0  0  0  0  0  0  0  0  0  0  0  0
   -1.0989    0.8638    1.1380 C   0  0  0  0  0  0  0  0  0  0  0  0
   -2.0714    1.3620    0.5805 O   0  0  0  0  0  0  0  0  0  0  0  0
   -0.3384    1.6364    1.9962 N   0  0  0  0  0  0  0  0  0  0  0  0
    0.4144    1.1767    2.5008 H   0  0  0  0  0  0  0  0  0  0  0  0
   -0.6382    3.0314    2.2951 C   0  0  0  0  0  0  0  0  0  0  0  0
   -1.6308    3.1217    2.7488 H   0  0  0  0  0  0  0  0  0  0  0  0
    0.0997    3.4352    2.9949 H   0  0  0  0  0  0  0  0  0  0  0  0
   -0.6119    3.6332    1.3806 H   0  0  0  0  0  0  0  0  0  0  0  0
  1  2  1  0  0  0  0
  2  3  1  0  0  0  0
  2  4  1  0  0  0  0
  2  5  1  0  0  0  0
  5  6  2  0  0  0  0
  5  7  1  0  0  0  0
  7  8  1  0  0  0  0
  7  9  1  0  0  0  0
  9 10  1  0  0  0  0
  9 11  1  0  0  0  0
  9 26  1  0  0  0  0
 11 12  1  0  0  0  0
 11 13  1  0  0  0  0
 11 14  1  0  0  0  0
 14 15  1  0  0  0  0
 14 16  1  0  0  0  0
 14 17  1  0  0  0  0
 17 18  1  0  0  0  0
 17 19  1  0  0  0  0
 17 20  1  0  0  0  0
 20 21  1  0  0  0  0
 20 22  1  0  0  0  0
 20 23  1  0  0  0  0
 23 24  1  0  0  0  0
 23 25  1  0  0  0  0
 26 27  2  0  0  0  0
 26 28  1  0  0  0  0
 28 29  1  0  0  0  0
 28 30  1  0  0  0  0
 30 31  1  0  0  0  0
 30 32  1  0  0  0  0
 30 33  1  0  0  0  0
M  END
$$$$

  -OEChem-03222214063D

 33 32  0     1  0  0  0  0  0999 V2000
   -4.1619   -3.6613    2.2787 H   0  0  0  0  0  0  0  0  0  0  0  0
   -4.0572   -2.7561    1.6742 C   0  0  0  0  0  0  0  0  0  0  0  0
   -4.7796   -2.0135    2.0213 H   0  0  0  0  0  0  0  0  0  0  0  0
   -4.2706   -3.0041    0.6316 H   0  0  0  0  0  0  0  0  0  0  0  0
   -2.6490   -2.2054    1.7964 C   0  0  0  0  0  0  0  0  0  0  0  0
   -1.8563   -2.7275    2.5660 O   0  0  0  0  0  0  0  0  0  0  0  0
   -2.2931   -1.0758    1.0857 N   0  0  0  0  0  0  0  0  0  0  0  0
   -3.0211   -0.6231    0.5365 H   0  0  0  0  0  0  0  0  0  0  0  0
   -0.9444   -0.4902    1.0118 C   0  0  1  0  0  0  0  0  0  0  0  0
   -0.3293   -0.8997    1.8194 H   0  0  0  0  0  0  0  0  0  0  0  0
   -0.1804   -0.6885   -0.3352 C   0  0  0  0  0  0  0  0  0  0  0  0
   -0.6149    0.0194   -1.0502 H   0  0  0  0  0  0  0  0  0  0  0  0
    0.8499   -0.3591   -0.1640 H   0  0  0  0  0  0  0  0  0  0  0  0
   -0.1044   -2.0356   -1.1044 C   0  0  0  0  0  0  0  0  0  0  0  0
   -0.4925   -1.8697   -2.1151 H   0  0  0  0  0  0  0  0  0  0  0  0
    0.9565   -2.2864   -1.2094 H   0  0  0  0  0  0  0  0  0  0  0  0
   -0.8124   -3.2613   -0.5295 C   0  0  0  0  0  0  0  0  0  0  0  0
   -0.4932   -3.4173    0.5039 H   0  0  0  0  0  0  0  0  0  0  0  0
   -1.8930   -3.1050   -0.5618 H   0  0  0  0  0  0  0  0  0  0  0  0
   -0.4918   -4.5162   -1.3345 C   0  0  0  0  0  0  0  0  0  0  0  0
   -0.7536   -4.3686   -2.3881 H   0  0  0  0  0  0  0  0  0  0  0  0
    0.5798   -4.7372   -1.2765 H   0  0  0  0  0  0  0  0  0  0  0  0
   -1.2710   -5.6253   -0.7768 N   0  0  0  0  0  0  0  0  0  0  0  0
   -1.0554   -6.5032   -1.2487 H   0  0  0  0  0  0  0  0  0  0  0  0
   -1.1191   -5.7056    0.2299 H   0  0  0  0  0  0  0  0  0  0  0  0
   -1.0582    1.0379    1.2027 C   0  0  0  0  0  0  0  0  0  0  0  0
   -1.9387    1.6708    0.6292 O   0  0  0  0  0  0  0  0  0  0  0  0
   -0.1829    1.7017    2.0425 N   0  0  0  0  0  0  0  0  0  0  0  0
    0.4783    1.1381    2.5693 H   0  0  0  0  0  0  0  0  0  0  0  0
   -0.2772    3.1280    2.3278 C   0  0  0  0  0  0  0  0  0  0  0  0
   -1.2337    3.3598    2.8079 H   0  0  0  0  0  0  0  0  0  0  0  0
    0.5310    3.4337    2.9992 H   0  0  0  0  0  0  0  0  0  0  0  0
   -0.1965    3.7104    1.4039 H   0  0  0  0  0  0  0  0  0  0  0  0
  1  2  1  0  0  0  0
  2  3  1  0  0  0  0
  2  4  1  0  0  0  0
  2  5  1  0  0  0  0
  5  6  2  0  0  0  0
  5  7  1  0  0  0  0
  7  8  1  0  0  0  0
  7  9  1  0  0  0  0
  9 10  1  0  0  0  0
  9 11  1  0  0  0  0
  9 26  1  0  0  0  0
 11 12  1  0  0  0  0
 11 13  1  0  0  0  0
 11 14  1  0  0  0  0
 14 15  1  0  0  0  0
 14 16  1  0  0  0  0
 14 17  1  0  0  0  0
 17 18  1  0  0  0  0
 17 19  1  0  0  0  0
 17 20  1  0  0  0  0
 20 21  1  0  0  0  0
 20 22  1  0  0  0  0
 20 23  1  0  0  0  0
 23 24  1  0  0  0  0
 23 25  1  0  0  0  0
 26 27  2  0  0  0  0
 26 28  1  0  0  0  0
 28 29  1  0  0  0  0
 28 30  1  0  0  0  0
 30 31  1  0  0  0  0
 30 32  1  0  0  0  0
 30 33  1  0  0  0  0
M  END
$$$$

  -OEChem-03222214063D

 33 32  0     1  0  0  0  0  0999 V2000
   -4.1230   -3.6726    2.3831 H   0  0  0  0  0  0  0  0  0  0  0  0
   -4.0381   -2.7655    1.7786 C   0  0  0  0  0  0  0  0  0  0  0  0
   -4.7480   -2.0238    2.1525 H   0  0  0  0  0  0  0  0  0  0  0  0
   -4.2867   -3.0093    0.7428 H   0  0  0  0  0  0  0  0  0  0  0  0
   -2.6262   -2.2162    1.8549 C   0  0  0  0  0  0  0  0  0  0  0  0
   -1.8055   -2.7455    2.5896 O   0  0  0  0  0  0  0  0  0  0  0  0
   -2.2931   -1.0876    1.1321 N   0  0  0  0  0  0  0  0  0  0  0  0
   -3.0386   -0.6346    0.6069 H   0  0  0  0  0  0  0  0  0  0  0  0
   -0.9506   -0.4935    1.0261 C   0  0  1  0  0  0  0  0  0  0  0  0
   -0.3200   -0.8933    1.8264 H   0  0  0  0  0  0  0  0  0  0  0  0
   -0.2011   -0.6997   -0.3284 C   0  0  0  0  0  0  0  0  0  0  0  0
   -0.6767   -0.0156   -1.0406 H   0  0  0  0  0  0  0  0  0  0  0  0
    0.8243   -0.3407   -0.1925 H   0  0  0  0  0  0  0  0  0  0  0  0
   -0.1183   -2.0521   -1.0875 C   0  0  0  0  0  0  0  0  0  0  0  0
   -0.2427   -1.8419   -2.1552 H   0  0  0  0  0  0  0  0  0  0  0  0
    0.8996   -2.4335   -0.9550 H   0  0  0  0  0  0  0  0  0  0  0  0
   -1.0686   -3.1864   -0.7065 C   0  0  0  0  0  0  0  0  0  0  0  0
   -0.8707   -3.4931    0.3225 H   0  0  0  0  0  0  0  0  0  0  0  0
   -2.1041   -2.8478   -0.7982 H   0  0  0  0  0  0  0  0  0  0  0  0
   -0.8756   -4.3970   -1.6128 C   0  0  0  0  0  0  0  0  0  0  0  0
   -1.0495   -4.1197   -2.6585 H   0  0  0  0  0  0  0  0  0  0  0  0
    0.1500   -4.7722   -1.5246 H   0  0  0  0  0  0  0  0  0  0  0  0
   -1.8313   -5.4299   -1.2018 N   0  0  0  0  0  0  0  0  0  0  0  0
   -1.7273   -6.2742   -1.7646 H   0  0  0  0  0  0  0  0  0  0  0  0
   -1.7312   -5.6411   -0.2081 H   0  0  0  0  0  0  0  0  0  0  0  0
   -1.0703    1.0349    1.2123 C   0  0  0  0  0  0  0  0  0  0  0  0
   -1.9650    1.6582    0.6506 O   0  0  0  0  0  0  0  0  0  0  0  0
   -0.1828    1.7112    2.0291 N   0  0  0  0  0  0  0  0  0  0  0  0
    0.4922    1.1570    2.5482 H   0  0  0  0  0  0  0  0  0  0  0  0
   -0.2733    3.1416    2.2956 C   0  0  0  0  0  0  0  0  0  0  0  0
   -1.2144    3.3777    2.8033 H   0  0  0  0  0  0  0  0  0  0  0  0
    0.5555    3.4603    2.9349 H   0  0  0  0  0  0  0  0  0  0  0  0
   -0.2250    3.7103    1.3610 H   0  0  0  0  0  0  0  0  0  0  0  0
  1  2  1  0  0  0  0
  2  3  1  0  0  0  0
  2  4  1  0  0  0  0
  2  5  1  0  0  0  0
  5  6  2  0  0  0  0
  5  7  1  0  0  0  0
  7  8  1  0  0  0  0
  7  9  1  0  0  0  0
  9 10  1  0  0  0  0
  9 11  1  0  0  0  0
  9 26  1  0  0  0  0
 11 12  1  0  0  0  0
 11 13  1  0  0  0  0
 11 14  1  0  0  0  0
 14 15  1  0  0  0  0
 14 16  1  0  0  0  0
 14 17  1  0  0  0  0
 17 18  1  0  0  0  0
 17 19  1  0  0  0  0
 17 20  1  0  0  0  0
 20 21  1  0  0  0  0
 20 22  1  0  0  0  0
 20 23  1  0  0  0  0
 23 24  1  0  0  0  0
 23 25  1  0  0  0  0
 26 27  2  0  0  0  0
 26 28  1  0  0  0  0
 28 29  1  0  0  0  0
 28 30  1  0  0  0  0
 30 31  1  0  0  0  0
 30 32  1  0  0  0  0
 30 33  1  0  0  0  0
M  END
$$$$

  -OEChem-03222214063D

 33 32  0     1  0  0  0  0  0999 V2000
   -4.2517   -3.8048    1.7919 H   0  0  0  0  0  0  0  0  0  0  0  0
   -4.1333   -2.8343    1.3021 C   0  0  0  0  0  0  0  0  0  0  0  0
   -4.8002   -2.1142    1.7826 H   0  0  0  0  0  0  0  0  0  0  0  0
   -4.4135   -2.9328    0.2504 H   0  0  0  0  0  0  0  0  0  0  0  0
   -2.6958   -2.3620    1.4144 C   0  0  0  0  0  0  0  0  0  0  0  0
   -1.8849   -3.0296    2.0364 O   0  0  0  0  0  0  0  0  0  0  0  0
   -2.3346   -1.1501    0.8658 N   0  0  0  0  0  0  0  0  0  0  0  0
   -3.0755   -0.5897    0.4482 H   0  0  0  0  0  0  0  0  0  0  0  0
   -0.9786   -0.5868    0.8188 C   0  0  1  0  0  0  0  0  0  0  0  0
   -0.3507   -1.1189    1.5403 H   0  0  0  0  0  0  0  0  0  0  0  0
   -0.2484   -0.6123   -0.5607 C   0  0  0  0  0  0  0  0  0  0  0  0
   -0.7228    0.1780   -1.1537 H   0  0  0  0  0  0  0  0  0  0  0  0
    0.7848   -0.2935   -0.3882 H   0  0  0  0  0  0  0  0  0  0  0  0
   -0.1930   -1.8253   -1.5314 C   0  0  0  0  0  0  0  0  0  0  0  0
   -0.0676   -1.4133   -2.5385 H   0  0  0  0  0  0  0  0  0  0  0  0
    0.7309   -2.3706   -1.3115 H   0  0  0  0  0  0  0  0  0  0  0  0
   -1.3361   -2.8524   -1.6042 C   0  0  0  0  0  0  0  0  0  0  0  0
   -1.5081   -3.1032   -2.6558 H   0  0  0  0  0  0  0  0  0  0  0  0
   -2.2733   -2.4341   -1.2423 H   0  0  0  0  0  0  0  0  0  0  0  0
   -0.9657   -4.1510   -0.8848 C   0  0  0  0  0  0  0  0  0  0  0  0
   -0.1787   -4.6645   -1.4480 H   0  0  0  0  0  0  0  0  0  0  0  0
   -0.5693   -3.9410    0.1127 H   0  0  0  0  0  0  0  0  0  0  0  0
   -2.1485   -5.0125   -0.7917 N   0  0  0  0  0  0  0  0  0  0  0  0
   -1.8911   -5.9398   -0.4534 H   0  0  0  0  0  0  0  0  0  0  0  0
   -2.8439   -4.5951   -0.1761 H   0  0  0  0  0  0  0  0  0  0  0  0
   -1.0491    0.8980    1.2371 C   0  0  0  0  0  0  0  0  0  0  0  0
   -1.9457    1.6184    0.8111 O   0  0  0  0  0  0  0  0  0  0  0  0
   -0.1254    1.4165    2.1260 N   0  0  0  0  0  0  0  0  0  0  0  0
    0.5564    0.7755    2.5218 H   0  0  0  0  0  0  0  0  0  0  0  0
   -0.1738    2.7872    2.6202 C   0  0  0  0  0  0  0  0  0  0  0  0
   -1.1070    2.9657    3.1648 H   0  0  0  0  0  0  0  0  0  0  0  0
    0.6642    2.9740    3.2985 H   0  0  0  0  0  0  0  0  0  0  0  0
   -0.1094    3.4970    1.7886 H   0  0  0  0  0  0  0  0  0  0  0  0
  1  2  1  0  0  0  0
  2  3  1  0  0  0  0
  2  4  1  0  0  0  0
  2  5  1  0  0  0  0
  5  6  2  0  0  0  0
  5  7  1  0  0  0  0
  7  8  1  0  0  0  0
  7  9  1  0  0  0  0
  9 10  1  0  0  0  0
  9 11  1  0  0  0  0
  9 26  1  0  0  0  0
 11 12  1  0  0  0  0
 11 13  1  0  0  0  0
 11 14  1  0  0  0  0
 14 15  1  0  0  0  0
 14 16  1  0  0  0  0
 14 17  1  0  0  0  0
 17 18  1  0  0  0  0
 17 19  1  0  0  0  0
 17 20  1  0  0  0  0
 20 21  1  0  0  0  0
 20 22  1  0  0  0  0
 20 23  1  0  0  0  0
 23 24  1  0  0  0  0
 23 25  1  0  0  0  0
 26 27  2  0  0  0  0
 26 28  1  0  0  0  0
 28 29  1  0  0  0  0
 28 30  1  0  0  0  0
 30 31  1  0  0  0  0
 30 32  1  0  0  0  0
 30 33  1  0  0  0  0
M  END
$$$$

  -OEChem-03222214063D

 33 32  0     1  0  0  0  0  0999 V2000
   -4.0338   -3.9233    1.8335 H   0  0  0  0  0  0  0  0  0  0  0  0
   -3.9997   -2.9044    1.4378 C   0  0  0  0  0  0  0  0  0  0  0  0
   -4.6222   -2.2611    2.0644 H   0  0  0  0  0  0  0  0  0  0  0  0
   -4.3998   -2.9069    0.4211 H   0  0  0  0  0  0  0  0  0  0  0  0
   -2.5714   -2.3933    1.4323 C   0  0  0  0  0  0  0  0  0  0  0  0
   -1.6850   -3.0600    1.9432 O   0  0  0  0  0  0  0  0  0  0  0  0
   -2.2921   -1.1594    0.8833 N   0  0  0  0  0  0  0  0  0  0  0  0
   -3.0789   -0.6008    0.5566 H   0  0  0  0  0  0  0  0  0  0  0  0
   -0.9620   -0.5447    0.7964 C   0  0  1  0  0  0  0  0  0  0  0  0
   -0.2975   -1.0545    1.5011 H   0  0  0  0  0  0  0  0  0  0  0  0
   -0.2600   -0.5575   -0.5942 C   0  0  0  0  0  0  0  0  0  0  0  0
   -0.7613    0.2103   -1.1942 H   0  0  0  0  0  0  0  0  0  0  0  0
    0.7704   -0.2180   -0.4451 H   0  0  0  0  0  0  0  0  0  0  0  0
   -0.2046   -1.8038   -1.5159 C   0  0  0  0  0  0  0  0  0  0  0  0
    0.1612   -1.4695   -2.4926 H   0  0  0  0  0  0  0  0  0  0  0  0
    0.5699   -2.4595   -1.1046 H   0  0  0  0  0  0  0  0  0  0  0  0
   -1.4684   -2.6540   -1.7598 C   0  0  0  0  0  0  0  0  0  0  0  0
   -1.6638   -2.6677   -2.8370 H   0  0  0  0  0  0  0  0  0  0  0  0
   -2.3520   -2.2094   -1.3079 H   0  0  0  0  0  0  0  0  0  0  0  0
   -1.2857   -4.1022   -1.3036 C   0  0  0  0  0  0  0  0  0  0  0  0
   -0.4775   -4.5698   -1.8768 H   0  0  0  0  0  0  0  0  0  0  0  0
   -1.0077   -4.1428   -0.2468 H   0  0  0  0  0  0  0  0  0  0  0  0
   -2.5386   -4.8311   -1.5280 N   0  0  0  0  0  0  0  0  0  0  0  0
   -2.4378   -5.8141   -1.2743 H   0  0  0  0  0  0  0  0  0  0  0  0
   -3.3058   -4.4033   -1.0131 H   0  0  0  0  0  0  0  0  0  0  0  0
   -1.0657    0.9321    1.2318 C   0  0  0  0  0  0  0  0  0  0  0  0
   -2.0032    1.6232    0.8481 O   0  0  0  0  0  0  0  0  0  0  0  0
   -0.1288    1.4742    2.0923 N   0  0  0  0  0  0  0  0  0  0  0  0
    0.5962    0.8573    2.4475 H   0  0  0  0  0  0  0  0  0  0  0  0
   -0.1990    2.8413    2.5928 C   0  0  0  0  0  0  0  0  0  0  0  0
   -1.1150    2.9901    3.1738 H   0  0  0  0  0  0  0  0  0  0  0  0
    0.6590    3.0516    3.2385 H   0  0  0  0  0  0  0  0  0  0  0  0
   -0.1887    3.5547    1.7620 H   0  0  0  0  0  0  0  0  0  0  0  0
  1  2  1  0  0  0  0
  2  3  1  0  0  0  0
  2  4  1  0  0  0  0
  2  5  1  0  0  0  0
  5  6  2  0  0  0  0
  5  7  1  0  0  0  0
  7  8  1  0  0  0  0
  7  9  1  0  0  0  0
  9 10  1  0  0  0  0
  9 11  1  0  0  0  0
  9 26  1  0  0  0  0
 11 12  1  0  0  0  0
 11 13  1  0  0  0  0
 11 14  1  0  0  0  0
 14 15  1  0  0  0  0
 14 16  1  0  0  0  0
 14 17  1  0  0  0  0
 17 18  1  0  0  0  0
 17 19  1  0  0  0  0
 17 20  1  0  0  0  0
 20 21  1  0  0  0  0
 20 22  1  0  0  0  0
 20 23  1  0  0  0  0
 23 24  1  0  0  0  0
 23 25  1  0  0  0  0
 26 27  2  0  0  0  0
 26 28  1  0  0  0  0
 28 29  1  0  0  0  0
 28 30  1  0  0  0  0
 30 31  1  0  0  0  0
 30 32  1  0  0  0  0
 30 33  1  0  0  0  0
M  END
$$$$

  -OEChem-03222214063D

 33 32  0     1  0  0  0  0  0999 V2000
   -4.0452   -3.7443    2.3535 H   0  0  0  0  0  0  0  0  0  0  0  0
   -4.0005   -2.7849    1.8306 C   0  0  0  0  0  0  0  0  0  0  0  0
   -4.6084   -2.0574    2.3740 H   0  0  0  0  0  0  0  0  0  0  0  0
   -4.4086   -2.9127    0.8250 H   0  0  0  0  0  0  0  0  0  0  0  0
   -2.5656   -2.2995    1.7483 C   0  0  0  0  0  0  0  0  0  0  0  0
   -1.6757   -2.9289    2.2998 O   0  0  0  0  0  0  0  0  0  0  0  0
   -2.2780   -1.1439    1.0512 N   0  0  0  0  0  0  0  0  0  0  0  0
   -3.0611   -0.6215    0.6620 H   0  0  0  0  0  0  0  0  0  0  0  0
   -0.9477   -0.5318    0.9364 C   0  0  1  0  0  0  0  0  0  0  0  0
   -0.3060   -0.9400    1.7236 H   0  0  0  0  0  0  0  0  0  0  0  0
   -0.2216   -0.7480   -0.4187 C   0  0  0  0  0  0  0  0  0  0  0  0
   -0.6816   -0.0740   -1.1501 H   0  0  0  0  0  0  0  0  0  0  0  0
    0.8159   -0.4218   -0.2934 H   0  0  0  0  0  0  0  0  0  0  0  0
   -0.1963   -2.1449   -1.0777 C   0  0  0  0  0  0  0  0  0  0  0  0
    0.3941   -2.0522   -1.9952 H   0  0  0  0  0  0  0  0  0  0  0  0
    0.3355   -2.8372   -0.4166 H   0  0  0  0  0  0  0  0  0  0  0  0
   -1.5582   -2.7628   -1.4331 C   0  0  0  0  0  0  0  0  0  0  0  0
   -1.9874   -3.2541   -0.5604 H   0  0  0  0  0  0  0  0  0  0  0  0
   -2.2466   -1.9805   -1.7688 H   0  0  0  0  0  0  0  0  0  0  0  0
   -1.4088   -3.8052   -2.5374 C   0  0  0  0  0  0  0  0  0  0  0  0
   -1.0305   -3.3327   -3.4508 H   0  0  0  0  0  0  0  0  0  0  0  0
   -0.6930   -4.5760   -2.2305 H   0  0  0  0  0  0  0  0  0  0  0  0
   -2.7201   -4.4091   -2.7934 N   0  0  0  0  0  0  0  0  0  0  0  0
   -2.6666   -5.0999   -3.5420 H   0  0  0  0  0  0  0  0  0  0  0  0
   -3.1014   -4.8244   -1.9435 H   0  0  0  0  0  0  0  0  0  0  0  0
   -1.0622    0.9891    1.1671 C   0  0  0  0  0  0  0  0  0  0  0  0
   -1.9897    1.6188    0.6702 O   0  0  0  0  0  0  0  0  0  0  0  0
   -0.1573    1.6442    1.9824 N   0  0  0  0  0  0  0  0  0  0  0  0
    0.5531    1.0824    2.4428 H   0  0  0  0  0  0  0  0  0  0  0  0
   -0.2587    3.0607    2.3118 C   0  0  0  0  0  0  0  0  0  0  0  0
   -1.1747    3.2570    2.8787 H   0  0  0  0  0  0  0  0  0  0  0  0
    0.5978    3.3708    2.9180 H   0  0  0  0  0  0  0  0  0  0  0  0
   -0.2723    3.6668    1.3998 H   0  0  0  0  0  0  0  0  0  0  0  0
  1  2  1  0  0  0  0
  2  3  1  0  0  0  0
  2  4  1  0  0  0  0
  2  5  1  0  0  0  0
  5  6  2  0  0  0  0
  5  7  1  0  0  0  0
  7  8  1  0  0  0  0
  7  9  1  0  0  0  0
  9 10  1  0  0  0  0
  9 11  1  0  0  0  0
  9 26  1  0  0  0  0
 11 12  1  0  0  0  0
 11 13  1  0  0  0  0
 11 14  1  0  0  0  0
 14 15  1  0  0  0  0
 14 16  1  0  0  0  0
 14 17  1  0  0  0  0
 17 18  1  0  0  0  0
 17 19  1  0  0  0  0
 17 20  1  0  0  0  0
 20 21  1  0  0  0  0
 20 22  1  0  0  0  0
 20 23  1  0  0  0  0
 23 24  1  0  0  0  0
 23 25  1  0  0  0  0
 26 27  2  0  0  0  0
 26 28  1  0  0  0  0
 28 29  1  0  0  0  0
 28 30  1  0  0  0  0
 30 31  1  0  0  0  0
 30 32  1  0  0  0  0
 30 33  1  0  0  0  0
M  END
$$$$

  -OEChem-03222214063D

 33 32  0     1  0  0  0  0  0999 V2000
   -3.9274   -3.8641    2.1547 H   0  0  0  0  0  0  0  0  0  0  0  0
   -3.9168   -2.8742    1.6904 C   0  0  0  0  0  0  0  0  0  0  0  0
   -4.5043   -2.1890    2.3063 H   0  0  0  0  0  0  0  0  0  0  0  0
   -4.3731   -2.9448    0.7002 H   0  0  0  0  0  0  0  0  0  0  0  0
   -2.4918   -2.3678    1.5684 C   0  0  0  0  0  0  0  0  0  0  0  0
   -1.5688   -3.0282    2.0197 O   0  0  0  0  0  0  0  0  0  0  0  0
   -2.2512   -1.1587    0.9485 N   0  0  0  0  0  0  0  0  0  0  0  0
   -3.0587   -0.6144    0.6491 H   0  0  0  0  0  0  0  0  0  0  0  0
   -0.9388   -0.5087    0.8457 C   0  0  1  0  0  0  0  0  0  0  0  0
   -0.2727   -0.9529    1.5925 H   0  0  0  0  0  0  0  0  0  0  0  0
   -0.2463   -0.6497   -0.5329 C   0  0  0  0  0  0  0  0  0  0  0  0
   -0.7164    0.0521   -1.2303 H   0  0  0  0  0  0  0  0  0  0  0  0
    0.7946   -0.3323   -0.4129 H   0  0  0  0  0  0  0  0  0  0  0  0
   -0.2420   -2.0379   -1.2075 C   0  0  0  0  0  0  0  0  0  0  0  0
    0.5123   -2.0141   -2.0008 H   0  0  0  0  0  0  0  0  0  0  0  0
    0.0745   -2.7891   -0.4760 H   0  0  0  0  0  0  0  0  0  0  0  0
   -1.5795   -2.4718   -1.8336 C   0  0  0  0  0  0  0  0  0  0  0  0
   -2.3309   -2.6665   -1.0702 H   0  0  0  0  0  0  0  0  0  0  0  0
   -1.9557   -1.6736   -2.4817 H   0  0  0  0  0  0  0  0  0  0  0  0
   -1.3921   -3.7423   -2.6578 C   0  0  0  0  0  0  0  0  0  0  0  0
   -0.6702   -3.5646   -3.4626 H   0  0  0  0  0  0  0  0  0  0  0  0
   -1.0030   -4.5463   -2.0233 H   0  0  0  0  0  0  0  0  0  0  0  0
   -2.6875   -4.1303   -3.2251 N   0  0  0  0  0  0  0  0  0  0  0  0
   -2.5999   -4.9638   -3.8065 H   0  0  0  0  0  0  0  0  0  0  0  0
   -3.3798   -4.2720   -2.4903 H   0  0  0  0  0  0  0  0  0  0  0  0
   -1.0690    0.9901    1.1838 C   0  0  0  0  0  0  0  0  0  0  0  0
   -2.0257    1.6326    0.7654 O   0  0  0  0  0  0  0  0  0  0  0  0
   -0.1525    1.6023    2.0190 N   0  0  0  0  0  0  0  0  0  0  0  0
    0.5861    1.0250    2.4107 H   0  0  0  0  0  0  0  0  0  0  0  0
   -0.2608    2.9925    2.4434 C   0  0  0  0  0  0  0  0  0  0  0  0
   -1.1598    3.1376    3.0513 H   0  0  0  0  0  0  0  0  0  0  0  0
    0.6117    3.2742    3.0405 H   0  0  0  0  0  0  0  0  0  0  0  0
   -0.3116    3.6565    1.5739 H   0  0  0  0  0  0  0  0  0  0  0  0
  1  2  1  0  0  0  0
  2  3  1  0  0  0  0
  2  4  1  0  0  0  0
  2  5  1  0  0  0  0
  5  6  2  0  0  0  0
  5  7  1  0  0  0  0
  7  8  1  0  0  0  0
  7  9  1  0  0  0  0
  9 10  1  0  0  0  0
  9 11  1  0  0  0  0
  9 26  1  0  0  0  0
 11 12  1  0  0  0  0
 11 13  1  0  0  0  0
 11 14  1  0  0  0  0
 14 15  1  0  0  0  0
 14 16  1  0  0  0  0
 14 17  1  0  0  0  0
 17 18  1  0  0  0  0
 17 19  1  0  0  0  0
 17 20  1  0  0  0  0
 20 21  1  0  0  0  0
 20 22  1  0  0  0  0
 20 23  1  0  0  0  0
 23 24  1  0  0  0  0
 23 25  1  0  0  0  0
 26 27  2  0  0  0  0
 26 28  1  0  0  0  0
 28 29  1  0  0  0  0
 28 30  1  0  0  0  0
 30 31  1  0  0  0  0
 30 32  1  0  0  0  0
 30 33  1  0  0  0  0
M  END
$$$$

  -OEChem-03222214063D

 33 32  0     1  0  0  0  0  0999 V2000
   -3.7722   -4.0063    1.8696 H   0  0  0  0  0  0  0  0  0  0  0  0
   -3.7776   -3.0258    1.3851 C   0  0  0  0  0  0  0  0  0  0  0  0
   -4.4570   -2.3667    1.9309 H   0  0  0  0  0  0  0  0  0  0  0  0
   -4.1379   -3.1408    0.3599 H   0  0  0  0  0  0  0  0  0  0  0  0
   -2.3794   -2.4376    1.3779 C   0  0  0  0  0  0  0  0  0  0  0  0
   -1.4499   -3.0726    1.8513 O   0  0  0  0  0  0  0  0  0  0  0  0
   -2.1678   -1.1926    0.8231 N   0  0  0  0  0  0  0  0  0  0  0  0
   -2.9854   -0.6747    0.5056 H   0  0  0  0  0  0  0  0  0  0  0  0
   -0.8791   -0.4874    0.7753 C   0  0  1  0  0  0  0  0  0  0  0  0
   -0.2019   -0.9432    1.5049 H   0  0  0  0  0  0  0  0  0  0  0  0
   -0.1999   -0.5673   -0.6123 C   0  0  0  0  0  0  0  0  0  0  0  0
   -0.6828    0.1401   -1.2955 H   0  0  0  0  0  0  0  0  0  0  0  0
    0.8388   -0.2417   -0.4947 H   0  0  0  0  0  0  0  0  0  0  0  0
   -0.2001   -1.9623   -1.2668 C   0  0  0  0  0  0  0  0  0  0  0  0
    0.6879   -2.0450   -1.9021 H   0  0  0  0  0  0  0  0  0  0  0  0
   -0.1154   -2.7325   -0.4936 H   0  0  0  0  0  0  0  0  0  0  0  0
   -1.4360   -2.2169   -2.1458 C   0  0  0  0  0  0  0  0  0  0  0  0
   -2.3565   -2.0508   -1.5828 H   0  0  0  0  0  0  0  0  0  0  0  0
   -1.4324   -1.5178   -2.9885 H   0  0  0  0  0  0  0  0  0  0  0  0
   -1.4287   -3.6481   -2.6732 C   0  0  0  0  0  0  0  0  0  0  0  0
   -0.5106   -3.8353   -3.2411 H   0  0  0  0  0  0  0  0  0  0  0  0
   -1.4613   -4.3551   -1.8364 H   0  0  0  0  0  0  0  0  0  0  0  0
   -2.5970   -3.8346   -3.5393 N   0  0  0  0  0  0  0  0  0  0  0  0
   -2.6304   -4.7825   -3.9145 H   0  0  0  0  0  0  0  0  0  0  0  0
   -3.4599   -3.6069   -3.0467 H   0  0  0  0  0  0  0  0  0  0  0  0
   -1.0577    0.9895    1.1782 C   0  0  0  0  0  0  0  0  0  0  0  0
   -2.0215    1.6238    0.7642 O   0  0  0  0  0  0  0  0  0  0  0  0
   -0.1730    1.5906    2.0546 N   0  0  0  0  0  0  0  0  0  0  0  0
    0.5769    1.0190    2.4328 H   0  0  0  0  0  0  0  0  0  0  0  0
   -0.3284    2.9586    2.5340 C   0  0  0  0  0  0  0  0  0  0  0  0
   -1.2740    3.0698    3.0749 H   0  0  0  0  0  0  0  0  0  0  0  0
    0.4905    3.2172    3.2120 H   0  0  0  0  0  0  0  0  0  0  0  0
   -0.3175    3.6622    1.6950 H   0  0  0  0  0  0  0  0  0  0  0  0
  1  2  1  0  0  0  0
  2  3  1  0  0  0  0
  2  4  1  0  0  0  0
  2  5  1  0  0  0  0
  5  6  2  0  0  0  0
  5  7  1  0  0  0  0
  7  8  1  0  0  0  0
  7  9  1  0  0  0  0
  9 10  1  0  0  0  0
  9 11  1  0  0  0  0
  9 26  1  0  0  0  0
 11 12  1  0  0  0  0
 11 13  1  0  0  0  0
 11 14  1  0  0  0  0
 14 15  1  0  0  0  0
 14 16  1  0  0  0  0
 14 17  1  0  0  0  0
 17 18  1  0  0  0  0
 17 19  1  0  0  0  0
 17 20  1  0  0  0  0
 20 21  1  0  0  0  0
 20 22  1  0  0  0  0
 20 23  1  0  0  0  0
 23 24  1  0  0  0  0
 23 25  1  0  0  0  0
 26 27  2  0  0  0  0
 26 28  1  0  0  0  0
 28 29  1  0  0  0  0
 28 30  1  0  0  0  0
 30 31  1  0  0  0  0
 30 32  1  0  0  0  0
 30 33  1  0  0  0  0
M  END
$$$$

  -OEChem-03222214063D

 33 32  0     1  0  0  0  0  0999 V2000
   -3.7679   -4.0263    1.8314 H   0  0  0  0  0  0  0  0  0  0  0  0
   -3.7628   -3.0498    1.3394 C   0  0  0  0  0  0  0  0  0  0  0  0
   -4.4634   -2.3904    1.8573 H   0  0  0  0  0  0  0  0  0  0  0  0
   -4.0881   -3.1751    0.3039 H   0  0  0  0  0  0  0  0  0  0  0  0
   -2.3684   -2.4536    1.3744 C   0  0  0  0  0  0  0  0  0  0  0  0
   -1.4558   -3.0694    1.9030 O   0  0  0  0  0  0  0  0  0  0  0  0
   -2.1435   -1.2155    0.8093 N   0  0  0  0  0  0  0  0  0  0  0  0
   -2.9528   -0.7102    0.4527 H   0  0  0  0  0  0  0  0  0  0  0  0
   -0.8554   -0.5032    0.7816 C   0  0  1  0  0  0  0  0  0  0  0  0
   -0.1825   -0.9515    1.5198 H   0  0  0  0  0  0  0  0  0  0  0  0
   -0.1788   -0.5888   -0.6051 C   0  0  0  0  0  0  0  0  0  0  0  0
   -0.6620    0.1187   -1.2881 H   0  0  0  0  0  0  0  0  0  0  0  0
    0.8606   -0.2630   -0.4938 H   0  0  0  0  0  0  0  0  0  0  0  0
   -0.1862   -1.9925   -1.2425 C   0  0  0  0  0  0  0  0  0  0  0  0
    0.8043   -2.1813   -1.6696 H   0  0  0  0  0  0  0  0  0  0  0  0
   -0.3558   -2.7662   -0.4893 H   0  0  0  0  0  0  0  0  0  0  0  0
   -1.2178   -2.0947   -2.3730 C   0  0  0  0  0  0  0  0  0  0  0  0
   -2.2098   -1.8340   -1.9916 H   0  0  0  0  0  0  0  0  0  0  0  0
   -0.9646   -1.3858   -3.1684 H   0  0  0  0  0  0  0  0  0  0  0  0
   -1.2531   -3.5079   -2.9453 C   0  0  0  0  0  0  0  0  0  0  0  0
   -0.2622   -3.7855   -3.3214 H   0  0  0  0  0  0  0  0  0  0  0  0
   -1.5324   -4.2225   -2.1630 H   0  0  0  0  0  0  0  0  0  0  0  0
   -2.2305   -3.5449   -4.0375 N   0  0  0  0  0  0  0  0  0  0  0  0
   -2.2789   -4.4724   -4.4593 H   0  0  0  0  0  0  0  0  0  0  0  0
   -3.1499   -3.2406   -3.7186 H   0  0  0  0  0  0  0  0  0  0  0  0
   -1.0485    0.9783    1.1609 C   0  0  0  0  0  0  0  0  0  0  0  0
   -2.0067    1.6025    0.7191 O   0  0  0  0  0  0  0  0  0  0  0  0
   -0.1861    1.5944    2.0488 N   0  0  0  0  0  0  0  0  0  0  0  0
    0.5618    1.0329    2.4459 H   0  0  0  0  0  0  0  0  0  0  0  0
   -0.3544    2.9695    2.5024 C   0  0  0  0  0  0  0  0  0  0  0  0
   -1.3094    3.0859    3.0252 H   0  0  0  0  0  0  0  0  0  0  0  0
    0.4520    3.2427    3.1895 H   0  0  0  0  0  0  0  0  0  0  0  0
   -0.3316    3.6590    1.6520 H   0  0  0  0  0  0  0  0  0  0  0  0
  1  2  1  0  0  0  0
  2  3  1  0  0  0  0
  2  4  1  0  0  0  0
  2  5  1  0  0  0  0
  5  6  2  0  0  0  0
  5  7  1  0  0  0  0
  7  8  1  0  0  0  0
  7  9  1  0  0  0  0
  9 10  1  0  0  0  0
  9 11  1  0  0  0  0
  9 26  1  0  0  0  0
 11 12  1  0  0  0  0
 11 13  1  0  0  0  0
 11 14  1  0  0  0  0
 14 15  1  0  0  0  0
 14 16  1  0  0  0  0
 14 17  1  0  0  0  0
 17 18  1  0  0  0  0
 17 19  1  0  0  0  0
 17 20  1  0  0  0  0
 20 21  1  0  0  0  0
 20 22  1  0  0  0  0
 20 23  1  0  0  0  0
 23 24  1  0  0  0  0
 23 25  1  0  0  0  0
 26 27  2  0  0  0  0
 26 28  1  0  0  0  0
 28 29  1  0  0  0  0
 28 30  1  0  0  0  0
 30 31  1  0  0  0  0
 30 32  1  0  0  0  0
 30 33  1  0  0  0  0
M  END
$$$$

  -OEChem-03222214063D

 33 32  0     1  0  0  0  0  0999 V2000
   -3.8090   -3.9972    1.9240 H   0  0  0  0  0  0  0  0  0  0  0  0
   -3.8008   -3.0276    1.4181 C   0  0  0  0  0  0  0  0  0  0  0  0
   -4.4772   -2.3498    1.9444 H   0  0  0  0  0  0  0  0  0  0  0  0
   -4.1548   -3.1615    0.3931 H   0  0  0  0  0  0  0  0  0  0  0  0
   -2.3969   -2.4536    1.4099 C   0  0  0  0  0  0  0  0  0  0  0  0
   -1.4808   -3.0760    1.9246 O   0  0  0  0  0  0  0  0  0  0  0  0
   -2.1677   -1.2229    0.8302 N   0  0  0  0  0  0  0  0  0  0  0  0
   -2.9778   -0.7086    0.4887 H   0  0  0  0  0  0  0  0  0  0  0  0
   -0.8741   -0.5212    0.7873 C   0  0  1  0  0  0  0  0  0  0  0  0
   -0.2015   -0.9668    1.5271 H   0  0  0  0  0  0  0  0  0  0  0  0
   -0.1948   -0.6160   -0.5985 C   0  0  0  0  0  0  0  0  0  0  0  0
   -0.6928    0.0890   -1.2740 H   0  0  0  0  0  0  0  0  0  0  0  0
    0.8418   -0.2781   -0.4996 H   0  0  0  0  0  0  0  0  0  0  0  0
   -0.1963   -2.0164   -1.2491 C   0  0  0  0  0  0  0  0  0  0  0  0
    0.8421   -2.3217   -1.4152 H   0  0  0  0  0  0  0  0  0  0  0  0
   -0.6388   -2.7664   -0.5912 H   0  0  0  0  0  0  0  0  0  0  0  0
   -0.9290   -2.0097   -2.5957 C   0  0  0  0  0  0  0  0  0  0  0  0
   -1.9610   -1.6746   -2.4494 H   0  0  0  0  0  0  0  0  0  0  0  0
   -0.4377   -1.3085   -3.2786 H   0  0  0  0  0  0  0  0  0  0  0  0
   -0.9335   -3.4030   -3.2172 C   0  0  0  0  0  0  0  0  0  0  0  0
    0.0944   -3.7540   -3.3616 H   0  0  0  0  0  0  0  0  0  0  0  0
   -1.4432   -4.1088   -2.5519 H   0  0  0  0  0  0  0  0  0  0  0  0
   -1.6250   -3.3362   -4.5083 N   0  0  0  0  0  0  0  0  0  0  0  0
   -1.6510   -4.2495   -4.9618 H   0  0  0  0  0  0  0  0  0  0  0  0
   -2.5650   -2.9555   -4.4015 H   0  0  0  0  0  0  0  0  0  0  0  0
   -1.0578    0.9647    1.1539 C   0  0  0  0  0  0  0  0  0  0  0  0
   -2.0173    1.5892    0.7151 O   0  0  0  0  0  0  0  0  0  0  0  0
   -0.1867    1.5837    2.0312 N   0  0  0  0  0  0  0  0  0  0  0  0
    0.5654    1.0238    2.4226 H   0  0  0  0  0  0  0  0  0  0  0  0
   -0.3412    2.9653    2.4698 C   0  0  0  0  0  0  0  0  0  0  0  0
   -1.2915    3.0959    2.9980 H   0  0  0  0  0  0  0  0  0  0  0  0
    0.4722    3.2403    3.1480 H   0  0  0  0  0  0  0  0  0  0  0  0
   -0.3196    3.6445    1.6112 H   0  0  0  0  0  0  0  0  0  0  0  0
  1  2  1  0  0  0  0
  2  3  1  0  0  0  0
  2  4  1  0  0  0  0
  2  5  1  0  0  0  0
  5  6  2  0  0  0  0
  5  7  1  0  0  0  0
  7  8  1  0  0  0  0
  7  9  1  0  0  0  0
  9 10  1  0  0  0  0
  9 11  1  0  0  0  0
  9 26  1  0  0  0  0
 11 12  1  0  0  0  0
 11 13  1  0  0  0  0
 11 14  1  0  0  0  0
 14 15  1  0  0  0  0
 14 16  1  0  0  0  0
 14 17  1  0  0  0  0
 17 18  1  0  0  0  0
 17 19  1  0  0  0  0
 17 20  1  0  0  0  0
 20 21  1  0  0  0  0
 20 22  1  0  0  0  0
 20 23  1  0  0  0  0
 23 24  1  0  0  0  0
 23 25  1  0  0  0  0
 26 27  2  0  0  0  0
 26 28  1  0  0  0  0
 28 29  1  0  0  0  0
 28 30  1  0  0  0  0
 30 31  1  0  0  0  0
 30 32  1  0  0  0  0
 30 33  1  0  0  0  0
M  END
$$$$

  -OEChem-03222214063D

 33 32  0     1  0  0  0  0  0999 V2000
   -3.8477   -3.9636    2.0113 H   0  0  0  0  0  0  0  0  0  0  0  0
   -3.8413   -2.9985    1.4970 C   0  0  0  0  0  0  0  0  0  0  0  0
   -4.4816   -2.3031    2.0453 H   0  0  0  0  0  0  0  0  0  0  0  0
   -4.2405   -3.1338    0.4889 H   0  0  0  0  0  0  0  0  0  0  0  0
   -2.4278   -2.4528    1.4251 C   0  0  0  0  0  0  0  0  0  0  0  0
   -1.5015   -3.0960    1.8937 O   0  0  0  0  0  0  0  0  0  0  0  0
   -2.1994   -1.2251    0.8379 N   0  0  0  0  0  0  0  0  0  0  0  0
   -3.0137   -0.6910    0.5385 H   0  0  0  0  0  0  0  0  0  0  0  0
   -0.8997   -0.5361    0.7789 C   0  0  1  0  0  0  0  0  0  0  0  0
   -0.2283   -0.9831    1.5191 H   0  0  0  0  0  0  0  0  0  0  0  0
   -0.2151   -0.6390   -0.6045 C   0  0  0  0  0  0  0  0  0  0  0  0
   -0.7342    0.0559   -1.2744 H   0  0  0  0  0  0  0  0  0  0  0  0
    0.8180   -0.2865   -0.5213 H   0  0  0  0  0  0  0  0  0  0  0  0
   -0.2146   -2.0363   -1.2631 C   0  0  0  0  0  0  0  0  0  0  0  0
    0.7819   -2.4773   -1.1565 H   0  0  0  0  0  0  0  0  0  0  0  0
   -0.9151   -2.7133   -0.7722 H   0  0  0  0  0  0  0  0  0  0  0  0
   -0.5926   -1.9522   -2.7468 C   0  0  0  0  0  0  0  0  0  0  0  0
   -1.5980   -1.5306   -2.8477 H   0  0  0  0  0  0  0  0  0  0  0  0
    0.1074   -1.2893   -3.2666 H   0  0  0  0  0  0  0  0  0  0  0  0
   -0.5552   -3.3332   -3.3943 C   0  0  0  0  0  0  0  0  0  0  0  0
    0.4444   -3.7698   -3.2907 H   0  0  0  0  0  0  0  0  0  0  0  0
   -1.2698   -3.9995   -2.8983 H   0  0  0  0  0  0  0  0  0  0  0  0
   -0.8945   -3.1925   -4.8137 N   0  0  0  0  0  0  0  0  0  0  0  0
   -0.8800   -4.0950   -5.2886 H   0  0  0  0  0  0  0  0  0  0  0  0
   -1.7976   -2.7332   -4.9311 H   0  0  0  0  0  0  0  0  0  0  0  0
   -1.0688    0.9523    1.1439 C   0  0  0  0  0  0  0  0  0  0  0  0
   -2.0319    1.5809    0.7191 O   0  0  0  0  0  0  0  0  0  0  0  0
   -0.1835    1.5665    2.0105 N   0  0  0  0  0  0  0  0  0  0  0  0
    0.5721    1.0031    2.3899 H   0  0  0  0  0  0  0  0  0  0  0  0
   -0.3195    2.9509    2.4463 C   0  0  0  0  0  0  0  0  0  0  0  0
   -1.2599    3.0906    2.9897 H   0  0  0  0  0  0  0  0  0  0  0  0
    0.5072    3.2212    3.1102 H   0  0  0  0  0  0  0  0  0  0  0  0
   -0.3056    3.6269    1.5850 H   0  0  0  0  0  0  0  0  0  0  0  0
  1  2  1  0  0  0  0
  2  3  1  0  0  0  0
  2  4  1  0  0  0  0
  2  5  1  0  0  0  0
  5  6  2  0  0  0  0
  5  7  1  0  0  0  0
  7  8  1  0  0  0  0
  7  9  1  0  0  0  0
  9 10  1  0  0  0  0
  9 11  1  0  0  0  0
  9 26  1  0  0  0  0
 11 12  1  0  0  0  0
 11 13  1  0  0  0  0
 11 14  1  0  0  0  0
 14 15  1  0  0  0  0
 14 16  1  0  0  0  0
 14 17  1  0  0  0  0
 17 18  1  0  0  0  0
 17 19  1  0  0  0  0
 17 20  1  0  0  0  0
 20 21  1  0  0  0  0
 20 22  1  0  0  0  0
 20 23  1  0  0  0  0
 23 24  1  0  0  0  0
 23 25  1  0  0  0  0
 26 27  2  0  0  0  0
 26 28  1  0  0  0  0
 28 29  1  0  0  0  0
 28 30  1  0  0  0  0
 30 31  1  0  0  0  0
 30 32  1  0  0  0  0
 30 33  1  0  0  0  0
M  END
$$$$

  -OEChem-03222214063D

 33 32  0     1  0  0  0  0  0999 V2000
   -3.8534   -3.9624    1.9757 H   0  0  0  0  0  0  0  0  0  0  0  0
   -3.8480   -2.9928    1.4697 C   0  0  0  0  0  0  0  0  0  0  0  0
   -4.4848   -2.3014    2.0268 H   0  0  0  0  0  0  0  0  0  0  0  0
   -4.2518   -3.1182    0.4622 H   0  0  0  0  0  0  0  0  0  0  0  0
   -2.4336   -2.4493    1.3954 C   0  0  0  0  0  0  0  0  0  0  0  0
   -1.5051   -3.1029    1.8443 O   0  0  0  0  0  0  0  0  0  0  0  0
   -2.2048   -1.2173    0.8176 N   0  0  0  0  0  0  0  0  0  0  0  0
   -3.0191   -0.6748    0.5332 H   0  0  0  0  0  0  0  0  0  0  0  0
   -0.9029   -0.5324    0.7641 C   0  0  1  0  0  0  0  0  0  0  0  0
   -0.2361   -0.9855    1.5051 H   0  0  0  0  0  0  0  0  0  0  0  0
   -0.2134   -0.6377   -0.6164 C   0  0  0  0  0  0  0  0  0  0  0  0
   -0.7380    0.0499   -1.2892 H   0  0  0  0  0  0  0  0  0  0  0  0
    0.8201   -0.2853   -0.5384 H   0  0  0  0  0  0  0  0  0  0  0  0
   -0.2208   -2.0373   -1.2657 C   0  0  0  0  0  0  0  0  0  0  0  0
    0.6527   -2.5998   -0.9198 H   0  0  0  0  0  0  0  0  0  0  0  0
   -1.1087   -2.6032   -0.9773 H   0  0  0  0  0  0  0  0  0  0  0  0
   -0.2226   -1.9304   -2.7957 C   0  0  0  0  0  0  0  0  0  0  0  0
   -1.1174   -1.3947   -3.1289 H   0  0  0  0  0  0  0  0  0  0  0  0
    0.6547   -1.3634   -3.1245 H   0  0  0  0  0  0  0  0  0  0  0  0
   -0.1953   -3.3154   -3.4352 C   0  0  0  0  0  0  0  0  0  0  0  0
    0.7005   -3.8592   -3.1156 H   0  0  0  0  0  0  0  0  0  0  0  0
   -1.0727   -3.8917   -3.1212 H   0  0  0  0  0  0  0  0  0  0  0  0
   -0.1902   -3.1571   -4.8926 N   0  0  0  0  0  0  0  0  0  0  0  0
   -0.1665   -4.0622   -5.3622 H   0  0  0  0  0  0  0  0  0  0  0  0
   -0.9903   -2.6062   -5.2033 H   0  0  0  0  0  0  0  0  0  0  0  0
   -1.0653    0.9538    1.1408 C   0  0  0  0  0  0  0  0  0  0  0  0
   -2.0274    1.5880    0.7217 O   0  0  0  0  0  0  0  0  0  0  0  0
   -0.1786    1.5598    2.0119 N   0  0  0  0  0  0  0  0  0  0  0  0
    0.5770    0.9929    2.3863 H   0  0  0  0  0  0  0  0  0  0  0  0
   -0.3090    2.9433    2.4527 C   0  0  0  0  0  0  0  0  0  0  0  0
   -1.2533    3.0882    2.9881 H   0  0  0  0  0  0  0  0  0  0  0  0
    0.5134    3.2054    3.1252 H   0  0  0  0  0  0  0  0  0  0  0  0
   -0.2824    3.6224    1.5939 H   0  0  0  0  0  0  0  0  0  0  0  0
  1  2  1  0  0  0  0
  2  3  1  0  0  0  0
  2  4  1  0  0  0  0
  2  5  1  0  0  0  0
  5  6  2  0  0  0  0
  5  7  1  0  0  0  0
  7  8  1  0  0  0  0
  7  9  1  0  0  0  0
  9 10  1  0  0  0  0
  9 11  1  0  0  0  0
  9 26  1  0  0  0  0
 11 12  1  0  0  0  0
 11 13  1  0  0  0  0
 11 14  1  0  0  0  0
 14 15  1  0  0  0  0
 14 16  1  0  0  0  0
 14 17  1  0  0  0  0
 17 18  1  0  0  0  0
 17 19  1  0  0  0  0
 17 20  1  0  0  0  0
 20 21  1  0  0  0  0
 20 22  1  0  0  0  0
 20 23  1  0  0  0  0
 23 24  1  0  0  0  0
 23 25  1  0  0  0  0
 26 27  2  0  0  0  0
 26 28  1  0  0  0  0
 28 29  1  0  0  0  0
 28 30  1  0  0  0  0
 30 31  1  0  0  0  0
 30 32  1  0  0  0  0
 30 33  1  0  0  0  0
M  END
$$$$

  -OEChem-03222214063D

 33 32  0     1  0  0  0  0  0999 V2000
   -3.8470   -3.9640    1.9109 H   0  0  0  0  0  0  0  0  0  0  0  0
   -3.8384   -2.9906    1.4129 C   0  0  0  0  0  0  0  0  0  0  0  0
   -4.4763   -2.3028    1.9733 H   0  0  0  0  0  0  0  0  0  0  0  0
   -4.2387   -3.1076    0.4030 H   0  0  0  0  0  0  0  0  0  0  0  0
   -2.4233   -2.4483    1.3484 C   0  0  0  0  0  0  0  0  0  0  0  0
   -1.4953   -3.1094    1.7876 O   0  0  0  0  0  0  0  0  0  0  0  0
   -2.1941   -1.2101    0.7848 N   0  0  0  0  0  0  0  0  0  0  0  0
   -3.0084   -0.6626    0.5106 H   0  0  0  0  0  0  0  0  0  0  0  0
   -0.8937   -0.5229    0.7485 C   0  0  1  0  0  0  0  0  0  0  0  0
   -0.2303   -0.9824    1.4885 H   0  0  0  0  0  0  0  0  0  0  0  0
   -0.2034   -0.6243   -0.6292 C   0  0  0  0  0  0  0  0  0  0  0  0
   -0.7191    0.0618   -1.3103 H   0  0  0  0  0  0  0  0  0  0  0  0
    0.8332   -0.2822   -0.5432 H   0  0  0  0  0  0  0  0  0  0  0  0
   -0.2247   -2.0281   -1.2609 C   0  0  0  0  0  0  0  0  0  0  0  0
    0.4737   -2.6799   -0.7252 H   0  0  0  0  0  0  0  0  0  0  0  0
   -1.2208   -2.4720   -1.1872 H   0  0  0  0  0  0  0  0  0  0  0  0
    0.1416   -1.9510   -2.7468 C   0  0  0  0  0  0  0  0  0  0  0  0
   -0.5802   -1.3175   -3.2727 H   0  0  0  0  0  0  0  0  0  0  0  0
    1.1326   -1.4988   -2.8577 H   0  0  0  0  0  0  0  0  0  0  0  0
    0.1480   -3.3407   -3.3756 C   0  0  0  0  0  0  0  0  0  0  0  0
    0.8790   -3.9798   -2.8676 H   0  0  0  0  0  0  0  0  0  0  0  0
   -0.8394   -3.8044   -3.2718 H   0  0  0  0  0  0  0  0  0  0  0  0
    0.4975   -3.2086   -4.7932 N   0  0  0  0  0  0  0  0  0  0  0  0
    0.5205   -4.1182   -5.2541 H   0  0  0  0  0  0  0  0  0  0  0  0
   -0.1431   -2.5744   -5.2705 H   0  0  0  0  0  0  0  0  0  0  0  0
   -1.0572    0.9593    1.1378 C   0  0  0  0  0  0  0  0  0  0  0  0
   -2.0126    1.5996    0.7130 O   0  0  0  0  0  0  0  0  0  0  0  0
   -0.1766    1.5562    2.0210 N   0  0  0  0  0  0  0  0  0  0  0  0
    0.5732    0.9839    2.3989 H   0  0  0  0  0  0  0  0  0  0  0  0
   -0.3068    2.9367    2.4706 C   0  0  0  0  0  0  0  0  0  0  0  0
   -1.2552    3.0803    2.9989 H   0  0  0  0  0  0  0  0  0  0  0  0
    0.5106    3.1911    3.1522 H   0  0  0  0  0  0  0  0  0  0  0  0
   -0.2711    3.6219    1.6170 H   0  0  0  0  0  0  0  0  0  0  0  0
  1  2  1  0  0  0  0
  2  3  1  0  0  0  0
  2  4  1  0  0  0  0
  2  5  1  0  0  0  0
  5  6  2  0  0  0  0
  5  7  1  0  0  0  0
  7  8  1  0  0  0  0
  7  9  1  0  0  0  0
  9 10  1  0  0  0  0
  9 11  1  0  0  0  0
  9 26  1  0  0  0  0
 11 12  1  0  0  0  0
 11 13  1  0  0  0  0
 11 14  1  0  0  0  0
 14 15  1  0  0  0  0
 14 16  1  0  0  0  0
 14 17  1  0  0  0  0
 17 18  1  0  0  0  0
 17 19  1  0  0  0  0
 17 20  1  0  0  0  0
 20 21  1  0  0  0  0
 20 22  1  0  0  0  0
 20 23  1  0  0  0  0
 23 24  1  0  0  0  0
 23 25  1  0  0  0  0
 26 27  2  0  0  0  0
 26 28  1  0  0  0  0
 28 29  1  0  0  0  0
 28 30  1  0  0  0  0
 30 31  1  0  0  0  0
 30 32  1  0  0  0  0
 30 33  1  0  0  0  0
M  END
$$$$

  -OEChem-03222214063D

 33 32  0     1  0  0  0  0  0999 V2000
   -3.8261   -3.9819    1.9035 H   0  0  0  0  0  0  0  0  0  0  0  0
   -3.8314   -3.0067    1.4085 C   0  0  0  0  0  0  0  0  0  0  0  0
   -4.4726   -2.3274    1.9754 H   0  0  0  0  0  0  0  0  0  0  0  0
   -4.2375   -3.1251    0.4011 H   0  0  0  0  0  0  0  0  0  0  0  0
   -2.4227   -2.4487    1.3356 C   0  0  0  0  0  0  0  0  0  0  0  0
   -1.4843   -3.1077    1.7548 O   0  0  0  0  0  0  0  0  0  0  0  0
   -2.2110   -1.2006    0.7869 N   0  0  0  0  0  0  0  0  0  0  0  0
   -3.0330   -0.6556    0.5320 H   0  0  0  0  0  0  0  0  0  0  0  0
   -0.9137   -0.5065    0.7333 C   0  0  1  0  0  0  0  0  0  0  0  0
   -0.2433   -0.9750    1.4610 H   0  0  0  0  0  0  0  0  0  0  0  0
   -0.2318   -0.6033   -0.6524 C   0  0  0  0  0  0  0  0  0  0  0  0
   -0.5533    0.2486   -1.2622 H   0  0  0  0  0  0  0  0  0  0  0  0
    0.8516   -0.5195   -0.5178 H   0  0  0  0  0  0  0  0  0  0  0  0
   -0.5536   -1.8838   -1.4404 C   0  0  0  0  0  0  0  0  0  0  0  0
   -0.2437   -2.7573   -0.8567 H   0  0  0  0  0  0  0  0  0  0  0  0
   -1.6311   -1.9563   -1.6190 H   0  0  0  0  0  0  0  0  0  0  0  0
    0.1702   -1.8784   -2.7910 C   0  0  0  0  0  0  0  0  0  0  0  0
   -0.1560   -1.0147   -3.3793 H   0  0  0  0  0  0  0  0  0  0  0  0
    1.2498   -1.7908   -2.6309 H   0  0  0  0  0  0  0  0  0  0  0  0
   -0.1199   -3.1602   -3.5654 C   0  0  0  0  0  0  0  0  0  0  0  0
    0.2202   -4.0300   -2.9922 H   0  0  0  0  0  0  0  0  0  0  0  0
   -1.1979   -3.2632   -3.7320 H   0  0  0  0  0  0  0  0  0  0  0  0
    0.5854   -3.0989   -4.8493 N   0  0  0  0  0  0  0  0  0  0  0  0
    0.4260   -3.9427   -5.3996 H   0  0  0  0  0  0  0  0  0  0  0  0
    0.3188   -2.2661   -5.3742 H   0  0  0  0  0  0  0  0  0  0  0  0
   -1.0655    0.9699    1.1478 C   0  0  0  0  0  0  0  0  0  0  0  0
   -2.0281    1.6178    0.7523 O   0  0  0  0  0  0  0  0  0  0  0  0
   -0.1635    1.5523    2.0190 N   0  0  0  0  0  0  0  0  0  0  0  0
    0.5939    0.9732    2.3707 H   0  0  0  0  0  0  0  0  0  0  0  0
   -0.2810    2.9261    2.4921 C   0  0  0  0  0  0  0  0  0  0  0  0
   -1.2219    3.0655    3.0345 H   0  0  0  0  0  0  0  0  0  0  0  0
    0.5461    3.1658    3.1672 H   0  0  0  0  0  0  0  0  0  0  0  0
   -0.2528    3.6251    1.6496 H   0  0  0  0  0  0  0  0  0  0  0  0
  1  2  1  0  0  0  0
  2  3  1  0  0  0  0
  2  4  1  0  0  0  0
  2  5  1  0  0  0  0
  5  6  2  0  0  0  0
  5  7  1  0  0  0  0
  7  8  1  0  0  0  0
  7  9  1  0  0  0  0
  9 10  1  0  0  0  0
  9 11  1  0  0  0  0
  9 26  1  0  0  0  0
 11 12  1  0  0  0  0
 11 13  1  0  0  0  0
 11 14  1  0  0  0  0
 14 15  1  0  0  0  0
 14 16  1  0  0  0  0
 14 17  1  0  0  0  0
 17 18  1  0  0  0  0
 17 19  1  0  0  0  0
 17 20  1  0  0  0  0
 20 21  1  0  0  0  0
 20 22  1  0  0  0  0
 20 23  1  0  0  0  0
 23 24  1  0  0  0  0
 23 25  1  0  0  0  0
 26 27  2  0  0  0  0
 26 28  1  0  0  0  0
 28 29  1  0  0  0  0
 28 30  1  0  0  0  0
 30 31  1  0  0  0  0
 30 32  1  0  0  0  0
 30 33  1  0  0  0  0
M  END
$$$$

  -OEChem-03222214063D

 33 32  0     1  0  0  0  0  0999 V2000
   -3.8402   -3.9797    1.8568 H   0  0  0  0  0  0  0  0  0  0  0  0
   -3.8360   -3.0022    1.3663 C   0  0  0  0  0  0  0  0  0  0  0  0
   -4.4895   -2.3265    1.9234 H   0  0  0  0  0  0  0  0  0  0  0  0
   -4.2215   -3.1161    0.3503 H   0  0  0  0  0  0  0  0  0  0  0  0
   -2.4260   -2.4441    1.3242 C   0  0  0  0  0  0  0  0  0  0  0  0
   -1.4989   -3.0990    1.7739 O   0  0  0  0  0  0  0  0  0  0  0  0
   -2.2014   -1.1976    0.7765 N   0  0  0  0  0  0  0  0  0  0  0  0
   -3.0172   -0.6545    0.4988 H   0  0  0  0  0  0  0  0  0  0  0  0
   -0.9017   -0.5062    0.7371 C   0  0  1  0  0  0  0  0  0  0  0  0
   -0.2363   -0.9775    1.4677 H   0  0  0  0  0  0  0  0  0  0  0  0
   -0.2175   -0.5980   -0.6475 C   0  0  0  0  0  0  0  0  0  0  0  0
   -0.5178    0.2591   -1.2604 H   0  0  0  0  0  0  0  0  0  0  0  0
    0.8646   -0.5272   -0.4960 H   0  0  0  0  0  0  0  0  0  0  0  0
   -0.5443   -1.8737   -1.4403 C   0  0  0  0  0  0  0  0  0  0  0  0
   -0.4630   -2.7437   -0.7806 H   0  0  0  0  0  0  0  0  0  0  0  0
   -1.5706   -1.8253   -1.8186 H   0  0  0  0  0  0  0  0  0  0  0  0
    0.4389   -2.0544   -2.6020 C   0  0  0  0  0  0  0  0  0  0  0  0
    0.3711   -1.1945   -3.2763 H   0  0  0  0  0  0  0  0  0  0  0  0
    1.4628   -2.1031   -2.2167 H   0  0  0  0  0  0  0  0  0  0  0  0
    0.1333   -3.3342   -3.3741 C   0  0  0  0  0  0  0  0  0  0  0  0
    0.2243   -4.2021   -2.7112 H   0  0  0  0  0  0  0  0  0  0  0  0
   -0.8924   -3.3053   -3.7581 H   0  0  0  0  0  0  0  0  0  0  0  0
    1.0842   -3.4500   -4.4840 N   0  0  0  0  0  0  0  0  0  0  0  0
    0.9229   -4.3021   -5.0209 H   0  0  0  0  0  0  0  0  0  0  0  0
    1.0466   -2.6275   -5.0859 H   0  0  0  0  0  0  0  0  0  0  0  0
   -1.0559    0.9712    1.1477 C   0  0  0  0  0  0  0  0  0  0  0  0
   -2.0118    1.6212    0.7393 O   0  0  0  0  0  0  0  0  0  0  0  0
   -0.1627    1.5522    2.0289 N   0  0  0  0  0  0  0  0  0  0  0  0
    0.5888    0.9713    2.3900 H   0  0  0  0  0  0  0  0  0  0  0  0
   -0.2824    2.9258    2.5020 C   0  0  0  0  0  0  0  0  0  0  0  0
   -1.2282    3.0662    3.0359 H   0  0  0  0  0  0  0  0  0  0  0  0
    0.5389    3.1631    3.1850 H   0  0  0  0  0  0  0  0  0  0  0  0
   -0.2448    3.6255    1.6603 H   0  0  0  0  0  0  0  0  0  0  0  0
  1  2  1  0  0  0  0
  2  3  1  0  0  0  0
  2  4  1  0  0  0  0
  2  5  1  0  0  0  0
  5  6  2  0  0  0  0
  5  7  1  0  0  0  0
  7  8  1  0  0  0  0
  7  9  1  0  0  0  0
  9 10  1  0  0  0  0
  9 11  1  0  0  0  0
  9 26  1  0  0  0  0
 11 12  1  0  0  0  0
 11 13  1  0  0  0  0
 11 14  1  0  0  0  0
 14 15  1  0  0  0  0
 14 16  1  0  0  0  0
 14 17  1  0  0  0  0
 17 18  1  0  0  0  0
 17 19  1  0  0  0  0
 17 20  1  0  0  0  0
 20 21  1  0  0  0  0
 20 22  1  0  0  0  0
 20 23  1  0  0  0  0
 23 24  1  0  0  0  0
 23 25  1  0  0  0  0
 26 27  2  0  0  0  0
 26 28  1  0  0  0  0
 28 29  1  0  0  0  0
 28 30  1  0  0  0  0
 30 31  1  0  0  0  0
 30 32  1  0  0  0  0
 30 33  1  0  0  0  0
M  END
$$$$

  -OEChem-03222214063D

 33 32  0     1  0  0  0  0  0999 V2000
   -3.8777   -3.9623    1.8554 H   0  0  0  0  0  0  0  0  0  0  0  0
   -3.8598   -2.9843    1.3662 C   0  0  0  0  0  0  0  0  0  0  0  0
   -4.5112   -2.3027    1.9186 H   0  0  0  0  0  0  0  0  0  0  0  0
   -4.2379   -3.0936    0.3469 H   0  0  0  0  0  0  0  0  0  0  0  0
   -2.4445   -2.4387    1.3377 C   0  0  0  0  0  0  0  0  0  0  0  0
   -1.5295   -3.0934    1.8117 O   0  0  0  0  0  0  0  0  0  0  0  0
   -2.2039   -1.1979    0.7843 N   0  0  0  0  0  0  0  0  0  0  0  0
   -3.0125   -0.6541    0.4873 H   0  0  0  0  0  0  0  0  0  0  0  0
   -0.8992   -0.5155    0.7467 C   0  0  1  0  0  0  0  0  0  0  0  0
   -0.2381   -0.9879    1.4806 H   0  0  0  0  0  0  0  0  0  0  0  0
   -0.2093   -0.6069   -0.6363 C   0  0  0  0  0  0  0  0  0  0  0  0
   -0.4947    0.2558   -1.2482 H   0  0  0  0  0  0  0  0  0  0  0  0
    0.8707   -0.5395   -0.4691 H   0  0  0  0  0  0  0  0  0  0  0  0
   -0.5293   -1.8749   -1.4497 C   0  0  0  0  0  0  0  0  0  0  0  0
   -0.6972   -2.7183   -0.7740 H   0  0  0  0  0  0  0  0  0  0  0  0
   -1.4415   -1.7209   -2.0354 H   0  0  0  0  0  0  0  0  0  0  0  0
    0.6469   -2.2520   -2.3577 C   0  0  0  0  0  0  0  0  0  0  0  0
    0.8515   -1.4286   -3.0496 H   0  0  0  0  0  0  0  0  0  0  0  0
    1.5447   -2.4188   -1.7533 H   0  0  0  0  0  0  0  0  0  0  0  0
    0.3353   -3.5189   -3.1484 C   0  0  0  0  0  0  0  0  0  0  0  0
    0.1577   -4.3540   -2.4616 H   0  0  0  0  0  0  0  0  0  0  0  0
   -0.5692   -3.3740   -3.7494 H   0  0  0  0  0  0  0  0  0  0  0  0
    1.4765   -3.8202   -4.0181 N   0  0  0  0  0  0  0  0  0  0  0  0
    1.3193   -4.6755   -4.5509 H   0  0  0  0  0  0  0  0  0  0  0  0
    1.6817   -3.0370   -4.6380 H   0  0  0  0  0  0  0  0  0  0  0  0
   -1.0521    0.9645    1.1487 C   0  0  0  0  0  0  0  0  0  0  0  0
   -2.0047    1.6146    0.7325 O   0  0  0  0  0  0  0  0  0  0  0  0
   -0.1625    1.5479    2.0318 N   0  0  0  0  0  0  0  0  0  0  0  0
    0.5837    0.9662    2.4024 H   0  0  0  0  0  0  0  0  0  0  0  0
   -0.2833    2.9237    2.4982 C   0  0  0  0  0  0  0  0  0  0  0  0
   -1.2298    3.0665    3.0301 H   0  0  0  0  0  0  0  0  0  0  0  0
    0.5371    3.1649    3.1810 H   0  0  0  0  0  0  0  0  0  0  0  0
   -0.2452    3.6191    1.6532 H   0  0  0  0  0  0  0  0  0  0  0  0
  1  2  1  0  0  0  0
  2  3  1  0  0  0  0
  2  4  1  0  0  0  0
  2  5  1  0  0  0  0
  5  6  2  0  0  0  0
  5  7  1  0  0  0  0
  7  8  1  0  0  0  0
  7  9  1  0  0  0  0
  9 10  1  0  0  0  0
  9 11  1  0  0  0  0
  9 26  1  0  0  0  0
 11 12  1  0  0  0  0
 11 13  1  0  0  0  0
 11 14  1  0  0  0  0
 14 15  1  0  0  0  0
 14 16  1  0  0  0  0
 14 17  1  0  0  0  0
 17 18  1  0  0  0  0
 17 19  1  0  0  0  0
 17 20  1  0  0  0  0
 20 21  1  0  0  0  0
 20 22  1  0  0  0  0
 20 23  1  0  0  0  0
 23 24  1  0  0  0  0
 23 25  1  0  0  0  0
 26 27  2  0  0  0  0
 26 28  1  0  0  0  0
 28 29  1  0  0  0  0
 28 30  1  0  0  0  0
 30 31  1  0  0  0  0
 30 32  1  0  0  0  0
 30 33  1  0  0  0  0
M  END
$$$$

  -OEChem-03222214063D

 33 32  0     1  0  0  0  0  0999 V2000
   -3.9192   -3.9386    1.8833 H   0  0  0  0  0  0  0  0  0  0  0  0
   -3.8966   -2.9631    1.3894 C   0  0  0  0  0  0  0  0  0  0  0  0
   -4.5388   -2.2733    1.9422 H   0  0  0  0  0  0  0  0  0  0  0  0
   -4.2816   -3.0739    0.3728 H   0  0  0  0  0  0  0  0  0  0  0  0
   -2.4772   -2.4292    1.3507 C   0  0  0  0  0  0  0  0  0  0  0  0
   -1.5649   -3.0913    1.8194 O   0  0  0  0  0  0  0  0  0  0  0  0
   -2.2280   -1.1919    0.7921 N   0  0  0  0  0  0  0  0  0  0  0  0
   -3.0330   -0.6412    0.4982 H   0  0  0  0  0  0  0  0  0  0  0  0
   -0.9171   -0.5210    0.7506 C   0  0  1  0  0  0  0  0  0  0  0  0
   -0.2632   -0.9959    1.4892 H   0  0  0  0  0  0  0  0  0  0  0  0
   -0.2124   -0.6175   -0.6271 C   0  0  0  0  0  0  0  0  0  0  0  0
   -0.4976    0.2474   -1.2364 H   0  0  0  0  0  0  0  0  0  0  0  0
    0.8651   -0.5364   -0.4502 H   0  0  0  0  0  0  0  0  0  0  0  0
   -0.5119   -1.8779   -1.4673 C   0  0  0  0  0  0  0  0  0  0  0  0
   -0.9526   -2.6621   -0.8485 H   0  0  0  0  0  0  0  0  0  0  0  0
   -1.2292   -1.6316   -2.2571 H   0  0  0  0  0  0  0  0  0  0  0  0
    0.7755   -2.4563   -2.0676 C   0  0  0  0  0  0  0  0  0  0  0  0
    1.2461   -1.7077   -2.7128 H   0  0  0  0  0  0  0  0  0  0  0  0
    1.4793   -2.7054   -1.2662 H   0  0  0  0  0  0  0  0  0  0  0  0
    0.4776   -3.7141   -2.8786 C   0  0  0  0  0  0  0  0  0  0  0  0
    0.0446   -4.4837   -2.2296 H   0  0  0  0  0  0  0  0  0  0  0  0
   -0.2468   -3.4888   -3.6692 H   0  0  0  0  0  0  0  0  0  0  0  0
    1.7294   -4.2013   -3.4666 N   0  0  0  0  0  0  0  0  0  0  0  0
    1.5776   -5.0549   -4.0040 H   0  0  0  0  0  0  0  0  0  0  0  0
    2.1692   -3.4822   -4.0406 H   0  0  0  0  0  0  0  0  0  0  0  0
   -1.0579    0.9615    1.1482 C   0  0  0  0  0  0  0  0  0  0  0  0
   -2.0036    1.6199    0.7293 O   0  0  0  0  0  0  0  0  0  0  0  0
   -0.1616    1.5387    2.0287 N   0  0  0  0  0  0  0  0  0  0  0  0
    0.5757    0.9487    2.4040 H   0  0  0  0  0  0  0  0  0  0  0  0
   -0.2705    2.9151    2.4955 C   0  0  0  0  0  0  0  0  0  0  0  0
   -1.2143    3.0650    3.0301 H   0  0  0  0  0  0  0  0  0  0  0  0
    0.5536    3.1500    3.1761 H   0  0  0  0  0  0  0  0  0  0  0  0
   -0.2291    3.6102    1.6503 H   0  0  0  0  0  0  0  0  0  0  0  0
  1  2  1  0  0  0  0
  2  3  1  0  0  0  0
  2  4  1  0  0  0  0
  2  5  1  0  0  0  0
  5  6  2  0  0  0  0
  5  7  1  0  0  0  0
  7  8  1  0  0  0  0
  7  9  1  0  0  0  0
  9 10  1  0  0  0  0
  9 11  1  0  0  0  0
  9 26  1  0  0  0  0
 11 12  1  0  0  0  0
 11 13  1  0  0  0  0
 11 14  1  0  0  0  0
 14 15  1  0  0  0  0
 14 16  1  0  0  0  0
 14 17  1  0  0  0  0
 17 18  1  0  0  0  0
 17 19  1  0  0  0  0
 17 20  1  0  0  0  0
 20 21  1  0  0  0  0
 20 22  1  0  0  0  0
 20 23  1  0  0  0  0
 23 24  1  0  0  0  0
 23 25  1  0  0  0  0
 26 27  2  0  0  0  0
 26 28  1  0  0  0  0
 28 29  1  0  0  0  0
 28 30  1  0  0  0  0
 30 31  1  0  0  0  0
 30 32  1  0  0  0  0
 30 33  1  0  0  0  0
M  END
$$$$

  -OEChem-03222214063D

 33 32  0     1  0  0  0  0  0999 V2000
   -3.9567   -3.9125    1.8996 H   0  0  0  0  0  0  0  0  0  0  0  0
   -3.9276   -2.9380    1.4039 C   0  0  0  0  0  0  0  0  0  0  0  0
   -4.5542   -2.2393    1.9633 H   0  0  0  0  0  0  0  0  0  0  0  0
   -4.3265   -3.0449    0.3923 H   0  0  0  0  0  0  0  0  0  0  0  0
   -2.5021   -2.4223    1.3465 C   0  0  0  0  0  0  0  0  0  0  0  0
   -1.5906   -3.0982    1.7961 O   0  0  0  0  0  0  0  0  0  0  0  0
   -2.2475   -1.1850    0.7910 N   0  0  0  0  0  0  0  0  0  0  0  0
   -3.0506   -0.6245    0.5107 H   0  0  0  0  0  0  0  0  0  0  0  0
   -0.9327   -0.5234    0.7474 C   0  0  1  0  0  0  0  0  0  0  0  0
   -0.2849   -1.0034    1.4881 H   0  0  0  0  0  0  0  0  0  0  0  0
   -0.2141   -0.6217   -0.6236 C   0  0  0  0  0  0  0  0  0  0  0  0
   -0.5178    0.2412   -1.2267 H   0  0  0  0  0  0  0  0  0  0  0  0
    0.8622   -0.5164   -0.4518 H   0  0  0  0  0  0  0  0  0  0  0  0
   -0.4947   -1.8741   -1.4861 C   0  0  0  0  0  0  0  0  0  0  0  0
   -1.2015   -2.5517   -1.0054 H   0  0  0  0  0  0  0  0  0  0  0  0
   -0.9385   -1.5627   -2.4373 H   0  0  0  0  0  0  0  0  0  0  0  0
    0.8021   -2.6478   -1.7546 C   0  0  0  0  0  0  0  0  0  0  0  0
    1.5031   -2.0077   -2.3000 H   0  0  0  0  0  0  0  0  0  0  0  0
    1.2671   -2.9289   -0.8038 H   0  0  0  0  0  0  0  0  0  0  0  0
    0.5272   -3.9090   -2.5675 C   0  0  0  0  0  0  0  0  0  0  0  0
   -0.1289   -4.5814   -2.0034 H   0  0  0  0  0  0  0  0  0  0  0  0
    0.0239   -3.6498   -3.5055 H   0  0  0  0  0  0  0  0  0  0  0  0
    1.8042   -4.5730   -2.8479 N   0  0  0  0  0  0  0  0  0  0  0  0
    1.6647   -5.4371   -3.3714 H   0  0  0  0  0  0  0  0  0  0  0  0
    2.4431   -3.9479   -3.3386 H   0  0  0  0  0  0  0  0  0  0  0  0
   -1.0632    0.9584    1.1503 C   0  0  0  0  0  0  0  0  0  0  0  0
   -2.0075    1.6236    0.7390 O   0  0  0  0  0  0  0  0  0  0  0  0
   -0.1603    1.5259    2.0300 N   0  0  0  0  0  0  0  0  0  0  0  0
    0.5769    0.9304    2.3969 H   0  0  0  0  0  0  0  0  0  0  0  0
   -0.2614    2.8997    2.5059 C   0  0  0  0  0  0  0  0  0  0  0  0
   -1.2013    3.0493    3.0474 H   0  0  0  0  0  0  0  0  0  0  0  0
    0.5678    3.1272    3.1825 H   0  0  0  0  0  0  0  0  0  0  0  0
   -0.2232    3.5998    1.6648 H   0  0  0  0  0  0  0  0  0  0  0  0
  1  2  1  0  0  0  0
  2  3  1  0  0  0  0
  2  4  1  0  0  0  0
  2  5  1  0  0  0  0
  5  6  2  0  0  0  0
  5  7  1  0  0  0  0
  7  8  1  0  0  0  0
  7  9  1  0  0  0  0
  9 10  1  0  0  0  0
  9 11  1  0  0  0  0
  9 26  1  0  0  0  0
 11 12  1  0  0  0  0
 11 13  1  0  0  0  0
 11 14  1  0  0  0  0
 14 15  1  0  0  0  0
 14 16  1  0  0  0  0
 14 17  1  0  0  0  0
 17 18  1  0  0  0  0
 17 19  1  0  0  0  0
 17 20  1  0  0  0  0
 20 21  1  0  0  0  0
 20 22  1  0  0  0  0
 20 23  1  0  0  0  0
 23 24  1  0  0  0  0
 23 25  1  0  0  0  0
 26 27  2  0  0  0  0
 26 28  1  0  0  0  0
 28 29  1  0  0  0  0
 28 30  1  0  0  0  0
 30 31  1  0  0  0  0
 30 32  1  0  0  0  0
 30 33  1  0  0  0  0
M  END
$$$$

  -OEChem-03222214063D

 33 32  0     1  0  0  0  0  0999 V2000
   -3.9315   -3.9247    1.8514 H   0  0  0  0  0  0  0  0  0  0  0  0
   -3.9099   -2.9438    1.3687 C   0  0  0  0  0  0  0  0  0  0  0  0
   -4.5477   -2.2592    1.9329 H   0  0  0  0  0  0  0  0  0  0  0  0
   -4.3003   -3.0418    0.3529 H   0  0  0  0  0  0  0  0  0  0  0  0
   -2.4896   -2.4132    1.3278 C   0  0  0  0  0  0  0  0  0  0  0  0
   -1.5765   -3.0837    1.7821 O   0  0  0  0  0  0  0  0  0  0  0  0
   -2.2416   -1.1715    0.7790 N   0  0  0  0  0  0  0  0  0  0  0  0
   -3.0466   -0.6145    0.4974 H   0  0  0  0  0  0  0  0  0  0  0  0
   -0.9290   -0.5068    0.7431 C   0  0  1  0  0  0  0  0  0  0  0  0
   -0.2852   -0.9875    1.4865 H   0  0  0  0  0  0  0  0  0  0  0  0
   -0.1998   -0.6082   -0.6220 C   0  0  0  0  0  0  0  0  0  0  0  0
   -0.5243    0.2462   -1.2264 H   0  0  0  0  0  0  0  0  0  0  0  0
    0.8763   -0.4845   -0.4612 H   0  0  0  0  0  0  0  0  0  0  0  0
   -0.4726   -1.8647   -1.4808 C   0  0  0  0  0  0  0  0  0  0  0  0
   -1.3840   -2.3873   -1.1856 H   0  0  0  0  0  0  0  0  0  0  0  0
   -0.6128   -1.5500   -2.5202 H   0  0  0  0  0  0  0  0  0  0  0  0
    0.7213   -2.8257   -1.4248 C   0  0  0  0  0  0  0  0  0  0  0  0
    1.6120   -2.3278   -1.8219 H   0  0  0  0  0  0  0  0  0  0  0  0
    0.9211   -3.1017   -0.3837 H   0  0  0  0  0  0  0  0  0  0  0  0
    0.4422   -4.0902   -2.2317 C   0  0  0  0  0  0  0  0  0  0  0  0
   -0.4025   -4.6332   -1.7929 H   0  0  0  0  0  0  0  0  0  0  0  0
    0.1803   -3.8283   -3.2628 H   0  0  0  0  0  0  0  0  0  0  0  0
    1.6426   -4.9326   -2.2182 N   0  0  0  0  0  0  0  0  0  0  0  0
    1.4929   -5.7991   -2.7347 H   0  0  0  0  0  0  0  0  0  0  0  0
    2.4507   -4.4267   -2.5795 H   0  0  0  0  0  0  0  0  0  0  0  0
   -1.0619    0.9728    1.1535 C   0  0  0  0  0  0  0  0  0  0  0  0
   -2.0049    1.6395    0.7421 O   0  0  0  0  0  0  0  0  0  0  0  0
   -0.1620    1.5368    2.0388 N   0  0  0  0  0  0  0  0  0  0  0  0
    0.5706    0.9382    2.4098 H   0  0  0  0  0  0  0  0  0  0  0  0
   -0.2740    2.9037    2.5323 C   0  0  0  0  0  0  0  0  0  0  0  0
   -1.2188    3.0413    3.0686 H   0  0  0  0  0  0  0  0  0  0  0  0
    0.5488    3.1271    3.2185 H   0  0  0  0  0  0  0  0  0  0  0  0
   -0.2336    3.6154    1.7010 H   0  0  0  0  0  0  0  0  0  0  0  0
  1  2  1  0  0  0  0
  2  3  1  0  0  0  0
  2  4  1  0  0  0  0
  2  5  1  0  0  0  0
  5  6  2  0  0  0  0
  5  7  1  0  0  0  0
  7  8  1  0  0  0  0
  7  9  1  0  0  0  0
  9 10  1  0  0  0  0
  9 11  1  0  0  0  0
  9 26  1  0  0  0  0
 11 12  1  0  0  0  0
 11 13  1  0  0  0  0
 11 14  1  0  0  0  0
 14 15  1  0  0  0  0
 14 16  1  0  0  0  0
 14 17  1  0  0  0  0
 17 18  1  0  0  0  0
 17 19  1  0  0  0  0
 17 20  1  0  0  0  0
 20 21  1  0  0  0  0
 20 22  1  0  0  0  0
 20 23  1  0  0  0  0
 23 24  1  0  0  0  0
 23 25  1  0  0  0  0
 26 27  2  0  0  0  0
 26 28  1  0  0  0  0
 28 29  1  0  0  0  0
 28 30  1  0  0  0  0
 30 31  1  0  0  0  0
 30 32  1  0  0  0  0
 30 33  1  0  0  0  0
M  END
$$$$

  -OEChem-03222214063D

 33 32  0     1  0  0  0  0  0999 V2000
   -3.8971   -3.9535    1.7915 H   0  0  0  0  0  0  0  0  0  0  0  0
   -3.8734   -2.9714    1.3110 C   0  0  0  0  0  0  0  0  0  0  0  0
   -4.5490   -2.3001    1.8465 H   0  0  0  0  0  0  0  0  0  0  0  0
   -4.2161   -3.0765    0.2789 H   0  0  0  0  0  0  0  0  0  0  0  0
   -2.4632   -2.4132    1.3326 C   0  0  0  0  0  0  0  0  0  0  0  0
   -1.5630   -3.0574    1.8460 O   0  0  0  0  0  0  0  0  0  0  0  0
   -2.2137   -1.1721    0.7834 N   0  0  0  0  0  0  0  0  0  0  0  0
   -3.0141   -0.6356    0.4539 H   0  0  0  0  0  0  0  0  0  0  0  0
   -0.9063   -0.4972    0.7611 C   0  0  1  0  0  0  0  0  0  0  0  0
   -0.2619   -0.9720    1.5078 H   0  0  0  0  0  0  0  0  0  0  0  0
   -0.1776   -0.5936   -0.6046 C   0  0  0  0  0  0  0  0  0  0  0  0
   -0.5090    0.2570   -1.2105 H   0  0  0  0  0  0  0  0  0  0  0  0
    0.8995   -0.4702   -0.4513 H   0  0  0  0  0  0  0  0  0  0  0  0
   -0.4517   -1.8516   -1.4544 C   0  0  0  0  0  0  0  0  0  0  0  0
   -1.4789   -2.2081   -1.3457 H   0  0  0  0  0  0  0  0  0  0  0  0
   -0.3215   -1.5868   -2.5089 H   0  0  0  0  0  0  0  0  0  0  0  0
    0.5485   -2.9641   -1.1179 C   0  0  0  0  0  0  0  0  0  0  0  0
    1.5643   -2.6238   -1.3436 H   0  0  0  0  0  0  0  0  0  0  0  0
    0.5004   -3.1958   -0.0489 H   0  0  0  0  0  0  0  0  0  0  0  0
    0.2434   -4.2276   -1.9166 C   0  0  0  0  0  0  0  0  0  0  0  0
   -0.7390   -4.6203   -1.6313 H   0  0  0  0  0  0  0  0  0  0  0  0
    0.2213   -3.9994   -2.9879 H   0  0  0  0  0  0  0  0  0  0  0  0
    1.2827   -5.2239   -1.6391 N   0  0  0  0  0  0  0  0  0  0  0  0
    1.1082   -6.0929   -2.1431 H   0  0  0  0  0  0  0  0  0  0  0  0
    2.2100   -4.8571   -1.8513 H   0  0  0  0  0  0  0  0  0  0  0  0
   -1.0548    0.9829    1.1641 C   0  0  0  0  0  0  0  0  0  0  0  0
   -1.9893    1.6452    0.7266 O   0  0  0  0  0  0  0  0  0  0  0  0
   -0.1703    1.5577    2.0580 N   0  0  0  0  0  0  0  0  0  0  0  0
    0.5515    0.9615    2.4533 H   0  0  0  0  0  0  0  0  0  0  0  0
   -0.2952    2.9280    2.5394 C   0  0  0  0  0  0  0  0  0  0  0  0
   -1.2474    3.0653    3.0625 H   0  0  0  0  0  0  0  0  0  0  0  0
    0.5176    3.1599    3.2345 H   0  0  0  0  0  0  0  0  0  0  0  0
   -0.2468    3.6343    1.7039 H   0  0  0  0  0  0  0  0  0  0  0  0
  1  2  1  0  0  0  0
  2  3  1  0  0  0  0
  2  4  1  0  0  0  0
  2  5  1  0  0  0  0
  5  6  2  0  0  0  0
  5  7  1  0  0  0  0
  7  8  1  0  0  0  0
  7  9  1  0  0  0  0
  9 10  1  0  0  0  0
  9 11  1  0  0  0  0
  9 26  1  0  0  0  0
 11 12  1  0  0  0  0
 11 13  1  0  0  0  0
 11 14  1  0  0  0  0
 14 15  1  0  0  0  0
 14 16  1  0  0  0  0
 14 17  1  0  0  0  0
 17 18  1  0  0  0  0
 17 19  1  0  0  0  0
 17 20  1  0  0  0  0
 20 21  1  0  0  0  0
 20 22  1  0  0  0  0
 20 23  1  0  0  0  0
 23 24  1  0  0  0  0
 23 25  1  0  0  0  0
 26 27  2  0  0  0  0
 26 28  1  0  0  0  0
 28 29  1  0  0  0  0
 28 30  1  0  0  0  0
 30 31  1  0  0  0  0
 30 32  1  0  0  0  0
 30 33  1  0  0  0  0
M  END
$$$$

  -OEChem-03222214063D

 33 32  0     1  0  0  0  0  0999 V2000
   -3.8628   -3.9751    1.7956 H   0  0  0  0  0  0  0  0  0  0  0  0
   -3.8233   -3.0117    1.2795 C   0  0  0  0  0  0  0  0  0  0  0  0
   -4.5827   -2.3516    1.7056 H   0  0  0  0  0  0  0  0  0  0  0  0
   -4.0401   -3.1713    0.2206 H   0  0  0  0  0  0  0  0  0  0  0  0
   -2.4488   -2.3903    1.4381 C   0  0  0  0  0  0  0  0  0  0  0  0
   -1.6109   -2.9408    2.1338 O   0  0  0  0  0  0  0  0  0  0  0  0
   -2.1797   -1.1714    0.8502 N   0  0  0  0  0  0  0  0  0  0  0  0
   -2.9494   -0.6979    0.3817 H   0  0  0  0  0  0  0  0  0  0  0  0
   -0.8714   -0.4967    0.8305 C   0  0  1  0  0  0  0  0  0  0  0  0
   -0.2239   -0.9510    1.5873 H   0  0  0  0  0  0  0  0  0  0  0  0
   -0.1548   -0.6007   -0.5444 C   0  0  0  0  0  0  0  0  0  0  0  0
   -0.4688    0.2541   -1.1538 H   0  0  0  0  0  0  0  0  0  0  0  0
    0.9244   -0.4998   -0.3891 H   0  0  0  0  0  0  0  0  0  0  0  0
   -0.4325   -1.8531   -1.3975 C   0  0  0  0  0  0  0  0  0  0  0  0
   -1.5079   -2.0418   -1.4655 H   0  0  0  0  0  0  0  0  0  0  0  0
   -0.0766   -1.6592   -2.4147 H   0  0  0  0  0  0  0  0  0  0  0  0
    0.2930   -3.0944   -0.8611 C   0  0  0  0  0  0  0  0  0  0  0  0
    1.3724   -2.9138   -0.8640 H   0  0  0  0  0  0  0  0  0  0  0  0
   -0.0054   -3.2977    0.1694 H   0  0  0  0  0  0  0  0  0  0  0  0
   -0.0213   -4.3133   -1.7247 C   0  0  0  0  0  0  0  0  0  0  0  0
   -1.0948   -4.5297   -1.6891 H   0  0  0  0  0  0  0  0  0  0  0  0
    0.2515   -4.1141   -2.7669 H   0  0  0  0  0  0  0  0  0  0  0  0
    0.7367   -5.4617   -1.2201 N   0  0  0  0  0  0  0  0  0  0  0  0
    0.5671   -6.2956   -1.7818 H   0  0  0  0  0  0  0  0  0  0  0  0
    1.7331   -5.2514   -1.1681 H   0  0  0  0  0  0  0  0  0  0  0  0
   -1.0397    0.9967    1.1784 C   0  0  0  0  0  0  0  0  0  0  0  0
   -1.9561    1.6434    0.6824 O   0  0  0  0  0  0  0  0  0  0  0  0
   -0.1795    1.6088    2.0715 N   0  0  0  0  0  0  0  0  0  0  0  0
    0.5169    1.0246    2.5256 H   0  0  0  0  0  0  0  0  0  0  0  0
   -0.3281    2.9931    2.5040 C   0  0  0  0  0  0  0  0  0  0  0  0
   -1.2778    3.1298    3.0317 H   0  0  0  0  0  0  0  0  0  0  0  0
    0.4871    3.2673    3.1805 H   0  0  0  0  0  0  0  0  0  0  0  0
   -0.3029    3.6690    1.6427 H   0  0  0  0  0  0  0  0  0  0  0  0
  1  2  1  0  0  0  0
  2  3  1  0  0  0  0
  2  4  1  0  0  0  0
  2  5  1  0  0  0  0
  5  6  2  0  0  0  0
  5  7  1  0  0  0  0
  7  8  1  0  0  0  0
  7  9  1  0  0  0  0
  9 10  1  0  0  0  0
  9 11  1  0  0  0  0
  9 26  1  0  0  0  0
 11 12  1  0  0  0  0
 11 13  1  0  0  0  0
 11 14  1  0  0  0  0
 14 15  1  0  0  0  0
 14 16  1  0  0  0  0
 14 17  1  0  0  0  0
 17 18  1  0  0  0  0
 17 19  1  0  0  0  0
 17 20  1  0  0  0  0
 20 21  1  0  0  0  0
 20 22  1  0  0  0  0
 20 23  1  0  0  0  0
 23 24  1  0  0  0  0
 23 25  1  0  0  0  0
 26 27  2  0  0  0  0
 26 28  1  0  0  0  0
 28 29  1  0  0  0  0
 28 30  1  0  0  0  0
 30 31  1  0  0  0  0
 30 32  1  0  0  0  0
 30 33  1  0  0  0  0
M  END
$$$$

  -OEChem-03222214063D

 33 32  0     1  0  0  0  0  0999 V2000
   -3.9650   -3.8442    2.1044 H   0  0  0  0  0  0  0  0  0  0  0  0
   -3.8717   -2.9736    1.4492 C   0  0  0  0  0  0  0  0  0  0  0  0
   -4.6539   -2.2548    1.7042 H   0  0  0  0  0  0  0  0  0  0  0  0
   -4.0042   -3.2963    0.4139 H   0  0  0  0  0  0  0  0  0  0  0  0
   -2.5062   -2.3360    1.6196 C   0  0  0  0  0  0  0  0  0  0  0  0
   -1.6940   -2.8301    2.3865 O   0  0  0  0  0  0  0  0  0  0  0  0
   -2.2162   -1.1541    0.9693 N   0  0  0  0  0  0  0  0  0  0  0  0
   -2.9661   -0.7199    0.4354 H   0  0  0  0  0  0  0  0  0  0  0  0
   -0.8956   -0.5060    0.9094 C   0  0  1  0  0  0  0  0  0  0  0  0
   -0.2437   -0.9386    1.6751 H   0  0  0  0  0  0  0  0  0  0  0  0
   -0.1947   -0.6447   -0.4736 C   0  0  0  0  0  0  0  0  0  0  0  0
   -0.4777    0.2152   -1.0909 H   0  0  0  0  0  0  0  0  0  0  0  0
    0.8848   -0.5707   -0.3068 H   0  0  0  0  0  0  0  0  0  0  0  0
   -0.4617   -1.8851   -1.3482 C   0  0  0  0  0  0  0  0  0  0  0  0
   -1.5229   -1.9147   -1.6159 H   0  0  0  0  0  0  0  0  0  0  0  0
    0.1058   -1.7658   -2.2770 H   0  0  0  0  0  0  0  0  0  0  0  0
   -0.0725   -3.2213   -0.7014 C   0  0  0  0  0  0  0  0  0  0  0  0
    0.9455   -3.1544   -0.3054 H   0  0  0  0  0  0  0  0  0  0  0  0
   -0.7363   -3.4642    0.1242 H   0  0  0  0  0  0  0  0  0  0  0  0
   -0.1439   -4.3480   -1.7287 C   0  0  0  0  0  0  0  0  0  0  0  0
   -1.1451   -4.3911   -2.1718 H   0  0  0  0  0  0  0  0  0  0  0  0
    0.5772   -4.1656   -2.5332 H   0  0  0  0  0  0  0  0  0  0  0  0
    0.1559   -5.6166   -1.0594 N   0  0  0  0  0  0  0  0  0  0  0  0
    0.1769   -6.3913   -1.7220 H   0  0  0  0  0  0  0  0  0  0  0  0
    1.0292   -5.5586   -0.5354 H   0  0  0  0  0  0  0  0  0  0  0  0
   -1.0472    1.0049    1.1861 C   0  0  0  0  0  0  0  0  0  0  0  0
   -1.9524    1.6435    0.6594 O   0  0  0  0  0  0  0  0  0  0  0  0
   -0.1737    1.6439    2.0463 N   0  0  0  0  0  0  0  0  0  0  0  0
    0.5060    1.0670    2.5338 H   0  0  0  0  0  0  0  0  0  0  0  0
   -0.3034    3.0465    2.4211 C   0  0  0  0  0  0  0  0  0  0  0  0
   -1.2530    3.2187    2.9387 H   0  0  0  0  0  0  0  0  0  0  0  0
    0.5134    3.3354    3.0895 H   0  0  0  0  0  0  0  0  0  0  0  0
   -0.2642    3.6865    1.5334 H   0  0  0  0  0  0  0  0  0  0  0  0
  1  2  1  0  0  0  0
  2  3  1  0  0  0  0
  2  4  1  0  0  0  0
  2  5  1  0  0  0  0
  5  6  2  0  0  0  0
  5  7  1  0  0  0  0
  7  8  1  0  0  0  0
  7  9  1  0  0  0  0
  9 10  1  0  0  0  0
  9 11  1  0  0  0  0
  9 26  1  0  0  0  0
 11 12  1  0  0  0  0
 11 13  1  0  0  0  0
 11 14  1  0  0  0  0
 14 15  1  0  0  0  0
 14 16  1  0  0  0  0
 14 17  1  0  0  0  0
 17 18  1  0  0  0  0
 17 19  1  0  0  0  0
 17 20  1  0  0  0  0
 20 21  1  0  0  0  0
 20 22  1  0  0  0  0
 20 23  1  0  0  0  0
 23 24  1  0  0  0  0
 23 25  1  0  0  0  0
 26 27  2  0  0  0  0
 26 28  1  0  0  0  0
 28 29  1  0  0  0  0
 28 30  1  0  0  0  0
 30 31  1  0  0  0  0
 30 32  1  0  0  0  0
 30 33  1  0  0  0  0
M  END
$$$$

  -OEChem-03222214063D

 33 32  0     1  0  0  0  0  0999 V2000
   -3.5374   -4.1699    1.9457 H   0  0  0  0  0  0  0  0  0  0  0  0
   -3.5892   -3.1936    1.4556 C   0  0  0  0  0  0  0  0  0  0  0  0
   -4.4183   -2.6248    1.8828 H   0  0  0  0  0  0  0  0  0  0  0  0
   -3.7705   -3.3472    0.3896 H   0  0  0  0  0  0  0  0  0  0  0  0
   -2.2875   -2.4423    1.6581 C   0  0  0  0  0  0  0  0  0  0  0  0
   -1.4799   -2.8356    2.4864 O   0  0  0  0  0  0  0  0  0  0  0  0
   -2.0669   -1.2523    0.9927 N   0  0  0  0  0  0  0  0  0  0  0  0
   -2.8274   -0.8965    0.4181 H   0  0  0  0  0  0  0  0  0  0  0  0
   -0.7918   -0.5133    0.9364 C   0  0  1  0  0  0  0  0  0  0  0  0
   -0.1158   -0.8900    1.7108 H   0  0  0  0  0  0  0  0  0  0  0  0
   -0.0684   -0.5843   -0.4471 C   0  0  0  0  0  0  0  0  0  0  0  0
   -0.3838    0.2726   -1.0532 H   0  0  0  0  0  0  0  0  0  0  0  0
    0.9993   -0.4488   -0.2473 H   0  0  0  0  0  0  0  0  0  0  0  0
   -0.2080   -1.8118   -1.3738 C   0  0  0  0  0  0  0  0  0  0  0  0
   -1.2038   -1.7396   -1.8237 H   0  0  0  0  0  0  0  0  0  0  0  0
    0.5160   -1.7270   -2.1907 H   0  0  0  0  0  0  0  0  0  0  0  0
   -0.0715   -3.2026   -0.7335 C   0  0  0  0  0  0  0  0  0  0  0  0
   -0.2630   -3.1742    0.3331 H   0  0  0  0  0  0  0  0  0  0  0  0
    0.9649   -3.5363   -0.8436 H   0  0  0  0  0  0  0  0  0  0  0  0
   -0.9970   -4.2154   -1.4062 C   0  0  0  0  0  0  0  0  0  0  0  0
   -2.0325   -3.8597   -1.3806 H   0  0  0  0  0  0  0  0  0  0  0  0
   -0.7076   -4.3421   -2.4553 H   0  0  0  0  0  0  0  0  0  0  0  0
   -0.9017   -5.4917   -0.6938 N   0  0  0  0  0  0  0  0  0  0  0  0
   -1.4400   -6.2209   -1.1608 H   0  0  0  0  0  0  0  0  0  0  0  0
    0.0712   -5.7747   -0.5742 H   0  0  0  0  0  0  0  0  0  0  0  0
   -1.0680    0.9848    1.1902 C   0  0  0  0  0  0  0  0  0  0  0  0
   -2.0078    1.5449    0.6348 O   0  0  0  0  0  0  0  0  0  0  0  0
   -0.2615    1.7054    2.0516 N   0  0  0  0  0  0  0  0  0  0  0  0
    0.4488    1.1916    2.5654 H   0  0  0  0  0  0  0  0  0  0  0  0
   -0.5055    3.1017    2.3926 C   0  0  0  0  0  0  0  0  0  0  0  0
   -1.4747    3.2102    2.8908 H   0  0  0  0  0  0  0  0  0  0  0  0
    0.2743    3.4682    3.0671 H   0  0  0  0  0  0  0  0  0  0  0  0
   -0.5014    3.7234    1.4911 H   0  0  0  0  0  0  0  0  0  0  0  0
  1  2  1  0  0  0  0
  2  3  1  0  0  0  0
  2  4  1  0  0  0  0
  2  5  1  0  0  0  0
  5  6  2  0  0  0  0
  5  7  1  0  0  0  0
  7  8  1  0  0  0  0
  7  9  1  0  0  0  0
  9 10  1  0  0  0  0
  9 11  1  0  0  0  0
  9 26  1  0  0  0  0
 11 12  1  0  0  0  0
 11 13  1  0  0  0  0
 11 14  1  0  0  0  0
 14 15  1  0  0  0  0
 14 16  1  0  0  0  0
 14 17  1  0  0  0  0
 17 18  1  0  0  0  0
 17 19  1  0  0  0  0
 17 20  1  0  0  0  0
 20 21  1  0  0  0  0
 20 22  1  0  0  0  0
 20 23  1  0  0  0  0
 23 24  1  0  0  0  0
 23 25  1  0  0  0  0
 26 27  2  0  0  0  0
 26 28  1  0  0  0  0
 28 29  1  0  0  0  0
 28 30  1  0  0  0  0
 30 31  1  0  0  0  0
 30 32  1  0  0  0  0
 30 33  1  0  0  0  0
M  END
$$$$

  -OEChem-03222214063D

 33 32  0     1  0  0  0  0  0999 V2000
   -3.5335   -4.2017    2.0499 H   0  0  0  0  0  0  0  0  0  0  0  0
   -3.6024   -3.2030    1.6102 C   0  0  0  0  0  0  0  0  0  0  0  0
   -4.3387   -2.6178    2.1658 H   0  0  0  0  0  0  0  0  0  0  0  0
   -3.9326   -3.3017    0.5743 H   0  0  0  0  0  0  0  0  0  0  0  0
   -2.2494   -2.5187    1.6681 C   0  0  0  0  0  0  0  0  0  0  0  0
   -1.4103   -2.9081    2.4674 O   0  0  0  0  0  0  0  0  0  0  0  0
   -2.0399   -1.3455    0.9665 N   0  0  0  0  0  0  0  0  0  0  0  0
   -2.8232   -0.9700    0.4363 H   0  0  0  0  0  0  0  0  0  0  0  0
   -0.7784   -0.5860    0.9282 C   0  0  1  0  0  0  0  0  0  0  0  0
   -0.1322   -0.9164    1.7479 H   0  0  0  0  0  0  0  0  0  0  0  0
    0.0388   -0.6552   -0.4037 C   0  0  0  0  0  0  0  0  0  0  0  0
   -0.2457    0.1968   -1.0319 H   0  0  0  0  0  0  0  0  0  0  0  0
    1.0821   -0.4894   -0.1165 H   0  0  0  0  0  0  0  0  0  0  0  0
    0.0352   -1.8741   -1.3594 C   0  0  0  0  0  0  0  0  0  0  0  0
   -0.7420   -1.6921   -2.1093 H   0  0  0  0  0  0  0  0  0  0  0  0
    0.9873   -1.8718   -1.9005 H   0  0  0  0  0  0  0  0  0  0  0  0
   -0.1741   -3.2798   -0.7767 C   0  0  0  0  0  0  0  0  0  0  0  0
   -0.1359   -3.2548    0.3110 H   0  0  0  0  0  0  0  0  0  0  0  0
    0.6551   -3.9198   -1.0941 H   0  0  0  0  0  0  0  0  0  0  0  0
   -1.4759   -3.9042   -1.2851 C   0  0  0  0  0  0  0  0  0  0  0  0
   -2.3076   -3.2016   -1.1730 H   0  0  0  0  0  0  0  0  0  0  0  0
   -1.3763   -4.1349   -2.3517 H   0  0  0  0  0  0  0  0  0  0  0  0
   -1.7573   -5.1270   -0.5286 N   0  0  0  0  0  0  0  0  0  0  0  0
   -2.5259   -5.6532   -0.9433 H   0  0  0  0  0  0  0  0  0  0  0  0
   -0.9216   -5.7067   -0.4452 H   0  0  0  0  0  0  0  0  0  0  0  0
   -1.1134    0.9089    1.1261 C   0  0  0  0  0  0  0  0  0  0  0  0
   -2.0612    1.4158    0.5341 O   0  0  0  0  0  0  0  0  0  0  0  0
   -0.3625    1.6823    1.9918 N   0  0  0  0  0  0  0  0  0  0  0  0
    0.3546    1.2114    2.5363 H   0  0  0  0  0  0  0  0  0  0  0  0
   -0.6705    3.0758    2.2887 C   0  0  0  0  0  0  0  0  0  0  0  0
   -1.6623    3.1598    2.7451 H   0  0  0  0  0  0  0  0  0  0  0  0
    0.0673    3.4862    2.9847 H   0  0  0  0  0  0  0  0  0  0  0  0
   -0.6518    3.6762    1.3731 H   0  0  0  0  0  0  0  0  0  0  0  0
  1  2  1  0  0  0  0
  2  3  1  0  0  0  0
  2  4  1  0  0  0  0
  2  5  1  0  0  0  0
  5  6  2  0  0  0  0
  5  7  1  0  0  0  0
  7  8  1  0  0  0  0
  7  9  1  0  0  0  0
  9 10  1  0  0  0  0
  9 11  1  0  0  0  0
  9 26  1  0  0  0  0
 11 12  1  0  0  0  0
 11 13  1  0  0  0  0
 11 14  1  0  0  0  0
 14 15  1  0  0  0  0
 14 16  1  0  0  0  0
 14 17  1  0  0  0  0
 17 18  1  0  0  0  0
 17 19  1  0  0  0  0
 17 20  1  0  0  0  0
 20 21  1  0  0  0  0
 20 22  1  0  0  0  0
 20 23  1  0  0  0  0
 23 24  1  0  0  0  0
 23 25  1  0  0  0  0
 26 27  2  0  0  0  0
 26 28  1  0  0  0  0
 28 29  1  0  0  0  0
 28 30  1  0  0  0  0
 30 31  1  0  0  0  0
 30 32  1  0  0  0  0
 30 33  1  0  0  0  0
M  END
$$$$

  -OEChem-03222214063D

 33 32  0     1  0  0  0  0  0999 V2000
   -4.0618   -3.8756    1.9206 H   0  0  0  0  0  0  0  0  0  0  0  0
   -4.0054   -2.9137    1.4038 C   0  0  0  0  0  0  0  0  0  0  0  0
   -4.7099   -2.2199    1.8684 H   0  0  0  0  0  0  0  0  0  0  0  0
   -4.2834   -3.0627    0.3574 H   0  0  0  0  0  0  0  0  0  0  0  0
   -2.5961   -2.3588    1.4852 C   0  0  0  0  0  0  0  0  0  0  0  0
   -1.7200   -2.9911    2.0621 O   0  0  0  0  0  0  0  0  0  0  0  0
   -2.3144   -1.1203    0.9442 N   0  0  0  0  0  0  0  0  0  0  0  0
   -3.0868   -0.6020    0.5311 H   0  0  0  0  0  0  0  0  0  0  0  0
   -0.9750   -0.5199    0.8491 C   0  0  1  0  0  0  0  0  0  0  0  0
   -0.2972   -1.0510    1.5247 H   0  0  0  0  0  0  0  0  0  0  0  0
   -0.3387   -0.5244   -0.5754 C   0  0  0  0  0  0  0  0  0  0  0  0
   -0.5845    0.4270   -1.0610 H   0  0  0  0  0  0  0  0  0  0  0  0
    0.7455   -0.5171   -0.4228 H   0  0  0  0  0  0  0  0  0  0  0  0
   -0.6381   -1.6210   -1.6379 C   0  0  0  0  0  0  0  0  0  0  0  0
   -1.2914   -1.1340   -2.3757 H   0  0  0  0  0  0  0  0  0  0  0  0
    0.3020   -1.8537   -2.1538 H   0  0  0  0  0  0  0  0  0  0  0  0
   -1.3109   -2.9444   -1.1979 C   0  0  0  0  0  0  0  0  0  0  0  0
   -0.4997   -2.9931   -0.4629 H   0  0  0  0  0  0  0  0  0  0  0  0
   -1.4219   -3.0649   -2.2803 H   0  0  0  0  0  0  0  0  0  0  0  0
   -1.1624   -4.4847   -1.2567 C   0  0  0  0  0  0  0  0  0  0  0  0
   -1.6811   -4.9304   -2.1182 H   0  0  0  0  0  0  0  0  0  0  0  0
   -0.1046   -4.7670   -1.3366 H   0  0  0  0  0  0  0  0  0  0  0  0
   -1.7563   -5.0538   -0.0430 N   0  0  0  0  0  0  0  0  0  0  0  0
   -1.5219   -6.0403    0.0600 H   0  0  0  0  0  0  0  0  0  0  0  0
   -1.4717   -4.5226    0.7907 H   0  0  0  0  0  0  0  0  0  0  0  0
   -1.0494    0.9545    1.3026 C   0  0  0  0  0  0  0  0  0  0  0  0
   -1.9644    1.6749    0.9179 O   0  0  0  0  0  0  0  0  0  0  0  0
   -0.0934    1.4716    2.1576 N   0  0  0  0  0  0  0  0  0  0  0  0
    0.6038    0.8299    2.5241 H   0  0  0  0  0  0  0  0  0  0  0  0
   -0.1409    2.8328    2.6779 C   0  0  0  0  0  0  0  0  0  0  0  0
   -1.0627    2.9936    3.2467 H   0  0  0  0  0  0  0  0  0  0  0  0
    0.7106    3.0147    3.3405 H   0  0  0  0  0  0  0  0  0  0  0  0
   -0.1015    3.5580    1.8583 H   0  0  0  0  0  0  0  0  0  0  0  0
  1  2  1  0  0  0  0
  2  3  1  0  0  0  0
  2  4  1  0  0  0  0
  2  5  1  0  0  0  0
  5  6  2  0  0  0  0
  5  7  1  0  0  0  0
  7  8  1  0  0  0  0
  7  9  1  0  0  0  0
  9 10  1  0  0  0  0
  9 11  1  0  0  0  0
  9 26  1  0  0  0  0
 11 12  1  0  0  0  0
 11 13  1  0  0  0  0
 11 14  1  0  0  0  0
 14 15  1  0  0  0  0
 14 16  1  0  0  0  0
 14 17  1  0  0  0  0
 17 18  1  0  0  0  0
 17 19  1  0  0  0  0
 17 20  1  0  0  0  0
 20 21  1  0  0  0  0
 20 22  1  0  0  0  0
 20 23  1  0  0  0  0
 23 24  1  0  0  0  0
 23 25  1  0  0  0  0
 26 27  2  0  0  0  0
 26 28  1  0  0  0  0
 28 29  1  0  0  0  0
 28 30  1  0  0  0  0
 30 31  1  0  0  0  0
 30 32  1  0  0  0  0
 30 33  1  0  0  0  0
M  END
$$$$

  -OEChem-03222214063D

 33 32  0     1  0  0  0  0  0999 V2000
   -4.0765   -3.6698    2.5257 H   0  0  0  0  0  0  0  0  0  0  0  0
   -4.0275   -2.7508    1.9352 C   0  0  0  0  0  0  0  0  0  0  0  0
   -4.6912   -2.0074    2.3831 H   0  0  0  0  0  0  0  0  0  0  0  0
   -4.3670   -2.9684    0.9195 H   0  0  0  0  0  0  0  0  0  0  0  0
   -2.6049   -2.2240    1.9037 C   0  0  0  0  0  0  0  0  0  0  0  0
   -1.7304   -2.7951    2.5382 O   0  0  0  0  0  0  0  0  0  0  0  0
   -2.3154   -1.0790    1.1873 N   0  0  0  0  0  0  0  0  0  0  0  0
   -3.0935   -0.5977    0.7403 H   0  0  0  0  0  0  0  0  0  0  0  0
   -0.9802   -0.4864    1.0156 C   0  0  1  0  0  0  0  0  0  0  0  0
   -0.3204   -0.8984    1.7856 H   0  0  0  0  0  0  0  0  0  0  0  0
   -0.2712   -0.6901   -0.3643 C   0  0  0  0  0  0  0  0  0  0  0  0
   -0.5461    0.1676   -0.9889 H   0  0  0  0  0  0  0  0  0  0  0  0
    0.8034   -0.5956   -0.1765 H   0  0  0  0  0  0  0  0  0  0  0  0
   -0.4631   -1.9203   -1.2972 C   0  0  0  0  0  0  0  0  0  0  0  0
   -0.8021   -1.5471   -2.2696 H   0  0  0  0  0  0  0  0  0  0  0  0
    0.5273   -2.3597   -1.4556 H   0  0  0  0  0  0  0  0  0  0  0  0
   -1.4053   -3.0532   -0.8877 C   0  0  0  0  0  0  0  0  0  0  0  0
   -1.0915   -3.4540    0.0791 H   0  0  0  0  0  0  0  0  0  0  0  0
   -2.4292   -2.6768   -0.8174 H   0  0  0  0  0  0  0  0  0  0  0  0
   -1.3836   -4.1848   -1.9098 C   0  0  0  0  0  0  0  0  0  0  0  0
   -1.6691   -3.8076   -2.8981 H   0  0  0  0  0  0  0  0  0  0  0  0
   -0.3748   -4.6063   -1.9834 H   0  0  0  0  0  0  0  0  0  0  0  0
   -2.3320   -5.2142   -1.4734 N   0  0  0  0  0  0  0  0  0  0  0  0
   -2.3483   -6.0001   -2.1234 H   0  0  0  0  0  0  0  0  0  0  0  0
   -2.1148   -5.5300   -0.5272 H   0  0  0  0  0  0  0  0  0  0  0  0
   -1.0827    1.0375    1.2425 C   0  0  0  0  0  0  0  0  0  0  0  0
   -2.0087    1.6749    0.7520 O   0  0  0  0  0  0  0  0  0  0  0  0
   -0.1455    1.6922    2.0205 N   0  0  0  0  0  0  0  0  0  0  0  0
    0.5677    1.1264    2.4717 H   0  0  0  0  0  0  0  0  0  0  0  0
   -0.2115    3.1167    2.3228 C   0  0  0  0  0  0  0  0  0  0  0  0
   -1.1215    3.3471    2.8865 H   0  0  0  0  0  0  0  0  0  0  0  0
    0.6531    3.4162    2.9227 H   0  0  0  0  0  0  0  0  0  0  0  0
   -0.2105    3.7045    1.3989 H   0  0  0  0  0  0  0  0  0  0  0  0
  1  2  1  0  0  0  0
  2  3  1  0  0  0  0
  2  4  1  0  0  0  0
  2  5  1  0  0  0  0
  5  6  2  0  0  0  0
  5  7  1  0  0  0  0
  7  8  1  0  0  0  0
  7  9  1  0  0  0  0
  9 10  1  0  0  0  0
  9 11  1  0  0  0  0
  9 26  1  0  0  0  0
 11 12  1  0  0  0  0
 11 13  1  0  0  0  0
 11 14  1  0  0  0  0
 14 15  1  0  0  0  0
 14 16  1  0  0  0  0
 14 17  1  0  0  0  0
 17 18  1  0  0  0  0
 17 19  1  0  0  0  0
 17 20  1  0  0  0  0
 20 21  1  0  0  0  0
 20 22  1  0  0  0  0
 20 23  1  0  0  0  0
 23 24  1  0  0  0  0
 23 25  1  0  0  0  0
 26 27  2  0  0  0  0
 26 28  1  0  0  0  0
 28 29  1  0  0  0  0
 28 30  1  0  0  0  0
 30 31  1  0  0  0  0
 30 32  1  0  0  0  0
 30 33  1  0  0  0  0
M  END
$$$$

  -OEChem-03222214063D

 33 32  0     1  0  0  0  0  0999 V2000
   -4.0580   -3.6487    2.6131 H   0  0  0  0  0  0  0  0  0  0  0  0
   -4.0162   -2.7445    1.9995 C   0  0  0  0  0  0  0  0  0  0  0  0
   -4.6680   -1.9873    2.4422 H   0  0  0  0  0  0  0  0  0  0  0  0
   -4.3750   -2.9837    0.9951 H   0  0  0  0  0  0  0  0  0  0  0  0
   -2.5925   -2.2257    1.9286 C   0  0  0  0  0  0  0  0  0  0  0  0
   -1.7002   -2.8125    2.5224 O   0  0  0  0  0  0  0  0  0  0  0  0
   -2.3181   -1.0820    1.2058 N   0  0  0  0  0  0  0  0  0  0  0  0
   -3.1065   -0.5941    0.7845 H   0  0  0  0  0  0  0  0  0  0  0  0
   -0.9884   -0.4845    1.0167 C   0  0  1  0  0  0  0  0  0  0  0  0
   -0.3239   -0.8876    1.7871 H   0  0  0  0  0  0  0  0  0  0  0  0
   -0.2810   -0.7039   -0.3608 C   0  0  0  0  0  0  0  0  0  0  0  0
   -0.5967    0.1324   -0.9948 H   0  0  0  0  0  0  0  0  0  0  0  0
    0.7938   -0.5738   -0.1971 H   0  0  0  0  0  0  0  0  0  0  0  0
   -0.4650   -1.9492   -1.2744 C   0  0  0  0  0  0  0  0  0  0  0  0
   -0.5214   -1.5901   -2.3078 H   0  0  0  0  0  0  0  0  0  0  0  0
    0.4520   -2.5424   -1.1953 H   0  0  0  0  0  0  0  0  0  0  0  0
   -1.6320   -2.9118   -1.0403 C   0  0  0  0  0  0  0  0  0  0  0  0
   -1.4897   -3.4281   -0.0890 H   0  0  0  0  0  0  0  0  0  0  0  0
   -2.5755   -2.3589   -1.0217 H   0  0  0  0  0  0  0  0  0  0  0  0
   -1.7089   -3.9602   -2.1454 C   0  0  0  0  0  0  0  0  0  0  0  0
   -1.8698   -3.4755   -3.1148 H   0  0  0  0  0  0  0  0  0  0  0  0
   -0.7700   -4.5225   -2.1969 H   0  0  0  0  0  0  0  0  0  0  0  0
   -2.8230   -4.8649   -1.8455 N   0  0  0  0  0  0  0  0  0  0  0  0
   -2.9247   -5.5761   -2.5696 H   0  0  0  0  0  0  0  0  0  0  0  0
   -2.7030   -5.2965   -0.9286 H   0  0  0  0  0  0  0  0  0  0  0  0
   -1.0926    1.0400    1.2390 C   0  0  0  0  0  0  0  0  0  0  0  0
   -2.0322    1.6702    0.7656 O   0  0  0  0  0  0  0  0  0  0  0  0
   -0.1486    1.7012    2.0031 N   0  0  0  0  0  0  0  0  0  0  0  0
    0.5735    1.1404    2.4464 H   0  0  0  0  0  0  0  0  0  0  0  0
   -0.2213    3.1254    2.3057 C   0  0  0  0  0  0  0  0  0  0  0  0
   -1.1287    3.3500    2.8761 H   0  0  0  0  0  0  0  0  0  0  0  0
    0.6457    3.4309    2.8991 H   0  0  0  0  0  0  0  0  0  0  0  0
   -0.2309    3.7131    1.3817 H   0  0  0  0  0  0  0  0  0  0  0  0
  1  2  1  0  0  0  0
  2  3  1  0  0  0  0
  2  4  1  0  0  0  0
  2  5  1  0  0  0  0
  5  6  2  0  0  0  0
  5  7  1  0  0  0  0
  7  8  1  0  0  0  0
  7  9  1  0  0  0  0
  9 10  1  0  0  0  0
  9 11  1  0  0  0  0
  9 26  1  0  0  0  0
 11 12  1  0  0  0  0
 11 13  1  0  0  0  0
 11 14  1  0  0  0  0
 14 15  1  0  0  0  0
 14 16  1  0  0  0  0
 14 17  1  0  0  0  0
 17 18  1  0  0  0  0
 17 19  1  0  0  0  0
 17 20  1  0  0  0  0
 20 21  1  0  0  0  0
 20 22  1  0  0  0  0
 20 23  1  0  0  0  0
 23 24  1  0  0  0  0
 23 25  1  0  0  0  0
 26 27  2  0  0  0  0
 26 28  1  0  0  0  0
 28 29  1  0  0  0  0
 28 30  1  0  0  0  0
 30 31  1  0  0  0  0
 30 32  1  0  0  0  0
 30 33  1  0  0  0  0
M  END
$$$$

  -OEChem-03222214063D

 33 32  0     1  0  0  0  0  0999 V2000
   -4.1263   -3.8650    1.8620 H   0  0  0  0  0  0  0  0  0  0  0  0
   -4.0821   -2.8145    1.5612 C   0  0  0  0  0  0  0  0  0  0  0  0
   -4.6233   -2.2132    2.2957 H   0  0  0  0  0  0  0  0  0  0  0  0
   -4.5651   -2.7055    0.5874 H   0  0  0  0  0  0  0  0  0  0  0  0
   -2.6389   -2.3539    1.4815 C   0  0  0  0  0  0  0  0  0  0  0  0
   -1.7508   -3.0533    1.9437 O   0  0  0  0  0  0  0  0  0  0  0  0
   -2.3481   -1.1216    0.9356 N   0  0  0  0  0  0  0  0  0  0  0  0
   -3.1326   -0.5338    0.6586 H   0  0  0  0  0  0  0  0  0  0  0  0
   -1.0081   -0.5384    0.8023 C   0  0  1  0  0  0  0  0  0  0  0  0
   -0.3388   -1.0701    1.4861 H   0  0  0  0  0  0  0  0  0  0  0  0
   -0.3315   -0.5617   -0.6059 C   0  0  0  0  0  0  0  0  0  0  0  0
   -0.6467    0.3671   -1.0951 H   0  0  0  0  0  0  0  0  0  0  0  0
    0.7485   -0.4751   -0.4484 H   0  0  0  0  0  0  0  0  0  0  0  0
   -0.5528   -1.6366   -1.7080 C   0  0  0  0  0  0  0  0  0  0  0  0
   -0.3503   -1.1494   -2.6677 H   0  0  0  0  0  0  0  0  0  0  0  0
    0.2360   -2.3848   -1.5769 H   0  0  0  0  0  0  0  0  0  0  0  0
   -1.8878   -2.3927   -1.8564 C   0  0  0  0  0  0  0  0  0  0  0  0
   -2.1580   -2.3931   -2.9174 H   0  0  0  0  0  0  0  0  0  0  0  0
   -2.7027   -1.8823   -1.3457 H   0  0  0  0  0  0  0  0  0  0  0  0
   -1.7714   -3.8546   -1.4223 C   0  0  0  0  0  0  0  0  0  0  0  0
   -1.0588   -4.3746   -2.0721 H   0  0  0  0  0  0  0  0  0  0  0  0
   -1.3935   -3.9275   -0.3997 H   0  0  0  0  0  0  0  0  0  0  0  0
   -3.0889   -4.4904   -1.5306 N   0  0  0  0  0  0  0  0  0  0  0  0
   -3.0385   -5.4781   -1.2793 H   0  0  0  0  0  0  0  0  0  0  0  0
   -3.7773   -4.0064   -0.9581 H   0  0  0  0  0  0  0  0  0  0  0  0
   -1.0650    0.9355    1.2597 C   0  0  0  0  0  0  0  0  0  0  0  0
   -2.0058    1.6479    0.9259 O   0  0  0  0  0  0  0  0  0  0  0  0
   -0.0856    1.4493    2.0896 N   0  0  0  0  0  0  0  0  0  0  0  0
    0.6425    0.8156    2.4072 H   0  0  0  0  0  0  0  0  0  0  0  0
   -0.1096    2.8123    2.6064 C   0  0  0  0  0  0  0  0  0  0  0  0
   -1.0074    2.9771    3.2115 H   0  0  0  0  0  0  0  0  0  0  0  0
    0.7686    2.9945    3.2330 H   0  0  0  0  0  0  0  0  0  0  0  0
   -0.1020    3.5344    1.7830 H   0  0  0  0  0  0  0  0  0  0  0  0
  1  2  1  0  0  0  0
  2  3  1  0  0  0  0
  2  4  1  0  0  0  0
  2  5  1  0  0  0  0
  5  6  2  0  0  0  0
  5  7  1  0  0  0  0
  7  8  1  0  0  0  0
  7  9  1  0  0  0  0
  9 10  1  0  0  0  0
  9 11  1  0  0  0  0
  9 26  1  0  0  0  0
 11 12  1  0  0  0  0
 11 13  1  0  0  0  0
 11 14  1  0  0  0  0
 14 15  1  0  0  0  0
 14 16  1  0  0  0  0
 14 17  1  0  0  0  0
 17 18  1  0  0  0  0
 17 19  1  0  0  0  0
 17 20  1  0  0  0  0
 20 21  1  0  0  0  0
 20 22  1  0  0  0  0
 20 23  1  0  0  0  0
 23 24  1  0  0  0  0
 23 25  1  0  0  0  0
 26 27  2  0  0  0  0
 26 28  1  0  0  0  0
 28 29  1  0  0  0  0
 28 30  1  0  0  0  0
 30 31  1  0  0  0  0
 30 32  1  0  0  0  0
 30 33  1  0  0  0  0
M  END
$$$$

  -OEChem-03222214063D

 33 32  0     1  0  0  0  0  0999 V2000
   -3.9225   -3.7962    2.5082 H   0  0  0  0  0  0  0  0  0  0  0  0
   -3.9282   -2.8111    2.0337 C   0  0  0  0  0  0  0  0  0  0  0  0
   -4.4934   -2.1187    2.6622 H   0  0  0  0  0  0  0  0  0  0  0  0
   -4.4186   -2.8919    1.0605 H   0  0  0  0  0  0  0  0  0  0  0  0
   -2.5084   -2.3073    1.8571 C   0  0  0  0  0  0  0  0  0  0  0  0
   -1.5739   -2.9397    2.3249 O   0  0  0  0  0  0  0  0  0  0  0  0
   -2.2842   -1.1376    1.1602 N   0  0  0  0  0  0  0  0  0  0  0  0
   -3.0987   -0.6198    0.8341 H   0  0  0  0  0  0  0  0  0  0  0  0
   -0.9717   -0.5126    0.9538 C   0  0  1  0  0  0  0  0  0  0  0  0
   -0.2836   -0.9218    1.7002 H   0  0  0  0  0  0  0  0  0  0  0  0
   -0.3035   -0.7203   -0.4384 C   0  0  0  0  0  0  0  0  0  0  0  0
   -0.6391    0.1084   -1.0718 H   0  0  0  0  0  0  0  0  0  0  0  0
    0.7769   -0.5992   -0.3095 H   0  0  0  0  0  0  0  0  0  0  0  0
   -0.5370   -1.9884   -1.2975 C   0  0  0  0  0  0  0  0  0  0  0  0
   -0.1318   -1.7777   -2.2927 H   0  0  0  0  0  0  0  0  0  0  0  0
    0.0600   -2.8015   -0.8715 H   0  0  0  0  0  0  0  0  0  0  0  0
   -1.9758   -2.5049   -1.4507 C   0  0  0  0  0  0  0  0  0  0  0  0
   -2.2464   -3.1110   -0.5855 H   0  0  0  0  0  0  0  0  0  0  0  0
   -2.6692   -1.6610   -1.5256 H   0  0  0  0  0  0  0  0  0  0  0  0
   -2.1158   -3.3735   -2.6972 C   0  0  0  0  0  0  0  0  0  0  0  0
   -1.9093   -2.7792   -3.5942 H   0  0  0  0  0  0  0  0  0  0  0  0
   -1.3964   -4.1990   -2.6619 H   0  0  0  0  0  0  0  0  0  0  0  0
   -3.4837   -3.8994   -2.7483 N   0  0  0  0  0  0  0  0  0  0  0  0
   -3.6334   -4.4542   -3.5911 H   0  0  0  0  0  0  0  0  0  0  0  0
   -3.6955   -4.4451   -1.9133 H   0  0  0  0  0  0  0  0  0  0  0  0
   -1.0803    1.0039    1.2190 C   0  0  0  0  0  0  0  0  0  0  0  0
   -2.0457    1.6342    0.8018 O   0  0  0  0  0  0  0  0  0  0  0  0
   -0.1207    1.6539    1.9735 N   0  0  0  0  0  0  0  0  0  0  0  0
    0.6275    1.0909    2.3679 H   0  0  0  0  0  0  0  0  0  0  0  0
   -0.2020    3.0662    2.3263 C   0  0  0  0  0  0  0  0  0  0  0  0
   -1.0896    3.2575    2.9383 H   0  0  0  0  0  0  0  0  0  0  0  0
    0.6830    3.3650    2.8961 H   0  0  0  0  0  0  0  0  0  0  0  0
   -0.2558    3.6848    1.4243 H   0  0  0  0  0  0  0  0  0  0  0  0
  1  2  1  0  0  0  0
  2  3  1  0  0  0  0
  2  4  1  0  0  0  0
  2  5  1  0  0  0  0
  5  6  2  0  0  0  0
  5  7  1  0  0  0  0
  7  8  1  0  0  0  0
  7  9  1  0  0  0  0
  9 10  1  0  0  0  0
  9 11  1  0  0  0  0
  9 26  1  0  0  0  0
 11 12  1  0  0  0  0
 11 13  1  0  0  0  0
 11 14  1  0  0  0  0
 14 15  1  0  0  0  0
 14 16  1  0  0  0  0
 14 17  1  0  0  0  0
 17 18  1  0  0  0  0
 17 19  1  0  0  0  0
 17 20  1  0  0  0  0
 20 21  1  0  0  0  0
 20 22  1  0  0  0  0
 20 23  1  0  0  0  0
 23 24  1  0  0  0  0
 23 25  1  0  0  0  0
 26 27  2  0  0  0  0
 26 28  1  0  0  0  0
 28 29  1  0  0  0  0
 28 30  1  0  0  0  0
 30 31  1  0  0  0  0
 30 32  1  0  0  0  0
 30 33  1  0  0  0  0
M  END
$$$$

  -OEChem-03222214063D

 33 32  0     1  0  0  0  0  0999 V2000
   -3.8882   -3.8426    2.3971 H   0  0  0  0  0  0  0  0  0  0  0  0
   -3.9029   -2.8562    1.9253 C   0  0  0  0  0  0  0  0  0  0  0  0
   -4.4653   -2.1685    2.5616 H   0  0  0  0  0  0  0  0  0  0  0  0
   -4.4029   -2.9367    0.9571 H   0  0  0  0  0  0  0  0  0  0  0  0
   -2.4867   -2.3456    1.7371 C   0  0  0  0  0  0  0  0  0  0  0  0
   -1.5436   -2.9947    2.1628 O   0  0  0  0  0  0  0  0  0  0  0  0
   -2.2754   -1.1503    1.0806 N   0  0  0  0  0  0  0  0  0  0  0  0
   -3.0948   -0.6197    0.7894 H   0  0  0  0  0  0  0  0  0  0  0  0
   -0.9688   -0.5076    0.8973 C   0  0  1  0  0  0  0  0  0  0  0  0
   -0.2793   -0.9352    1.6320 H   0  0  0  0  0  0  0  0  0  0  0  0
   -0.3105   -0.6935   -0.4977 C   0  0  0  0  0  0  0  0  0  0  0  0
   -0.6287    0.1443   -1.1282 H   0  0  0  0  0  0  0  0  0  0  0  0
    0.7723   -0.5984   -0.3675 H   0  0  0  0  0  0  0  0  0  0  0  0
   -0.5783   -1.9704   -1.3275 C   0  0  0  0  0  0  0  0  0  0  0  0
    0.0143   -1.8845   -2.2444 H   0  0  0  0  0  0  0  0  0  0  0  0
   -0.1988   -2.8358   -0.7738 H   0  0  0  0  0  0  0  0  0  0  0  0
   -2.0427   -2.2446   -1.7150 C   0  0  0  0  0  0  0  0  0  0  0  0
   -2.5758   -2.7177   -0.8904 H   0  0  0  0  0  0  0  0  0  0  0  0
   -2.5447   -1.3025   -1.9585 H   0  0  0  0  0  0  0  0  0  0  0  0
   -2.1159   -3.1781   -2.9200 C   0  0  0  0  0  0  0  0  0  0  0  0
   -1.6421   -2.7077   -3.7888 H   0  0  0  0  0  0  0  0  0  0  0  0
   -1.5824   -4.1105   -2.7039 H   0  0  0  0  0  0  0  0  0  0  0  0
   -3.5248   -3.4607   -3.2118 N   0  0  0  0  0  0  0  0  0  0  0  0
   -3.6187   -4.0509   -4.0384 H   0  0  0  0  0  0  0  0  0  0  0  0
   -3.9859   -3.8862   -2.4082 H   0  0  0  0  0  0  0  0  0  0  0  0
   -1.0762    0.9989    1.2099 C   0  0  0  0  0  0  0  0  0  0  0  0
   -2.0483    1.6380    0.8234 O   0  0  0  0  0  0  0  0  0  0  0  0
   -0.1162    1.6250    1.9840 N   0  0  0  0  0  0  0  0  0  0  0  0
    0.6388    1.0529    2.3515 H   0  0  0  0  0  0  0  0  0  0  0  0
   -0.2010    3.0242    2.3844 C   0  0  0  0  0  0  0  0  0  0  0  0
   -1.0728    3.1855    3.0271 H   0  0  0  0  0  0  0  0  0  0  0  0
    0.6973    3.3149    2.9375 H   0  0  0  0  0  0  0  0  0  0  0  0
   -0.2873    3.6706    1.5046 H   0  0  0  0  0  0  0  0  0  0  0  0
  1  2  1  0  0  0  0
  2  3  1  0  0  0  0
  2  4  1  0  0  0  0
  2  5  1  0  0  0  0
  5  6  2  0  0  0  0
  5  7  1  0  0  0  0
  7  8  1  0  0  0  0
  7  9  1  0  0  0  0
  9 10  1  0  0  0  0
  9 11  1  0  0  0  0
  9 26  1  0  0  0  0
 11 12  1  0  0  0  0
 11 13  1  0  0  0  0
 11 14  1  0  0  0  0
 14 15  1  0  0  0  0
 14 16  1  0  0  0  0
 14 17  1  0  0  0  0
 17 18  1  0  0  0  0
 17 19  1  0  0  0  0
 17 20  1  0  0  0  0
 20 21  1  0  0  0  0
 20 22  1  0  0  0  0
 20 23  1  0  0  0  0
 23 24  1  0  0  0  0
 23 25  1  0  0  0  0
 26 27  2  0  0  0  0
 26 28  1  0  0  0  0
 28 29  1  0  0  0  0
 28 30  1  0  0  0  0
 30 31  1  0  0  0  0
 30 32  1  0  0  0  0
 30 33  1  0  0  0  0
M  END
$$$$

  -OEChem-03222214063D

 33 32  0     1  0  0  0  0  0999 V2000
   -3.8065   -3.9440    2.1347 H   0  0  0  0  0  0  0  0  0  0  0  0
   -3.8360   -2.9475    1.6850 C   0  0  0  0  0  0  0  0  0  0  0  0
   -4.4227   -2.2875    2.3286 H   0  0  0  0  0  0  0  0  0  0  0  0
   -4.3192   -3.0153    0.7074 H   0  0  0  0  0  0  0  0  0  0  0  0
   -2.4292   -2.4020    1.5294 C   0  0  0  0  0  0  0  0  0  0  0  0
   -1.4743   -3.0630    1.9071 O   0  0  0  0  0  0  0  0  0  0  0  0
   -2.2395   -1.1632    0.9533 N   0  0  0  0  0  0  0  0  0  0  0  0
   -3.0698   -0.6248    0.7111 H   0  0  0  0  0  0  0  0  0  0  0  0
   -0.9475   -0.4804    0.8159 C   0  0  1  0  0  0  0  0  0  0  0  0
   -0.2511   -0.9387    1.5255 H   0  0  0  0  0  0  0  0  0  0  0  0
   -0.2957   -0.5904   -0.5876 C   0  0  0  0  0  0  0  0  0  0  0  0
   -0.6116    0.2704   -1.1876 H   0  0  0  0  0  0  0  0  0  0  0  0
    0.7877   -0.5055   -0.4552 H   0  0  0  0  0  0  0  0  0  0  0  0
   -0.5797   -1.8547   -1.4268 C   0  0  0  0  0  0  0  0  0  0  0  0
    0.1625   -1.8913   -2.2311 H   0  0  0  0  0  0  0  0  0  0  0  0
   -0.4260   -2.7400   -0.8008 H   0  0  0  0  0  0  0  0  0  0  0  0
   -1.9792   -1.9154   -2.0676 C   0  0  0  0  0  0  0  0  0  0  0  0
   -2.7646   -1.9787   -1.3150 H   0  0  0  0  0  0  0  0  0  0  0  0
   -2.1501   -1.0062   -2.6531 H   0  0  0  0  0  0  0  0  0  0  0  0
   -2.0875   -3.1313   -2.9834 C   0  0  0  0  0  0  0  0  0  0  0  0
   -1.3273   -3.0772   -3.7706 H   0  0  0  0  0  0  0  0  0  0  0  0
   -1.9171   -4.0487   -2.4087 H   0  0  0  0  0  0  0  0  0  0  0  0
   -3.4249   -3.1522   -3.5844 N   0  0  0  0  0  0  0  0  0  0  0  0
   -3.5309   -3.9417   -4.2217 H   0  0  0  0  0  0  0  0  0  0  0  0
   -4.1494   -3.1634   -2.8674 H   0  0  0  0  0  0  0  0  0  0  0  0
   -1.0780    1.0012    1.2207 C   0  0  0  0  0  0  0  0  0  0  0  0
   -2.0628    1.6449    0.8767 O   0  0  0  0  0  0  0  0  0  0  0  0
   -0.1286    1.5935    2.0332 N   0  0  0  0  0  0  0  0  0  0  0  0
    0.6388    1.0139    2.3607 H   0  0  0  0  0  0  0  0  0  0  0  0
   -0.2337    2.9646    2.5175 C   0  0  0  0  0  0  0  0  0  0  0  0
   -1.1035    3.0727    3.1739 H   0  0  0  0  0  0  0  0  0  0  0  0
    0.6634    3.2362    3.0821 H   0  0  0  0  0  0  0  0  0  0  0  0
   -0.3361    3.6615    1.6788 H   0  0  0  0  0  0  0  0  0  0  0  0
  1  2  1  0  0  0  0
  2  3  1  0  0  0  0
  2  4  1  0  0  0  0
  2  5  1  0  0  0  0
  5  6  2  0  0  0  0
  5  7  1  0  0  0  0
  7  8  1  0  0  0  0
  7  9  1  0  0  0  0
  9 10  1  0  0  0  0
  9 11  1  0  0  0  0
  9 26  1  0  0  0  0
 11 12  1  0  0  0  0
 11 13  1  0  0  0  0
 11 14  1  0  0  0  0
 14 15  1  0  0  0  0
 14 16  1  0  0  0  0
 14 17  1  0  0  0  0
 17 18  1  0  0  0  0
 17 19  1  0  0  0  0
 17 20  1  0  0  0  0
 20 21  1  0  0  0  0
 20 22  1  0  0  0  0
 20 23  1  0  0  0  0
 23 24  1  0  0  0  0
 23 25  1  0  0  0  0
 26 27  2  0  0  0  0
 26 28  1  0  0  0  0
 28 29  1  0  0  0  0
 28 30  1  0  0  0  0
 30 31  1  0  0  0  0
 30 32  1  0  0  0  0
 30 33  1  0  0  0  0
M  END
$$$$

  -OEChem-03222214063D

 33 32  0     1  0  0  0  0  0999 V2000
   -3.7433   -4.0295    1.8993 H   0  0  0  0  0  0  0  0  0  0  0  0
   -3.7628   -3.0460    1.4215 C   0  0  0  0  0  0  0  0  0  0  0  0
   -4.4363   -2.3941    1.9833 H   0  0  0  0  0  0  0  0  0  0  0  0
   -4.1392   -3.1568    0.4017 H   0  0  0  0  0  0  0  0  0  0  0  0
   -2.3683   -2.4498    1.3944 C   0  0  0  0  0  0  0  0  0  0  0  0
   -1.4256   -3.0819    1.8449 O   0  0  0  0  0  0  0  0  0  0  0  0
   -2.1734   -1.2015    0.8414 N   0  0  0  0  0  0  0  0  0  0  0  0
   -2.9996   -0.6862    0.5424 H   0  0  0  0  0  0  0  0  0  0  0  0
   -0.8890   -0.4877    0.7709 C   0  0  1  0  0  0  0  0  0  0  0  0
   -0.2030   -0.9431    1.4926 H   0  0  0  0  0  0  0  0  0  0  0  0
   -0.2178   -0.5671   -0.6243 C   0  0  0  0  0  0  0  0  0  0  0  0
   -0.5175    0.2992   -1.2244 H   0  0  0  0  0  0  0  0  0  0  0  0
    0.8640   -0.4911   -0.4754 H   0  0  0  0  0  0  0  0  0  0  0  0
   -0.5089   -1.8425   -1.4396 C   0  0  0  0  0  0  0  0  0  0  0  0
    0.3492   -2.0361   -2.0916 H   0  0  0  0  0  0  0  0  0  0  0  0
   -0.6032   -2.7058   -0.7739 H   0  0  0  0  0  0  0  0  0  0  0  0
   -1.7536   -1.6978   -2.3292 C   0  0  0  0  0  0  0  0  0  0  0  0
   -2.6206   -1.4091   -1.7294 H   0  0  0  0  0  0  0  0  0  0  0  0
   -1.5834   -0.9094   -3.0698 H   0  0  0  0  0  0  0  0  0  0  0  0
   -2.0560   -3.0100   -3.0457 C   0  0  0  0  0  0  0  0  0  0  0  0
   -1.1944   -3.3158   -3.6497 H   0  0  0  0  0  0  0  0  0  0  0  0
   -2.2544   -3.7994   -2.3120 H   0  0  0  0  0  0  0  0  0  0  0  0
   -3.2258   -2.8152   -3.9079 N   0  0  0  0  0  0  0  0  0  0  0  0
   -3.4720   -3.6754   -4.3976 H   0  0  0  0  0  0  0  0  0  0  0  0
   -4.0192   -2.4565   -3.3775 H   0  0  0  0  0  0  0  0  0  0  0  0
   -1.0693    0.9864    1.1838 C   0  0  0  0  0  0  0  0  0  0  0  0
   -2.0488    1.6137    0.7966 O   0  0  0  0  0  0  0  0  0  0  0  0
   -0.1717    1.5898    2.0453 N   0  0  0  0  0  0  0  0  0  0  0  0
    0.5926    1.0231    2.4018 H   0  0  0  0  0  0  0  0  0  0  0  0
   -0.3298    2.9522    2.5393 C   0  0  0  0  0  0  0  0  0  0  0  0
   -1.2687    3.0525    3.0941 H   0  0  0  0  0  0  0  0  0  0  0  0
    0.4964    3.2099    3.2090 H   0  0  0  0  0  0  0  0  0  0  0  0
   -0.3348    3.6638    1.7069 H   0  0  0  0  0  0  0  0  0  0  0  0
  1  2  1  0  0  0  0
  2  3  1  0  0  0  0
  2  4  1  0  0  0  0
  2  5  1  0  0  0  0
  5  6  2  0  0  0  0
  5  7  1  0  0  0  0
  7  8  1  0  0  0  0
  7  9  1  0  0  0  0
  9 10  1  0  0  0  0
  9 11  1  0  0  0  0
  9 26  1  0  0  0  0
 11 12  1  0  0  0  0
 11 13  1  0  0  0  0
 11 14  1  0  0  0  0
 14 15  1  0  0  0  0
 14 16  1  0  0  0  0
 14 17  1  0  0  0  0
 17 18  1  0  0  0  0
 17 19  1  0  0  0  0
 17 20  1  0  0  0  0
 20 21  1  0  0  0  0
 20 22  1  0  0  0  0
 20 23  1  0  0  0  0
 23 24  1  0  0  0  0
 23 25  1  0  0  0  0
 26 27  2  0  0  0  0
 26 28  1  0  0  0  0
 28 29  1  0  0  0  0
 28 30  1  0  0  0  0
 30 31  1  0  0  0  0
 30 32  1  0  0  0  0
 30 33  1  0  0  0  0
M  END
$$$$

  -OEChem-03222214063D

 33 32  0     1  0  0  0  0  0999 V2000
   -3.7587   -4.0235    1.9671 H   0  0  0  0  0  0  0  0  0  0  0  0
   -3.7756   -3.0481    1.4732 C   0  0  0  0  0  0  0  0  0  0  0  0
   -4.4364   -2.3813    2.0324 H   0  0  0  0  0  0  0  0  0  0  0  0
   -4.1660   -3.1722    0.4603 H   0  0  0  0  0  0  0  0  0  0  0  0
   -2.3767   -2.4646    1.4197 C   0  0  0  0  0  0  0  0  0  0  0  0
   -1.4354   -3.0937    1.8775 O   0  0  0  0  0  0  0  0  0  0  0  0
   -2.1772   -1.2248    0.8484 N   0  0  0  0  0  0  0  0  0  0  0  0
   -3.0021   -0.7083    0.5477 H   0  0  0  0  0  0  0  0  0  0  0  0
   -0.8904   -0.5132    0.7763 C   0  0  1  0  0  0  0  0  0  0  0  0
   -0.2055   -0.9602    1.5037 H   0  0  0  0  0  0  0  0  0  0  0  0
   -0.2188   -0.5989   -0.6179 C   0  0  0  0  0  0  0  0  0  0  0  0
   -0.5152    0.2708   -1.2150 H   0  0  0  0  0  0  0  0  0  0  0  0
    0.8630   -0.5216   -0.4693 H   0  0  0  0  0  0  0  0  0  0  0  0
   -0.5072   -1.8766   -1.4350 C   0  0  0  0  0  0  0  0  0  0  0  0
    0.4332   -2.2129   -1.8843 H   0  0  0  0  0  0  0  0  0  0  0  0
   -0.8544   -2.6939   -0.7989 H   0  0  0  0  0  0  0  0  0  0  0  0
   -1.5020   -1.6045   -2.5703 C   0  0  0  0  0  0  0  0  0  0  0  0
   -2.4300   -1.1994   -2.1545 H   0  0  0  0  0  0  0  0  0  0  0  0
   -1.0848   -0.8591   -3.2557 H   0  0  0  0  0  0  0  0  0  0  0  0
   -1.8091   -2.8841   -3.3413 C   0  0  0  0  0  0  0  0  0  0  0  0
   -0.8852   -3.3063   -3.7519 H   0  0  0  0  0  0  0  0  0  0  0  0
   -2.2550   -3.6277   -2.6712 H   0  0  0  0  0  0  0  0  0  0  0  0
   -2.7372   -2.5611   -4.4296 N   0  0  0  0  0  0  0  0  0  0  0  0
   -2.9784   -3.3918   -4.9700 H   0  0  0  0  0  0  0  0  0  0  0  0
   -3.5748   -2.1001   -4.0746 H   0  0  0  0  0  0  0  0  0  0  0  0
   -1.0763    0.9664    1.1670 C   0  0  0  0  0  0  0  0  0  0  0  0
   -2.0565    1.5850    0.7676 O   0  0  0  0  0  0  0  0  0  0  0  0
   -0.1865    1.5840    2.0266 N   0  0  0  0  0  0  0  0  0  0  0  0
    0.5824    1.0277    2.3896 H   0  0  0  0  0  0  0  0  0  0  0  0
   -0.3468    2.9562    2.4916 C   0  0  0  0  0  0  0  0  0  0  0  0
   -1.2854    3.0660    3.0450 H   0  0  0  0  0  0  0  0  0  0  0  0
    0.4794    3.2303    3.1546 H   0  0  0  0  0  0  0  0  0  0  0  0
   -0.3533    3.6494    1.6438 H   0  0  0  0  0  0  0  0  0  0  0  0
  1  2  1  0  0  0  0
  2  3  1  0  0  0  0
  2  4  1  0  0  0  0
  2  5  1  0  0  0  0
  5  6  2  0  0  0  0
  5  7  1  0  0  0  0
  7  8  1  0  0  0  0
  7  9  1  0  0  0  0
  9 10  1  0  0  0  0
  9 11  1  0  0  0  0
  9 26  1  0  0  0  0
 11 12  1  0  0  0  0
 11 13  1  0  0  0  0
 11 14  1  0  0  0  0
 14 15  1  0  0  0  0
 14 16  1  0  0  0  0
 14 17  1  0  0  0  0
 17 18  1  0  0  0  0
 17 19  1  0  0  0  0
 17 20  1  0  0  0  0
 20 21  1  0  0  0  0
 20 22  1  0  0  0  0
 20 23  1  0  0  0  0
 23 24  1  0  0  0  0
 23 25  1  0  0  0  0
 26 27  2  0  0  0  0
 26 28  1  0  0  0  0
 28 29  1  0  0  0  0
 28 30  1  0  0  0  0
 30 31  1  0  0  0  0
 30 32  1  0  0  0  0
 30 33  1  0  0  0  0
M  END
$$$$

  -OEChem-03222214063D

 33 32  0     1  0  0  0  0  0999 V2000
   -3.7836   -4.0057    2.0433 H   0  0  0  0  0  0  0  0  0  0  0  0
   -3.8036   -3.0340    1.5418 C   0  0  0  0  0  0  0  0  0  0  0  0
   -4.4458   -2.3572    2.1108 H   0  0  0  0  0  0  0  0  0  0  0  0
   -4.2188   -3.1629    0.5394 H   0  0  0  0  0  0  0  0  0  0  0  0
   -2.4011   -2.4632    1.4499 C   0  0  0  0  0  0  0  0  0  0  0  0
   -1.4531   -3.1021    1.8791 O   0  0  0  0  0  0  0  0  0  0  0  0
   -2.2046   -1.2266    0.8699 N   0  0  0  0  0  0  0  0  0  0  0  0
   -3.0331   -0.6998    0.5982 H   0  0  0  0  0  0  0  0  0  0  0  0
   -0.9145   -0.5229    0.7755 C   0  0  1  0  0  0  0  0  0  0  0  0
   -0.2260   -0.9692    1.5004 H   0  0  0  0  0  0  0  0  0  0  0  0
   -0.2453   -0.6181   -0.6209 C   0  0  0  0  0  0  0  0  0  0  0  0
   -0.5651    0.2484   -1.2109 H   0  0  0  0  0  0  0  0  0  0  0  0
    0.8368   -0.5197   -0.4881 H   0  0  0  0  0  0  0  0  0  0  0  0
   -0.5247   -1.8941   -1.4498 C   0  0  0  0  0  0  0  0  0  0  0  0
    0.4318   -2.3862   -1.6547 H   0  0  0  0  0  0  0  0  0  0  0  0
   -1.1315   -2.6178   -0.9038 H   0  0  0  0  0  0  0  0  0  0  0  0
   -1.2011   -1.5590   -2.7849 C   0  0  0  0  0  0  0  0  0  0  0  0
   -2.1472   -1.0416   -2.5956 H   0  0  0  0  0  0  0  0  0  0  0  0
   -0.5583   -0.8898   -3.3666 H   0  0  0  0  0  0  0  0  0  0  0  0
   -1.4694   -2.8267   -3.5901 C   0  0  0  0  0  0  0  0  0  0  0  0
   -0.5298   -3.3571   -3.7806 H   0  0  0  0  0  0  0  0  0  0  0  0
   -2.1297   -3.4956   -3.0271 H   0  0  0  0  0  0  0  0  0  0  0  0
   -2.0958   -2.4497   -4.8608 N   0  0  0  0  0  0  0  0  0  0  0  0
   -2.2987   -3.2705   -5.4313 H   0  0  0  0  0  0  0  0  0  0  0  0
   -2.9383   -1.8964   -4.7046 H   0  0  0  0  0  0  0  0  0  0  0  0
   -1.0873    0.9596    1.1629 C   0  0  0  0  0  0  0  0  0  0  0  0
   -2.0709    1.5814    0.7769 O   0  0  0  0  0  0  0  0  0  0  0  0
   -0.1813    1.5754    2.0067 N   0  0  0  0  0  0  0  0  0  0  0  0
    0.5907    1.0161    2.3583 H   0  0  0  0  0  0  0  0  0  0  0  0
   -0.3259    2.9500    2.4701 C   0  0  0  0  0  0  0  0  0  0  0  0
   -1.2606    3.0702    3.0279 H   0  0  0  0  0  0  0  0  0  0  0  0
    0.5063    3.2166    3.1287 H   0  0  0  0  0  0  0  0  0  0  0  0
   -0.3303    3.6418    1.6212 H   0  0  0  0  0  0  0  0  0  0  0  0
  1  2  1  0  0  0  0
  2  3  1  0  0  0  0
  2  4  1  0  0  0  0
  2  5  1  0  0  0  0
  5  6  2  0  0  0  0
  5  7  1  0  0  0  0
  7  8  1  0  0  0  0
  7  9  1  0  0  0  0
  9 10  1  0  0  0  0
  9 11  1  0  0  0  0
  9 26  1  0  0  0  0
 11 12  1  0  0  0  0
 11 13  1  0  0  0  0
 11 14  1  0  0  0  0
 14 15  1  0  0  0  0
 14 16  1  0  0  0  0
 14 17  1  0  0  0  0
 17 18  1  0  0  0  0
 17 19  1  0  0  0  0
 17 20  1  0  0  0  0
 20 21  1  0  0  0  0
 20 22  1  0  0  0  0
 20 23  1  0  0  0  0
 23 24  1  0  0  0  0
 23 25  1  0  0  0  0
 26 27  2  0  0  0  0
 26 28  1  0  0  0  0
 28 29  1  0  0  0  0
 28 30  1  0  0  0  0
 30 31  1  0  0  0  0
 30 32  1  0  0  0  0
 30 33  1  0  0  0  0
M  END
$$$$

  -OEChem-03222214063D

 33 32  0     1  0  0  0  0  0999 V2000
   -3.8067   -3.9845    2.0974 H   0  0  0  0  0  0  0  0  0  0  0  0
   -3.8304   -3.0156    1.5908 C   0  0  0  0  0  0  0  0  0  0  0  0
   -4.4464   -2.3280    2.1753 H   0  0  0  0  0  0  0  0  0  0  0  0
   -4.2781   -3.1449    0.6026 H   0  0  0  0  0  0  0  0  0  0  0  0
   -2.4247   -2.4624    1.4527 C   0  0  0  0  0  0  0  0  0  0  0  0
   -1.4712   -3.1147    1.8479 O   0  0  0  0  0  0  0  0  0  0  0  0
   -2.2321   -1.2255    0.8719 N   0  0  0  0  0  0  0  0  0  0  0  0
   -3.0625   -0.6864    0.6311 H   0  0  0  0  0  0  0  0  0  0  0  0
   -0.9394   -0.5298    0.7645 C   0  0  1  0  0  0  0  0  0  0  0  0
   -0.2512   -0.9793    1.4873 H   0  0  0  0  0  0  0  0  0  0  0  0
   -0.2685   -0.6337   -0.6304 C   0  0  0  0  0  0  0  0  0  0  0  0
   -0.6166    0.2237   -1.2172 H   0  0  0  0  0  0  0  0  0  0  0  0
    0.8136   -0.5142   -0.5151 H   0  0  0  0  0  0  0  0  0  0  0  0
   -0.5453   -1.9096   -1.4612 C   0  0  0  0  0  0  0  0  0  0  0  0
    0.3340   -2.5604   -1.4109 H   0  0  0  0  0  0  0  0  0  0  0  0
   -1.3861   -2.4820   -1.0673 H   0  0  0  0  0  0  0  0  0  0  0  0
   -0.8585   -1.5627   -2.9223 C   0  0  0  0  0  0  0  0  0  0  0  0
   -1.7533   -0.9333   -2.9672 H   0  0  0  0  0  0  0  0  0  0  0  0
   -0.0245   -0.9984   -3.3527 H   0  0  0  0  0  0  0  0  0  0  0  0
   -1.0883   -2.8281   -3.7431 C   0  0  0  0  0  0  0  0  0  0  0  0
   -0.1991   -3.4672   -3.7049 H   0  0  0  0  0  0  0  0  0  0  0  0
   -1.9317   -3.3936   -3.3318 H   0  0  0  0  0  0  0  0  0  0  0  0
   -1.3669   -2.4419   -5.1296 N   0  0  0  0  0  0  0  0  0  0  0  0
   -1.5384   -3.2600   -5.7141 H   0  0  0  0  0  0  0  0  0  0  0  0
   -2.1489   -1.7890   -5.1782 H   0  0  0  0  0  0  0  0  0  0  0  0
   -1.0963    0.9533    1.1557 C   0  0  0  0  0  0  0  0  0  0  0  0
   -2.0810    1.5820    0.7837 O   0  0  0  0  0  0  0  0  0  0  0  0
   -0.1761    1.5609    1.9898 N   0  0  0  0  0  0  0  0  0  0  0  0
    0.5991    0.9971    2.3268 H   0  0  0  0  0  0  0  0  0  0  0  0
   -0.3017    2.9375    2.4531 C   0  0  0  0  0  0  0  0  0  0  0  0
   -1.2257    3.0662    3.0266 H   0  0  0  0  0  0  0  0  0  0  0  0
    0.5438    3.1982    3.0969 H   0  0  0  0  0  0  0  0  0  0  0  0
   -0.3145    3.6282    1.6034 H   0  0  0  0  0  0  0  0  0  0  0  0
  1  2  1  0  0  0  0
  2  3  1  0  0  0  0
  2  4  1  0  0  0  0
  2  5  1  0  0  0  0
  5  6  2  0  0  0  0
  5  7  1  0  0  0  0
  7  8  1  0  0  0  0
  7  9  1  0  0  0  0
  9 10  1  0  0  0  0
  9 11  1  0  0  0  0
  9 26  1  0  0  0  0
 11 12  1  0  0  0  0
 11 13  1  0  0  0  0
 11 14  1  0  0  0  0
 14 15  1  0  0  0  0
 14 16  1  0  0  0  0
 14 17  1  0  0  0  0
 17 18  1  0  0  0  0
 17 19  1  0  0  0  0
 17 20  1  0  0  0  0
 20 21  1  0  0  0  0
 20 22  1  0  0  0  0
 20 23  1  0  0  0  0
 23 24  1  0  0  0  0
 23 25  1  0  0  0  0
 26 27  2  0  0  0  0
 26 28  1  0  0  0  0
 28 29  1  0  0  0  0
 28 30  1  0  0  0  0
 30 31  1  0  0  0  0
 30 32  1  0  0  0  0
 30 33  1  0  0  0  0
M  END
$$$$

  -OEChem-03222214063D

 33 32  0     1  0  0  0  0  0999 V2000
   -3.8212   -3.9787    2.0624 H   0  0  0  0  0  0  0  0  0  0  0  0
   -3.8404   -3.0118    1.5518 C   0  0  0  0  0  0  0  0  0  0  0  0
   -4.4599   -2.3212    2.1290 H   0  0  0  0  0  0  0  0  0  0  0  0
   -4.2813   -3.1452    0.5610 H   0  0  0  0  0  0  0  0  0  0  0  0
   -2.4330   -2.4604    1.4213 C   0  0  0  0  0  0  0  0  0  0  0  0
   -1.4815   -3.1187    1.8113 O   0  0  0  0  0  0  0  0  0  0  0  0
   -2.2367   -1.2196    0.8505 N   0  0  0  0  0  0  0  0  0  0  0  0
   -3.0653   -0.6759    0.6144 H   0  0  0  0  0  0  0  0  0  0  0  0
   -0.9418   -0.5270    0.7528 C   0  0  1  0  0  0  0  0  0  0  0  0
   -0.2584   -0.9830    1.4763 H   0  0  0  0  0  0  0  0  0  0  0  0
   -0.2665   -0.6344   -0.6388 C   0  0  0  0  0  0  0  0  0  0  0  0
   -0.6222    0.2164   -1.2308 H   0  0  0  0  0  0  0  0  0  0  0  0
    0.8161   -0.5147   -0.5288 H   0  0  0  0  0  0  0  0  0  0  0  0
   -0.5546   -1.9131   -1.4560 C   0  0  0  0  0  0  0  0  0  0  0  0
    0.1704   -2.6869   -1.1822 H   0  0  0  0  0  0  0  0  0  0  0  0
   -1.5512   -2.3069   -1.2461 H   0  0  0  0  0  0  0  0  0  0  0  0
   -0.4948   -1.6206   -2.9602 C   0  0  0  0  0  0  0  0  0  0  0  0
   -1.2508   -0.8732   -3.2221 H   0  0  0  0  0  0  0  0  0  0  0  0
    0.4886   -1.2119   -3.2150 H   0  0  0  0  0  0  0  0  0  0  0  0
   -0.7367   -2.8899   -3.7707 C   0  0  0  0  0  0  0  0  0  0  0  0
    0.0202   -3.6429   -3.5242 H   0  0  0  0  0  0  0  0  0  0  0  0
   -1.7216   -3.3063   -3.5322 H   0  0  0  0  0  0  0  0  0  0  0  0
   -0.6619   -2.5526   -5.1954 N   0  0  0  0  0  0  0  0  0  0  0  0
   -0.8110   -3.3760   -5.7786 H   0  0  0  0  0  0  0  0  0  0  0  0
   -1.3239   -1.8136   -5.4323 H   0  0  0  0  0  0  0  0  0  0  0  0
   -1.0924    0.9541    1.1538 C   0  0  0  0  0  0  0  0  0  0  0  0
   -2.0723    1.5897    0.7812 O   0  0  0  0  0  0  0  0  0  0  0  0
   -0.1725    1.5530    1.9947 N   0  0  0  0  0  0  0  0  0  0  0  0
    0.6036    0.9865    2.3256 H   0  0  0  0  0  0  0  0  0  0  0  0
   -0.2853    2.9331    2.4503 C   0  0  0  0  0  0  0  0  0  0  0  0
   -1.2121    3.0754    3.0160 H   0  0  0  0  0  0  0  0  0  0  0  0
    0.5582    3.1881    3.0988 H   0  0  0  0  0  0  0  0  0  0  0  0
   -0.2840    3.6188    1.5966 H   0  0  0  0  0  0  0  0  0  0  0  0
  1  2  1  0  0  0  0
  2  3  1  0  0  0  0
  2  4  1  0  0  0  0
  2  5  1  0  0  0  0
  5  6  2  0  0  0  0
  5  7  1  0  0  0  0
  7  8  1  0  0  0  0
  7  9  1  0  0  0  0
  9 10  1  0  0  0  0
  9 11  1  0  0  0  0
  9 26  1  0  0  0  0
 11 12  1  0  0  0  0
 11 13  1  0  0  0  0
 11 14  1  0  0  0  0
 14 15  1  0  0  0  0
 14 16  1  0  0  0  0
 14 17  1  0  0  0  0
 17 18  1  0  0  0  0
 17 19  1  0  0  0  0
 17 20  1  0  0  0  0
 20 21  1  0  0  0  0
 20 22  1  0  0  0  0
 20 23  1  0  0  0  0
 23 24  1  0  0  0  0
 23 25  1  0  0  0  0
 26 27  2  0  0  0  0
 26 28  1  0  0  0  0
 28 29  1  0  0  0  0
 28 30  1  0  0  0  0
 30 31  1  0  0  0  0
 30 32  1  0  0  0  0
 30 33  1  0  0  0  0
M  END
$$$$

  -OEChem-03222214063D

 33 32  0     1  0  0  0  0  0999 V2000
   -3.8224   -3.9790    1.9775 H   0  0  0  0  0  0  0  0  0  0  0  0
   -3.8352   -3.0082    1.4743 C   0  0  0  0  0  0  0  0  0  0  0  0
   -4.4661   -2.3233    2.0460 H   0  0  0  0  0  0  0  0  0  0  0  0
   -4.2583   -3.1349    0.4750 H   0  0  0  0  0  0  0  0  0  0  0  0
   -2.4271   -2.4535    1.3723 C   0  0  0  0  0  0  0  0  0  0  0  0
   -1.4809   -3.1148    1.7702 O   0  0  0  0  0  0  0  0  0  0  0  0
   -2.2243   -1.2080    0.8146 N   0  0  0  0  0  0  0  0  0  0  0  0
   -3.0501   -0.6618    0.5746 H   0  0  0  0  0  0  0  0  0  0  0  0
   -0.9283   -0.5151    0.7396 C   0  0  1  0  0  0  0  0  0  0  0  0
   -0.2518   -0.9782    1.4653 H   0  0  0  0  0  0  0  0  0  0  0  0
   -0.2497   -0.6192   -0.6483 C   0  0  0  0  0  0  0  0  0  0  0  0
   -0.5922    0.2303   -1.2499 H   0  0  0  0  0  0  0  0  0  0  0  0
    0.8337   -0.5164   -0.5296 H   0  0  0  0  0  0  0  0  0  0  0  0
   -0.5572   -1.9005   -1.4463 C   0  0  0  0  0  0  0  0  0  0  0  0
   -0.0309   -2.7473   -0.9927 H   0  0  0  0  0  0  0  0  0  0  0  0
   -1.6281   -2.1203   -1.4305 H   0  0  0  0  0  0  0  0  0  0  0  0
   -0.1457   -1.7299   -2.9128 C   0  0  0  0  0  0  0  0  0  0  0  0
   -0.7061   -0.9023   -3.3598 H   0  0  0  0  0  0  0  0  0  0  0  0
    0.9204   -1.4869   -2.9692 H   0  0  0  0  0  0  0  0  0  0  0  0
   -0.4133   -3.0074   -3.7021 C   0  0  0  0  0  0  0  0  0  0  0  0
    0.1537   -3.8406   -3.2720 H   0  0  0  0  0  0  0  0  0  0  0  0
   -1.4782   -3.2610   -3.6564 H   0  0  0  0  0  0  0  0  0  0  0  0
   -0.0061   -2.7897   -5.0934 N   0  0  0  0  0  0  0  0  0  0  0  0
   -0.1617   -3.6242   -5.6586 H   0  0  0  0  0  0  0  0  0  0  0  0
   -0.4869   -1.9841   -5.4936 H   0  0  0  0  0  0  0  0  0  0  0  0
   -1.0791    0.9629    1.1499 C   0  0  0  0  0  0  0  0  0  0  0  0
   -2.0504    1.6054    0.7666 O   0  0  0  0  0  0  0  0  0  0  0  0
   -0.1678    1.5522    2.0066 N   0  0  0  0  0  0  0  0  0  0  0  0
    0.5986    0.9787    2.3475 H   0  0  0  0  0  0  0  0  0  0  0  0
   -0.2809    2.9291    2.4717 C   0  0  0  0  0  0  0  0  0  0  0  0
   -1.2154    3.0716    3.0247 H   0  0  0  0  0  0  0  0  0  0  0  0
    0.5543    3.1739    3.1352 H   0  0  0  0  0  0  0  0  0  0  0  0
   -0.2634    3.6222    1.6239 H   0  0  0  0  0  0  0  0  0  0  0  0
  1  2  1  0  0  0  0
  2  3  1  0  0  0  0
  2  4  1  0  0  0  0
  2  5  1  0  0  0  0
  5  6  2  0  0  0  0
  5  7  1  0  0  0  0
  7  8  1  0  0  0  0
  7  9  1  0  0  0  0
  9 10  1  0  0  0  0
  9 11  1  0  0  0  0
  9 26  1  0  0  0  0
 11 12  1  0  0  0  0
 11 13  1  0  0  0  0
 11 14  1  0  0  0  0
 14 15  1  0  0  0  0
 14 16  1  0  0  0  0
 14 17  1  0  0  0  0
 17 18  1  0  0  0  0
 17 19  1  0  0  0  0
 17 20  1  0  0  0  0
 20 21  1  0  0  0  0
 20 22  1  0  0  0  0
 20 23  1  0  0  0  0
 23 24  1  0  0  0  0
 23 25  1  0  0  0  0
 26 27  2  0  0  0  0
 26 28  1  0  0  0  0
 28 29  1  0  0  0  0
 28 30  1  0  0  0  0
 30 31  1  0  0  0  0
 30 32  1  0  0  0  0
 30 33  1  0  0  0  0
M  END
$$$$

  -OEChem-03222214063D

 33 32  0     1  0  0  0  0  0999 V2000
   -3.8059   -3.9865    1.9556 H   0  0  0  0  0  0  0  0  0  0  0  0
   -3.8239   -3.0043    1.4752 C   0  0  0  0  0  0  0  0  0  0  0  0
   -4.4346   -2.3286    2.0790 H   0  0  0  0  0  0  0  0  0  0  0  0
   -4.2740   -3.1046    0.4847 H   0  0  0  0  0  0  0  0  0  0  0  0
   -2.4147   -2.4567    1.3498 C   0  0  0  0  0  0  0  0  0  0  0  0
   -1.4658   -3.1210    1.7354 O   0  0  0  0  0  0  0  0  0  0  0  0
   -2.2153   -1.2070    0.8011 N   0  0  0  0  0  0  0  0  0  0  0  0
   -3.0429   -0.6568    0.5769 H   0  0  0  0  0  0  0  0  0  0  0  0
   -0.9194   -0.5115    0.7265 C   0  0  1  0  0  0  0  0  0  0  0  0
   -0.2386   -0.9758    1.4475 H   0  0  0  0  0  0  0  0  0  0  0  0
   -0.2475   -0.6031   -0.6681 C   0  0  0  0  0  0  0  0  0  0  0  0
   -0.3417    0.3646   -1.1733 H   0  0  0  0  0  0  0  0  0  0  0  0
    0.8218   -0.7920   -0.5268 H   0  0  0  0  0  0  0  0  0  0  0  0
   -0.8299   -1.6726   -1.6067 C   0  0  0  0  0  0  0  0  0  0  0  0
   -0.7372   -2.6587   -1.1393 H   0  0  0  0  0  0  0  0  0  0  0  0
   -1.8919   -1.4751   -1.7851 H   0  0  0  0  0  0  0  0  0  0  0  0
   -0.0888   -1.6693   -2.9484 C   0  0  0  0  0  0  0  0  0  0  0  0
   -0.1920   -0.6881   -3.4232 H   0  0  0  0  0  0  0  0  0  0  0  0
    0.9776   -1.8542   -2.7812 H   0  0  0  0  0  0  0  0  0  0  0  0
   -0.6448   -2.7448   -3.8769 C   0  0  0  0  0  0  0  0  0  0  0  0
   -0.5308   -3.7327   -3.4168 H   0  0  0  0  0  0  0  0  0  0  0  0
   -1.7124   -2.5731   -4.0540 H   0  0  0  0  0  0  0  0  0  0  0  0
    0.0913   -2.6953   -5.1439 N   0  0  0  0  0  0  0  0  0  0  0  0
   -0.2392   -3.4101   -5.7921 H   0  0  0  0  0  0  0  0  0  0  0  0
    0.0346   -1.7679   -5.5644 H   0  0  0  0  0  0  0  0  0  0  0  0
   -1.0791    0.9621    1.1504 C   0  0  0  0  0  0  0  0  0  0  0  0
   -2.0562    1.6011    0.7762 O   0  0  0  0  0  0  0  0  0  0  0  0
   -0.1698    1.5496    2.0103 N   0  0  0  0  0  0  0  0  0  0  0  0
    0.6017    0.9782    2.3431 H   0  0  0  0  0  0  0  0  0  0  0  0
   -0.2964    2.9182    2.4959 C   0  0  0  0  0  0  0  0  0  0  0  0
   -1.2224    3.0381    3.0679 H   0  0  0  0  0  0  0  0  0  0  0  0
    0.5470    3.1678    3.1468 H   0  0  0  0  0  0  0  0  0  0  0  0
   -0.3057    3.6226    1.6575 H   0  0  0  0  0  0  0  0  0  0  0  0
  1  2  1  0  0  0  0
  2  3  1  0  0  0  0
  2  4  1  0  0  0  0
  2  5  1  0  0  0  0
  5  6  2  0  0  0  0
  5  7  1  0  0  0  0
  7  8  1  0  0  0  0
  7  9  1  0  0  0  0
  9 10  1  0  0  0  0
  9 11  1  0  0  0  0
  9 26  1  0  0  0  0
 11 12  1  0  0  0  0
 11 13  1  0  0  0  0
 11 14  1  0  0  0  0
 14 15  1  0  0  0  0
 14 16  1  0  0  0  0
 14 17  1  0  0  0  0
 17 18  1  0  0  0  0
 17 19  1  0  0  0  0
 17 20  1  0  0  0  0
 20 21  1  0  0  0  0
 20 22  1  0  0  0  0
 20 23  1  0  0  0  0
 23 24  1  0  0  0  0
 23 25  1  0  0  0  0
 26 27  2  0  0  0  0
 26 28  1  0  0  0  0
 28 29  1  0  0  0  0
 28 30  1  0  0  0  0
 30 31  1  0  0  0  0
 30 32  1  0  0  0  0
 30 33  1  0  0  0  0
M  END
$$$$

  -OEChem-03222214063D

 33 32  0     1  0  0  0  0  0999 V2000
   -3.8320   -3.9780    1.9343 H   0  0  0  0  0  0  0  0  0  0  0  0
   -3.8391   -3.0042    1.4367 C   0  0  0  0  0  0  0  0  0  0  0  0
   -4.4758   -2.3225    2.0059 H   0  0  0  0  0  0  0  0  0  0  0  0
   -4.2520   -3.1247    0.4323 H   0  0  0  0  0  0  0  0  0  0  0  0
   -2.4296   -2.4495    1.3527 C   0  0  0  0  0  0  0  0  0  0  0  0
   -1.4890   -3.1102    1.7639 O   0  0  0  0  0  0  0  0  0  0  0  0
   -2.2194   -1.2019    0.8026 N   0  0  0  0  0  0  0  0  0  0  0  0
   -3.0423   -0.6552    0.5545 H   0  0  0  0  0  0  0  0  0  0  0  0
   -0.9205   -0.5110    0.7337 C   0  0  1  0  0  0  0  0  0  0  0  0
   -0.2444   -0.9788    1.4567 H   0  0  0  0  0  0  0  0  0  0  0  0
   -0.2455   -0.6012   -0.6592 C   0  0  0  0  0  0  0  0  0  0  0  0
   -0.3178    0.3668   -1.1671 H   0  0  0  0  0  0  0  0  0  0  0  0
    0.8190   -0.8026   -0.5009 H   0  0  0  0  0  0  0  0  0  0  0  0
   -0.8268   -1.6659   -1.6049 C   0  0  0  0  0  0  0  0  0  0  0  0
   -0.9540   -2.6089   -1.0635 H   0  0  0  0  0  0  0  0  0  0  0  0
   -1.8074   -1.3437   -1.9709 H   0  0  0  0  0  0  0  0  0  0  0  0
    0.1249   -1.9194   -2.7789 C   0  0  0  0  0  0  0  0  0  0  0  0
    0.2697   -0.9903   -3.3395 H   0  0  0  0  0  0  0  0  0  0  0  0
    1.1007   -2.2430   -2.4020 H   0  0  0  0  0  0  0  0  0  0  0  0
   -0.4352   -2.9936   -3.7057 C   0  0  0  0  0  0  0  0  0  0  0  0
   -0.5627   -3.9329   -3.1559 H   0  0  0  0  0  0  0  0  0  0  0  0
   -1.4152   -2.6870   -4.0877 H   0  0  0  0  0  0  0  0  0  0  0  0
    0.5020   -3.1873   -4.8164 N   0  0  0  0  0  0  0  0  0  0  0  0
    0.1741   -3.9118   -5.4549 H   0  0  0  0  0  0  0  0  0  0  0  0
    0.6681   -2.3121   -5.3128 H   0  0  0  0  0  0  0  0  0  0  0  0
   -1.0728    0.9646    1.1528 C   0  0  0  0  0  0  0  0  0  0  0  0
   -2.0410    1.6110    0.7684 O   0  0  0  0  0  0  0  0  0  0  0  0
   -0.1628    1.5473    2.0153 N   0  0  0  0  0  0  0  0  0  0  0  0
    0.6037    0.9711    2.3515 H   0  0  0  0  0  0  0  0  0  0  0  0
   -0.2773    2.9196    2.4933 C   0  0  0  0  0  0  0  0  0  0  0  0
   -1.2149    3.0574    3.0419 H   0  0  0  0  0  0  0  0  0  0  0  0
    0.5538    3.1566    3.1644 H   0  0  0  0  0  0  0  0  0  0  0  0
   -0.2537    3.6210    1.6527 H   0  0  0  0  0  0  0  0  0  0  0  0
  1  2  1  0  0  0  0
  2  3  1  0  0  0  0
  2  4  1  0  0  0  0
  2  5  1  0  0  0  0
  5  6  2  0  0  0  0
  5  7  1  0  0  0  0
  7  8  1  0  0  0  0
  7  9  1  0  0  0  0
  9 10  1  0  0  0  0
  9 11  1  0  0  0  0
  9 26  1  0  0  0  0
 11 12  1  0  0  0  0
 11 13  1  0  0  0  0
 11 14  1  0  0  0  0
 14 15  1  0  0  0  0
 14 16  1  0  0  0  0
 14 17  1  0  0  0  0
 17 18  1  0  0  0  0
 17 19  1  0  0  0  0
 17 20  1  0  0  0  0
 20 21  1  0  0  0  0
 20 22  1  0  0  0  0
 20 23  1  0  0  0  0
 23 24  1  0  0  0  0
 23 25  1  0  0  0  0
 26 27  2  0  0  0  0
 26 28  1  0  0  0  0
 28 29  1  0  0  0  0
 28 30  1  0  0  0  0
 30 31  1  0  0  0  0
 30 32  1  0  0  0  0
 30 33  1  0  0  0  0
M  END
$$$$

  -OEChem-03222214063D

 33 32  0     1  0  0  0  0  0999 V2000
   -3.8790   -3.9485    1.9687 H   0  0  0  0  0  0  0  0  0  0  0  0
   -3.8761   -2.9731    1.4743 C   0  0  0  0  0  0  0  0  0  0  0  0
   -4.4945   -2.2832    2.0536 H   0  0  0  0  0  0  0  0  0  0  0  0
   -4.3034   -3.0827    0.4747 H   0  0  0  0  0  0  0  0  0  0  0  0
   -2.4589   -2.4410    1.3753 C   0  0  0  0  0  0  0  0  0  0  0  0
   -1.5264   -3.1078    1.7949 O   0  0  0  0  0  0  0  0  0  0  0  0
   -2.2337   -1.2006    0.8143 N   0  0  0  0  0  0  0  0  0  0  0  0
   -3.0500   -0.6468    0.5598 H   0  0  0  0  0  0  0  0  0  0  0  0
   -0.9273   -0.5244    0.7425 C   0  0  1  0  0  0  0  0  0  0  0  0
   -0.2581   -0.9911    1.4727 H   0  0  0  0  0  0  0  0  0  0  0  0
   -0.2413   -0.6211   -0.6472 C   0  0  0  0  0  0  0  0  0  0  0  0
   -0.2916    0.3489   -1.1542 H   0  0  0  0  0  0  0  0  0  0  0  0
    0.8186   -0.8293   -0.4672 H   0  0  0  0  0  0  0  0  0  0  0  0
   -0.8072   -1.6773   -1.6177 C   0  0  0  0  0  0  0  0  0  0  0  0
   -1.1802   -2.5420   -1.0624 H   0  0  0  0  0  0  0  0  0  0  0  0
   -1.6412   -1.2505   -2.1841 H   0  0  0  0  0  0  0  0  0  0  0  0
    0.2874   -2.1967   -2.5577 C   0  0  0  0  0  0  0  0  0  0  0  0
    0.7077   -1.3611   -3.1266 H   0  0  0  0  0  0  0  0  0  0  0  0
    1.0949   -2.6500   -1.9732 H   0  0  0  0  0  0  0  0  0  0  0  0
   -0.2766   -3.2363   -3.5215 C   0  0  0  0  0  0  0  0  0  0  0  0
   -0.6744   -4.0895   -2.9605 H   0  0  0  0  0  0  0  0  0  0  0  0
   -1.0952   -2.8020   -4.1062 H   0  0  0  0  0  0  0  0  0  0  0  0
    0.7989   -3.6811   -4.4134 N   0  0  0  0  0  0  0  0  0  0  0  0
    0.4680   -4.3922   -5.0655 H   0  0  0  0  0  0  0  0  0  0  0  0
    1.2110   -2.8927   -4.9121 H   0  0  0  0  0  0  0  0  0  0  0  0
   -1.0749    0.9552    1.1496 C   0  0  0  0  0  0  0  0  0  0  0  0
   -2.0380    1.6037    0.7557 O   0  0  0  0  0  0  0  0  0  0  0  0
   -0.1659    1.5401    2.0117 N   0  0  0  0  0  0  0  0  0  0  0  0
    0.5930    0.9610    2.3605 H   0  0  0  0  0  0  0  0  0  0  0  0
   -0.2787    2.9158    2.4798 C   0  0  0  0  0  0  0  0  0  0  0  0
   -1.2090    3.0546    3.0406 H   0  0  0  0  0  0  0  0  0  0  0  0
    0.5612    3.1620    3.1362 H   0  0  0  0  0  0  0  0  0  0  0  0
   -0.2704    3.6100    1.6329 H   0  0  0  0  0  0  0  0  0  0  0  0
  1  2  1  0  0  0  0
  2  3  1  0  0  0  0
  2  4  1  0  0  0  0
  2  5  1  0  0  0  0
  5  6  2  0  0  0  0
  5  7  1  0  0  0  0
  7  8  1  0  0  0  0
  7  9  1  0  0  0  0
  9 10  1  0  0  0  0
  9 11  1  0  0  0  0
  9 26  1  0  0  0  0
 11 12  1  0  0  0  0
 11 13  1  0  0  0  0
 11 14  1  0  0  0  0
 14 15  1  0  0  0  0
 14 16  1  0  0  0  0
 14 17  1  0  0  0  0
 17 18  1  0  0  0  0
 17 19  1  0  0  0  0
 17 20  1  0  0  0  0
 20 21  1  0  0  0  0
 20 22  1  0  0  0  0
 20 23  1  0  0  0  0
 23 24  1  0  0  0  0
 23 25  1  0  0  0  0
 26 27  2  0  0  0  0
 26 28  1  0  0  0  0
 28 29  1  0  0  0  0
 28 30  1  0  0  0  0
 30 31  1  0  0  0  0
 30 32  1  0  0  0  0
 30 33  1  0  0  0  0
M  END
$$$$

  -OEChem-03222214063D

 33 32  0     1  0  0  0  0  0999 V2000
   -3.9227   -3.9209    1.9950 H   0  0  0  0  0  0  0  0  0  0  0  0
   -3.9116   -2.9459    1.4999 C   0  0  0  0  0  0  0  0  0  0  0  0
   -4.5244   -2.2503    2.0783 H   0  0  0  0  0  0  0  0  0  0  0  0
   -4.3392   -3.0532    0.5003 H   0  0  0  0  0  0  0  0  0  0  0  0
   -2.4905   -2.4254    1.4004 C   0  0  0  0  0  0  0  0  0  0  0  0
   -1.5635   -3.0972    1.8240 O   0  0  0  0  0  0  0  0  0  0  0  0
   -2.2564   -1.1899    0.8325 N   0  0  0  0  0  0  0  0  0  0  0  0
   -3.0681   -0.6311    0.5745 H   0  0  0  0  0  0  0  0  0  0  0  0
   -0.9442   -0.5283    0.7493 C   0  0  1  0  0  0  0  0  0  0  0  0
   -0.2784   -0.9982    1.4808 H   0  0  0  0  0  0  0  0  0  0  0  0
   -0.2531   -0.6351   -0.6389 C   0  0  0  0  0  0  0  0  0  0  0  0
   -0.3017    0.3364   -1.1429 H   0  0  0  0  0  0  0  0  0  0  0  0
    0.8074   -0.8333   -0.4516 H   0  0  0  0  0  0  0  0  0  0  0  0
   -0.8016   -1.6843   -1.6344 C   0  0  0  0  0  0  0  0  0  0  0  0
   -1.4312   -2.4223   -1.1337 H   0  0  0  0  0  0  0  0  0  0  0  0
   -1.4152   -1.1837   -2.3906 H   0  0  0  0  0  0  0  0  0  0  0  0
    0.3464   -2.4578   -2.2956 C   0  0  0  0  0  0  0  0  0  0  0  0
    1.0050   -1.7565   -2.8181 H   0  0  0  0  0  0  0  0  0  0  0  0
    0.9360   -2.9709   -1.5284 H   0  0  0  0  0  0  0  0  0  0  0  0
   -0.1881   -3.4878   -3.2867 C   0  0  0  0  0  0  0  0  0  0  0  0
   -0.8191   -4.2167   -2.7657 H   0  0  0  0  0  0  0  0  0  0  0  0
   -0.7985   -2.9932   -4.0505 H   0  0  0  0  0  0  0  0  0  0  0  0
    0.9485   -4.1690   -3.9145 N   0  0  0  0  0  0  0  0  0  0  0  0
    0.6349   -4.8813   -4.5738 H   0  0  0  0  0  0  0  0  0  0  0  0
    1.5718   -3.5013   -4.3680 H   0  0  0  0  0  0  0  0  0  0  0  0
   -1.0769    0.9543    1.1517 C   0  0  0  0  0  0  0  0  0  0  0  0
   -2.0352    1.6107    0.7588 O   0  0  0  0  0  0  0  0  0  0  0  0
   -0.1577    1.5349    2.0061 N   0  0  0  0  0  0  0  0  0  0  0  0
    0.5912    0.9470    2.3614 H   0  0  0  0  0  0  0  0  0  0  0  0
   -0.2617    2.9093    2.4807 C   0  0  0  0  0  0  0  0  0  0  0  0
   -1.1883    3.0502    3.0471 H   0  0  0  0  0  0  0  0  0  0  0  0
    0.5830    3.1481    3.1340 H   0  0  0  0  0  0  0  0  0  0  0  0
   -0.2538    3.6079    1.6373 H   0  0  0  0  0  0  0  0  0  0  0  0
  1  2  1  0  0  0  0
  2  3  1  0  0  0  0
  2  4  1  0  0  0  0
  2  5  1  0  0  0  0
  5  6  2  0  0  0  0
  5  7  1  0  0  0  0
  7  8  1  0  0  0  0
  7  9  1  0  0  0  0
  9 10  1  0  0  0  0
  9 11  1  0  0  0  0
  9 26  1  0  0  0  0
 11 12  1  0  0  0  0
 11 13  1  0  0  0  0
 11 14  1  0  0  0  0
 14 15  1  0  0  0  0
 14 16  1  0  0  0  0
 14 17  1  0  0  0  0
 17 18  1  0  0  0  0
 17 19  1  0  0  0  0
 17 20  1  0  0  0  0
 20 21  1  0  0  0  0
 20 22  1  0  0  0  0
 20 23  1  0  0  0  0
 23 24  1  0  0  0  0
 23 25  1  0  0  0  0
 26 27  2  0  0  0  0
 26 28  1  0  0  0  0
 28 29  1  0  0  0  0
 28 30  1  0  0  0  0
 30 31  1  0  0  0  0
 30 32  1  0  0  0  0
 30 33  1  0  0  0  0
M  END
$$$$

  -OEChem-03222214063D

 33 32  0     1  0  0  0  0  0999 V2000
   -3.9325   -3.9125    1.9725 H   0  0  0  0  0  0  0  0  0  0  0  0
   -3.9213   -2.9349    1.4826 C   0  0  0  0  0  0  0  0  0  0  0  0
   -4.5399   -2.2436    2.0600 H   0  0  0  0  0  0  0  0  0  0  0  0
   -4.3410   -3.0386    0.4793 H   0  0  0  0  0  0  0  0  0  0  0  0
   -2.5012   -2.4099    1.3957 C   0  0  0  0  0  0  0  0  0  0  0  0
   -1.5757   -3.0802    1.8248 O   0  0  0  0  0  0  0  0  0  0  0  0
   -2.2671   -1.1724    0.8326 N   0  0  0  0  0  0  0  0  0  0  0  0
   -3.0779   -0.6133    0.5724 H   0  0  0  0  0  0  0  0  0  0  0  0
   -0.9535   -0.5152    0.7501 C   0  0  1  0  0  0  0  0  0  0  0  0
   -0.2927   -0.9888    1.4836 H   0  0  0  0  0  0  0  0  0  0  0  0
   -0.2511   -0.6303   -0.6328 C   0  0  0  0  0  0  0  0  0  0  0  0
   -0.3253    0.3402   -1.1359 H   0  0  0  0  0  0  0  0  0  0  0  0
    0.8155   -0.7990   -0.4514 H   0  0  0  0  0  0  0  0  0  0  0  0
   -0.7827   -1.6812   -1.6403 C   0  0  0  0  0  0  0  0  0  0  0  0
   -1.6451   -2.2305   -1.2599 H   0  0  0  0  0  0  0  0  0  0  0  0
   -1.1099   -1.1639   -2.5483 H   0  0  0  0  0  0  0  0  0  0  0  0
    0.3118   -2.6938   -2.0012 C   0  0  0  0  0  0  0  0  0  0  0  0
    1.1682   -2.1687   -2.4363 H   0  0  0  0  0  0  0  0  0  0  0  0
    0.6515   -3.2056   -1.0944 H   0  0  0  0  0  0  0  0  0  0  0  0
   -0.2086   -3.7279   -2.9957 C   0  0  0  0  0  0  0  0  0  0  0  0
   -1.0338   -4.2942   -2.5495 H   0  0  0  0  0  0  0  0  0  0  0  0
   -0.5853   -3.2279   -3.8948 H   0  0  0  0  0  0  0  0  0  0  0  0
    0.8881   -4.6351   -3.3478 N   0  0  0  0  0  0  0  0  0  0  0  0
    0.5810   -5.3495   -4.0076 H   0  0  0  0  0  0  0  0  0  0  0  0
    1.6880   -4.1195   -3.7139 H   0  0  0  0  0  0  0  0  0  0  0  0
   -1.0780    0.9662    1.1590 C   0  0  0  0  0  0  0  0  0  0  0  0
   -2.0344    1.6292    0.7725 O   0  0  0  0  0  0  0  0  0  0  0  0
   -0.1538    1.5376    2.0140 N   0  0  0  0  0  0  0  0  0  0  0  0
    0.5894    0.9423    2.3690 H   0  0  0  0  0  0  0  0  0  0  0  0
   -0.2554    2.9068    2.5038 C   0  0  0  0  0  0  0  0  0  0  0  0
   -1.1828    3.0433    3.0702 H   0  0  0  0  0  0  0  0  0  0  0  0
    0.5886    3.1366    3.1613 H   0  0  0  0  0  0  0  0  0  0  0  0
   -0.2447    3.6145    1.6682 H   0  0  0  0  0  0  0  0  0  0  0  0
  1  2  1  0  0  0  0
  2  3  1  0  0  0  0
  2  4  1  0  0  0  0
  2  5  1  0  0  0  0
  5  6  2  0  0  0  0
  5  7  1  0  0  0  0
  7  8  1  0  0  0  0
  7  9  1  0  0  0  0
  9 10  1  0  0  0  0
  9 11  1  0  0  0  0
  9 26  1  0  0  0  0
 11 12  1  0  0  0  0
 11 13  1  0  0  0  0
 11 14  1  0  0  0  0
 14 15  1  0  0  0  0
 14 16  1  0  0  0  0
 14 17  1  0  0  0  0
 17 18  1  0  0  0  0
 17 19  1  0  0  0  0
 17 20  1  0  0  0  0
 20 21  1  0  0  0  0
 20 22  1  0  0  0  0
 20 23  1  0  0  0  0
 23 24  1  0  0  0  0
 23 25  1  0  0  0  0
 26 27  2  0  0  0  0
 26 28  1  0  0  0  0
 28 29  1  0  0  0  0
 28 30  1  0  0  0  0
 30 31  1  0  0  0  0
 30 32  1  0  0  0  0
 30 33  1  0  0  0  0
M  END
$$$$

  -OEChem-03222214063D

 33 32  0     1  0  0  0  0  0999 V2000
   -3.9105   -3.9299    1.9172 H   0  0  0  0  0  0  0  0  0  0  0  0
   -3.9021   -2.9522    1.4272 C   0  0  0  0  0  0  0  0  0  0  0  0
   -4.5451   -2.2706    1.9892 H   0  0  0  0  0  0  0  0  0  0  0  0
   -4.2959   -3.0624    0.4141 H   0  0  0  0  0  0  0  0  0  0  0  0
   -2.4881   -2.4058    1.3750 C   0  0  0  0  0  0  0  0  0  0  0  0
   -1.5647   -3.0629    1.8279 O   0  0  0  0  0  0  0  0  0  0  0  0
   -2.2575   -1.1632    0.8211 N   0  0  0  0  0  0  0  0  0  0  0  0
   -3.0686   -0.6148    0.5409 H   0  0  0  0  0  0  0  0  0  0  0  0
   -0.9469   -0.4986    0.7520 C   0  0  1  0  0  0  0  0  0  0  0  0
   -0.2895   -0.9732    1.4878 H   0  0  0  0  0  0  0  0  0  0  0  0
   -0.2346   -0.6117   -0.6255 C   0  0  0  0  0  0  0  0  0  0  0  0
   -0.3353    0.3562   -1.1290 H   0  0  0  0  0  0  0  0  0  0  0  0
    0.8371   -0.7587   -0.4557 H   0  0  0  0  0  0  0  0  0  0  0  0
   -0.7612   -1.6666   -1.6280 C   0  0  0  0  0  0  0  0  0  0  0  0
   -1.7787   -1.9945   -1.4074 H   0  0  0  0  0  0  0  0  0  0  0  0
   -0.7936   -1.2061   -2.6209 H   0  0  0  0  0  0  0  0  0  0  0  0
    0.1815   -2.8741   -1.6955 C   0  0  0  0  0  0  0  0  0  0  0  0
    1.1777   -2.5475   -2.0109 H   0  0  0  0  0  0  0  0  0  0  0  0
    0.2709   -3.3245   -0.7009 H   0  0  0  0  0  0  0  0  0  0  0  0
   -0.3447   -3.9196   -2.6744 C   0  0  0  0  0  0  0  0  0  0  0  0
   -1.3175   -4.2932   -2.3354 H   0  0  0  0  0  0  0  0  0  0  0  0
   -0.4782   -3.4721   -3.6655 H   0  0  0  0  0  0  0  0  0  0  0  0
    0.6178   -5.0231   -2.7477 N   0  0  0  0  0  0  0  0  0  0  0  0
    0.3059   -5.7451   -3.3969 H   0  0  0  0  0  0  0  0  0  0  0  0
    1.5470   -4.6844   -2.9963 H   0  0  0  0  0  0  0  0  0  0  0  0
   -1.0756    0.9803    1.1680 C   0  0  0  0  0  0  0  0  0  0  0  0
   -2.0263    1.6466    0.7736 O   0  0  0  0  0  0  0  0  0  0  0  0
   -0.1564    1.5468    2.0317 N   0  0  0  0  0  0  0  0  0  0  0  0
    0.5831    0.9486    2.3891 H   0  0  0  0  0  0  0  0  0  0  0  0
   -0.2598    2.9135    2.5277 C   0  0  0  0  0  0  0  0  0  0  0  0
   -1.1914    3.0491    3.0872 H   0  0  0  0  0  0  0  0  0  0  0  0
    0.5790    3.1384    3.1935 H   0  0  0  0  0  0  0  0  0  0  0  0
   -0.2410    3.6254    1.6958 H   0  0  0  0  0  0  0  0  0  0  0  0
  1  2  1  0  0  0  0
  2  3  1  0  0  0  0
  2  4  1  0  0  0  0
  2  5  1  0  0  0  0
  5  6  2  0  0  0  0
  5  7  1  0  0  0  0
  7  8  1  0  0  0  0
  7  9  1  0  0  0  0
  9 10  1  0  0  0  0
  9 11  1  0  0  0  0
  9 26  1  0  0  0  0
 11 12  1  0  0  0  0
 11 13  1  0  0  0  0
 11 14  1  0  0  0  0
 14 15  1  0  0  0  0
 14 16  1  0  0  0  0
 14 17  1  0  0  0  0
 17 18  1  0  0  0  0
 17 19  1  0  0  0  0
 17 20  1  0  0  0  0
 20 21  1  0  0  0  0
 20 22  1  0  0  0  0
 20 23  1  0  0  0  0
 23 24  1  0  0  0  0
 23 25  1  0  0  0  0
 26 27  2  0  0  0  0
 26 28  1  0  0  0  0
 28 29  1  0  0  0  0
 28 30  1  0  0  0  0
 30 31  1  0  0  0  0
 30 32  1  0  0  0  0
 30 33  1  0  0  0  0
M  END
$$$$

  -OEChem-03222214063D

 33 32  0     1  0  0  0  0  0999 V2000
   -3.8737   -3.9613    1.8656 H   0  0  0  0  0  0  0  0  0  0  0  0
   -3.8580   -2.9870    1.3691 C   0  0  0  0  0  0  0  0  0  0  0  0
   -4.5539   -2.3191    1.8822 H   0  0  0  0  0  0  0  0  0  0  0  0
   -4.1813   -3.1145    0.3332 H   0  0  0  0  0  0  0  0  0  0  0  0
   -2.4578   -2.4044    1.4050 C   0  0  0  0  0  0  0  0  0  0  0  0
   -1.5576   -3.0172    1.9565 O   0  0  0  0  0  0  0  0  0  0  0  0
   -2.2192   -1.1691    0.8382 N   0  0  0  0  0  0  0  0  0  0  0  0
   -3.0201   -0.6521    0.4803 H   0  0  0  0  0  0  0  0  0  0  0  0
   -0.9111   -0.4976    0.7835 C   0  0  1  0  0  0  0  0  0  0  0  0
   -0.2531   -0.9619    1.5251 H   0  0  0  0  0  0  0  0  0  0  0  0
   -0.2013   -0.6043   -0.5963 C   0  0  0  0  0  0  0  0  0  0  0  0
   -0.3048    0.3633   -1.0999 H   0  0  0  0  0  0  0  0  0  0  0  0
    0.8708   -0.7579   -0.4358 H   0  0  0  0  0  0  0  0  0  0  0  0
   -0.7361   -1.6565   -1.5909 C   0  0  0  0  0  0  0  0  0  0  0  0
   -1.8213   -1.7697   -1.5241 H   0  0  0  0  0  0  0  0  0  0  0  0
   -0.5234   -1.3008   -2.6045 H   0  0  0  0  0  0  0  0  0  0  0  0
   -0.0314   -3.0063   -1.4102 C   0  0  0  0  0  0  0  0  0  0  0  0
    1.0448   -2.8836   -1.5675 H   0  0  0  0  0  0  0  0  0  0  0  0
   -0.1821   -3.3713   -0.3897 H   0  0  0  0  0  0  0  0  0  0  0  0
   -0.5759   -4.0333   -2.3983 C   0  0  0  0  0  0  0  0  0  0  0  0
   -1.6473   -4.1859   -2.2271 H   0  0  0  0  0  0  0  0  0  0  0  0
   -0.4424   -3.6735   -3.4245 H   0  0  0  0  0  0  0  0  0  0  0  0
    0.1446   -5.2958   -2.2116 N   0  0  0  0  0  0  0  0  0  0  0  0
   -0.1770   -6.0080   -2.8667 H   0  0  0  0  0  0  0  0  0  0  0  0
    1.1523   -5.1584   -2.2857 H   0  0  0  0  0  0  0  0  0  0  0  0
   -1.0612    0.9858    1.1771 C   0  0  0  0  0  0  0  0  0  0  0  0
   -2.0009    1.6428    0.7423 O   0  0  0  0  0  0  0  0  0  0  0  0
   -0.1645    1.5732    2.0504 N   0  0  0  0  0  0  0  0  0  0  0  0
    0.5604    0.9815    2.4468 H   0  0  0  0  0  0  0  0  0  0  0  0
   -0.2900    2.9467    2.5220 C   0  0  0  0  0  0  0  0  0  0  0  0
   -1.2270    3.0774    3.0733 H   0  0  0  0  0  0  0  0  0  0  0  0
    0.5419    3.1951    3.1878 H   0  0  0  0  0  0  0  0  0  0  0  0
   -0.2767    3.6449    1.6785 H   0  0  0  0  0  0  0  0  0  0  0  0
  1  2  1  0  0  0  0
  2  3  1  0  0  0  0
  2  4  1  0  0  0  0
  2  5  1  0  0  0  0
  5  6  2  0  0  0  0
  5  7  1  0  0  0  0
  7  8  1  0  0  0  0
  7  9  1  0  0  0  0
  9 10  1  0  0  0  0
  9 11  1  0  0  0  0
  9 26  1  0  0  0  0
 11 12  1  0  0  0  0
 11 13  1  0  0  0  0
 11 14  1  0  0  0  0
 14 15  1  0  0  0  0
 14 16  1  0  0  0  0
 14 17  1  0  0  0  0
 17 18  1  0  0  0  0
 17 19  1  0  0  0  0
 17 20  1  0  0  0  0
 20 21  1  0  0  0  0
 20 22  1  0  0  0  0
 20 23  1  0  0  0  0
 23 24  1  0  0  0  0
 23 25  1  0  0  0  0
 26 27  2  0  0  0  0
 26 28  1  0  0  0  0
 28 29  1  0  0  0  0
 28 30  1  0  0  0  0
 30 31  1  0  0  0  0
 30 32  1  0  0  0  0
 30 33  1  0  0  0  0
M  END
$$$$

  -OEChem-03222214063D

 33 32  0     1  0  0  0  0  0999 V2000
   -3.8555   -3.9551    1.9562 H   0  0  0  0  0  0  0  0  0  0  0  0
   -3.8165   -3.0204    1.3900 C   0  0  0  0  0  0  0  0  0  0  0  0
   -4.5753   -2.3387    1.7816 H   0  0  0  0  0  0  0  0  0  0  0  0
   -4.0345   -3.2356    0.3412 H   0  0  0  0  0  0  0  0  0  0  0  0
   -2.4412   -2.3926    1.5126 C   0  0  0  0  0  0  0  0  0  0  0  0
   -1.5803   -2.9366    2.1867 O   0  0  0  0  0  0  0  0  0  0  0  0
   -2.1867   -1.1802    0.9046 N   0  0  0  0  0  0  0  0  0  0  0  0
   -2.9651   -0.7136    0.4438 H   0  0  0  0  0  0  0  0  0  0  0  0
   -0.8770   -0.5101    0.8466 C   0  0  1  0  0  0  0  0  0  0  0  0
   -0.2152   -0.9521    1.5983 H   0  0  0  0  0  0  0  0  0  0  0  0
   -0.1730   -0.6150   -0.5398 C   0  0  0  0  0  0  0  0  0  0  0  0
   -0.2545    0.3548   -1.0435 H   0  0  0  0  0  0  0  0  0  0  0  0
    0.8946   -0.7909   -0.3732 H   0  0  0  0  0  0  0  0  0  0  0  0
   -0.6989   -1.6566   -1.5468 C   0  0  0  0  0  0  0  0  0  0  0  0
   -1.7875   -1.5798   -1.6311 H   0  0  0  0  0  0  0  0  0  0  0  0
   -0.2843   -1.4173   -2.5315 H   0  0  0  0  0  0  0  0  0  0  0  0
   -0.2941   -3.0944   -1.1929 C   0  0  0  0  0  0  0  0  0  0  0  0
    0.7975   -3.1692   -1.1666 H   0  0  0  0  0  0  0  0  0  0  0  0
   -0.6659   -3.3696   -0.2062 H   0  0  0  0  0  0  0  0  0  0  0  0
   -0.8458   -4.0731   -2.2259 C   0  0  0  0  0  0  0  0  0  0  0  0
   -1.9363   -3.9835   -2.2841 H   0  0  0  0  0  0  0  0  0  0  0  0
   -0.4325   -3.8449   -3.2146 H   0  0  0  0  0  0  0  0  0  0  0  0
   -0.4810   -5.4354   -1.8278 N   0  0  0  0  0  0  0  0  0  0  0  0
   -0.7831   -6.1194   -2.5213 H   0  0  0  0  0  0  0  0  0  0  0  0
    0.5208   -5.5110   -1.6513 H   0  0  0  0  0  0  0  0  0  0  0  0
   -1.0511    0.9850    1.1862 C   0  0  0  0  0  0  0  0  0  0  0  0
   -1.9787    1.6223    0.6986 O   0  0  0  0  0  0  0  0  0  0  0  0
   -0.1773    1.6118    2.0555 N   0  0  0  0  0  0  0  0  0  0  0  0
    0.5290    1.0361    2.5055 H   0  0  0  0  0  0  0  0  0  0  0  0
   -0.3302    2.9986    2.4781 C   0  0  0  0  0  0  0  0  0  0  0  0
   -1.2737    3.1317    3.0178 H   0  0  0  0  0  0  0  0  0  0  0  0
    0.4920    3.2850    3.1408 H   0  0  0  0  0  0  0  0  0  0  0  0
   -0.3224    3.6674    1.6109 H   0  0  0  0  0  0  0  0  0  0  0  0
  1  2  1  0  0  0  0
  2  3  1  0  0  0  0
  2  4  1  0  0  0  0
  2  5  1  0  0  0  0
  5  6  2  0  0  0  0
  5  7  1  0  0  0  0
  7  8  1  0  0  0  0
  7  9  1  0  0  0  0
  9 10  1  0  0  0  0
  9 11  1  0  0  0  0
  9 26  1  0  0  0  0
 11 12  1  0  0  0  0
 11 13  1  0  0  0  0
 11 14  1  0  0  0  0
 14 15  1  0  0  0  0
 14 16  1  0  0  0  0
 14 17  1  0  0  0  0
 17 18  1  0  0  0  0
 17 19  1  0  0  0  0
 17 20  1  0  0  0  0
 20 21  1  0  0  0  0
 20 22  1  0  0  0  0
 20 23  1  0  0  0  0
 23 24  1  0  0  0  0
 23 25  1  0  0  0  0
 26 27  2  0  0  0  0
 26 28  1  0  0  0  0
 28 29  1  0  0  0  0
 28 30  1  0  0  0  0
 30 31  1  0  0  0  0
 30 32  1  0  0  0  0
 30 33  1  0  0  0  0
M  END
$$$$

  -OEChem-03222214063D

 33 32  0     1  0  0  0  0  0999 V2000
   -3.9419   -3.8253    2.3321 H   0  0  0  0  0  0  0  0  0  0  0  0
   -3.9232   -2.8998    1.7497 C   0  0  0  0  0  0  0  0  0  0  0  0
   -4.5869   -2.1718    2.2222 H   0  0  0  0  0  0  0  0  0  0  0  0
   -4.2843   -3.1119    0.7404 H   0  0  0  0  0  0  0  0  0  0  0  0
   -2.5107   -2.3503    1.6875 C   0  0  0  0  0  0  0  0  0  0  0  0
   -1.5977   -2.9496    2.2352 O   0  0  0  0  0  0  0  0  0  0  0  0
   -2.2705   -1.1559    1.0389 N   0  0  0  0  0  0  0  0  0  0  0  0
   -3.0737   -0.6478    0.6738 H   0  0  0  0  0  0  0  0  0  0  0  0
   -0.9508   -0.5266    0.8791 C   0  0  1  0  0  0  0  0  0  0  0  0
   -0.2550   -0.9722    1.5971 H   0  0  0  0  0  0  0  0  0  0  0  0
   -0.3272   -0.6606   -0.5426 C   0  0  0  0  0  0  0  0  0  0  0  0
   -0.3889    0.3113   -1.0450 H   0  0  0  0  0  0  0  0  0  0  0  0
    0.7382   -0.8762   -0.4134 H   0  0  0  0  0  0  0  0  0  0  0  0
   -0.8992   -1.6843   -1.5453 C   0  0  0  0  0  0  0  0  0  0  0  0
   -1.9371   -1.4256   -1.7792 H   0  0  0  0  0  0  0  0  0  0  0  0
   -0.3244   -1.5824   -2.4720 H   0  0  0  0  0  0  0  0  0  0  0  0
   -0.8427   -3.1491   -1.0848 C   0  0  0  0  0  0  0  0  0  0  0  0
    0.0300   -3.3087   -0.4435 H   0  0  0  0  0  0  0  0  0  0  0  0
   -1.7379   -3.3963   -0.5146 H   0  0  0  0  0  0  0  0  0  0  0  0
   -0.7697   -4.0942   -2.2805 C   0  0  0  0  0  0  0  0  0  0  0  0
   -1.5969   -3.8934   -2.9705 H   0  0  0  0  0  0  0  0  0  0  0  0
    0.1710   -3.9410   -2.8209 H   0  0  0  0  0  0  0  0  0  0  0  0
   -0.8540   -5.4732   -1.7914 N   0  0  0  0  0  0  0  0  0  0  0  0
   -0.7211   -6.1447   -2.5473 H   0  0  0  0  0  0  0  0  0  0  0  0
   -0.1866   -5.6352   -1.0365 H   0  0  0  0  0  0  0  0  0  0  0  0
   -1.0676    0.9781    1.2033 C   0  0  0  0  0  0  0  0  0  0  0  0
   -2.0167    1.6283    0.7783 O   0  0  0  0  0  0  0  0  0  0  0  0
   -0.1222    1.5966    2.0008 N   0  0  0  0  0  0  0  0  0  0  0  0
    0.6079    1.0141    2.4009 H   0  0  0  0  0  0  0  0  0  0  0  0
   -0.2050    2.9961    2.3997 C   0  0  0  0  0  0  0  0  0  0  0  0
   -1.1093    3.1730    2.9913 H   0  0  0  0  0  0  0  0  0  0  0  0
    0.6642    3.2684    3.0062 H   0  0  0  0  0  0  0  0  0  0  0  0
   -0.2274    3.6453    1.5180 H   0  0  0  0  0  0  0  0  0  0  0  0
  1  2  1  0  0  0  0
  2  3  1  0  0  0  0
  2  4  1  0  0  0  0
  2  5  1  0  0  0  0
  5  6  2  0  0  0  0
  5  7  1  0  0  0  0
  7  8  1  0  0  0  0
  7  9  1  0  0  0  0
  9 10  1  0  0  0  0
  9 11  1  0  0  0  0
  9 26  1  0  0  0  0
 11 12  1  0  0  0  0
 11 13  1  0  0  0  0
 11 14  1  0  0  0  0
 14 15  1  0  0  0  0
 14 16  1  0  0  0  0
 14 17  1  0  0  0  0
 17 18  1  0  0  0  0
 17 19  1  0  0  0  0
 17 20  1  0  0  0  0
 20 21  1  0  0  0  0
 20 22  1  0  0  0  0
 20 23  1  0  0  0  0
 23 24  1  0  0  0  0
 23 25  1  0  0  0  0
 26 27  2  0  0  0  0
 26 28  1  0  0  0  0
 28 29  1  0  0  0  0
 28 30  1  0  0  0  0
 30 31  1  0  0  0  0
 30 32  1  0  0  0  0
 30 33  1  0  0  0  0
M  END
$$$$

  -OEChem-03222214063D

 33 32  0     1  0  0  0  0  0999 V2000
   -3.6563   -4.1280    2.0448 H   0  0  0  0  0  0  0  0  0  0  0  0
   -3.6799   -3.1616    1.5337 C   0  0  0  0  0  0  0  0  0  0  0  0
   -4.4047   -2.5132    2.0314 H   0  0  0  0  0  0  0  0  0  0  0  0
   -3.9946   -3.3226    0.5008 H   0  0  0  0  0  0  0  0  0  0  0  0
   -2.3043   -2.5219    1.5692 C   0  0  0  0  0  0  0  0  0  0  0  0
   -1.4385   -2.9876    2.2957 O   0  0  0  0  0  0  0  0  0  0  0  0
   -2.0808   -1.3293    0.9061 N   0  0  0  0  0  0  0  0  0  0  0  0
   -2.8718   -0.9022    0.4286 H   0  0  0  0  0  0  0  0  0  0  0  0
   -0.8052   -0.5924    0.8811 C   0  0  1  0  0  0  0  0  0  0  0  0
   -0.1635   -0.9536    1.6912 H   0  0  0  0  0  0  0  0  0  0  0  0
    0.0094   -0.6489   -0.4545 C   0  0  0  0  0  0  0  0  0  0  0  0
   -0.0374    0.3296   -0.9459 H   0  0  0  0  0  0  0  0  0  0  0  0
    1.0546   -0.7956   -0.1643 H   0  0  0  0  0  0  0  0  0  0  0  0
   -0.2893   -1.6837   -1.5637 C   0  0  0  0  0  0  0  0  0  0  0  0
   -1.1826   -1.3313   -2.0899 H   0  0  0  0  0  0  0  0  0  0  0  0
    0.5305   -1.6548   -2.2890 H   0  0  0  0  0  0  0  0  0  0  0  0
   -0.5090   -3.1462   -1.1417 C   0  0  0  0  0  0  0  0  0  0  0  0
   -0.4497   -3.2507   -0.0603 H   0  0  0  0  0  0  0  0  0  0  0  0
    0.3057   -3.7549   -1.5460 H   0  0  0  0  0  0  0  0  0  0  0  0
   -1.8336   -3.6921   -1.6770 C   0  0  0  0  0  0  0  0  0  0  0  0
   -2.6537   -3.0076   -1.4380 H   0  0  0  0  0  0  0  0  0  0  0  0
   -1.7786   -3.7815   -2.7676 H   0  0  0  0  0  0  0  0  0  0  0  0
   -2.0952   -5.0008   -1.0720 N   0  0  0  0  0  0  0  0  0  0  0  0
   -2.8955   -5.4586   -1.5079 H   0  0  0  0  0  0  0  0  0  0  0  0
   -1.2674   -5.5961   -1.1145 H   0  0  0  0  0  0  0  0  0  0  0  0
   -1.1161    0.8996    1.1327 C   0  0  0  0  0  0  0  0  0  0  0  0
   -2.0606    1.4389    0.5647 O   0  0  0  0  0  0  0  0  0  0  0  0
   -0.3472    1.6335    2.0171 N   0  0  0  0  0  0  0  0  0  0  0  0
    0.3802    1.1406    2.5275 H   0  0  0  0  0  0  0  0  0  0  0  0
   -0.6155    3.0288    2.3425 C   0  0  0  0  0  0  0  0  0  0  0  0
   -1.6037    3.1318    2.8032 H   0  0  0  0  0  0  0  0  0  0  0  0
    0.1349    3.4048    3.0447 H   0  0  0  0  0  0  0  0  0  0  0  0
   -0.5813    3.6458    1.4382 H   0  0  0  0  0  0  0  0  0  0  0  0
  1  2  1  0  0  0  0
  2  3  1  0  0  0  0
  2  4  1  0  0  0  0
  2  5  1  0  0  0  0
  5  6  2  0  0  0  0
  5  7  1  0  0  0  0
  7  8  1  0  0  0  0
  7  9  1  0  0  0  0
  9 10  1  0  0  0  0
  9 11  1  0  0  0  0
  9 26  1  0  0  0  0
 11 12  1  0  0  0  0
 11 13  1  0  0  0  0
 11 14  1  0  0  0  0
 14 15  1  0  0  0  0
 14 16  1  0  0  0  0
 14 17  1  0  0  0  0
 17 18  1  0  0  0  0
 17 19  1  0  0  0  0
 17 20  1  0  0  0  0
 20 21  1  0  0  0  0
 20 22  1  0  0  0  0
 20 23  1  0  0  0  0
 23 24  1  0  0  0  0
 23 25  1  0  0  0  0
 26 27  2  0  0  0  0
 26 28  1  0  0  0  0
 28 29  1  0  0  0  0
 28 30  1  0  0  0  0
 30 31  1  0  0  0  0
 30 32  1  0  0  0  0
 30 33  1  0  0  0  0
M  END
$$$$

  -OEChem-03222214063D

 33 32  0     1  0  0  0  0  0999 V2000
   -3.6371   -4.1835    2.1691 H   0  0  0  0  0  0  0  0  0  0  0  0
   -3.6879   -3.1598    1.7881 C   0  0  0  0  0  0  0  0  0  0  0  0
   -4.2533   -2.5471    2.4944 H   0  0  0  0  0  0  0  0  0  0  0  0
   -4.2110   -3.1696    0.8287 H   0  0  0  0  0  0  0  0  0  0  0  0
   -2.2895   -2.5940    1.6202 C   0  0  0  0  0  0  0  0  0  0  0  0
   -1.3431   -3.1602    2.1453 O   0  0  0  0  0  0  0  0  0  0  0  0
   -2.1135   -1.3945    0.9589 N   0  0  0  0  0  0  0  0  0  0  0  0
   -2.9549   -0.9136    0.6432 H   0  0  0  0  0  0  0  0  0  0  0  0
   -0.8532   -0.6448    0.8489 C   0  0  1  0  0  0  0  0  0  0  0  0
   -0.1740   -1.0024    1.6296 H   0  0  0  0  0  0  0  0  0  0  0  0
   -0.0772   -0.6887   -0.5113 C   0  0  0  0  0  0  0  0  0  0  0  0
   -0.1522    0.2957   -0.9871 H   0  0  0  0  0  0  0  0  0  0  0  0
    0.9747   -0.8088   -0.2326 H   0  0  0  0  0  0  0  0  0  0  0  0
   -0.3285   -1.7078   -1.6550 C   0  0  0  0  0  0  0  0  0  0  0  0
   -1.0449   -1.2535   -2.3478 H   0  0  0  0  0  0  0  0  0  0  0  0
    0.6115   -1.8087   -2.2076 H   0  0  0  0  0  0  0  0  0  0  0  0
   -0.8274   -3.1203   -1.3215 C   0  0  0  0  0  0  0  0  0  0  0  0
   -0.6049   -3.3579   -0.2815 H   0  0  0  0  0  0  0  0  0  0  0  0
   -0.2582   -3.8342   -1.9256 H   0  0  0  0  0  0  0  0  0  0  0  0
   -2.3063   -3.3261   -1.6480 C   0  0  0  0  0  0  0  0  0  0  0  0
   -2.9205   -2.5461   -1.1912 H   0  0  0  0  0  0  0  0  0  0  0  0
   -2.4644   -3.2726   -2.7308 H   0  0  0  0  0  0  0  0  0  0  0  0
   -2.7025   -4.6442   -1.1443 N   0  0  0  0  0  0  0  0  0  0  0  0
   -2.2792   -5.3851   -1.7037 H   0  0  0  0  0  0  0  0  0  0  0  0
   -2.4360   -4.7483   -0.1637 H   0  0  0  0  0  0  0  0  0  0  0  0
   -1.1618    0.8411    1.1354 C   0  0  0  0  0  0  0  0  0  0  0  0
   -2.1660    1.3633    0.6628 O   0  0  0  0  0  0  0  0  0  0  0  0
   -0.3403    1.5783    1.9683 N   0  0  0  0  0  0  0  0  0  0  0  0
    0.4481    1.1008    2.3961 H   0  0  0  0  0  0  0  0  0  0  0  0
   -0.6052    2.9656    2.3291 C   0  0  0  0  0  0  0  0  0  0  0  0
   -1.5678    3.0499    2.8444 H   0  0  0  0  0  0  0  0  0  0  0  0
    0.1779    3.3397    2.9957 H   0  0  0  0  0  0  0  0  0  0  0  0
   -0.6273    3.5964    1.4342 H   0  0  0  0  0  0  0  0  0  0  0  0
  1  2  1  0  0  0  0
  2  3  1  0  0  0  0
  2  4  1  0  0  0  0
  2  5  1  0  0  0  0
  5  6  2  0  0  0  0
  5  7  1  0  0  0  0
  7  8  1  0  0  0  0
  7  9  1  0  0  0  0
  9 10  1  0  0  0  0
  9 11  1  0  0  0  0
  9 26  1  0  0  0  0
 11 12  1  0  0  0  0
 11 13  1  0  0  0  0
 11 14  1  0  0  0  0
 14 15  1  0  0  0  0
 14 16  1  0  0  0  0
 14 17  1  0  0  0  0
 17 18  1  0  0  0  0
 17 19  1  0  0  0  0
 17 20  1  0  0  0  0
 20 21  1  0  0  0  0
 20 22  1  0  0  0  0
 20 23  1  0  0  0  0
 23 24  1  0  0  0  0
 23 25  1  0  0  0  0
 26 27  2  0  0  0  0
 26 28  1  0  0  0  0
 28 29  1  0  0  0  0
 28 30  1  0  0  0  0
 30 31  1  0  0  0  0
 30 32  1  0  0  0  0
 30 33  1  0  0  0  0
M  END
$$$$

  -OEChem-03222214063D

 33 32  0     1  0  0  0  0  0999 V2000
   -3.9830   -3.6846    2.6391 H   0  0  0  0  0  0  0  0  0  0  0  0
   -3.9653   -2.7758    2.0316 C   0  0  0  0  0  0  0  0  0  0  0  0
   -4.5979   -2.0216    2.5059 H   0  0  0  0  0  0  0  0  0  0  0  0
   -4.3656   -3.0071    1.0413 H   0  0  0  0  0  0  0  0  0  0  0  0
   -2.5449   -2.2581    1.9061 C   0  0  0  0  0  0  0  0  0  0  0  0
   -1.6257   -2.8673    2.4324 O   0  0  0  0  0  0  0  0  0  0  0  0
   -2.3016   -1.0916    1.2079 N   0  0  0  0  0  0  0  0  0  0  0  0
   -3.1060   -0.5882    0.8379 H   0  0  0  0  0  0  0  0  0  0  0  0
   -0.9795   -0.4895    0.9877 C   0  0  1  0  0  0  0  0  0  0  0  0
   -0.2879   -0.9082    1.7259 H   0  0  0  0  0  0  0  0  0  0  0  0
   -0.3222   -0.6747   -0.4214 C   0  0  0  0  0  0  0  0  0  0  0  0
   -0.3378    0.2938   -0.9337 H   0  0  0  0  0  0  0  0  0  0  0  0
    0.7327   -0.8913   -0.2227 H   0  0  0  0  0  0  0  0  0  0  0  0
   -0.7810   -1.7060   -1.4924 C   0  0  0  0  0  0  0  0  0  0  0  0
   -1.2919   -1.1472   -2.2838 H   0  0  0  0  0  0  0  0  0  0  0  0
    0.1237   -2.1318   -1.9388 H   0  0  0  0  0  0  0  0  0  0  0  0
   -1.7089   -2.8592   -1.0999 C   0  0  0  0  0  0  0  0  0  0  0  0
   -1.2958   -3.3807   -0.2319 H   0  0  0  0  0  0  0  0  0  0  0  0
   -2.7012   -2.4724   -0.8570 H   0  0  0  0  0  0  0  0  0  0  0  0
   -1.8635   -3.8561   -2.2434 C   0  0  0  0  0  0  0  0  0  0  0  0
   -2.2572   -3.3519   -3.1331 H   0  0  0  0  0  0  0  0  0  0  0  0
   -0.8911   -4.2910   -2.4997 H   0  0  0  0  0  0  0  0  0  0  0  0
   -2.7899   -4.9067   -1.8100 N   0  0  0  0  0  0  0  0  0  0  0  0
   -2.9246   -5.6047   -2.5414 H   0  0  0  0  0  0  0  0  0  0  0  0
   -2.4652   -5.3434   -0.9465 H   0  0  0  0  0  0  0  0  0  0  0  0
   -1.0813    1.0268    1.2618 C   0  0  0  0  0  0  0  0  0  0  0  0
   -2.0346    1.6685    0.8331 O   0  0  0  0  0  0  0  0  0  0  0  0
   -0.1131    1.6693    2.0116 N   0  0  0  0  0  0  0  0  0  0  0  0
    0.6255    1.0987    2.4129 H   0  0  0  0  0  0  0  0  0  0  0  0
   -0.1756    3.0852    2.3535 C   0  0  0  0  0  0  0  0  0  0  0  0
   -1.0593    3.2924    2.9662 H   0  0  0  0  0  0  0  0  0  0  0  0
    0.7147    3.3772    2.9187 H   0  0  0  0  0  0  0  0  0  0  0  0
   -0.2244    3.6971    1.4465 H   0  0  0  0  0  0  0  0  0  0  0  0
  1  2  1  0  0  0  0
  2  3  1  0  0  0  0
  2  4  1  0  0  0  0
  2  5  1  0  0  0  0
  5  6  2  0  0  0  0
  5  7  1  0  0  0  0
  7  8  1  0  0  0  0
  7  9  1  0  0  0  0
  9 10  1  0  0  0  0
  9 11  1  0  0  0  0
  9 26  1  0  0  0  0
 11 12  1  0  0  0  0
 11 13  1  0  0  0  0
 11 14  1  0  0  0  0
 14 15  1  0  0  0  0
 14 16  1  0  0  0  0
 14 17  1  0  0  0  0
 17 18  1  0  0  0  0
 17 19  1  0  0  0  0
 17 20  1  0  0  0  0
 20 21  1  0  0  0  0
 20 22  1  0  0  0  0
 20 23  1  0  0  0  0
 23 24  1  0  0  0  0
 23 25  1  0  0  0  0
 26 27  2  0  0  0  0
 26 28  1  0  0  0  0
 28 29  1  0  0  0  0
 28 30  1  0  0  0  0
 30 31  1  0  0  0  0
 30 32  1  0  0  0  0
 30 33  1  0  0  0  0
M  END
$$$$

  -OEChem-03222214063D

 33 32  0     1  0  0  0  0  0999 V2000
   -3.9317   -3.7014    2.6964 H   0  0  0  0  0  0  0  0  0  0  0  0
   -3.9316   -2.7830    2.1029 C   0  0  0  0  0  0  0  0  0  0  0  0
   -4.5530   -2.0375    2.6051 H   0  0  0  0  0  0  0  0  0  0  0  0
   -4.3563   -2.9995    1.1193 H   0  0  0  0  0  0  0  0  0  0  0  0
   -2.5166   -2.2589    1.9485 C   0  0  0  0  0  0  0  0  0  0  0  0
   -1.5813   -2.8732    2.4392 O   0  0  0  0  0  0  0  0  0  0  0  0
   -2.2960   -1.0902    1.2480 N   0  0  0  0  0  0  0  0  0  0  0  0
   -3.1124   -0.5881    0.9034 H   0  0  0  0  0  0  0  0  0  0  0  0
   -0.9842   -0.4790    0.9979 C   0  0  1  0  0  0  0  0  0  0  0  0
   -0.2785   -0.8913    1.7263 H   0  0  0  0  0  0  0  0  0  0  0  0
   -0.3402   -0.6715   -0.4171 C   0  0  0  0  0  0  0  0  0  0  0  0
   -0.4058    0.2925   -0.9343 H   0  0  0  0  0  0  0  0  0  0  0  0
    0.7269   -0.8433   -0.2428 H   0  0  0  0  0  0  0  0  0  0  0  0
   -0.7910   -1.7168   -1.4817 C   0  0  0  0  0  0  0  0  0  0  0  0
   -1.0435   -1.1625   -2.3923 H   0  0  0  0  0  0  0  0  0  0  0  0
    0.0840   -2.3316   -1.7183 H   0  0  0  0  0  0  0  0  0  0  0  0
   -1.9533   -2.6730   -1.1965 C   0  0  0  0  0  0  0  0  0  0  0  0
   -1.7083   -3.2930   -0.3309 H   0  0  0  0  0  0  0  0  0  0  0  0
   -2.8654   -2.1041   -0.9959 H   0  0  0  0  0  0  0  0  0  0  0  0
   -2.2184   -3.5889   -2.3866 C   0  0  0  0  0  0  0  0  0  0  0  0
   -2.4823   -2.9937   -3.2679 H   0  0  0  0  0  0  0  0  0  0  0  0
   -1.3208   -4.1707   -2.6239 H   0  0  0  0  0  0  0  0  0  0  0  0
   -3.3243   -4.4857   -2.0361 N   0  0  0  0  0  0  0  0  0  0  0  0
   -3.5560   -5.1056   -2.8123 H   0  0  0  0  0  0  0  0  0  0  0  0
   -3.1041   -5.0226   -1.1969 H   0  0  0  0  0  0  0  0  0  0  0  0
   -1.0869    1.0362    1.2761 C   0  0  0  0  0  0  0  0  0  0  0  0
   -2.0561    1.6723    0.8762 O   0  0  0  0  0  0  0  0  0  0  0  0
   -0.1040    1.6821    2.0033 N   0  0  0  0  0  0  0  0  0  0  0  0
    0.6512    1.1155    2.3788 H   0  0  0  0  0  0  0  0  0  0  0  0
   -0.1688    3.0951    2.3556 C   0  0  0  0  0  0  0  0  0  0  0  0
   -1.0412    3.2928    2.9872 H   0  0  0  0  0  0  0  0  0  0  0  0
    0.7306    3.3893    2.9048 H   0  0  0  0  0  0  0  0  0  0  0  0
   -0.2395    3.7125    1.4539 H   0  0  0  0  0  0  0  0  0  0  0  0
  1  2  1  0  0  0  0
  2  3  1  0  0  0  0
  2  4  1  0  0  0  0
  2  5  1  0  0  0  0
  5  6  2  0  0  0  0
  5  7  1  0  0  0  0
  7  8  1  0  0  0  0
  7  9  1  0  0  0  0
  9 10  1  0  0  0  0
  9 11  1  0  0  0  0
  9 26  1  0  0  0  0
 11 12  1  0  0  0  0
 11 13  1  0  0  0  0
 11 14  1  0  0  0  0
 14 15  1  0  0  0  0
 14 16  1  0  0  0  0
 14 17  1  0  0  0  0
 17 18  1  0  0  0  0
 17 19  1  0  0  0  0
 17 20  1  0  0  0  0
 20 21  1  0  0  0  0
 20 22  1  0  0  0  0
 20 23  1  0  0  0  0
 23 24  1  0  0  0  0
 23 25  1  0  0  0  0
 26 27  2  0  0  0  0
 26 28  1  0  0  0  0
 28 29  1  0  0  0  0
 28 30  1  0  0  0  0
 30 31  1  0  0  0  0
 30 32  1  0  0  0  0
 30 33  1  0  0  0  0
M  END
$$$$

  -OEChem-03222214063D

 33 32  0     1  0  0  0  0  0999 V2000
   -4.1389   -3.8476    1.9129 H   0  0  0  0  0  0  0  0  0  0  0  0
   -4.0890   -2.7785    1.6877 C   0  0  0  0  0  0  0  0  0  0  0  0
   -4.5318   -2.2206    2.5165 H   0  0  0  0  0  0  0  0  0  0  0  0
   -4.6643   -2.5817    0.7801 H   0  0  0  0  0  0  0  0  0  0  0  0
   -2.6459   -2.3524    1.4939 C   0  0  0  0  0  0  0  0  0  0  0  0
   -1.7405   -3.0896    1.8520 O   0  0  0  0  0  0  0  0  0  0  0  0
   -2.3699   -1.1095    0.9649 N   0  0  0  0  0  0  0  0  0  0  0  0
   -3.1600   -0.4947    0.7744 H   0  0  0  0  0  0  0  0  0  0  0  0
   -1.0325   -0.5357    0.7785 C   0  0  1  0  0  0  0  0  0  0  0  0
   -0.3403   -1.0836    1.4259 H   0  0  0  0  0  0  0  0  0  0  0  0
   -0.4060   -0.5315   -0.6578 C   0  0  0  0  0  0  0  0  0  0  0  0
   -0.4554    0.5057   -1.0084 H   0  0  0  0  0  0  0  0  0  0  0  0
    0.6590   -0.7508   -0.5301 H   0  0  0  0  0  0  0  0  0  0  0  0
   -0.8857   -1.3553   -1.8917 C   0  0  0  0  0  0  0  0  0  0  0  0
   -0.8462   -0.6733   -2.7479 H   0  0  0  0  0  0  0  0  0  0  0  0
   -0.1255   -2.1200   -2.0834 H   0  0  0  0  0  0  0  0  0  0  0  0
   -2.2607   -2.0441   -1.9515 C   0  0  0  0  0  0  0  0  0  0  0  0
   -2.6227   -1.9882   -2.9833 H   0  0  0  0  0  0  0  0  0  0  0  0
   -3.0017   -1.5211   -1.3476 H   0  0  0  0  0  0  0  0  0  0  0  0
   -2.1628   -3.5273   -1.5918 C   0  0  0  0  0  0  0  0  0  0  0  0
   -1.5540   -4.0463   -2.3403 H   0  0  0  0  0  0  0  0  0  0  0  0
   -1.6705   -3.6612   -0.6262 H   0  0  0  0  0  0  0  0  0  0  0  0
   -3.5109   -4.1048   -1.5704 N   0  0  0  0  0  0  0  0  0  0  0  0
   -3.4780   -5.0985   -1.3408 H   0  0  0  0  0  0  0  0  0  0  0  0
   -4.1149   -3.6029   -0.9233 H   0  0  0  0  0  0  0  0  0  0  0  0
   -1.0673    0.9255    1.2789 C   0  0  0  0  0  0  0  0  0  0  0  0
   -2.0247    1.6446    1.0135 O   0  0  0  0  0  0  0  0  0  0  0  0
   -0.0494    1.4166    2.0754 N   0  0  0  0  0  0  0  0  0  0  0  0
    0.6961    0.7768    2.3347 H   0  0  0  0  0  0  0  0  0  0  0  0
   -0.0505    2.7626    2.6348 C   0  0  0  0  0  0  0  0  0  0  0  0
   -0.9187    2.9055    3.2866 H   0  0  0  0  0  0  0  0  0  0  0  0
    0.8561    2.9279    3.2248 H   0  0  0  0  0  0  0  0  0  0  0  0
   -0.0830    3.5100    1.8350 H   0  0  0  0  0  0  0  0  0  0  0  0
  1  2  1  0  0  0  0
  2  3  1  0  0  0  0
  2  4  1  0  0  0  0
  2  5  1  0  0  0  0
  5  6  2  0  0  0  0
  5  7  1  0  0  0  0
  7  8  1  0  0  0  0
  7  9  1  0  0  0  0
  9 10  1  0  0  0  0
  9 11  1  0  0  0  0
  9 26  1  0  0  0  0
 11 12  1  0  0  0  0
 11 13  1  0  0  0  0
 11 14  1  0  0  0  0
 14 15  1  0  0  0  0
 14 16  1  0  0  0  0
 14 17  1  0  0  0  0
 17 18  1  0  0  0  0
 17 19  1  0  0  0  0
 17 20  1  0  0  0  0
 20 21  1  0  0  0  0
 20 22  1  0  0  0  0
 20 23  1  0  0  0  0
 23 24  1  0  0  0  0
 23 25  1  0  0  0  0
 26 27  2  0  0  0  0
 26 28  1  0  0  0  0
 28 29  1  0  0  0  0
 28 30  1  0  0  0  0
 30 31  1  0  0  0  0
 30 32  1  0  0  0  0
 30 33  1  0  0  0  0
M  END
$$$$

  -OEChem-03222214063D

 33 32  0     1  0  0  0  0  0999 V2000
   -3.7343   -3.8908    2.6019 H   0  0  0  0  0  0  0  0  0  0  0  0
   -3.7922   -2.8846    2.1778 C   0  0  0  0  0  0  0  0  0  0  0  0
   -4.2995   -2.2293    2.8898 H   0  0  0  0  0  0  0  0  0  0  0  0
   -4.3728   -2.9248    1.2528 H   0  0  0  0  0  0  0  0  0  0  0  0
   -2.3994   -2.3556    1.8923 C   0  0  0  0  0  0  0  0  0  0  0  0
   -1.4197   -2.9922    2.2482 O   0  0  0  0  0  0  0  0  0  0  0  0
   -2.2521   -1.1532    1.2316 N   0  0  0  0  0  0  0  0  0  0  0  0
   -3.0989   -0.6385    0.9954 H   0  0  0  0  0  0  0  0  0  0  0  0
   -0.9731   -0.4926    0.9464 C   0  0  1  0  0  0  0  0  0  0  0  0
   -0.2284   -0.9101    1.6315 H   0  0  0  0  0  0  0  0  0  0  0  0
   -0.3857   -0.6456   -0.4932 C   0  0  0  0  0  0  0  0  0  0  0  0
   -0.5510    0.3141   -0.9952 H   0  0  0  0  0  0  0  0  0  0  0  0
    0.6990   -0.7562   -0.3952 H   0  0  0  0  0  0  0  0  0  0  0  0
   -0.8703   -1.7001   -1.5259 C   0  0  0  0  0  0  0  0  0  0  0  0
   -0.6540   -1.2962   -2.5208 H   0  0  0  0  0  0  0  0  0  0  0  0
   -0.2477   -2.5922   -1.4010 H   0  0  0  0  0  0  0  0  0  0  0  0
   -2.3311   -2.1721   -1.4974 C   0  0  0  0  0  0  0  0  0  0  0  0
   -2.4730   -2.8845   -0.6830 H   0  0  0  0  0  0  0  0  0  0  0  0
   -2.9976   -1.3168   -1.3475 H   0  0  0  0  0  0  0  0  0  0  0  0
   -2.7041   -2.8665   -2.8035 C   0  0  0  0  0  0  0  0  0  0  0  0
   -2.6369   -2.1585   -3.6371 H   0  0  0  0  0  0  0  0  0  0  0  0
   -2.0117   -3.6924   -3.0010 H   0  0  0  0  0  0  0  0  0  0  0  0
   -4.0739   -3.3766   -2.6870 N   0  0  0  0  0  0  0  0  0  0  0  0
   -4.3777   -3.8166   -3.5557 H   0  0  0  0  0  0  0  0  0  0  0  0
   -4.1552   -4.0253   -1.9046 H   0  0  0  0  0  0  0  0  0  0  0  0
   -1.0917    1.0082    1.2864 C   0  0  0  0  0  0  0  0  0  0  0  0
   -2.0985    1.6334    0.9723 O   0  0  0  0  0  0  0  0  0  0  0  0
   -0.0870    1.6475    1.9891 N   0  0  0  0  0  0  0  0  0  0  0  0
    0.7082    1.0894    2.2863 H   0  0  0  0  0  0  0  0  0  0  0  0
   -0.1586    3.0466    2.3919 C   0  0  0  0  0  0  0  0  0  0  0  0
   -1.0402    3.2217    3.0178 H   0  0  0  0  0  0  0  0  0  0  0  0
    0.7317    3.3207    2.9661 H   0  0  0  0  0  0  0  0  0  0  0  0
   -0.2169    3.6954    1.5116 H   0  0  0  0  0  0  0  0  0  0  0  0
  1  2  1  0  0  0  0
  2  3  1  0  0  0  0
  2  4  1  0  0  0  0
  2  5  1  0  0  0  0
  5  6  2  0  0  0  0
  5  7  1  0  0  0  0
  7  8  1  0  0  0  0
  7  9  1  0  0  0  0
  9 10  1  0  0  0  0
  9 11  1  0  0  0  0
  9 26  1  0  0  0  0
 11 12  1  0  0  0  0
 11 13  1  0  0  0  0
 11 14  1  0  0  0  0
 14 15  1  0  0  0  0
 14 16  1  0  0  0  0
 14 17  1  0  0  0  0
 17 18  1  0  0  0  0
 17 19  1  0  0  0  0
 17 20  1  0  0  0  0
 20 21  1  0  0  0  0
 20 22  1  0  0  0  0
 20 23  1  0  0  0  0
 23 24  1  0  0  0  0
 23 25  1  0  0  0  0
 26 27  2  0  0  0  0
 26 28  1  0  0  0  0
 28 29  1  0  0  0  0
 28 30  1  0  0  0  0
 30 31  1  0  0  0  0
 30 32  1  0  0  0  0
 30 33  1  0  0  0  0
M  END
$$$$

  -OEChem-03222214063D

 33 32  0     1  0  0  0  0  0999 V2000
   -3.7434   -3.8499    2.6267 H   0  0  0  0  0  0  0  0  0  0  0  0
   -3.7976   -2.9057    2.0776 C   0  0  0  0  0  0  0  0  0  0  0  0
   -4.3611   -2.1838    2.6736 H   0  0  0  0  0  0  0  0  0  0  0  0
   -4.3215   -3.0756    1.1340 H   0  0  0  0  0  0  0  0  0  0  0  0
   -2.4021   -2.3758    1.8070 C   0  0  0  0  0  0  0  0  0  0  0  0
   -1.4265   -3.0180    2.1640 O   0  0  0  0  0  0  0  0  0  0  0  0
   -2.2466   -1.1674    1.1600 N   0  0  0  0  0  0  0  0  0  0  0  0
   -3.0899   -0.6474    0.9220 H   0  0  0  0  0  0  0  0  0  0  0  0
   -0.9636   -0.5023    0.9067 C   0  0  1  0  0  0  0  0  0  0  0  0
   -0.2306   -0.9237    1.6018 H   0  0  0  0  0  0  0  0  0  0  0  0
   -0.3643   -0.6674   -0.5225 C   0  0  0  0  0  0  0  0  0  0  0  0
   -0.5110    0.2863   -1.0420 H   0  0  0  0  0  0  0  0  0  0  0  0
    0.7168   -0.8007   -0.4156 H   0  0  0  0  0  0  0  0  0  0  0  0
   -0.8741   -1.7426   -1.5149 C   0  0  0  0  0  0  0  0  0  0  0  0
   -0.4449   -1.5026   -2.4933 H   0  0  0  0  0  0  0  0  0  0  0  0
   -0.4617   -2.7104   -1.2105 H   0  0  0  0  0  0  0  0  0  0  0  0
   -2.3952   -1.9136   -1.6691 C   0  0  0  0  0  0  0  0  0  0  0  0
   -2.7823   -2.5633   -0.8822 H   0  0  0  0  0  0  0  0  0  0  0  0
   -2.8885   -0.9386   -1.5956 H   0  0  0  0  0  0  0  0  0  0  0  0
   -2.7372   -2.5441   -3.0159 C   0  0  0  0  0  0  0  0  0  0  0  0
   -2.4223   -1.8813   -3.8296 H   0  0  0  0  0  0  0  0  0  0  0  0
   -2.2094   -3.4976   -3.1295 H   0  0  0  0  0  0  0  0  0  0  0  0
   -4.1863   -2.7598   -3.0793 N   0  0  0  0  0  0  0  0  0  0  0  0
   -4.4635   -3.1371   -3.9856 H   0  0  0  0  0  0  0  0  0  0  0  0
   -4.4992   -3.3672   -2.3225 H   0  0  0  0  0  0  0  0  0  0  0  0
   -1.0811    0.9966    1.2533 C   0  0  0  0  0  0  0  0  0  0  0  0
   -2.0845    1.6242    0.9337 O   0  0  0  0  0  0  0  0  0  0  0  0
   -0.0876    1.6283    1.9789 N   0  0  0  0  0  0  0  0  0  0  0  0
    0.6944    1.0627    2.2965 H   0  0  0  0  0  0  0  0  0  0  0  0
   -0.1796    3.0151    2.4187 C   0  0  0  0  0  0  0  0  0  0  0  0
   -1.0177    3.1411    3.1120 H   0  0  0  0  0  0  0  0  0  0  0  0
    0.7411    3.3117    2.9300 H   0  0  0  0  0  0  0  0  0  0  0  0
   -0.3276    3.6807    1.5617 H   0  0  0  0  0  0  0  0  0  0  0  0
  1  2  1  0  0  0  0
  2  3  1  0  0  0  0
  2  4  1  0  0  0  0
  2  5  1  0  0  0  0
  5  6  2  0  0  0  0
  5  7  1  0  0  0  0
  7  8  1  0  0  0  0
  7  9  1  0  0  0  0
  9 10  1  0  0  0  0
  9 11  1  0  0  0  0
  9 26  1  0  0  0  0
 11 12  1  0  0  0  0
 11 13  1  0  0  0  0
 11 14  1  0  0  0  0
 14 15  1  0  0  0  0
 14 16  1  0  0  0  0
 14 17  1  0  0  0  0
 17 18  1  0  0  0  0
 17 19  1  0  0  0  0
 17 20  1  0  0  0  0
 20 21  1  0  0  0  0
 20 22  1  0  0  0  0
 20 23  1  0  0  0  0
 23 24  1  0  0  0  0
 23 25  1  0  0  0  0
 26 27  2  0  0  0  0
 26 28  1  0  0  0  0
 28 29  1  0  0  0  0
 28 30  1  0  0  0  0
 30 31  1  0  0  0  0
 30 32  1  0  0  0  0
 30 33  1  0  0  0  0
M  END
$$$$

  -OEChem-03222214063D

 33 32  0     1  0  0  0  0  0999 V2000
   -3.7168   -3.9643    2.3544 H   0  0  0  0  0  0  0  0  0  0  0  0
   -3.7795   -2.9658    1.9127 C   0  0  0  0  0  0  0  0  0  0  0  0
   -4.3345   -2.3137    2.5914 H   0  0  0  0  0  0  0  0  0  0  0  0
   -4.3163   -3.0337    0.9635 H   0  0  0  0  0  0  0  0  0  0  0  0
   -2.3879   -2.4080    1.6821 C   0  0  0  0  0  0  0  0  0  0  0  0
   -1.4089   -3.0523    2.0258 O   0  0  0  0  0  0  0  0  0  0  0  0
   -2.2385   -1.1778    1.0767 N   0  0  0  0  0  0  0  0  0  0  0  0
   -3.0838   -0.6534    0.8563 H   0  0  0  0  0  0  0  0  0  0  0  0
   -0.9601   -0.4919    0.8617 C   0  0  1  0  0  0  0  0  0  0  0  0
   -0.2305   -0.9283    1.5515 H   0  0  0  0  0  0  0  0  0  0  0  0
   -0.3598   -0.6276   -0.5662 C   0  0  0  0  0  0  0  0  0  0  0  0
   -0.4847    0.3325   -1.0789 H   0  0  0  0  0  0  0  0  0  0  0  0
    0.7178   -0.7865   -0.4561 H   0  0  0  0  0  0  0  0  0  0  0  0
   -0.8982   -1.7038   -1.5374 C   0  0  0  0  0  0  0  0  0  0  0  0
   -0.3089   -1.6288   -2.4572 H   0  0  0  0  0  0  0  0  0  0  0  0
   -0.7088   -2.6936   -1.1088 H   0  0  0  0  0  0  0  0  0  0  0  0
   -2.3924   -1.6033   -1.9010 C   0  0  0  0  0  0  0  0  0  0  0  0
   -3.0155   -2.0285   -1.1131 H   0  0  0  0  0  0  0  0  0  0  0  0
   -2.6707   -0.5521   -2.0297 H   0  0  0  0  0  0  0  0  0  0  0  0
   -2.6816   -2.3605   -3.1947 C   0  0  0  0  0  0  0  0  0  0  0  0
   -2.1126   -1.9218   -4.0221 H   0  0  0  0  0  0  0  0  0  0  0  0
   -2.3786   -3.4084   -3.0912 H   0  0  0  0  0  0  0  0  0  0  0  0
   -4.1177   -2.2769   -3.4787 N   0  0  0  0  0  0  0  0  0  0  0  0
   -4.3498   -2.7500   -4.3521 H   0  0  0  0  0  0  0  0  0  0  0  0
   -4.6671   -2.6506   -2.7056 H   0  0  0  0  0  0  0  0  0  0  0  0
   -1.0854    0.9951    1.2506 C   0  0  0  0  0  0  0  0  0  0  0  0
   -2.0897    1.6270    0.9431 O   0  0  0  0  0  0  0  0  0  0  0  0
   -0.1015    1.6076    2.0051 N   0  0  0  0  0  0  0  0  0  0  0  0
    0.6867    1.0390    2.3012 H   0  0  0  0  0  0  0  0  0  0  0  0
   -0.1893    2.9881    2.4653 C   0  0  0  0  0  0  0  0  0  0  0  0
   -1.0284    3.1076    3.1586 H   0  0  0  0  0  0  0  0  0  0  0  0
    0.7315    3.2746    2.9826 H   0  0  0  0  0  0  0  0  0  0  0  0
   -0.3326    3.6662    1.6174 H   0  0  0  0  0  0  0  0  0  0  0  0
  1  2  1  0  0  0  0
  2  3  1  0  0  0  0
  2  4  1  0  0  0  0
  2  5  1  0  0  0  0
  5  6  2  0  0  0  0
  5  7  1  0  0  0  0
  7  8  1  0  0  0  0
  7  9  1  0  0  0  0
  9 10  1  0  0  0  0
  9 11  1  0  0  0  0
  9 26  1  0  0  0  0
 11 12  1  0  0  0  0
 11 13  1  0  0  0  0
 11 14  1  0  0  0  0
 14 15  1  0  0  0  0
 14 16  1  0  0  0  0
 14 17  1  0  0  0  0
 17 18  1  0  0  0  0
 17 19  1  0  0  0  0
 17 20  1  0  0  0  0
 20 21  1  0  0  0  0
 20 22  1  0  0  0  0
 20 23  1  0  0  0  0
 23 24  1  0  0  0  0
 23 25  1  0  0  0  0
 26 27  2  0  0  0  0
 26 28  1  0  0  0  0
 28 29  1  0  0  0  0
 28 30  1  0  0  0  0
 30 31  1  0  0  0  0
 30 32  1  0  0  0  0
 30 33  1  0  0  0  0
M  END
$$$$

  -OEChem-03222214063D

 33 32  0     1  0  0  0  0  0999 V2000
   -3.7081   -4.0296    2.0245 H   0  0  0  0  0  0  0  0  0  0  0  0
   -3.7577   -3.0261    1.5926 C   0  0  0  0  0  0  0  0  0  0  0  0
   -4.3556   -2.3891    2.2489 H   0  0  0  0  0  0  0  0  0  0  0  0
   -4.2417   -3.0862    0.6148 H   0  0  0  0  0  0  0  0  0  0  0  0
   -2.3623   -2.4503    1.4446 C   0  0  0  0  0  0  0  0  0  0  0  0
   -1.3921   -3.1032    1.7957 O   0  0  0  0  0  0  0  0  0  0  0  0
   -2.2000   -1.1923    0.9044 N   0  0  0  0  0  0  0  0  0  0  0  0
   -3.0422   -0.6598    0.6923 H   0  0  0  0  0  0  0  0  0  0  0  0
   -0.9216   -0.4790    0.7803 C   0  0  1  0  0  0  0  0  0  0  0  0
   -0.2127   -0.9390    1.4764 H   0  0  0  0  0  0  0  0  0  0  0  0
   -0.2764   -0.5431   -0.6318 C   0  0  0  0  0  0  0  0  0  0  0  0
   -0.3704    0.4358   -1.1151 H   0  0  0  0  0  0  0  0  0  0  0  0
    0.7941   -0.7260   -0.4952 H   0  0  0  0  0  0  0  0  0  0  0  0
   -0.8157   -1.5968   -1.6209 C   0  0  0  0  0  0  0  0  0  0  0  0
   -0.0933   -1.7000   -2.4373 H   0  0  0  0  0  0  0  0  0  0  0  0
   -0.8745   -2.5667   -1.1160 H   0  0  0  0  0  0  0  0  0  0  0  0
   -2.1833   -1.2394   -2.2323 C   0  0  0  0  0  0  0  0  0  0  0  0
   -2.9402   -1.0854   -1.4622 H   0  0  0  0  0  0  0  0  0  0  0  0
   -2.0919   -0.3047   -2.7952 H   0  0  0  0  0  0  0  0  0  0  0  0
   -2.6524   -2.3487   -3.1692 C   0  0  0  0  0  0  0  0  0  0  0  0
   -1.9132   -2.5093   -3.9620 H   0  0  0  0  0  0  0  0  0  0  0  0
   -2.7630   -3.2861   -2.6125 H   0  0  0  0  0  0  0  0  0  0  0  0
   -3.9367   -1.9555   -3.7573 N   0  0  0  0  0  0  0  0  0  0  0  0
   -4.2933   -2.6761   -4.3849 H   0  0  0  0  0  0  0  0  0  0  0  0
   -4.6194   -1.7295   -3.0346 H   0  0  0  0  0  0  0  0  0  0  0  0
   -1.0873    0.9864    1.2301 C   0  0  0  0  0  0  0  0  0  0  0  0
   -2.0923    1.6131    0.9137 O   0  0  0  0  0  0  0  0  0  0  0  0
   -0.1493    1.5771    2.0566 N   0  0  0  0  0  0  0  0  0  0  0  0
    0.6408    1.0110    2.3523 H   0  0  0  0  0  0  0  0  0  0  0  0
   -0.2834    2.9305    2.5812 C   0  0  0  0  0  0  0  0  0  0  0  0
   -1.1594    3.0035    3.2343 H   0  0  0  0  0  0  0  0  0  0  0  0
    0.6045    3.2007    3.1609 H   0  0  0  0  0  0  0  0  0  0  0  0
   -0.3925    3.6498    1.7626 H   0  0  0  0  0  0  0  0  0  0  0  0
  1  2  1  0  0  0  0
  2  3  1  0  0  0  0
  2  4  1  0  0  0  0
  2  5  1  0  0  0  0
  5  6  2  0  0  0  0
  5  7  1  0  0  0  0
  7  8  1  0  0  0  0
  7  9  1  0  0  0  0
  9 10  1  0  0  0  0
  9 11  1  0  0  0  0
  9 26  1  0  0  0  0
 11 12  1  0  0  0  0
 11 13  1  0  0  0  0
 11 14  1  0  0  0  0
 14 15  1  0  0  0  0
 14 16  1  0  0  0  0
 14 17  1  0  0  0  0
 17 18  1  0  0  0  0
 17 19  1  0  0  0  0
 17 20  1  0  0  0  0
 20 21  1  0  0  0  0
 20 22  1  0  0  0  0
 20 23  1  0  0  0  0
 23 24  1  0  0  0  0
 23 25  1  0  0  0  0
 26 27  2  0  0  0  0
 26 28  1  0  0  0  0
 28 29  1  0  0  0  0
 28 30  1  0  0  0  0
 30 31  1  0  0  0  0
 30 32  1  0  0  0  0
 30 33  1  0  0  0  0
M  END
$$$$

  -OEChem-03222214063D

 33 32  0     1  0  0  0  0  0999 V2000
   -3.7011   -4.0516    1.9791 H   0  0  0  0  0  0  0  0  0  0  0  0
   -3.7399   -3.0681    1.5022 C   0  0  0  0  0  0  0  0  0  0  0  0
   -4.3804   -2.4127    2.0975 H   0  0  0  0  0  0  0  0  0  0  0  0
   -4.1692   -3.1771    0.5034 H   0  0  0  0  0  0  0  0  0  0  0  0
   -2.3459   -2.4786    1.4035 C   0  0  0  0  0  0  0  0  0  0  0  0
   -1.3840   -3.1155    1.8033 O   0  0  0  0  0  0  0  0  0  0  0  0
   -2.1728   -1.2280    0.8488 N   0  0  0  0  0  0  0  0  0  0  0  0
   -3.0098   -0.7058    0.5953 H   0  0  0  0  0  0  0  0  0  0  0  0
   -0.8932   -0.5063    0.7610 C   0  0  1  0  0  0  0  0  0  0  0  0
   -0.1961   -0.9521    1.4777 H   0  0  0  0  0  0  0  0  0  0  0  0
   -0.2284   -0.5738   -0.6412 C   0  0  0  0  0  0  0  0  0  0  0  0
   -0.2976    0.4028   -1.1331 H   0  0  0  0  0  0  0  0  0  0  0  0
    0.8374   -0.7706   -0.4868 H   0  0  0  0  0  0  0  0  0  0  0  0
   -0.7747   -1.6437   -1.6080 C   0  0  0  0  0  0  0  0  0  0  0  0
    0.0327   -1.9342   -2.2882 H   0  0  0  0  0  0  0  0  0  0  0  0
   -1.0710   -2.5482   -1.0693 H   0  0  0  0  0  0  0  0  0  0  0  0
   -1.9316   -1.0972   -2.4560 C   0  0  0  0  0  0  0  0  0  0  0  0
   -2.7207   -0.7102   -1.8044 H   0  0  0  0  0  0  0  0  0  0  0  0
   -1.5722   -0.2691   -3.0760 H   0  0  0  0  0  0  0  0  0  0  0  0
   -2.5089   -2.1871   -3.3534 C   0  0  0  0  0  0  0  0  0  0  0  0
   -1.7247   -2.5981   -3.9988 H   0  0  0  0  0  0  0  0  0  0  0  0
   -2.9085   -3.0034   -2.7417 H   0  0  0  0  0  0  0  0  0  0  0  0
   -3.5732   -1.6007   -4.1734 N   0  0  0  0  0  0  0  0  0  0  0  0
   -4.0111   -2.3017   -4.7708 H   0  0  0  0  0  0  0  0  0  0  0  0
   -4.2671   -1.1282   -3.5942 H   0  0  0  0  0  0  0  0  0  0  0  0
   -1.0914    0.9638    1.1822 C   0  0  0  0  0  0  0  0  0  0  0  0
   -2.0891    1.5747    0.8152 O   0  0  0  0  0  0  0  0  0  0  0  0
   -0.1933    1.5789    2.0351 N   0  0  0  0  0  0  0  0  0  0  0  0
    0.5908    1.0273    2.3718 H   0  0  0  0  0  0  0  0  0  0  0  0
   -0.3625    2.9402    2.5284 C   0  0  0  0  0  0  0  0  0  0  0  0
   -1.2946    3.0294    3.0963 H   0  0  0  0  0  0  0  0  0  0  0  0
    0.4697    3.2104    3.1856 H   0  0  0  0  0  0  0  0  0  0  0  0
   -0.3890    3.6489    1.6939 H   0  0  0  0  0  0  0  0  0  0  0  0
  1  2  1  0  0  0  0
  2  3  1  0  0  0  0
  2  4  1  0  0  0  0
  2  5  1  0  0  0  0
  5  6  2  0  0  0  0
  5  7  1  0  0  0  0
  7  8  1  0  0  0  0
  7  9  1  0  0  0  0
  9 10  1  0  0  0  0
  9 11  1  0  0  0  0
  9 26  1  0  0  0  0
 11 12  1  0  0  0  0
 11 13  1  0  0  0  0
 11 14  1  0  0  0  0
 14 15  1  0  0  0  0
 14 16  1  0  0  0  0
 14 17  1  0  0  0  0
 17 18  1  0  0  0  0
 17 19  1  0  0  0  0
 17 20  1  0  0  0  0
 20 21  1  0  0  0  0
 20 22  1  0  0  0  0
 20 23  1  0  0  0  0
 23 24  1  0  0  0  0
 23 25  1  0  0  0  0
 26 27  2  0  0  0  0
 26 28  1  0  0  0  0
 28 29  1  0  0  0  0
 28 30  1  0  0  0  0
 30 31  1  0  0  0  0
 30 32  1  0  0  0  0
 30 33  1  0  0  0  0
M  END
$$$$

  -OEChem-03222214063D

 33 32  0     1  0  0  0  0  0999 V2000
   -3.7111   -4.0484    2.0493 H   0  0  0  0  0  0  0  0  0  0  0  0
   -3.7538   -3.0725    1.5576 C   0  0  0  0  0  0  0  0  0  0  0  0
   -4.3909   -2.4089    2.1471 H   0  0  0  0  0  0  0  0  0  0  0  0
   -4.1899   -3.1972    0.5636 H   0  0  0  0  0  0  0  0  0  0  0  0
   -2.3605   -2.4842    1.4392 C   0  0  0  0  0  0  0  0  0  0  0  0
   -1.3953   -3.1190    1.8341 O   0  0  0  0  0  0  0  0  0  0  0  0
   -2.1908   -1.2388    0.8704 N   0  0  0  0  0  0  0  0  0  0  0  0
   -3.0298   -0.7147    0.6267 H   0  0  0  0  0  0  0  0  0  0  0  0
   -0.9097   -0.5212    0.7646 C   0  0  1  0  0  0  0  0  0  0  0  0
   -0.2085   -0.9617    1.4811 H   0  0  0  0  0  0  0  0  0  0  0  0
   -0.2493   -0.5954   -0.6400 C   0  0  0  0  0  0  0  0  0  0  0  0
   -0.3148    0.3843   -1.1265 H   0  0  0  0  0  0  0  0  0  0  0  0
    0.8167   -0.7898   -0.4849 H   0  0  0  0  0  0  0  0  0  0  0  0
   -0.7872   -1.6661   -1.6164 C   0  0  0  0  0  0  0  0  0  0  0  0
    0.0702   -2.1351   -2.1104 H   0  0  0  0  0  0  0  0  0  0  0  0
   -1.3195   -2.4688   -1.1014 H   0  0  0  0  0  0  0  0  0  0  0  0
   -1.6665   -1.0329   -2.7018 C   0  0  0  0  0  0  0  0  0  0  0  0
   -2.4946   -0.4929   -2.2310 H   0  0  0  0  0  0  0  0  0  0  0  0
   -1.0779   -0.3131   -3.2805 H   0  0  0  0  0  0  0  0  0  0  0  0
   -2.2251   -2.0971   -3.6410 C   0  0  0  0  0  0  0  0  0  0  0  0
   -1.4056   -2.6526   -4.1106 H   0  0  0  0  0  0  0  0  0  0  0  0
   -2.8401   -2.8080   -3.0781 H   0  0  0  0  0  0  0  0  0  0  0  0
   -3.0319   -1.4334   -4.6695 N   0  0  0  0  0  0  0  0  0  0  0  0
   -3.4444   -2.1099   -5.3116 H   0  0  0  0  0  0  0  0  0  0  0  0
   -3.7502   -0.8437   -4.2489 H   0  0  0  0  0  0  0  0  0  0  0  0
   -1.1027    0.9531    1.1740 C   0  0  0  0  0  0  0  0  0  0  0  0
   -2.1020    1.5623    0.8084 O   0  0  0  0  0  0  0  0  0  0  0  0
   -0.1968    1.5748    2.0136 N   0  0  0  0  0  0  0  0  0  0  0  0
    0.5933    1.0276    2.3432 H   0  0  0  0  0  0  0  0  0  0  0  0
   -0.3582    2.9421    2.4925 C   0  0  0  0  0  0  0  0  0  0  0  0
   -1.2911    3.0427    3.0573 H   0  0  0  0  0  0  0  0  0  0  0  0
    0.4740    3.2137    3.1491 H   0  0  0  0  0  0  0  0  0  0  0  0
   -0.3777    3.6428    1.6510 H   0  0  0  0  0  0  0  0  0  0  0  0
  1  2  1  0  0  0  0
  2  3  1  0  0  0  0
  2  4  1  0  0  0  0
  2  5  1  0  0  0  0
  5  6  2  0  0  0  0
  5  7  1  0  0  0  0
  7  8  1  0  0  0  0
  7  9  1  0  0  0  0
  9 10  1  0  0  0  0
  9 11  1  0  0  0  0
  9 26  1  0  0  0  0
 11 12  1  0  0  0  0
 11 13  1  0  0  0  0
 11 14  1  0  0  0  0
 14 15  1  0  0  0  0
 14 16  1  0  0  0  0
 14 17  1  0  0  0  0
 17 18  1  0  0  0  0
 17 19  1  0  0  0  0
 17 20  1  0  0  0  0
 20 21  1  0  0  0  0
 20 22  1  0  0  0  0
 20 23  1  0  0  0  0
 23 24  1  0  0  0  0
 23 25  1  0  0  0  0
 26 27  2  0  0  0  0
 26 28  1  0  0  0  0
 28 29  1  0  0  0  0
 28 30  1  0  0  0  0
 30 31  1  0  0  0  0
 30 32  1  0  0  0  0
 30 33  1  0  0  0  0
M  END
$$$$

  -OEChem-03222214063D

 33 32  0     1  0  0  0  0  0999 V2000
   -3.7218   -4.0307    2.1500 H   0  0  0  0  0  0  0  0  0  0  0  0
   -3.7742   -3.0619    1.6452 C   0  0  0  0  0  0  0  0  0  0  0  0
   -4.3814   -2.3831    2.2491 H   0  0  0  0  0  0  0  0  0  0  0  0
   -4.2496   -3.1969    0.6708 H   0  0  0  0  0  0  0  0  0  0  0  0
   -2.3808   -2.4898    1.4655 C   0  0  0  0  0  0  0  0  0  0  0  0
   -1.4071   -3.1328    1.8249 O   0  0  0  0  0  0  0  0  0  0  0  0
   -2.2216   -1.2449    0.8922 N   0  0  0  0  0  0  0  0  0  0  0  0
   -3.0648   -0.7126    0.6829 H   0  0  0  0  0  0  0  0  0  0  0  0
   -0.9411   -0.5318    0.7613 C   0  0  1  0  0  0  0  0  0  0  0  0
   -0.2335   -0.9724    1.4710 H   0  0  0  0  0  0  0  0  0  0  0  0
   -0.2867   -0.6123   -0.6466 C   0  0  0  0  0  0  0  0  0  0  0  0
   -0.3781    0.3689   -1.1259 H   0  0  0  0  0  0  0  0  0  0  0  0
    0.7855   -0.7826   -0.5048 H   0  0  0  0  0  0  0  0  0  0  0  0
   -0.8137   -1.6830   -1.6341 C   0  0  0  0  0  0  0  0  0  0  0  0
    0.0195   -2.3399   -1.9046 H   0  0  0  0  0  0  0  0  0  0  0  0
   -1.5803   -2.3227   -1.1947 H   0  0  0  0  0  0  0  0  0  0  0  0
   -1.3644   -1.0331   -2.9098 C   0  0  0  0  0  0  0  0  0  0  0  0
   -2.1843   -0.3554   -2.6495 H   0  0  0  0  0  0  0  0  0  0  0  0
   -0.5768   -0.4441   -3.3917 H   0  0  0  0  0  0  0  0  0  0  0  0
   -1.8707   -2.0886   -3.8878 C   0  0  0  0  0  0  0  0  0  0  0  0
   -1.0608   -2.7782   -4.1497 H   0  0  0  0  0  0  0  0  0  0  0  0
   -2.6778   -2.6697   -3.4283 H   0  0  0  0  0  0  0  0  0  0  0  0
   -2.3580   -1.4105   -5.0927 N   0  0  0  0  0  0  0  0  0  0  0  0
   -2.7298   -2.0775   -5.7688 H   0  0  0  0  0  0  0  0  0  0  0  0
   -3.0536   -0.7021   -4.8586 H   0  0  0  0  0  0  0  0  0  0  0  0
   -1.1212    0.9435    1.1734 C   0  0  0  0  0  0  0  0  0  0  0  0
   -2.1262    1.5555    0.8288 O   0  0  0  0  0  0  0  0  0  0  0  0
   -0.1965    1.5617    1.9947 N   0  0  0  0  0  0  0  0  0  0  0  0
    0.5991    1.0121    2.3064 H   0  0  0  0  0  0  0  0  0  0  0  0
   -0.3342    2.9345    2.4650 C   0  0  0  0  0  0  0  0  0  0  0  0
   -1.2504    3.0482    3.0538 H   0  0  0  0  0  0  0  0  0  0  0  0
    0.5179    3.2048    3.0959 H   0  0  0  0  0  0  0  0  0  0  0  0
   -0.3707    3.6278    1.6182 H   0  0  0  0  0  0  0  0  0  0  0  0
  1  2  1  0  0  0  0
  2  3  1  0  0  0  0
  2  4  1  0  0  0  0
  2  5  1  0  0  0  0
  5  6  2  0  0  0  0
  5  7  1  0  0  0  0
  7  8  1  0  0  0  0
  7  9  1  0  0  0  0
  9 10  1  0  0  0  0
  9 11  1  0  0  0  0
  9 26  1  0  0  0  0
 11 12  1  0  0  0  0
 11 13  1  0  0  0  0
 11 14  1  0  0  0  0
 14 15  1  0  0  0  0
 14 16  1  0  0  0  0
 14 17  1  0  0  0  0
 17 18  1  0  0  0  0
 17 19  1  0  0  0  0
 17 20  1  0  0  0  0
 20 21  1  0  0  0  0
 20 22  1  0  0  0  0
 20 23  1  0  0  0  0
 23 24  1  0  0  0  0
 23 25  1  0  0  0  0
 26 27  2  0  0  0  0
 26 28  1  0  0  0  0
 28 29  1  0  0  0  0
 28 30  1  0  0  0  0
 30 31  1  0  0  0  0
 30 32  1  0  0  0  0
 30 33  1  0  0  0  0
M  END
$$$$

  -OEChem-03222214063D

 33 32  0     1  0  0  0  0  0999 V2000
   -3.7437   -4.0151    2.1352 H   0  0  0  0  0  0  0  0  0  0  0  0
   -3.7931   -3.0387    1.6450 C   0  0  0  0  0  0  0  0  0  0  0  0
   -4.3867   -2.3629    2.2657 H   0  0  0  0  0  0  0  0  0  0  0  0
   -4.2820   -3.1552    0.6748 H   0  0  0  0  0  0  0  0  0  0  0  0
   -2.3970   -2.4765    1.4553 C   0  0  0  0  0  0  0  0  0  0  0  0
   -1.4244   -3.1283    1.8016 O   0  0  0  0  0  0  0  0  0  0  0  0
   -2.2363   -1.2294    0.8879 N   0  0  0  0  0  0  0  0  0  0  0  0
   -3.0785   -0.6909    0.6910 H   0  0  0  0  0  0  0  0  0  0  0  0
   -0.9536   -0.5232    0.7483 C   0  0  1  0  0  0  0  0  0  0  0  0
   -0.2461   -0.9703    1.4538 H   0  0  0  0  0  0  0  0  0  0  0  0
   -0.3026   -0.6148   -0.6611 C   0  0  0  0  0  0  0  0  0  0  0  0
   -0.4290    0.3620   -1.1415 H   0  0  0  0  0  0  0  0  0  0  0  0
    0.7757   -0.7610   -0.5402 H   0  0  0  0  0  0  0  0  0  0  0  0
   -0.8360   -1.6890   -1.6420 C   0  0  0  0  0  0  0  0  0  0  0  0
   -0.1245   -2.5209   -1.6769 H   0  0  0  0  0  0  0  0  0  0  0  0
   -1.7948   -2.1013   -1.3240 H   0  0  0  0  0  0  0  0  0  0  0  0
   -1.0341   -1.1029   -3.0461 C   0  0  0  0  0  0  0  0  0  0  0  0
   -1.7709   -0.2939   -3.0064 H   0  0  0  0  0  0  0  0  0  0  0  0
   -0.0887   -0.6831   -3.4053 H   0  0  0  0  0  0  0  0  0  0  0  0
   -1.5103   -2.1752   -4.0214 C   0  0  0  0  0  0  0  0  0  0  0  0
   -0.7774   -2.9880   -4.0724 H   0  0  0  0  0  0  0  0  0  0  0  0
   -2.4626   -2.5963   -3.6805 H   0  0  0  0  0  0  0  0  0  0  0  0
   -1.6726   -1.5650   -5.3444 N   0  0  0  0  0  0  0  0  0  0  0  0
   -1.9908   -2.2490   -6.0307 H   0  0  0  0  0  0  0  0  0  0  0  0
   -2.3065   -0.7668   -5.3046 H   0  0  0  0  0  0  0  0  0  0  0  0
   -1.1182    0.9509    1.1699 C   0  0  0  0  0  0  0  0  0  0  0  0
   -2.1238    1.5712    0.8423 O   0  0  0  0  0  0  0  0  0  0  0  0
   -0.1795    1.5562    1.9848 N   0  0  0  0  0  0  0  0  0  0  0  0
    0.6166    0.9990    2.2815 H   0  0  0  0  0  0  0  0  0  0  0  0
   -0.3095    2.9212    2.4793 C   0  0  0  0  0  0  0  0  0  0  0  0
   -1.2193    3.0266    3.0795 H   0  0  0  0  0  0  0  0  0  0  0  0
    0.5496    3.1797    3.1057 H   0  0  0  0  0  0  0  0  0  0  0  0
   -0.3540    3.6283    1.6444 H   0  0  0  0  0  0  0  0  0  0  0  0
  1  2  1  0  0  0  0
  2  3  1  0  0  0  0
  2  4  1  0  0  0  0
  2  5  1  0  0  0  0
  5  6  2  0  0  0  0
  5  7  1  0  0  0  0
  7  8  1  0  0  0  0
  7  9  1  0  0  0  0
  9 10  1  0  0  0  0
  9 11  1  0  0  0  0
  9 26  1  0  0  0  0
 11 12  1  0  0  0  0
 11 13  1  0  0  0  0
 11 14  1  0  0  0  0
 14 15  1  0  0  0  0
 14 16  1  0  0  0  0
 14 17  1  0  0  0  0
 17 18  1  0  0  0  0
 17 19  1  0  0  0  0
 17 20  1  0  0  0  0
 20 21  1  0  0  0  0
 20 22  1  0  0  0  0
 20 23  1  0  0  0  0
 23 24  1  0  0  0  0
 23 25  1  0  0  0  0
 26 27  2  0  0  0  0
 26 28  1  0  0  0  0
 28 29  1  0  0  0  0
 28 30  1  0  0  0  0
 30 31  1  0  0  0  0
 30 32  1  0  0  0  0
 30 33  1  0  0  0  0
M  END
$$$$

  -OEChem-03222214063D

 33 32  0     1  0  0  0  0  0999 V2000
   -3.7642   -4.0037    2.1190 H   0  0  0  0  0  0  0  0  0  0  0  0
   -3.8078   -3.0412    1.6016 C   0  0  0  0  0  0  0  0  0  0  0  0
   -4.4169   -2.3521    2.1916 H   0  0  0  0  0  0  0  0  0  0  0  0
   -4.2760   -3.1863    0.6252 H   0  0  0  0  0  0  0  0  0  0  0  0
   -2.4099   -2.4786    1.4250 C   0  0  0  0  0  0  0  0  0  0  0  0
   -1.4406   -3.1353    1.7713 O   0  0  0  0  0  0  0  0  0  0  0  0
   -2.2421   -1.2281    0.8669 N   0  0  0  0  0  0  0  0  0  0  0  0
   -3.0815   -0.6845    0.6721 H   0  0  0  0  0  0  0  0  0  0  0  0
   -0.9559   -0.5241    0.7429 C   0  0  1  0  0  0  0  0  0  0  0  0
   -0.2542   -0.9789    1.4497 H   0  0  0  0  0  0  0  0  0  0  0  0
   -0.3016   -0.6162   -0.6632 C   0  0  0  0  0  0  0  0  0  0  0  0
   -0.4376    0.3567   -1.1484 H   0  0  0  0  0  0  0  0  0  0  0  0
    0.7772   -0.7626   -0.5484 H   0  0  0  0  0  0  0  0  0  0  0  0
   -0.8505   -1.6895   -1.6296 C   0  0  0  0  0  0  0  0  0  0  0  0
   -0.3245   -2.6347   -1.4593 H   0  0  0  0  0  0  0  0  0  0  0  0
   -1.9157   -1.8675   -1.4659 H   0  0  0  0  0  0  0  0  0  0  0  0
   -0.6981   -1.2328   -3.0859 C   0  0  0  0  0  0  0  0  0  0  0  0
   -1.2740   -0.3158   -3.2480 H   0  0  0  0  0  0  0  0  0  0  0  0
    0.3549   -1.0133   -3.2916 H   0  0  0  0  0  0  0  0  0  0  0  0
   -1.1839   -2.3120   -4.0484 C   0  0  0  0  0  0  0  0  0  0  0  0
   -0.6155   -3.2359   -3.8940 H   0  0  0  0  0  0  0  0  0  0  0  0
   -2.2421   -2.5293   -3.8659 H   0  0  0  0  0  0  0  0  0  0  0  0
   -0.9954   -1.8313   -5.4205 N   0  0  0  0  0  0  0  0  0  0  0  0
   -1.3043   -2.5252   -6.1012 H   0  0  0  0  0  0  0  0  0  0  0  0
   -1.4721   -0.9413   -5.5655 H   0  0  0  0  0  0  0  0  0  0  0  0
   -1.1133    0.9492    1.1707 C   0  0  0  0  0  0  0  0  0  0  0  0
   -2.1082    1.5798    0.8304 O   0  0  0  0  0  0  0  0  0  0  0  0
   -0.1783    1.5466    1.9957 N   0  0  0  0  0  0  0  0  0  0  0  0
    0.6140    0.9854    2.2954 H   0  0  0  0  0  0  0  0  0  0  0  0
   -0.2840    2.9244    2.4599 C   0  0  0  0  0  0  0  0  0  0  0  0
   -1.1994    3.0636    3.0447 H   0  0  0  0  0  0  0  0  0  0  0  0
    0.5722    3.1773    3.0925 H   0  0  0  0  0  0  0  0  0  0  0  0
   -0.3005    3.6142    1.6095 H   0  0  0  0  0  0  0  0  0  0  0  0
  1  2  1  0  0  0  0
  2  3  1  0  0  0  0
  2  4  1  0  0  0  0
  2  5  1  0  0  0  0
  5  6  2  0  0  0  0
  5  7  1  0  0  0  0
  7  8  1  0  0  0  0
  7  9  1  0  0  0  0
  9 10  1  0  0  0  0
  9 11  1  0  0  0  0
  9 26  1  0  0  0  0
 11 12  1  0  0  0  0
 11 13  1  0  0  0  0
 11 14  1  0  0  0  0
 14 15  1  0  0  0  0
 14 16  1  0  0  0  0
 14 17  1  0  0  0  0
 17 18  1  0  0  0  0
 17 19  1  0  0  0  0
 17 20  1  0  0  0  0
 20 21  1  0  0  0  0
 20 22  1  0  0  0  0
 20 23  1  0  0  0  0
 23 24  1  0  0  0  0
 23 25  1  0  0  0  0
 26 27  2  0  0  0  0
 26 28  1  0  0  0  0
 28 29  1  0  0  0  0
 28 30  1  0  0  0  0
 30 31  1  0  0  0  0
 30 32  1  0  0  0  0
 30 33  1  0  0  0  0
M  END
$$$$

  -OEChem-03222214063D

 33 32  0     1  0  0  0  0  0999 V2000
   -3.7815   -3.9957    2.0404 H   0  0  0  0  0  0  0  0  0  0  0  0
   -3.8151   -3.0295    1.5292 C   0  0  0  0  0  0  0  0  0  0  0  0
   -4.4327   -2.3433    2.1140 H   0  0  0  0  0  0  0  0  0  0  0  0
   -4.2675   -3.1671    0.5443 H   0  0  0  0  0  0  0  0  0  0  0  0
   -2.4135   -2.4681    1.3804 C   0  0  0  0  0  0  0  0  0  0  0  0
   -1.4516   -3.1275    1.7420 O   0  0  0  0  0  0  0  0  0  0  0  0
   -2.2342   -1.2157    0.8305 N   0  0  0  0  0  0  0  0  0  0  0  0
   -3.0695   -0.6700    0.6244 H   0  0  0  0  0  0  0  0  0  0  0  0
   -0.9443   -0.5138    0.7317 C   0  0  1  0  0  0  0  0  0  0  0  0
   -0.2526   -0.9753    1.4439 H   0  0  0  0  0  0  0  0  0  0  0  0
   -0.2822   -0.6061   -0.6680 C   0  0  0  0  0  0  0  0  0  0  0  0
   -0.4038    0.3631   -1.1643 H   0  0  0  0  0  0  0  0  0  0  0  0
    0.7931   -0.7700   -0.5440 H   0  0  0  0  0  0  0  0  0  0  0  0
   -0.8500   -1.6800   -1.6150 C   0  0  0  0  0  0  0  0  0  0  0  0
   -0.5355   -2.6720   -1.2735 H   0  0  0  0  0  0  0  0  0  0  0  0
   -1.9437   -1.6504   -1.6175 H   0  0  0  0  0  0  0  0  0  0  0  0
   -0.3787   -1.4272   -3.0514 C   0  0  0  0  0  0  0  0  0  0  0  0
   -0.7392   -0.4511   -3.3919 H   0  0  0  0  0  0  0  0  0  0  0  0
    0.7158   -1.4138   -3.0806 H   0  0  0  0  0  0  0  0  0  0  0  0
   -0.8926   -2.5130   -3.9913 C   0  0  0  0  0  0  0  0  0  0  0  0
   -0.5345   -3.4951   -3.6627 H   0  0  0  0  0  0  0  0  0  0  0  0
   -1.9882   -2.5295   -3.9826 H   0  0  0  0  0  0  0  0  0  0  0  0
   -0.4019   -2.2288   -5.3432 N   0  0  0  0  0  0  0  0  0  0  0  0
   -0.7220   -2.9330   -6.0080 H   0  0  0  0  0  0  0  0  0  0  0  0
   -0.6762   -1.2932   -5.6429 H   0  0  0  0  0  0  0  0  0  0  0  0
   -1.0980    0.9587    1.1614 C   0  0  0  0  0  0  0  0  0  0  0  0
   -2.0813    1.5981    0.8047 O   0  0  0  0  0  0  0  0  0  0  0  0
   -0.1716    1.5460    2.0031 N   0  0  0  0  0  0  0  0  0  0  0  0
    0.6094    0.9762    2.3159 H   0  0  0  0  0  0  0  0  0  0  0  0
   -0.2768    2.9209    2.4755 C   0  0  0  0  0  0  0  0  0  0  0  0
   -1.1995    3.0599    3.0487 H   0  0  0  0  0  0  0  0  0  0  0  0
    0.5718    3.1645    3.1217 H   0  0  0  0  0  0  0  0  0  0  0  0
   -0.2780    3.6171    1.6302 H   0  0  0  0  0  0  0  0  0  0  0  0
  1  2  1  0  0  0  0
  2  3  1  0  0  0  0
  2  4  1  0  0  0  0
  2  5  1  0  0  0  0
  5  6  2  0  0  0  0
  5  7  1  0  0  0  0
  7  8  1  0  0  0  0
  7  9  1  0  0  0  0
  9 10  1  0  0  0  0
  9 11  1  0  0  0  0
  9 26  1  0  0  0  0
 11 12  1  0  0  0  0
 11 13  1  0  0  0  0
 11 14  1  0  0  0  0
 14 15  1  0  0  0  0
 14 16  1  0  0  0  0
 14 17  1  0  0  0  0
 17 18  1  0  0  0  0
 17 19  1  0  0  0  0
 17 20  1  0  0  0  0
 20 21  1  0  0  0  0
 20 22  1  0  0  0  0
 20 23  1  0  0  0  0
 23 24  1  0  0  0  0
 23 25  1  0  0  0  0
 26 27  2  0  0  0  0
 26 28  1  0  0  0  0
 28 29  1  0  0  0  0
 28 30  1  0  0  0  0
 30 31  1  0  0  0  0
 30 32  1  0  0  0  0
 30 33  1  0  0  0  0
M  END
$$$$

  -OEChem-03222214063D

 33 32  0     1  0  0  0  0  0999 V2000
   -3.7688   -4.0026    1.9672 H   0  0  0  0  0  0  0  0  0  0  0  0
   -3.7931   -3.0222    1.4833 C   0  0  0  0  0  0  0  0  0  0  0  0
   -4.4115   -2.3490    2.0821 H   0  0  0  0  0  0  0  0  0  0  0  0
   -4.2383   -3.1290    0.4912 H   0  0  0  0  0  0  0  0  0  0  0  0
   -2.3878   -2.4645    1.3612 C   0  0  0  0  0  0  0  0  0  0  0  0
   -1.4345   -3.1193    1.7521 O   0  0  0  0  0  0  0  0  0  0  0  0
   -2.1959   -1.2157    0.8089 N   0  0  0  0  0  0  0  0  0  0  0  0
   -3.0253   -0.6700    0.5806 H   0  0  0  0  0  0  0  0  0  0  0  0
   -0.9023   -0.5182    0.7286 C   0  0  1  0  0  0  0  0  0  0  0  0
   -0.2099   -0.9716    1.4457 H   0  0  0  0  0  0  0  0  0  0  0  0
   -0.2457   -0.5984   -0.6754 C   0  0  0  0  0  0  0  0  0  0  0  0
   -0.0743    0.4143   -1.0571 H   0  0  0  0  0  0  0  0  0  0  0  0
    0.7360   -1.0701   -0.5646 H   0  0  0  0  0  0  0  0  0  0  0  0
   -1.0447   -1.3813   -1.7310 C   0  0  0  0  0  0  0  0  0  0  0  0
   -1.1906   -2.4125   -1.3920 H   0  0  0  0  0  0  0  0  0  0  0  0
   -2.0287   -0.9199   -1.8660 H   0  0  0  0  0  0  0  0  0  0  0  0
   -0.3005   -1.3917   -3.0711 C   0  0  0  0  0  0  0  0  0  0  0  0
   -0.1584   -0.3638   -3.4202 H   0  0  0  0  0  0  0  0  0  0  0  0
    0.6878   -1.8448   -2.9407 H   0  0  0  0  0  0  0  0  0  0  0  0
   -1.0804   -2.1811   -4.1182 C   0  0  0  0  0  0  0  0  0  0  0  0
   -1.2125   -3.2165   -3.7847 H   0  0  0  0  0  0  0  0  0  0  0  0
   -2.0731   -1.7396   -4.2596 H   0  0  0  0  0  0  0  0  0  0  0  0
   -0.3316   -2.1535   -5.3783 N   0  0  0  0  0  0  0  0  0  0  0  0
   -0.8131   -2.6811   -6.1063 H   0  0  0  0  0  0  0  0  0  0  0  0
   -0.1558   -1.1950   -5.6792 H   0  0  0  0  0  0  0  0  0  0  0  0
   -1.0818    0.9534    1.1534 C   0  0  0  0  0  0  0  0  0  0  0  0
   -2.0637    1.5826    0.7744 O   0  0  0  0  0  0  0  0  0  0  0  0
   -0.1796    1.5519    2.0133 N   0  0  0  0  0  0  0  0  0  0  0  0
    0.5949    0.9876    2.3516 H   0  0  0  0  0  0  0  0  0  0  0  0
   -0.3212    2.9193    2.4980 C   0  0  0  0  0  0  0  0  0  0  0  0
   -1.2547    3.0328    3.0593 H   0  0  0  0  0  0  0  0  0  0  0  0
    0.5128    3.1743    3.1589 H   0  0  0  0  0  0  0  0  0  0  0  0
   -0.3254    3.6236    1.6594 H   0  0  0  0  0  0  0  0  0  0  0  0
  1  2  1  0  0  0  0
  2  3  1  0  0  0  0
  2  4  1  0  0  0  0
  2  5  1  0  0  0  0
  5  6  2  0  0  0  0
  5  7  1  0  0  0  0
  7  8  1  0  0  0  0
  7  9  1  0  0  0  0
  9 10  1  0  0  0  0
  9 11  1  0  0  0  0
  9 26  1  0  0  0  0
 11 12  1  0  0  0  0
 11 13  1  0  0  0  0
 11 14  1  0  0  0  0
 14 15  1  0  0  0  0
 14 16  1  0  0  0  0
 14 17  1  0  0  0  0
 17 18  1  0  0  0  0
 17 19  1  0  0  0  0
 17 20  1  0  0  0  0
 20 21  1  0  0  0  0
 20 22  1  0  0  0  0
 20 23  1  0  0  0  0
 23 24  1  0  0  0  0
 23 25  1  0  0  0  0
 26 27  2  0  0  0  0
 26 28  1  0  0  0  0
 28 29  1  0  0  0  0
 28 30  1  0  0  0  0
 30 31  1  0  0  0  0
 30 32  1  0  0  0  0
 30 33  1  0  0  0  0
M  END
$$$$

  -OEChem-03222214063D

 33 32  0     1  0  0  0  0  0999 V2000
   -3.8056   -3.9797    2.0099 H   0  0  0  0  0  0  0  0  0  0  0  0
   -3.8233   -3.0068    1.5109 C   0  0  0  0  0  0  0  0  0  0  0  0
   -4.4358   -2.3201    2.1001 H   0  0  0  0  0  0  0  0  0  0  0  0
   -4.2706   -3.1259    0.5212 H   0  0  0  0  0  0  0  0  0  0  0  0
   -2.4141   -2.4608    1.3793 C   0  0  0  0  0  0  0  0  0  0  0  0
   -1.4648   -3.1189    1.7745 O   0  0  0  0  0  0  0  0  0  0  0  0
   -2.2151   -1.2156    0.8208 N   0  0  0  0  0  0  0  0  0  0  0  0
   -3.0419   -0.6661    0.5919 H   0  0  0  0  0  0  0  0  0  0  0  0
   -0.9168   -0.5270    0.7342 C   0  0  1  0  0  0  0  0  0  0  0  0
   -0.2273   -0.9815    1.4534 H   0  0  0  0  0  0  0  0  0  0  0  0
   -0.2561   -0.6090   -0.6686 C   0  0  0  0  0  0  0  0  0  0  0  0
   -0.0620    0.3988   -1.0517 H   0  0  0  0  0  0  0  0  0  0  0  0
    0.7174   -1.0934   -0.5387 H   0  0  0  0  0  0  0  0  0  0  0  0
   -1.0440   -1.3856   -1.7397 C   0  0  0  0  0  0  0  0  0  0  0  0
   -1.4006   -2.3354   -1.3290 H   0  0  0  0  0  0  0  0  0  0  0  0
   -1.9133   -0.7997   -2.0560 H   0  0  0  0  0  0  0  0  0  0  0  0
   -0.1450   -1.7069   -2.9395 C   0  0  0  0  0  0  0  0  0  0  0  0
    0.2390   -0.7756   -3.3681 H   0  0  0  0  0  0  0  0  0  0  0  0
    0.7104   -2.3070   -2.6119 H   0  0  0  0  0  0  0  0  0  0  0  0
   -0.9179   -2.4764   -4.0067 C   0  0  0  0  0  0  0  0  0  0  0  0
   -1.2910   -3.4197   -3.5923 H   0  0  0  0  0  0  0  0  0  0  0  0
   -1.7788   -1.8887   -4.3442 H   0  0  0  0  0  0  0  0  0  0  0  0
   -0.0188   -2.7464   -5.1331 N   0  0  0  0  0  0  0  0  0  0  0  0
   -0.4929   -3.2730   -5.8668 H   0  0  0  0  0  0  0  0  0  0  0  0
    0.3756   -1.8814   -5.5025 H   0  0  0  0  0  0  0  0  0  0  0  0
   -1.0854    0.9474    1.1530 C   0  0  0  0  0  0  0  0  0  0  0  0
   -2.0637    1.5821    0.7742 O   0  0  0  0  0  0  0  0  0  0  0  0
   -0.1767    1.5431    2.0080 N   0  0  0  0  0  0  0  0  0  0  0  0
    0.5986    0.9766    2.3408 H   0  0  0  0  0  0  0  0  0  0  0  0
   -0.3030    2.9161    2.4811 C   0  0  0  0  0  0  0  0  0  0  0  0
   -1.2321    3.0431    3.0465 H   0  0  0  0  0  0  0  0  0  0  0  0
    0.5372    3.1697    3.1346 H   0  0  0  0  0  0  0  0  0  0  0  0
   -0.3068    3.6133    1.6367 H   0  0  0  0  0  0  0  0  0  0  0  0
  1  2  1  0  0  0  0
  2  3  1  0  0  0  0
  2  4  1  0  0  0  0
  2  5  1  0  0  0  0
  5  6  2  0  0  0  0
  5  7  1  0  0  0  0
  7  8  1  0  0  0  0
  7  9  1  0  0  0  0
  9 10  1  0  0  0  0
  9 11  1  0  0  0  0
  9 26  1  0  0  0  0
 11 12  1  0  0  0  0
 11 13  1  0  0  0  0
 11 14  1  0  0  0  0
 14 15  1  0  0  0  0
 14 16  1  0  0  0  0
 14 17  1  0  0  0  0
 17 18  1  0  0  0  0
 17 19  1  0  0  0  0
 17 20  1  0  0  0  0
 20 21  1  0  0  0  0
 20 22  1  0  0  0  0
 20 23  1  0  0  0  0
 23 24  1  0  0  0  0
 23 25  1  0  0  0  0
 26 27  2  0  0  0  0
 26 28  1  0  0  0  0
 28 29  1  0  0  0  0
 28 30  1  0  0  0  0
 30 31  1  0  0  0  0
 30 32  1  0  0  0  0
 30 33  1  0  0  0  0
M  END
$$$$

  -OEChem-03222214063D

 33 32  0     1  0  0  0  0  0999 V2000
   -3.8442   -3.9550    2.0541 H   0  0  0  0  0  0  0  0  0  0  0  0
   -3.8559   -2.9843    1.5506 C   0  0  0  0  0  0  0  0  0  0  0  0
   -4.4638   -2.2912    2.1372 H   0  0  0  0  0  0  0  0  0  0  0  0
   -4.3044   -3.1052    0.5617 H   0  0  0  0  0  0  0  0  0  0  0  0
   -2.4432   -2.4483    1.4152 C   0  0  0  0  0  0  0  0  0  0  0  0
   -1.4985   -3.1095    1.8159 O   0  0  0  0  0  0  0  0  0  0  0  0
   -2.2359   -1.2097    0.8448 N   0  0  0  0  0  0  0  0  0  0  0  0
   -3.0585   -0.6571    0.6081 H   0  0  0  0  0  0  0  0  0  0  0  0
   -0.9321   -0.5345    0.7440 C   0  0  1  0  0  0  0  0  0  0  0  0
   -0.2446   -0.9888    1.4653 H   0  0  0  0  0  0  0  0  0  0  0  0
   -0.2681   -0.6251   -0.6587 C   0  0  0  0  0  0  0  0  0  0  0  0
   -0.0528    0.3789   -1.0408 H   0  0  0  0  0  0  0  0  0  0  0  0
    0.6991   -1.1163   -0.5099 H   0  0  0  0  0  0  0  0  0  0  0  0
   -1.0378   -1.3959   -1.7529 C   0  0  0  0  0  0  0  0  0  0  0  0
   -1.6170   -2.2155   -1.3199 H   0  0  0  0  0  0  0  0  0  0  0  0
   -1.7341   -0.7184   -2.2582 H   0  0  0  0  0  0  0  0  0  0  0  0
   -0.0650   -2.0312   -2.7542 C   0  0  0  0  0  0  0  0  0  0  0  0
    0.5594   -1.2516   -3.2023 H   0  0  0  0  0  0  0  0  0  0  0  0
    0.5933   -2.7364   -2.2361 H   0  0  0  0  0  0  0  0  0  0  0  0
   -0.8235   -2.7694   -3.8530 C   0  0  0  0  0  0  0  0  0  0  0  0
   -1.4311   -3.5695   -3.4157 H   0  0  0  0  0  0  0  0  0  0  0  0
   -1.4946   -2.0785   -4.3752 H   0  0  0  0  0  0  0  0  0  0  0  0
    0.1477   -3.3363   -4.7937 N   0  0  0  0  0  0  0  0  0  0  0  0
   -0.3180   -3.8500   -5.5417 H   0  0  0  0  0  0  0  0  0  0  0  0
    0.7565   -2.6117   -5.1737 H   0  0  0  0  0  0  0  0  0  0  0  0
   -1.0880    0.9443    1.1521 C   0  0  0  0  0  0  0  0  0  0  0  0
   -2.0623    1.5843    0.7715 O   0  0  0  0  0  0  0  0  0  0  0  0
   -0.1698    1.5395    1.9972 N   0  0  0  0  0  0  0  0  0  0  0  0
    0.6000    0.9679    2.3341 H   0  0  0  0  0  0  0  0  0  0  0  0
   -0.2894    2.9130    2.4702 C   0  0  0  0  0  0  0  0  0  0  0  0
   -1.2133    3.0416    3.0439 H   0  0  0  0  0  0  0  0  0  0  0  0
    0.5570    3.1654    3.1160 H   0  0  0  0  0  0  0  0  0  0  0  0
   -0.2989    3.6097    1.6254 H   0  0  0  0  0  0  0  0  0  0  0  0
  1  2  1  0  0  0  0
  2  3  1  0  0  0  0
  2  4  1  0  0  0  0
  2  5  1  0  0  0  0
  5  6  2  0  0  0  0
  5  7  1  0  0  0  0
  7  8  1  0  0  0  0
  7  9  1  0  0  0  0
  9 10  1  0  0  0  0
  9 11  1  0  0  0  0
  9 26  1  0  0  0  0
 11 12  1  0  0  0  0
 11 13  1  0  0  0  0
 11 14  1  0  0  0  0
 14 15  1  0  0  0  0
 14 16  1  0  0  0  0
 14 17  1  0  0  0  0
 17 18  1  0  0  0  0
 17 19  1  0  0  0  0
 17 20  1  0  0  0  0
 20 21  1  0  0  0  0
 20 22  1  0  0  0  0
 20 23  1  0  0  0  0
 23 24  1  0  0  0  0
 23 25  1  0  0  0  0
 26 27  2  0  0  0  0
 26 28  1  0  0  0  0
 28 29  1  0  0  0  0
 28 30  1  0  0  0  0
 30 31  1  0  0  0  0
 30 32  1  0  0  0  0
 30 33  1  0  0  0  0
M  END
$$$$

  -OEChem-03222214063D

 33 32  0     1  0  0  0  0  0999 V2000
   -3.8726   -3.9346    2.0808 H   0  0  0  0  0  0  0  0  0  0  0  0
   -3.8811   -2.9667    1.5716 C   0  0  0  0  0  0  0  0  0  0  0  0
   -4.4892   -2.2686    2.1521 H   0  0  0  0  0  0  0  0  0  0  0  0
   -4.3267   -3.0924    0.5818 H   0  0  0  0  0  0  0  0  0  0  0  0
   -2.4672   -2.4345    1.4363 C   0  0  0  0  0  0  0  0  0  0  0  0
   -1.5245   -3.0986    1.8367 O   0  0  0  0  0  0  0  0  0  0  0  0
   -2.2567   -1.1971    0.8642 N   0  0  0  0  0  0  0  0  0  0  0  0
   -3.0773   -0.6413    0.6287 H   0  0  0  0  0  0  0  0  0  0  0  0
   -0.9495   -0.5322    0.7530 C   0  0  1  0  0  0  0  0  0  0  0  0
   -0.2637   -0.9903    1.4732 H   0  0  0  0  0  0  0  0  0  0  0  0
   -0.2834   -0.6303   -0.6498 C   0  0  0  0  0  0  0  0  0  0  0  0
   -0.0702    0.3754   -1.0284 H   0  0  0  0  0  0  0  0  0  0  0  0
    0.6884   -1.1105   -0.4936 H   0  0  0  0  0  0  0  0  0  0  0  0
   -1.0354   -1.3968   -1.7658 C   0  0  0  0  0  0  0  0  0  0  0  0
   -1.8363   -2.0224   -1.3678 H   0  0  0  0  0  0  0  0  0  0  0  0
   -1.4941   -0.6755   -2.4504 H   0  0  0  0  0  0  0  0  0  0  0  0
   -0.0797   -2.3245   -2.5267 C   0  0  0  0  0  0  0  0  0  0  0  0
    0.7421   -1.7364   -2.9479 H   0  0  0  0  0  0  0  0  0  0  0  0
    0.3471   -3.0600   -1.8363 H   0  0  0  0  0  0  0  0  0  0  0  0
   -0.8078   -3.0566   -3.6499 C   0  0  0  0  0  0  0  0  0  0  0  0
   -1.6146   -3.6714   -3.2354 H   0  0  0  0  0  0  0  0  0  0  0  0
   -1.2519   -2.3343   -4.3437 H   0  0  0  0  0  0  0  0  0  0  0  0
    0.1563   -3.9061   -4.3557 N   0  0  0  0  0  0  0  0  0  0  0  0
   -0.2902   -4.4245   -5.1119 H   0  0  0  0  0  0  0  0  0  0  0  0
    0.9426   -3.3579   -4.7038 H   0  0  0  0  0  0  0  0  0  0  0  0
   -1.0915    0.9479    1.1625 C   0  0  0  0  0  0  0  0  0  0  0  0
   -2.0600    1.5975    0.7838 O   0  0  0  0  0  0  0  0  0  0  0  0
   -0.1620    1.5359    2.0006 N   0  0  0  0  0  0  0  0  0  0  0  0
    0.5945    0.9527    2.3472 H   0  0  0  0  0  0  0  0  0  0  0  0
   -0.2671    2.9104    2.4744 C   0  0  0  0  0  0  0  0  0  0  0  0
   -1.1847    3.0464    3.0563 H   0  0  0  0  0  0  0  0  0  0  0  0
    0.5868    3.1563    3.1127 H   0  0  0  0  0  0  0  0  0  0  0  0
   -0.2785    3.6069    1.6294 H   0  0  0  0  0  0  0  0  0  0  0  0
  1  2  1  0  0  0  0
  2  3  1  0  0  0  0
  2  4  1  0  0  0  0
  2  5  1  0  0  0  0
  5  6  2  0  0  0  0
  5  7  1  0  0  0  0
  7  8  1  0  0  0  0
  7  9  1  0  0  0  0
  9 10  1  0  0  0  0
  9 11  1  0  0  0  0
  9 26  1  0  0  0  0
 11 12  1  0  0  0  0
 11 13  1  0  0  0  0
 11 14  1  0  0  0  0
 14 15  1  0  0  0  0
 14 16  1  0  0  0  0
 14 17  1  0  0  0  0
 17 18  1  0  0  0  0
 17 19  1  0  0  0  0
 17 20  1  0  0  0  0
 20 21  1  0  0  0  0
 20 22  1  0  0  0  0
 20 23  1  0  0  0  0
 23 24  1  0  0  0  0
 23 25  1  0  0  0  0
 26 27  2  0  0  0  0
 26 28  1  0  0  0  0
 28 29  1  0  0  0  0
 28 30  1  0  0  0  0
 30 31  1  0  0  0  0
 30 32  1  0  0  0  0
 30 33  1  0  0  0  0
M  END
$$$$

  -OEChem-03222214063D

 33 32  0     1  0  0  0  0  0999 V2000
   -3.8723   -3.9396    2.0240 H   0  0  0  0  0  0  0  0  0  0  0  0
   -3.8769   -2.9674    1.5234 C   0  0  0  0  0  0  0  0  0  0  0  0
   -4.5086   -2.2811    2.0924 H   0  0  0  0  0  0  0  0  0  0  0  0
   -4.2928   -3.0892    0.5203 H   0  0  0  0  0  0  0  0  0  0  0  0
   -2.4657   -2.4188    1.4337 C   0  0  0  0  0  0  0  0  0  0  0  0
   -1.5284   -3.0724    1.8634 O   0  0  0  0  0  0  0  0  0  0  0  0
   -2.2515   -1.1800    0.8661 N   0  0  0  0  0  0  0  0  0  0  0  0
   -3.0694   -0.6315    0.6058 H   0  0  0  0  0  0  0  0  0  0  0  0
   -0.9438   -0.5162    0.7621 C   0  0  1  0  0  0  0  0  0  0  0  0
   -0.2628   -0.9763    1.4856 H   0  0  0  0  0  0  0  0  0  0  0  0
   -0.2696   -0.6200   -0.6371 C   0  0  0  0  0  0  0  0  0  0  0  0
   -0.0802    0.3911   -1.0138 H   0  0  0  0  0  0  0  0  0  0  0  0
    0.7150   -1.0750   -0.4869 H   0  0  0  0  0  0  0  0  0  0  0  0
   -1.0127   -1.3887   -1.7601 C   0  0  0  0  0  0  0  0  0  0  0  0
   -1.9912   -1.7570   -1.4487 H   0  0  0  0  0  0  0  0  0  0  0  0
   -1.1896   -0.6993   -2.5921 H   0  0  0  0  0  0  0  0  0  0  0  0
   -0.1782   -2.5737   -2.2618 C   0  0  0  0  0  0  0  0  0  0  0  0
    0.7872   -2.2129   -2.6311 H   0  0  0  0  0  0  0  0  0  0  0  0
    0.0107   -3.2648   -1.4330 H   0  0  0  0  0  0  0  0  0  0  0  0
   -0.9039   -3.3170   -3.3799 C   0  0  0  0  0  0  0  0  0  0  0  0
   -1.8596   -3.7067   -3.0119 H   0  0  0  0  0  0  0  0  0  0  0  0
   -1.1121   -2.6344   -4.2111 H   0  0  0  0  0  0  0  0  0  0  0  0
   -0.0566   -4.4226   -3.8372 N   0  0  0  0  0  0  0  0  0  0  0  0
   -0.5053   -4.9473   -4.5878 H   0  0  0  0  0  0  0  0  0  0  0  0
    0.8621   -4.0865   -4.1256 H   0  0  0  0  0  0  0  0  0  0  0  0
   -1.0848    0.9631    1.1749 C   0  0  0  0  0  0  0  0  0  0  0  0
   -2.0486    1.6162    0.7900 O   0  0  0  0  0  0  0  0  0  0  0  0
   -0.1579    1.5478    2.0182 N   0  0  0  0  0  0  0  0  0  0  0  0
    0.5945    0.9613    2.3685 H   0  0  0  0  0  0  0  0  0  0  0  0
   -0.2692    2.9177    2.5041 C   0  0  0  0  0  0  0  0  0  0  0  0
   -1.1941    3.0476    3.0758 H   0  0  0  0  0  0  0  0  0  0  0  0
    0.5765    3.1569    3.1558 H   0  0  0  0  0  0  0  0  0  0  0  0
   -0.2702    3.6230    1.6664 H   0  0  0  0  0  0  0  0  0  0  0  0
  1  2  1  0  0  0  0
  2  3  1  0  0  0  0
  2  4  1  0  0  0  0
  2  5  1  0  0  0  0
  5  6  2  0  0  0  0
  5  7  1  0  0  0  0
  7  8  1  0  0  0  0
  7  9  1  0  0  0  0
  9 10  1  0  0  0  0
  9 11  1  0  0  0  0
  9 26  1  0  0  0  0
 11 12  1  0  0  0  0
 11 13  1  0  0  0  0
 11 14  1  0  0  0  0
 14 15  1  0  0  0  0
 14 16  1  0  0  0  0
 14 17  1  0  0  0  0
 17 18  1  0  0  0  0
 17 19  1  0  0  0  0
 17 20  1  0  0  0  0
 20 21  1  0  0  0  0
 20 22  1  0  0  0  0
 20 23  1  0  0  0  0
 23 24  1  0  0  0  0
 23 25  1  0  0  0  0
 26 27  2  0  0  0  0
 26 28  1  0  0  0  0
 28 29  1  0  0  0  0
 28 30  1  0  0  0  0
 30 31  1  0  0  0  0
 30 32  1  0  0  0  0
 30 33  1  0  0  0  0
M  END
$$$$

  -OEChem-03222214063D

 33 32  0     1  0  0  0  0  0999 V2000
   -3.8466   -3.9509    1.9768 H   0  0  0  0  0  0  0  0  0  0  0  0
   -3.8529   -2.9822    1.4694 C   0  0  0  0  0  0  0  0  0  0  0  0
   -4.5063   -2.3006    2.0193 H   0  0  0  0  0  0  0  0  0  0  0  0
   -4.2451   -3.1169    0.4585 H   0  0  0  0  0  0  0  0  0  0  0  0
   -2.4468   -2.4163    1.4074 C   0  0  0  0  0  0  0  0  0  0  0  0
   -1.5112   -3.0588    1.8573 O   0  0  0  0  0  0  0  0  0  0  0  0
   -2.2346   -1.1729    0.8486 N   0  0  0  0  0  0  0  0  0  0  0  0
   -3.0525   -0.6326    0.5722 H   0  0  0  0  0  0  0  0  0  0  0  0
   -0.9292   -0.5002    0.7653 C   0  0  1  0  0  0  0  0  0  0  0  0
   -0.2537   -0.9607    1.4937 H   0  0  0  0  0  0  0  0  0  0  0  0
   -0.2435   -0.6048   -0.6276 C   0  0  0  0  0  0  0  0  0  0  0  0
   -0.0834    0.4105   -1.0067 H   0  0  0  0  0  0  0  0  0  0  0  0
    0.7524   -1.0378   -0.4876 H   0  0  0  0  0  0  0  0  0  0  0  0
   -0.9885   -1.3809   -1.7405 C   0  0  0  0  0  0  0  0  0  0  0  0
   -2.0593   -1.4766   -1.5483 H   0  0  0  0  0  0  0  0  0  0  0  0
   -0.8961   -0.8070   -2.6685 H   0  0  0  0  0  0  0  0  0  0  0  0
   -0.3574   -2.7584   -1.9766 C   0  0  0  0  0  0  0  0  0  0  0  0
    0.6971   -2.6420   -2.2464 H   0  0  0  0  0  0  0  0  0  0  0  0
   -0.4086   -3.3465   -1.0537 H   0  0  0  0  0  0  0  0  0  0  0  0
   -1.0867   -3.5031   -3.0910 C   0  0  0  0  0  0  0  0  0  0  0  0
   -2.1407   -3.6396   -2.8243 H   0  0  0  0  0  0  0  0  0  0  0  0
   -1.0427   -2.9230   -4.0194 H   0  0  0  0  0  0  0  0  0  0  0  0
   -0.4467   -4.8078   -3.2822 N   0  0  0  0  0  0  0  0  0  0  0  0
   -0.8893   -5.3316   -4.0370 H   0  0  0  0  0  0  0  0  0  0  0  0
    0.5545   -4.7051   -3.4466 H   0  0  0  0  0  0  0  0  0  0  0  0
   -1.0789    0.9772    1.1829 C   0  0  0  0  0  0  0  0  0  0  0  0
   -2.0374    1.6310    0.7864 O   0  0  0  0  0  0  0  0  0  0  0  0
   -0.1639    1.5605    2.0401 N   0  0  0  0  0  0  0  0  0  0  0  0
    0.5835    0.9737    2.3998 H   0  0  0  0  0  0  0  0  0  0  0  0
   -0.2823    2.9293    2.5273 C   0  0  0  0  0  0  0  0  0  0  0  0
   -1.2087    3.0547    3.0977 H   0  0  0  0  0  0  0  0  0  0  0  0
    0.5613    3.1723    3.1806 H   0  0  0  0  0  0  0  0  0  0  0  0
   -0.2849    3.6352    1.6901 H   0  0  0  0  0  0  0  0  0  0  0  0
  1  2  1  0  0  0  0
  2  3  1  0  0  0  0
  2  4  1  0  0  0  0
  2  5  1  0  0  0  0
  5  6  2  0  0  0  0
  5  7  1  0  0  0  0
  7  8  1  0  0  0  0
  7  9  1  0  0  0  0
  9 10  1  0  0  0  0
  9 11  1  0  0  0  0
  9 26  1  0  0  0  0
 11 12  1  0  0  0  0
 11 13  1  0  0  0  0
 11 14  1  0  0  0  0
 14 15  1  0  0  0  0
 14 16  1  0  0  0  0
 14 17  1  0  0  0  0
 17 18  1  0  0  0  0
 17 19  1  0  0  0  0
 17 20  1  0  0  0  0
 20 21  1  0  0  0  0
 20 22  1  0  0  0  0
 20 23  1  0  0  0  0
 23 24  1  0  0  0  0
 23 25  1  0  0  0  0
 26 27  2  0  0  0  0
 26 28  1  0  0  0  0
 28 29  1  0  0  0  0
 28 30  1  0  0  0  0
 30 31  1  0  0  0  0
 30 32  1  0  0  0  0
 30 33  1  0  0  0  0
M  END
$$$$

  -OEChem-03222214063D

 33 32  0     1  0  0  0  0  0999 V2000
   -3.8121   -3.9785    1.9433 H   0  0  0  0  0  0  0  0  0  0  0  0
   -3.8044   -3.0202    1.4164 C   0  0  0  0  0  0  0  0  0  0  0  0
   -4.5085   -2.3432    1.9056 H   0  0  0  0  0  0  0  0  0  0  0  0
   -4.1226   -3.1834    0.3839 H   0  0  0  0  0  0  0  0  0  0  0  0
   -2.4104   -2.4229    1.4376 C   0  0  0  0  0  0  0  0  0  0  0  0
   -1.4960   -3.0258    1.9777 O   0  0  0  0  0  0  0  0  0  0  0  0
   -2.1885   -1.1889    0.8621 N   0  0  0  0  0  0  0  0  0  0  0  0
   -2.9963   -0.6786    0.5102 H   0  0  0  0  0  0  0  0  0  0  0  0
   -0.8846   -0.5102    0.7975 C   0  0  1  0  0  0  0  0  0  0  0  0
   -0.2100   -0.9574    1.5349 H   0  0  0  0  0  0  0  0  0  0  0  0
   -0.1947   -0.6021   -0.5949 C   0  0  0  0  0  0  0  0  0  0  0  0
   -0.0319    0.4144   -0.9701 H   0  0  0  0  0  0  0  0  0  0  0  0
    0.7983   -1.0436   -0.4631 H   0  0  0  0  0  0  0  0  0  0  0  0
   -0.9452   -1.3706   -1.7032 C   0  0  0  0  0  0  0  0  0  0  0  0
   -2.0271   -1.2277   -1.6269 H   0  0  0  0  0  0  0  0  0  0  0  0
   -0.6434   -0.9475   -2.6670 H   0  0  0  0  0  0  0  0  0  0  0  0
   -0.5849   -2.8619   -1.7164 C   0  0  0  0  0  0  0  0  0  0  0  0
    0.4918   -2.9825   -1.8730 H   0  0  0  0  0  0  0  0  0  0  0  0
   -0.8350   -3.3138   -0.7524 H   0  0  0  0  0  0  0  0  0  0  0  0
   -1.3451   -3.5846   -2.8250 C   0  0  0  0  0  0  0  0  0  0  0  0
   -2.4237   -3.4401   -2.6967 H   0  0  0  0  0  0  0  0  0  0  0  0
   -1.0606   -3.1751   -3.8007 H   0  0  0  0  0  0  0  0  0  0  0  0
   -1.0259   -5.0138   -2.7642 N   0  0  0  0  0  0  0  0  0  0  0  0
   -1.4904   -5.5303   -3.5110 H   0  0  0  0  0  0  0  0  0  0  0  0
   -0.0176   -5.1665   -2.7870 H   0  0  0  0  0  0  0  0  0  0  0  0
   -1.0647    0.9716    1.1877 C   0  0  0  0  0  0  0  0  0  0  0  0
   -2.0125    1.6106    0.7435 O   0  0  0  0  0  0  0  0  0  0  0  0
   -0.1808    1.5822    2.0583 N   0  0  0  0  0  0  0  0  0  0  0  0
    0.5539    1.0077    2.4618 H   0  0  0  0  0  0  0  0  0  0  0  0
   -0.3289    2.9599    2.5116 C   0  0  0  0  0  0  0  0  0  0  0  0
   -1.2634    3.0812    3.0693 H   0  0  0  0  0  0  0  0  0  0  0  0
    0.5035    3.2342    3.1665 H   0  0  0  0  0  0  0  0  0  0  0  0
   -0.3363    3.6456    1.6578 H   0  0  0  0  0  0  0  0  0  0  0  0
  1  2  1  0  0  0  0
  2  3  1  0  0  0  0
  2  4  1  0  0  0  0
  2  5  1  0  0  0  0
  5  6  2  0  0  0  0
  5  7  1  0  0  0  0
  7  8  1  0  0  0  0
  7  9  1  0  0  0  0
  9 10  1  0  0  0  0
  9 11  1  0  0  0  0
  9 26  1  0  0  0  0
 11 12  1  0  0  0  0
 11 13  1  0  0  0  0
 11 14  1  0  0  0  0
 14 15  1  0  0  0  0
 14 16  1  0  0  0  0
 14 17  1  0  0  0  0
 17 18  1  0  0  0  0
 17 19  1  0  0  0  0
 17 20  1  0  0  0  0
 20 21  1  0  0  0  0
 20 22  1  0  0  0  0
 20 23  1  0  0  0  0
 23 24  1  0  0  0  0
 23 25  1  0  0  0  0
 26 27  2  0  0  0  0
 26 28  1  0  0  0  0
 28 29  1  0  0  0  0
 28 30  1  0  0  0  0
 30 31  1  0  0  0  0
 30 32  1  0  0  0  0
 30 33  1  0  0  0  0
M  END
$$$$

  -OEChem-03222214063D

 33 32  0     1  0  0  0  0  0999 V2000
   -3.8440   -3.9040    2.1818 H   0  0  0  0  0  0  0  0  0  0  0  0
   -3.8074   -3.0145    1.5469 C   0  0  0  0  0  0  0  0  0  0  0  0
   -4.5337   -2.2869    1.9169 H   0  0  0  0  0  0  0  0  0  0  0  0
   -4.0729   -3.2990    0.5258 H   0  0  0  0  0  0  0  0  0  0  0  0
   -2.4148   -2.4145    1.5674 C   0  0  0  0  0  0  0  0  0  0  0  0
   -1.5082   -2.9923    2.1472 O   0  0  0  0  0  0  0  0  0  0  0  0
   -2.1831   -1.2054    0.9438 N   0  0  0  0  0  0  0  0  0  0  0  0
   -2.9846   -0.7160    0.5509 H   0  0  0  0  0  0  0  0  0  0  0  0
   -0.8766   -0.5347    0.8532 C   0  0  1  0  0  0  0  0  0  0  0  0
   -0.1970   -0.9572    1.6002 H   0  0  0  0  0  0  0  0  0  0  0  0
   -0.1866   -0.6294   -0.5425 C   0  0  0  0  0  0  0  0  0  0  0  0
   -0.0025    0.3838   -0.9170 H   0  0  0  0  0  0  0  0  0  0  0  0
    0.7971   -1.0883   -0.3997 H   0  0  0  0  0  0  0  0  0  0  0  0
   -0.9080   -1.3926   -1.6720 C   0  0  0  0  0  0  0  0  0  0  0  0
   -1.9484   -1.0557   -1.7287 H   0  0  0  0  0  0  0  0  0  0  0  0
   -0.4293   -1.1251   -2.6198 H   0  0  0  0  0  0  0  0  0  0  0  0
   -0.8601   -2.9218   -1.5291 C   0  0  0  0  0  0  0  0  0  0  0  0
    0.1830   -3.2533   -1.5143 H   0  0  0  0  0  0  0  0  0  0  0  0
   -1.3189   -3.2448   -0.5969 H   0  0  0  0  0  0  0  0  0  0  0  0
   -1.5891   -3.5881   -2.6923 C   0  0  0  0  0  0  0  0  0  0  0  0
   -2.6183   -3.2176   -2.7542 H   0  0  0  0  0  0  0  0  0  0  0  0
   -1.0844   -3.3499   -3.6350 H   0  0  0  0  0  0  0  0  0  0  0  0
   -1.5974   -5.0370   -2.4730 N   0  0  0  0  0  0  0  0  0  0  0  0
   -2.0263   -5.5288   -3.2565 H   0  0  0  0  0  0  0  0  0  0  0  0
   -0.6556   -5.3860   -2.2944 H   0  0  0  0  0  0  0  0  0  0  0  0
   -1.0720    0.9590    1.1895 C   0  0  0  0  0  0  0  0  0  0  0  0
   -2.0218    1.5771    0.7201 O   0  0  0  0  0  0  0  0  0  0  0  0
   -0.1937    1.6041    2.0404 N   0  0  0  0  0  0  0  0  0  0  0  0
    0.5375    1.0449    2.4706 H   0  0  0  0  0  0  0  0  0  0  0  0
   -0.3535    2.9930    2.4529 C   0  0  0  0  0  0  0  0  0  0  0  0
   -1.2848    3.1210    3.0144 H   0  0  0  0  0  0  0  0  0  0  0  0
    0.4813    3.2959    3.0922 H   0  0  0  0  0  0  0  0  0  0  0  0
   -0.3751    3.6526    1.5789 H   0  0  0  0  0  0  0  0  0  0  0  0
  1  2  1  0  0  0  0
  2  3  1  0  0  0  0
  2  4  1  0  0  0  0
  2  5  1  0  0  0  0
  5  6  2  0  0  0  0
  5  7  1  0  0  0  0
  7  8  1  0  0  0  0
  7  9  1  0  0  0  0
  9 10  1  0  0  0  0
  9 11  1  0  0  0  0
  9 26  1  0  0  0  0
 11 12  1  0  0  0  0
 11 13  1  0  0  0  0
 11 14  1  0  0  0  0
 14 15  1  0  0  0  0
 14 16  1  0  0  0  0
 14 17  1  0  0  0  0
 17 18  1  0  0  0  0
 17 19  1  0  0  0  0
 17 20  1  0  0  0  0
 20 21  1  0  0  0  0
 20 22  1  0  0  0  0
 20 23  1  0  0  0  0
 23 24  1  0  0  0  0
 23 25  1  0  0  0  0
 26 27  2  0  0  0  0
 26 28  1  0  0  0  0
 28 29  1  0  0  0  0
 28 30  1  0  0  0  0
 30 31  1  0  0  0  0
 30 32  1  0  0  0  0
 30 33  1  0  0  0  0
M  END
$$$$

  -OEChem-03222214063D

 33 32  0     1  0  0  0  0  0999 V2000
   -3.8018   -3.8602    2.4678 H   0  0  0  0  0  0  0  0  0  0  0  0
   -3.8282   -2.9467    1.8672 C   0  0  0  0  0  0  0  0  0  0  0  0
   -4.4637   -2.2131    2.3689 H   0  0  0  0  0  0  0  0  0  0  0  0
   -4.2551   -3.1811    0.8889 H   0  0  0  0  0  0  0  0  0  0  0  0
   -2.4266   -2.3905    1.6998 C   0  0  0  0  0  0  0  0  0  0  0  0
   -1.4695   -3.0101    2.1389 O   0  0  0  0  0  0  0  0  0  0  0  0
   -2.2407   -1.1780    1.0653 N   0  0  0  0  0  0  0  0  0  0  0  0
   -3.0693   -0.6581    0.7818 H   0  0  0  0  0  0  0  0  0  0  0  0
   -0.9376   -0.5280    0.8674 C   0  0  1  0  0  0  0  0  0  0  0  0
   -0.2077   -0.9633    1.5573 H   0  0  0  0  0  0  0  0  0  0  0  0
   -0.3554   -0.6256   -0.5749 C   0  0  0  0  0  0  0  0  0  0  0  0
   -0.1598    0.3848   -0.9511 H   0  0  0  0  0  0  0  0  0  0  0  0
    0.6194   -1.1163   -0.4908 H   0  0  0  0  0  0  0  0  0  0  0  0
   -1.1390   -1.3661   -1.6810 C   0  0  0  0  0  0  0  0  0  0  0  0
   -2.0885   -0.8493   -1.8548 H   0  0  0  0  0  0  0  0  0  0  0  0
   -0.5505   -1.2800   -2.6005 H   0  0  0  0  0  0  0  0  0  0  0  0
   -1.4262   -2.8531   -1.4180 C   0  0  0  0  0  0  0  0  0  0  0  0
   -0.6077   -3.2979   -0.8427 H   0  0  0  0  0  0  0  0  0  0  0  0
   -2.3486   -2.9589   -0.8462 H   0  0  0  0  0  0  0  0  0  0  0  0
   -1.5984   -3.6175   -2.7269 C   0  0  0  0  0  0  0  0  0  0  0  0
   -2.3721   -3.1433   -3.3411 H   0  0  0  0  0  0  0  0  0  0  0  0
   -0.6602   -3.6088   -3.2927 H   0  0  0  0  0  0  0  0  0  0  0  0
   -1.9878   -4.9947   -2.4102 N   0  0  0  0  0  0  0  0  0  0  0  0
   -2.0676   -5.5608   -3.2546 H   0  0  0  0  0  0  0  0  0  0  0  0
   -1.3343   -5.4158   -1.7488 H   0  0  0  0  0  0  0  0  0  0  0  0
   -1.0794    0.9658    1.2297 C   0  0  0  0  0  0  0  0  0  0  0  0
   -2.0565    1.6016    0.8485 O   0  0  0  0  0  0  0  0  0  0  0  0
   -0.1224    1.5929    2.0064 N   0  0  0  0  0  0  0  0  0  0  0  0
    0.6401    1.0239    2.3630 H   0  0  0  0  0  0  0  0  0  0  0  0
   -0.2261    2.9822    2.4359 C   0  0  0  0  0  0  0  0  0  0  0  0
   -1.1283    3.1298    3.0389 H   0  0  0  0  0  0  0  0  0  0  0  0
    0.6434    3.2570    3.0409 H   0  0  0  0  0  0  0  0  0  0  0  0
   -0.2680    3.6499    1.5688 H   0  0  0  0  0  0  0  0  0  0  0  0
  1  2  1  0  0  0  0
  2  3  1  0  0  0  0
  2  4  1  0  0  0  0
  2  5  1  0  0  0  0
  5  6  2  0  0  0  0
  5  7  1  0  0  0  0
  7  8  1  0  0  0  0
  7  9  1  0  0  0  0
  9 10  1  0  0  0  0
  9 11  1  0  0  0  0
  9 26  1  0  0  0  0
 11 12  1  0  0  0  0
 11 13  1  0  0  0  0
 11 14  1  0  0  0  0
 14 15  1  0  0  0  0
 14 16  1  0  0  0  0
 14 17  1  0  0  0  0
 17 18  1  0  0  0  0
 17 19  1  0  0  0  0
 17 20  1  0  0  0  0
 20 21  1  0  0  0  0
 20 22  1  0  0  0  0
 20 23  1  0  0  0  0
 23 24  1  0  0  0  0
 23 25  1  0  0  0  0
 26 27  2  0  0  0  0
 26 28  1  0  0  0  0
 28 29  1  0  0  0  0
 28 30  1  0  0  0  0
 30 31  1  0  0  0  0
 30 32  1  0  0  0  0
 30 33  1  0  0  0  0
M  END
$$$$

  -OEChem-03222214063D

 33 32  0     1  0  0  0  0  0999 V2000
   -3.5494   -4.2601    1.9295 H   0  0  0  0  0  0  0  0  0  0  0  0
   -3.6361   -3.2036    1.6619 C   0  0  0  0  0  0  0  0  0  0  0  0
   -4.2197   -2.6874    2.4275 H   0  0  0  0  0  0  0  0  0  0  0  0
   -4.1579   -3.1290    0.7056 H   0  0  0  0  0  0  0  0  0  0  0  0
   -2.2567   -2.5812    1.5568 C   0  0  0  0  0  0  0  0  0  0  0  0
   -1.3136   -3.0976    2.1380 O   0  0  0  0  0  0  0  0  0  0  0  0
   -2.0913   -1.3748    0.9027 N   0  0  0  0  0  0  0  0  0  0  0  0
   -2.9252   -0.9200    0.5364 H   0  0  0  0  0  0  0  0  0  0  0  0
   -0.8314   -0.6203    0.8339 C   0  0  1  0  0  0  0  0  0  0  0  0
   -0.1588   -0.9686    1.6245 H   0  0  0  0  0  0  0  0  0  0  0  0
   -0.0468   -0.6568   -0.5184 C   0  0  0  0  0  0  0  0  0  0  0  0
    0.1413    0.3687   -0.8554 H   0  0  0  0  0  0  0  0  0  0  0  0
    0.9329   -1.0799   -0.2745 H   0  0  0  0  0  0  0  0  0  0  0  0
   -0.5424   -1.4418   -1.7578 C   0  0  0  0  0  0  0  0  0  0  0  0
   -1.3337   -0.8438   -2.2219 H   0  0  0  0  0  0  0  0  0  0  0  0
    0.2827   -1.4776   -2.4769 H   0  0  0  0  0  0  0  0  0  0  0  0
   -1.0622   -2.8772   -1.5615 C   0  0  0  0  0  0  0  0  0  0  0  0
   -0.8715   -3.2198   -0.5442 H   0  0  0  0  0  0  0  0  0  0  0  0
   -0.4939   -3.5453   -2.2163 H   0  0  0  0  0  0  0  0  0  0  0  0
   -2.5423   -3.0051   -1.9272 C   0  0  0  0  0  0  0  0  0  0  0  0
   -3.1362   -2.2465   -1.4083 H   0  0  0  0  0  0  0  0  0  0  0  0
   -2.6675   -2.8466   -3.0040 H   0  0  0  0  0  0  0  0  0  0  0  0
   -3.0110   -4.3434   -1.5555 N   0  0  0  0  0  0  0  0  0  0  0  0
   -3.9587   -4.5106   -1.8934 H   0  0  0  0  0  0  0  0  0  0  0  0
   -2.3719   -5.0615   -1.8982 H   0  0  0  0  0  0  0  0  0  0  0  0
   -1.1639    0.8597    1.1232 C   0  0  0  0  0  0  0  0  0  0  0  0
   -2.1430    1.3856    0.6034 O   0  0  0  0  0  0  0  0  0  0  0  0
   -0.3747    1.5972    1.9865 N   0  0  0  0  0  0  0  0  0  0  0  0
    0.3928    1.1166    2.4476 H   0  0  0  0  0  0  0  0  0  0  0  0
   -0.6543    2.9833    2.3406 C   0  0  0  0  0  0  0  0  0  0  0  0
   -1.6392    3.0676    2.8116 H   0  0  0  0  0  0  0  0  0  0  0  0
    0.0982    3.3528    3.0438 H   0  0  0  0  0  0  0  0  0  0  0  0
   -0.6344    3.6177    1.4484 H   0  0  0  0  0  0  0  0  0  0  0  0
  1  2  1  0  0  0  0
  2  3  1  0  0  0  0
  2  4  1  0  0  0  0
  2  5  1  0  0  0  0
  5  6  2  0  0  0  0
  5  7  1  0  0  0  0
  7  8  1  0  0  0  0
  7  9  1  0  0  0  0
  9 10  1  0  0  0  0
  9 11  1  0  0  0  0
  9 26  1  0  0  0  0
 11 12  1  0  0  0  0
 11 13  1  0  0  0  0
 11 14  1  0  0  0  0
 14 15  1  0  0  0  0
 14 16  1  0  0  0  0
 14 17  1  0  0  0  0
 17 18  1  0  0  0  0
 17 19  1  0  0  0  0
 17 20  1  0  0  0  0
 20 21  1  0  0  0  0
 20 22  1  0  0  0  0
 20 23  1  0  0  0  0
 23 24  1  0  0  0  0
 23 25  1  0  0  0  0
 26 27  2  0  0  0  0
 26 28  1  0  0  0  0
 28 29  1  0  0  0  0
 28 30  1  0  0  0  0
 30 31  1  0  0  0  0
 30 32  1  0  0  0  0
 30 33  1  0  0  0  0
M  END
$$$$

  -OEChem-03222214063D

 33 32  0     1  0  0  0  0  0999 V2000
   -3.8299   -3.8081    2.5992 H   0  0  0  0  0  0  0  0  0  0  0  0
   -3.8600   -2.8603    2.0547 C   0  0  0  0  0  0  0  0  0  0  0  0
   -4.4510   -2.1423    2.6286 H   0  0  0  0  0  0  0  0  0  0  0  0
   -4.3392   -3.0259    1.0864 H   0  0  0  0  0  0  0  0  0  0  0  0
   -2.4537   -2.3287    1.8508 C   0  0  0  0  0  0  0  0  0  0  0  0
   -1.4961   -2.9583    2.2743 O   0  0  0  0  0  0  0  0  0  0  0  0
   -2.2654   -1.1307    1.1914 N   0  0  0  0  0  0  0  0  0  0  0  0
   -3.0949   -0.6149    0.9025 H   0  0  0  0  0  0  0  0  0  0  0  0
   -0.9650   -0.4986    0.9400 C   0  0  1  0  0  0  0  0  0  0  0  0
   -0.2330   -0.9227    1.6349 H   0  0  0  0  0  0  0  0  0  0  0  0
   -0.3722   -0.6309   -0.5012 C   0  0  0  0  0  0  0  0  0  0  0  0
   -0.1307    0.3686   -0.8797 H   0  0  0  0  0  0  0  0  0  0  0  0
    0.5869   -1.1410   -0.3647 H   0  0  0  0  0  0  0  0  0  0  0  0
   -1.0735   -1.3838   -1.6658 C   0  0  0  0  0  0  0  0  0  0  0  0
   -1.6861   -0.6543   -2.2059 H   0  0  0  0  0  0  0  0  0  0  0  0
   -0.2888   -1.7143   -2.3547 H   0  0  0  0  0  0  0  0  0  0  0  0
   -1.9825   -2.5788   -1.3486 C   0  0  0  0  0  0  0  0  0  0  0  0
   -1.4931   -3.2263   -0.6144 H   0  0  0  0  0  0  0  0  0  0  0  0
   -2.9346   -2.2287   -0.9431 H   0  0  0  0  0  0  0  0  0  0  0  0
   -2.2833   -3.3915   -2.6034 C   0  0  0  0  0  0  0  0  0  0  0  0
   -2.7642   -2.7571   -3.3565 H   0  0  0  0  0  0  0  0  0  0  0  0
   -1.3541   -3.7842   -3.0310 H   0  0  0  0  0  0  0  0  0  0  0  0
   -3.1749   -4.4945   -2.2316 N   0  0  0  0  0  0  0  0  0  0  0  0
   -3.4102   -5.0673   -3.0421 H   0  0  0  0  0  0  0  0  0  0  0  0
   -2.7598   -5.0637   -1.4933 H   0  0  0  0  0  0  0  0  0  0  0  0
   -1.0838    1.0024    1.2803 C   0  0  0  0  0  0  0  0  0  0  0  0
   -2.0667    1.6408    0.9192 O   0  0  0  0  0  0  0  0  0  0  0  0
   -0.0966    1.6334    2.0150 N   0  0  0  0  0  0  0  0  0  0  0  0
    0.6742    1.0641    2.3529 H   0  0  0  0  0  0  0  0  0  0  0  0
   -0.1678    3.0335    2.4141 C   0  0  0  0  0  0  0  0  0  0  0  0
   -1.0382    3.2049    3.0561 H   0  0  0  0  0  0  0  0  0  0  0  0
    0.7324    3.3151    2.9687 H   0  0  0  0  0  0  0  0  0  0  0  0
   -0.2466    3.6794    1.5334 H   0  0  0  0  0  0  0  0  0  0  0  0
  1  2  1  0  0  0  0
  2  3  1  0  0  0  0
  2  4  1  0  0  0  0
  2  5  1  0  0  0  0
  5  6  2  0  0  0  0
  5  7  1  0  0  0  0
  7  8  1  0  0  0  0
  7  9  1  0  0  0  0
  9 10  1  0  0  0  0
  9 11  1  0  0  0  0
  9 26  1  0  0  0  0
 11 12  1  0  0  0  0
 11 13  1  0  0  0  0
 11 14  1  0  0  0  0
 14 15  1  0  0  0  0
 14 16  1  0  0  0  0
 14 17  1  0  0  0  0
 17 18  1  0  0  0  0
 17 19  1  0  0  0  0
 17 20  1  0  0  0  0
 20 21  1  0  0  0  0
 20 22  1  0  0  0  0
 20 23  1  0  0  0  0
 23 24  1  0  0  0  0
 23 25  1  0  0  0  0
 26 27  2  0  0  0  0
 26 28  1  0  0  0  0
 28 29  1  0  0  0  0
 28 30  1  0  0  0  0
 30 31  1  0  0  0  0
 30 32  1  0  0  0  0
 30 33  1  0  0  0  0
M  END
$$$$

  -OEChem-03222214063D

 33 32  0     1  0  0  0  0  0999 V2000
   -3.7552   -3.8383    2.6623 H   0  0  0  0  0  0  0  0  0  0  0  0
   -3.8051   -2.8774    2.1428 C   0  0  0  0  0  0  0  0  0  0  0  0
   -4.3821   -2.1767    2.7510 H   0  0  0  0  0  0  0  0  0  0  0  0
   -4.3111   -3.0203    1.1844 H   0  0  0  0  0  0  0  0  0  0  0  0
   -2.4079   -2.3338    1.9127 C   0  0  0  0  0  0  0  0  0  0  0  0
   -1.4357   -2.9598    2.3070 O   0  0  0  0  0  0  0  0  0  0  0  0
   -2.2449   -1.1351    1.2495 N   0  0  0  0  0  0  0  0  0  0  0  0
   -3.0858   -0.6277    0.9789 H   0  0  0  0  0  0  0  0  0  0  0  0
   -0.9580   -0.4924    0.9626 C   0  0  1  0  0  0  0  0  0  0  0  0
   -0.2085   -0.9093    1.6435 H   0  0  0  0  0  0  0  0  0  0  0  0
   -0.3872   -0.6240   -0.4889 C   0  0  0  0  0  0  0  0  0  0  0  0
   -0.1653    0.3795   -0.8686 H   0  0  0  0  0  0  0  0  0  0  0  0
    0.5833   -1.1146   -0.3622 H   0  0  0  0  0  0  0  0  0  0  0  0
   -1.0801   -1.3860   -1.6576 C   0  0  0  0  0  0  0  0  0  0  0  0
   -1.4777   -0.6274   -2.3402 H   0  0  0  0  0  0  0  0  0  0  0  0
   -0.2975   -1.9243   -2.2032 H   0  0  0  0  0  0  0  0  0  0  0  0
   -2.2279   -2.3645   -1.3781 C   0  0  0  0  0  0  0  0  0  0  0  0
   -1.9027   -3.1045   -0.6415 H   0  0  0  0  0  0  0  0  0  0  0  0
   -3.0973   -1.8248   -0.9935 H   0  0  0  0  0  0  0  0  0  0  0  0
   -2.6518   -3.0926   -2.6496 C   0  0  0  0  0  0  0  0  0  0  0  0
   -2.9988   -2.3707   -3.3976 H   0  0  0  0  0  0  0  0  0  0  0  0
   -1.8029   -3.6409   -3.0730 H   0  0  0  0  0  0  0  0  0  0  0  0
   -3.7332   -4.0225   -2.3078 N   0  0  0  0  0  0  0  0  0  0  0  0
   -4.0759   -4.5090   -3.1362 H   0  0  0  0  0  0  0  0  0  0  0  0
   -3.4292   -4.6880   -1.5967 H   0  0  0  0  0  0  0  0  0  0  0  0
   -1.0804    1.0076    1.3061 C   0  0  0  0  0  0  0  0  0  0  0  0
   -2.0787    1.6375    0.9741 O   0  0  0  0  0  0  0  0  0  0  0  0
   -0.0788    1.6472    2.0133 N   0  0  0  0  0  0  0  0  0  0  0  0
    0.7071    1.0852    2.3275 H   0  0  0  0  0  0  0  0  0  0  0  0
   -0.1520    3.0462    2.4160 C   0  0  0  0  0  0  0  0  0  0  0  0
   -1.0020    3.2075    3.0873 H   0  0  0  0  0  0  0  0  0  0  0  0
    0.7636    3.3373    2.9397 H   0  0  0  0  0  0  0  0  0  0  0  0
   -0.2674    3.6918    1.5390 H   0  0  0  0  0  0  0  0  0  0  0  0
  1  2  1  0  0  0  0
  2  3  1  0  0  0  0
  2  4  1  0  0  0  0
  2  5  1  0  0  0  0
  5  6  2  0  0  0  0
  5  7  1  0  0  0  0
  7  8  1  0  0  0  0
  7  9  1  0  0  0  0
  9 10  1  0  0  0  0
  9 11  1  0  0  0  0
  9 26  1  0  0  0  0
 11 12  1  0  0  0  0
 11 13  1  0  0  0  0
 11 14  1  0  0  0  0
 14 15  1  0  0  0  0
 14 16  1  0  0  0  0
 14 17  1  0  0  0  0
 17 18  1  0  0  0  0
 17 19  1  0  0  0  0
 17 20  1  0  0  0  0
 20 21  1  0  0  0  0
 20 22  1  0  0  0  0
 20 23  1  0  0  0  0
 23 24  1  0  0  0  0
 23 25  1  0  0  0  0
 26 27  2  0  0  0  0
 26 28  1  0  0  0  0
 28 29  1  0  0  0  0
 28 30  1  0  0  0  0
 30 31  1  0  0  0  0
 30 32  1  0  0  0  0
 30 33  1  0  0  0  0
M  END
$$$$

  -OEChem-03222214063D

 33 32  0     1  0  0  0  0  0999 V2000
   -3.6248   -3.9306    2.6624 H   0  0  0  0  0  0  0  0  0  0  0  0
   -3.7077   -2.9431    2.2000 C   0  0  0  0  0  0  0  0  0  0  0  0
   -4.2519   -2.2805    2.8771 H   0  0  0  0  0  0  0  0  0  0  0  0
   -4.2674   -3.0372    1.2658 H   0  0  0  0  0  0  0  0  0  0  0  0
   -2.3282   -2.3770    1.9214 C   0  0  0  0  0  0  0  0  0  0  0  0
   -1.3326   -2.9975    2.2619 O   0  0  0  0  0  0  0  0  0  0  0  0
   -2.2092   -1.1645    1.2747 N   0  0  0  0  0  0  0  0  0  0  0  0
   -3.0673   -0.6638    1.0491 H   0  0  0  0  0  0  0  0  0  0  0  0
   -0.9445   -0.4928    0.9579 C   0  0  1  0  0  0  0  0  0  0  0  0
   -0.1676   -0.9062    1.6093 H   0  0  0  0  0  0  0  0  0  0  0  0
   -0.4128   -0.5968   -0.5109 C   0  0  0  0  0  0  0  0  0  0  0  0
   -0.2503    0.4216   -0.8813 H   0  0  0  0  0  0  0  0  0  0  0  0
    0.5838   -1.0426   -0.4285 H   0  0  0  0  0  0  0  0  0  0  0  0
   -1.1207   -1.3587   -1.6727 C   0  0  0  0  0  0  0  0  0  0  0  0
   -1.2922   -0.6293   -2.4717 H   0  0  0  0  0  0  0  0  0  0  0  0
   -0.4063   -2.0917   -2.0623 H   0  0  0  0  0  0  0  0  0  0  0  0
   -2.4481   -2.0923   -1.4428 C   0  0  0  0  0  0  0  0  0  0  0  0
   -2.2981   -2.8980   -0.7196 H   0  0  0  0  0  0  0  0  0  0  0  0
   -3.2017   -1.3964   -1.0621 H   0  0  0  0  0  0  0  0  0  0  0  0
   -2.9682   -2.6992   -2.7424 C   0  0  0  0  0  0  0  0  0  0  0  0
   -3.1829   -1.9061   -3.4674 H   0  0  0  0  0  0  0  0  0  0  0  0
   -2.2133   -3.3634   -3.1778 H   0  0  0  0  0  0  0  0  0  0  0  0
   -4.1896   -3.4541   -2.4450 N   0  0  0  0  0  0  0  0  0  0  0  0
   -4.5951   -3.8469   -3.2947 H   0  0  0  0  0  0  0  0  0  0  0  0
   -4.0061   -4.1868   -1.7596 H   0  0  0  0  0  0  0  0  0  0  0  0
   -1.0821    0.9989    1.3310 C   0  0  0  0  0  0  0  0  0  0  0  0
   -2.1008    1.6158    1.0396 O   0  0  0  0  0  0  0  0  0  0  0  0
   -0.0706    1.6465    2.0165 N   0  0  0  0  0  0  0  0  0  0  0  0
    0.7353    1.0956    2.2981 H   0  0  0  0  0  0  0  0  0  0  0  0
   -0.1549    3.0401    2.4362 C   0  0  0  0  0  0  0  0  0  0  0  0
   -1.0010    3.1845    3.1164 H   0  0  0  0  0  0  0  0  0  0  0  0
    0.7618    3.3353    2.9560 H   0  0  0  0  0  0  0  0  0  0  0  0
   -0.2850    3.6942    1.5675 H   0  0  0  0  0  0  0  0  0  0  0  0
  1  2  1  0  0  0  0
  2  3  1  0  0  0  0
  2  4  1  0  0  0  0
  2  5  1  0  0  0  0
  5  6  2  0  0  0  0
  5  7  1  0  0  0  0
  7  8  1  0  0  0  0
  7  9  1  0  0  0  0
  9 10  1  0  0  0  0
  9 11  1  0  0  0  0
  9 26  1  0  0  0  0
 11 12  1  0  0  0  0
 11 13  1  0  0  0  0
 11 14  1  0  0  0  0
 14 15  1  0  0  0  0
 14 16  1  0  0  0  0
 14 17  1  0  0  0  0
 17 18  1  0  0  0  0
 17 19  1  0  0  0  0
 17 20  1  0  0  0  0
 20 21  1  0  0  0  0
 20 22  1  0  0  0  0
 20 23  1  0  0  0  0
 23 24  1  0  0  0  0
 23 25  1  0  0  0  0
 26 27  2  0  0  0  0
 26 28  1  0  0  0  0
 28 29  1  0  0  0  0
 28 30  1  0  0  0  0
 30 31  1  0  0  0  0
 30 32  1  0  0  0  0
 30 33  1  0  0  0  0
M  END
$$$$

  -OEChem-03222214063D

 33 32  0     1  0  0  0  0  0999 V2000
   -3.5607   -3.9653    2.6633 H   0  0  0  0  0  0  0  0  0  0  0  0
   -3.6619   -2.9888    2.1816 C   0  0  0  0  0  0  0  0  0  0  0  0
   -4.2050   -2.3190    2.8526 H   0  0  0  0  0  0  0  0  0  0  0  0
   -4.2329   -3.1083    1.2575 H   0  0  0  0  0  0  0  0  0  0  0  0
   -2.2927   -2.4126    1.8731 C   0  0  0  0  0  0  0  0  0  0  0  0
   -1.2859   -3.0343    2.1759 O   0  0  0  0  0  0  0  0  0  0  0  0
   -2.1960   -1.1868    1.2486 N   0  0  0  0  0  0  0  0  0  0  0  0
   -3.0622   -0.6879    1.0505 H   0  0  0  0  0  0  0  0  0  0  0  0
   -0.9428   -0.4929    0.9334 C   0  0  1  0  0  0  0  0  0  0  0  0
   -0.1590   -0.9077    1.5754 H   0  0  0  0  0  0  0  0  0  0  0  0
   -0.4162   -0.5866   -0.5366 C   0  0  0  0  0  0  0  0  0  0  0  0
   -0.3134    0.4397   -0.9062 H   0  0  0  0  0  0  0  0  0  0  0  0
    0.6019   -0.9847   -0.4776 H   0  0  0  0  0  0  0  0  0  0  0  0
   -1.1271   -1.3608   -1.6854 C   0  0  0  0  0  0  0  0  0  0  0  0
   -1.0565   -0.7362   -2.5824 H   0  0  0  0  0  0  0  0  0  0  0  0
   -0.5397   -2.2641   -1.8817 H   0  0  0  0  0  0  0  0  0  0  0  0
   -2.5875   -1.8080   -1.5315 C   0  0  0  0  0  0  0  0  0  0  0  0
   -2.6446   -2.6368   -0.8222 H   0  0  0  0  0  0  0  0  0  0  0  0
   -3.1974   -0.9760   -1.1658 H   0  0  0  0  0  0  0  0  0  0  0  0
   -3.1563   -2.2795   -2.8661 C   0  0  0  0  0  0  0  0  0  0  0  0
   -3.1833   -1.4457   -3.5765 H   0  0  0  0  0  0  0  0  0  0  0  0
   -2.5230   -3.0672   -3.2893 H   0  0  0  0  0  0  0  0  0  0  0  0
   -4.5117   -2.7914   -2.6402 N   0  0  0  0  0  0  0  0  0  0  0  0
   -4.9531   -3.0651   -3.5182 H   0  0  0  0  0  0  0  0  0  0  0  0
   -4.5024   -3.5695   -1.9813 H   0  0  0  0  0  0  0  0  0  0  0  0
   -1.0862    0.9917    1.3321 C   0  0  0  0  0  0  0  0  0  0  0  0
   -2.1176    1.6025    1.0751 O   0  0  0  0  0  0  0  0  0  0  0  0
   -0.0705    1.6329    2.0176 N   0  0  0  0  0  0  0  0  0  0  0  0
    0.7449    1.0830    2.2723 H   0  0  0  0  0  0  0  0  0  0  0  0
   -0.1611    3.0142    2.4742 C   0  0  0  0  0  0  0  0  0  0  0  0
   -0.9762    3.1259    3.1969 H   0  0  0  0  0  0  0  0  0  0  0  0
    0.7738    3.3149    2.9566 H   0  0  0  0  0  0  0  0  0  0  0  0
   -0.3444    3.6862    1.6293 H   0  0  0  0  0  0  0  0  0  0  0  0
  1  2  1  0  0  0  0
  2  3  1  0  0  0  0
  2  4  1  0  0  0  0
  2  5  1  0  0  0  0
  5  6  2  0  0  0  0
  5  7  1  0  0  0  0
  7  8  1  0  0  0  0
  7  9  1  0  0  0  0
  9 10  1  0  0  0  0
  9 11  1  0  0  0  0
  9 26  1  0  0  0  0
 11 12  1  0  0  0  0
 11 13  1  0  0  0  0
 11 14  1  0  0  0  0
 14 15  1  0  0  0  0
 14 16  1  0  0  0  0
 14 17  1  0  0  0  0
 17 18  1  0  0  0  0
 17 19  1  0  0  0  0
 17 20  1  0  0  0  0
 20 21  1  0  0  0  0
 20 22  1  0  0  0  0
 20 23  1  0  0  0  0
 23 24  1  0  0  0  0
 23 25  1  0  0  0  0
 26 27  2  0  0  0  0
 26 28  1  0  0  0  0
 28 29  1  0  0  0  0
 28 30  1  0  0  0  0
 30 31  1  0  0  0  0
 30 32  1  0  0  0  0
 30 33  1  0  0  0  0
M  END
$$$$

  -OEChem-03222214063D

 33 32  0     1  0  0  0  0  0999 V2000
   -3.5364   -3.9880    2.6265 H   0  0  0  0  0  0  0  0  0  0  0  0
   -3.6406   -3.0315    2.1069 C   0  0  0  0  0  0  0  0  0  0  0  0
   -4.2125   -2.3477    2.7390 H   0  0  0  0  0  0  0  0  0  0  0  0
   -4.1848   -3.1940    1.1735 H   0  0  0  0  0  0  0  0  0  0  0  0
   -2.2732   -2.4438    1.8131 C   0  0  0  0  0  0  0  0  0  0  0  0
   -1.2650   -3.0600    2.1222 O   0  0  0  0  0  0  0  0  0  0  0  0
   -2.1790   -1.2133    1.1977 N   0  0  0  0  0  0  0  0  0  0  0  0
   -3.0458   -0.7176    0.9942 H   0  0  0  0  0  0  0  0  0  0  0  0
   -0.9270   -0.5087    0.9038 C   0  0  1  0  0  0  0  0  0  0  0  0
   -0.1456   -0.9227    1.5495 H   0  0  0  0  0  0  0  0  0  0  0  0
   -0.3994   -0.6066   -0.5627 C   0  0  0  0  0  0  0  0  0  0  0  0
   -0.3169    0.4181   -0.9417 H   0  0  0  0  0  0  0  0  0  0  0  0
    0.6231   -0.9952   -0.5135 H   0  0  0  0  0  0  0  0  0  0  0  0
   -1.1294   -1.3948   -1.6849 C   0  0  0  0  0  0  0  0  0  0  0  0
   -0.8435   -0.9353   -2.6370 H   0  0  0  0  0  0  0  0  0  0  0  0
   -0.7291   -2.4140   -1.6889 H   0  0  0  0  0  0  0  0  0  0  0  0
   -2.6615   -1.5178   -1.6350 C   0  0  0  0  0  0  0  0  0  0  0  0
   -2.9513   -2.3061   -0.9367 H   0  0  0  0  0  0  0  0  0  0  0  0
   -3.0995   -0.5701   -1.3047 H   0  0  0  0  0  0  0  0  0  0  0  0
   -3.2239   -1.8673   -3.0099 C   0  0  0  0  0  0  0  0  0  0  0  0
   -3.0068   -1.0602   -3.7187 H   0  0  0  0  0  0  0  0  0  0  0  0
   -2.7574   -2.7850   -3.3852 H   0  0  0  0  0  0  0  0  0  0  0  0
   -4.6738   -2.0518   -2.8911 N   0  0  0  0  0  0  0  0  0  0  0  0
   -5.0985   -2.2322   -3.8008 H   0  0  0  0  0  0  0  0  0  0  0  0
   -4.8955   -2.7974   -2.2322 H   0  0  0  0  0  0  0  0  0  0  0  0
   -1.0807    0.9733    1.3078 C   0  0  0  0  0  0  0  0  0  0  0  0
   -2.1145    1.5779    1.0463 O   0  0  0  0  0  0  0  0  0  0  0  0
   -0.0777    1.6175    2.0090 N   0  0  0  0  0  0  0  0  0  0  0  0
    0.7378    1.0717    2.2718 H   0  0  0  0  0  0  0  0  0  0  0  0
   -0.1881    2.9931    2.4793 C   0  0  0  0  0  0  0  0  0  0  0  0
   -1.0089    3.0871    3.1980 H   0  0  0  0  0  0  0  0  0  0  0  0
    0.7399    3.3010    2.9705 H   0  0  0  0  0  0  0  0  0  0  0  0
   -0.3749    3.6716    1.6401 H   0  0  0  0  0  0  0  0  0  0  0  0
  1  2  1  0  0  0  0
  2  3  1  0  0  0  0
  2  4  1  0  0  0  0
  2  5  1  0  0  0  0
  5  6  2  0  0  0  0
  5  7  1  0  0  0  0
  7  8  1  0  0  0  0
  7  9  1  0  0  0  0
  9 10  1  0  0  0  0
  9 11  1  0  0  0  0
  9 26  1  0  0  0  0
 11 12  1  0  0  0  0
 11 13  1  0  0  0  0
 11 14  1  0  0  0  0
 14 15  1  0  0  0  0
 14 16  1  0  0  0  0
 14 17  1  0  0  0  0
 17 18  1  0  0  0  0
 17 19  1  0  0  0  0
 17 20  1  0  0  0  0
 20 21  1  0  0  0  0
 20 22  1  0  0  0  0
 20 23  1  0  0  0  0
 23 24  1  0  0  0  0
 23 25  1  0  0  0  0
 26 27  2  0  0  0  0
 26 28  1  0  0  0  0
 28 29  1  0  0  0  0
 28 30  1  0  0  0  0
 30 31  1  0  0  0  0
 30 32  1  0  0  0  0
 30 33  1  0  0  0  0
M  END
$$$$

  -OEChem-03222214063D

 33 32  0     1  0  0  0  0  0999 V2000
   -3.5684   -4.0059    2.4915 H   0  0  0  0  0  0  0  0  0  0  0  0
   -3.6647   -3.0375    1.9930 C   0  0  0  0  0  0  0  0  0  0  0  0
   -4.2325   -2.3633    2.6387 H   0  0  0  0  0  0  0  0  0  0  0  0
   -4.2076   -3.1756    1.0551 H   0  0  0  0  0  0  0  0  0  0  0  0
   -2.2927   -2.4536    1.7151 C   0  0  0  0  0  0  0  0  0  0  0  0
   -1.2893   -3.0813    2.0166 O   0  0  0  0  0  0  0  0  0  0  0  0
   -2.1885   -1.2146    1.1198 N   0  0  0  0  0  0  0  0  0  0  0  0
   -3.0509   -0.7050    0.9321 H   0  0  0  0  0  0  0  0  0  0  0  0
   -0.9324   -0.5029    0.8641 C   0  0  1  0  0  0  0  0  0  0  0  0
   -0.1648   -0.9248    1.5209 H   0  0  0  0  0  0  0  0  0  0  0  0
   -0.3878   -0.6057   -0.5910 C   0  0  0  0  0  0  0  0  0  0  0  0
   -0.2904    0.4128   -0.9822 H   0  0  0  0  0  0  0  0  0  0  0  0
    0.6267   -1.0128   -0.5321 H   0  0  0  0  0  0  0  0  0  0  0  0
   -1.1378   -1.4087   -1.6826 C   0  0  0  0  0  0  0  0  0  0  0  0
   -0.6794   -1.1491   -2.6427 H   0  0  0  0  0  0  0  0  0  0  0  0
   -0.9529   -2.4748   -1.5141 H   0  0  0  0  0  0  0  0  0  0  0  0
   -2.6613   -1.2088   -1.7852 C   0  0  0  0  0  0  0  0  0  0  0  0
   -3.1796   -1.8451   -1.0649 H   0  0  0  0  0  0  0  0  0  0  0  0
   -2.9140   -0.1641   -1.5747 H   0  0  0  0  0  0  0  0  0  0  0  0
   -3.1572   -1.5732   -3.1819 C   0  0  0  0  0  0  0  0  0  0  0  0
   -2.7082   -0.9051   -3.9256 H   0  0  0  0  0  0  0  0  0  0  0  0
   -2.8652   -2.6007   -3.4265 H   0  0  0  0  0  0  0  0  0  0  0  0
   -4.6174   -1.4449   -3.2130 N   0  0  0  0  0  0  0  0  0  0  0  0
   -4.9870   -1.6530   -4.1408 H   0  0  0  0  0  0  0  0  0  0  0  0
   -5.0533   -2.0362   -2.5063 H   0  0  0  0  0  0  0  0  0  0  0  0
   -1.0846    0.9750    1.2804 C   0  0  0  0  0  0  0  0  0  0  0  0
   -2.1154    1.5845    1.0188 O   0  0  0  0  0  0  0  0  0  0  0  0
   -0.0906    1.6035    2.0084 N   0  0  0  0  0  0  0  0  0  0  0  0
    0.7233    1.0530    2.2664 H   0  0  0  0  0  0  0  0  0  0  0  0
   -0.2024    2.9710    2.5008 C   0  0  0  0  0  0  0  0  0  0  0  0
   -1.0291    3.0546    3.2141 H   0  0  0  0  0  0  0  0  0  0  0  0
    0.7223    3.2680    3.0049 H   0  0  0  0  0  0  0  0  0  0  0  0
   -0.3808    3.6640    1.6717 H   0  0  0  0  0  0  0  0  0  0  0  0
  1  2  1  0  0  0  0
  2  3  1  0  0  0  0
  2  4  1  0  0  0  0
  2  5  1  0  0  0  0
  5  6  2  0  0  0  0
  5  7  1  0  0  0  0
  7  8  1  0  0  0  0
  7  9  1  0  0  0  0
  9 10  1  0  0  0  0
  9 11  1  0  0  0  0
  9 26  1  0  0  0  0
 11 12  1  0  0  0  0
 11 13  1  0  0  0  0
 11 14  1  0  0  0  0
 14 15  1  0  0  0  0
 14 16  1  0  0  0  0
 14 17  1  0  0  0  0
 17 18  1  0  0  0  0
 17 19  1  0  0  0  0
 17 20  1  0  0  0  0
 20 21  1  0  0  0  0
 20 22  1  0  0  0  0
 20 23  1  0  0  0  0
 23 24  1  0  0  0  0
 23 25  1  0  0  0  0
 26 27  2  0  0  0  0
 26 28  1  0  0  0  0
 28 29  1  0  0  0  0
 28 30  1  0  0  0  0
 30 31  1  0  0  0  0
 30 32  1  0  0  0  0
 30 33  1  0  0  0  0
M  END
$$$$

  -OEChem-03222214063D

 33 32  0     1  0  0  0  0  0999 V2000
   -3.6107   -4.0581    2.1782 H   0  0  0  0  0  0  0  0  0  0  0  0
   -3.6886   -3.0403    1.7863 C   0  0  0  0  0  0  0  0  0  0  0  0
   -4.2317   -2.4249    2.5076 H   0  0  0  0  0  0  0  0  0  0  0  0
   -4.2455   -3.0655    0.8467 H   0  0  0  0  0  0  0  0  0  0  0  0
   -2.3060   -2.4626    1.5520 C   0  0  0  0  0  0  0  0  0  0  0  0
   -1.3139   -3.1087    1.8510 O   0  0  0  0  0  0  0  0  0  0  0  0
   -2.1801   -1.2066    0.9988 N   0  0  0  0  0  0  0  0  0  0  0  0
   -3.0340   -0.6760    0.8332 H   0  0  0  0  0  0  0  0  0  0  0  0
   -0.9146   -0.4894    0.8076 C   0  0  1  0  0  0  0  0  0  0  0  0
   -0.1660   -0.9327    1.4721 H   0  0  0  0  0  0  0  0  0  0  0  0
   -0.3395   -0.5548   -0.6355 C   0  0  0  0  0  0  0  0  0  0  0  0
   -0.2064    0.4675   -1.0061 H   0  0  0  0  0  0  0  0  0  0  0  0
    0.6605   -0.9944   -0.5663 H   0  0  0  0  0  0  0  0  0  0  0  0
   -1.1043   -1.3332   -1.7294 C   0  0  0  0  0  0  0  0  0  0  0  0
   -0.5120   -1.2760   -2.6487 H   0  0  0  0  0  0  0  0  0  0  0  0
   -1.1566   -2.3881   -1.4397 H   0  0  0  0  0  0  0  0  0  0  0  0
   -2.5297   -0.8301   -2.0304 C   0  0  0  0  0  0  0  0  0  0  0  0
   -3.2159   -1.0431   -1.2107 H   0  0  0  0  0  0  0  0  0  0  0  0
   -2.5076    0.2547   -2.1773 H   0  0  0  0  0  0  0  0  0  0  0  0
   -3.0684   -1.4988   -3.2927 C   0  0  0  0  0  0  0  0  0  0  0  0
   -2.4119   -1.2827   -4.1430 H   0  0  0  0  0  0  0  0  0  0  0  0
   -3.0995   -2.5852   -3.1544 H   0  0  0  0  0  0  0  0  0  0  0  0
   -4.4152   -0.9861   -3.5630 N   0  0  0  0  0  0  0  0  0  0  0  0
   -4.8170   -1.4187   -4.3948 H   0  0  0  0  0  0  0  0  0  0  0  0
   -5.0256   -1.1096   -2.7559 H   0  0  0  0  0  0  0  0  0  0  0  0
   -1.0807    0.9748    1.2634 C   0  0  0  0  0  0  0  0  0  0  0  0
   -2.1118    1.5849    1.0035 O   0  0  0  0  0  0  0  0  0  0  0  0
   -0.1122    1.5794    2.0438 N   0  0  0  0  0  0  0  0  0  0  0  0
    0.6942    1.0212    2.3092 H   0  0  0  0  0  0  0  0  0  0  0  0
   -0.2523    2.9220    2.5940 C   0  0  0  0  0  0  0  0  0  0  0  0
   -1.0748    2.9552    3.3161 H   0  0  0  0  0  0  0  0  0  0  0  0
    0.6694    3.2200    3.1029 H   0  0  0  0  0  0  0  0  0  0  0  0
   -0.4539    3.6449    1.7963 H   0  0  0  0  0  0  0  0  0  0  0  0
  1  2  1  0  0  0  0
  2  3  1  0  0  0  0
  2  4  1  0  0  0  0
  2  5  1  0  0  0  0
  5  6  2  0  0  0  0
  5  7  1  0  0  0  0
  7  8  1  0  0  0  0
  7  9  1  0  0  0  0
  9 10  1  0  0  0  0
  9 11  1  0  0  0  0
  9 26  1  0  0  0  0
 11 12  1  0  0  0  0
 11 13  1  0  0  0  0
 11 14  1  0  0  0  0
 14 15  1  0  0  0  0
 14 16  1  0  0  0  0
 14 17  1  0  0  0  0
 17 18  1  0  0  0  0
 17 19  1  0  0  0  0
 17 20  1  0  0  0  0
 20 21  1  0  0  0  0
 20 22  1  0  0  0  0
 20 23  1  0  0  0  0
 23 24  1  0  0  0  0
 23 25  1  0  0  0  0
 26 27  2  0  0  0  0
 26 28  1  0  0  0  0
 28 29  1  0  0  0  0
 28 30  1  0  0  0  0
 30 31  1  0  0  0  0
 30 32  1  0  0  0  0
 30 33  1  0  0  0  0
M  END
$$$$

  -OEChem-03222214063D

 33 32  0     1  0  0  0  0  0999 V2000
   -3.6553   -4.0778    1.9696 H   0  0  0  0  0  0  0  0  0  0  0  0
   -3.7106   -3.0818    1.5214 C   0  0  0  0  0  0  0  0  0  0  0  0
   -4.3298   -2.4437    2.1566 H   0  0  0  0  0  0  0  0  0  0  0  0
   -4.1749   -3.1640    0.5357 H   0  0  0  0  0  0  0  0  0  0  0  0
   -2.3207   -2.4886    1.3906 C   0  0  0  0  0  0  0  0  0  0  0  0
   -1.3461   -3.1291    1.7520 O   0  0  0  0  0  0  0  0  0  0  0  0
   -2.1662   -1.2281    0.8541 N   0  0  0  0  0  0  0  0  0  0  0  0
   -3.0109   -0.7007    0.6393 H   0  0  0  0  0  0  0  0  0  0  0  0
   -0.8914   -0.5001    0.7561 C   0  0  1  0  0  0  0  0  0  0  0  0
   -0.1798   -0.9461    1.4586 H   0  0  0  0  0  0  0  0  0  0  0  0
   -0.2431   -0.5442   -0.6558 C   0  0  0  0  0  0  0  0  0  0  0  0
   -0.0697    0.4752   -1.0179 H   0  0  0  0  0  0  0  0  0  0  0  0
    0.7415   -1.0093   -0.5448 H   0  0  0  0  0  0  0  0  0  0  0  0
   -0.9978   -1.3237   -1.7499 C   0  0  0  0  0  0  0  0  0  0  0  0
   -0.3142   -1.4905   -2.5888 H   0  0  0  0  0  0  0  0  0  0  0  0
   -1.2908   -2.3089   -1.3733 H   0  0  0  0  0  0  0  0  0  0  0  0
   -2.2259   -0.5598   -2.2714 C   0  0  0  0  0  0  0  0  0  0  0  0
   -2.9007   -0.3027   -1.4514 H   0  0  0  0  0  0  0  0  0  0  0  0
   -1.8996    0.3767   -2.7357 H   0  0  0  0  0  0  0  0  0  0  0  0
   -2.9826   -1.3970   -3.2976 C   0  0  0  0  0  0  0  0  0  0  0  0
   -2.3178   -1.6724   -4.1241 H   0  0  0  0  0  0  0  0  0  0  0  0
   -3.3460   -2.3196   -2.8314 H   0  0  0  0  0  0  0  0  0  0  0  0
   -4.1093   -0.6083   -3.8050 N   0  0  0  0  0  0  0  0  0  0  0  0
   -4.6765   -1.1477   -4.4589 H   0  0  0  0  0  0  0  0  0  0  0  0
   -4.6776   -0.2431   -3.0406 H   0  0  0  0  0  0  0  0  0  0  0  0
   -1.0957    0.9610    1.2069 C   0  0  0  0  0  0  0  0  0  0  0  0
   -2.1075    1.5683    0.8740 O   0  0  0  0  0  0  0  0  0  0  0  0
   -0.1884    1.5681    2.0559 N   0  0  0  0  0  0  0  0  0  0  0  0
    0.6090    1.0193    2.3644 H   0  0  0  0  0  0  0  0  0  0  0  0
   -0.3595    2.9190    2.5772 C   0  0  0  0  0  0  0  0  0  0  0  0
   -1.2711    2.9842    3.1806 H   0  0  0  0  0  0  0  0  0  0  0  0
    0.4928    3.1920    3.2069 H   0  0  0  0  0  0  0  0  0  0  0  0
   -0.4272    3.6413    1.7567 H   0  0  0  0  0  0  0  0  0  0  0  0
  1  2  1  0  0  0  0
  2  3  1  0  0  0  0
  2  4  1  0  0  0  0
  2  5  1  0  0  0  0
  5  6  2  0  0  0  0
  5  7  1  0  0  0  0
  7  8  1  0  0  0  0
  7  9  1  0  0  0  0
  9 10  1  0  0  0  0
  9 11  1  0  0  0  0
  9 26  1  0  0  0  0
 11 12  1  0  0  0  0
 11 13  1  0  0  0  0
 11 14  1  0  0  0  0
 14 15  1  0  0  0  0
 14 16  1  0  0  0  0
 14 17  1  0  0  0  0
 17 18  1  0  0  0  0
 17 19  1  0  0  0  0
 17 20  1  0  0  0  0
 20 21  1  0  0  0  0
 20 22  1  0  0  0  0
 20 23  1  0  0  0  0
 23 24  1  0  0  0  0
 23 25  1  0  0  0  0
 26 27  2  0  0  0  0
 26 28  1  0  0  0  0
 28 29  1  0  0  0  0
 28 30  1  0  0  0  0
 30 31  1  0  0  0  0
 30 32  1  0  0  0  0
 30 33  1  0  0  0  0
M  END
$$$$

  -OEChem-03222214063D

 33 32  0     1  0  0  0  0  0999 V2000
   -3.6554   -4.0796    2.0218 H   0  0  0  0  0  0  0  0  0  0  0  0
   -3.7094   -3.0990    1.5407 C   0  0  0  0  0  0  0  0  0  0  0  0
   -4.3392   -2.4436    2.1471 H   0  0  0  0  0  0  0  0  0  0  0  0
   -4.1611   -3.2153    0.5526 H   0  0  0  0  0  0  0  0  0  0  0  0
   -2.3202   -2.5044    1.4069 C   0  0  0  0  0  0  0  0  0  0  0  0
   -1.3468   -3.1353    1.7880 O   0  0  0  0  0  0  0  0  0  0  0  0
   -2.1639   -1.2539    0.8471 N   0  0  0  0  0  0  0  0  0  0  0  0
   -3.0076   -0.7302    0.6187 H   0  0  0  0  0  0  0  0  0  0  0  0
   -0.8885   -0.5270    0.7472 C   0  0  1  0  0  0  0  0  0  0  0  0
   -0.1774   -0.9574    1.4602 H   0  0  0  0  0  0  0  0  0  0  0  0
   -0.2362   -0.5795   -0.6625 C   0  0  0  0  0  0  0  0  0  0  0  0
   -0.0366    0.4342   -1.0274 H   0  0  0  0  0  0  0  0  0  0  0  0
    0.7394   -1.0607   -0.5391 H   0  0  0  0  0  0  0  0  0  0  0  0
   -0.9928   -1.3686   -1.7508 C   0  0  0  0  0  0  0  0  0  0  0  0
   -0.2591   -1.7418   -2.4731 H   0  0  0  0  0  0  0  0  0  0  0  0
   -1.4998   -2.2467   -1.3410 H   0  0  0  0  0  0  0  0  0  0  0  0
   -1.9708   -0.4571   -2.5025 C   0  0  0  0  0  0  0  0  0  0  0  0
   -2.6683   -0.0019   -1.7922 H   0  0  0  0  0  0  0  0  0  0  0  0
   -1.4180    0.3498   -2.9950 H   0  0  0  0  0  0  0  0  0  0  0  0
   -2.7557   -1.2420   -3.5482 C   0  0  0  0  0  0  0  0  0  0  0  0
   -2.0690   -1.7232   -4.2534 H   0  0  0  0  0  0  0  0  0  0  0  0
   -3.3481   -2.0246   -3.0616 H   0  0  0  0  0  0  0  0  0  0  0  0
   -3.6343   -0.3118   -4.2633 N   0  0  0  0  0  0  0  0  0  0  0  0
   -4.2154   -0.7987   -4.9454 H   0  0  0  0  0  0  0  0  0  0  0  0
   -4.2065    0.2270   -3.6126 H   0  0  0  0  0  0  0  0  0  0  0  0
   -1.1091    0.9402    1.1702 C   0  0  0  0  0  0  0  0  0  0  0  0
   -2.1200    1.5346    0.8113 O   0  0  0  0  0  0  0  0  0  0  0  0
   -0.2172    1.5700    2.0188 N   0  0  0  0  0  0  0  0  0  0  0  0
    0.5810    1.0336    2.3464 H   0  0  0  0  0  0  0  0  0  0  0  0
   -0.4064    2.9285    2.5130 C   0  0  0  0  0  0  0  0  0  0  0  0
   -1.3407    3.0038    3.0793 H   0  0  0  0  0  0  0  0  0  0  0  0
    0.4205    3.2100    3.1721 H   0  0  0  0  0  0  0  0  0  0  0  0
   -0.4413    3.6382    1.6797 H   0  0  0  0  0  0  0  0  0  0  0  0
  1  2  1  0  0  0  0
  2  3  1  0  0  0  0
  2  4  1  0  0  0  0
  2  5  1  0  0  0  0
  5  6  2  0  0  0  0
  5  7  1  0  0  0  0
  7  8  1  0  0  0  0
  7  9  1  0  0  0  0
  9 10  1  0  0  0  0
  9 11  1  0  0  0  0
  9 26  1  0  0  0  0
 11 12  1  0  0  0  0
 11 13  1  0  0  0  0
 11 14  1  0  0  0  0
 14 15  1  0  0  0  0
 14 16  1  0  0  0  0
 14 17  1  0  0  0  0
 17 18  1  0  0  0  0
 17 19  1  0  0  0  0
 17 20  1  0  0  0  0
 20 21  1  0  0  0  0
 20 22  1  0  0  0  0
 20 23  1  0  0  0  0
 23 24  1  0  0  0  0
 23 25  1  0  0  0  0
 26 27  2  0  0  0  0
 26 28  1  0  0  0  0
 28 29  1  0  0  0  0
 28 30  1  0  0  0  0
 30 31  1  0  0  0  0
 30 32  1  0  0  0  0
 30 33  1  0  0  0  0
M  END
$$$$

  -OEChem-03222214063D

 33 32  0     1  0  0  0  0  0999 V2000
   -3.6602   -4.0779    2.0818 H   0  0  0  0  0  0  0  0  0  0  0  0
   -3.7185   -3.1031    1.5896 C   0  0  0  0  0  0  0  0  0  0  0  0
   -4.3447   -2.4409    2.1926 H   0  0  0  0  0  0  0  0  0  0  0  0
   -4.1769   -3.2318    0.6062 H   0  0  0  0  0  0  0  0  0  0  0  0
   -2.3310   -2.5091    1.4383 C   0  0  0  0  0  0  0  0  0  0  0  0
   -1.3530   -3.1391    1.8088 O   0  0  0  0  0  0  0  0  0  0  0  0
   -2.1824   -1.2610    0.8712 N   0  0  0  0  0  0  0  0  0  0  0  0
   -3.0291   -0.7368    0.6555 H   0  0  0  0  0  0  0  0  0  0  0  0
   -0.9083   -0.5365    0.7506 C   0  0  1  0  0  0  0  0  0  0  0  0
   -0.1910   -0.9640    1.4587 H   0  0  0  0  0  0  0  0  0  0  0  0
   -0.2637   -0.5912   -0.6635 C   0  0  0  0  0  0  0  0  0  0  0  0
   -0.0614    0.4248   -1.0211 H   0  0  0  0  0  0  0  0  0  0  0  0
    0.7137   -1.0688   -0.5397 H   0  0  0  0  0  0  0  0  0  0  0  0
   -1.0098   -1.3805   -1.7651 C   0  0  0  0  0  0  0  0  0  0  0  0
   -0.2705   -1.9638   -2.3239 H   0  0  0  0  0  0  0  0  0  0  0  0
   -1.7254   -2.1005   -1.3627 H   0  0  0  0  0  0  0  0  0  0  0  0
   -1.6950   -0.4244   -2.7487 C   0  0  0  0  0  0  0  0  0  0  0  0
   -2.3892    0.2236   -2.2032 H   0  0  0  0  0  0  0  0  0  0  0  0
   -0.9447    0.2124   -3.2290 H   0  0  0  0  0  0  0  0  0  0  0  0
   -2.4587   -1.1968   -3.8195 C   0  0  0  0  0  0  0  0  0  0  0  0
   -1.7766   -1.8563   -4.3677 H   0  0  0  0  0  0  0  0  0  0  0  0
   -3.2324   -1.8172   -3.3537 H   0  0  0  0  0  0  0  0  0  0  0  0
   -3.0694   -0.2339   -4.7405 N   0  0  0  0  0  0  0  0  0  0  0  0
   -3.6218   -0.7053   -5.4565 H   0  0  0  0  0  0  0  0  0  0  0  0
   -3.6335    0.4494   -4.2346 H   0  0  0  0  0  0  0  0  0  0  0  0
   -1.1219    0.9322    1.1710 C   0  0  0  0  0  0  0  0  0  0  0  0
   -2.1329    1.5286    0.8160 O   0  0  0  0  0  0  0  0  0  0  0  0
   -0.2180    1.5646    2.0047 N   0  0  0  0  0  0  0  0  0  0  0  0
    0.5826    1.0279    2.3264 H   0  0  0  0  0  0  0  0  0  0  0  0
   -0.3921    2.9302    2.4844 C   0  0  0  0  0  0  0  0  0  0  0  0
   -1.3243    3.0212    3.0519 H   0  0  0  0  0  0  0  0  0  0  0  0
    0.4393    3.2106    3.1384 H   0  0  0  0  0  0  0  0  0  0  0  0
   -0.4220    3.6304    1.6429 H   0  0  0  0  0  0  0  0  0  0  0  0
  1  2  1  0  0  0  0
  2  3  1  0  0  0  0
  2  4  1  0  0  0  0
  2  5  1  0  0  0  0
  5  6  2  0  0  0  0
  5  7  1  0  0  0  0
  7  8  1  0  0  0  0
  7  9  1  0  0  0  0
  9 10  1  0  0  0  0
  9 11  1  0  0  0  0
  9 26  1  0  0  0  0
 11 12  1  0  0  0  0
 11 13  1  0  0  0  0
 11 14  1  0  0  0  0
 14 15  1  0  0  0  0
 14 16  1  0  0  0  0
 14 17  1  0  0  0  0
 17 18  1  0  0  0  0
 17 19  1  0  0  0  0
 17 20  1  0  0  0  0
 20 21  1  0  0  0  0
 20 22  1  0  0  0  0
 20 23  1  0  0  0  0
 23 24  1  0  0  0  0
 23 25  1  0  0  0  0
 26 27  2  0  0  0  0
 26 28  1  0  0  0  0
 28 29  1  0  0  0  0
 28 30  1  0  0  0  0
 30 31  1  0  0  0  0
 30 32  1  0  0  0  0
 30 33  1  0  0  0  0
M  END
$$$$

  -OEChem-03222214063D

 33 32  0     1  0  0  0  0  0999 V2000
   -3.6688   -4.0642    2.1396 H   0  0  0  0  0  0  0  0  0  0  0  0
   -3.7334   -3.0889    1.6492 C   0  0  0  0  0  0  0  0  0  0  0  0
   -4.3356   -2.4217    2.2709 H   0  0  0  0  0  0  0  0  0  0  0  0
   -4.2221   -3.2130    0.6798 H   0  0  0  0  0  0  0  0  0  0  0  0
   -2.3456   -2.5074    1.4569 C   0  0  0  0  0  0  0  0  0  0  0  0
   -1.3634   -3.1443    1.8038 O   0  0  0  0  0  0  0  0  0  0  0  0
   -2.2019   -1.2598    0.8873 N   0  0  0  0  0  0  0  0  0  0  0  0
   -3.0503   -0.7286    0.6964 H   0  0  0  0  0  0  0  0  0  0  0  0
   -0.9269   -0.5410    0.7449 C   0  0  1  0  0  0  0  0  0  0  0  0
   -0.2033   -0.9713    1.4451 H   0  0  0  0  0  0  0  0  0  0  0  0
   -0.2920   -0.6023   -0.6746 C   0  0  0  0  0  0  0  0  0  0  0  0
   -0.1118    0.4192   -1.0275 H   0  0  0  0  0  0  0  0  0  0  0  0
    0.6964   -1.0596   -0.5640 H   0  0  0  0  0  0  0  0  0  0  0  0
   -1.0361   -1.3912   -1.7818 C   0  0  0  0  0  0  0  0  0  0  0  0
   -0.3774   -2.1884   -2.1418 H   0  0  0  0  0  0  0  0  0  0  0  0
   -1.9445   -1.8761   -1.4218 H   0  0  0  0  0  0  0  0  0  0  0  0
   -1.3956   -0.4738   -2.9571 C   0  0  0  0  0  0  0  0  0  0  0  0
   -2.0359    0.3404   -2.6016 H   0  0  0  0  0  0  0  0  0  0  0  0
   -0.4836   -0.0317   -3.3719 H   0  0  0  0  0  0  0  0  0  0  0  0
   -2.1216   -1.2483   -4.0528 C   0  0  0  0  0  0  0  0  0  0  0  0
   -1.4891   -2.0654   -4.4172 H   0  0  0  0  0  0  0  0  0  0  0  0
   -3.0454   -1.6836   -3.6559 H   0  0  0  0  0  0  0  0  0  0  0  0
   -2.4283   -0.3260   -5.1502 N   0  0  0  0  0  0  0  0  0  0  0  0
   -2.9260   -0.7997   -5.9039 H   0  0  0  0  0  0  0  0  0  0  0  0
   -2.9568    0.4795   -4.8141 H   0  0  0  0  0  0  0  0  0  0  0  0
   -1.1281    0.9286    1.1694 C   0  0  0  0  0  0  0  0  0  0  0  0
   -2.1446    1.5275    0.8350 O   0  0  0  0  0  0  0  0  0  0  0  0
   -0.2078    1.5574    1.9879 N   0  0  0  0  0  0  0  0  0  0  0  0
    0.5981    1.0188    2.2927 H   0  0  0  0  0  0  0  0  0  0  0  0
   -0.3733    2.9201    2.4786 C   0  0  0  0  0  0  0  0  0  0  0  0
   -1.2900    3.0048    3.0717 H   0  0  0  0  0  0  0  0  0  0  0  0
    0.4747    3.2001    3.1107 H   0  0  0  0  0  0  0  0  0  0  0  0
   -0.4280    3.6247    1.6420 H   0  0  0  0  0  0  0  0  0  0  0  0
  1  2  1  0  0  0  0
  2  3  1  0  0  0  0
  2  4  1  0  0  0  0
  2  5  1  0  0  0  0
  5  6  2  0  0  0  0
  5  7  1  0  0  0  0
  7  8  1  0  0  0  0
  7  9  1  0  0  0  0
  9 10  1  0  0  0  0
  9 11  1  0  0  0  0
  9 26  1  0  0  0  0
 11 12  1  0  0  0  0
 11 13  1  0  0  0  0
 11 14  1  0  0  0  0
 14 15  1  0  0  0  0
 14 16  1  0  0  0  0
 14 17  1  0  0  0  0
 17 18  1  0  0  0  0
 17 19  1  0  0  0  0
 17 20  1  0  0  0  0
 20 21  1  0  0  0  0
 20 22  1  0  0  0  0
 20 23  1  0  0  0  0
 23 24  1  0  0  0  0
 23 25  1  0  0  0  0
 26 27  2  0  0  0  0
 26 28  1  0  0  0  0
 28 29  1  0  0  0  0
 28 30  1  0  0  0  0
 30 31  1  0  0  0  0
 30 32  1  0  0  0  0
 30 33  1  0  0  0  0
M  END
$$$$

  -OEChem-03222214063D

 33 32  0     1  0  0  0  0  0999 V2000
   -3.6826   -4.0534    2.1399 H   0  0  0  0  0  0  0  0  0  0  0  0
   -3.7474   -3.0856    1.6349 C   0  0  0  0  0  0  0  0  0  0  0  0
   -4.3571   -2.4118    2.2418 H   0  0  0  0  0  0  0  0  0  0  0  0
   -4.2275   -3.2258    0.6634 H   0  0  0  0  0  0  0  0  0  0  0  0
   -2.3603   -2.5014    1.4458 C   0  0  0  0  0  0  0  0  0  0  0  0
   -1.3778   -3.1405    1.7881 O   0  0  0  0  0  0  0  0  0  0  0  0
   -2.2169   -1.2504    0.8829 N   0  0  0  0  0  0  0  0  0  0  0  0
   -3.0652   -0.7171    0.6978 H   0  0  0  0  0  0  0  0  0  0  0  0
   -0.9404   -0.5337    0.7414 C   0  0  1  0  0  0  0  0  0  0  0  0
   -0.2190   -0.9707    1.4396 H   0  0  0  0  0  0  0  0  0  0  0  0
   -0.3062   -0.6016   -0.6778 C   0  0  0  0  0  0  0  0  0  0  0  0
   -0.1607    0.4246   -1.0333 H   0  0  0  0  0  0  0  0  0  0  0  0
    0.6945   -1.0350   -0.5827 H   0  0  0  0  0  0  0  0  0  0  0  0
   -1.0593   -1.3940   -1.7751 C   0  0  0  0  0  0  0  0  0  0  0  0
   -0.5690   -2.3623   -1.9202 H   0  0  0  0  0  0  0  0  0  0  0  0
   -2.0968   -1.5917   -1.4998 H   0  0  0  0  0  0  0  0  0  0  0  0
   -1.0898   -0.6069   -3.0916 C   0  0  0  0  0  0  0  0  0  0  0  0
   -1.6081    0.3455   -2.9384 H   0  0  0  0  0  0  0  0  0  0  0  0
   -0.0656   -0.3884   -3.4122 H   0  0  0  0  0  0  0  0  0  0  0  0
   -1.8006   -1.3987   -4.1854 C   0  0  0  0  0  0  0  0  0  0  0  0
   -1.2908   -2.3546   -4.3496 H   0  0  0  0  0  0  0  0  0  0  0  0
   -2.8328   -1.6112   -3.8854 H   0  0  0  0  0  0  0  0  0  0  0  0
   -1.7864   -0.6045   -5.4177 N   0  0  0  0  0  0  0  0  0  0  0  0
   -2.2636   -1.0902   -6.1772 H   0  0  0  0  0  0  0  0  0  0  0  0
   -2.1935    0.3180   -5.2627 H   0  0  0  0  0  0  0  0  0  0  0  0
   -1.1280    0.9353    1.1731 C   0  0  0  0  0  0  0  0  0  0  0  0
   -2.1386    1.5455    0.8416 O   0  0  0  0  0  0  0  0  0  0  0  0
   -0.1985    1.5515    1.9903 N   0  0  0  0  0  0  0  0  0  0  0  0
    0.6068    1.0058    2.2838 H   0  0  0  0  0  0  0  0  0  0  0  0
   -0.3373    2.9208    2.4707 C   0  0  0  0  0  0  0  0  0  0  0  0
   -1.2570    3.0306    3.0548 H   0  0  0  0  0  0  0  0  0  0  0  0
    0.5111    3.1857    3.1090 H   0  0  0  0  0  0  0  0  0  0  0  0
   -0.3681    3.6208    1.6291 H   0  0  0  0  0  0  0  0  0  0  0  0
  1  2  1  0  0  0  0
  2  3  1  0  0  0  0
  2  4  1  0  0  0  0
  2  5  1  0  0  0  0
  5  6  2  0  0  0  0
  5  7  1  0  0  0  0
  7  8  1  0  0  0  0
  7  9  1  0  0  0  0
  9 10  1  0  0  0  0
  9 11  1  0  0  0  0
  9 26  1  0  0  0  0
 11 12  1  0  0  0  0
 11 13  1  0  0  0  0
 11 14  1  0  0  0  0
 14 15  1  0  0  0  0
 14 16  1  0  0  0  0
 14 17  1  0  0  0  0
 17 18  1  0  0  0  0
 17 19  1  0  0  0  0
 17 20  1  0  0  0  0
 20 21  1  0  0  0  0
 20 22  1  0  0  0  0
 20 23  1  0  0  0  0
 23 24  1  0  0  0  0
 23 25  1  0  0  0  0
 26 27  2  0  0  0  0
 26 28  1  0  0  0  0
 28 29  1  0  0  0  0
 28 30  1  0  0  0  0
 30 31  1  0  0  0  0
 30 32  1  0  0  0  0
 30 33  1  0  0  0  0
M  END
$$$$

  -OEChem-03222214063D

 33 32  0     1  0  0  0  0  0999 V2000
   -3.7134   -4.0341    2.0816 H   0  0  0  0  0  0  0  0  0  0  0  0
   -3.7638   -3.0662    1.5751 C   0  0  0  0  0  0  0  0  0  0  0  0
   -4.3780   -2.3881    2.1724 H   0  0  0  0  0  0  0  0  0  0  0  0
   -4.2303   -3.2036    0.5966 H   0  0  0  0  0  0  0  0  0  0  0  0
   -2.3704   -2.4907    1.4071 C   0  0  0  0  0  0  0  0  0  0  0  0
   -1.3960   -3.1385    1.7559 O   0  0  0  0  0  0  0  0  0  0  0  0
   -2.2129   -1.2368    0.8550 N   0  0  0  0  0  0  0  0  0  0  0  0
   -3.0561   -0.6972    0.6656 H   0  0  0  0  0  0  0  0  0  0  0  0
   -0.9310   -0.5249    0.7346 C   0  0  1  0  0  0  0  0  0  0  0  0
   -0.2182   -0.9711    1.4359 H   0  0  0  0  0  0  0  0  0  0  0  0
   -0.2926   -0.5972   -0.6807 C   0  0  0  0  0  0  0  0  0  0  0  0
   -0.1553    0.4276   -1.0431 H   0  0  0  0  0  0  0  0  0  0  0  0
    0.7077   -1.0333   -0.5923 H   0  0  0  0  0  0  0  0  0  0  0  0
   -1.0670   -1.3877   -1.7578 C   0  0  0  0  0  0  0  0  0  0  0  0
   -0.7871   -2.4452   -1.7077 H   0  0  0  0  0  0  0  0  0  0  0  0
   -2.1458   -1.3155   -1.5961 H   0  0  0  0  0  0  0  0  0  0  0  0
   -0.7933   -0.8123   -3.1530 C   0  0  0  0  0  0  0  0  0  0  0  0
   -1.1258    0.2300   -3.1953 H   0  0  0  0  0  0  0  0  0  0  0  0
    0.2833   -0.8331   -3.3523 H   0  0  0  0  0  0  0  0  0  0  0  0
   -1.5180   -1.6189   -4.2257 C   0  0  0  0  0  0  0  0  0  0  0  0
   -1.1902   -2.6638   -4.1940 H   0  0  0  0  0  0  0  0  0  0  0  0
   -2.5987   -1.5951   -4.0475 H   0  0  0  0  0  0  0  0  0  0  0  0
   -1.2092   -1.0381   -5.5358 N   0  0  0  0  0  0  0  0  0  0  0  0
   -1.6667   -1.5553   -6.2865 H   0  0  0  0  0  0  0  0  0  0  0  0
   -1.4626   -0.0505   -5.5669 H   0  0  0  0  0  0  0  0  0  0  0  0
   -1.1127    0.9429    1.1730 C   0  0  0  0  0  0  0  0  0  0  0  0
   -2.1155    1.5613    0.8331 O   0  0  0  0  0  0  0  0  0  0  0  0
   -0.1894    1.5489    2.0049 N   0  0  0  0  0  0  0  0  0  0  0  0
    0.6127    0.9992    2.2997 H   0  0  0  0  0  0  0  0  0  0  0  0
   -0.3196    2.9203    2.4819 C   0  0  0  0  0  0  0  0  0  0  0  0
   -1.2451    3.0418    3.0547 H   0  0  0  0  0  0  0  0  0  0  0  0
    0.5237    3.1770    3.1304 H   0  0  0  0  0  0  0  0  0  0  0  0
   -0.3322    3.6182    1.6381 H   0  0  0  0  0  0  0  0  0  0  0  0
  1  2  1  0  0  0  0
  2  3  1  0  0  0  0
  2  4  1  0  0  0  0
  2  5  1  0  0  0  0
  5  6  2  0  0  0  0
  5  7  1  0  0  0  0
  7  8  1  0  0  0  0
  7  9  1  0  0  0  0
  9 10  1  0  0  0  0
  9 11  1  0  0  0  0
  9 26  1  0  0  0  0
 11 12  1  0  0  0  0
 11 13  1  0  0  0  0
 11 14  1  0  0  0  0
 14 15  1  0  0  0  0
 14 16  1  0  0  0  0
 14 17  1  0  0  0  0
 17 18  1  0  0  0  0
 17 19  1  0  0  0  0
 17 20  1  0  0  0  0
 20 21  1  0  0  0  0
 20 22  1  0  0  0  0
 20 23  1  0  0  0  0
 23 24  1  0  0  0  0
 23 25  1  0  0  0  0
 26 27  2  0  0  0  0
 26 28  1  0  0  0  0
 28 29  1  0  0  0  0
 28 30  1  0  0  0  0
 30 31  1  0  0  0  0
 30 32  1  0  0  0  0
 30 33  1  0  0  0  0
M  END
$$$$

  -OEChem-03222214063D

 33 32  0     1  0  0  0  0  0999 V2000
   -3.7408   -4.0178    2.0166 H   0  0  0  0  0  0  0  0  0  0  0  0
   -3.7778   -3.0465    1.5153 C   0  0  0  0  0  0  0  0  0  0  0  0
   -4.3955   -2.3681    2.1087 H   0  0  0  0  0  0  0  0  0  0  0  0
   -4.2323   -3.1749    0.5300 H   0  0  0  0  0  0  0  0  0  0  0  0
   -2.3785   -2.4791    1.3689 C   0  0  0  0  0  0  0  0  0  0  0  0
   -1.4137   -3.1315    1.7349 O   0  0  0  0  0  0  0  0  0  0  0  0
   -2.2054   -1.2247    0.8227 N   0  0  0  0  0  0  0  0  0  0  0  0
   -3.0425   -0.6815    0.6178 H   0  0  0  0  0  0  0  0  0  0  0  0
   -0.9178   -0.5178    0.7288 C   0  0  1  0  0  0  0  0  0  0  0  0
   -0.2166   -0.9704    1.4375 H   0  0  0  0  0  0  0  0  0  0  0  0
   -0.2684   -0.5921   -0.6797 C   0  0  0  0  0  0  0  0  0  0  0  0
   -0.1207    0.4278   -1.0525 H   0  0  0  0  0  0  0  0  0  0  0  0
    0.7243   -1.0436   -0.5840 H   0  0  0  0  0  0  0  0  0  0  0  0
   -1.0593   -1.3795   -1.7405 C   0  0  0  0  0  0  0  0  0  0  0  0
   -0.9940   -2.4516   -1.5265 H   0  0  0  0  0  0  0  0  0  0  0  0
   -2.1141   -1.0875   -1.7163 H   0  0  0  0  0  0  0  0  0  0  0  0
   -0.5238   -1.0788   -3.1451 C   0  0  0  0  0  0  0  0  0  0  0  0
   -0.6321   -0.0111   -3.3616 H   0  0  0  0  0  0  0  0  0  0  0  0
    0.5415   -1.3274   -3.1928 H   0  0  0  0  0  0  0  0  0  0  0  0
   -1.2766   -1.8884   -4.1963 C   0  0  0  0  0  0  0  0  0  0  0  0
   -1.1699   -2.9596   -3.9918 H   0  0  0  0  0  0  0  0  0  0  0  0
   -2.3434   -1.6408   -4.1677 H   0  0  0  0  0  0  0  0  0  0  0  0
   -0.7201   -1.5734   -5.5153 N   0  0  0  0  0  0  0  0  0  0  0  0
   -1.1897   -2.1016   -6.2506 H   0  0  0  0  0  0  0  0  0  0  0  0
   -0.7642   -0.5715   -5.7016 H   0  0  0  0  0  0  0  0  0  0  0  0
   -1.0967    0.9504    1.1660 C   0  0  0  0  0  0  0  0  0  0  0  0
   -2.0874    1.5773    0.8068 O   0  0  0  0  0  0  0  0  0  0  0  0
   -0.1845    1.5482    2.0160 N   0  0  0  0  0  0  0  0  0  0  0  0
    0.6045    0.9901    2.3300 H   0  0  0  0  0  0  0  0  0  0  0  0
   -0.3138    2.9198    2.4923 C   0  0  0  0  0  0  0  0  0  0  0  0
   -1.2451    3.0443    3.0546 H   0  0  0  0  0  0  0  0  0  0  0  0
    0.5235    3.1723    3.1498 H   0  0  0  0  0  0  0  0  0  0  0  0
   -0.3141    3.6190    1.6495 H   0  0  0  0  0  0  0  0  0  0  0  0
  1  2  1  0  0  0  0
  2  3  1  0  0  0  0
  2  4  1  0  0  0  0
  2  5  1  0  0  0  0
  5  6  2  0  0  0  0
  5  7  1  0  0  0  0
  7  8  1  0  0  0  0
  7  9  1  0  0  0  0
  9 10  1  0  0  0  0
  9 11  1  0  0  0  0
  9 26  1  0  0  0  0
 11 12  1  0  0  0  0
 11 13  1  0  0  0  0
 11 14  1  0  0  0  0
 14 15  1  0  0  0  0
 14 16  1  0  0  0  0
 14 17  1  0  0  0  0
 17 18  1  0  0  0  0
 17 19  1  0  0  0  0
 17 20  1  0  0  0  0
 20 21  1  0  0  0  0
 20 22  1  0  0  0  0
 20 23  1  0  0  0  0
 23 24  1  0  0  0  0
 23 25  1  0  0  0  0
 26 27  2  0  0  0  0
 26 28  1  0  0  0  0
 28 29  1  0  0  0  0
 28 30  1  0  0  0  0
 30 31  1  0  0  0  0
 30 32  1  0  0  0  0
 30 33  1  0  0  0  0
M  END
$$$$

  -OEChem-03222214063D

 33 32  0     1  0  0  0  0  0999 V2000
   -3.7391   -4.0218    1.9562 H   0  0  0  0  0  0  0  0  0  0  0  0
   -3.7656   -3.0450    1.4653 C   0  0  0  0  0  0  0  0  0  0  0  0
   -4.3982   -2.3735    2.0510 H   0  0  0  0  0  0  0  0  0  0  0  0
   -4.1960   -3.1635    0.4680 H   0  0  0  0  0  0  0  0  0  0  0  0
   -2.3638   -2.4752    1.3590 C   0  0  0  0  0  0  0  0  0  0  0  0
   -1.4101   -3.1198    1.7659 O   0  0  0  0  0  0  0  0  0  0  0  0
   -2.1749   -1.2275    0.8034 N   0  0  0  0  0  0  0  0  0  0  0  0
   -3.0049   -0.6857    0.5678 H   0  0  0  0  0  0  0  0  0  0  0  0
   -0.8823   -0.5281    0.7281 C   0  0  1  0  0  0  0  0  0  0  0  0
   -0.1820   -0.9720    1.4431 H   0  0  0  0  0  0  0  0  0  0  0  0
   -0.2364   -0.5924   -0.6797 C   0  0  0  0  0  0  0  0  0  0  0  0
    0.1985    0.3808   -0.9329 H   0  0  0  0  0  0  0  0  0  0  0  0
    0.5884   -1.3110   -0.6354 H   0  0  0  0  0  0  0  0  0  0  0  0
   -1.1814   -1.0313   -1.8108 C   0  0  0  0  0  0  0  0  0  0  0  0
   -1.5716   -2.0333   -1.6031 H   0  0  0  0  0  0  0  0  0  0  0  0
   -2.0269   -0.3375   -1.8708 H   0  0  0  0  0  0  0  0  0  0  0  0
   -0.4396   -1.0579   -3.1514 C   0  0  0  0  0  0  0  0  0  0  0  0
   -0.0499   -0.0598   -3.3760 H   0  0  0  0  0  0  0  0  0  0  0  0
    0.4093   -1.7469   -3.0903 H   0  0  0  0  0  0  0  0  0  0  0  0
   -1.3707   -1.5048   -4.2740 C   0  0  0  0  0  0  0  0  0  0  0  0
   -1.7558   -2.5090   -4.0641 H   0  0  0  0  0  0  0  0  0  0  0  0
   -2.2240   -0.8216   -4.3482 H   0  0  0  0  0  0  0  0  0  0  0  0
   -0.6174   -1.5111   -5.5315 N   0  0  0  0  0  0  0  0  0  0  0  0
   -1.2009   -1.8160   -6.3105 H   0  0  0  0  0  0  0  0  0  0  0  0
   -0.2101   -0.5949   -5.7185 H   0  0  0  0  0  0  0  0  0  0  0  0
   -1.0789    0.9421    1.1494 C   0  0  0  0  0  0  0  0  0  0  0  0
   -2.0632    1.5624    0.7616 O   0  0  0  0  0  0  0  0  0  0  0  0
   -0.1889    1.5506    2.0152 N   0  0  0  0  0  0  0  0  0  0  0  0
    0.5945    0.9980    2.3523 H   0  0  0  0  0  0  0  0  0  0  0  0
   -0.3459    2.9188    2.4926 C   0  0  0  0  0  0  0  0  0  0  0  0
   -1.2907    3.0292    3.0353 H   0  0  0  0  0  0  0  0  0  0  0  0
    0.4734    3.1800    3.1690 H   0  0  0  0  0  0  0  0  0  0  0  0
   -0.3370    3.6205    1.6520 H   0  0  0  0  0  0  0  0  0  0  0  0
  1  2  1  0  0  0  0
  2  3  1  0  0  0  0
  2  4  1  0  0  0  0
  2  5  1  0  0  0  0
  5  6  2  0  0  0  0
  5  7  1  0  0  0  0
  7  8  1  0  0  0  0
  7  9  1  0  0  0  0
  9 10  1  0  0  0  0
  9 11  1  0  0  0  0
  9 26  1  0  0  0  0
 11 12  1  0  0  0  0
 11 13  1  0  0  0  0
 11 14  1  0  0  0  0
 14 15  1  0  0  0  0
 14 16  1  0  0  0  0
 14 17  1  0  0  0  0
 17 18  1  0  0  0  0
 17 19  1  0  0  0  0
 17 20  1  0  0  0  0
 20 21  1  0  0  0  0
 20 22  1  0  0  0  0
 20 23  1  0  0  0  0
 23 24  1  0  0  0  0
 23 25  1  0  0  0  0
 26 27  2  0  0  0  0
 26 28  1  0  0  0  0
 28 29  1  0  0  0  0
 28 30  1  0  0  0  0
 30 31  1  0  0  0  0
 30 32  1  0  0  0  0
 30 33  1  0  0  0  0
M  END
$$$$

  -OEChem-03222214063D

 33 32  0     1  0  0  0  0  0999 V2000
   -3.7636   -4.0000    2.0339 H   0  0  0  0  0  0  0  0  0  0  0  0
   -3.7906   -3.0289    1.5317 C   0  0  0  0  0  0  0  0  0  0  0  0
   -4.4051   -2.3440    2.1210 H   0  0  0  0  0  0  0  0  0  0  0  0
   -4.2416   -3.1544    0.5444 H   0  0  0  0  0  0  0  0  0  0  0  0
   -2.3860   -2.4735    1.3920 C   0  0  0  0  0  0  0  0  0  0  0  0
   -1.4310   -3.1215    1.7902 O   0  0  0  0  0  0  0  0  0  0  0  0
   -2.1971   -1.2303    0.8261 N   0  0  0  0  0  0  0  0  0  0  0  0
   -3.0271   -0.6861    0.5960 H   0  0  0  0  0  0  0  0  0  0  0  0
   -0.9019   -0.5389    0.7327 C   0  0  1  0  0  0  0  0  0  0  0  0
   -0.1993   -0.9808    1.4470 H   0  0  0  0  0  0  0  0  0  0  0  0
   -0.2581   -0.6064   -0.6773 C   0  0  0  0  0  0  0  0  0  0  0  0
    0.1980    0.3565   -0.9321 H   0  0  0  0  0  0  0  0  0  0  0  0
    0.5550   -1.3372   -0.6149 H   0  0  0  0  0  0  0  0  0  0  0  0
   -1.1867   -1.0422   -1.8268 C   0  0  0  0  0  0  0  0  0  0  0  0
   -1.7678   -1.9233   -1.5388 H   0  0  0  0  0  0  0  0  0  0  0  0
   -1.8856   -0.2319   -2.0593 H   0  0  0  0  0  0  0  0  0  0  0  0
   -0.3656   -1.4191   -3.0655 C   0  0  0  0  0  0  0  0  0  0  0  0
    0.2463   -0.5648   -3.3728 H   0  0  0  0  0  0  0  0  0  0  0  0
    0.3071   -2.2495   -2.8260 H   0  0  0  0  0  0  0  0  0  0  0  0
   -1.2789   -1.8288   -4.2167 C   0  0  0  0  0  0  0  0  0  0  0  0
   -1.8838   -2.6949   -3.9259 H   0  0  0  0  0  0  0  0  0  0  0  0
   -1.9591   -1.0072   -4.4670 H   0  0  0  0  0  0  0  0  0  0  0  0
   -0.4470   -2.1654   -5.3759 N   0  0  0  0  0  0  0  0  0  0  0  0
   -1.0180   -2.4544   -6.1701 H   0  0  0  0  0  0  0  0  0  0  0  0
    0.1608   -1.3865   -5.6289 H   0  0  0  0  0  0  0  0  0  0  0  0
   -1.0887    0.9348    1.1471 C   0  0  0  0  0  0  0  0  0  0  0  0
   -2.0731    1.5586    0.7651 O   0  0  0  0  0  0  0  0  0  0  0  0
   -0.1866    1.5432    2.0004 N   0  0  0  0  0  0  0  0  0  0  0  0
    0.5920    0.9849    2.3391 H   0  0  0  0  0  0  0  0  0  0  0  0
   -0.3310    2.9141    2.4740 C   0  0  0  0  0  0  0  0  0  0  0  0
   -1.2618    3.0284    3.0393 H   0  0  0  0  0  0  0  0  0  0  0  0
    0.5054    3.1782    3.1284 H   0  0  0  0  0  0  0  0  0  0  0  0
   -0.3431    3.6114    1.6297 H   0  0  0  0  0  0  0  0  0  0  0  0
  1  2  1  0  0  0  0
  2  3  1  0  0  0  0
  2  4  1  0  0  0  0
  2  5  1  0  0  0  0
  5  6  2  0  0  0  0
  5  7  1  0  0  0  0
  7  8  1  0  0  0  0
  7  9  1  0  0  0  0
  9 10  1  0  0  0  0
  9 11  1  0  0  0  0
  9 26  1  0  0  0  0
 11 12  1  0  0  0  0
 11 13  1  0  0  0  0
 11 14  1  0  0  0  0
 14 15  1  0  0  0  0
 14 16  1  0  0  0  0
 14 17  1  0  0  0  0
 17 18  1  0  0  0  0
 17 19  1  0  0  0  0
 17 20  1  0  0  0  0
 20 21  1  0  0  0  0
 20 22  1  0  0  0  0
 20 23  1  0  0  0  0
 23 24  1  0  0  0  0
 23 25  1  0  0  0  0
 26 27  2  0  0  0  0
 26 28  1  0  0  0  0
 28 29  1  0  0  0  0
 28 30  1  0  0  0  0
 30 31  1  0  0  0  0
 30 32  1  0  0  0  0
 30 33  1  0  0  0  0
M  END
$$$$

  -OEChem-03222214063D

 33 32  0     1  0  0  0  0  0999 V2000
   -3.7875   -3.9851    2.0743 H   0  0  0  0  0  0  0  0  0  0  0  0
   -3.8116   -3.0162    1.5680 C   0  0  0  0  0  0  0  0  0  0  0  0
   -4.4295   -2.3288    2.1510 H   0  0  0  0  0  0  0  0  0  0  0  0
   -4.2569   -3.1466    0.5789 H   0  0  0  0  0  0  0  0  0  0  0  0
   -2.4061   -2.4622    1.4319 C   0  0  0  0  0  0  0  0  0  0  0  0
   -1.4528   -3.1083    1.8374 O   0  0  0  0  0  0  0  0  0  0  0  0
   -2.2139   -1.2237    0.8569 N   0  0  0  0  0  0  0  0  0  0  0  0
   -3.0420   -0.6794    0.6205 H   0  0  0  0  0  0  0  0  0  0  0  0
   -0.9155   -0.5421    0.7456 C   0  0  1  0  0  0  0  0  0  0  0  0
   -0.2105   -0.9837    1.4578 H   0  0  0  0  0  0  0  0  0  0  0  0
   -0.2751   -0.6160   -0.6676 C   0  0  0  0  0  0  0  0  0  0  0  0
    0.1978    0.3386   -0.9226 H   0  0  0  0  0  0  0  0  0  0  0  0
    0.5318   -1.3525   -0.5896 H   0  0  0  0  0  0  0  0  0  0  0  0
   -1.1875   -1.0487   -1.8377 C   0  0  0  0  0  0  0  0  0  0  0  0
   -1.9567   -1.7502   -1.5064 H   0  0  0  0  0  0  0  0  0  0  0  0
   -1.6927   -0.1680   -2.2480 H   0  0  0  0  0  0  0  0  0  0  0  0
   -0.3758   -1.7679   -2.9224 C   0  0  0  0  0  0  0  0  0  0  0  0
    0.4298   -1.1134   -3.2707 H   0  0  0  0  0  0  0  0  0  0  0  0
    0.0792   -2.6732   -2.5064 H   0  0  0  0  0  0  0  0  0  0  0  0
   -1.2656   -2.1495   -4.1020 C   0  0  0  0  0  0  0  0  0  0  0  0
   -2.0640   -2.8217   -3.7684 H   0  0  0  0  0  0  0  0  0  0  0  0
   -1.7312   -1.2531   -4.5264 H   0  0  0  0  0  0  0  0  0  0  0  0
   -0.4405   -2.8167   -5.1135 N   0  0  0  0  0  0  0  0  0  0  0  0
   -0.9972   -3.0933   -5.9220 H   0  0  0  0  0  0  0  0  0  0  0  0
    0.3425   -2.2269   -5.3949 H   0  0  0  0  0  0  0  0  0  0  0  0
   -1.0905    0.9350    1.1538 C   0  0  0  0  0  0  0  0  0  0  0  0
   -2.0725    1.5635    0.7734 O   0  0  0  0  0  0  0  0  0  0  0  0
   -0.1768    1.5434    1.9945 N   0  0  0  0  0  0  0  0  0  0  0  0
    0.5950    0.9788    2.3379 H   0  0  0  0  0  0  0  0  0  0  0  0
   -0.3142    2.9147    2.4693 C   0  0  0  0  0  0  0  0  0  0  0  0
   -1.2407    3.0315    3.0411 H   0  0  0  0  0  0  0  0  0  0  0  0
    0.5275    3.1763    3.1175 H   0  0  0  0  0  0  0  0  0  0  0  0
   -0.3302    3.6127    1.6256 H   0  0  0  0  0  0  0  0  0  0  0  0
  1  2  1  0  0  0  0
  2  3  1  0  0  0  0
  2  4  1  0  0  0  0
  2  5  1  0  0  0  0
  5  6  2  0  0  0  0
  5  7  1  0  0  0  0
  7  8  1  0  0  0  0
  7  9  1  0  0  0  0
  9 10  1  0  0  0  0
  9 11  1  0  0  0  0
  9 26  1  0  0  0  0
 11 12  1  0  0  0  0
 11 13  1  0  0  0  0
 11 14  1  0  0  0  0
 14 15  1  0  0  0  0
 14 16  1  0  0  0  0
 14 17  1  0  0  0  0
 17 18  1  0  0  0  0
 17 19  1  0  0  0  0
 17 20  1  0  0  0  0
 20 21  1  0  0  0  0
 20 22  1  0  0  0  0
 20 23  1  0  0  0  0
 23 24  1  0  0  0  0
 23 25  1  0  0  0  0
 26 27  2  0  0  0  0
 26 28  1  0  0  0  0
 28 29  1  0  0  0  0
 28 30  1  0  0  0  0
 30 31  1  0  0  0  0
 30 32  1  0  0  0  0
 30 33  1  0  0  0  0
M  END
$$$$

  -OEChem-03222214063D

 33 32  0     1  0  0  0  0  0999 V2000
   -3.8054   -3.9699    2.1087 H   0  0  0  0  0  0  0  0  0  0  0  0
   -3.8275   -3.0049    1.5945 C   0  0  0  0  0  0  0  0  0  0  0  0
   -4.4445   -2.3124    2.1723 H   0  0  0  0  0  0  0  0  0  0  0  0
   -4.2730   -3.1422    0.6063 H   0  0  0  0  0  0  0  0  0  0  0  0
   -2.4212   -2.4541    1.4539 C   0  0  0  0  0  0  0  0  0  0  0  0
   -1.4690   -3.1009    1.8607 O   0  0  0  0  0  0  0  0  0  0  0  0
   -2.2271   -1.2171    0.8761 N   0  0  0  0  0  0  0  0  0  0  0  0
   -3.0539   -0.6707    0.6403 H   0  0  0  0  0  0  0  0  0  0  0  0
   -0.9266   -0.5417    0.7574 C   0  0  1  0  0  0  0  0  0  0  0  0
   -0.2220   -0.9856    1.4686 H   0  0  0  0  0  0  0  0  0  0  0  0
   -0.2853   -0.6181   -0.6562 C   0  0  0  0  0  0  0  0  0  0  0  0
    0.1862    0.3385   -0.9069 H   0  0  0  0  0  0  0  0  0  0  0  0
    0.5283   -1.3464   -0.5732 H   0  0  0  0  0  0  0  0  0  0  0  0
   -1.1833   -1.0465   -1.8433 C   0  0  0  0  0  0  0  0  0  0  0  0
   -2.1197   -1.5001   -1.5141 H   0  0  0  0  0  0  0  0  0  0  0  0
   -1.4452   -0.1574   -2.4264 H   0  0  0  0  0  0  0  0  0  0  0  0
   -0.4661   -2.0710   -2.7318 C   0  0  0  0  0  0  0  0  0  0  0  0
    0.4848   -1.6539   -3.0781 H   0  0  0  0  0  0  0  0  0  0  0  0
   -0.2487   -2.9738   -2.1510 H   0  0  0  0  0  0  0  0  0  0  0  0
   -1.3256   -2.4438   -3.9362 C   0  0  0  0  0  0  0  0  0  0  0  0
   -2.2742   -2.8777   -3.6007 H   0  0  0  0  0  0  0  0  0  0  0  0
   -1.5510   -1.5495   -4.5279 H   0  0  0  0  0  0  0  0  0  0  0  0
   -0.5919   -3.4166   -4.7512 N   0  0  0  0  0  0  0  0  0  0  0  0
   -1.1306   -3.6933   -5.5718 H   0  0  0  0  0  0  0  0  0  0  0  0
    0.3224   -3.0536   -5.0206 H   0  0  0  0  0  0  0  0  0  0  0  0
   -1.0924    0.9363    1.1643 C   0  0  0  0  0  0  0  0  0  0  0  0
   -2.0701    1.5708    0.7833 O   0  0  0  0  0  0  0  0  0  0  0  0
   -0.1714    1.5411    1.9996 N   0  0  0  0  0  0  0  0  0  0  0  0
    0.5948    0.9711    2.3470 H   0  0  0  0  0  0  0  0  0  0  0  0
   -0.3010    2.9135    2.4732 C   0  0  0  0  0  0  0  0  0  0  0  0
   -1.2208    3.0323    3.0554 H   0  0  0  0  0  0  0  0  0  0  0  0
    0.5485    3.1753    3.1113 H   0  0  0  0  0  0  0  0  0  0  0  0
   -0.3256    3.6099    1.6285 H   0  0  0  0  0  0  0  0  0  0  0  0
  1  2  1  0  0  0  0
  2  3  1  0  0  0  0
  2  4  1  0  0  0  0
  2  5  1  0  0  0  0
  5  6  2  0  0  0  0
  5  7  1  0  0  0  0
  7  8  1  0  0  0  0
  7  9  1  0  0  0  0
  9 10  1  0  0  0  0
  9 11  1  0  0  0  0
  9 26  1  0  0  0  0
 11 12  1  0  0  0  0
 11 13  1  0  0  0  0
 11 14  1  0  0  0  0
 14 15  1  0  0  0  0
 14 16  1  0  0  0  0
 14 17  1  0  0  0  0
 17 18  1  0  0  0  0
 17 19  1  0  0  0  0
 17 20  1  0  0  0  0
 20 21  1  0  0  0  0
 20 22  1  0  0  0  0
 20 23  1  0  0  0  0
 23 24  1  0  0  0  0
 23 25  1  0  0  0  0
 26 27  2  0  0  0  0
 26 28  1  0  0  0  0
 28 29  1  0  0  0  0
 28 30  1  0  0  0  0
 30 31  1  0  0  0  0
 30 32  1  0  0  0  0
 30 33  1  0  0  0  0
M  END
$$$$

  -OEChem-03222214063D

 33 32  0     1  0  0  0  0  0999 V2000
   -3.7945   -3.9807    2.0282 H   0  0  0  0  0  0  0  0  0  0  0  0
   -3.8114   -3.0144    1.5163 C   0  0  0  0  0  0  0  0  0  0  0  0
   -4.4602   -2.3328    2.0715 H   0  0  0  0  0  0  0  0  0  0  0  0
   -4.2164   -3.1556    0.5112 H   0  0  0  0  0  0  0  0  0  0  0  0
   -2.4088   -2.4426    1.4324 C   0  0  0  0  0  0  0  0  0  0  0  0
   -1.4630   -3.0789    1.8701 O   0  0  0  0  0  0  0  0  0  0  0  0
   -2.2109   -1.2011    0.8657 N   0  0  0  0  0  0  0  0  0  0  0  0
   -3.0352   -0.6642    0.6015 H   0  0  0  0  0  0  0  0  0  0  0  0
   -0.9108   -0.5216    0.7681 C   0  0  1  0  0  0  0  0  0  0  0  0
   -0.2133   -0.9673    1.4846 H   0  0  0  0  0  0  0  0  0  0  0  0
   -0.2589   -0.6021   -0.6406 C   0  0  0  0  0  0  0  0  0  0  0  0
    0.1884    0.3669   -0.8879 H   0  0  0  0  0  0  0  0  0  0  0  0
    0.5739   -1.3090   -0.5616 H   0  0  0  0  0  0  0  0  0  0  0  0
   -1.1548   -1.0349   -1.8295 C   0  0  0  0  0  0  0  0  0  0  0  0
   -2.1970   -1.1854   -1.5418 H   0  0  0  0  0  0  0  0  0  0  0  0
   -1.1545   -0.2261   -2.5678 H   0  0  0  0  0  0  0  0  0  0  0  0
   -0.6241   -2.3112   -2.4946 C   0  0  0  0  0  0  0  0  0  0  0  0
    0.4036   -2.1503   -2.8357 H   0  0  0  0  0  0  0  0  0  0  0  0
   -0.6157   -3.1267   -1.7633 H   0  0  0  0  0  0  0  0  0  0  0  0
   -1.4974   -2.7084   -3.6812 C   0  0  0  0  0  0  0  0  0  0  0  0
   -2.5283   -2.8741   -3.3492 H   0  0  0  0  0  0  0  0  0  0  0  0
   -1.5047   -1.9054   -4.4265 H   0  0  0  0  0  0  0  0  0  0  0  0
   -0.9594   -3.9385   -4.2696 N   0  0  0  0  0  0  0  0  0  0  0  0
   -1.5077   -4.2335   -5.0772 H   0  0  0  0  0  0  0  0  0  0  0  0
    0.0238   -3.8275   -4.5170 H   0  0  0  0  0  0  0  0  0  0  0  0
   -1.0834    0.9539    1.1826 C   0  0  0  0  0  0  0  0  0  0  0  0
   -2.0535    1.5919    0.7882 O   0  0  0  0  0  0  0  0  0  0  0  0
   -0.1736    1.5546    2.0333 N   0  0  0  0  0  0  0  0  0  0  0  0
    0.5872    0.9823    2.3886 H   0  0  0  0  0  0  0  0  0  0  0  0
   -0.3065    2.9261    2.5088 C   0  0  0  0  0  0  0  0  0  0  0  0
   -1.2388    3.0491    3.0699 H   0  0  0  0  0  0  0  0  0  0  0  0
    0.5294    3.1806    3.1675 H   0  0  0  0  0  0  0  0  0  0  0  0
   -0.3069    3.6250    1.6657 H   0  0  0  0  0  0  0  0  0  0  0  0
  1  2  1  0  0  0  0
  2  3  1  0  0  0  0
  2  4  1  0  0  0  0
  2  5  1  0  0  0  0
  5  6  2  0  0  0  0
  5  7  1  0  0  0  0
  7  8  1  0  0  0  0
  7  9  1  0  0  0  0
  9 10  1  0  0  0  0
  9 11  1  0  0  0  0
  9 26  1  0  0  0  0
 11 12  1  0  0  0  0
 11 13  1  0  0  0  0
 11 14  1  0  0  0  0
 14 15  1  0  0  0  0
 14 16  1  0  0  0  0
 14 17  1  0  0  0  0
 17 18  1  0  0  0  0
 17 19  1  0  0  0  0
 17 20  1  0  0  0  0
 20 21  1  0  0  0  0
 20 22  1  0  0  0  0
 20 23  1  0  0  0  0
 23 24  1  0  0  0  0
 23 25  1  0  0  0  0
 26 27  2  0  0  0  0
 26 28  1  0  0  0  0
 28 29  1  0  0  0  0
 28 30  1  0  0  0  0
 30 31  1  0  0  0  0
 30 32  1  0  0  0  0
 30 33  1  0  0  0  0
M  END
$$$$

  -OEChem-03222214063D

 33 32  0     1  0  0  0  0  0999 V2000
   -3.7698   -3.9985    1.9496 H   0  0  0  0  0  0  0  0  0  0  0  0
   -3.7803   -3.0333    1.4354 C   0  0  0  0  0  0  0  0  0  0  0  0
   -4.4594   -2.3597    1.9637 H   0  0  0  0  0  0  0  0  0  0  0  0
   -4.1435   -3.1813    0.4155 H   0  0  0  0  0  0  0  0  0  0  0  0
   -2.3839   -2.4423    1.4037 C   0  0  0  0  0  0  0  0  0  0  0  0
   -1.4466   -3.0645    1.8785 O   0  0  0  0  0  0  0  0  0  0  0  0
   -2.1812   -1.1989    0.8427 N   0  0  0  0  0  0  0  0  0  0  0  0
   -3.0013   -0.6753    0.5426 H   0  0  0  0  0  0  0  0  0  0  0  0
   -0.8827   -0.5114    0.7740 C   0  0  1  0  0  0  0  0  0  0  0  0
   -0.1933   -0.9558    1.4992 H   0  0  0  0  0  0  0  0  0  0  0  0
   -0.2166   -0.5898   -0.6273 C   0  0  0  0  0  0  0  0  0  0  0  0
    0.2072    0.3902   -0.8722 H   0  0  0  0  0  0  0  0  0  0  0  0
    0.6305   -1.2803   -0.5587 H   0  0  0  0  0  0  0  0  0  0  0  0
   -1.1193   -1.0253   -1.8052 C   0  0  0  0  0  0  0  0  0  0  0  0
   -2.1811   -0.8830   -1.5880 H   0  0  0  0  0  0  0  0  0  0  0  0
   -0.8935   -0.3756   -2.6572 H   0  0  0  0  0  0  0  0  0  0  0  0
   -0.8353   -2.4710   -2.2318 C   0  0  0  0  0  0  0  0  0  0  0  0
    0.2138   -2.5732   -2.5274 H   0  0  0  0  0  0  0  0  0  0  0  0
   -1.0157   -3.1415   -1.3847 H   0  0  0  0  0  0  0  0  0  0  0  0
   -1.7338   -2.8769   -3.3966 C   0  0  0  0  0  0  0  0  0  0  0  0
   -2.7867   -2.7507   -3.1206 H   0  0  0  0  0  0  0  0  0  0  0  0
   -1.5311   -2.2399   -4.2646 H   0  0  0  0  0  0  0  0  0  0  0  0
   -1.4723   -4.2809   -3.7270 N   0  0  0  0  0  0  0  0  0  0  0  0
   -2.0355   -4.5862   -4.5206 H   0  0  0  0  0  0  0  0  0  0  0  0
   -0.4799   -4.4382   -3.9020 H   0  0  0  0  0  0  0  0  0  0  0  0
   -1.0712    0.9629    1.1862 C   0  0  0  0  0  0  0  0  0  0  0  0
   -2.0318    1.5987    0.7655 O   0  0  0  0  0  0  0  0  0  0  0  0
   -0.1830    1.5676    2.0565 N   0  0  0  0  0  0  0  0  0  0  0  0
    0.5667    0.9960    2.4357 H   0  0  0  0  0  0  0  0  0  0  0  0
   -0.3329    2.9389    2.5277 C   0  0  0  0  0  0  0  0  0  0  0  0
   -1.2728    3.0544    3.0776 H   0  0  0  0  0  0  0  0  0  0  0  0
    0.4933    3.2017    3.1953 H   0  0  0  0  0  0  0  0  0  0  0  0
   -0.3298    3.6365    1.6835 H   0  0  0  0  0  0  0  0  0  0  0  0
  1  2  1  0  0  0  0
  2  3  1  0  0  0  0
  2  4  1  0  0  0  0
  2  5  1  0  0  0  0
  5  6  2  0  0  0  0
  5  7  1  0  0  0  0
  7  8  1  0  0  0  0
  7  9  1  0  0  0  0
  9 10  1  0  0  0  0
  9 11  1  0  0  0  0
  9 26  1  0  0  0  0
 11 12  1  0  0  0  0
 11 13  1  0  0  0  0
 11 14  1  0  0  0  0
 14 15  1  0  0  0  0
 14 16  1  0  0  0  0
 14 17  1  0  0  0  0
 17 18  1  0  0  0  0
 17 19  1  0  0  0  0
 17 20  1  0  0  0  0
 20 21  1  0  0  0  0
 20 22  1  0  0  0  0
 20 23  1  0  0  0  0
 23 24  1  0  0  0  0
 23 25  1  0  0  0  0
 26 27  2  0  0  0  0
 26 28  1  0  0  0  0
 28 29  1  0  0  0  0
 28 30  1  0  0  0  0
 30 31  1  0  0  0  0
 30 32  1  0  0  0  0
 30 33  1  0  0  0  0
M  END
$$$$

  -OEChem-03222214063D

 33 32  0     1  0  0  0  0  0999 V2000
   -3.7531   -4.0101    1.9341 H   0  0  0  0  0  0  0  0  0  0  0  0
   -3.7527   -3.0578    1.3969 C   0  0  0  0  0  0  0  0  0  0  0  0
   -4.4708   -2.3846    1.8711 H   0  0  0  0  0  0  0  0  0  0  0  0
   -4.0574   -3.2371    0.3628 H   0  0  0  0  0  0  0  0  0  0  0  0
   -2.3665   -2.4433    1.4252 C   0  0  0  0  0  0  0  0  0  0  0  0
   -1.4431   -3.0428    1.9540 O   0  0  0  0  0  0  0  0  0  0  0  0
   -2.1545   -1.2082    0.8487 N   0  0  0  0  0  0  0  0  0  0  0  0
   -2.9648   -0.7070    0.4897 H   0  0  0  0  0  0  0  0  0  0  0  0
   -0.8561   -0.5188    0.7932 C   0  0  1  0  0  0  0  0  0  0  0  0
   -0.1728   -0.9529    1.5302 H   0  0  0  0  0  0  0  0  0  0  0  0
   -0.1767   -0.5953   -0.6030 C   0  0  0  0  0  0  0  0  0  0  0  0
    0.2447    0.3863   -0.8460 H   0  0  0  0  0  0  0  0  0  0  0  0
    0.6692   -1.2872   -0.5358 H   0  0  0  0  0  0  0  0  0  0  0  0
   -1.0739   -1.0318   -1.7805 C   0  0  0  0  0  0  0  0  0  0  0  0
   -2.0929   -0.6541   -1.6483 H   0  0  0  0  0  0  0  0  0  0  0  0
   -0.6838   -0.5713   -2.6941 H   0  0  0  0  0  0  0  0  0  0  0  0
   -1.0746   -2.5535   -1.9861 C   0  0  0  0  0  0  0  0  0  0  0  0
   -0.0611   -2.8954   -2.2181 H   0  0  0  0  0  0  0  0  0  0  0  0
   -1.3932   -3.0576   -1.0707 H   0  0  0  0  0  0  0  0  0  0  0  0
   -2.0160   -2.9390   -3.1228 C   0  0  0  0  0  0  0  0  0  0  0  0
   -3.0234   -2.5572   -2.9238 H   0  0  0  0  0  0  0  0  0  0  0  0
   -1.6653   -2.4998   -4.0633 H   0  0  0  0  0  0  0  0  0  0  0  0
   -2.0522   -4.4006   -3.2260 N   0  0  0  0  0  0  0  0  0  0  0  0
   -2.6372   -4.7032   -4.0048 H   0  0  0  0  0  0  0  0  0  0  0  0
   -1.1110   -4.7858   -3.3061 H   0  0  0  0  0  0  0  0  0  0  0  0
   -1.0616    0.9605    1.1808 C   0  0  0  0  0  0  0  0  0  0  0  0
   -2.0086    1.5894    0.7206 O   0  0  0  0  0  0  0  0  0  0  0  0
   -0.1941    1.5833    2.0595 N   0  0  0  0  0  0  0  0  0  0  0  0
    0.5372    1.0156    2.4785 H   0  0  0  0  0  0  0  0  0  0  0  0
   -0.3666    2.9580    2.5131 C   0  0  0  0  0  0  0  0  0  0  0  0
   -1.3163    3.0689    3.0471 H   0  0  0  0  0  0  0  0  0  0  0  0
    0.4463    3.2375    3.1902 H   0  0  0  0  0  0  0  0  0  0  0  0
   -0.3581    3.6465    1.6614 H   0  0  0  0  0  0  0  0  0  0  0  0
  1  2  1  0  0  0  0
  2  3  1  0  0  0  0
  2  4  1  0  0  0  0
  2  5  1  0  0  0  0
  5  6  2  0  0  0  0
  5  7  1  0  0  0  0
  7  8  1  0  0  0  0
  7  9  1  0  0  0  0
  9 10  1  0  0  0  0
  9 11  1  0  0  0  0
  9 26  1  0  0  0  0
 11 12  1  0  0  0  0
 11 13  1  0  0  0  0
 11 14  1  0  0  0  0
 14 15  1  0  0  0  0
 14 16  1  0  0  0  0
 14 17  1  0  0  0  0
 17 18  1  0  0  0  0
 17 19  1  0  0  0  0
 17 20  1  0  0  0  0
 20 21  1  0  0  0  0
 20 22  1  0  0  0  0
 20 23  1  0  0  0  0
 23 24  1  0  0  0  0
 23 25  1  0  0  0  0
 26 27  2  0  0  0  0
 26 28  1  0  0  0  0
 28 29  1  0  0  0  0
 28 30  1  0  0  0  0
 30 31  1  0  0  0  0
 30 32  1  0  0  0  0
 30 33  1  0  0  0  0
M  END
$$$$

  -OEChem-03222214063D

 33 32  0     1  0  0  0  0  0999 V2000
   -3.7483   -3.9456    2.2835 H   0  0  0  0  0  0  0  0  0  0  0  0
   -3.7605   -3.0347    1.6788 C   0  0  0  0  0  0  0  0  0  0  0  0
   -4.4448   -2.3168    2.1369 H   0  0  0  0  0  0  0  0  0  0  0  0
   -4.1189   -3.2814    0.6763 H   0  0  0  0  0  0  0  0  0  0  0  0
   -2.3661   -2.4436    1.5957 C   0  0  0  0  0  0  0  0  0  0  0  0
   -1.4182   -3.0429    2.0800 O   0  0  0  0  0  0  0  0  0  0  0  0
   -2.1766   -1.2251    0.9760 N   0  0  0  0  0  0  0  0  0  0  0  0
   -3.0016   -0.7241    0.6511 H   0  0  0  0  0  0  0  0  0  0  0  0
   -0.8815   -0.5444    0.8442 C   0  0  1  0  0  0  0  0  0  0  0  0
   -0.1684   -0.9596    1.5637 H   0  0  0  0  0  0  0  0  0  0  0  0
   -0.2440   -0.6236   -0.5731 C   0  0  0  0  0  0  0  0  0  0  0  0
    0.1876    0.3516   -0.8236 H   0  0  0  0  0  0  0  0  0  0  0  0
    0.5935   -1.3265   -0.5173 H   0  0  0  0  0  0  0  0  0  0  0  0
   -1.1312   -1.0609   -1.7583 C   0  0  0  0  0  0  0  0  0  0  0  0
   -2.0655   -0.4899   -1.7375 H   0  0  0  0  0  0  0  0  0  0  0  0
   -0.6065   -0.7917   -2.6809 H   0  0  0  0  0  0  0  0  0  0  0  0
   -1.4460   -2.5655   -1.8119 C   0  0  0  0  0  0  0  0  0  0  0  0
   -0.5140   -3.1370   -1.7576 H   0  0  0  0  0  0  0  0  0  0  0  0
   -2.0714   -2.8679   -0.9738 H   0  0  0  0  0  0  0  0  0  0  0  0
   -2.1788   -2.9108   -3.1044 C   0  0  0  0  0  0  0  0  0  0  0  0
   -3.0911   -2.3103   -3.1918 H   0  0  0  0  0  0  0  0  0  0  0  0
   -1.5416   -2.6893   -3.9676 H   0  0  0  0  0  0  0  0  0  0  0  0
   -2.5218   -4.3357   -3.0791 N   0  0  0  0  0  0  0  0  0  0  0  0
   -2.9813   -4.6208   -3.9440 H   0  0  0  0  0  0  0  0  0  0  0  0
   -1.6958   -4.9075   -2.9003 H   0  0  0  0  0  0  0  0  0  0  0  0
   -1.0820    0.9430    1.2039 C   0  0  0  0  0  0  0  0  0  0  0  0
   -2.0541    1.5546    0.7733 O   0  0  0  0  0  0  0  0  0  0  0  0
   -0.1822    1.5917    2.0297 N   0  0  0  0  0  0  0  0  0  0  0  0
    0.5760    1.0410    2.4227 H   0  0  0  0  0  0  0  0  0  0  0  0
   -0.3411    2.9775    2.4532 C   0  0  0  0  0  0  0  0  0  0  0  0
   -1.2606    3.0970    3.0359 H   0  0  0  0  0  0  0  0  0  0  0  0
    0.5059    3.2819    3.0754 H   0  0  0  0  0  0  0  0  0  0  0  0
   -0.3863    3.6414    1.5835 H   0  0  0  0  0  0  0  0  0  0  0  0
  1  2  1  0  0  0  0
  2  3  1  0  0  0  0
  2  4  1  0  0  0  0
  2  5  1  0  0  0  0
  5  6  2  0  0  0  0
  5  7  1  0  0  0  0
  7  8  1  0  0  0  0
  7  9  1  0  0  0  0
  9 10  1  0  0  0  0
  9 11  1  0  0  0  0
  9 26  1  0  0  0  0
 11 12  1  0  0  0  0
 11 13  1  0  0  0  0
 11 14  1  0  0  0  0
 14 15  1  0  0  0  0
 14 16  1  0  0  0  0
 14 17  1  0  0  0  0
 17 18  1  0  0  0  0
 17 19  1  0  0  0  0
 17 20  1  0  0  0  0
 20 21  1  0  0  0  0
 20 22  1  0  0  0  0
 20 23  1  0  0  0  0
 23 24  1  0  0  0  0
 23 25  1  0  0  0  0
 26 27  2  0  0  0  0
 26 28  1  0  0  0  0
 28 29  1  0  0  0  0
 28 30  1  0  0  0  0
 30 31  1  0  0  0  0
 30 32  1  0  0  0  0
 30 33  1  0  0  0  0
M  END
$$$$

  -OEChem-03222214063D

 33 32  0     1  0  0  0  0  0999 V2000
   -3.6848   -3.9552    2.4301 H   0  0  0  0  0  0  0  0  0  0  0  0
   -3.7471   -3.0132    1.8778 C   0  0  0  0  0  0  0  0  0  0  0  0
   -4.3607   -2.3109    2.4473 H   0  0  0  0  0  0  0  0  0  0  0  0
   -4.2225   -3.2014    0.9118 H   0  0  0  0  0  0  0  0  0  0  0  0
   -2.3591   -2.4376    1.6671 C   0  0  0  0  0  0  0  0  0  0  0  0
   -1.3770   -3.0629    2.0371 O   0  0  0  0  0  0  0  0  0  0  0  0
   -2.2136   -1.2030    1.0679 N   0  0  0  0  0  0  0  0  0  0  0  0
   -3.0597   -0.6889    0.8286 H   0  0  0  0  0  0  0  0  0  0  0  0
   -0.9313   -0.5222    0.8539 C   0  0  1  0  0  0  0  0  0  0  0  0
   -0.1739   -0.9560    1.5147 H   0  0  0  0  0  0  0  0  0  0  0  0
   -0.3828   -0.5777   -0.6014 C   0  0  0  0  0  0  0  0  0  0  0  0
    0.0519    0.3953   -0.8556 H   0  0  0  0  0  0  0  0  0  0  0  0
    0.4454   -1.2936   -0.5947 H   0  0  0  0  0  0  0  0  0  0  0  0
   -1.3079   -0.9932   -1.7688 C   0  0  0  0  0  0  0  0  0  0  0  0
   -2.1176   -0.2614   -1.8581 H   0  0  0  0  0  0  0  0  0  0  0  0
   -0.7117   -0.9300   -2.6851 H   0  0  0  0  0  0  0  0  0  0  0  0
   -1.9236   -2.4007   -1.6811 C   0  0  0  0  0  0  0  0  0  0  0  0
   -1.2084   -3.0909   -1.2217 H   0  0  0  0  0  0  0  0  0  0  0  0
   -2.8280   -2.3795   -1.0701 H   0  0  0  0  0  0  0  0  0  0  0  0
   -2.3059   -2.9179   -3.0645 C   0  0  0  0  0  0  0  0  0  0  0  0
   -2.9964   -2.2190   -3.5498 H   0  0  0  0  0  0  0  0  0  0  0  0
   -1.4128   -3.0064   -3.6929 H   0  0  0  0  0  0  0  0  0  0  0  0
   -2.9459   -4.2276   -2.9090 N   0  0  0  0  0  0  0  0  0  0  0  0
   -3.2053   -4.6216   -3.8134 H   0  0  0  0  0  0  0  0  0  0  0  0
   -2.3433   -4.8690   -2.3924 H   0  0  0  0  0  0  0  0  0  0  0  0
   -1.0892    0.9566    1.2653 C   0  0  0  0  0  0  0  0  0  0  0  0
   -2.0845    1.5869    0.9247 O   0  0  0  0  0  0  0  0  0  0  0  0
   -0.1215    1.5781    2.0332 N   0  0  0  0  0  0  0  0  0  0  0  0
    0.6668    1.0167    2.3429 H   0  0  0  0  0  0  0  0  0  0  0  0
   -0.2209    2.9631    2.4768 C   0  0  0  0  0  0  0  0  0  0  0  0
   -1.1140    3.1048    3.0944 H   0  0  0  0  0  0  0  0  0  0  0  0
    0.6569    3.2349    3.0708 H   0  0  0  0  0  0  0  0  0  0  0  0
   -0.2773    3.6371    1.6155 H   0  0  0  0  0  0  0  0  0  0  0  0
  1  2  1  0  0  0  0
  2  3  1  0  0  0  0
  2  4  1  0  0  0  0
  2  5  1  0  0  0  0
  5  6  2  0  0  0  0
  5  7  1  0  0  0  0
  7  8  1  0  0  0  0
  7  9  1  0  0  0  0
  9 10  1  0  0  0  0
  9 11  1  0  0  0  0
  9 26  1  0  0  0  0
 11 12  1  0  0  0  0
 11 13  1  0  0  0  0
 11 14  1  0  0  0  0
 14 15  1  0  0  0  0
 14 16  1  0  0  0  0
 14 17  1  0  0  0  0
 17 18  1  0  0  0  0
 17 19  1  0  0  0  0
 17 20  1  0  0  0  0
 20 21  1  0  0  0  0
 20 22  1  0  0  0  0
 20 23  1  0  0  0  0
 23 24  1  0  0  0  0
 23 25  1  0  0  0  0
 26 27  2  0  0  0  0
 26 28  1  0  0  0  0
 28 29  1  0  0  0  0
 28 30  1  0  0  0  0
 30 31  1  0  0  0  0
 30 32  1  0  0  0  0
 30 33  1  0  0  0  0
M  END
$$$$

  -OEChem-03222214063D

 33 32  0     1  0  0  0  0  0999 V2000
   -3.6766   -3.9269    2.5225 H   0  0  0  0  0  0  0  0  0  0  0  0
   -3.7396   -2.9954    1.9533 C   0  0  0  0  0  0  0  0  0  0  0  0
   -4.3628   -2.2870    2.5042 H   0  0  0  0  0  0  0  0  0  0  0  0
   -4.2048   -3.2035    0.9864 H   0  0  0  0  0  0  0  0  0  0  0  0
   -2.3537   -2.4150    1.7449 C   0  0  0  0  0  0  0  0  0  0  0  0
   -1.3686   -3.0410    2.1057 O   0  0  0  0  0  0  0  0  0  0  0  0
   -2.2133   -1.1844    1.1375 N   0  0  0  0  0  0  0  0  0  0  0  0
   -3.0622   -0.6777    0.8923 H   0  0  0  0  0  0  0  0  0  0  0  0
   -0.9359   -0.5089    0.8892 C   0  0  1  0  0  0  0  0  0  0  0  0
   -0.1696   -0.9398    1.5421 H   0  0  0  0  0  0  0  0  0  0  0  0
   -0.4006   -0.5720   -0.5736 C   0  0  0  0  0  0  0  0  0  0  0  0
    0.0577    0.3899   -0.8283 H   0  0  0  0  0  0  0  0  0  0  0  0
    0.4136   -1.3037   -0.5528 H   0  0  0  0  0  0  0  0  0  0  0  0
   -1.2972   -0.9901   -1.7683 C   0  0  0  0  0  0  0  0  0  0  0  0
   -1.9410   -0.1411   -2.0213 H   0  0  0  0  0  0  0  0  0  0  0  0
   -0.6329   -1.1568   -2.6226 H   0  0  0  0  0  0  0  0  0  0  0  0
   -2.2008   -2.2227   -1.6002 C   0  0  0  0  0  0  0  0  0  0  0  0
   -1.6653   -2.9982   -1.0432 H   0  0  0  0  0  0  0  0  0  0  0  0
   -3.1066   -1.9535   -1.0517 H   0  0  0  0  0  0  0  0  0  0  0  0
   -2.6260   -2.7821   -2.9539 C   0  0  0  0  0  0  0  0  0  0  0  0
   -3.1536   -2.0127   -3.5289 H   0  0  0  0  0  0  0  0  0  0  0  0
   -1.7458   -3.0933   -3.5273 H   0  0  0  0  0  0  0  0  0  0  0  0
   -3.5088   -3.9298   -2.7225 N   0  0  0  0  0  0  0  0  0  0  0  0
   -3.8264   -4.3339   -3.6037 H   0  0  0  0  0  0  0  0  0  0  0  0
   -3.0470   -4.6338   -2.1461 H   0  0  0  0  0  0  0  0  0  0  0  0
   -1.0818    0.9719    1.2975 C   0  0  0  0  0  0  0  0  0  0  0  0
   -2.0804    1.6050    0.9727 O   0  0  0  0  0  0  0  0  0  0  0  0
   -0.0949    1.5949    2.0393 N   0  0  0  0  0  0  0  0  0  0  0  0
    0.6964    1.0314    2.3372 H   0  0  0  0  0  0  0  0  0  0  0  0
   -0.1789    2.9829    2.4776 C   0  0  0  0  0  0  0  0  0  0  0  0
   -1.0689    3.1377    3.0966 H   0  0  0  0  0  0  0  0  0  0  0  0
    0.7029    3.2471    3.0693 H   0  0  0  0  0  0  0  0  0  0  0  0
   -0.2297    3.6540    1.6139 H   0  0  0  0  0  0  0  0  0  0  0  0
  1  2  1  0  0  0  0
  2  3  1  0  0  0  0
  2  4  1  0  0  0  0
  2  5  1  0  0  0  0
  5  6  2  0  0  0  0
  5  7  1  0  0  0  0
  7  8  1  0  0  0  0
  7  9  1  0  0  0  0
  9 10  1  0  0  0  0
  9 11  1  0  0  0  0
  9 26  1  0  0  0  0
 11 12  1  0  0  0  0
 11 13  1  0  0  0  0
 11 14  1  0  0  0  0
 14 15  1  0  0  0  0
 14 16  1  0  0  0  0
 14 17  1  0  0  0  0
 17 18  1  0  0  0  0
 17 19  1  0  0  0  0
 17 20  1  0  0  0  0
 20 21  1  0  0  0  0
 20 22  1  0  0  0  0
 20 23  1  0  0  0  0
 23 24  1  0  0  0  0
 23 25  1  0  0  0  0
 26 27  2  0  0  0  0
 26 28  1  0  0  0  0
 28 29  1  0  0  0  0
 28 30  1  0  0  0  0
 30 31  1  0  0  0  0
 30 32  1  0  0  0  0
 30 33  1  0  0  0  0
M  END
$$$$

  -OEChem-03222214063D

 33 32  0     1  0  0  0  0  0999 V2000
   -3.6096   -3.9723    2.5660 H   0  0  0  0  0  0  0  0  0  0  0  0
   -3.6915   -3.0083    2.0564 C   0  0  0  0  0  0  0  0  0  0  0  0
   -4.2815   -2.3302    2.6776 H   0  0  0  0  0  0  0  0  0  0  0  0
   -4.2037   -3.1555    1.1022 H   0  0  0  0  0  0  0  0  0  0  0  0
   -2.3125   -2.4237    1.8162 C   0  0  0  0  0  0  0  0  0  0  0  0
   -1.3167   -3.0444    2.1561 O   0  0  0  0  0  0  0  0  0  0  0  0
   -2.1925   -1.1955    1.2010 N   0  0  0  0  0  0  0  0  0  0  0  0
   -3.0505   -0.6962    0.9720 H   0  0  0  0  0  0  0  0  0  0  0  0
   -0.9273   -0.5115    0.9175 C   0  0  1  0  0  0  0  0  0  0  0  0
   -0.1451   -0.9323    1.5578 H   0  0  0  0  0  0  0  0  0  0  0  0
   -0.4106   -0.5675   -0.5542 C   0  0  0  0  0  0  0  0  0  0  0  0
    0.0578    0.3903   -0.8061 H   0  0  0  0  0  0  0  0  0  0  0  0
    0.3995   -1.3037   -0.5308 H   0  0  0  0  0  0  0  0  0  0  0  0
   -1.2884   -0.9885   -1.7665 C   0  0  0  0  0  0  0  0  0  0  0  0
   -1.7406   -0.0765   -2.1706 H   0  0  0  0  0  0  0  0  0  0  0  0
   -0.6118   -1.3776   -2.5347 H   0  0  0  0  0  0  0  0  0  0  0  0
   -2.4305   -1.9949   -1.5649 C   0  0  0  0  0  0  0  0  0  0  0  0
   -2.0644   -2.8515   -0.9907 H   0  0  0  0  0  0  0  0  0  0  0  0
   -3.2565   -1.5251   -1.0241 H   0  0  0  0  0  0  0  0  0  0  0  0
   -2.9674   -2.4885   -2.9043 C   0  0  0  0  0  0  0  0  0  0  0  0
   -3.3607   -1.6457   -3.4835 H   0  0  0  0  0  0  0  0  0  0  0  0
   -2.1644   -2.9557   -3.4851 H   0  0  0  0  0  0  0  0  0  0  0  0
   -4.0325   -3.4623   -2.6444 N   0  0  0  0  0  0  0  0  0  0  0  0
   -4.4401   -3.8026   -3.5155 H   0  0  0  0  0  0  0  0  0  0  0  0
   -3.6863   -4.2380   -2.0795 H   0  0  0  0  0  0  0  0  0  0  0  0
   -1.0791    0.9691    1.3246 C   0  0  0  0  0  0  0  0  0  0  0  0
   -2.0930    1.5903    1.0251 O   0  0  0  0  0  0  0  0  0  0  0  0
   -0.0806    1.6049    2.0398 N   0  0  0  0  0  0  0  0  0  0  0  0
    0.7263    1.0525    2.3155 H   0  0  0  0  0  0  0  0  0  0  0  0
   -0.1687    2.9933    2.4755 C   0  0  0  0  0  0  0  0  0  0  0  0
   -1.0427    3.1389    3.1193 H   0  0  0  0  0  0  0  0  0  0  0  0
    0.7264    3.2703    3.0406 H   0  0  0  0  0  0  0  0  0  0  0  0
   -0.2523    3.6605    1.6112 H   0  0  0  0  0  0  0  0  0  0  0  0
  1  2  1  0  0  0  0
  2  3  1  0  0  0  0
  2  4  1  0  0  0  0
  2  5  1  0  0  0  0
  5  6  2  0  0  0  0
  5  7  1  0  0  0  0
  7  8  1  0  0  0  0
  7  9  1  0  0  0  0
  9 10  1  0  0  0  0
  9 11  1  0  0  0  0
  9 26  1  0  0  0  0
 11 12  1  0  0  0  0
 11 13  1  0  0  0  0
 11 14  1  0  0  0  0
 14 15  1  0  0  0  0
 14 16  1  0  0  0  0
 14 17  1  0  0  0  0
 17 18  1  0  0  0  0
 17 19  1  0  0  0  0
 17 20  1  0  0  0  0
 20 21  1  0  0  0  0
 20 22  1  0  0  0  0
 20 23  1  0  0  0  0
 23 24  1  0  0  0  0
 23 25  1  0  0  0  0
 26 27  2  0  0  0  0
 26 28  1  0  0  0  0
 28 29  1  0  0  0  0
 28 30  1  0  0  0  0
 30 31  1  0  0  0  0
 30 32  1  0  0  0  0
 30 33  1  0  0  0  0
M  END
$$$$

  -OEChem-03222214063D

 33 32  0     1  0  0  0  0  0999 V2000
   -3.5357   -4.0135    2.5798 H   0  0  0  0  0  0  0  0  0  0  0  0
   -3.6356   -3.0309    2.1108 C   0  0  0  0  0  0  0  0  0  0  0  0
   -4.2021   -2.3772    2.7782 H   0  0  0  0  0  0  0  0  0  0  0  0
   -4.1825   -3.1422    1.1711 H   0  0  0  0  0  0  0  0  0  0  0  0
   -2.2659   -2.4358    1.8442 C   0  0  0  0  0  0  0  0  0  0  0  0
   -1.2591   -3.0467    2.1688 O   0  0  0  0  0  0  0  0  0  0  0  0
   -2.1678   -1.2072    1.2270 N   0  0  0  0  0  0  0  0  0  0  0  0
   -3.0342   -0.7161    1.0116 H   0  0  0  0  0  0  0  0  0  0  0  0
   -0.9147   -0.5092    0.9249 C   0  0  1  0  0  0  0  0  0  0  0  0
   -0.1210   -0.9199    1.5577 H   0  0  0  0  0  0  0  0  0  0  0  0
   -0.4093   -0.5630   -0.5516 C   0  0  0  0  0  0  0  0  0  0  0  0
    0.0466    0.4006   -0.8047 H   0  0  0  0  0  0  0  0  0  0  0  0
    0.4131   -1.2857   -0.5288 H   0  0  0  0  0  0  0  0  0  0  0  0
   -1.2782   -0.9966   -1.7694 C   0  0  0  0  0  0  0  0  0  0  0  0
   -1.5155   -0.0835   -2.3256 H   0  0  0  0  0  0  0  0  0  0  0  0
   -0.6469   -1.6104   -2.4207 H   0  0  0  0  0  0  0  0  0  0  0  0
   -2.6076   -1.7336   -1.5574 C   0  0  0  0  0  0  0  0  0  0  0  0
   -2.4302   -2.6467   -0.9817 H   0  0  0  0  0  0  0  0  0  0  0  0
   -3.3098   -1.0942   -1.0146 H   0  0  0  0  0  0  0  0  0  0  0  0
   -3.2419   -2.1091   -2.8930 C   0  0  0  0  0  0  0  0  0  0  0  0
   -3.4775   -1.2032   -3.4627 H   0  0  0  0  0  0  0  0  0  0  0  0
   -2.5465   -2.7132   -3.4862 H   0  0  0  0  0  0  0  0  0  0  0  0
   -4.4676   -2.8694   -2.6274 N   0  0  0  0  0  0  0  0  0  0  0  0
   -4.9587   -3.0901   -3.4939 H   0  0  0  0  0  0  0  0  0  0  0  0
   -4.2624   -3.7185   -2.1011 H   0  0  0  0  0  0  0  0  0  0  0  0
   -1.0786    0.9698    1.3339 C   0  0  0  0  0  0  0  0  0  0  0  0
   -2.1082    1.5760    1.0580 O   0  0  0  0  0  0  0  0  0  0  0  0
   -0.0771    1.6171    2.0346 N   0  0  0  0  0  0  0  0  0  0  0  0
    0.7342    1.0697    2.3079 H   0  0  0  0  0  0  0  0  0  0  0  0
   -0.1883    2.9940    2.5004 C   0  0  0  0  0  0  0  0  0  0  0  0
   -1.0199    3.0938    3.2057 H   0  0  0  0  0  0  0  0  0  0  0  0
    0.7331    3.2973    3.0064 H   0  0  0  0  0  0  0  0  0  0  0  0
   -0.3574    3.6717    1.6570 H   0  0  0  0  0  0  0  0  0  0  0  0
  1  2  1  0  0  0  0
  2  3  1  0  0  0  0
  2  4  1  0  0  0  0
  2  5  1  0  0  0  0
  5  6  2  0  0  0  0
  5  7  1  0  0  0  0
  7  8  1  0  0  0  0
  7  9  1  0  0  0  0
  9 10  1  0  0  0  0
  9 11  1  0  0  0  0
  9 26  1  0  0  0  0
 11 12  1  0  0  0  0
 11 13  1  0  0  0  0
 11 14  1  0  0  0  0
 14 15  1  0  0  0  0
 14 16  1  0  0  0  0
 14 17  1  0  0  0  0
 17 18  1  0  0  0  0
 17 19  1  0  0  0  0
 17 20  1  0  0  0  0
 20 21  1  0  0  0  0
 20 22  1  0  0  0  0
 20 23  1  0  0  0  0
 23 24  1  0  0  0  0
 23 25  1  0  0  0  0
 26 27  2  0  0  0  0
 26 28  1  0  0  0  0
 28 29  1  0  0  0  0
 28 30  1  0  0  0  0
 30 31  1  0  0  0  0
 30 32  1  0  0  0  0
 30 33  1  0  0  0  0
M  END
$$$$

  -OEChem-03222214063D

 33 32  0     1  0  0  0  0  0999 V2000
   -3.4656   -4.0507    2.5932 H   0  0  0  0  0  0  0  0  0  0  0  0
   -3.5825   -3.0754    2.1133 C   0  0  0  0  0  0  0  0  0  0  0  0
   -4.1451   -2.4187    2.7810 H   0  0  0  0  0  0  0  0  0  0  0  0
   -4.1426   -3.2036    1.1840 H   0  0  0  0  0  0  0  0  0  0  0  0
   -2.2228   -2.4709    1.8182 C   0  0  0  0  0  0  0  0  0  0  0  0
   -1.2053   -3.0792    2.1120 O   0  0  0  0  0  0  0  0  0  0  0  0
   -2.1456   -1.2333    1.2161 N   0  0  0  0  0  0  0  0  0  0  0  0
   -3.0191   -0.7428    1.0289 H   0  0  0  0  0  0  0  0  0  0  0  0
   -0.9037   -0.5157    0.9123 C   0  0  1  0  0  0  0  0  0  0  0  0
   -0.1012   -0.9237    1.5354 H   0  0  0  0  0  0  0  0  0  0  0  0
   -0.4073   -0.5544   -0.5677 C   0  0  0  0  0  0  0  0  0  0  0  0
    0.0113    0.4277   -0.8146 H   0  0  0  0  0  0  0  0  0  0  0  0
    0.4419   -1.2455   -0.5630 H   0  0  0  0  0  0  0  0  0  0  0  0
   -1.2813   -0.9929   -1.7814 C   0  0  0  0  0  0  0  0  0  0  0  0
   -1.2940   -0.1484   -2.4787 H   0  0  0  0  0  0  0  0  0  0  0  0
   -0.7598   -1.8126   -2.2870 H   0  0  0  0  0  0  0  0  0  0  0  0
   -2.7388   -1.4283   -1.5760 C   0  0  0  0  0  0  0  0  0  0  0  0
   -2.7651   -2.3611   -1.0060 H   0  0  0  0  0  0  0  0  0  0  0  0
   -3.2871   -0.6545   -1.0296 H   0  0  0  0  0  0  0  0  0  0  0  0
   -3.4336   -1.6572   -2.9147 C   0  0  0  0  0  0  0  0  0  0  0  0
   -3.4862   -0.7164   -3.4737 H   0  0  0  0  0  0  0  0  0  0  0  0
   -2.8695   -2.3792   -3.5154 H   0  0  0  0  0  0  0  0  0  0  0  0
   -4.7851   -2.1648   -2.6573 N   0  0  0  0  0  0  0  0  0  0  0  0
   -5.3112   -2.2684   -3.5252 H   0  0  0  0  0  0  0  0  0  0  0  0
   -4.7524   -3.0461   -2.1455 H   0  0  0  0  0  0  0  0  0  0  0  0
   -1.0800    0.9565    1.3408 C   0  0  0  0  0  0  0  0  0  0  0  0
   -2.1222    1.5522    1.0911 O   0  0  0  0  0  0  0  0  0  0  0  0
   -0.0790    1.6056    2.0403 N   0  0  0  0  0  0  0  0  0  0  0  0
    0.7439    1.0657    2.2926 H   0  0  0  0  0  0  0  0  0  0  0  0
   -0.2021    2.9739    2.5280 C   0  0  0  0  0  0  0  0  0  0  0  0
   -1.0184    3.0494    3.2539 H   0  0  0  0  0  0  0  0  0  0  0  0
    0.7262    3.2861    3.0159 H   0  0  0  0  0  0  0  0  0  0  0  0
   -0.4034    3.6601    1.6985 H   0  0  0  0  0  0  0  0  0  0  0  0
  1  2  1  0  0  0  0
  2  3  1  0  0  0  0
  2  4  1  0  0  0  0
  2  5  1  0  0  0  0
  5  6  2  0  0  0  0
  5  7  1  0  0  0  0
  7  8  1  0  0  0  0
  7  9  1  0  0  0  0
  9 10  1  0  0  0  0
  9 11  1  0  0  0  0
  9 26  1  0  0  0  0
 11 12  1  0  0  0  0
 11 13  1  0  0  0  0
 11 14  1  0  0  0  0
 14 15  1  0  0  0  0
 14 16  1  0  0  0  0
 14 17  1  0  0  0  0
 17 18  1  0  0  0  0
 17 19  1  0  0  0  0
 17 20  1  0  0  0  0
 20 21  1  0  0  0  0
 20 22  1  0  0  0  0
 20 23  1  0  0  0  0
 23 24  1  0  0  0  0
 23 25  1  0  0  0  0
 26 27  2  0  0  0  0
 26 28  1  0  0  0  0
 28 29  1  0  0  0  0
 28 30  1  0  0  0  0
 30 31  1  0  0  0  0
 30 32  1  0  0  0  0
 30 33  1  0  0  0  0
M  END
$$$$

  -OEChem-03222214063D

 33 32  0     1  0  0  0  0  0999 V2000
   -3.4240   -4.0738    2.5721 H   0  0  0  0  0  0  0  0  0  0  0  0
   -3.5500   -3.1193    2.0537 C   0  0  0  0  0  0  0  0  0  0  0  0
   -4.1372   -2.4496    2.6864 H   0  0  0  0  0  0  0  0  0  0  0  0
   -4.0896   -3.2927    1.1198 H   0  0  0  0  0  0  0  0  0  0  0  0
   -2.1965   -2.4999    1.7608 C   0  0  0  0  0  0  0  0  0  0  0  0
   -1.1737   -3.1050    2.0427 O   0  0  0  0  0  0  0  0  0  0  0  0
   -2.1302   -1.2534    1.1760 N   0  0  0  0  0  0  0  0  0  0  0  0
   -3.0072   -0.7662    0.9964 H   0  0  0  0  0  0  0  0  0  0  0  0
   -0.8936   -0.5207    0.8866 C   0  0  1  0  0  0  0  0  0  0  0  0
   -0.0893   -0.9313    1.5057 H   0  0  0  0  0  0  0  0  0  0  0  0
   -0.4020   -0.5567   -0.5937 C   0  0  0  0  0  0  0  0  0  0  0  0
   -0.0297    0.4433   -0.8421 H   0  0  0  0  0  0  0  0  0  0  0  0
    0.4738   -1.2137   -0.6075 H   0  0  0  0  0  0  0  0  0  0  0  0
   -1.2905   -1.0055   -1.7903 C   0  0  0  0  0  0  0  0  0  0  0  0
   -1.0885   -0.3121   -2.6135 H   0  0  0  0  0  0  0  0  0  0  0  0
   -0.9396   -1.9914   -2.1132 H   0  0  0  0  0  0  0  0  0  0  0  0
   -2.8136   -1.1080   -1.6126 C   0  0  0  0  0  0  0  0  0  0  0  0
   -3.0609   -2.0020   -1.0341 H   0  0  0  0  0  0  0  0  0  0  0  0
   -3.1880   -0.2248   -1.0847 H   0  0  0  0  0  0  0  0  0  0  0  0
   -3.5121   -1.2027   -2.9661 C   0  0  0  0  0  0  0  0  0  0  0  0
   -3.3504   -0.2799   -3.5349 H   0  0  0  0  0  0  0  0  0  0  0  0
   -3.1001   -2.0366   -3.5454 H   0  0  0  0  0  0  0  0  0  0  0  0
   -4.9467   -1.4076   -2.7416 N   0  0  0  0  0  0  0  0  0  0  0  0
   -5.4608   -1.4128   -3.6225 H   0  0  0  0  0  0  0  0  0  0  0  0
   -5.1170   -2.2643   -2.2161 H   0  0  0  0  0  0  0  0  0  0  0  0
   -1.0768    0.9462    1.3321 C   0  0  0  0  0  0  0  0  0  0  0  0
   -2.1240    1.5372    1.0943 O   0  0  0  0  0  0  0  0  0  0  0  0
   -0.0814    1.5934    2.0416 N   0  0  0  0  0  0  0  0  0  0  0  0
    0.7467    1.0576    2.2857 H   0  0  0  0  0  0  0  0  0  0  0  0
   -0.2158    2.9547    2.5461 C   0  0  0  0  0  0  0  0  0  0  0  0
   -1.0393    3.0168    3.2652 H   0  0  0  0  0  0  0  0  0  0  0  0
    0.7061    3.2655    3.0469 H   0  0  0  0  0  0  0  0  0  0  0  0
   -0.4130    3.6506    1.7238 H   0  0  0  0  0  0  0  0  0  0  0  0
  1  2  1  0  0  0  0
  2  3  1  0  0  0  0
  2  4  1  0  0  0  0
  2  5  1  0  0  0  0
  5  6  2  0  0  0  0
  5  7  1  0  0  0  0
  7  8  1  0  0  0  0
  7  9  1  0  0  0  0
  9 10  1  0  0  0  0
  9 11  1  0  0  0  0
  9 26  1  0  0  0  0
 11 12  1  0  0  0  0
 11 13  1  0  0  0  0
 11 14  1  0  0  0  0
 14 15  1  0  0  0  0
 14 16  1  0  0  0  0
 14 17  1  0  0  0  0
 17 18  1  0  0  0  0
 17 19  1  0  0  0  0
 17 20  1  0  0  0  0
 20 21  1  0  0  0  0
 20 22  1  0  0  0  0
 20 23  1  0  0  0  0
 23 24  1  0  0  0  0
 23 25  1  0  0  0  0
 26 27  2  0  0  0  0
 26 28  1  0  0  0  0
 28 29  1  0  0  0  0
 28 30  1  0  0  0  0
 30 31  1  0  0  0  0
 30 32  1  0  0  0  0
 30 33  1  0  0  0  0
M  END
$$$$

  -OEChem-03222214063D

 33 32  0     1  0  0  0  0  0999 V2000
   -3.4371   -4.0888    2.4595 H   0  0  0  0  0  0  0  0  0  0  0  0
   -3.5596   -3.1316    1.9452 C   0  0  0  0  0  0  0  0  0  0  0  0
   -4.1622   -2.4697    2.5717 H   0  0  0  0  0  0  0  0  0  0  0  0
   -4.0808   -3.3023    1.0002 H   0  0  0  0  0  0  0  0  0  0  0  0
   -2.2049   -2.5022    1.6820 C   0  0  0  0  0  0  0  0  0  0  0  0
   -1.1837   -3.1090    1.9660 O   0  0  0  0  0  0  0  0  0  0  0  0
   -2.1357   -1.2477    1.1155 N   0  0  0  0  0  0  0  0  0  0  0  0
   -3.0115   -0.7569    0.9397 H   0  0  0  0  0  0  0  0  0  0  0  0
   -0.8987   -0.5048    0.8576 C   0  0  1  0  0  0  0  0  0  0  0  0
   -0.1041   -0.9201    1.4859 H   0  0  0  0  0  0  0  0  0  0  0  0
   -0.3951   -0.5568   -0.6146 C   0  0  0  0  0  0  0  0  0  0  0  0
   -0.0454    0.4475   -0.8779 H   0  0  0  0  0  0  0  0  0  0  0  0
    0.4900   -1.2011   -0.6262 H   0  0  0  0  0  0  0  0  0  0  0  0
   -1.2983   -1.0301   -1.7862 C   0  0  0  0  0  0  0  0  0  0  0  0
   -0.9226   -0.5496   -2.6958 H   0  0  0  0  0  0  0  0  0  0  0  0
   -1.1506   -2.1082   -1.9095 H   0  0  0  0  0  0  0  0  0  0  0  0
   -2.8162   -0.7920   -1.6872 C   0  0  0  0  0  0  0  0  0  0  0  0
   -3.2807   -1.5619   -1.0666 H   0  0  0  0  0  0  0  0  0  0  0  0
   -3.0115    0.1877   -1.2390 H   0  0  0  0  0  0  0  0  0  0  0  0
   -3.4608   -0.8436   -3.0702 C   0  0  0  0  0  0  0  0  0  0  0  0
   -3.0678   -0.0348   -3.6964 H   0  0  0  0  0  0  0  0  0  0  0  0
   -3.2265   -1.7963   -3.5579 H   0  0  0  0  0  0  0  0  0  0  0  0
   -4.9127   -0.7002   -2.9229 N   0  0  0  0  0  0  0  0  0  0  0  0
   -5.3768   -0.6854   -3.8311 H   0  0  0  0  0  0  0  0  0  0  0  0
   -5.2968   -1.4348   -2.3297 H   0  0  0  0  0  0  0  0  0  0  0  0
   -1.0791    0.9591    1.3136 C   0  0  0  0  0  0  0  0  0  0  0  0
   -2.1266    1.5530    1.0857 O   0  0  0  0  0  0  0  0  0  0  0  0
   -0.0887    1.5920    2.0429 N   0  0  0  0  0  0  0  0  0  0  0  0
    0.7405    1.0535    2.2768 H   0  0  0  0  0  0  0  0  0  0  0  0
   -0.2232    2.9453    2.5687 C   0  0  0  0  0  0  0  0  0  0  0  0
   -1.0678    3.0048    3.2632 H   0  0  0  0  0  0  0  0  0  0  0  0
    0.6859    3.2350    3.1042 H   0  0  0  0  0  0  0  0  0  0  0  0
   -0.3855    3.6585    1.7538 H   0  0  0  0  0  0  0  0  0  0  0  0
  1  2  1  0  0  0  0
  2  3  1  0  0  0  0
  2  4  1  0  0  0  0
  2  5  1  0  0  0  0
  5  6  2  0  0  0  0
  5  7  1  0  0  0  0
  7  8  1  0  0  0  0
  7  9  1  0  0  0  0
  9 10  1  0  0  0  0
  9 11  1  0  0  0  0
  9 26  1  0  0  0  0
 11 12  1  0  0  0  0
 11 13  1  0  0  0  0
 11 14  1  0  0  0  0
 14 15  1  0  0  0  0
 14 16  1  0  0  0  0
 14 17  1  0  0  0  0
 17 18  1  0  0  0  0
 17 19  1  0  0  0  0
 17 20  1  0  0  0  0
 20 21  1  0  0  0  0
 20 22  1  0  0  0  0
 20 23  1  0  0  0  0
 23 24  1  0  0  0  0
 23 25  1  0  0  0  0
 26 27  2  0  0  0  0
 26 28  1  0  0  0  0
 28 29  1  0  0  0  0
 28 30  1  0  0  0  0
 30 31  1  0  0  0  0
 30 32  1  0  0  0  0
 30 33  1  0  0  0  0
M  END
$$$$

  -OEChem-03222214063D

 33 32  0     1  0  0  0  0  0999 V2000
   -3.5015   -4.1035    2.2594 H   0  0  0  0  0  0  0  0  0  0  0  0
   -3.6064   -3.0992    1.8397 C   0  0  0  0  0  0  0  0  0  0  0  0
   -4.1508   -2.4745    2.5521 H   0  0  0  0  0  0  0  0  0  0  0  0
   -4.1777   -3.1632    0.9106 H   0  0  0  0  0  0  0  0  0  0  0  0
   -2.2394   -2.5009    1.5667 C   0  0  0  0  0  0  0  0  0  0  0  0
   -1.2306   -3.1352    1.8333 O   0  0  0  0  0  0  0  0  0  0  0  0
   -2.1451   -1.2395    1.0200 N   0  0  0  0  0  0  0  0  0  0  0  0
   -3.0093   -0.7160    0.8874 H   0  0  0  0  0  0  0  0  0  0  0  0
   -0.8939   -0.5037    0.8094 C   0  0  1  0  0  0  0  0  0  0  0  0
   -0.1188   -0.9348    1.4513 H   0  0  0  0  0  0  0  0  0  0  0  0
   -0.3617   -0.5474   -0.6494 C   0  0  0  0  0  0  0  0  0  0  0  0
    0.0091    0.4509   -0.9063 H   0  0  0  0  0  0  0  0  0  0  0  0
    0.5079   -1.2128   -0.6564 H   0  0  0  0  0  0  0  0  0  0  0  0
   -1.2781   -1.0041   -1.8102 C   0  0  0  0  0  0  0  0  0  0  0  0
   -0.7699   -0.7496   -2.7463 H   0  0  0  0  0  0  0  0  0  0  0  0
   -1.3627   -2.0952   -1.7727 H   0  0  0  0  0  0  0  0  0  0  0  0
   -2.7042   -0.4213   -1.8386 C   0  0  0  0  0  0  0  0  0  0  0  0
   -3.3423   -0.8988   -1.0941 H   0  0  0  0  0  0  0  0  0  0  0  0
   -2.6666    0.6516   -1.6229 H   0  0  0  0  0  0  0  0  0  0  0  0
   -3.3366   -0.6357   -3.2115 C   0  0  0  0  0  0  0  0  0  0  0  0
   -2.7400   -0.1366   -3.9830 H   0  0  0  0  0  0  0  0  0  0  0  0
   -3.3678   -1.7057   -3.4451 H   0  0  0  0  0  0  0  0  0  0  0  0
   -4.6946   -0.0837   -3.1991 N   0  0  0  0  0  0  0  0  0  0  0  0
   -5.1567   -0.2136   -4.0989 H   0  0  0  0  0  0  0  0  0  0  0  0
   -5.2482   -0.4833   -2.4421 H   0  0  0  0  0  0  0  0  0  0  0  0
   -1.0769    0.9543    1.2806 C   0  0  0  0  0  0  0  0  0  0  0  0
   -2.1264    1.5472    1.0585 O   0  0  0  0  0  0  0  0  0  0  0  0
   -0.1036    1.5682    2.0478 N   0  0  0  0  0  0  0  0  0  0  0  0
    0.7224    1.0255    2.2832 H   0  0  0  0  0  0  0  0  0  0  0  0
   -0.2588    2.9007    2.6182 C   0  0  0  0  0  0  0  0  0  0  0  0
   -1.0864    2.9153    3.3351 H   0  0  0  0  0  0  0  0  0  0  0  0
    0.6563    3.1987    3.1387 H   0  0  0  0  0  0  0  0  0  0  0  0
   -0.4614    3.6340    1.8305 H   0  0  0  0  0  0  0  0  0  0  0  0
  1  2  1  0  0  0  0
  2  3  1  0  0  0  0
  2  4  1  0  0  0  0
  2  5  1  0  0  0  0
  5  6  2  0  0  0  0
  5  7  1  0  0  0  0
  7  8  1  0  0  0  0
  7  9  1  0  0  0  0
  9 10  1  0  0  0  0
  9 11  1  0  0  0  0
  9 26  1  0  0  0  0
 11 12  1  0  0  0  0
 11 13  1  0  0  0  0
 11 14  1  0  0  0  0
 14 15  1  0  0  0  0
 14 16  1  0  0  0  0
 14 17  1  0  0  0  0
 17 18  1  0  0  0  0
 17 19  1  0  0  0  0
 17 20  1  0  0  0  0
 20 21  1  0  0  0  0
 20 22  1  0  0  0  0
 20 23  1  0  0  0  0
 23 24  1  0  0  0  0
 23 25  1  0  0  0  0
 26 27  2  0  0  0  0
 26 28  1  0  0  0  0
 28 29  1  0  0  0  0
 28 30  1  0  0  0  0
 30 31  1  0  0  0  0
 30 32  1  0  0  0  0
 30 33  1  0  0  0  0
M  END
$$$$

  -OEChem-03222214063D

 33 32  0     1  0  0  0  0  0999 V2000
   -3.5885   -4.0959    2.0063 H   0  0  0  0  0  0  0  0  0  0  0  0
   -3.6624   -3.0940    1.5744 C   0  0  0  0  0  0  0  0  0  0  0  0
   -4.2587   -2.4665    2.2412 H   0  0  0  0  0  0  0  0  0  0  0  0
   -4.1622   -3.1627    0.6051 H   0  0  0  0  0  0  0  0  0  0  0  0
   -2.2797   -2.4954    1.4011 C   0  0  0  0  0  0  0  0  0  0  0  0
   -1.2908   -3.1367    1.7199 O   0  0  0  0  0  0  0  0  0  0  0  0
   -2.1488   -1.2258    0.8813 N   0  0  0  0  0  0  0  0  0  0  0  0
   -3.0020   -0.6954    0.7123 H   0  0  0  0  0  0  0  0  0  0  0  0
   -0.8817   -0.4905    0.7634 C   0  0  1  0  0  0  0  0  0  0  0  0
   -0.1461   -0.9362    1.4411 H   0  0  0  0  0  0  0  0  0  0  0  0
   -0.2778   -0.5192   -0.6662 C   0  0  0  0  0  0  0  0  0  0  0  0
    0.1288    0.4696   -0.9046 H   0  0  0  0  0  0  0  0  0  0  0  0
    0.5700   -1.2113   -0.6444 H   0  0  0  0  0  0  0  0  0  0  0  0
   -1.1839   -0.9615   -1.8342 C   0  0  0  0  0  0  0  0  0  0  0  0
   -0.5891   -0.9472   -2.7534 H   0  0  0  0  0  0  0  0  0  0  0  0
   -1.5000   -1.9964   -1.6662 H   0  0  0  0  0  0  0  0  0  0  0  0
   -2.4283   -0.0783   -2.0361 C   0  0  0  0  0  0  0  0  0  0  0  0
   -3.0686   -0.0786   -1.1528 H   0  0  0  0  0  0  0  0  0  0  0  0
   -2.1098    0.9544   -2.2123 H   0  0  0  0  0  0  0  0  0  0  0  0
   -3.2417   -0.5687   -3.2303 C   0  0  0  0  0  0  0  0  0  0  0  0
   -2.6162   -0.5934   -4.1297 H   0  0  0  0  0  0  0  0  0  0  0  0
   -3.6060   -1.5845   -3.0409 H   0  0  0  0  0  0  0  0  0  0  0  0
   -4.3707    0.3431   -3.4356 N   0  0  0  0  0  0  0  0  0  0  0  0
   -4.9813    0.0170   -4.1844 H   0  0  0  0  0  0  0  0  0  0  0  0
   -4.8927    0.4844   -2.5707 H   0  0  0  0  0  0  0  0  0  0  0  0
   -1.0844    0.9620    1.2437 C   0  0  0  0  0  0  0  0  0  0  0  0
   -2.1168    1.5635    0.9688 O   0  0  0  0  0  0  0  0  0  0  0  0
   -0.1582    1.5581    2.0802 N   0  0  0  0  0  0  0  0  0  0  0  0
    0.6536    1.0104    2.3510 H   0  0  0  0  0  0  0  0  0  0  0  0
   -0.3307    2.8916    2.6437 C   0  0  0  0  0  0  0  0  0  0  0  0
   -1.2205    2.9261    3.2811 H   0  0  0  0  0  0  0  0  0  0  0  0
    0.5396    3.1622    3.2490 H   0  0  0  0  0  0  0  0  0  0  0  0
   -0.4398    3.6334    1.8454 H   0  0  0  0  0  0  0  0  0  0  0  0
  1  2  1  0  0  0  0
  2  3  1  0  0  0  0
  2  4  1  0  0  0  0
  2  5  1  0  0  0  0
  5  6  2  0  0  0  0
  5  7  1  0  0  0  0
  7  8  1  0  0  0  0
  7  9  1  0  0  0  0
  9 10  1  0  0  0  0
  9 11  1  0  0  0  0
  9 26  1  0  0  0  0
 11 12  1  0  0  0  0
 11 13  1  0  0  0  0
 11 14  1  0  0  0  0
 14 15  1  0  0  0  0
 14 16  1  0  0  0  0
 14 17  1  0  0  0  0
 17 18  1  0  0  0  0
 17 19  1  0  0  0  0
 17 20  1  0  0  0  0
 20 21  1  0  0  0  0
 20 22  1  0  0  0  0
 20 23  1  0  0  0  0
 23 24  1  0  0  0  0
 23 25  1  0  0  0  0
 26 27  2  0  0  0  0
 26 28  1  0  0  0  0
 28 29  1  0  0  0  0
 28 30  1  0  0  0  0
 30 31  1  0  0  0  0
 30 32  1  0  0  0  0
 30 33  1  0  0  0  0
M  END
$$$$

  -OEChem-03222214063D

 33 32  0     1  0  0  0  0  0999 V2000
   -3.6050   -4.0867    1.9893 H   0  0  0  0  0  0  0  0  0  0  0  0
   -3.6761   -3.1004    1.5224 C   0  0  0  0  0  0  0  0  0  0  0  0
   -4.2947   -2.4566    2.1523 H   0  0  0  0  0  0  0  0  0  0  0  0
   -4.1508   -3.2066    0.5440 H   0  0  0  0  0  0  0  0  0  0  0  0
   -2.2936   -2.4967    1.3632 C   0  0  0  0  0  0  0  0  0  0  0  0
   -1.3070   -3.1321    1.7007 O   0  0  0  0  0  0  0  0  0  0  0  0
   -2.1584   -1.2311    0.8335 N   0  0  0  0  0  0  0  0  0  0  0  0
   -3.0101   -0.7035    0.6486 H   0  0  0  0  0  0  0  0  0  0  0  0
   -0.8906   -0.4921    0.7358 C   0  0  1  0  0  0  0  0  0  0  0  0
   -0.1690   -0.9287    1.4340 H   0  0  0  0  0  0  0  0  0  0  0  0
   -0.2556   -0.5372   -0.6794 C   0  0  0  0  0  0  0  0  0  0  0  0
    0.1718    0.4399   -0.9292 H   0  0  0  0  0  0  0  0  0  0  0  0
    0.5801   -1.2424   -0.6291 H   0  0  0  0  0  0  0  0  0  0  0  0
   -1.1610   -1.0049   -1.8359 C   0  0  0  0  0  0  0  0  0  0  0  0
   -0.5244   -1.2265   -2.6987 H   0  0  0  0  0  0  0  0  0  0  0  0
   -1.6767   -1.9339   -1.5740 H   0  0  0  0  0  0  0  0  0  0  0  0
   -2.1696    0.0766   -2.2446 C   0  0  0  0  0  0  0  0  0  0  0  0
   -2.8177    0.3243   -1.3996 H   0  0  0  0  0  0  0  0  0  0  0  0
   -1.6333    0.9860   -2.5349 H   0  0  0  0  0  0  0  0  0  0  0  0
   -3.0313   -0.3961   -3.4112 C   0  0  0  0  0  0  0  0  0  0  0  0
   -2.3980   -0.6843   -4.2576 H   0  0  0  0  0  0  0  0  0  0  0  0
   -3.6181   -1.2713   -3.1111 H   0  0  0  0  0  0  0  0  0  0  0  0
   -3.9206    0.7001   -3.8057 N   0  0  0  0  0  0  0  0  0  0  0  0
   -4.5709    0.4085   -4.5350 H   0  0  0  0  0  0  0  0  0  0  0  0
   -4.4187    1.0776   -2.9990 H   0  0  0  0  0  0  0  0  0  0  0  0
   -1.1037    0.9653    1.1972 C   0  0  0  0  0  0  0  0  0  0  0  0
   -2.1359    1.5601    0.9072 O   0  0  0  0  0  0  0  0  0  0  0  0
   -0.1940    1.5684    2.0465 N   0  0  0  0  0  0  0  0  0  0  0  0
    0.6187    1.0273    2.3276 H   0  0  0  0  0  0  0  0  0  0  0  0
   -0.3805    2.9030    2.6028 C   0  0  0  0  0  0  0  0  0  0  0  0
   -1.2977    2.9453    3.1998 H   0  0  0  0  0  0  0  0  0  0  0  0
    0.4637    3.1651    3.2478 H   0  0  0  0  0  0  0  0  0  0  0  0
   -0.4474    3.6458    1.8010 H   0  0  0  0  0  0  0  0  0  0  0  0
  1  2  1  0  0  0  0
  2  3  1  0  0  0  0
  2  4  1  0  0  0  0
  2  5  1  0  0  0  0
  5  6  2  0  0  0  0
  5  7  1  0  0  0  0
  7  8  1  0  0  0  0
  7  9  1  0  0  0  0
  9 10  1  0  0  0  0
  9 11  1  0  0  0  0
  9 26  1  0  0  0  0
 11 12  1  0  0  0  0
 11 13  1  0  0  0  0
 11 14  1  0  0  0  0
 14 15  1  0  0  0  0
 14 16  1  0  0  0  0
 14 17  1  0  0  0  0
 17 18  1  0  0  0  0
 17 19  1  0  0  0  0
 17 20  1  0  0  0  0
 20 21  1  0  0  0  0
 20 22  1  0  0  0  0
 20 23  1  0  0  0  0
 23 24  1  0  0  0  0
 23 25  1  0  0  0  0
 26 27  2  0  0  0  0
 26 28  1  0  0  0  0
 28 29  1  0  0  0  0
 28 30  1  0  0  0  0
 30 31  1  0  0  0  0
 30 32  1  0  0  0  0
 30 33  1  0  0  0  0
M  END
$$$$

  -OEChem-03222214063D

 33 32  0     1  0  0  0  0  0999 V2000
   -3.6171   -4.0942    2.0192 H   0  0  0  0  0  0  0  0  0  0  0  0
   -3.6858   -3.1113    1.5446 C   0  0  0  0  0  0  0  0  0  0  0  0
   -4.3043   -2.4613    2.1682 H   0  0  0  0  0  0  0  0  0  0  0  0
   -4.1587   -3.2243    0.5662 H   0  0  0  0  0  0  0  0  0  0  0  0
   -2.3023   -2.5108    1.3837 C   0  0  0  0  0  0  0  0  0  0  0  0
   -1.3181   -3.1400    1.7390 O   0  0  0  0  0  0  0  0  0  0  0  0
   -2.1636   -1.2538    0.8348 N   0  0  0  0  0  0  0  0  0  0  0  0
   -3.0139   -0.7269    0.6411 H   0  0  0  0  0  0  0  0  0  0  0  0
   -0.8940   -0.5196    0.7294 C   0  0  1  0  0  0  0  0  0  0  0  0
   -0.1714   -0.9463    1.4329 H   0  0  0  0  0  0  0  0  0  0  0  0
   -0.2558   -0.5603   -0.6852 C   0  0  0  0  0  0  0  0  0  0  0  0
    0.1965    0.4078   -0.9265 H   0  0  0  0  0  0  0  0  0  0  0  0
    0.5673   -1.2801   -0.6280 H   0  0  0  0  0  0  0  0  0  0  0  0
   -1.1540   -1.0218   -1.8527 C   0  0  0  0  0  0  0  0  0  0  0  0
   -0.5105   -1.4672   -2.6185 H   0  0  0  0  0  0  0  0  0  0  0  0
   -1.8602   -1.7994   -1.5506 H   0  0  0  0  0  0  0  0  0  0  0  0
   -1.8827    0.1692   -2.4856 C   0  0  0  0  0  0  0  0  0  0  0  0
   -2.5029    0.6627   -1.7311 H   0  0  0  0  0  0  0  0  0  0  0  0
   -1.1514    0.8977   -2.8508 H   0  0  0  0  0  0  0  0  0  0  0  0
   -2.7660   -0.2826   -3.6437 C   0  0  0  0  0  0  0  0  0  0  0  0
   -2.1632   -0.7962   -4.4009 H   0  0  0  0  0  0  0  0  0  0  0  0
   -3.5275   -0.9823   -3.2819 H   0  0  0  0  0  0  0  0  0  0  0  0
   -3.4022    0.9008   -4.2296 N   0  0  0  0  0  0  0  0  0  0  0  0
   -4.0481    0.6444   -4.9759 H   0  0  0  0  0  0  0  0  0  0  0  0
   -3.8724    1.4552   -3.5132 H   0  0  0  0  0  0  0  0  0  0  0  0
   -1.1189    0.9422    1.1704 C   0  0  0  0  0  0  0  0  0  0  0  0
   -2.1485    1.5288    0.8542 O   0  0  0  0  0  0  0  0  0  0  0  0
   -0.2195    1.5651    2.0163 N   0  0  0  0  0  0  0  0  0  0  0  0
    0.5939    1.0339    2.3137 H   0  0  0  0  0  0  0  0  0  0  0  0
   -0.4160    2.9100    2.5433 C   0  0  0  0  0  0  0  0  0  0  0  0
   -1.3391    2.9596    3.1303 H   0  0  0  0  0  0  0  0  0  0  0  0
    0.4209    3.1890    3.1906 H   0  0  0  0  0  0  0  0  0  0  0  0
   -0.4779    3.6367    1.7265 H   0  0  0  0  0  0  0  0  0  0  0  0
  1  2  1  0  0  0  0
  2  3  1  0  0  0  0
  2  4  1  0  0  0  0
  2  5  1  0  0  0  0
  5  6  2  0  0  0  0
  5  7  1  0  0  0  0
  7  8  1  0  0  0  0
  7  9  1  0  0  0  0
  9 10  1  0  0  0  0
  9 11  1  0  0  0  0
  9 26  1  0  0  0  0
 11 12  1  0  0  0  0
 11 13  1  0  0  0  0
 11 14  1  0  0  0  0
 14 15  1  0  0  0  0
 14 16  1  0  0  0  0
 14 17  1  0  0  0  0
 17 18  1  0  0  0  0
 17 19  1  0  0  0  0
 17 20  1  0  0  0  0
 20 21  1  0  0  0  0
 20 22  1  0  0  0  0
 20 23  1  0  0  0  0
 23 24  1  0  0  0  0
 23 25  1  0  0  0  0
 26 27  2  0  0  0  0
 26 28  1  0  0  0  0
 28 29  1  0  0  0  0
 28 30  1  0  0  0  0
 30 31  1  0  0  0  0
 30 32  1  0  0  0  0
 30 33  1  0  0  0  0
M  END
$$$$

  -OEChem-03222214063D

 33 32  0     1  0  0  0  0  0999 V2000
   -3.6290   -4.0976    2.0662 H   0  0  0  0  0  0  0  0  0  0  0  0
   -3.6953   -3.1187    1.5832 C   0  0  0  0  0  0  0  0  0  0  0  0
   -4.3087   -2.4605    2.2034 H   0  0  0  0  0  0  0  0  0  0  0  0
   -4.1728   -3.2387    0.6078 H   0  0  0  0  0  0  0  0  0  0  0  0
   -2.3099   -2.5252    1.4112 C   0  0  0  0  0  0  0  0  0  0  0  0
   -1.3270   -3.1516    1.7748 O   0  0  0  0  0  0  0  0  0  0  0  0
   -2.1687   -1.2760    0.8453 N   0  0  0  0  0  0  0  0  0  0  0  0
   -3.0181   -0.7500    0.6448 H   0  0  0  0  0  0  0  0  0  0  0  0
   -0.8981   -0.5461    0.7285 C   0  0  1  0  0  0  0  0  0  0  0  0
   -0.1720   -0.9648    1.4332 H   0  0  0  0  0  0  0  0  0  0  0  0
   -0.2631   -0.5818   -0.6884 C   0  0  0  0  0  0  0  0  0  0  0  0
    0.1994    0.3845   -0.9181 H   0  0  0  0  0  0  0  0  0  0  0  0
    0.5574   -1.3049   -0.6320 H   0  0  0  0  0  0  0  0  0  0  0  0
   -1.1552   -1.0354   -1.8683 C   0  0  0  0  0  0  0  0  0  0  0  0
   -0.5688   -1.7099   -2.5012 H   0  0  0  0  0  0  0  0  0  0  0  0
   -2.0346   -1.5972   -1.5475 H   0  0  0  0  0  0  0  0  0  0  0  0
   -1.5761    0.1689   -2.7184 C   0  0  0  0  0  0  0  0  0  0  0  0
   -2.1125    0.8878   -2.0902 H   0  0  0  0  0  0  0  0  0  0  0  0
   -0.6881    0.6676   -3.1208 H   0  0  0  0  0  0  0  0  0  0  0  0
   -2.4766   -0.2642   -3.8707 C   0  0  0  0  0  0  0  0  0  0  0  0
   -1.9545   -0.9878   -4.5065 H   0  0  0  0  0  0  0  0  0  0  0  0
   -3.3804   -0.7440   -3.4792 H   0  0  0  0  0  0  0  0  0  0  0  0
   -2.8336    0.9235   -4.6519 N   0  0  0  0  0  0  0  0  0  0  0  0
   -3.4647    0.6879   -5.4174 H   0  0  0  0  0  0  0  0  0  0  0  0
   -3.2388    1.6447   -4.0541 H   0  0  0  0  0  0  0  0  0  0  0  0
   -1.1311    0.9191    1.1519 C   0  0  0  0  0  0  0  0  0  0  0  0
   -2.1534    1.5021    0.8059 O   0  0  0  0  0  0  0  0  0  0  0  0
   -0.2370    1.5581    1.9911 N   0  0  0  0  0  0  0  0  0  0  0  0
    0.5720    1.0311    2.3074 H   0  0  0  0  0  0  0  0  0  0  0  0
   -0.4315    2.9162    2.4837 C   0  0  0  0  0  0  0  0  0  0  0  0
   -1.3570    2.9843    3.0651 H   0  0  0  0  0  0  0  0  0  0  0  0
    0.4035    3.2082    3.1280 H   0  0  0  0  0  0  0  0  0  0  0  0
   -0.4870    3.6222    1.6483 H   0  0  0  0  0  0  0  0  0  0  0  0
  1  2  1  0  0  0  0
  2  3  1  0  0  0  0
  2  4  1  0  0  0  0
  2  5  1  0  0  0  0
  5  6  2  0  0  0  0
  5  7  1  0  0  0  0
  7  8  1  0  0  0  0
  7  9  1  0  0  0  0
  9 10  1  0  0  0  0
  9 11  1  0  0  0  0
  9 26  1  0  0  0  0
 11 12  1  0  0  0  0
 11 13  1  0  0  0  0
 11 14  1  0  0  0  0
 14 15  1  0  0  0  0
 14 16  1  0  0  0  0
 14 17  1  0  0  0  0
 17 18  1  0  0  0  0
 17 19  1  0  0  0  0
 17 20  1  0  0  0  0
 20 21  1  0  0  0  0
 20 22  1  0  0  0  0
 20 23  1  0  0  0  0
 23 24  1  0  0  0  0
 23 25  1  0  0  0  0
 26 27  2  0  0  0  0
 26 28  1  0  0  0  0
 28 29  1  0  0  0  0
 28 30  1  0  0  0  0
 30 31  1  0  0  0  0
 30 32  1  0  0  0  0
 30 33  1  0  0  0  0
M  END
$$$$

  -OEChem-03222214063D

 33 32  0     1  0  0  0  0  0999 V2000
   -3.6307   -4.0944    2.1104 H   0  0  0  0  0  0  0  0  0  0  0  0
   -3.7001   -3.1288    1.6017 C   0  0  0  0  0  0  0  0  0  0  0  0
   -4.3238   -2.4597    2.1995 H   0  0  0  0  0  0  0  0  0  0  0  0
   -4.1680   -3.2769    0.6255 H   0  0  0  0  0  0  0  0  0  0  0  0
   -2.3176   -2.5300    1.4263 C   0  0  0  0  0  0  0  0  0  0  0  0
   -1.3320   -3.1542    1.7865 O   0  0  0  0  0  0  0  0  0  0  0  0
   -2.1816   -1.2808    0.8591 N   0  0  0  0  0  0  0  0  0  0  0  0
   -3.0329   -0.7561    0.6633 H   0  0  0  0  0  0  0  0  0  0  0  0
   -0.9108   -0.5521    0.7326 C   0  0  1  0  0  0  0  0  0  0  0  0
   -0.1800   -0.9721    1.4315 H   0  0  0  0  0  0  0  0  0  0  0  0
   -0.2848   -0.5889   -0.6885 C   0  0  0  0  0  0  0  0  0  0  0  0
    0.1634    0.3853   -0.9139 H   0  0  0  0  0  0  0  0  0  0  0  0
    0.5472   -1.2993   -0.6438 H   0  0  0  0  0  0  0  0  0  0  0  0
   -1.1823   -1.0409   -1.8676 C   0  0  0  0  0  0  0  0  0  0  0  0
   -0.7374   -1.9285   -2.3300 H   0  0  0  0  0  0  0  0  0  0  0  0
   -2.1888   -1.3180   -1.5493 H   0  0  0  0  0  0  0  0  0  0  0  0
   -1.2957    0.0730   -2.9155 C   0  0  0  0  0  0  0  0  0  0  0  0
   -1.7191    0.9694   -2.4502 H   0  0  0  0  0  0  0  0  0  0  0  0
   -0.2998    0.3251   -3.2948 H   0  0  0  0  0  0  0  0  0  0  0  0
   -2.1829   -0.3593   -4.0787 C   0  0  0  0  0  0  0  0  0  0  0  0
   -1.7750   -1.2610   -4.5489 H   0  0  0  0  0  0  0  0  0  0  0  0
   -3.1907   -0.5904   -3.7160 H   0  0  0  0  0  0  0  0  0  0  0  0
   -2.2357    0.7333   -5.0543 N   0  0  0  0  0  0  0  0  0  0  0  0
   -2.8318    0.4939   -5.8464 H   0  0  0  0  0  0  0  0  0  0  0  0
   -2.5459    1.6000   -4.6142 H   0  0  0  0  0  0  0  0  0  0  0  0
   -1.1366    0.9135    1.1575 C   0  0  0  0  0  0  0  0  0  0  0  0
   -2.1531    1.5031    0.8062 O   0  0  0  0  0  0  0  0  0  0  0  0
   -0.2343    1.5505    1.9893 N   0  0  0  0  0  0  0  0  0  0  0  0
    0.5799    1.0242    2.2934 H   0  0  0  0  0  0  0  0  0  0  0  0
   -0.4038    2.9216    2.4542 C   0  0  0  0  0  0  0  0  0  0  0  0
   -1.3404    3.0248    3.0121 H   0  0  0  0  0  0  0  0  0  0  0  0
    0.4233    3.2022    3.1134 H   0  0  0  0  0  0  0  0  0  0  0  0
   -0.4208    3.6139    1.6059 H   0  0  0  0  0  0  0  0  0  0  0  0
  1  2  1  0  0  0  0
  2  3  1  0  0  0  0
  2  4  1  0  0  0  0
  2  5  1  0  0  0  0
  5  6  2  0  0  0  0
  5  7  1  0  0  0  0
  7  8  1  0  0  0  0
  7  9  1  0  0  0  0
  9 10  1  0  0  0  0
  9 11  1  0  0  0  0
  9 26  1  0  0  0  0
 11 12  1  0  0  0  0
 11 13  1  0  0  0  0
 11 14  1  0  0  0  0
 14 15  1  0  0  0  0
 14 16  1  0  0  0  0
 14 17  1  0  0  0  0
 17 18  1  0  0  0  0
 17 19  1  0  0  0  0
 17 20  1  0  0  0  0
 20 21  1  0  0  0  0
 20 22  1  0  0  0  0
 20 23  1  0  0  0  0
 23 24  1  0  0  0  0
 23 25  1  0  0  0  0
 26 27  2  0  0  0  0
 26 28  1  0  0  0  0
 28 29  1  0  0  0  0
 28 30  1  0  0  0  0
 30 31  1  0  0  0  0
 30 32  1  0  0  0  0
 30 33  1  0  0  0  0
M  END
$$$$

  -OEChem-03222214063D

 33 32  0     1  0  0  0  0  0999 V2000
   -3.6548   -4.0744    2.0738 H   0  0  0  0  0  0  0  0  0  0  0  0
   -3.7172   -3.1009    1.5794 C   0  0  0  0  0  0  0  0  0  0  0  0
   -4.3312   -2.4345    2.1901 H   0  0  0  0  0  0  0  0  0  0  0  0
   -4.1918   -3.2312    0.6039 H   0  0  0  0  0  0  0  0  0  0  0  0
   -2.3294   -2.5133    1.4050 C   0  0  0  0  0  0  0  0  0  0  0  0
   -1.3494   -3.1475    1.7629 O   0  0  0  0  0  0  0  0  0  0  0  0
   -2.1816   -1.2630    0.8424 N   0  0  0  0  0  0  0  0  0  0  0  0
   -3.0283   -0.7285    0.6532 H   0  0  0  0  0  0  0  0  0  0  0  0
   -0.9042   -0.5427    0.7251 C   0  0  1  0  0  0  0  0  0  0  0  0
   -0.1794   -0.9704    1.4256 H   0  0  0  0  0  0  0  0  0  0  0  0
   -0.2784   -0.5916   -0.6952 C   0  0  0  0  0  0  0  0  0  0  0  0
    0.1432    0.3935   -0.9246 H   0  0  0  0  0  0  0  0  0  0  0  0
    0.5673   -1.2861   -0.6640 H   0  0  0  0  0  0  0  0  0  0  0  0
   -1.1952   -1.0426   -1.8567 C   0  0  0  0  0  0  0  0  0  0  0  0
   -0.9656   -2.0799   -2.1217 H   0  0  0  0  0  0  0  0  0  0  0  0
   -2.2500   -0.9973   -1.5752 H   0  0  0  0  0  0  0  0  0  0  0  0
   -1.0205   -0.1233   -3.0717 C   0  0  0  0  0  0  0  0  0  0  0  0
   -1.2782    0.9044   -2.7945 H   0  0  0  0  0  0  0  0  0  0  0  0
    0.0259   -0.1362   -3.3942 H   0  0  0  0  0  0  0  0  0  0  0  0
   -1.9085   -0.5732   -4.2277 C   0  0  0  0  0  0  0  0  0  0  0  0
   -1.6551   -1.5987   -4.5187 H   0  0  0  0  0  0  0  0  0  0  0  0
   -2.9604   -0.5558   -3.9217 H   0  0  0  0  0  0  0  0  0  0  0  0
   -1.6971    0.3349   -5.3590 N   0  0  0  0  0  0  0  0  0  0  0  0
   -2.2783    0.0741   -6.1556 H   0  0  0  0  0  0  0  0  0  0  0  0
   -1.8667    1.3033   -5.0862 H   0  0  0  0  0  0  0  0  0  0  0  0
   -1.1191    0.9239    1.1529 C   0  0  0  0  0  0  0  0  0  0  0  0
   -2.1291    1.5226    0.7982 O   0  0  0  0  0  0  0  0  0  0  0  0
   -0.2155    1.5509    1.9910 N   0  0  0  0  0  0  0  0  0  0  0  0
    0.5888    1.0142    2.3035 H   0  0  0  0  0  0  0  0  0  0  0  0
   -0.3849    2.9157    2.4740 C   0  0  0  0  0  0  0  0  0  0  0  0
   -1.3155    3.0081    3.0438 H   0  0  0  0  0  0  0  0  0  0  0  0
    0.4488    3.1917    3.1271 H   0  0  0  0  0  0  0  0  0  0  0  0
   -0.4140    3.6181    1.6344 H   0  0  0  0  0  0  0  0  0  0  0  0
  1  2  1  0  0  0  0
  2  3  1  0  0  0  0
  2  4  1  0  0  0  0
  2  5  1  0  0  0  0
  5  6  2  0  0  0  0
  5  7  1  0  0  0  0
  7  8  1  0  0  0  0
  7  9  1  0  0  0  0
  9 10  1  0  0  0  0
  9 11  1  0  0  0  0
  9 26  1  0  0  0  0
 11 12  1  0  0  0  0
 11 13  1  0  0  0  0
 11 14  1  0  0  0  0
 14 15  1  0  0  0  0
 14 16  1  0  0  0  0
 14 17  1  0  0  0  0
 17 18  1  0  0  0  0
 17 19  1  0  0  0  0
 17 20  1  0  0  0  0
 20 21  1  0  0  0  0
 20 22  1  0  0  0  0
 20 23  1  0  0  0  0
 23 24  1  0  0  0  0
 23 25  1  0  0  0  0
 26 27  2  0  0  0  0
 26 28  1  0  0  0  0
 28 29  1  0  0  0  0
 28 30  1  0  0  0  0
 30 31  1  0  0  0  0
 30 32  1  0  0  0  0
 30 33  1  0  0  0  0
M  END
$$$$

  -OEChem-03222214063D

 33 32  0     1  0  0  0  0  0999 V2000
   -3.6865   -4.0537    2.0017 H   0  0  0  0  0  0  0  0  0  0  0  0
   -3.7320   -3.0779    1.5100 C   0  0  0  0  0  0  0  0  0  0  0  0
   -4.3571   -2.4109    2.1085 H   0  0  0  0  0  0  0  0  0  0  0  0
   -4.1836   -3.2011    0.5227 H   0  0  0  0  0  0  0  0  0  0  0  0
   -2.3379   -2.4959    1.3717 C   0  0  0  0  0  0  0  0  0  0  0  0
   -1.3689   -3.1341    1.7517 O   0  0  0  0  0  0  0  0  0  0  0  0
   -2.1731   -1.2443    0.8176 N   0  0  0  0  0  0  0  0  0  0  0  0
   -3.0131   -0.7079    0.6066 H   0  0  0  0  0  0  0  0  0  0  0  0
   -0.8898   -0.5304    0.7256 C   0  0  1  0  0  0  0  0  0  0  0  0
   -0.1758   -0.9670    1.4317 H   0  0  0  0  0  0  0  0  0  0  0  0
   -0.2571   -0.5869   -0.6901 C   0  0  0  0  0  0  0  0  0  0  0  0
    0.1551    0.4001   -0.9280 H   0  0  0  0  0  0  0  0  0  0  0  0
    0.5887   -1.2815   -0.6641 H   0  0  0  0  0  0  0  0  0  0  0  0
   -1.1943   -1.0341   -1.8309 C   0  0  0  0  0  0  0  0  0  0  0  0
   -1.1893   -2.1266   -1.9066 H   0  0  0  0  0  0  0  0  0  0  0  0
   -2.2199   -0.7114   -1.6271 H   0  0  0  0  0  0  0  0  0  0  0  0
   -0.7810   -0.3896   -3.1595 C   0  0  0  0  0  0  0  0  0  0  0  0
   -0.8378    0.7006   -3.0742 H   0  0  0  0  0  0  0  0  0  0  0  0
    0.2551   -0.6587   -3.3904 H   0  0  0  0  0  0  0  0  0  0  0  0
   -1.6874   -0.8566   -4.2945 C   0  0  0  0  0  0  0  0  0  0  0  0
   -1.6330   -1.9466   -4.3935 H   0  0  0  0  0  0  0  0  0  0  0  0
   -2.7272   -0.5852   -4.0805 H   0  0  0  0  0  0  0  0  0  0  0  0
   -1.2455   -0.2193   -5.5385 N   0  0  0  0  0  0  0  0  0  0  0  0
   -1.8265   -0.5048   -6.3266 H   0  0  0  0  0  0  0  0  0  0  0  0
   -1.2338    0.7964   -5.4446 H   0  0  0  0  0  0  0  0  0  0  0  0
   -1.0987    0.9362    1.1555 C   0  0  0  0  0  0  0  0  0  0  0  0
   -2.0950    1.5468    0.7833 O   0  0  0  0  0  0  0  0  0  0  0  0
   -0.2032    1.5513    2.0106 N   0  0  0  0  0  0  0  0  0  0  0  0
    0.5868    1.0033    2.3396 H   0  0  0  0  0  0  0  0  0  0  0  0
   -0.3641    2.9178    2.4921 C   0  0  0  0  0  0  0  0  0  0  0  0
   -1.3041    3.0220    3.0443 H   0  0  0  0  0  0  0  0  0  0  0  0
    0.4606    3.1825    3.1608 H   0  0  0  0  0  0  0  0  0  0  0  0
   -0.3679    3.6215    1.6531 H   0  0  0  0  0  0  0  0  0  0  0  0
  1  2  1  0  0  0  0
  2  3  1  0  0  0  0
  2  4  1  0  0  0  0
  2  5  1  0  0  0  0
  5  6  2  0  0  0  0
  5  7  1  0  0  0  0
  7  8  1  0  0  0  0
  7  9  1  0  0  0  0
  9 10  1  0  0  0  0
  9 11  1  0  0  0  0
  9 26  1  0  0  0  0
 11 12  1  0  0  0  0
 11 13  1  0  0  0  0
 11 14  1  0  0  0  0
 14 15  1  0  0  0  0
 14 16  1  0  0  0  0
 14 17  1  0  0  0  0
 17 18  1  0  0  0  0
 17 19  1  0  0  0  0
 17 20  1  0  0  0  0
 20 21  1  0  0  0  0
 20 22  1  0  0  0  0
 20 23  1  0  0  0  0
 23 24  1  0  0  0  0
 23 25  1  0  0  0  0
 26 27  2  0  0  0  0
 26 28  1  0  0  0  0
 28 29  1  0  0  0  0
 28 30  1  0  0  0  0
 30 31  1  0  0  0  0
 30 32  1  0  0  0  0
 30 33  1  0  0  0  0
M  END
$$$$

  -OEChem-03222214063D

 33 32  0     1  0  0  0  0  0999 V2000
   -3.7112   -4.0358    1.9698 H   0  0  0  0  0  0  0  0  0  0  0  0
   -3.7478   -3.0622    1.4732 C   0  0  0  0  0  0  0  0  0  0  0  0
   -4.3765   -2.3901    2.0625 H   0  0  0  0  0  0  0  0  0  0  0  0
   -4.1894   -3.1888    0.4818 H   0  0  0  0  0  0  0  0  0  0  0  0
   -2.3497   -2.4869    1.3472 C   0  0  0  0  0  0  0  0  0  0  0  0
   -1.3876   -3.1305    1.7356 O   0  0  0  0  0  0  0  0  0  0  0  0
   -2.1731   -1.2342    0.7985 N   0  0  0  0  0  0  0  0  0  0  0  0
   -3.0084   -0.6942    0.5784 H   0  0  0  0  0  0  0  0  0  0  0  0
   -0.8852   -0.5254    0.7245 C   0  0  1  0  0  0  0  0  0  0  0  0
   -0.1811   -0.9684    1.4364 H   0  0  0  0  0  0  0  0  0  0  0  0
   -0.2425   -0.5847   -0.6848 C   0  0  0  0  0  0  0  0  0  0  0  0
    0.1755    0.3979   -0.9303 H   0  0  0  0  0  0  0  0  0  0  0  0
    0.5952   -1.2890   -0.6529 H   0  0  0  0  0  0  0  0  0  0  0  0
   -1.1884   -1.0282   -1.8144 C   0  0  0  0  0  0  0  0  0  0  0  0
   -1.3856   -2.1022   -1.7307 H   0  0  0  0  0  0  0  0  0  0  0  0
   -2.1416   -0.4959   -1.7265 H   0  0  0  0  0  0  0  0  0  0  0  0
   -0.5828   -0.7051   -3.1850 C   0  0  0  0  0  0  0  0  0  0  0  0
   -0.4203    0.3740   -3.2729 H   0  0  0  0  0  0  0  0  0  0  0  0
    0.3877   -1.2025   -3.2838 H   0  0  0  0  0  0  0  0  0  0  0  0
   -1.5046   -1.1717   -4.3075 C   0  0  0  0  0  0  0  0  0  0  0  0
   -1.6701   -2.2524   -4.2333 H   0  0  0  0  0  0  0  0  0  0  0  0
   -2.4762   -0.6717   -4.2268 H   0  0  0  0  0  0  0  0  0  0  0  0
   -0.8764   -0.8493   -5.5922 N   0  0  0  0  0  0  0  0  0  0  0  0
   -1.4584   -1.1496   -6.3740 H   0  0  0  0  0  0  0  0  0  0  0  0
   -0.6667    0.1468   -5.6564 H   0  0  0  0  0  0  0  0  0  0  0  0
   -1.0880    0.9418    1.1551 C   0  0  0  0  0  0  0  0  0  0  0  0
   -2.0760    1.5599    0.7733 O   0  0  0  0  0  0  0  0  0  0  0  0
   -0.1984    1.5495    2.0219 N   0  0  0  0  0  0  0  0  0  0  0  0
    0.5859    0.9971    2.3574 H   0  0  0  0  0  0  0  0  0  0  0  0
   -0.3505    2.9197    2.4949 C   0  0  0  0  0  0  0  0  0  0  0  0
   -1.2944    3.0352    3.0381 H   0  0  0  0  0  0  0  0  0  0  0  0
    0.4708    3.1798    3.1694 H   0  0  0  0  0  0  0  0  0  0  0  0
   -0.3397    3.6186    1.6519 H   0  0  0  0  0  0  0  0  0  0  0  0
  1  2  1  0  0  0  0
  2  3  1  0  0  0  0
  2  4  1  0  0  0  0
  2  5  1  0  0  0  0
  5  6  2  0  0  0  0
  5  7  1  0  0  0  0
  7  8  1  0  0  0  0
  7  9  1  0  0  0  0
  9 10  1  0  0  0  0
  9 11  1  0  0  0  0
  9 26  1  0  0  0  0
 11 12  1  0  0  0  0
 11 13  1  0  0  0  0
 11 14  1  0  0  0  0
 14 15  1  0  0  0  0
 14 16  1  0  0  0  0
 14 17  1  0  0  0  0
 17 18  1  0  0  0  0
 17 19  1  0  0  0  0
 17 20  1  0  0  0  0
 20 21  1  0  0  0  0
 20 22  1  0  0  0  0
 20 23  1  0  0  0  0
 23 24  1  0  0  0  0
 23 25  1  0  0  0  0
 26 27  2  0  0  0  0
 26 28  1  0  0  0  0
 28 29  1  0  0  0  0
 28 30  1  0  0  0  0
 30 31  1  0  0  0  0
 30 32  1  0  0  0  0
 30 33  1  0  0  0  0
M  END
$$$$

  -OEChem-03222214063D

 33 32  0     1  0  0  0  0  0999 V2000
   -3.7106   -4.0396    1.9066 H   0  0  0  0  0  0  0  0  0  0  0  0
   -3.7394   -3.0605    1.4204 C   0  0  0  0  0  0  0  0  0  0  0  0
   -4.3832   -2.3969    2.0026 H   0  0  0  0  0  0  0  0  0  0  0  0
   -4.1582   -3.1768    0.4180 H   0  0  0  0  0  0  0  0  0  0  0  0
   -2.3412   -2.4791    1.3312 C   0  0  0  0  0  0  0  0  0  0  0  0
   -1.3865   -3.1156    1.7484 O   0  0  0  0  0  0  0  0  0  0  0  0
   -2.1572   -1.2277    0.7828 N   0  0  0  0  0  0  0  0  0  0  0  0
   -2.9888   -0.6947    0.5339 H   0  0  0  0  0  0  0  0  0  0  0  0
   -0.8699   -0.5191    0.7218 C   0  0  1  0  0  0  0  0  0  0  0  0
   -0.1663   -0.9616    1.4345 H   0  0  0  0  0  0  0  0  0  0  0  0
   -0.2315   -0.5759   -0.6855 C   0  0  0  0  0  0  0  0  0  0  0  0
    0.4236    0.2905   -0.8267 H   0  0  0  0  0  0  0  0  0  0  0  0
    0.3995   -1.4699   -0.7282 H   0  0  0  0  0  0  0  0  0  0  0  0
   -1.2377   -0.6551   -1.8467 C   0  0  0  0  0  0  0  0  0  0  0  0
   -1.8544   -1.5544   -1.7509 H   0  0  0  0  0  0  0  0  0  0  0  0
   -1.8984    0.2181   -1.8185 H   0  0  0  0  0  0  0  0  0  0  0  0
   -0.5012   -0.7054   -3.1897 C   0  0  0  0  0  0  0  0  0  0  0  0
    0.1176    0.1904   -3.3035 H   0  0  0  0  0  0  0  0  0  0  0  0
    0.1589   -1.5787   -3.2163 H   0  0  0  0  0  0  0  0  0  0  0  0
   -1.4921   -0.7881   -4.3467 C   0  0  0  0  0  0  0  0  0  0  0  0
   -2.1109   -1.6869   -4.2468 H   0  0  0  0  0  0  0  0  0  0  0  0
   -2.1551    0.0843   -4.3360 H   0  0  0  0  0  0  0  0  0  0  0  0
   -0.7406   -0.8366   -5.6045 N   0  0  0  0  0  0  0  0  0  0  0  0
   -1.3671   -0.8998   -6.4070 H   0  0  0  0  0  0  0  0  0  0  0  0
   -0.1195   -0.0322   -5.6905 H   0  0  0  0  0  0  0  0  0  0  0  0
   -1.0739    0.9492    1.1468 C   0  0  0  0  0  0  0  0  0  0  0  0
   -2.0569    1.5697    0.7556 O   0  0  0  0  0  0  0  0  0  0  0  0
   -0.1912    1.5553    2.0217 N   0  0  0  0  0  0  0  0  0  0  0  0
    0.5859    0.9995    2.3681 H   0  0  0  0  0  0  0  0  0  0  0  0
   -0.3579    2.9185    2.5099 C   0  0  0  0  0  0  0  0  0  0  0  0
   -1.3072    3.0198    3.0465 H   0  0  0  0  0  0  0  0  0  0  0  0
    0.4555    3.1773    3.1944 H   0  0  0  0  0  0  0  0  0  0  0  0
   -0.3465    3.6274    1.6753 H   0  0  0  0  0  0  0  0  0  0  0  0
  1  2  1  0  0  0  0
  2  3  1  0  0  0  0
  2  4  1  0  0  0  0
  2  5  1  0  0  0  0
  5  6  2  0  0  0  0
  5  7  1  0  0  0  0
  7  8  1  0  0  0  0
  7  9  1  0  0  0  0
  9 10  1  0  0  0  0
  9 11  1  0  0  0  0
  9 26  1  0  0  0  0
 11 12  1  0  0  0  0
 11 13  1  0  0  0  0
 11 14  1  0  0  0  0
 14 15  1  0  0  0  0
 14 16  1  0  0  0  0
 14 17  1  0  0  0  0
 17 18  1  0  0  0  0
 17 19  1  0  0  0  0
 17 20  1  0  0  0  0
 20 21  1  0  0  0  0
 20 22  1  0  0  0  0
 20 23  1  0  0  0  0
 23 24  1  0  0  0  0
 23 25  1  0  0  0  0
 26 27  2  0  0  0  0
 26 28  1  0  0  0  0
 28 29  1  0  0  0  0
 28 30  1  0  0  0  0
 30 31  1  0  0  0  0
 30 32  1  0  0  0  0
 30 33  1  0  0  0  0
M  END
$$$$

  -OEChem-03222214063D

 33 32  0     1  0  0  0  0  0999 V2000
   -3.7239   -4.0301    1.9680 H   0  0  0  0  0  0  0  0  0  0  0  0
   -3.7545   -3.0537    1.4764 C   0  0  0  0  0  0  0  0  0  0  0  0
   -4.3889   -2.3840    2.0620 H   0  0  0  0  0  0  0  0  0  0  0  0
   -4.1853   -3.1743    0.4795 H   0  0  0  0  0  0  0  0  0  0  0  0
   -2.3550   -2.4785    1.3684 C   0  0  0  0  0  0  0  0  0  0  0  0
   -1.3994   -3.1145    1.7841 O   0  0  0  0  0  0  0  0  0  0  0  0
   -2.1712   -1.2318    0.8090 N   0  0  0  0  0  0  0  0  0  0  0  0
   -3.0029   -0.6984    0.5611 H   0  0  0  0  0  0  0  0  0  0  0  0
   -0.8816   -0.5301    0.7281 C   0  0  1  0  0  0  0  0  0  0  0  0
   -0.1733   -0.9703    1.4378 H   0  0  0  0  0  0  0  0  0  0  0  0
   -0.2486   -0.5870   -0.6832 C   0  0  0  0  0  0  0  0  0  0  0  0
    0.4238    0.2650   -0.8286 H   0  0  0  0  0  0  0  0  0  0  0  0
    0.3680   -1.4918   -0.7128 H   0  0  0  0  0  0  0  0  0  0  0  0
   -1.2414   -0.6630   -1.8600 C   0  0  0  0  0  0  0  0  0  0  0  0
   -2.0204   -1.4055   -1.6653 H   0  0  0  0  0  0  0  0  0  0  0  0
   -1.7260    0.3104   -1.9906 H   0  0  0  0  0  0  0  0  0  0  0  0
   -0.5187   -1.0802   -3.1463 C   0  0  0  0  0  0  0  0  0  0  0  0
    0.2841   -0.3677   -3.3628 H   0  0  0  0  0  0  0  0  0  0  0  0
   -0.0675   -2.0692   -3.0137 H   0  0  0  0  0  0  0  0  0  0  0  0
   -1.4899   -1.1236   -4.3224 C   0  0  0  0  0  0  0  0  0  0  0  0
   -2.2897   -1.8451   -4.1216 H   0  0  0  0  0  0  0  0  0  0  0  0
   -1.9481   -0.1389   -4.4666 H   0  0  0  0  0  0  0  0  0  0  0  0
   -0.7518   -1.5182   -5.5258 N   0  0  0  0  0  0  0  0  0  0  0  0
   -1.3671   -1.5647   -6.3380 H   0  0  0  0  0  0  0  0  0  0  0  0
    0.0311   -0.8877   -5.6980 H   0  0  0  0  0  0  0  0  0  0  0  0
   -1.0786    0.9414    1.1459 C   0  0  0  0  0  0  0  0  0  0  0  0
   -2.0626    1.5623    0.7578 O   0  0  0  0  0  0  0  0  0  0  0  0
   -0.1860    1.5525    2.0074 N   0  0  0  0  0  0  0  0  0  0  0  0
    0.5886    0.9950    2.3566 H   0  0  0  0  0  0  0  0  0  0  0  0
   -0.3508    2.9163    2.4954 C   0  0  0  0  0  0  0  0  0  0  0  0
   -1.2912    3.0147    3.0479 H   0  0  0  0  0  0  0  0  0  0  0  0
    0.4729    3.1806    3.1655 H   0  0  0  0  0  0  0  0  0  0  0  0
   -0.3567    3.6238    1.6596 H   0  0  0  0  0  0  0  0  0  0  0  0
  1  2  1  0  0  0  0
  2  3  1  0  0  0  0
  2  4  1  0  0  0  0
  2  5  1  0  0  0  0
  5  6  2  0  0  0  0
  5  7  1  0  0  0  0
  7  8  1  0  0  0  0
  7  9  1  0  0  0  0
  9 10  1  0  0  0  0
  9 11  1  0  0  0  0
  9 26  1  0  0  0  0
 11 12  1  0  0  0  0
 11 13  1  0  0  0  0
 11 14  1  0  0  0  0
 14 15  1  0  0  0  0
 14 16  1  0  0  0  0
 14 17  1  0  0  0  0
 17 18  1  0  0  0  0
 17 19  1  0  0  0  0
 17 20  1  0  0  0  0
 20 21  1  0  0  0  0
 20 22  1  0  0  0  0
 20 23  1  0  0  0  0
 23 24  1  0  0  0  0
 23 25  1  0  0  0  0
 26 27  2  0  0  0  0
 26 28  1  0  0  0  0
 28 29  1  0  0  0  0
 28 30  1  0  0  0  0
 30 31  1  0  0  0  0
 30 32  1  0  0  0  0
 30 33  1  0  0  0  0
M  END
$$$$

  -OEChem-03222214063D

 33 32  0     1  0  0  0  0  0999 V2000
   -3.7324   -4.0214    2.0232 H   0  0  0  0  0  0  0  0  0  0  0  0
   -3.7655   -3.0509    1.5203 C   0  0  0  0  0  0  0  0  0  0  0  0
   -4.3975   -2.3750    2.1011 H   0  0  0  0  0  0  0  0  0  0  0  0
   -4.2011   -3.1833    0.5271 H   0  0  0  0  0  0  0  0  0  0  0  0
   -2.3667   -2.4764    1.3994 C   0  0  0  0  0  0  0  0  0  0  0  0
   -1.4079   -3.1122    1.8081 O   0  0  0  0  0  0  0  0  0  0  0  0
   -2.1860   -1.2316    0.8347 N   0  0  0  0  0  0  0  0  0  0  0  0
   -3.0190   -0.6960    0.5957 H   0  0  0  0  0  0  0  0  0  0  0  0
   -0.8955   -0.5340    0.7385 C   0  0  1  0  0  0  0  0  0  0  0  0
   -0.1839   -0.9736    1.4449 H   0  0  0  0  0  0  0  0  0  0  0  0
   -0.2671   -0.5915   -0.6759 C   0  0  0  0  0  0  0  0  0  0  0  0
    0.4168    0.2512   -0.8220 H   0  0  0  0  0  0  0  0  0  0  0  0
    0.3433   -1.5005   -0.6927 H   0  0  0  0  0  0  0  0  0  0  0  0
   -1.2462   -0.6664   -1.8693 C   0  0  0  0  0  0  0  0  0  0  0  0
   -2.1660   -1.1927   -1.6041 H   0  0  0  0  0  0  0  0  0  0  0  0
   -1.5233    0.3496   -2.1697 H   0  0  0  0  0  0  0  0  0  0  0  0
   -0.6160   -1.4255   -3.0433 C   0  0  0  0  0  0  0  0  0  0  0  0
    0.3268   -0.9459   -3.3254 H   0  0  0  0  0  0  0  0  0  0  0  0
   -0.3962   -2.4557   -2.7435 H   0  0  0  0  0  0  0  0  0  0  0  0
   -1.5570   -1.4418   -4.2444 C   0  0  0  0  0  0  0  0  0  0  0  0
   -2.4994   -1.9323   -3.9761 H   0  0  0  0  0  0  0  0  0  0  0  0
   -1.7841   -0.4165   -4.5571 H   0  0  0  0  0  0  0  0  0  0  0  0
   -0.9078   -2.1712   -5.3380 N   0  0  0  0  0  0  0  0  0  0  0  0
   -1.5038   -2.2051   -6.1650 H   0  0  0  0  0  0  0  0  0  0  0  0
    0.0009   -1.7651   -5.5605 H   0  0  0  0  0  0  0  0  0  0  0  0
   -1.0847    0.9388    1.1545 C   0  0  0  0  0  0  0  0  0  0  0  0
   -2.0684    1.5625    0.7704 O   0  0  0  0  0  0  0  0  0  0  0  0
   -0.1817    1.5497    2.0051 N   0  0  0  0  0  0  0  0  0  0  0  0
    0.5910    0.9889    2.3531 H   0  0  0  0  0  0  0  0  0  0  0  0
   -0.3364    2.9158    2.4895 C   0  0  0  0  0  0  0  0  0  0  0  0
   -1.2701    3.0195    3.0522 H   0  0  0  0  0  0  0  0  0  0  0  0
    0.4957    3.1798    3.1491 H   0  0  0  0  0  0  0  0  0  0  0  0
   -0.3490    3.6202    1.6511 H   0  0  0  0  0  0  0  0  0  0  0  0
  1  2  1  0  0  0  0
  2  3  1  0  0  0  0
  2  4  1  0  0  0  0
  2  5  1  0  0  0  0
  5  6  2  0  0  0  0
  5  7  1  0  0  0  0
  7  8  1  0  0  0  0
  7  9  1  0  0  0  0
  9 10  1  0  0  0  0
  9 11  1  0  0  0  0
  9 26  1  0  0  0  0
 11 12  1  0  0  0  0
 11 13  1  0  0  0  0
 11 14  1  0  0  0  0
 14 15  1  0  0  0  0
 14 16  1  0  0  0  0
 14 17  1  0  0  0  0
 17 18  1  0  0  0  0
 17 19  1  0  0  0  0
 17 20  1  0  0  0  0
 20 21  1  0  0  0  0
 20 22  1  0  0  0  0
 20 23  1  0  0  0  0
 23 24  1  0  0  0  0
 23 25  1  0  0  0  0
 26 27  2  0  0  0  0
 26 28  1  0  0  0  0
 28 29  1  0  0  0  0
 28 30  1  0  0  0  0
 30 31  1  0  0  0  0
 30 32  1  0  0  0  0
 30 33  1  0  0  0  0
M  END
$$$$

  -OEChem-03222214063D

 33 32  0     1  0  0  0  0  0999 V2000
   -3.7383   -4.0202    2.0160 H   0  0  0  0  0  0  0  0  0  0  0  0
   -3.7675   -3.0510    1.5105 C   0  0  0  0  0  0  0  0  0  0  0  0
   -4.4123   -2.3766    2.0790 H   0  0  0  0  0  0  0  0  0  0  0  0
   -4.1855   -3.1875    0.5102 H   0  0  0  0  0  0  0  0  0  0  0  0
   -2.3696   -2.4706    1.4112 C   0  0  0  0  0  0  0  0  0  0  0  0
   -1.4153   -3.0997    1.8407 O   0  0  0  0  0  0  0  0  0  0  0  0
   -2.1858   -1.2265    0.8460 N   0  0  0  0  0  0  0  0  0  0  0  0
   -3.0167   -0.6969    0.5881 H   0  0  0  0  0  0  0  0  0  0  0  0
   -0.8938   -0.5306    0.7527 C   0  0  1  0  0  0  0  0  0  0  0  0
   -0.1837   -0.9709    1.4605 H   0  0  0  0  0  0  0  0  0  0  0  0
   -0.2627   -0.5879   -0.6612 C   0  0  0  0  0  0  0  0  0  0  0  0
    0.4194    0.2574   -0.8019 H   0  0  0  0  0  0  0  0  0  0  0  0
    0.3554   -1.4918   -0.6745 H   0  0  0  0  0  0  0  0  0  0  0  0
   -1.2335   -0.6594   -1.8654 C   0  0  0  0  0  0  0  0  0  0  0  0
   -2.2523   -0.9062   -1.5598 H   0  0  0  0  0  0  0  0  0  0  0  0
   -1.2755    0.3270   -2.3389 H   0  0  0  0  0  0  0  0  0  0  0  0
   -0.7775   -1.7109   -2.8847 C   0  0  0  0  0  0  0  0  0  0  0  0
    0.2424   -1.4860   -3.2130 H   0  0  0  0  0  0  0  0  0  0  0  0
   -0.7732   -2.7004   -2.4151 H   0  0  0  0  0  0  0  0  0  0  0  0
   -1.7065   -1.7330   -4.0950 C   0  0  0  0  0  0  0  0  0  0  0  0
   -2.7315   -1.9550   -3.7780 H   0  0  0  0  0  0  0  0  0  0  0  0
   -1.7064   -0.7533   -4.5856 H   0  0  0  0  0  0  0  0  0  0  0  0
   -1.2378   -2.7642   -5.0255 N   0  0  0  0  0  0  0  0  0  0  0  0
   -1.8275   -2.8085   -5.8565 H   0  0  0  0  0  0  0  0  0  0  0  0
   -0.2618   -2.6127   -5.2793 H   0  0  0  0  0  0  0  0  0  0  0  0
   -1.0826    0.9426    1.1672 C   0  0  0  0  0  0  0  0  0  0  0  0
   -2.0624    1.5691    0.7776 O   0  0  0  0  0  0  0  0  0  0  0  0
   -0.1806    1.5518    2.0201 N   0  0  0  0  0  0  0  0  0  0  0  0
    0.5886    0.9885    2.3715 H   0  0  0  0  0  0  0  0  0  0  0  0
   -0.3310    2.9195    2.5010 C   0  0  0  0  0  0  0  0  0  0  0  0
   -1.2664    3.0289    3.0598 H   0  0  0  0  0  0  0  0  0  0  0  0
    0.4997    3.1807    3.1635 H   0  0  0  0  0  0  0  0  0  0  0  0
   -0.3371    3.6222    1.6612 H   0  0  0  0  0  0  0  0  0  0  0  0
  1  2  1  0  0  0  0
  2  3  1  0  0  0  0
  2  4  1  0  0  0  0
  2  5  1  0  0  0  0
  5  6  2  0  0  0  0
  5  7  1  0  0  0  0
  7  8  1  0  0  0  0
  7  9  1  0  0  0  0
  9 10  1  0  0  0  0
  9 11  1  0  0  0  0
  9 26  1  0  0  0  0
 11 12  1  0  0  0  0
 11 13  1  0  0  0  0
 11 14  1  0  0  0  0
 14 15  1  0  0  0  0
 14 16  1  0  0  0  0
 14 17  1  0  0  0  0
 17 18  1  0  0  0  0
 17 19  1  0  0  0  0
 17 20  1  0  0  0  0
 20 21  1  0  0  0  0
 20 22  1  0  0  0  0
 20 23  1  0  0  0  0
 23 24  1  0  0  0  0
 23 25  1  0  0  0  0
 26 27  2  0  0  0  0
 26 28  1  0  0  0  0
 28 29  1  0  0  0  0
 28 30  1  0  0  0  0
 30 31  1  0  0  0  0
 30 32  1  0  0  0  0
 30 33  1  0  0  0  0
M  END
$$$$

  -OEChem-03222214063D

 33 32  0     1  0  0  0  0  0999 V2000
   -3.7293   -4.0321    1.9108 H   0  0  0  0  0  0  0  0  0  0  0  0
   -3.7495   -3.0587    1.4128 C   0  0  0  0  0  0  0  0  0  0  0  0
   -4.4280   -2.3975    1.9572 H   0  0  0  0  0  0  0  0  0  0  0  0
   -4.1200   -3.1923    0.3934 H   0  0  0  0  0  0  0  0  0  0  0  0
   -2.3564   -2.4599    1.3805 C   0  0  0  0  0  0  0  0  0  0  0  0
   -1.4130   -3.0815    1.8439 O   0  0  0  0  0  0  0  0  0  0  0  0
   -2.1629   -1.2131    0.8253 N   0  0  0  0  0  0  0  0  0  0  0  0
   -2.9871   -0.6930    0.5303 H   0  0  0  0  0  0  0  0  0  0  0  0
   -0.8710   -0.5138    0.7635 C   0  0  1  0  0  0  0  0  0  0  0  0
   -0.1720   -0.9560    1.4810 H   0  0  0  0  0  0  0  0  0  0  0  0
   -0.2264   -0.5791   -0.6430 C   0  0  0  0  0  0  0  0  0  0  0  0
    0.4381    0.2810   -0.7787 H   0  0  0  0  0  0  0  0  0  0  0  0
    0.4125   -1.4686   -0.6577 H   0  0  0  0  0  0  0  0  0  0  0  0
   -1.1998   -0.6542   -1.8447 C   0  0  0  0  0  0  0  0  0  0  0  0
   -2.2453   -0.5864   -1.5348 H   0  0  0  0  0  0  0  0  0  0  0  0
   -1.0145    0.2122   -2.4877 H   0  0  0  0  0  0  0  0  0  0  0  0
   -0.9865   -1.9317   -2.6652 C   0  0  0  0  0  0  0  0  0  0  0  0
    0.0464   -1.9721   -3.0259 H   0  0  0  0  0  0  0  0  0  0  0  0
   -1.1587   -2.8066   -2.0291 H   0  0  0  0  0  0  0  0  0  0  0  0
   -1.9435   -1.9773   -3.8530 C   0  0  0  0  0  0  0  0  0  0  0  0
   -2.9802   -1.9183   -3.5030 H   0  0  0  0  0  0  0  0  0  0  0  0
   -1.7592   -1.1243   -4.5156 H   0  0  0  0  0  0  0  0  0  0  0  0
   -1.7342   -3.2354   -4.5758 N   0  0  0  0  0  0  0  0  0  0  0  0
   -2.3484   -3.3029   -5.3874 H   0  0  0  0  0  0  0  0  0  0  0  0
   -0.7572   -3.3439   -4.8481 H   0  0  0  0  0  0  0  0  0  0  0  0
   -1.0679    0.9581    1.1793 C   0  0  0  0  0  0  0  0  0  0  0  0
   -2.0323    1.5894    0.7606 O   0  0  0  0  0  0  0  0  0  0  0  0
   -0.1848    1.5650    2.0535 N   0  0  0  0  0  0  0  0  0  0  0  0
    0.5723    0.9986    2.4261 H   0  0  0  0  0  0  0  0  0  0  0  0
   -0.3424    2.9340    2.5290 C   0  0  0  0  0  0  0  0  0  0  0  0
   -1.2934    3.0486    3.0598 H   0  0  0  0  0  0  0  0  0  0  0  0
    0.4699    3.1915    3.2155 H   0  0  0  0  0  0  0  0  0  0  0  0
   -0.3205    3.6364    1.6892 H   0  0  0  0  0  0  0  0  0  0  0  0
  1  2  1  0  0  0  0
  2  3  1  0  0  0  0
  2  4  1  0  0  0  0
  2  5  1  0  0  0  0
  5  6  2  0  0  0  0
  5  7  1  0  0  0  0
  7  8  1  0  0  0  0
  7  9  1  0  0  0  0
  9 10  1  0  0  0  0
  9 11  1  0  0  0  0
  9 26  1  0  0  0  0
 11 12  1  0  0  0  0
 11 13  1  0  0  0  0
 11 14  1  0  0  0  0
 14 15  1  0  0  0  0
 14 16  1  0  0  0  0
 14 17  1  0  0  0  0
 17 18  1  0  0  0  0
 17 19  1  0  0  0  0
 17 20  1  0  0  0  0
 20 21  1  0  0  0  0
 20 22  1  0  0  0  0
 20 23  1  0  0  0  0
 23 24  1  0  0  0  0
 23 25  1  0  0  0  0
 26 27  2  0  0  0  0
 26 28  1  0  0  0  0
 28 29  1  0  0  0  0
 28 30  1  0  0  0  0
 30 31  1  0  0  0  0
 30 32  1  0  0  0  0
 30 33  1  0  0  0  0
M  END
$$$$

  -OEChem-03222214063D

 33 32  0     1  0  0  0  0  0999 V2000
   -3.7180   -4.0464    1.8179 H   0  0  0  0  0  0  0  0  0  0  0  0
   -3.7294   -3.0707    1.3242 C   0  0  0  0  0  0  0  0  0  0  0  0
   -4.4390   -2.4214    1.8425 H   0  0  0  0  0  0  0  0  0  0  0  0
   -4.0547   -3.2041    0.2894 H   0  0  0  0  0  0  0  0  0  0  0  0
   -2.3439   -2.4535    1.3525 C   0  0  0  0  0  0  0  0  0  0  0  0
   -1.4133   -3.0619    1.8579 O   0  0  0  0  0  0  0  0  0  0  0  0
   -2.1409   -1.2065    0.8004 N   0  0  0  0  0  0  0  0  0  0  0  0
   -2.9560   -0.7017    0.4579 H   0  0  0  0  0  0  0  0  0  0  0  0
   -0.8493   -0.5035    0.7663 C   0  0  1  0  0  0  0  0  0  0  0  0
   -0.1620   -0.9446    1.4952 H   0  0  0  0  0  0  0  0  0  0  0  0
   -0.1864   -0.5756   -0.6308 C   0  0  0  0  0  0  0  0  0  0  0  0
    0.4572    0.3007   -0.7628 H   0  0  0  0  0  0  0  0  0  0  0  0
    0.4711   -1.4513   -0.6510 H   0  0  0  0  0  0  0  0  0  0  0  0
   -1.1638   -0.6561   -1.8249 C   0  0  0  0  0  0  0  0  0  0  0  0
   -2.1626   -0.3051   -1.5483 H   0  0  0  0  0  0  0  0  0  0  0  0
   -0.8028    0.0218   -2.6055 H   0  0  0  0  0  0  0  0  0  0  0  0
   -1.2262   -2.0699   -2.4168 C   0  0  0  0  0  0  0  0  0  0  0  0
   -0.2342   -2.3695   -2.7699 H   0  0  0  0  0  0  0  0  0  0  0  0
   -1.5369   -2.7776   -1.6412 H   0  0  0  0  0  0  0  0  0  0  0  0
   -2.2183   -2.1243   -3.5745 C   0  0  0  0  0  0  0  0  0  0  0  0
   -3.2057   -1.7873   -3.2398 H   0  0  0  0  0  0  0  0  0  0  0  0
   -1.8883   -1.4609   -4.3816 H   0  0  0  0  0  0  0  0  0  0  0  0
   -2.3027   -3.5063   -4.0554 N   0  0  0  0  0  0  0  0  0  0  0  0
   -2.9432   -3.5848   -4.8453 H   0  0  0  0  0  0  0  0  0  0  0  0
   -1.3797   -3.8668   -4.2976 H   0  0  0  0  0  0  0  0  0  0  0  0
   -1.0554    0.9689    1.1760 C   0  0  0  0  0  0  0  0  0  0  0  0
   -2.0083    1.6016    0.7336 O   0  0  0  0  0  0  0  0  0  0  0  0
   -0.1912    1.5767    2.0680 N   0  0  0  0  0  0  0  0  0  0  0  0
    0.5536    1.0089    2.4620 H   0  0  0  0  0  0  0  0  0  0  0  0
   -0.3629    2.9441    2.5433 C   0  0  0  0  0  0  0  0  0  0  0  0
   -1.3216    3.0521    3.0615 H   0  0  0  0  0  0  0  0  0  0  0  0
    0.4387    3.2051    3.2407 H   0  0  0  0  0  0  0  0  0  0  0  0
   -0.3339    3.6482    1.7051 H   0  0  0  0  0  0  0  0  0  0  0  0
  1  2  1  0  0  0  0
  2  3  1  0  0  0  0
  2  4  1  0  0  0  0
  2  5  1  0  0  0  0
  5  6  2  0  0  0  0
  5  7  1  0  0  0  0
  7  8  1  0  0  0  0
  7  9  1  0  0  0  0
  9 10  1  0  0  0  0
  9 11  1  0  0  0  0
  9 26  1  0  0  0  0
 11 12  1  0  0  0  0
 11 13  1  0  0  0  0
 11 14  1  0  0  0  0
 14 15  1  0  0  0  0
 14 16  1  0  0  0  0
 14 17  1  0  0  0  0
 17 18  1  0  0  0  0
 17 19  1  0  0  0  0
 17 20  1  0  0  0  0
 20 21  1  0  0  0  0
 20 22  1  0  0  0  0
 20 23  1  0  0  0  0
 23 24  1  0  0  0  0
 23 25  1  0  0  0  0
 26 27  2  0  0  0  0
 26 28  1  0  0  0  0
 28 29  1  0  0  0  0
 28 30  1  0  0  0  0
 30 31  1  0  0  0  0
 30 32  1  0  0  0  0
 30 33  1  0  0  0  0
M  END
$$$$

  -OEChem-03222214063D

 33 32  0     1  0  0  0  0  0999 V2000
   -3.7144   -4.0534    1.8639 H   0  0  0  0  0  0  0  0  0  0  0  0
   -3.7243   -3.0821    1.3618 C   0  0  0  0  0  0  0  0  0  0  0  0
   -4.4412   -2.4308    1.8668 H   0  0  0  0  0  0  0  0  0  0  0  0
   -4.0391   -3.2248    0.3249 H   0  0  0  0  0  0  0  0  0  0  0  0
   -2.3417   -2.4593    1.3998 C   0  0  0  0  0  0  0  0  0  0  0  0
   -1.4159   -3.0550    1.9290 O   0  0  0  0  0  0  0  0  0  0  0  0
   -2.1363   -1.2206    0.8292 N   0  0  0  0  0  0  0  0  0  0  0  0
   -2.9466   -0.7321    0.4530 H   0  0  0  0  0  0  0  0  0  0  0  0
   -0.8457   -0.5185    0.7858 C   0  0  1  0  0  0  0  0  0  0  0  0
   -0.1595   -0.9479    1.5228 H   0  0  0  0  0  0  0  0  0  0  0  0
   -0.1704   -0.5916   -0.6077 C   0  0  0  0  0  0  0  0  0  0  0  0
    0.4706    0.2873   -0.7349 H   0  0  0  0  0  0  0  0  0  0  0  0
    0.4886   -1.4659   -0.6250 H   0  0  0  0  0  0  0  0  0  0  0  0
   -1.1282   -0.6802   -1.8145 C   0  0  0  0  0  0  0  0  0  0  0  0
   -2.0380   -0.1056   -1.6109 H   0  0  0  0  0  0  0  0  0  0  0  0
   -0.6393   -0.2111   -2.6745 H   0  0  0  0  0  0  0  0  0  0  0  0
   -1.4792   -2.1264   -2.2000 C   0  0  0  0  0  0  0  0  0  0  0  0
   -0.5705   -2.6562   -2.5032 H   0  0  0  0  0  0  0  0  0  0  0  0
   -1.9027   -2.6595   -1.3463 H   0  0  0  0  0  0  0  0  0  0  0  0
   -2.4880   -2.1455   -3.3444 C   0  0  0  0  0  0  0  0  0  0  0  0
   -3.3812   -1.5742   -3.0678 H   0  0  0  0  0  0  0  0  0  0  0  0
   -2.0516   -1.6829   -4.2366 H   0  0  0  0  0  0  0  0  0  0  0  0
   -2.8571   -3.5372   -3.6207 N   0  0  0  0  0  0  0  0  0  0  0  0
   -3.5194   -3.5971   -4.3944 H   0  0  0  0  0  0  0  0  0  0  0  0
   -2.0300   -4.1054   -3.8052 H   0  0  0  0  0  0  0  0  0  0  0  0
   -1.0617    0.9591    1.1745 C   0  0  0  0  0  0  0  0  0  0  0  0
   -2.0138    1.5826    0.7173 O   0  0  0  0  0  0  0  0  0  0  0  0
   -0.2035    1.5852    2.0600 N   0  0  0  0  0  0  0  0  0  0  0  0
    0.5369    1.0251    2.4731 H   0  0  0  0  0  0  0  0  0  0  0  0
   -0.3842    2.9596    2.5116 C   0  0  0  0  0  0  0  0  0  0  0  0
   -1.3440    3.0704    3.0272 H   0  0  0  0  0  0  0  0  0  0  0  0
    0.4151    3.2384    3.2050 H   0  0  0  0  0  0  0  0  0  0  0  0
   -0.3590    3.6486    1.6607 H   0  0  0  0  0  0  0  0  0  0  0  0
  1  2  1  0  0  0  0
  2  3  1  0  0  0  0
  2  4  1  0  0  0  0
  2  5  1  0  0  0  0
  5  6  2  0  0  0  0
  5  7  1  0  0  0  0
  7  8  1  0  0  0  0
  7  9  1  0  0  0  0
  9 10  1  0  0  0  0
  9 11  1  0  0  0  0
  9 26  1  0  0  0  0
 11 12  1  0  0  0  0
 11 13  1  0  0  0  0
 11 14  1  0  0  0  0
 14 15  1  0  0  0  0
 14 16  1  0  0  0  0
 14 17  1  0  0  0  0
 17 18  1  0  0  0  0
 17 19  1  0  0  0  0
 17 20  1  0  0  0  0
 20 21  1  0  0  0  0
 20 22  1  0  0  0  0
 20 23  1  0  0  0  0
 23 24  1  0  0  0  0
 23 25  1  0  0  0  0
 26 27  2  0  0  0  0
 26 28  1  0  0  0  0
 28 29  1  0  0  0  0
 28 30  1  0  0  0  0
 30 31  1  0  0  0  0
 30 32  1  0  0  0  0
 30 33  1  0  0  0  0
M  END
$$$$

  -OEChem-03222214063D

 33 32  0     1  0  0  0  0  0999 V2000
   -3.6474   -4.0363    2.2000 H   0  0  0  0  0  0  0  0  0  0  0  0
   -3.7006   -3.0835    1.6660 C   0  0  0  0  0  0  0  0  0  0  0  0
   -4.3585   -2.4072    2.2169 H   0  0  0  0  0  0  0  0  0  0  0  0
   -4.1194   -3.2594    0.6720 H   0  0  0  0  0  0  0  0  0  0  0  0
   -2.3168   -2.4740    1.5434 C   0  0  0  0  0  0  0  0  0  0  0  0
   -1.3428   -3.0793    1.9641 O   0  0  0  0  0  0  0  0  0  0  0  0
   -2.1670   -1.2314    0.9634 N   0  0  0  0  0  0  0  0  0  0  0  0
   -3.0102   -0.7379    0.6763 H   0  0  0  0  0  0  0  0  0  0  0  0
   -0.8915   -0.5216    0.8168 C   0  0  1  0  0  0  0  0  0  0  0  0
   -0.1520   -0.9470    1.5029 H   0  0  0  0  0  0  0  0  0  0  0  0
   -0.2985   -0.5736   -0.6157 C   0  0  0  0  0  0  0  0  0  0  0  0
    0.3339    0.3085   -0.7626 H   0  0  0  0  0  0  0  0  0  0  0  0
    0.3630   -1.4446   -0.6669 H   0  0  0  0  0  0  0  0  0  0  0  0
   -1.2765   -0.6663   -1.8087 C   0  0  0  0  0  0  0  0  0  0  0  0
   -2.0612    0.0890   -1.6929 H   0  0  0  0  0  0  0  0  0  0  0  0
   -0.7118   -0.4135   -2.7122 H   0  0  0  0  0  0  0  0  0  0  0  0
   -1.9223   -2.0478   -2.0204 C   0  0  0  0  0  0  0  0  0  0  0  0
   -1.1525   -2.8247   -1.9749 H   0  0  0  0  0  0  0  0  0  0  0  0
   -2.6610   -2.2580   -1.2468 H   0  0  0  0  0  0  0  0  0  0  0  0
   -2.6255   -2.1105   -3.3727 C   0  0  0  0  0  0  0  0  0  0  0  0
   -3.3812   -1.3201   -3.4393 H   0  0  0  0  0  0  0  0  0  0  0  0
   -1.9021   -1.9589   -4.1814 H   0  0  0  0  0  0  0  0  0  0  0  0
   -3.2638   -3.4237   -3.5041 N   0  0  0  0  0  0  0  0  0  0  0  0
   -3.7468   -3.5117   -4.3984 H   0  0  0  0  0  0  0  0  0  0  0  0
   -2.5833   -4.1742   -3.3834 H   0  0  0  0  0  0  0  0  0  0  0  0
   -1.0867    0.9521    1.2294 C   0  0  0  0  0  0  0  0  0  0  0  0
   -2.0778    1.5706    0.8566 O   0  0  0  0  0  0  0  0  0  0  0  0
   -0.1617    1.5787    2.0444 N   0  0  0  0  0  0  0  0  0  0  0  0
    0.6149    1.0215    2.3894 H   0  0  0  0  0  0  0  0  0  0  0  0
   -0.3052    2.9531    2.5087 C   0  0  0  0  0  0  0  0  0  0  0  0
   -1.2095    3.0602    3.1168 H   0  0  0  0  0  0  0  0  0  0  0  0
    0.5578    3.2384    3.1180 H   0  0  0  0  0  0  0  0  0  0  0  0
   -0.3690    3.6397    1.6581 H   0  0  0  0  0  0  0  0  0  0  0  0
  1  2  1  0  0  0  0
  2  3  1  0  0  0  0
  2  4  1  0  0  0  0
  2  5  1  0  0  0  0
  5  6  2  0  0  0  0
  5  7  1  0  0  0  0
  7  8  1  0  0  0  0
  7  9  1  0  0  0  0
  9 10  1  0  0  0  0
  9 11  1  0  0  0  0
  9 26  1  0  0  0  0
 11 12  1  0  0  0  0
 11 13  1  0  0  0  0
 11 14  1  0  0  0  0
 14 15  1  0  0  0  0
 14 16  1  0  0  0  0
 14 17  1  0  0  0  0
 17 18  1  0  0  0  0
 17 19  1  0  0  0  0
 17 20  1  0  0  0  0
 20 21  1  0  0  0  0
 20 22  1  0  0  0  0
 20 23  1  0  0  0  0
 23 24  1  0  0  0  0
 23 25  1  0  0  0  0
 26 27  2  0  0  0  0
 26 28  1  0  0  0  0
 28 29  1  0  0  0  0
 28 30  1  0  0  0  0
 30 31  1  0  0  0  0
 30 32  1  0  0  0  0
 30 33  1  0  0  0  0
M  END
$$$$

  -OEChem-03222214063D

 33 32  0     1  0  0  0  0  0999 V2000
   -3.5913   -4.0435    2.3012 H   0  0  0  0  0  0  0  0  0  0  0  0
   -3.6670   -3.0908    1.7696 C   0  0  0  0  0  0  0  0  0  0  0  0
   -4.3124   -2.4189    2.3405 H   0  0  0  0  0  0  0  0  0  0  0  0
   -4.1147   -3.2682    0.7885 H   0  0  0  0  0  0  0  0  0  0  0  0
   -2.2920   -2.4723    1.6041 C   0  0  0  0  0  0  0  0  0  0  0  0
   -1.2983   -3.0857    1.9627 O   0  0  0  0  0  0  0  0  0  0  0  0
   -2.1715   -1.2203    1.0391 N   0  0  0  0  0  0  0  0  0  0  0  0
   -3.0281   -0.7265    0.7944 H   0  0  0  0  0  0  0  0  0  0  0  0
   -0.9068   -0.5084    0.8328 C   0  0  1  0  0  0  0  0  0  0  0  0
   -0.1339   -0.9447    1.4740 H   0  0  0  0  0  0  0  0  0  0  0  0
   -0.3791   -0.5295   -0.6272 C   0  0  0  0  0  0  0  0  0  0  0  0
    0.2663    0.3421   -0.7793 H   0  0  0  0  0  0  0  0  0  0  0  0
    0.2629   -1.4123   -0.7126 H   0  0  0  0  0  0  0  0  0  0  0  0
   -1.3751   -0.5995   -1.8100 C   0  0  0  0  0  0  0  0  0  0  0  0
   -1.9969    0.3019   -1.8021 H   0  0  0  0  0  0  0  0  0  0  0  0
   -0.7796   -0.5740   -2.7283 H   0  0  0  0  0  0  0  0  0  0  0  0
   -2.2967   -1.8309   -1.8611 C   0  0  0  0  0  0  0  0  0  0  0  0
   -1.7414   -2.7207   -1.5468 H   0  0  0  0  0  0  0  0  0  0  0  0
   -3.1480   -1.6963   -1.1899 H   0  0  0  0  0  0  0  0  0  0  0  0
   -2.8439   -2.0483   -3.2681 C   0  0  0  0  0  0  0  0  0  0  0  0
   -3.3981   -1.1616   -3.5955 H   0  0  0  0  0  0  0  0  0  0  0  0
   -2.0216   -2.2152   -3.9726 H   0  0  0  0  0  0  0  0  0  0  0  0
   -3.7321   -3.2149   -3.2421 N   0  0  0  0  0  0  0  0  0  0  0  0
   -4.1440   -3.3849   -4.1597 H   0  0  0  0  0  0  0  0  0  0  0  0
   -3.2378   -4.0422   -2.9070 H   0  0  0  0  0  0  0  0  0  0  0  0
   -1.0803    0.9570    1.2819 C   0  0  0  0  0  0  0  0  0  0  0  0
   -2.0876    1.5826    0.9697 O   0  0  0  0  0  0  0  0  0  0  0  0
   -0.1120    1.5713    2.0546 N   0  0  0  0  0  0  0  0  0  0  0  0
    0.6831    1.0100    2.3464 H   0  0  0  0  0  0  0  0  0  0  0  0
   -0.2266    2.9404    2.5413 C   0  0  0  0  0  0  0  0  0  0  0  0
   -1.1124    3.0484    3.1760 H   0  0  0  0  0  0  0  0  0  0  0  0
    0.6558    3.2078    3.1305 H   0  0  0  0  0  0  0  0  0  0  0  0
   -0.3063    3.6393    1.7021 H   0  0  0  0  0  0  0  0  0  0  0  0
  1  2  1  0  0  0  0
  2  3  1  0  0  0  0
  2  4  1  0  0  0  0
  2  5  1  0  0  0  0
  5  6  2  0  0  0  0
  5  7  1  0  0  0  0
  7  8  1  0  0  0  0
  7  9  1  0  0  0  0
  9 10  1  0  0  0  0
  9 11  1  0  0  0  0
  9 26  1  0  0  0  0
 11 12  1  0  0  0  0
 11 13  1  0  0  0  0
 11 14  1  0  0  0  0
 14 15  1  0  0  0  0
 14 16  1  0  0  0  0
 14 17  1  0  0  0  0
 17 18  1  0  0  0  0
 17 19  1  0  0  0  0
 17 20  1  0  0  0  0
 20 21  1  0  0  0  0
 20 22  1  0  0  0  0
 20 23  1  0  0  0  0
 23 24  1  0  0  0  0
 23 25  1  0  0  0  0
 26 27  2  0  0  0  0
 26 28  1  0  0  0  0
 28 29  1  0  0  0  0
 28 30  1  0  0  0  0
 30 31  1  0  0  0  0
 30 32  1  0  0  0  0
 30 33  1  0  0  0  0
M  END
$$$$

  -OEChem-03222214063D

 33 32  0     1  0  0  0  0  0999 V2000
   -3.5482   -4.0706    2.3357 H   0  0  0  0  0  0  0  0  0  0  0  0
   -3.6403   -3.0877    1.8655 C   0  0  0  0  0  0  0  0  0  0  0  0
   -4.2473   -2.4448    2.5074 H   0  0  0  0  0  0  0  0  0  0  0  0
   -4.1402   -3.2032    0.9005 H   0  0  0  0  0  0  0  0  0  0  0  0
   -2.2684   -2.4725    1.6655 C   0  0  0  0  0  0  0  0  0  0  0  0
   -1.2665   -3.0869    1.9984 O   0  0  0  0  0  0  0  0  0  0  0  0
   -2.1609   -1.2222    1.0958 N   0  0  0  0  0  0  0  0  0  0  0  0
   -3.0237   -0.7308    0.8679 H   0  0  0  0  0  0  0  0  0  0  0  0
   -0.9045   -0.5066    0.8573 C   0  0  1  0  0  0  0  0  0  0  0  0
   -0.1191   -0.9372    1.4867 H   0  0  0  0  0  0  0  0  0  0  0  0
   -0.3924   -0.5235   -0.6106 C   0  0  0  0  0  0  0  0  0  0  0  0
    0.2682    0.3364   -0.7642 H   0  0  0  0  0  0  0  0  0  0  0  0
    0.2368   -1.4163   -0.6878 H   0  0  0  0  0  0  0  0  0  0  0  0
   -1.3648   -0.5987   -1.8173 C   0  0  0  0  0  0  0  0  0  0  0  0
   -1.8047    0.3946   -1.9568 H   0  0  0  0  0  0  0  0  0  0  0  0
   -0.7580   -0.8109   -2.7037 H   0  0  0  0  0  0  0  0  0  0  0  0
   -2.5211   -1.6100   -1.7607 C   0  0  0  0  0  0  0  0  0  0  0  0
   -2.1533   -2.5660   -1.3742 H   0  0  0  0  0  0  0  0  0  0  0  0
   -3.3126   -1.2421   -1.1029 H   0  0  0  0  0  0  0  0  0  0  0  0
   -3.1278   -1.8267   -3.1433 C   0  0  0  0  0  0  0  0  0  0  0  0
   -3.5171   -0.8794   -3.5332 H   0  0  0  0  0  0  0  0  0  0  0  0
   -2.3656   -2.1946   -3.8391 H   0  0  0  0  0  0  0  0  0  0  0  0
   -4.2134   -2.8051   -3.0227 N   0  0  0  0  0  0  0  0  0  0  0  0
   -4.6802   -2.9495   -3.9182 H   0  0  0  0  0  0  0  0  0  0  0  0
   -3.8680   -3.6883   -2.6473 H   0  0  0  0  0  0  0  0  0  0  0  0
   -1.0758    0.9585    1.3083 C   0  0  0  0  0  0  0  0  0  0  0  0
   -2.0960    1.5763    1.0236 O   0  0  0  0  0  0  0  0  0  0  0  0
   -0.0931    1.5799    2.0571 N   0  0  0  0  0  0  0  0  0  0  0  0
    0.7135    1.0246    2.3276 H   0  0  0  0  0  0  0  0  0  0  0  0
   -0.2106    2.9442    2.5574 C   0  0  0  0  0  0  0  0  0  0  0  0
   -1.0724    3.0345    3.2270 H   0  0  0  0  0  0  0  0  0  0  0  0
    0.6900    3.2222    3.1133 H   0  0  0  0  0  0  0  0  0  0  0  0
   -0.3341    3.6473    1.7270 H   0  0  0  0  0  0  0  0  0  0  0  0
  1  2  1  0  0  0  0
  2  3  1  0  0  0  0
  2  4  1  0  0  0  0
  2  5  1  0  0  0  0
  5  6  2  0  0  0  0
  5  7  1  0  0  0  0
  7  8  1  0  0  0  0
  7  9  1  0  0  0  0
  9 10  1  0  0  0  0
  9 11  1  0  0  0  0
  9 26  1  0  0  0  0
 11 12  1  0  0  0  0
 11 13  1  0  0  0  0
 11 14  1  0  0  0  0
 14 15  1  0  0  0  0
 14 16  1  0  0  0  0
 14 17  1  0  0  0  0
 17 18  1  0  0  0  0
 17 19  1  0  0  0  0
 17 20  1  0  0  0  0
 20 21  1  0  0  0  0
 20 22  1  0  0  0  0
 20 23  1  0  0  0  0
 23 24  1  0  0  0  0
 23 25  1  0  0  0  0
 26 27  2  0  0  0  0
 26 28  1  0  0  0  0
 28 29  1  0  0  0  0
 28 30  1  0  0  0  0
 30 31  1  0  0  0  0
 30 32  1  0  0  0  0
 30 33  1  0  0  0  0
M  END
$$$$

  -OEChem-03222214063D

 33 32  0     1  0  0  0  0  0999 V2000
   -3.5022   -4.0869    2.4082 H   0  0  0  0  0  0  0  0  0  0  0  0
   -3.6045   -3.1013    1.9459 C   0  0  0  0  0  0  0  0  0  0  0  0
   -4.1929   -2.4605    2.6070 H   0  0  0  0  0  0  0  0  0  0  0  0
   -4.1301   -3.2101    0.9939 H   0  0  0  0  0  0  0  0  0  0  0  0
   -2.2374   -2.4870    1.7135 C   0  0  0  0  0  0  0  0  0  0  0  0
   -1.2284   -3.0972    2.0321 O   0  0  0  0  0  0  0  0  0  0  0  0
   -2.1440   -1.2401    1.1347 N   0  0  0  0  0  0  0  0  0  0  0  0
   -3.0127   -0.7513    0.9227 H   0  0  0  0  0  0  0  0  0  0  0  0
   -0.8952   -0.5171    0.8785 C   0  0  1  0  0  0  0  0  0  0  0  0
   -0.1019   -0.9375    1.5051 H   0  0  0  0  0  0  0  0  0  0  0  0
   -0.3889   -0.5301   -0.5926 C   0  0  0  0  0  0  0  0  0  0  0  0
    0.2831    0.3213   -0.7444 H   0  0  0  0  0  0  0  0  0  0  0  0
    0.2330   -1.4286   -0.6602 H   0  0  0  0  0  0  0  0  0  0  0  0
   -1.3417   -0.6118   -1.8183 C   0  0  0  0  0  0  0  0  0  0  0  0
   -1.5767    0.4172   -2.1109 H   0  0  0  0  0  0  0  0  0  0  0  0
   -0.7750   -1.0589   -2.6419 H   0  0  0  0  0  0  0  0  0  0  0  0
   -2.6819   -1.3502   -1.6895 C   0  0  0  0  0  0  0  0  0  0  0  0
   -2.5095   -2.3527   -1.2855 H   0  0  0  0  0  0  0  0  0  0  0  0
   -3.3495   -0.8023   -1.0187 H   0  0  0  0  0  0  0  0  0  0  0  0
   -3.3727   -1.4708   -3.0443 C   0  0  0  0  0  0  0  0  0  0  0  0
   -3.5941   -0.4732   -3.4400 H   0  0  0  0  0  0  0  0  0  0  0  0
   -2.7202   -1.9837   -3.7599 H   0  0  0  0  0  0  0  0  0  0  0  0
   -4.6157   -2.2284   -2.8649 N   0  0  0  0  0  0  0  0  0  0  0  0
   -5.1425   -2.2834   -3.7368 H   0  0  0  0  0  0  0  0  0  0  0  0
   -4.4251   -3.1603   -2.4971 H   0  0  0  0  0  0  0  0  0  0  0  0
   -1.0771    0.9488    1.3231 C   0  0  0  0  0  0  0  0  0  0  0  0
   -2.1076    1.5539    1.0488 O   0  0  0  0  0  0  0  0  0  0  0  0
   -0.0933    1.5838    2.0592 N   0  0  0  0  0  0  0  0  0  0  0  0
    0.7194    1.0365    2.3279 H   0  0  0  0  0  0  0  0  0  0  0  0
   -0.2210    2.9483    2.5567 C   0  0  0  0  0  0  0  0  0  0  0  0
   -1.0791    3.0318    3.2320 H   0  0  0  0  0  0  0  0  0  0  0  0
    0.6808    3.2357    3.1058 H   0  0  0  0  0  0  0  0  0  0  0  0
   -0.3569    3.6482    1.7255 H   0  0  0  0  0  0  0  0  0  0  0  0
  1  2  1  0  0  0  0
  2  3  1  0  0  0  0
  2  4  1  0  0  0  0
  2  5  1  0  0  0  0
  5  6  2  0  0  0  0
  5  7  1  0  0  0  0
  7  8  1  0  0  0  0
  7  9  1  0  0  0  0
  9 10  1  0  0  0  0
  9 11  1  0  0  0  0
  9 26  1  0  0  0  0
 11 12  1  0  0  0  0
 11 13  1  0  0  0  0
 11 14  1  0  0  0  0
 14 15  1  0  0  0  0
 14 16  1  0  0  0  0
 14 17  1  0  0  0  0
 17 18  1  0  0  0  0
 17 19  1  0  0  0  0
 17 20  1  0  0  0  0
 20 21  1  0  0  0  0
 20 22  1  0  0  0  0
 20 23  1  0  0  0  0
 23 24  1  0  0  0  0
 23 25  1  0  0  0  0
 26 27  2  0  0  0  0
 26 28  1  0  0  0  0
 28 29  1  0  0  0  0
 28 30  1  0  0  0  0
 30 31  1  0  0  0  0
 30 32  1  0  0  0  0
 30 33  1  0  0  0  0
M  END
$$$$

  -OEChem-03222214063D

 33 32  0     1  0  0  0  0  0999 V2000
   -3.4344   -4.1244    2.4291 H   0  0  0  0  0  0  0  0  0  0  0  0
   -3.5540   -3.1378    1.9730 C   0  0  0  0  0  0  0  0  0  0  0  0
   -4.1304   -2.5033    2.6506 H   0  0  0  0  0  0  0  0  0  0  0  0
   -4.1017   -3.2467    1.0337 H   0  0  0  0  0  0  0  0  0  0  0  0
   -2.1963   -2.5138    1.7107 C   0  0  0  0  0  0  0  0  0  0  0  0
   -1.1770   -3.1180    2.0070 O   0  0  0  0  0  0  0  0  0  0  0  0
   -2.1223   -1.2624    1.1385 N   0  0  0  0  0  0  0  0  0  0  0  0
   -2.9980   -0.7779    0.9455 H   0  0  0  0  0  0  0  0  0  0  0  0
   -0.8828   -0.5238    0.8764 C   0  0  1  0  0  0  0  0  0  0  0  0
   -0.0808   -0.9395    1.4951 H   0  0  0  0  0  0  0  0  0  0  0  0
   -0.3864   -0.5251   -0.5985 C   0  0  0  0  0  0  0  0  0  0  0  0
    0.2761    0.3345   -0.7475 H   0  0  0  0  0  0  0  0  0  0  0  0
    0.2487   -1.4140   -0.6721 H   0  0  0  0  0  0  0  0  0  0  0  0
   -1.3397   -0.6116   -1.8265 C   0  0  0  0  0  0  0  0  0  0  0  0
   -1.3679    0.3892   -2.2703 H   0  0  0  0  0  0  0  0  0  0  0  0
   -0.8740   -1.2742   -2.5637 H   0  0  0  0  0  0  0  0  0  0  0  0
   -2.8003   -1.0461   -1.6390 C   0  0  0  0  0  0  0  0  0  0  0  0
   -2.8301   -2.0594   -1.2277 H   0  0  0  0  0  0  0  0  0  0  0  0
   -3.3090   -0.3630   -0.9519 H   0  0  0  0  0  0  0  0  0  0  0  0
   -3.5484   -1.0314   -2.9688 C   0  0  0  0  0  0  0  0  0  0  0  0
   -3.5912   -0.0090   -3.3609 H   0  0  0  0  0  0  0  0  0  0  0  0
   -3.0283   -1.6562   -3.7032 H   0  0  0  0  0  0  0  0  0  0  0  0
   -4.9053   -1.5423   -2.7475 N   0  0  0  0  0  0  0  0  0  0  0  0
   -5.4652   -1.4820   -3.5981 H   0  0  0  0  0  0  0  0  0  0  0  0
   -4.8831   -2.4987   -2.3949 H   0  0  0  0  0  0  0  0  0  0  0  0
   -1.0751    0.9379    1.3308 C   0  0  0  0  0  0  0  0  0  0  0  0
   -2.1172    1.5322    1.0781 O   0  0  0  0  0  0  0  0  0  0  0  0
   -0.0911    1.5781    2.0621 N   0  0  0  0  0  0  0  0  0  0  0  0
    0.7295    1.0375    2.3199 H   0  0  0  0  0  0  0  0  0  0  0  0
   -0.2362    2.9318    2.5837 C   0  0  0  0  0  0  0  0  0  0  0  0
   -1.0696    2.9817    3.2925 H   0  0  0  0  0  0  0  0  0  0  0  0
    0.6779    3.2379    3.1018 H   0  0  0  0  0  0  0  0  0  0  0  0
   -0.4237    3.6388    1.7685 H   0  0  0  0  0  0  0  0  0  0  0  0
  1  2  1  0  0  0  0
  2  3  1  0  0  0  0
  2  4  1  0  0  0  0
  2  5  1  0  0  0  0
  5  6  2  0  0  0  0
  5  7  1  0  0  0  0
  7  8  1  0  0  0  0
  7  9  1  0  0  0  0
  9 10  1  0  0  0  0
  9 11  1  0  0  0  0
  9 26  1  0  0  0  0
 11 12  1  0  0  0  0
 11 13  1  0  0  0  0
 11 14  1  0  0  0  0
 14 15  1  0  0  0  0
 14 16  1  0  0  0  0
 14 17  1  0  0  0  0
 17 18  1  0  0  0  0
 17 19  1  0  0  0  0
 17 20  1  0  0  0  0
 20 21  1  0  0  0  0
 20 22  1  0  0  0  0
 20 23  1  0  0  0  0
 23 24  1  0  0  0  0
 23 25  1  0  0  0  0
 26 27  2  0  0  0  0
 26 28  1  0  0  0  0
 28 29  1  0  0  0  0
 28 30  1  0  0  0  0
 30 31  1  0  0  0  0
 30 32  1  0  0  0  0
 30 33  1  0  0  0  0
M  END
$$$$

  -OEChem-03222214063D

 33 32  0     1  0  0  0  0  0999 V2000
   -3.3915   -4.1401    2.4114 H   0  0  0  0  0  0  0  0  0  0  0  0
   -3.5235   -3.1643    1.9358 C   0  0  0  0  0  0  0  0  0  0  0  0
   -4.1140   -2.5265    2.5981 H   0  0  0  0  0  0  0  0  0  0  0  0
   -4.0633   -3.2994    0.9955 H   0  0  0  0  0  0  0  0  0  0  0  0
   -2.1741   -2.5248    1.6695 C   0  0  0  0  0  0  0  0  0  0  0  0
   -1.1473   -3.1263    1.9445 O   0  0  0  0  0  0  0  0  0  0  0  0
   -2.1159   -1.2635    1.1177 N   0  0  0  0  0  0  0  0  0  0  0  0
   -2.9969   -0.7807    0.9449 H   0  0  0  0  0  0  0  0  0  0  0  0
   -0.8851   -0.5080    0.8628 C   0  0  1  0  0  0  0  0  0  0  0  0
   -0.0802   -0.9256    1.4766 H   0  0  0  0  0  0  0  0  0  0  0  0
   -0.3922   -0.5143   -0.6122 C   0  0  0  0  0  0  0  0  0  0  0  0
    0.2381    0.3687   -0.7642 H   0  0  0  0  0  0  0  0  0  0  0  0
    0.2753   -1.3791   -0.6890 H   0  0  0  0  0  0  0  0  0  0  0  0
   -1.3519   -0.6225   -1.8340 C   0  0  0  0  0  0  0  0  0  0  0  0
   -1.1774    0.2677   -2.4475 H   0  0  0  0  0  0  0  0  0  0  0  0
   -1.0401   -1.4855   -2.4318 H   0  0  0  0  0  0  0  0  0  0  0  0
   -2.8687   -0.7300   -1.6124 C   0  0  0  0  0  0  0  0  0  0  0  0
   -3.1084   -1.7038   -1.1762 H   0  0  0  0  0  0  0  0  0  0  0  0
   -3.2079    0.0591   -0.9343 H   0  0  0  0  0  0  0  0  0  0  0  0
   -3.6198   -0.5913   -2.9334 C   0  0  0  0  0  0  0  0  0  0  0  0
   -3.4672    0.4129   -3.3447 H   0  0  0  0  0  0  0  0  0  0  0  0
   -3.2421   -1.3184   -3.6607 H   0  0  0  0  0  0  0  0  0  0  0  0
   -5.0473   -0.8225   -2.6894 N   0  0  0  0  0  0  0  0  0  0  0  0
   -5.5956   -0.6716   -3.5362 H   0  0  0  0  0  0  0  0  0  0  0  0
   -5.2086   -1.7561   -2.3133 H   0  0  0  0  0  0  0  0  0  0  0  0
   -1.0740    0.9486    1.3371 C   0  0  0  0  0  0  0  0  0  0  0  0
   -2.1237    1.5423    1.1190 O   0  0  0  0  0  0  0  0  0  0  0  0
   -0.0832    1.5775    2.0692 N   0  0  0  0  0  0  0  0  0  0  0  0
    0.7452    1.0369    2.3007 H   0  0  0  0  0  0  0  0  0  0  0  0
   -0.2251    2.9203    2.6187 C   0  0  0  0  0  0  0  0  0  0  0  0
   -1.0507    2.9551    3.3373 H   0  0  0  0  0  0  0  0  0  0  0  0
    0.6941    3.2178    3.1325 H   0  0  0  0  0  0  0  0  0  0  0  0
   -0.4230    3.6426    1.8196 H   0  0  0  0  0  0  0  0  0  0  0  0
  1  2  1  0  0  0  0
  2  3  1  0  0  0  0
  2  4  1  0  0  0  0
  2  5  1  0  0  0  0
  5  6  2  0  0  0  0
  5  7  1  0  0  0  0
  7  8  1  0  0  0  0
  7  9  1  0  0  0  0
  9 10  1  0  0  0  0
  9 11  1  0  0  0  0
  9 26  1  0  0  0  0
 11 12  1  0  0  0  0
 11 13  1  0  0  0  0
 11 14  1  0  0  0  0
 14 15  1  0  0  0  0
 14 16  1  0  0  0  0
 14 17  1  0  0  0  0
 17 18  1  0  0  0  0
 17 19  1  0  0  0  0
 17 20  1  0  0  0  0
 20 21  1  0  0  0  0
 20 22  1  0  0  0  0
 20 23  1  0  0  0  0
 23 24  1  0  0  0  0
 23 25  1  0  0  0  0
 26 27  2  0  0  0  0
 26 28  1  0  0  0  0
 28 29  1  0  0  0  0
 28 30  1  0  0  0  0
 30 31  1  0  0  0  0
 30 32  1  0  0  0  0
 30 33  1  0  0  0  0
M  END
$$$$

  -OEChem-03222214063D

 33 32  0     1  0  0  0  0  0999 V2000
   -3.3864   -4.1466    2.3061 H   0  0  0  0  0  0  0  0  0  0  0  0
   -3.5231   -3.1619    1.8506 C   0  0  0  0  0  0  0  0  0  0  0  0
   -4.1143   -2.5396    2.5269 H   0  0  0  0  0  0  0  0  0  0  0  0
   -4.0643   -3.2804    0.9088 H   0  0  0  0  0  0  0  0  0  0  0  0
   -2.1766   -2.5125    1.5944 C   0  0  0  0  0  0  0  0  0  0  0  0
   -1.1472   -3.1222    1.8395 O   0  0  0  0  0  0  0  0  0  0  0  0
   -2.1239   -1.2365    1.0767 N   0  0  0  0  0  0  0  0  0  0  0  0
   -3.0051   -0.7423    0.9424 H   0  0  0  0  0  0  0  0  0  0  0  0
   -0.8961   -0.4712    0.8406 C   0  0  1  0  0  0  0  0  0  0  0  0
   -0.0963   -0.9011    1.4520 H   0  0  0  0  0  0  0  0  0  0  0  0
   -0.4002   -0.4948   -0.6308 C   0  0  0  0  0  0  0  0  0  0  0  0
    0.1943    0.4111   -0.7907 H   0  0  0  0  0  0  0  0  0  0  0  0
    0.2976   -1.3353   -0.7082 H   0  0  0  0  0  0  0  0  0  0  0  0
   -1.3702   -0.6267   -1.8398 C   0  0  0  0  0  0  0  0  0  0  0  0
   -1.0161    0.0672   -2.6095 H   0  0  0  0  0  0  0  0  0  0  0  0
   -1.2579   -1.6371   -2.2471 H   0  0  0  0  0  0  0  0  0  0  0  0
   -2.8763   -0.3891   -1.6334 C   0  0  0  0  0  0  0  0  0  0  0  0
   -3.3236   -1.2371   -1.1093 H   0  0  0  0  0  0  0  0  0  0  0  0
   -3.0369    0.5171   -1.0427 H   0  0  0  0  0  0  0  0  0  0  0  0
   -3.5817   -0.2324   -2.9781 C   0  0  0  0  0  0  0  0  0  0  0  0
   -3.2083    0.6594   -3.4938 H   0  0  0  0  0  0  0  0  0  0  0  0
   -3.3787   -1.1025   -3.6123 H   0  0  0  0  0  0  0  0  0  0  0  0
   -5.0242   -0.1083   -2.7463 N   0  0  0  0  0  0  0  0  0  0  0  0
   -5.5275    0.0435   -3.6203 H   0  0  0  0  0  0  0  0  0  0  0  0
   -5.3889   -0.9212   -2.2515 H   0  0  0  0  0  0  0  0  0  0  0  0
   -1.0671    0.9772    1.3474 C   0  0  0  0  0  0  0  0  0  0  0  0
   -2.1255    1.5734    1.1888 O   0  0  0  0  0  0  0  0  0  0  0  0
   -0.0636    1.5770    2.0869 N   0  0  0  0  0  0  0  0  0  0  0  0
    0.7708    1.0301    2.2780 H   0  0  0  0  0  0  0  0  0  0  0  0
   -0.1935    2.8983    2.6892 C   0  0  0  0  0  0  0  0  0  0  0  0
   -1.0217    2.9130    3.4055 H   0  0  0  0  0  0  0  0  0  0  0  0
    0.7263    3.1649    3.2186 H   0  0  0  0  0  0  0  0  0  0  0  0
   -0.3794    3.6539    1.9186 H   0  0  0  0  0  0  0  0  0  0  0  0
  1  2  1  0  0  0  0
  2  3  1  0  0  0  0
  2  4  1  0  0  0  0
  2  5  1  0  0  0  0
  5  6  2  0  0  0  0
  5  7  1  0  0  0  0
  7  8  1  0  0  0  0
  7  9  1  0  0  0  0
  9 10  1  0  0  0  0
  9 11  1  0  0  0  0
  9 26  1  0  0  0  0
 11 12  1  0  0  0  0
 11 13  1  0  0  0  0
 11 14  1  0  0  0  0
 14 15  1  0  0  0  0
 14 16  1  0  0  0  0
 14 17  1  0  0  0  0
 17 18  1  0  0  0  0
 17 19  1  0  0  0  0
 17 20  1  0  0  0  0
 20 21  1  0  0  0  0
 20 22  1  0  0  0  0
 20 23  1  0  0  0  0
 23 24  1  0  0  0  0
 23 25  1  0  0  0  0
 26 27  2  0  0  0  0
 26 28  1  0  0  0  0
 28 29  1  0  0  0  0
 28 30  1  0  0  0  0
 30 31  1  0  0  0  0
 30 32  1  0  0  0  0
 30 33  1  0  0  0  0
M  END
$$$$

  -OEChem-03222214063D

 33 32  0     1  0  0  0  0  0999 V2000
   -3.4423   -4.1306    2.1988 H   0  0  0  0  0  0  0  0  0  0  0  0
   -3.5641   -3.1388    1.7547 C   0  0  0  0  0  0  0  0  0  0  0  0
   -4.1383   -2.5135    2.4426 H   0  0  0  0  0  0  0  0  0  0  0  0
   -4.1148   -3.2373    0.8162 H   0  0  0  0  0  0  0  0  0  0  0  0
   -2.2077   -2.5120    1.4933 C   0  0  0  0  0  0  0  0  0  0  0  0
   -1.1880   -3.1466    1.7151 O   0  0  0  0  0  0  0  0  0  0  0  0
   -2.1352   -1.2264    1.0017 N   0  0  0  0  0  0  0  0  0  0  0  0
   -3.0062   -0.7048    0.9134 H   0  0  0  0  0  0  0  0  0  0  0  0
   -0.8947   -0.4679    0.8078 C   0  0  1  0  0  0  0  0  0  0  0  0
   -0.1109   -0.9165    1.4267 H   0  0  0  0  0  0  0  0  0  0  0  0
   -0.3766   -0.4828   -0.6538 C   0  0  0  0  0  0  0  0  0  0  0  0
    0.2172    0.4260   -0.7991 H   0  0  0  0  0  0  0  0  0  0  0  0
    0.3187   -1.3245   -0.7390 H   0  0  0  0  0  0  0  0  0  0  0  0
   -1.3489   -0.5925   -1.8576 C   0  0  0  0  0  0  0  0  0  0  0  0
   -0.8569   -0.1292   -2.7193 H   0  0  0  0  0  0  0  0  0  0  0  0
   -1.4692   -1.6563   -2.0886 H   0  0  0  0  0  0  0  0  0  0  0  0
   -2.7624    0.0004   -1.7127 C   0  0  0  0  0  0  0  0  0  0  0  0
   -3.3725   -0.5971   -1.0339 H   0  0  0  0  0  0  0  0  0  0  0  0
   -2.6970    1.0187   -1.3182 H   0  0  0  0  0  0  0  0  0  0  0  0
   -3.4611    0.0394   -3.0697 C   0  0  0  0  0  0  0  0  0  0  0  0
   -2.8900    0.6599   -3.7692 H   0  0  0  0  0  0  0  0  0  0  0  0
   -3.5247   -0.9720   -3.4862 H   0  0  0  0  0  0  0  0  0  0  0  0
   -4.8055    0.5975   -2.8949 N   0  0  0  0  0  0  0  0  0  0  0  0
   -5.3183    0.6154   -3.7761 H   0  0  0  0  0  0  0  0  0  0  0  0
   -5.3253    0.0918   -2.1785 H   0  0  0  0  0  0  0  0  0  0  0  0
   -1.0648    0.9718    1.3396 C   0  0  0  0  0  0  0  0  0  0  0  0
   -2.1297    1.5628    1.2049 O   0  0  0  0  0  0  0  0  0  0  0  0
   -0.0732    1.5485    2.1126 N   0  0  0  0  0  0  0  0  0  0  0  0
    0.7670    1.0038    2.2838 H   0  0  0  0  0  0  0  0  0  0  0  0
   -0.2088    2.8545    2.7467 C   0  0  0  0  0  0  0  0  0  0  0  0
   -1.0652    2.8628    3.4293 H   0  0  0  0  0  0  0  0  0  0  0  0
    0.6921    3.0918    3.3205 H   0  0  0  0  0  0  0  0  0  0  0  0
   -0.3526    3.6334    1.9906 H   0  0  0  0  0  0  0  0  0  0  0  0
  1  2  1  0  0  0  0
  2  3  1  0  0  0  0
  2  4  1  0  0  0  0
  2  5  1  0  0  0  0
  5  6  2  0  0  0  0
  5  7  1  0  0  0  0
  7  8  1  0  0  0  0
  7  9  1  0  0  0  0
  9 10  1  0  0  0  0
  9 11  1  0  0  0  0
  9 26  1  0  0  0  0
 11 12  1  0  0  0  0
 11 13  1  0  0  0  0
 11 14  1  0  0  0  0
 14 15  1  0  0  0  0
 14 16  1  0  0  0  0
 14 17  1  0  0  0  0
 17 18  1  0  0  0  0
 17 19  1  0  0  0  0
 17 20  1  0  0  0  0
 20 21  1  0  0  0  0
 20 22  1  0  0  0  0
 20 23  1  0  0  0  0
 23 24  1  0  0  0  0
 23 25  1  0  0  0  0
 26 27  2  0  0  0  0
 26 28  1  0  0  0  0
 28 29  1  0  0  0  0
 28 30  1  0  0  0  0
 30 31  1  0  0  0  0
 30 32  1  0  0  0  0
 30 33  1  0  0  0  0
M  END
$$$$

  -OEChem-03222214063D

 33 32  0     1  0  0  0  0  0999 V2000
   -3.5097   -4.1128    2.0234 H   0  0  0  0  0  0  0  0  0  0  0  0
   -3.6106   -3.1092    1.6011 C   0  0  0  0  0  0  0  0  0  0  0  0
   -4.1898   -2.4933    2.2932 H   0  0  0  0  0  0  0  0  0  0  0  0
   -4.1443   -3.1785    0.6502 H   0  0  0  0  0  0  0  0  0  0  0  0
   -2.2415   -2.4937    1.3822 C   0  0  0  0  0  0  0  0  0  0  0  0
   -1.2350   -3.1363    1.6373 O   0  0  0  0  0  0  0  0  0  0  0  0
   -2.1421   -1.2073    0.8973 N   0  0  0  0  0  0  0  0  0  0  0  0
   -3.0051   -0.6769    0.7895 H   0  0  0  0  0  0  0  0  0  0  0  0
   -0.8872   -0.4543    0.7676 C   0  0  1  0  0  0  0  0  0  0  0  0
   -0.1340   -0.9094    1.4191 H   0  0  0  0  0  0  0  0  0  0  0  0
   -0.3176   -0.4821   -0.6727 C   0  0  0  0  0  0  0  0  0  0  0  0
    0.2927    0.4163   -0.8142 H   0  0  0  0  0  0  0  0  0  0  0  0
    0.3611   -1.3389   -0.7380 H   0  0  0  0  0  0  0  0  0  0  0  0
   -1.2881   -0.5902   -1.8719 C   0  0  0  0  0  0  0  0  0  0  0  0
   -0.7223   -0.3822   -2.7860 H   0  0  0  0  0  0  0  0  0  0  0  0
   -1.6376   -1.6263   -1.9334 H   0  0  0  0  0  0  0  0  0  0  0  0
   -2.5242    0.3250   -1.8253 C   0  0  0  0  0  0  0  0  0  0  0  0
   -3.1798    0.0698   -0.9918 H   0  0  0  0  0  0  0  0  0  0  0  0
   -2.1985    1.3621   -1.6933 H   0  0  0  0  0  0  0  0  0  0  0  0
   -3.3232    0.2107   -3.1209 C   0  0  0  0  0  0  0  0  0  0  0  0
   -2.6851    0.4397   -3.9816 H   0  0  0  0  0  0  0  0  0  0  0  0
   -3.6981   -0.8122   -3.2377 H   0  0  0  0  0  0  0  0  0  0  0  0
   -4.4410    1.1575   -3.0678 N   0  0  0  0  0  0  0  0  0  0  0  0
   -5.0573    1.0527   -3.8733 H   0  0  0  0  0  0  0  0  0  0  0  0
   -4.9591    1.0682   -2.1938 H   0  0  0  0  0  0  0  0  0  0  0  0
   -1.0699    0.9867    1.2922 C   0  0  0  0  0  0  0  0  0  0  0  0
   -2.1271    1.5819    1.1177 O   0  0  0  0  0  0  0  0  0  0  0  0
   -0.1118    1.5533    2.1136 N   0  0  0  0  0  0  0  0  0  0  0  0
    0.7180    1.0039    2.3180 H   0  0  0  0  0  0  0  0  0  0  0  0
   -0.2728    2.8525    2.7556 C   0  0  0  0  0  0  0  0  0  0  0  0
   -1.1412    2.8452    3.4228 H   0  0  0  0  0  0  0  0  0  0  0  0
    0.6155    3.0948    3.3469 H   0  0  0  0  0  0  0  0  0  0  0  0
   -0.4120    3.6368    2.0041 H   0  0  0  0  0  0  0  0  0  0  0  0
  1  2  1  0  0  0  0
  2  3  1  0  0  0  0
  2  4  1  0  0  0  0
  2  5  1  0  0  0  0
  5  6  2  0  0  0  0
  5  7  1  0  0  0  0
  7  8  1  0  0  0  0
  7  9  1  0  0  0  0
  9 10  1  0  0  0  0
  9 11  1  0  0  0  0
  9 26  1  0  0  0  0
 11 12  1  0  0  0  0
 11 13  1  0  0  0  0
 11 14  1  0  0  0  0
 14 15  1  0  0  0  0
 14 16  1  0  0  0  0
 14 17  1  0  0  0  0
 17 18  1  0  0  0  0
 17 19  1  0  0  0  0
 17 20  1  0  0  0  0
 20 21  1  0  0  0  0
 20 22  1  0  0  0  0
 20 23  1  0  0  0  0
 23 24  1  0  0  0  0
 23 25  1  0  0  0  0
 26 27  2  0  0  0  0
 26 28  1  0  0  0  0
 28 29  1  0  0  0  0
 28 30  1  0  0  0  0
 30 31  1  0  0  0  0
 30 32  1  0  0  0  0
 30 33  1  0  0  0  0
M  END
$$$$

  -OEChem-03222214063D

 33 32  0     1  0  0  0  0  0999 V2000
   -3.5467   -4.1012    1.9394 H   0  0  0  0  0  0  0  0  0  0  0  0
   -3.6382   -3.0987    1.5122 C   0  0  0  0  0  0  0  0  0  0  0  0
   -4.2380   -2.4823    2.1862 H   0  0  0  0  0  0  0  0  0  0  0  0
   -4.1448   -3.1713    0.5469 H   0  0  0  0  0  0  0  0  0  0  0  0
   -2.2653   -2.4802    1.3291 C   0  0  0  0  0  0  0  0  0  0  0  0
   -1.2641   -3.1207    1.6091 O   0  0  0  0  0  0  0  0  0  0  0  0
   -2.1573   -1.1940    0.8448 N   0  0  0  0  0  0  0  0  0  0  0  0
   -3.0192   -0.6674    0.7131 H   0  0  0  0  0  0  0  0  0  0  0  0
   -0.9012   -0.4371    0.7430 C   0  0  1  0  0  0  0  0  0  0  0  0
   -0.1663   -0.8904    1.4163 H   0  0  0  0  0  0  0  0  0  0  0  0
   -0.2941   -0.4880   -0.6806 C   0  0  0  0  0  0  0  0  0  0  0  0
    0.3257    0.4016   -0.8352 H   0  0  0  0  0  0  0  0  0  0  0  0
    0.3751   -1.3537   -0.7183 H   0  0  0  0  0  0  0  0  0  0  0  0
   -1.2695   -0.6242   -1.8683 C   0  0  0  0  0  0  0  0  0  0  0  0
   -0.6769   -0.6625   -2.7883 H   0  0  0  0  0  0  0  0  0  0  0  0
   -1.8096   -1.5734   -1.7905 H   0  0  0  0  0  0  0  0  0  0  0  0
   -2.2786    0.5265   -1.9769 C   0  0  0  0  0  0  0  0  0  0  0  0
   -2.9606    0.5140   -1.1236 H   0  0  0  0  0  0  0  0  0  0  0  0
   -1.7445    1.4823   -1.9724 H   0  0  0  0  0  0  0  0  0  0  0  0
   -3.0979    0.4107   -3.2587 C   0  0  0  0  0  0  0  0  0  0  0  0
   -2.4367    0.3841   -4.1318 H   0  0  0  0  0  0  0  0  0  0  0  0
   -3.6816   -0.5163   -3.2449 H   0  0  0  0  0  0  0  0  0  0  0  0
   -3.9896    1.5704   -3.3469 N   0  0  0  0  0  0  0  0  0  0  0  0
   -4.6262    1.4923   -4.1396 H   0  0  0  0  0  0  0  0  0  0  0  0
   -4.5022    1.7069   -2.4750 H   0  0  0  0  0  0  0  0  0  0  0  0
   -1.0847    1.0076    1.2583 C   0  0  0  0  0  0  0  0  0  0  0  0
   -2.1397    1.6047    1.0779 O   0  0  0  0  0  0  0  0  0  0  0  0
   -0.1377    1.5687    2.0961 N   0  0  0  0  0  0  0  0  0  0  0  0
    0.6868    1.0157    2.3116 H   0  0  0  0  0  0  0  0  0  0  0  0
   -0.3000    2.8700    2.7335 C   0  0  0  0  0  0  0  0  0  0  0  0
   -1.1779    2.8696    3.3879 H   0  0  0  0  0  0  0  0  0  0  0  0
    0.5810    3.1075    3.3374 H   0  0  0  0  0  0  0  0  0  0  0  0
   -0.4226    3.6537    1.9786 H   0  0  0  0  0  0  0  0  0  0  0  0
  1  2  1  0  0  0  0
  2  3  1  0  0  0  0
  2  4  1  0  0  0  0
  2  5  1  0  0  0  0
  5  6  2  0  0  0  0
  5  7  1  0  0  0  0
  7  8  1  0  0  0  0
  7  9  1  0  0  0  0
  9 10  1  0  0  0  0
  9 11  1  0  0  0  0
  9 26  1  0  0  0  0
 11 12  1  0  0  0  0
 11 13  1  0  0  0  0
 11 14  1  0  0  0  0
 14 15  1  0  0  0  0
 14 16  1  0  0  0  0
 14 17  1  0  0  0  0
 17 18  1  0  0  0  0
 17 19  1  0  0  0  0
 17 20  1  0  0  0  0
 20 21  1  0  0  0  0
 20 22  1  0  0  0  0
 20 23  1  0  0  0  0
 23 24  1  0  0  0  0
 23 25  1  0  0  0  0
 26 27  2  0  0  0  0
 26 28  1  0  0  0  0
 28 29  1  0  0  0  0
 28 30  1  0  0  0  0
 30 31  1  0  0  0  0
 30 32  1  0  0  0  0
 30 33  1  0  0  0  0
M  END
$$$$

  -OEChem-03222214063D

 33 32  0     1  0  0  0  0  0999 V2000
   -3.5640   -4.0883    1.9489 H   0  0  0  0  0  0  0  0  0  0  0  0
   -3.6545   -3.0923    1.5064 C   0  0  0  0  0  0  0  0  0  0  0  0
   -4.2557   -2.4661    2.1701 H   0  0  0  0  0  0  0  0  0  0  0  0
   -4.1598   -3.1793    0.5416 H   0  0  0  0  0  0  0  0  0  0  0  0
   -2.2805   -2.4776    1.3168 C   0  0  0  0  0  0  0  0  0  0  0  0
   -1.2811   -3.1191    1.6011 O   0  0  0  0  0  0  0  0  0  0  0  0
   -2.1675   -1.1943    0.8251 N   0  0  0  0  0  0  0  0  0  0  0  0
   -3.0271   -0.6623    0.6985 H   0  0  0  0  0  0  0  0  0  0  0  0
   -0.9081   -0.4426    0.7251 C   0  0  1  0  0  0  0  0  0  0  0  0
   -0.1784   -0.8934    1.4057 H   0  0  0  0  0  0  0  0  0  0  0  0
   -0.2878   -0.4938   -0.6929 C   0  0  0  0  0  0  0  0  0  0  0  0
    0.3556    0.3791   -0.8455 H   0  0  0  0  0  0  0  0  0  0  0  0
    0.3615   -1.3750   -0.7201 H   0  0  0  0  0  0  0  0  0  0  0  0
   -1.2603   -0.6280   -1.8828 C   0  0  0  0  0  0  0  0  0  0  0  0
   -0.6712   -0.9036   -2.7637 H   0  0  0  0  0  0  0  0  0  0  0  0
   -1.9755   -1.4383   -1.7118 H   0  0  0  0  0  0  0  0  0  0  0  0
   -2.0011    0.6779   -2.1921 C   0  0  0  0  0  0  0  0  0  0  0  0
   -2.6660    0.9326   -1.3637 H   0  0  0  0  0  0  0  0  0  0  0  0
   -1.2797    1.4925   -2.3128 H   0  0  0  0  0  0  0  0  0  0  0  0
   -2.8311    0.5448   -3.4652 C   0  0  0  0  0  0  0  0  0  0  0  0
   -2.1913    0.2621   -4.3086 H   0  0  0  0  0  0  0  0  0  0  0  0
   -3.5891   -0.2356   -3.3359 H   0  0  0  0  0  0  0  0  0  0  0  0
   -3.4723    1.8344   -3.7369 N   0  0  0  0  0  0  0  0  0  0  0  0
   -4.1025    1.7755   -4.5363 H   0  0  0  0  0  0  0  0  0  0  0  0
   -3.9605    2.1809   -2.9102 H   0  0  0  0  0  0  0  0  0  0  0  0
   -1.0965    1.0036    1.2325 C   0  0  0  0  0  0  0  0  0  0  0  0
   -2.1541    1.5952    1.0469 O   0  0  0  0  0  0  0  0  0  0  0  0
   -0.1555    1.5697    2.0738 N   0  0  0  0  0  0  0  0  0  0  0  0
    0.6715    1.0214    2.2920 H   0  0  0  0  0  0  0  0  0  0  0  0
   -0.3312    2.8662    2.7173 C   0  0  0  0  0  0  0  0  0  0  0  0
   -1.2173    2.8578    3.3609 H   0  0  0  0  0  0  0  0  0  0  0  0
    0.5410    3.1041    3.3337 H   0  0  0  0  0  0  0  0  0  0  0  0
   -0.4482    3.6540    1.9656 H   0  0  0  0  0  0  0  0  0  0  0  0
  1  2  1  0  0  0  0
  2  3  1  0  0  0  0
  2  4  1  0  0  0  0
  2  5  1  0  0  0  0
  5  6  2  0  0  0  0
  5  7  1  0  0  0  0
  7  8  1  0  0  0  0
  7  9  1  0  0  0  0
  9 10  1  0  0  0  0
  9 11  1  0  0  0  0
  9 26  1  0  0  0  0
 11 12  1  0  0  0  0
 11 13  1  0  0  0  0
 11 14  1  0  0  0  0
 14 15  1  0  0  0  0
 14 16  1  0  0  0  0
 14 17  1  0  0  0  0
 17 18  1  0  0  0  0
 17 19  1  0  0  0  0
 17 20  1  0  0  0  0
 20 21  1  0  0  0  0
 20 22  1  0  0  0  0
 20 23  1  0  0  0  0
 23 24  1  0  0  0  0
 23 25  1  0  0  0  0
 26 27  2  0  0  0  0
 26 28  1  0  0  0  0
 28 29  1  0  0  0  0
 28 30  1  0  0  0  0
 30 31  1  0  0  0  0
 30 32  1  0  0  0  0
 30 33  1  0  0  0  0
M  END
$$$$

  -OEChem-03222214063D

 33 32  0     1  0  0  0  0  0999 V2000
   -3.5921   -4.0928    1.9553 H   0  0  0  0  0  0  0  0  0  0  0  0
   -3.6719   -3.0979    1.5083 C   0  0  0  0  0  0  0  0  0  0  0  0
   -4.2741   -2.4644    2.1641 H   0  0  0  0  0  0  0  0  0  0  0  0
   -4.1694   -3.1856    0.5395 H   0  0  0  0  0  0  0  0  0  0  0  0
   -2.2922   -2.4936    1.3279 C   0  0  0  0  0  0  0  0  0  0  0  0
   -1.3001   -3.1324    1.6423 O   0  0  0  0  0  0  0  0  0  0  0  0
   -2.1657   -1.2222    0.8096 N   0  0  0  0  0  0  0  0  0  0  0  0
   -3.0204   -0.6867    0.6644 H   0  0  0  0  0  0  0  0  0  0  0  0
   -0.9003   -0.4802    0.7118 C   0  0  1  0  0  0  0  0  0  0  0  0
   -0.1748   -0.9196    1.4044 H   0  0  0  0  0  0  0  0  0  0  0  0
   -0.2683   -0.5219   -0.7020 C   0  0  0  0  0  0  0  0  0  0  0  0
    0.4001    0.3348   -0.8388 H   0  0  0  0  0  0  0  0  0  0  0  0
    0.3621   -1.4170   -0.7260 H   0  0  0  0  0  0  0  0  0  0  0  0
   -1.2300   -0.6378   -1.9048 C   0  0  0  0  0  0  0  0  0  0  0  0
   -0.6966   -1.1476   -2.7138 H   0  0  0  0  0  0  0  0  0  0  0  0
   -2.1050   -1.2496   -1.6709 H   0  0  0  0  0  0  0  0  0  0  0  0
   -1.6598    0.7418   -2.4184 C   0  0  0  0  0  0  0  0  0  0  0  0
   -2.1993    1.2779   -1.6336 H   0  0  0  0  0  0  0  0  0  0  0  0
   -0.7744    1.3293   -2.6822 H   0  0  0  0  0  0  0  0  0  0  0  0
   -2.5610    0.6139   -3.6423 C   0  0  0  0  0  0  0  0  0  0  0  0
   -2.0411    0.0725   -4.4404 H   0  0  0  0  0  0  0  0  0  0  0  0
   -3.4665    0.0536   -3.3838 H   0  0  0  0  0  0  0  0  0  0  0  0
   -2.9132    1.9613   -4.0994 N   0  0  0  0  0  0  0  0  0  0  0  0
   -3.5581    1.9285   -4.8885 H   0  0  0  0  0  0  0  0  0  0  0  0
   -3.3007    2.5149   -3.3345 H   0  0  0  0  0  0  0  0  0  0  0  0
   -1.1129    0.9719    1.1889 C   0  0  0  0  0  0  0  0  0  0  0  0
   -2.1671    1.5519    0.9509 O   0  0  0  0  0  0  0  0  0  0  0  0
   -0.1977    1.5668    2.0381 N   0  0  0  0  0  0  0  0  0  0  0  0
    0.6301    1.0333    2.2878 H   0  0  0  0  0  0  0  0  0  0  0  0
   -0.3999    2.8788    2.6405 C   0  0  0  0  0  0  0  0  0  0  0  0
   -1.2973    2.8774    3.2681 H   0  0  0  0  0  0  0  0  0  0  0  0
    0.4583    3.1454    3.2649 H   0  0  0  0  0  0  0  0  0  0  0  0
   -0.5135    3.6433    1.8647 H   0  0  0  0  0  0  0  0  0  0  0  0
  1  2  1  0  0  0  0
  2  3  1  0  0  0  0
  2  4  1  0  0  0  0
  2  5  1  0  0  0  0
  5  6  2  0  0  0  0
  5  7  1  0  0  0  0
  7  8  1  0  0  0  0
  7  9  1  0  0  0  0
  9 10  1  0  0  0  0
  9 11  1  0  0  0  0
  9 26  1  0  0  0  0
 11 12  1  0  0  0  0
 11 13  1  0  0  0  0
 11 14  1  0  0  0  0
 14 15  1  0  0  0  0
 14 16  1  0  0  0  0
 14 17  1  0  0  0  0
 17 18  1  0  0  0  0
 17 19  1  0  0  0  0
 17 20  1  0  0  0  0
 20 21  1  0  0  0  0
 20 22  1  0  0  0  0
 20 23  1  0  0  0  0
 23 24  1  0  0  0  0
 23 25  1  0  0  0  0
 26 27  2  0  0  0  0
 26 28  1  0  0  0  0
 28 29  1  0  0  0  0
 28 30  1  0  0  0  0
 30 31  1  0  0  0  0
 30 32  1  0  0  0  0
 30 33  1  0  0  0  0
M  END
$$$$

  -OEChem-03222214063D

 33 32  0     1  0  0  0  0  0999 V2000
   -3.6125   -4.1034    2.0017 H   0  0  0  0  0  0  0  0  0  0  0  0
   -3.6806   -3.1305    1.5069 C   0  0  0  0  0  0  0  0  0  0  0  0
   -4.3098   -2.4719    2.1104 H   0  0  0  0  0  0  0  0  0  0  0  0
   -4.1414   -3.2653    0.5254 H   0  0  0  0  0  0  0  0  0  0  0  0
   -2.2984   -2.5257    1.3501 C   0  0  0  0  0  0  0  0  0  0  0  0
   -1.3138   -3.1501    1.7130 O   0  0  0  0  0  0  0  0  0  0  0  0
   -2.1622   -1.2679    0.8023 N   0  0  0  0  0  0  0  0  0  0  0  0
   -3.0144   -0.7438    0.6093 H   0  0  0  0  0  0  0  0  0  0  0  0
   -0.8954   -0.5269    0.7129 C   0  0  1  0  0  0  0  0  0  0  0  0
   -0.1724   -0.9505    1.4175 H   0  0  0  0  0  0  0  0  0  0  0  0
   -0.2560   -0.5569   -0.6976 C   0  0  0  0  0  0  0  0  0  0  0  0
    0.4202    0.2964   -0.8193 H   0  0  0  0  0  0  0  0  0  0  0  0
    0.3720   -1.4534   -0.7263 H   0  0  0  0  0  0  0  0  0  0  0  0
   -1.2151   -0.6600   -1.9063 C   0  0  0  0  0  0  0  0  0  0  0  0
   -0.8055   -1.3888   -2.6135 H   0  0  0  0  0  0  0  0  0  0  0  0
   -2.2085   -1.0159   -1.6243 H   0  0  0  0  0  0  0  0  0  0  0  0
   -1.3313    0.6930   -2.6186 C   0  0  0  0  0  0  0  0  0  0  0  0
   -1.6837    1.4507   -1.9116 H   0  0  0  0  0  0  0  0  0  0  0  0
   -0.3467    1.0033   -2.9835 H   0  0  0  0  0  0  0  0  0  0  0  0
   -2.3017    0.6129   -3.7921 C   0  0  0  0  0  0  0  0  0  0  0  0
   -1.9671   -0.1460   -4.5079 H   0  0  0  0  0  0  0  0  0  0  0  0
   -3.2981    0.3295   -3.4351 H   0  0  0  0  0  0  0  0  0  0  0  0
   -2.3518    1.9264   -4.4404 N   0  0  0  0  0  0  0  0  0  0  0  0
   -3.0140    1.9313   -5.2157 H   0  0  0  0  0  0  0  0  0  0  0  0
   -2.5780    2.6563   -3.7638 H   0  0  0  0  0  0  0  0  0  0  0  0
   -1.1325    0.9336    1.1504 C   0  0  0  0  0  0  0  0  0  0  0  0
   -2.1583    1.5169    0.8154 O   0  0  0  0  0  0  0  0  0  0  0  0
   -0.2466    1.5609    2.0070 N   0  0  0  0  0  0  0  0  0  0  0  0
    0.5721    1.0378    2.3045 H   0  0  0  0  0  0  0  0  0  0  0  0
   -0.4355    2.9191    2.5017 C   0  0  0  0  0  0  0  0  0  0  0  0
   -1.3795    3.0002    3.0509 H   0  0  0  0  0  0  0  0  0  0  0  0
    0.3811    3.1926    3.1768 H   0  0  0  0  0  0  0  0  0  0  0  0
   -0.4498    3.6307    1.6694 H   0  0  0  0  0  0  0  0  0  0  0  0
  1  2  1  0  0  0  0
  2  3  1  0  0  0  0
  2  4  1  0  0  0  0
  2  5  1  0  0  0  0
  5  6  2  0  0  0  0
  5  7  1  0  0  0  0
  7  8  1  0  0  0  0
  7  9  1  0  0  0  0
  9 10  1  0  0  0  0
  9 11  1  0  0  0  0
  9 26  1  0  0  0  0
 11 12  1  0  0  0  0
 11 13  1  0  0  0  0
 11 14  1  0  0  0  0
 14 15  1  0  0  0  0
 14 16  1  0  0  0  0
 14 17  1  0  0  0  0
 17 18  1  0  0  0  0
 17 19  1  0  0  0  0
 17 20  1  0  0  0  0
 20 21  1  0  0  0  0
 20 22  1  0  0  0  0
 20 23  1  0  0  0  0
 23 24  1  0  0  0  0
 23 25  1  0  0  0  0
 26 27  2  0  0  0  0
 26 28  1  0  0  0  0
 28 29  1  0  0  0  0
 28 30  1  0  0  0  0
 30 31  1  0  0  0  0
 30 32  1  0  0  0  0
 30 33  1  0  0  0  0
M  END
$$$$

  -OEChem-03222214063D

 33 32  0     1  0  0  0  0  0999 V2000
   -3.6297   -4.0989    2.0154 H   0  0  0  0  0  0  0  0  0  0  0  0
   -3.6902   -3.1293    1.5134 C   0  0  0  0  0  0  0  0  0  0  0  0
   -4.3200   -2.4639    2.1089 H   0  0  0  0  0  0  0  0  0  0  0  0
   -4.1466   -3.2693    0.5306 H   0  0  0  0  0  0  0  0  0  0  0  0
   -2.3041   -2.5314    1.3598 C   0  0  0  0  0  0  0  0  0  0  0  0
   -1.3242   -3.1569    1.7334 O   0  0  0  0  0  0  0  0  0  0  0  0
   -2.1591   -1.2780    0.8036 N   0  0  0  0  0  0  0  0  0  0  0  0
   -3.0078   -0.7518    0.6015 H   0  0  0  0  0  0  0  0  0  0  0  0
   -0.8881   -0.5427    0.7147 C   0  0  1  0  0  0  0  0  0  0  0  0
   -0.1645   -0.9663    1.4189 H   0  0  0  0  0  0  0  0  0  0  0  0
   -0.2574   -0.5704   -0.6988 C   0  0  0  0  0  0  0  0  0  0  0  0
    0.4073    0.2927   -0.8149 H   0  0  0  0  0  0  0  0  0  0  0  0
    0.3820   -1.4581   -0.7446 H   0  0  0  0  0  0  0  0  0  0  0  0
   -1.2342   -0.6615   -1.8953 C   0  0  0  0  0  0  0  0  0  0  0  0
   -1.0269   -1.5774   -2.4586 H   0  0  0  0  0  0  0  0  0  0  0  0
   -2.2762   -0.7062   -1.5699 H   0  0  0  0  0  0  0  0  0  0  0  0
   -1.0734    0.5546   -2.8158 C   0  0  0  0  0  0  0  0  0  0  0  0
   -1.2633    1.4712   -2.2471 H   0  0  0  0  0  0  0  0  0  0  0  0
   -0.0471    0.5966   -3.1953 H   0  0  0  0  0  0  0  0  0  0  0  0
   -2.0418    0.4803   -3.9920 C   0  0  0  0  0  0  0  0  0  0  0  0
   -1.8679   -0.4375   -4.5647 H   0  0  0  0  0  0  0  0  0  0  0  0
   -3.0748    0.4641   -3.6269 H   0  0  0  0  0  0  0  0  0  0  0  0
   -1.8267    1.6516   -4.8470 N   0  0  0  0  0  0  0  0  0  0  0  0
   -2.4585    1.6458   -5.6477 H   0  0  0  0  0  0  0  0  0  0  0  0
   -1.9248    2.5153   -4.3124 H   0  0  0  0  0  0  0  0  0  0  0  0
   -1.1244    0.9207    1.1410 C   0  0  0  0  0  0  0  0  0  0  0  0
   -2.1366    1.5093    0.7752 O   0  0  0  0  0  0  0  0  0  0  0  0
   -0.2429    1.5535    1.9981 N   0  0  0  0  0  0  0  0  0  0  0  0
    0.5697    1.0294    2.3106 H   0  0  0  0  0  0  0  0  0  0  0  0
   -0.4234    2.9226    2.4652 C   0  0  0  0  0  0  0  0  0  0  0  0
   -1.3712    3.0219    3.0048 H   0  0  0  0  0  0  0  0  0  0  0  0
    0.3901    3.2015    3.1417 H   0  0  0  0  0  0  0  0  0  0  0  0
   -0.4240    3.6186    1.6197 H   0  0  0  0  0  0  0  0  0  0  0  0
  1  2  1  0  0  0  0
  2  3  1  0  0  0  0
  2  4  1  0  0  0  0
  2  5  1  0  0  0  0
  5  6  2  0  0  0  0
  5  7  1  0  0  0  0
  7  8  1  0  0  0  0
  7  9  1  0  0  0  0
  9 10  1  0  0  0  0
  9 11  1  0  0  0  0
  9 26  1  0  0  0  0
 11 12  1  0  0  0  0
 11 13  1  0  0  0  0
 11 14  1  0  0  0  0
 14 15  1  0  0  0  0
 14 16  1  0  0  0  0
 14 17  1  0  0  0  0
 17 18  1  0  0  0  0
 17 19  1  0  0  0  0
 17 20  1  0  0  0  0
 20 21  1  0  0  0  0
 20 22  1  0  0  0  0
 20 23  1  0  0  0  0
 23 24  1  0  0  0  0
 23 25  1  0  0  0  0
 26 27  2  0  0  0  0
 26 28  1  0  0  0  0
 28 29  1  0  0  0  0
 28 30  1  0  0  0  0
 30 31  1  0  0  0  0
 30 32  1  0  0  0  0
 30 33  1  0  0  0  0
M  END
$$$$

  -OEChem-03222214063D

 33 32  0     1  0  0  0  0  0999 V2000
   -3.6517   -4.0800    1.9514 H   0  0  0  0  0  0  0  0  0  0  0  0
   -3.7021   -3.1002    1.4684 C   0  0  0  0  0  0  0  0  0  0  0  0
   -4.3351   -2.4433    2.0698 H   0  0  0  0  0  0  0  0  0  0  0  0
   -4.1479   -3.2183    0.4778 H   0  0  0  0  0  0  0  0  0  0  0  0
   -2.3117   -2.5068    1.3421 C   0  0  0  0  0  0  0  0  0  0  0  0
   -1.3413   -3.1352    1.7348 O   0  0  0  0  0  0  0  0  0  0  0  0
   -2.1516   -1.2545    0.7885 N   0  0  0  0  0  0  0  0  0  0  0  0
   -2.9940   -0.7237    0.5728 H   0  0  0  0  0  0  0  0  0  0  0  0
   -0.8737   -0.5295    0.7139 C   0  0  1  0  0  0  0  0  0  0  0  0
   -0.1577   -0.9596    1.4219 H   0  0  0  0  0  0  0  0  0  0  0  0
   -0.2437   -0.5753   -0.6981 C   0  0  0  0  0  0  0  0  0  0  0  0
    0.4050    0.2990   -0.8203 H   0  0  0  0  0  0  0  0  0  0  0  0
    0.4054   -1.4554   -0.7515 H   0  0  0  0  0  0  0  0  0  0  0  0
   -1.2409   -0.6645   -1.8747 C   0  0  0  0  0  0  0  0  0  0  0  0
   -1.2754   -1.6923   -2.2509 H   0  0  0  0  0  0  0  0  0  0  0  0
   -2.2495   -0.3919   -1.5505 H   0  0  0  0  0  0  0  0  0  0  0  0
   -0.8489    0.3082   -2.9930 C   0  0  0  0  0  0  0  0  0  0  0  0
   -0.8404    1.3312   -2.6023 H   0  0  0  0  0  0  0  0  0  0  0  0
    0.1595    0.0716   -3.3486 H   0  0  0  0  0  0  0  0  0  0  0  0
   -1.8286    0.2218   -4.1592 C   0  0  0  0  0  0  0  0  0  0  0  0
   -1.8425   -0.7962   -4.5639 H   0  0  0  0  0  0  0  0  0  0  0  0
   -2.8404    0.4663   -3.8174 H   0  0  0  0  0  0  0  0  0  0  0  0
   -1.4043    1.1673   -5.1962 N   0  0  0  0  0  0  0  0  0  0  0  0
   -2.0369    1.1466   -5.9959 H   0  0  0  0  0  0  0  0  0  0  0  0
   -1.3273    2.1118   -4.8184 H   0  0  0  0  0  0  0  0  0  0  0  0
   -1.0996    0.9360    1.1383 C   0  0  0  0  0  0  0  0  0  0  0  0
   -2.1002    1.5364    0.7601 O   0  0  0  0  0  0  0  0  0  0  0  0
   -0.2202    1.5584    2.0049 N   0  0  0  0  0  0  0  0  0  0  0  0
    0.5749    1.0200    2.3369 H   0  0  0  0  0  0  0  0  0  0  0  0
   -0.4045    2.9200    2.4915 C   0  0  0  0  0  0  0  0  0  0  0  0
   -1.3501    3.0073    3.0370 H   0  0  0  0  0  0  0  0  0  0  0  0
    0.4113    3.1934    3.1676 H   0  0  0  0  0  0  0  0  0  0  0  0
   -0.4127    3.6273    1.6556 H   0  0  0  0  0  0  0  0  0  0  0  0
  1  2  1  0  0  0  0
  2  3  1  0  0  0  0
  2  4  1  0  0  0  0
  2  5  1  0  0  0  0
  5  6  2  0  0  0  0
  5  7  1  0  0  0  0
  7  8  1  0  0  0  0
  7  9  1  0  0  0  0
  9 10  1  0  0  0  0
  9 11  1  0  0  0  0
  9 26  1  0  0  0  0
 11 12  1  0  0  0  0
 11 13  1  0  0  0  0
 11 14  1  0  0  0  0
 14 15  1  0  0  0  0
 14 16  1  0  0  0  0
 14 17  1  0  0  0  0
 17 18  1  0  0  0  0
 17 19  1  0  0  0  0
 17 20  1  0  0  0  0
 20 21  1  0  0  0  0
 20 22  1  0  0  0  0
 20 23  1  0  0  0  0
 23 24  1  0  0  0  0
 23 25  1  0  0  0  0
 26 27  2  0  0  0  0
 26 28  1  0  0  0  0
 28 29  1  0  0  0  0
 28 30  1  0  0  0  0
 30 31  1  0  0  0  0
 30 32  1  0  0  0  0
 30 33  1  0  0  0  0
M  END
$$$$

  -OEChem-03222214063D

 33 32  0     1  0  0  0  0  0999 V2000
   -3.6793   -4.0590    1.9005 H   0  0  0  0  0  0  0  0  0  0  0  0
   -3.7164   -3.0784    1.4178 C   0  0  0  0  0  0  0  0  0  0  0  0
   -4.3541   -2.4180    2.0105 H   0  0  0  0  0  0  0  0  0  0  0  0
   -4.1479   -3.1930    0.4205 H   0  0  0  0  0  0  0  0  0  0  0  0
   -2.3206   -2.4933    1.3131 C   0  0  0  0  0  0  0  0  0  0  0  0
   -1.3593   -3.1309    1.7130 O   0  0  0  0  0  0  0  0  0  0  0  0
   -2.1461   -1.2384    0.7694 N   0  0  0  0  0  0  0  0  0  0  0  0
   -2.9830   -0.7039    0.5424 H   0  0  0  0  0  0  0  0  0  0  0  0
   -0.8638   -0.5186    0.7166 C   0  0  1  0  0  0  0  0  0  0  0  0
   -0.1582   -0.9576    1.4295 H   0  0  0  0  0  0  0  0  0  0  0  0
   -0.2247   -0.5713   -0.6901 C   0  0  0  0  0  0  0  0  0  0  0  0
    0.4160    0.3083   -0.8167 H   0  0  0  0  0  0  0  0  0  0  0  0
    0.4261   -1.4501   -0.7462 H   0  0  0  0  0  0  0  0  0  0  0  0
   -1.2339   -0.6567   -1.8516 C   0  0  0  0  0  0  0  0  0  0  0  0
   -1.4866   -1.7045   -2.0453 H   0  0  0  0  0  0  0  0  0  0  0  0
   -2.1554   -0.1294   -1.5833 H   0  0  0  0  0  0  0  0  0  0  0  0
   -0.6732    0.0085   -3.1136 C   0  0  0  0  0  0  0  0  0  0  0  0
   -0.4597    1.0632   -2.9114 H   0  0  0  0  0  0  0  0  0  0  0  0
    0.2648   -0.4794   -3.3987 H   0  0  0  0  0  0  0  0  0  0  0  0
   -1.6671   -0.0946   -4.2664 C   0  0  0  0  0  0  0  0  0  0  0  0
   -1.8842   -1.1467   -4.4812 H   0  0  0  0  0  0  0  0  0  0  0  0
   -2.6075    0.3987   -3.9966 H   0  0  0  0  0  0  0  0  0  0  0  0
   -1.0821    0.5463   -5.4478 N   0  0  0  0  0  0  0  0  0  0  0  0
   -1.7150    0.4969   -6.2460 H   0  0  0  0  0  0  0  0  0  0  0  0
   -0.8237    1.5126   -5.2483 H   0  0  0  0  0  0  0  0  0  0  0  0
   -1.0813    0.9469    1.1455 C   0  0  0  0  0  0  0  0  0  0  0  0
   -2.0701    1.5587    0.7552 O   0  0  0  0  0  0  0  0  0  0  0  0
   -0.2079    1.5581    2.0258 N   0  0  0  0  0  0  0  0  0  0  0  0
    0.5754    1.0098    2.3698 H   0  0  0  0  0  0  0  0  0  0  0  0
   -0.3842    2.9212    2.5114 C   0  0  0  0  0  0  0  0  0  0  0  0
   -1.3344    3.0177    3.0473 H   0  0  0  0  0  0  0  0  0  0  0  0
    0.4270    3.1866    3.1960 H   0  0  0  0  0  0  0  0  0  0  0  0
   -0.3766    3.6294    1.6760 H   0  0  0  0  0  0  0  0  0  0  0  0
  1  2  1  0  0  0  0
  2  3  1  0  0  0  0
  2  4  1  0  0  0  0
  2  5  1  0  0  0  0
  5  6  2  0  0  0  0
  5  7  1  0  0  0  0
  7  8  1  0  0  0  0
  7  9  1  0  0  0  0
  9 10  1  0  0  0  0
  9 11  1  0  0  0  0
  9 26  1  0  0  0  0
 11 12  1  0  0  0  0
 11 13  1  0  0  0  0
 11 14  1  0  0  0  0
 14 15  1  0  0  0  0
 14 16  1  0  0  0  0
 14 17  1  0  0  0  0
 17 18  1  0  0  0  0
 17 19  1  0  0  0  0
 17 20  1  0  0  0  0
 20 21  1  0  0  0  0
 20 22  1  0  0  0  0
 20 23  1  0  0  0  0
 23 24  1  0  0  0  0
 23 25  1  0  0  0  0
 26 27  2  0  0  0  0
 26 28  1  0  0  0  0
 28 29  1  0  0  0  0
 28 30  1  0  0  0  0
 30 31  1  0  0  0  0
 30 32  1  0  0  0  0
 30 33  1  0  0  0  0
M  END
$$$$

  -OEChem-03222214063D

 33 32  0     1  0  0  0  0  0999 V2000
   -3.6956   -4.0461    1.8849 H   0  0  0  0  0  0  0  0  0  0  0  0
   -3.7273   -3.0662    1.4005 C   0  0  0  0  0  0  0  0  0  0  0  0
   -4.3686   -2.4042    1.9874 H   0  0  0  0  0  0  0  0  0  0  0  0
   -4.1519   -3.1809    0.4003 H   0  0  0  0  0  0  0  0  0  0  0  0
   -2.3296   -2.4839    1.3059 C   0  0  0  0  0  0  0  0  0  0  0  0
   -1.3726   -3.1226    1.7141 O   0  0  0  0  0  0  0  0  0  0  0  0
   -2.1485   -1.2287    0.7651 N   0  0  0  0  0  0  0  0  0  0  0  0
   -2.9817   -0.6942    0.5250 H   0  0  0  0  0  0  0  0  0  0  0  0
   -0.8639   -0.5132    0.7178 C   0  0  1  0  0  0  0  0  0  0  0  0
   -0.1631   -0.9563    1.4330 H   0  0  0  0  0  0  0  0  0  0  0  0
   -0.2206   -0.5710   -0.6866 C   0  0  0  0  0  0  0  0  0  0  0  0
    0.4222    0.3057   -0.8215 H   0  0  0  0  0  0  0  0  0  0  0  0
    0.4236   -1.4549   -0.7371 H   0  0  0  0  0  0  0  0  0  0  0  0
   -1.2319   -0.6556   -1.8429 C   0  0  0  0  0  0  0  0  0  0  0  0
   -1.6738   -1.6572   -1.8755 H   0  0  0  0  0  0  0  0  0  0  0  0
   -2.0381    0.0677   -1.6793 H   0  0  0  0  0  0  0  0  0  0  0  0
   -0.5535   -0.3396   -3.1801 C   0  0  0  0  0  0  0  0  0  0  0  0
   -0.1323    0.6705   -3.1506 H   0  0  0  0  0  0  0  0  0  0  0  0
    0.2670   -1.0443   -3.3513 H   0  0  0  0  0  0  0  0  0  0  0  0
   -1.5526   -0.4388   -4.3286 C   0  0  0  0  0  0  0  0  0  0  0  0
   -1.9759   -1.4486   -4.3719 H   0  0  0  0  0  0  0  0  0  0  0  0
   -2.3743    0.2687   -4.1721 H   0  0  0  0  0  0  0  0  0  0  0  0
   -0.8567   -0.1346   -5.5826 N   0  0  0  0  0  0  0  0  0  0  0  0
   -1.4894   -0.1958   -6.3803 H   0  0  0  0  0  0  0  0  0  0  0  0
   -0.4123    0.7825   -5.5407 H   0  0  0  0  0  0  0  0  0  0  0  0
   -1.0744    0.9530    1.1480 C   0  0  0  0  0  0  0  0  0  0  0  0
   -2.0582    1.5717    0.7559 O   0  0  0  0  0  0  0  0  0  0  0  0
   -0.1997    1.5580    2.0318 N   0  0  0  0  0  0  0  0  0  0  0  0
    0.5792    1.0050    2.3785 H   0  0  0  0  0  0  0  0  0  0  0  0
   -0.3698    2.9214    2.5184 C   0  0  0  0  0  0  0  0  0  0  0  0
   -1.3207    3.0221    3.0519 H   0  0  0  0  0  0  0  0  0  0  0  0
    0.4412    3.1823    3.2050 H   0  0  0  0  0  0  0  0  0  0  0  0
   -0.3569    3.6297    1.6834 H   0  0  0  0  0  0  0  0  0  0  0  0
  1  2  1  0  0  0  0
  2  3  1  0  0  0  0
  2  4  1  0  0  0  0
  2  5  1  0  0  0  0
  5  6  2  0  0  0  0
  5  7  1  0  0  0  0
  7  8  1  0  0  0  0
  7  9  1  0  0  0  0
  9 10  1  0  0  0  0
  9 11  1  0  0  0  0
  9 26  1  0  0  0  0
 11 12  1  0  0  0  0
 11 13  1  0  0  0  0
 11 14  1  0  0  0  0
 14 15  1  0  0  0  0
 14 16  1  0  0  0  0
 14 17  1  0  0  0  0
 17 18  1  0  0  0  0
 17 19  1  0  0  0  0
 17 20  1  0  0  0  0
 20 21  1  0  0  0  0
 20 22  1  0  0  0  0
 20 23  1  0  0  0  0
 23 24  1  0  0  0  0
 23 25  1  0  0  0  0
 26 27  2  0  0  0  0
 26 28  1  0  0  0  0
 28 29  1  0  0  0  0
 28 30  1  0  0  0  0
 30 31  1  0  0  0  0
 30 32  1  0  0  0  0
 30 33  1  0  0  0  0
M  END
$$$$

  -OEChem-03222214063D

 33 32  0     1  0  0  0  0  0999 V2000
   -3.6810   -4.0453    1.8281 H   0  0  0  0  0  0  0  0  0  0  0  0
   -3.7174   -3.0595    1.3563 C   0  0  0  0  0  0  0  0  0  0  0  0
   -4.3626   -2.4081    1.9509 H   0  0  0  0  0  0  0  0  0  0  0  0
   -4.1398   -3.1637    0.3541 H   0  0  0  0  0  0  0  0  0  0  0  0
   -2.3228   -2.4691    1.2702 C   0  0  0  0  0  0  0  0  0  0  0  0
   -1.3630   -3.1079    1.6721 O   0  0  0  0  0  0  0  0  0  0  0  0
   -2.1488   -1.2053    0.7475 N   0  0  0  0  0  0  0  0  0  0  0  0
   -2.9856   -0.6732    0.5145 H   0  0  0  0  0  0  0  0  0  0  0  0
   -0.8697   -0.4819    0.7087 C   0  0  1  0  0  0  0  0  0  0  0  0
   -0.1704   -0.9349    1.4191 H   0  0  0  0  0  0  0  0  0  0  0  0
   -0.2275   -0.5448   -0.6925 C   0  0  0  0  0  0  0  0  0  0  0  0
    0.6003    0.1705   -0.7415 H   0  0  0  0  0  0  0  0  0  0  0  0
    0.1960   -1.5459   -0.8256 H   0  0  0  0  0  0  0  0  0  0  0  0
   -1.2052   -0.2777   -1.8502 C   0  0  0  0  0  0  0  0  0  0  0  0
   -2.0133   -1.0159   -1.8391 H   0  0  0  0  0  0  0  0  0  0  0  0
   -1.6516    0.7157   -1.7366 H   0  0  0  0  0  0  0  0  0  0  0  0
   -0.4751   -0.3613   -3.1948 C   0  0  0  0  0  0  0  0  0  0  0  0
    0.3366    0.3729   -3.2189 H   0  0  0  0  0  0  0  0  0  0  0  0
   -0.0351   -1.3569   -3.3147 H   0  0  0  0  0  0  0  0  0  0  0  0
   -1.4368   -0.0930   -4.3483 C   0  0  0  0  0  0  0  0  0  0  0  0
   -2.2508   -0.8263   -4.3352 H   0  0  0  0  0  0  0  0  0  0  0  0
   -1.8763    0.9055   -4.2460 H   0  0  0  0  0  0  0  0  0  0  0  0
   -0.6963   -0.1925   -5.6097 N   0  0  0  0  0  0  0  0  0  0  0  0
   -1.3066   -0.0282   -6.4102 H   0  0  0  0  0  0  0  0  0  0  0  0
    0.0970    0.4482   -5.6199 H   0  0  0  0  0  0  0  0  0  0  0  0
   -1.0702    0.9800    1.1579 C   0  0  0  0  0  0  0  0  0  0  0  0
   -2.0632    1.6035    0.7984 O   0  0  0  0  0  0  0  0  0  0  0  0
   -0.1867    1.5674    2.0447 N   0  0  0  0  0  0  0  0  0  0  0  0
    0.5897    1.0035    2.3790 H   0  0  0  0  0  0  0  0  0  0  0  0
   -0.3591    2.9152    2.5730 C   0  0  0  0  0  0  0  0  0  0  0  0
   -1.3017    2.9935    3.1249 H   0  0  0  0  0  0  0  0  0  0  0  0
    0.4611    3.1620    3.2537 H   0  0  0  0  0  0  0  0  0  0  0  0
   -0.3642    3.6477    1.7591 H   0  0  0  0  0  0  0  0  0  0  0  0
  1  2  1  0  0  0  0
  2  3  1  0  0  0  0
  2  4  1  0  0  0  0
  2  5  1  0  0  0  0
  5  6  2  0  0  0  0
  5  7  1  0  0  0  0
  7  8  1  0  0  0  0
  7  9  1  0  0  0  0
  9 10  1  0  0  0  0
  9 11  1  0  0  0  0
  9 26  1  0  0  0  0
 11 12  1  0  0  0  0
 11 13  1  0  0  0  0
 11 14  1  0  0  0  0
 14 15  1  0  0  0  0
 14 16  1  0  0  0  0
 14 17  1  0  0  0  0
 17 18  1  0  0  0  0
 17 19  1  0  0  0  0
 17 20  1  0  0  0  0
 20 21  1  0  0  0  0
 20 22  1  0  0  0  0
 20 23  1  0  0  0  0
 23 24  1  0  0  0  0
 23 25  1  0  0  0  0
 26 27  2  0  0  0  0
 26 28  1  0  0  0  0
 28 29  1  0  0  0  0
 28 30  1  0  0  0  0
 30 31  1  0  0  0  0
 30 32  1  0  0  0  0
 30 33  1  0  0  0  0
M  END
$$$$

  -OEChem-03222214063D

 33 32  0     1  0  0  0  0  0999 V2000
   -3.6861   -4.0456    1.8779 H   0  0  0  0  0  0  0  0  0  0  0  0
   -3.7244   -3.0642    1.3969 C   0  0  0  0  0  0  0  0  0  0  0  0
   -4.3675   -2.4076    1.9878 H   0  0  0  0  0  0  0  0  0  0  0  0
   -4.1504   -3.1770    0.3971 H   0  0  0  0  0  0  0  0  0  0  0  0
   -2.3302   -2.4746    1.3005 C   0  0  0  0  0  0  0  0  0  0  0  0
   -1.3692   -3.1100    1.7049 O   0  0  0  0  0  0  0  0  0  0  0  0
   -2.1573   -1.2149    0.7672 N   0  0  0  0  0  0  0  0  0  0  0  0
   -2.9939   -0.6842    0.5305 H   0  0  0  0  0  0  0  0  0  0  0  0
   -0.8766   -0.4953    0.7153 C   0  0  1  0  0  0  0  0  0  0  0  0
   -0.1726   -0.9454    1.4228 H   0  0  0  0  0  0  0  0  0  0  0  0
   -0.2397   -0.5527   -0.6896 C   0  0  0  0  0  0  0  0  0  0  0  0
    0.6001    0.1479   -0.7447 H   0  0  0  0  0  0  0  0  0  0  0  0
    0.1689   -1.5611   -0.8149 H   0  0  0  0  0  0  0  0  0  0  0  0
   -1.2101   -0.2804   -1.8552 C   0  0  0  0  0  0  0  0  0  0  0  0
   -2.1422   -0.8367   -1.7221 H   0  0  0  0  0  0  0  0  0  0  0  0
   -1.4572    0.7862   -1.8829 H   0  0  0  0  0  0  0  0  0  0  0  0
   -0.5852   -0.7166   -3.1851 C   0  0  0  0  0  0  0  0  0  0  0  0
    0.3630   -0.1903   -3.3349 H   0  0  0  0  0  0  0  0  0  0  0  0
   -0.3762   -1.7914   -3.1612 H   0  0  0  0  0  0  0  0  0  0  0  0
   -1.5240   -0.4135   -4.3487 C   0  0  0  0  0  0  0  0  0  0  0  0
   -2.4742   -0.9413   -4.2109 H   0  0  0  0  0  0  0  0  0  0  0  0
   -1.7346    0.6609   -4.3912 H   0  0  0  0  0  0  0  0  0  0  0  0
   -0.8850   -0.8530   -5.5929 N   0  0  0  0  0  0  0  0  0  0  0  0
   -1.4826   -0.6720   -6.3995 H   0  0  0  0  0  0  0  0  0  0  0  0
    0.0278   -0.4136   -5.7107 H   0  0  0  0  0  0  0  0  0  0  0  0
   -1.0749    0.9691    1.1556 C   0  0  0  0  0  0  0  0  0  0  0  0
   -2.0619    1.5945    0.7829 O   0  0  0  0  0  0  0  0  0  0  0  0
   -0.1868    1.5622    2.0340 N   0  0  0  0  0  0  0  0  0  0  0  0
    0.5840    0.9962    2.3775 H   0  0  0  0  0  0  0  0  0  0  0  0
   -0.3527    2.9155    2.5497 C   0  0  0  0  0  0  0  0  0  0  0  0
   -1.2928    3.0015    3.1044 H   0  0  0  0  0  0  0  0  0  0  0  0
    0.4713    3.1667    3.2244 H   0  0  0  0  0  0  0  0  0  0  0  0
   -0.3599    3.6401    1.7287 H   0  0  0  0  0  0  0  0  0  0  0  0
  1  2  1  0  0  0  0
  2  3  1  0  0  0  0
  2  4  1  0  0  0  0
  2  5  1  0  0  0  0
  5  6  2  0  0  0  0
  5  7  1  0  0  0  0
  7  8  1  0  0  0  0
  7  9  1  0  0  0  0
  9 10  1  0  0  0  0
  9 11  1  0  0  0  0
  9 26  1  0  0  0  0
 11 12  1  0  0  0  0
 11 13  1  0  0  0  0
 11 14  1  0  0  0  0
 14 15  1  0  0  0  0
 14 16  1  0  0  0  0
 14 17  1  0  0  0  0
 17 18  1  0  0  0  0
 17 19  1  0  0  0  0
 17 20  1  0  0  0  0
 20 21  1  0  0  0  0
 20 22  1  0  0  0  0
 20 23  1  0  0  0  0
 23 24  1  0  0  0  0
 23 25  1  0  0  0  0
 26 27  2  0  0  0  0
 26 28  1  0  0  0  0
 28 29  1  0  0  0  0
 28 30  1  0  0  0  0
 30 31  1  0  0  0  0
 30 32  1  0  0  0  0
 30 33  1  0  0  0  0
M  END
$$$$

  -OEChem-03222214063D

 33 32  0     1  0  0  0  0  0999 V2000
   -3.6932   -4.0486    1.8887 H   0  0  0  0  0  0  0  0  0  0  0  0
   -3.7285   -3.0683    1.4052 C   0  0  0  0  0  0  0  0  0  0  0  0
   -4.3831   -2.4132    1.9852 H   0  0  0  0  0  0  0  0  0  0  0  0
   -4.1390   -3.1858    0.3993 H   0  0  0  0  0  0  0  0  0  0  0  0
   -2.3351   -2.4734    1.3275 C   0  0  0  0  0  0  0  0  0  0  0  0
   -1.3780   -3.1028    1.7503 O   0  0  0  0  0  0  0  0  0  0  0  0
   -2.1581   -1.2177    0.7862 N   0  0  0  0  0  0  0  0  0  0  0  0
   -2.9925   -0.6909    0.5345 H   0  0  0  0  0  0  0  0  0  0  0  0
   -0.8752   -0.5022    0.7281 C   0  0  1  0  0  0  0  0  0  0  0  0
   -0.1699   -0.9505    1.4353 H   0  0  0  0  0  0  0  0  0  0  0  0
   -0.2421   -0.5585   -0.6791 C   0  0  0  0  0  0  0  0  0  0  0  0
    0.6064    0.1312   -0.7373 H   0  0  0  0  0  0  0  0  0  0  0  0
    0.1584   -1.5712   -0.7967 H   0  0  0  0  0  0  0  0  0  0  0  0
   -1.2066   -0.2816   -1.8526 C   0  0  0  0  0  0  0  0  0  0  0  0
   -2.2242   -0.6011   -1.6142 H   0  0  0  0  0  0  0  0  0  0  0  0
   -1.2394    0.7963   -2.0430 H   0  0  0  0  0  0  0  0  0  0  0  0
   -0.7638   -1.0357   -3.1118 C   0  0  0  0  0  0  0  0  0  0  0  0
    0.2634   -0.7542   -3.3651 H   0  0  0  0  0  0  0  0  0  0  0  0
   -0.7834   -2.1143   -2.9230 H   0  0  0  0  0  0  0  0  0  0  0  0
   -1.6830   -0.7146   -4.2861 C   0  0  0  0  0  0  0  0  0  0  0  0
   -2.7140   -0.9951   -4.0434 H   0  0  0  0  0  0  0  0  0  0  0  0
   -1.6630    0.3608   -4.4950 H   0  0  0  0  0  0  0  0  0  0  0  0
   -1.2238   -1.4653   -5.4585 N   0  0  0  0  0  0  0  0  0  0  0  0
   -1.8124   -1.2792   -6.2704 H   0  0  0  0  0  0  0  0  0  0  0  0
   -0.2458   -1.2616   -5.6637 H   0  0  0  0  0  0  0  0  0  0  0  0
   -1.0711    0.9650    1.1596 C   0  0  0  0  0  0  0  0  0  0  0  0
   -2.0523    1.5923    0.7748 O   0  0  0  0  0  0  0  0  0  0  0  0
   -0.1820    1.5630    2.0338 N   0  0  0  0  0  0  0  0  0  0  0  0
    0.5832    0.9957    2.3877 H   0  0  0  0  0  0  0  0  0  0  0  0
   -0.3473    2.9198    2.5406 C   0  0  0  0  0  0  0  0  0  0  0  0
   -1.2912    3.0118    3.0881 H   0  0  0  0  0  0  0  0  0  0  0  0
    0.4726    3.1721    3.2198 H   0  0  0  0  0  0  0  0  0  0  0  0
   -0.3465    3.6399    1.7156 H   0  0  0  0  0  0  0  0  0  0  0  0
  1  2  1  0  0  0  0
  2  3  1  0  0  0  0
  2  4  1  0  0  0  0
  2  5  1  0  0  0  0
  5  6  2  0  0  0  0
  5  7  1  0  0  0  0
  7  8  1  0  0  0  0
  7  9  1  0  0  0  0
  9 10  1  0  0  0  0
  9 11  1  0  0  0  0
  9 26  1  0  0  0  0
 11 12  1  0  0  0  0
 11 13  1  0  0  0  0
 11 14  1  0  0  0  0
 14 15  1  0  0  0  0
 14 16  1  0  0  0  0
 14 17  1  0  0  0  0
 17 18  1  0  0  0  0
 17 19  1  0  0  0  0
 17 20  1  0  0  0  0
 20 21  1  0  0  0  0
 20 22  1  0  0  0  0
 20 23  1  0  0  0  0
 23 24  1  0  0  0  0
 23 25  1  0  0  0  0
 26 27  2  0  0  0  0
 26 28  1  0  0  0  0
 28 29  1  0  0  0  0
 28 30  1  0  0  0  0
 30 31  1  0  0  0  0
 30 32  1  0  0  0  0
 30 33  1  0  0  0  0
M  END
$$$$

  -OEChem-03222214063D

 33 32  0     1  0  0  0  0  0999 V2000
   -3.6959   -4.0491    1.8658 H   0  0  0  0  0  0  0  0  0  0  0  0
   -3.7266   -3.0684    1.3828 C   0  0  0  0  0  0  0  0  0  0  0  0
   -4.3928   -2.4158    1.9520 H   0  0  0  0  0  0  0  0  0  0  0  0
   -4.1202   -3.1864    0.3703 H   0  0  0  0  0  0  0  0  0  0  0  0
   -2.3344   -2.4683    1.3287 C   0  0  0  0  0  0  0  0  0  0  0  0
   -1.3824   -3.0929    1.7699 O   0  0  0  0  0  0  0  0  0  0  0  0
   -2.1524   -1.2134    0.7873 N   0  0  0  0  0  0  0  0  0  0  0  0
   -2.9839   -0.6912    0.5168 H   0  0  0  0  0  0  0  0  0  0  0  0
   -0.8685   -0.4981    0.7385 C   0  0  1  0  0  0  0  0  0  0  0  0
   -0.1672   -0.9462    1.4499 H   0  0  0  0  0  0  0  0  0  0  0  0
   -0.2312   -0.5593   -0.6662 C   0  0  0  0  0  0  0  0  0  0  0  0
    0.6143    0.1345   -0.7212 H   0  0  0  0  0  0  0  0  0  0  0  0
    0.1795   -1.5685   -0.7782 H   0  0  0  0  0  0  0  0  0  0  0  0
   -1.1928   -0.2831   -1.8450 C   0  0  0  0  0  0  0  0  0  0  0  0
   -2.2382   -0.3216   -1.5284 H   0  0  0  0  0  0  0  0  0  0  0  0
   -1.0123    0.7312   -2.2158 H   0  0  0  0  0  0  0  0  0  0  0  0
   -0.9918   -1.2980   -2.9763 C   0  0  0  0  0  0  0  0  0  0  0  0
    0.0521   -1.2799   -3.3058 H   0  0  0  0  0  0  0  0  0  0  0  0
   -1.2150   -2.3054   -2.6094 H   0  0  0  0  0  0  0  0  0  0  0  0
   -1.9039   -0.9782   -4.1567 C   0  0  0  0  0  0  0  0  0  0  0  0
   -2.9513   -0.9867   -3.8351 H   0  0  0  0  0  0  0  0  0  0  0  0
   -1.6764    0.0202   -4.5468 H   0  0  0  0  0  0  0  0  0  0  0  0
   -1.6937   -1.9883   -5.1982 N   0  0  0  0  0  0  0  0  0  0  0  0
   -2.2811   -1.8077   -6.0124 H   0  0  0  0  0  0  0  0  0  0  0  0
   -0.7103   -2.0415   -5.4635 H   0  0  0  0  0  0  0  0  0  0  0  0
   -1.0651    0.9702    1.1659 C   0  0  0  0  0  0  0  0  0  0  0  0
   -2.0393    1.6008    0.7691 O   0  0  0  0  0  0  0  0  0  0  0  0
   -0.1812    1.5672    2.0458 N   0  0  0  0  0  0  0  0  0  0  0  0
    0.5777    0.9974    2.4089 H   0  0  0  0  0  0  0  0  0  0  0  0
   -0.3479    2.9247    2.5501 C   0  0  0  0  0  0  0  0  0  0  0  0
   -1.2925    3.0172    3.0964 H   0  0  0  0  0  0  0  0  0  0  0  0
    0.4710    3.1785    3.2299 H   0  0  0  0  0  0  0  0  0  0  0  0
   -0.3461    3.6434    1.7240 H   0  0  0  0  0  0  0  0  0  0  0  0
  1  2  1  0  0  0  0
  2  3  1  0  0  0  0
  2  4  1  0  0  0  0
  2  5  1  0  0  0  0
  5  6  2  0  0  0  0
  5  7  1  0  0  0  0
  7  8  1  0  0  0  0
  7  9  1  0  0  0  0
  9 10  1  0  0  0  0
  9 11  1  0  0  0  0
  9 26  1  0  0  0  0
 11 12  1  0  0  0  0
 11 13  1  0  0  0  0
 11 14  1  0  0  0  0
 14 15  1  0  0  0  0
 14 16  1  0  0  0  0
 14 17  1  0  0  0  0
 17 18  1  0  0  0  0
 17 19  1  0  0  0  0
 17 20  1  0  0  0  0
 20 21  1  0  0  0  0
 20 22  1  0  0  0  0
 20 23  1  0  0  0  0
 23 24  1  0  0  0  0
 23 25  1  0  0  0  0
 26 27  2  0  0  0  0
 26 28  1  0  0  0  0
 28 29  1  0  0  0  0
 28 30  1  0  0  0  0
 30 31  1  0  0  0  0
 30 32  1  0  0  0  0
 30 33  1  0  0  0  0
M  END
$$$$

  -OEChem-03222214063D

 33 32  0     1  0  0  0  0  0999 V2000
   -3.6963   -4.0499    1.7726 H   0  0  0  0  0  0  0  0  0  0  0  0
   -3.7184   -3.0647    1.2985 C   0  0  0  0  0  0  0  0  0  0  0  0
   -4.4078   -2.4224    1.8517 H   0  0  0  0  0  0  0  0  0  0  0  0
   -4.0773   -3.1757    0.2723 H   0  0  0  0  0  0  0  0  0  0  0  0
   -2.3300   -2.4538    1.2959 C   0  0  0  0  0  0  0  0  0  0  0  0
   -1.3877   -3.0754    1.7616 O   0  0  0  0  0  0  0  0  0  0  0  0
   -2.1391   -1.1955    0.7658 N   0  0  0  0  0  0  0  0  0  0  0  0
   -2.9638   -0.6805    0.4639 H   0  0  0  0  0  0  0  0  0  0  0  0
   -0.8552   -0.4788    0.7440 C   0  0  1  0  0  0  0  0  0  0  0  0
   -0.1655   -0.9310    1.4641 H   0  0  0  0  0  0  0  0  0  0  0  0
   -0.2057   -0.5544   -0.6539 C   0  0  0  0  0  0  0  0  0  0  0  0
    0.6260    0.1562   -0.7026 H   0  0  0  0  0  0  0  0  0  0  0  0
    0.2269   -1.5546   -0.7632 H   0  0  0  0  0  0  0  0  0  0  0  0
   -1.1669   -0.2847   -1.8343 C   0  0  0  0  0  0  0  0  0  0  0  0
   -2.1701   -0.0278   -1.4821 H   0  0  0  0  0  0  0  0  0  0  0  0
   -0.7980    0.5833   -2.3908 H   0  0  0  0  0  0  0  0  0  0  0  0
   -1.2476   -1.4880   -2.7814 C   0  0  0  0  0  0  0  0  0  0  0  0
   -0.2497   -1.7258   -3.1637 H   0  0  0  0  0  0  0  0  0  0  0  0
   -1.6177   -2.3603   -2.2321 H   0  0  0  0  0  0  0  0  0  0  0  0
   -2.1841   -1.1939   -3.9494 C   0  0  0  0  0  0  0  0  0  0  0  0
   -3.1806   -0.9332   -3.5759 H   0  0  0  0  0  0  0  0  0  0  0  0
   -1.8053   -0.3445   -4.5287 H   0  0  0  0  0  0  0  0  0  0  0  0
   -2.2663   -2.3882   -4.7956 N   0  0  0  0  0  0  0  0  0  0  0  0
   -2.8783   -2.2326   -5.5966 H   0  0  0  0  0  0  0  0  0  0  0  0
   -1.3393   -2.6867   -5.0986 H   0  0  0  0  0  0  0  0  0  0  0  0
   -1.0514    0.9890    1.1757 C   0  0  0  0  0  0  0  0  0  0  0  0
   -2.0155    1.6272    0.7672 O   0  0  0  0  0  0  0  0  0  0  0  0
   -0.1795    1.5787    2.0727 N   0  0  0  0  0  0  0  0  0  0  0  0
    0.5667    1.0023    2.4514 H   0  0  0  0  0  0  0  0  0  0  0  0
   -0.3499    2.9347    2.5805 C   0  0  0  0  0  0  0  0  0  0  0  0
   -1.2979    3.0250    3.1213 H   0  0  0  0  0  0  0  0  0  0  0  0
    0.4648    3.1875    3.2659 H   0  0  0  0  0  0  0  0  0  0  0  0
   -0.3439    3.6564    1.7568 H   0  0  0  0  0  0  0  0  0  0  0  0
  1  2  1  0  0  0  0
  2  3  1  0  0  0  0
  2  4  1  0  0  0  0
  2  5  1  0  0  0  0
  5  6  2  0  0  0  0
  5  7  1  0  0  0  0
  7  8  1  0  0  0  0
  7  9  1  0  0  0  0
  9 10  1  0  0  0  0
  9 11  1  0  0  0  0
  9 26  1  0  0  0  0
 11 12  1  0  0  0  0
 11 13  1  0  0  0  0
 11 14  1  0  0  0  0
 14 15  1  0  0  0  0
 14 16  1  0  0  0  0
 14 17  1  0  0  0  0
 17 18  1  0  0  0  0
 17 19  1  0  0  0  0
 17 20  1  0  0  0  0
 20 21  1  0  0  0  0
 20 22  1  0  0  0  0
 20 23  1  0  0  0  0
 23 24  1  0  0  0  0
 23 25  1  0  0  0  0
 26 27  2  0  0  0  0
 26 28  1  0  0  0  0
 28 29  1  0  0  0  0
 28 30  1  0  0  0  0
 30 31  1  0  0  0  0
 30 32  1  0  0  0  0
 30 33  1  0  0  0  0
M  END
$$$$

  -OEChem-03222214063D

 33 32  0     1  0  0  0  0  0999 V2000
   -3.6987   -4.0614    1.6742 H   0  0  0  0  0  0  0  0  0  0  0  0
   -3.7149   -3.0720    1.2089 C   0  0  0  0  0  0  0  0  0  0  0  0
   -4.4345   -2.4443    1.7396 H   0  0  0  0  0  0  0  0  0  0  0  0
   -4.0307   -3.1773    0.1680 H   0  0  0  0  0  0  0  0  0  0  0  0
   -2.3357   -2.4439    1.2675 C   0  0  0  0  0  0  0  0  0  0  0  0
   -1.4043   -3.0583    1.7641 O   0  0  0  0  0  0  0  0  0  0  0  0
   -2.1390   -1.1819    0.7483 N   0  0  0  0  0  0  0  0  0  0  0  0
   -2.9554   -0.6817    0.4021 H   0  0  0  0  0  0  0  0  0  0  0  0
   -0.8574   -0.4611    0.7468 C   0  0  1  0  0  0  0  0  0  0  0  0
   -0.1789   -0.9161    1.4757 H   0  0  0  0  0  0  0  0  0  0  0  0
   -0.1870   -0.5450   -0.6410 C   0  0  0  0  0  0  0  0  0  0  0  0
    0.6285    0.1849   -0.6790 H   0  0  0  0  0  0  0  0  0  0  0  0
    0.2689   -1.5347   -0.7491 H   0  0  0  0  0  0  0  0  0  0  0  0
   -1.1403   -0.2856   -1.8273 C   0  0  0  0  0  0  0  0  0  0  0  0
   -2.0481    0.2284   -1.4958 H   0  0  0  0  0  0  0  0  0  0  0  0
   -0.6388    0.3799   -2.5377 H   0  0  0  0  0  0  0  0  0  0  0  0
   -1.5022   -1.5882   -2.5532 C   0  0  0  0  0  0  0  0  0  0  0  0
   -0.5961   -2.0504   -2.9578 H   0  0  0  0  0  0  0  0  0  0  0  0
   -1.9512   -2.2915   -1.8449 H   0  0  0  0  0  0  0  0  0  0  0  0
   -2.4888   -1.3199   -3.6851 C   0  0  0  0  0  0  0  0  0  0  0  0
   -3.3839   -0.8244   -3.2928 H   0  0  0  0  0  0  0  0  0  0  0  0
   -2.0333   -0.6586   -4.4306 H   0  0  0  0  0  0  0  0  0  0  0  0
   -2.8580   -2.5996   -4.2978 N   0  0  0  0  0  0  0  0  0  0  0  0
   -3.5104   -2.4644   -5.0702 H   0  0  0  0  0  0  0  0  0  0  0  0
   -2.0304   -3.1103   -4.6060 H   0  0  0  0  0  0  0  0  0  0  0  0
   -1.0521    1.0056    1.1838 C   0  0  0  0  0  0  0  0  0  0  0  0
   -2.0062    1.6538    0.7680 O   0  0  0  0  0  0  0  0  0  0  0  0
   -0.1855    1.5843    2.0929 N   0  0  0  0  0  0  0  0  0  0  0  0
    0.5550    1.0016    2.4733 H   0  0  0  0  0  0  0  0  0  0  0  0
   -0.3385    2.9461    2.5901 C   0  0  0  0  0  0  0  0  0  0  0  0
   -1.3089    3.0679    3.0827 H   0  0  0  0  0  0  0  0  0  0  0  0
    0.4483    3.1745    3.3155 H   0  0  0  0  0  0  0  0  0  0  0  0
   -0.2682    3.6644    1.7664 H   0  0  0  0  0  0  0  0  0  0  0  0
  1  2  1  0  0  0  0
  2  3  1  0  0  0  0
  2  4  1  0  0  0  0
  2  5  1  0  0  0  0
  5  6  2  0  0  0  0
  5  7  1  0  0  0  0
  7  8  1  0  0  0  0
  7  9  1  0  0  0  0
  9 10  1  0  0  0  0
  9 11  1  0  0  0  0
  9 26  1  0  0  0  0
 11 12  1  0  0  0  0
 11 13  1  0  0  0  0
 11 14  1  0  0  0  0
 14 15  1  0  0  0  0
 14 16  1  0  0  0  0
 14 17  1  0  0  0  0
 17 18  1  0  0  0  0
 17 19  1  0  0  0  0
 17 20  1  0  0  0  0
 20 21  1  0  0  0  0
 20 22  1  0  0  0  0
 20 23  1  0  0  0  0
 23 24  1  0  0  0  0
 23 25  1  0  0  0  0
 26 27  2  0  0  0  0
 26 28  1  0  0  0  0
 28 29  1  0  0  0  0
 28 30  1  0  0  0  0
 30 31  1  0  0  0  0
 30 32  1  0  0  0  0
 30 33  1  0  0  0  0
M  END
$$$$

  -OEChem-03222214063D

 33 32  0     1  0  0  0  0  0999 V2000
   -3.6842   -4.0648    1.8099 H   0  0  0  0  0  0  0  0  0  0  0  0
   -3.7114   -3.0803    1.3349 C   0  0  0  0  0  0  0  0  0  0  0  0
   -4.4167   -2.4463    1.8774 H   0  0  0  0  0  0  0  0  0  0  0  0
   -4.0545   -3.1956    0.3036 H   0  0  0  0  0  0  0  0  0  0  0  0
   -2.3307   -2.4522    1.3514 C   0  0  0  0  0  0  0  0  0  0  0  0
   -1.3884   -3.0581    1.8379 O   0  0  0  0  0  0  0  0  0  0  0  0
   -2.1464   -1.1978    0.8093 N   0  0  0  0  0  0  0  0  0  0  0  0
   -2.9683   -0.7088    0.4598 H   0  0  0  0  0  0  0  0  0  0  0  0
   -0.8675   -0.4781    0.7641 C   0  0  1  0  0  0  0  0  0  0  0  0
   -0.1754   -0.9193    1.4886 H   0  0  0  0  0  0  0  0  0  0  0  0
   -0.2053   -0.5641   -0.6312 C   0  0  0  0  0  0  0  0  0  0  0  0
    0.6048    0.1715   -0.6704 H   0  0  0  0  0  0  0  0  0  0  0  0
    0.2562   -1.5513   -0.7382 H   0  0  0  0  0  0  0  0  0  0  0  0
   -1.1420   -0.3215   -1.8341 C   0  0  0  0  0  0  0  0  0  0  0  0
   -1.9114    0.4104   -1.5686 H   0  0  0  0  0  0  0  0  0  0  0  0
   -0.5492    0.1129   -2.6457 H   0  0  0  0  0  0  0  0  0  0  0  0
   -1.8001   -1.6077   -2.3600 C   0  0  0  0  0  0  0  0  0  0  0  0
   -1.0250   -2.3053   -2.6928 H   0  0  0  0  0  0  0  0  0  0  0  0
   -2.3735   -2.0997   -1.5719 H   0  0  0  0  0  0  0  0  0  0  0  0
   -2.7361   -1.2923   -3.5225 C   0  0  0  0  0  0  0  0  0  0  0  0
   -3.4978   -0.5707   -3.2065 H   0  0  0  0  0  0  0  0  0  0  0  0
   -2.1714   -0.8496   -4.3505 H   0  0  0  0  0  0  0  0  0  0  0  0
   -3.3790   -2.5369   -3.9542 N   0  0  0  0  0  0  0  0  0  0  0  0
   -4.0080   -2.3732   -4.7405 H   0  0  0  0  0  0  0  0  0  0  0  0
   -2.6834   -3.2460   -4.1866 H   0  0  0  0  0  0  0  0  0  0  0  0
   -1.0646    0.9933    1.1871 C   0  0  0  0  0  0  0  0  0  0  0  0
   -2.0380    1.6263    0.7928 O   0  0  0  0  0  0  0  0  0  0  0  0
   -0.1820    1.5921    2.0677 N   0  0  0  0  0  0  0  0  0  0  0  0
    0.5764    1.0232    2.4330 H   0  0  0  0  0  0  0  0  0  0  0  0
   -0.3505    2.9500    2.5709 C   0  0  0  0  0  0  0  0  0  0  0  0
   -1.2959    3.0423    3.1158 H   0  0  0  0  0  0  0  0  0  0  0  0
    0.4674    3.2047    3.2517 H   0  0  0  0  0  0  0  0  0  0  0  0
   -0.3482    3.6684    1.7444 H   0  0  0  0  0  0  0  0  0  0  0  0
  1  2  1  0  0  0  0
  2  3  1  0  0  0  0
  2  4  1  0  0  0  0
  2  5  1  0  0  0  0
  5  6  2  0  0  0  0
  5  7  1  0  0  0  0
  7  8  1  0  0  0  0
  7  9  1  0  0  0  0
  9 10  1  0  0  0  0
  9 11  1  0  0  0  0
  9 26  1  0  0  0  0
 11 12  1  0  0  0  0
 11 13  1  0  0  0  0
 11 14  1  0  0  0  0
 14 15  1  0  0  0  0
 14 16  1  0  0  0  0
 14 17  1  0  0  0  0
 17 18  1  0  0  0  0
 17 19  1  0  0  0  0
 17 20  1  0  0  0  0
 20 21  1  0  0  0  0
 20 22  1  0  0  0  0
 20 23  1  0  0  0  0
 23 24  1  0  0  0  0
 23 25  1  0  0  0  0
 26 27  2  0  0  0  0
 26 28  1  0  0  0  0
 28 29  1  0  0  0  0
 28 30  1  0  0  0  0
 30 31  1  0  0  0  0
 30 32  1  0  0  0  0
 30 33  1  0  0  0  0
M  END
$$$$

  -OEChem-03222214063D

 33 32  0     1  0  0  0  0  0999 V2000
   -3.5972   -4.0841    2.0473 H   0  0  0  0  0  0  0  0  0  0  0  0
   -3.6628   -3.1116    1.5517 C   0  0  0  0  0  0  0  0  0  0  0  0
   -4.3283   -2.4657    2.1296 H   0  0  0  0  0  0  0  0  0  0  0  0
   -4.0805   -3.2520    0.5516 H   0  0  0  0  0  0  0  0  0  0  0  0
   -2.2866   -2.4815    1.4519 C   0  0  0  0  0  0  0  0  0  0  0  0
   -1.3037   -3.0931    1.8417 O   0  0  0  0  0  0  0  0  0  0  0  0
   -2.1532   -1.2185    0.9158 N   0  0  0  0  0  0  0  0  0  0  0  0
   -3.0039   -0.7277    0.6460 H   0  0  0  0  0  0  0  0  0  0  0  0
   -0.8899   -0.4855    0.7875 C   0  0  1  0  0  0  0  0  0  0  0  0
   -0.1466   -0.9274    1.4589 H   0  0  0  0  0  0  0  0  0  0  0  0
   -0.3066   -0.5277   -0.6455 C   0  0  0  0  0  0  0  0  0  0  0  0
    0.4992    0.2111   -0.7049 H   0  0  0  0  0  0  0  0  0  0  0  0
    0.1528   -1.5108   -0.7917 H   0  0  0  0  0  0  0  0  0  0  0  0
   -1.2735   -0.2770   -1.8251 C   0  0  0  0  0  0  0  0  0  0  0  0
   -1.8689    0.6205   -1.6278 H   0  0  0  0  0  0  0  0  0  0  0  0
   -0.6604   -0.0715   -2.7086 H   0  0  0  0  0  0  0  0  0  0  0  0
   -2.2128   -1.4499   -2.1590 C   0  0  0  0  0  0  0  0  0  0  0  0
   -1.6375   -2.3801   -2.2068 H   0  0  0  0  0  0  0  0  0  0  0  0
   -2.9818   -1.5637   -1.3934 H   0  0  0  0  0  0  0  0  0  0  0  0
   -2.9118   -1.2161   -3.4946 C   0  0  0  0  0  0  0  0  0  0  0  0
   -3.4883   -0.2849   -3.4568 H   0  0  0  0  0  0  0  0  0  0  0  0
   -2.1722   -1.1266   -4.2982 H   0  0  0  0  0  0  0  0  0  0  0  0
   -3.8069   -2.3484   -3.7539 N   0  0  0  0  0  0  0  0  0  0  0  0
   -4.3128   -2.2249   -4.6312 H   0  0  0  0  0  0  0  0  0  0  0  0
   -3.2915   -3.2288   -3.7525 H   0  0  0  0  0  0  0  0  0  0  0  0
   -1.0788    0.9754    1.2457 C   0  0  0  0  0  0  0  0  0  0  0  0
   -2.0798    1.6024    0.9167 O   0  0  0  0  0  0  0  0  0  0  0  0
   -0.1446    1.5758    2.0703 N   0  0  0  0  0  0  0  0  0  0  0  0
    0.6378    1.0090    2.3850 H   0  0  0  0  0  0  0  0  0  0  0  0
   -0.2894    2.9298    2.5911 C   0  0  0  0  0  0  0  0  0  0  0  0
   -1.1980    3.0128    3.1968 H   0  0  0  0  0  0  0  0  0  0  0  0
    0.5692    3.1875    3.2185 H   0  0  0  0  0  0  0  0  0  0  0  0
   -0.3462    3.6522    1.7701 H   0  0  0  0  0  0  0  0  0  0  0  0
  1  2  1  0  0  0  0
  2  3  1  0  0  0  0
  2  4  1  0  0  0  0
  2  5  1  0  0  0  0
  5  6  2  0  0  0  0
  5  7  1  0  0  0  0
  7  8  1  0  0  0  0
  7  9  1  0  0  0  0
  9 10  1  0  0  0  0
  9 11  1  0  0  0  0
  9 26  1  0  0  0  0
 11 12  1  0  0  0  0
 11 13  1  0  0  0  0
 11 14  1  0  0  0  0
 14 15  1  0  0  0  0
 14 16  1  0  0  0  0
 14 17  1  0  0  0  0
 17 18  1  0  0  0  0
 17 19  1  0  0  0  0
 17 20  1  0  0  0  0
 20 21  1  0  0  0  0
 20 22  1  0  0  0  0
 20 23  1  0  0  0  0
 23 24  1  0  0  0  0
 23 25  1  0  0  0  0
 26 27  2  0  0  0  0
 26 28  1  0  0  0  0
 28 29  1  0  0  0  0
 28 30  1  0  0  0  0
 30 31  1  0  0  0  0
 30 32  1  0  0  0  0
 30 33  1  0  0  0  0
M  END
$$$$

  -OEChem-03222214063D

 33 32  0     1  0  0  0  0  0999 V2000
   -3.5451   -4.1122    2.0995 H   0  0  0  0  0  0  0  0  0  0  0  0
   -3.6313   -3.1241    1.6390 C   0  0  0  0  0  0  0  0  0  0  0  0
   -4.2677   -2.4964    2.2673 H   0  0  0  0  0  0  0  0  0  0  0  0
   -4.0950   -3.2319    0.6553 H   0  0  0  0  0  0  0  0  0  0  0  0
   -2.2601   -2.4916    1.4963 C   0  0  0  0  0  0  0  0  0  0  0  0
   -1.2629   -3.1087    1.8378 O   0  0  0  0  0  0  0  0  0  0  0  0
   -2.1474   -1.2227    0.9702 N   0  0  0  0  0  0  0  0  0  0  0  0
   -3.0081   -0.7293    0.7383 H   0  0  0  0  0  0  0  0  0  0  0  0
   -0.8908   -0.4866    0.8015 C   0  0  1  0  0  0  0  0  0  0  0  0
   -0.1226   -0.9354    1.4393 H   0  0  0  0  0  0  0  0  0  0  0  0
   -0.3543   -0.4927   -0.6515 C   0  0  0  0  0  0  0  0  0  0  0  0
    0.4655    0.2301   -0.7187 H   0  0  0  0  0  0  0  0  0  0  0  0
    0.0805   -1.4825   -0.8249 H   0  0  0  0  0  0  0  0  0  0  0  0
   -1.3313   -0.2191   -1.8212 C   0  0  0  0  0  0  0  0  0  0  0  0
   -1.7315    0.7954   -1.7204 H   0  0  0  0  0  0  0  0  0  0  0  0
   -0.7408   -0.2444   -2.7428 H   0  0  0  0  0  0  0  0  0  0  0  0
   -2.5099   -1.1956   -1.9727 C   0  0  0  0  0  0  0  0  0  0  0  0
   -2.1607   -2.2209   -1.8136 H   0  0  0  0  0  0  0  0  0  0  0  0
   -3.2847   -0.9725   -1.2351 H   0  0  0  0  0  0  0  0  0  0  0  0
   -3.1371   -1.0833   -3.3587 C   0  0  0  0  0  0  0  0  0  0  0  0
   -3.5153   -0.0670   -3.5159 H   0  0  0  0  0  0  0  0  0  0  0  0
   -2.3891   -1.2922   -4.1314 H   0  0  0  0  0  0  0  0  0  0  0  0
   -4.2366   -2.0488   -3.4501 N   0  0  0  0  0  0  0  0  0  0  0  0
   -4.7093   -1.9837   -4.3518 H   0  0  0  0  0  0  0  0  0  0  0  0
   -3.9034   -2.9982   -3.2831 H   0  0  0  0  0  0  0  0  0  0  0  0
   -1.0700    0.9669    1.2847 C   0  0  0  0  0  0  0  0  0  0  0  0
   -2.0841    1.5929    0.9967 O   0  0  0  0  0  0  0  0  0  0  0  0
   -0.1089    1.5624    2.0814 N   0  0  0  0  0  0  0  0  0  0  0  0
    0.6868    0.9957    2.3609 H   0  0  0  0  0  0  0  0  0  0  0  0
   -0.2427    2.9083    2.6256 C   0  0  0  0  0  0  0  0  0  0  0  0
   -1.1350    2.9799    3.2564 H   0  0  0  0  0  0  0  0  0  0  0  0
    0.6317    3.1588    3.2338 H   0  0  0  0  0  0  0  0  0  0  0  0
   -0.3227    3.6424    1.8170 H   0  0  0  0  0  0  0  0  0  0  0  0
  1  2  1  0  0  0  0
  2  3  1  0  0  0  0
  2  4  1  0  0  0  0
  2  5  1  0  0  0  0
  5  6  2  0  0  0  0
  5  7  1  0  0  0  0
  7  8  1  0  0  0  0
  7  9  1  0  0  0  0
  9 10  1  0  0  0  0
  9 11  1  0  0  0  0
  9 26  1  0  0  0  0
 11 12  1  0  0  0  0
 11 13  1  0  0  0  0
 11 14  1  0  0  0  0
 14 15  1  0  0  0  0
 14 16  1  0  0  0  0
 14 17  1  0  0  0  0
 17 18  1  0  0  0  0
 17 19  1  0  0  0  0
 17 20  1  0  0  0  0
 20 21  1  0  0  0  0
 20 22  1  0  0  0  0
 20 23  1  0  0  0  0
 23 24  1  0  0  0  0
 23 25  1  0  0  0  0
 26 27  2  0  0  0  0
 26 28  1  0  0  0  0
 28 29  1  0  0  0  0
 28 30  1  0  0  0  0
 30 31  1  0  0  0  0
 30 32  1  0  0  0  0
 30 33  1  0  0  0  0
M  END
$$$$

  -OEChem-03222214063D

 33 32  0     1  0  0  0  0  0999 V2000
   -3.5090   -4.1373    2.1567 H   0  0  0  0  0  0  0  0  0  0  0  0
   -3.6066   -3.1399    1.7191 C   0  0  0  0  0  0  0  0  0  0  0  0
   -4.2218   -2.5237    2.3791 H   0  0  0  0  0  0  0  0  0  0  0  0
   -4.1007   -3.2264    0.7482 H   0  0  0  0  0  0  0  0  0  0  0  0
   -2.2387   -2.5078    1.5467 C   0  0  0  0  0  0  0  0  0  0  0  0
   -1.2346   -3.1229    1.8712 O   0  0  0  0  0  0  0  0  0  0  0  0
   -2.1377   -1.2412    1.0133 N   0  0  0  0  0  0  0  0  0  0  0  0
   -3.0034   -0.7491    0.7974 H   0  0  0  0  0  0  0  0  0  0  0  0
   -0.8866   -0.5002    0.8236 C   0  0  1  0  0  0  0  0  0  0  0  0
   -0.1093   -0.9430    1.4548 H   0  0  0  0  0  0  0  0  0  0  0  0
   -0.3581   -0.4951   -0.6337 C   0  0  0  0  0  0  0  0  0  0  0  0
    0.4745    0.2131   -0.6998 H   0  0  0  0  0  0  0  0  0  0  0  0
    0.0618   -1.4921   -0.8028 H   0  0  0  0  0  0  0  0  0  0  0  0
   -1.3155   -0.2234   -1.8233 C   0  0  0  0  0  0  0  0  0  0  0  0
   -1.5147    0.8532   -1.8552 H   0  0  0  0  0  0  0  0  0  0  0  0
   -0.7738   -0.4799   -2.7396 H   0  0  0  0  0  0  0  0  0  0  0  0
   -2.6727   -0.9437   -1.8361 C   0  0  0  0  0  0  0  0  0  0  0  0
   -2.5246   -2.0066   -1.6202 H   0  0  0  0  0  0  0  0  0  0  0  0
   -3.3327   -0.5158   -1.0765 H   0  0  0  0  0  0  0  0  0  0  0  0
   -3.3566   -0.7957   -3.1919 C   0  0  0  0  0  0  0  0  0  0  0  0
   -3.5512    0.2629   -3.3973 H   0  0  0  0  0  0  0  0  0  0  0  0
   -2.7107   -1.1838   -3.9872 H   0  0  0  0  0  0  0  0  0  0  0  0
   -4.6180   -1.5433   -3.1610 N   0  0  0  0  0  0  0  0  0  0  0  0
   -5.1372   -1.4260   -4.0313 H   0  0  0  0  0  0  0  0  0  0  0  0
   -4.4526   -2.5307   -2.9679 H   0  0  0  0  0  0  0  0  0  0  0  0
   -1.0702    0.9539    1.3037 C   0  0  0  0  0  0  0  0  0  0  0  0
   -2.0926    1.5714    1.0271 O   0  0  0  0  0  0  0  0  0  0  0  0
   -0.1034    1.5597    2.0855 N   0  0  0  0  0  0  0  0  0  0  0  0
    0.7012    1.0009    2.3551 H   0  0  0  0  0  0  0  0  0  0  0  0
   -0.2396    2.9066    2.6264 C   0  0  0  0  0  0  0  0  0  0  0  0
   -1.1184    2.9713    3.2767 H   0  0  0  0  0  0  0  0  0  0  0  0
    0.6453    3.1697    3.2137 H   0  0  0  0  0  0  0  0  0  0  0  0
   -0.3453    3.6360    1.8164 H   0  0  0  0  0  0  0  0  0  0  0  0
  1  2  1  0  0  0  0
  2  3  1  0  0  0  0
  2  4  1  0  0  0  0
  2  5  1  0  0  0  0
  5  6  2  0  0  0  0
  5  7  1  0  0  0  0
  7  8  1  0  0  0  0
  7  9  1  0  0  0  0
  9 10  1  0  0  0  0
  9 11  1  0  0  0  0
  9 26  1  0  0  0  0
 11 12  1  0  0  0  0
 11 13  1  0  0  0  0
 11 14  1  0  0  0  0
 14 15  1  0  0  0  0
 14 16  1  0  0  0  0
 14 17  1  0  0  0  0
 17 18  1  0  0  0  0
 17 19  1  0  0  0  0
 17 20  1  0  0  0  0
 20 21  1  0  0  0  0
 20 22  1  0  0  0  0
 20 23  1  0  0  0  0
 23 24  1  0  0  0  0
 23 25  1  0  0  0  0
 26 27  2  0  0  0  0
 26 28  1  0  0  0  0
 28 29  1  0  0  0  0
 28 30  1  0  0  0  0
 30 31  1  0  0  0  0
 30 32  1  0  0  0  0
 30 33  1  0  0  0  0
M  END
$$$$

  -OEChem-03222214063D

 33 32  0     1  0  0  0  0  0999 V2000
   -3.4636   -4.1563    2.2086 H   0  0  0  0  0  0  0  0  0  0  0  0
   -3.5720   -3.1656    1.7585 C   0  0  0  0  0  0  0  0  0  0  0  0
   -4.1847   -2.5441    2.4160 H   0  0  0  0  0  0  0  0  0  0  0  0
   -4.0749   -3.2678    0.7938 H   0  0  0  0  0  0  0  0  0  0  0  0
   -2.2101   -2.5265    1.5651 C   0  0  0  0  0  0  0  0  0  0  0  0
   -1.1977   -3.1351    1.8756 O   0  0  0  0  0  0  0  0  0  0  0  0
   -2.1251   -1.2580    1.0339 N   0  0  0  0  0  0  0  0  0  0  0  0
   -2.9975   -0.7701    0.8351 H   0  0  0  0  0  0  0  0  0  0  0  0
   -0.8825   -0.5040    0.8346 C   0  0  1  0  0  0  0  0  0  0  0  0
   -0.0977   -0.9415    1.4602 H   0  0  0  0  0  0  0  0  0  0  0  0
   -0.3596   -0.4932   -0.6251 C   0  0  0  0  0  0  0  0  0  0  0  0
    0.4756    0.2115   -0.6931 H   0  0  0  0  0  0  0  0  0  0  0  0
    0.0598   -1.4916   -0.7875 H   0  0  0  0  0  0  0  0  0  0  0  0
   -1.3076   -0.2341   -1.8281 C   0  0  0  0  0  0  0  0  0  0  0  0
   -1.3074    0.8460   -2.0092 H   0  0  0  0  0  0  0  0  0  0  0  0
   -0.8635   -0.7088   -2.7093 H   0  0  0  0  0  0  0  0  0  0  0  0
   -2.7785   -0.6637   -1.7221 C   0  0  0  0  0  0  0  0  0  0  0  0
   -2.8301   -1.7304   -1.4824 H   0  0  0  0  0  0  0  0  0  0  0  0
   -3.2813   -0.0961   -0.9337 H   0  0  0  0  0  0  0  0  0  0  0  0
   -3.5157   -0.4120   -3.0336 C   0  0  0  0  0  0  0  0  0  0  0  0
   -3.5332    0.6619   -3.2509 H   0  0  0  0  0  0  0  0  0  0  0  0
   -3.0042   -0.9185   -3.8595 H   0  0  0  0  0  0  0  0  0  0  0  0
   -4.8847   -0.9224   -2.9042 N   0  0  0  0  0  0  0  0  0  0  0  0
   -5.4361   -0.7134   -3.7366 H   0  0  0  0  0  0  0  0  0  0  0  0
   -4.8852   -1.9234   -2.7102 H   0  0  0  0  0  0  0  0  0  0  0  0
   -1.0702    0.9484    1.3182 C   0  0  0  0  0  0  0  0  0  0  0  0
   -2.1002    1.5606    1.0598 O   0  0  0  0  0  0  0  0  0  0  0  0
   -0.0981    1.5571    2.0908 N   0  0  0  0  0  0  0  0  0  0  0  0
    0.7133    1.0024    2.3481 H   0  0  0  0  0  0  0  0  0  0  0  0
   -0.2384    2.8997    2.6409 C   0  0  0  0  0  0  0  0  0  0  0  0
   -1.1076    2.9520    3.3049 H   0  0  0  0  0  0  0  0  0  0  0  0
    0.6532    3.1680    3.2156 H   0  0  0  0  0  0  0  0  0  0  0  0
   -0.3638    3.6322    1.8366 H   0  0  0  0  0  0  0  0  0  0  0  0
  1  2  1  0  0  0  0
  2  3  1  0  0  0  0
  2  4  1  0  0  0  0
  2  5  1  0  0  0  0
  5  6  2  0  0  0  0
  5  7  1  0  0  0  0
  7  8  1  0  0  0  0
  7  9  1  0  0  0  0
  9 10  1  0  0  0  0
  9 11  1  0  0  0  0
  9 26  1  0  0  0  0
 11 12  1  0  0  0  0
 11 13  1  0  0  0  0
 11 14  1  0  0  0  0
 14 15  1  0  0  0  0
 14 16  1  0  0  0  0
 14 17  1  0  0  0  0
 17 18  1  0  0  0  0
 17 19  1  0  0  0  0
 17 20  1  0  0  0  0
 20 21  1  0  0  0  0
 20 22  1  0  0  0  0
 20 23  1  0  0  0  0
 23 24  1  0  0  0  0
 23 25  1  0  0  0  0
 26 27  2  0  0  0  0
 26 28  1  0  0  0  0
 28 29  1  0  0  0  0
 28 30  1  0  0  0  0
 30 31  1  0  0  0  0
 30 32  1  0  0  0  0
 30 33  1  0  0  0  0
M  END
$$$$

  -OEChem-03222214063D

 33 32  0     1  0  0  0  0  0999 V2000
   -3.4146   -4.1692    2.1976 H   0  0  0  0  0  0  0  0  0  0  0  0
   -3.5410   -3.1795    1.7499 C   0  0  0  0  0  0  0  0  0  0  0  0
   -4.1556   -2.5678    2.4148 H   0  0  0  0  0  0  0  0  0  0  0  0
   -4.0522   -3.2884    0.7903 H   0  0  0  0  0  0  0  0  0  0  0  0
   -2.1900   -2.5218    1.5435 C   0  0  0  0  0  0  0  0  0  0  0  0
   -1.1659   -3.1289    1.8161 O   0  0  0  0  0  0  0  0  0  0  0  0
   -2.1282   -1.2408    1.0395 N   0  0  0  0  0  0  0  0  0  0  0  0
   -3.0090   -0.7570    0.8699 H   0  0  0  0  0  0  0  0  0  0  0  0
   -0.8981   -0.4668    0.8369 C   0  0  1  0  0  0  0  0  0  0  0  0
   -0.1092   -0.9079    1.4547 H   0  0  0  0  0  0  0  0  0  0  0  0
   -0.3787   -0.4709   -0.6239 C   0  0  0  0  0  0  0  0  0  0  0  0
    0.4442    0.2474   -0.7011 H   0  0  0  0  0  0  0  0  0  0  0  0
    0.0621   -1.4628   -0.7685 H   0  0  0  0  0  0  0  0  0  0  0  0
   -1.3252   -0.2497   -1.8380 C   0  0  0  0  0  0  0  0  0  0  0  0
   -1.1347    0.7654   -2.2020 H   0  0  0  0  0  0  0  0  0  0  0  0
   -1.0212   -0.9377   -2.6337 H   0  0  0  0  0  0  0  0  0  0  0  0
   -2.8453   -0.3686   -1.6428 C   0  0  0  0  0  0  0  0  0  0  0  0
   -3.0955   -1.3942   -1.3555 H   0  0  0  0  0  0  0  0  0  0  0  0
   -3.1851    0.3120   -0.8577 H   0  0  0  0  0  0  0  0  0  0  0  0
   -3.5859   -0.0257   -2.9322 C   0  0  0  0  0  0  0  0  0  0  0  0
   -3.4163    1.0257   -3.1904 H   0  0  0  0  0  0  0  0  0  0  0  0
   -3.2142   -0.6433   -3.7572 H   0  0  0  0  0  0  0  0  0  0  0  0
   -5.0181   -0.2691   -2.7313 N   0  0  0  0  0  0  0  0  0  0  0  0
   -5.5591    0.0163   -3.5476 H   0  0  0  0  0  0  0  0  0  0  0  0
   -5.1954   -1.2459   -2.5004 H   0  0  0  0  0  0  0  0  0  0  0  0
   -1.0662    0.9798    1.3475 C   0  0  0  0  0  0  0  0  0  0  0  0
   -2.1081    1.5945    1.1559 O   0  0  0  0  0  0  0  0  0  0  0  0
   -0.0705    1.5669    2.1076 N   0  0  0  0  0  0  0  0  0  0  0  0
    0.7494    1.0066    2.3216 H   0  0  0  0  0  0  0  0  0  0  0  0
   -0.1923    2.8928    2.7015 C   0  0  0  0  0  0  0  0  0  0  0  0
   -1.0392    2.9266    3.3949 H   0  0  0  0  0  0  0  0  0  0  0  0
    0.7175    3.1448    3.2547 H   0  0  0  0  0  0  0  0  0  0  0  0
   -0.3435    3.6481    1.9232 H   0  0  0  0  0  0  0  0  0  0  0  0
  1  2  1  0  0  0  0
  2  3  1  0  0  0  0
  2  4  1  0  0  0  0
  2  5  1  0  0  0  0
  5  6  2  0  0  0  0
  5  7  1  0  0  0  0
  7  8  1  0  0  0  0
  7  9  1  0  0  0  0
  9 10  1  0  0  0  0
  9 11  1  0  0  0  0
  9 26  1  0  0  0  0
 11 12  1  0  0  0  0
 11 13  1  0  0  0  0
 11 14  1  0  0  0  0
 14 15  1  0  0  0  0
 14 16  1  0  0  0  0
 14 17  1  0  0  0  0
 17 18  1  0  0  0  0
 17 19  1  0  0  0  0
 17 20  1  0  0  0  0
 20 21  1  0  0  0  0
 20 22  1  0  0  0  0
 20 23  1  0  0  0  0
 23 24  1  0  0  0  0
 23 25  1  0  0  0  0
 26 27  2  0  0  0  0
 26 28  1  0  0  0  0
 28 29  1  0  0  0  0
 28 30  1  0  0  0  0
 30 31  1  0  0  0  0
 30 32  1  0  0  0  0
 30 33  1  0  0  0  0
M  END
$$$$

  -OEChem-03222214063D

 33 32  0     1  0  0  0  0  0999 V2000
   -3.3892   -4.1550    2.1534 H   0  0  0  0  0  0  0  0  0  0  0  0
   -3.5285   -3.1474    1.7521 C   0  0  0  0  0  0  0  0  0  0  0  0
   -4.0912   -2.5541    2.4769 H   0  0  0  0  0  0  0  0  0  0  0  0
   -4.0998   -3.2125    0.8230 H   0  0  0  0  0  0  0  0  0  0  0  0
   -2.1835   -2.4986    1.4870 C   0  0  0  0  0  0  0  0  0  0  0  0
   -1.1529   -3.1226    1.6874 O   0  0  0  0  0  0  0  0  0  0  0  0
   -2.1355   -1.2030    1.0199 N   0  0  0  0  0  0  0  0  0  0  0  0
   -3.0176   -0.7001    0.9328 H   0  0  0  0  0  0  0  0  0  0  0  0
   -0.9104   -0.4221    0.8166 C   0  0  1  0  0  0  0  0  0  0  0  0
   -0.1211   -0.8765    1.4243 H   0  0  0  0  0  0  0  0  0  0  0  0
   -0.3946   -0.4436   -0.6441 C   0  0  0  0  0  0  0  0  0  0  0  0
    0.4076    0.2974   -0.7250 H   0  0  0  0  0  0  0  0  0  0  0  0
    0.0760   -1.4229   -0.7811 H   0  0  0  0  0  0  0  0  0  0  0  0
   -1.3431   -0.2465   -1.8612 C   0  0  0  0  0  0  0  0  0  0  0  0
   -0.9678    0.6180   -2.4190 H   0  0  0  0  0  0  0  0  0  0  0  0
   -1.2340   -1.1186   -2.5150 H   0  0  0  0  0  0  0  0  0  0  0  0
   -2.8459   -0.0234   -1.6235 C   0  0  0  0  0  0  0  0  0  0  0  0
   -3.2953   -0.9339   -1.2192 H   0  0  0  0  0  0  0  0  0  0  0  0
   -3.0054    0.7925   -0.9159 H   0  0  0  0  0  0  0  0  0  0  0  0
   -3.5503    0.3252   -2.9325 C   0  0  0  0  0  0  0  0  0  0  0  0
   -3.1763    1.2820   -3.3138 H   0  0  0  0  0  0  0  0  0  0  0  0
   -3.3480   -0.4437   -3.6864 H   0  0  0  0  0  0  0  0  0  0  0  0
   -4.9928    0.4143   -2.6840 N   0  0  0  0  0  0  0  0  0  0  0  0
   -5.4973    0.6911   -3.5260 H   0  0  0  0  0  0  0  0  0  0  0  0
   -5.3567   -0.4621   -2.3118 H   0  0  0  0  0  0  0  0  0  0  0  0
   -1.0531    1.0133    1.3682 C   0  0  0  0  0  0  0  0  0  0  0  0
   -2.1183    1.6129    1.2935 O   0  0  0  0  0  0  0  0  0  0  0  0
   -0.0320    1.5684    2.1189 N   0  0  0  0  0  0  0  0  0  0  0  0
    0.8003    1.0054    2.2677 H   0  0  0  0  0  0  0  0  0  0  0  0
   -0.1534    2.8428    2.8169 C   0  0  0  0  0  0  0  0  0  0  0  0
   -0.9493    2.7937    3.5672 H   0  0  0  0  0  0  0  0  0  0  0  0
    0.7852    3.0876    3.3232 H   0  0  0  0  0  0  0  0  0  0  0  0
   -0.3848    3.6467    2.1103 H   0  0  0  0  0  0  0  0  0  0  0  0
  1  2  1  0  0  0  0
  2  3  1  0  0  0  0
  2  4  1  0  0  0  0
  2  5  1  0  0  0  0
  5  6  2  0  0  0  0
  5  7  1  0  0  0  0
  7  8  1  0  0  0  0
  7  9  1  0  0  0  0
  9 10  1  0  0  0  0
  9 11  1  0  0  0  0
  9 26  1  0  0  0  0
 11 12  1  0  0  0  0
 11 13  1  0  0  0  0
 11 14  1  0  0  0  0
 14 15  1  0  0  0  0
 14 16  1  0  0  0  0
 14 17  1  0  0  0  0
 17 18  1  0  0  0  0
 17 19  1  0  0  0  0
 17 20  1  0  0  0  0
 20 21  1  0  0  0  0
 20 22  1  0  0  0  0
 20 23  1  0  0  0  0
 23 24  1  0  0  0  0
 23 25  1  0  0  0  0
 26 27  2  0  0  0  0
 26 28  1  0  0  0  0
 28 29  1  0  0  0  0
 28 30  1  0  0  0  0
 30 31  1  0  0  0  0
 30 32  1  0  0  0  0
 30 33  1  0  0  0  0
M  END
$$$$

  -OEChem-03222214063D

 33 32  0     1  0  0  0  0  0999 V2000
   -3.4235   -4.1453    2.0553 H   0  0  0  0  0  0  0  0  0  0  0  0
   -3.5535   -3.1273    1.6780 C   0  0  0  0  0  0  0  0  0  0  0  0
   -4.0950   -2.5412    2.4244 H   0  0  0  0  0  0  0  0  0  0  0  0
   -4.1410   -3.1640    0.7576 H   0  0  0  0  0  0  0  0  0  0  0  0
   -2.2028   -2.4940    1.4037 C   0  0  0  0  0  0  0  0  0  0  0  0
   -1.1795   -3.1409    1.5659 O   0  0  0  0  0  0  0  0  0  0  0  0
   -2.1406   -1.1869    0.9712 N   0  0  0  0  0  0  0  0  0  0  0  0
   -3.0121   -0.6596    0.9439 H   0  0  0  0  0  0  0  0  0  0  0  0
   -0.9048   -0.4143    0.8003 C   0  0  1  0  0  0  0  0  0  0  0  0
   -0.1262   -0.8893    1.4062 H   0  0  0  0  0  0  0  0  0  0  0  0
   -0.3793   -0.4209   -0.6559 C   0  0  0  0  0  0  0  0  0  0  0  0
    0.4111    0.3346   -0.7134 H   0  0  0  0  0  0  0  0  0  0  0  0
    0.1067   -1.3897   -0.8143 H   0  0  0  0  0  0  0  0  0  0  0  0
   -1.3232   -0.1933   -1.8685 C   0  0  0  0  0  0  0  0  0  0  0  0
   -0.7977    0.4534   -2.5794 H   0  0  0  0  0  0  0  0  0  0  0  0
   -1.4576   -1.1634   -2.3586 H   0  0  0  0  0  0  0  0  0  0  0  0
   -2.7275    0.3876   -1.6318 C   0  0  0  0  0  0  0  0  0  0  0  0
   -3.3314   -0.2848   -1.0207 H   0  0  0  0  0  0  0  0  0  0  0  0
   -2.6484    1.3512   -1.1220 H   0  0  0  0  0  0  0  0  0  0  0  0
   -3.4413    0.5960   -2.9657 C   0  0  0  0  0  0  0  0  0  0  0  0
   -2.8657    1.2831   -3.5959 H   0  0  0  0  0  0  0  0  0  0  0  0
   -3.5284   -0.3590   -3.4958 H   0  0  0  0  0  0  0  0  0  0  0  0
   -4.7735    1.1532   -2.7124 N   0  0  0  0  0  0  0  0  0  0  0  0
   -5.2914    1.2886   -3.5803 H   0  0  0  0  0  0  0  0  0  0  0  0
   -5.2984    0.5729   -2.0589 H   0  0  0  0  0  0  0  0  0  0  0  0
   -1.0466    1.0053    1.3908 C   0  0  0  0  0  0  0  0  0  0  0  0
   -2.1238    1.5880    1.3608 O   0  0  0  0  0  0  0  0  0  0  0  0
   -0.0313    1.5334    2.1681 N   0  0  0  0  0  0  0  0  0  0  0  0
    0.8143    0.9811    2.2769 H   0  0  0  0  0  0  0  0  0  0  0  0
   -0.1516    2.7897    2.8980 C   0  0  0  0  0  0  0  0  0  0  0  0
   -0.9466    2.7222    3.6481 H   0  0  0  0  0  0  0  0  0  0  0  0
    0.7878    3.0222    3.4085 H   0  0  0  0  0  0  0  0  0  0  0  0
   -0.3834    3.6110    2.2116 H   0  0  0  0  0  0  0  0  0  0  0  0
  1  2  1  0  0  0  0
  2  3  1  0  0  0  0
  2  4  1  0  0  0  0
  2  5  1  0  0  0  0
  5  6  2  0  0  0  0
  5  7  1  0  0  0  0
  7  8  1  0  0  0  0
  7  9  1  0  0  0  0
  9 10  1  0  0  0  0
  9 11  1  0  0  0  0
  9 26  1  0  0  0  0
 11 12  1  0  0  0  0
 11 13  1  0  0  0  0
 11 14  1  0  0  0  0
 14 15  1  0  0  0  0
 14 16  1  0  0  0  0
 14 17  1  0  0  0  0
 17 18  1  0  0  0  0
 17 19  1  0  0  0  0
 17 20  1  0  0  0  0
 20 21  1  0  0  0  0
 20 22  1  0  0  0  0
 20 23  1  0  0  0  0
 23 24  1  0  0  0  0
 23 25  1  0  0  0  0
 26 27  2  0  0  0  0
 26 28  1  0  0  0  0
 28 29  1  0  0  0  0
 28 30  1  0  0  0  0
 30 31  1  0  0  0  0
 30 32  1  0  0  0  0
 30 33  1  0  0  0  0
M  END
$$$$

  -OEChem-03222214063D

 33 32  0     1  0  0  0  0  0999 V2000
   -3.4790   -4.1200    1.9316 H   0  0  0  0  0  0  0  0  0  0  0  0
   -3.5914   -3.1014    1.5501 C   0  0  0  0  0  0  0  0  0  0  0  0
   -4.1542   -2.5124    2.2785 H   0  0  0  0  0  0  0  0  0  0  0  0
   -4.1482   -3.1358    0.6106 H   0  0  0  0  0  0  0  0  0  0  0  0
   -2.2285   -2.4757    1.3205 C   0  0  0  0  0  0  0  0  0  0  0  0
   -1.2150   -3.1296    1.5125 O   0  0  0  0  0  0  0  0  0  0  0  0
   -2.1434   -1.1673    0.8953 N   0  0  0  0  0  0  0  0  0  0  0  0
   -3.0092   -0.6322    0.8522 H   0  0  0  0  0  0  0  0  0  0  0  0
   -0.8957   -0.4014    0.7766 C   0  0  1  0  0  0  0  0  0  0  0  0
   -0.1411   -0.8827    1.4074 H   0  0  0  0  0  0  0  0  0  0  0  0
   -0.3337   -0.4265   -0.6643 C   0  0  0  0  0  0  0  0  0  0  0  0
    0.4553    0.3310   -0.7143 H   0  0  0  0  0  0  0  0  0  0  0  0
    0.1517   -1.3969   -0.8124 H   0  0  0  0  0  0  0  0  0  0  0  0
   -1.2723   -0.1971   -1.8752 C   0  0  0  0  0  0  0  0  0  0  0  0
   -0.6717    0.1979   -2.7012 H   0  0  0  0  0  0  0  0  0  0  0  0
   -1.6449   -1.1785   -2.1867 H   0  0  0  0  0  0  0  0  0  0  0  0
   -2.4971    0.7078   -1.6695 C   0  0  0  0  0  0  0  0  0  0  0  0
   -3.1600    0.3079   -0.9004 H   0  0  0  0  0  0  0  0  0  0  0  0
   -2.1626    1.7011   -1.3535 H   0  0  0  0  0  0  0  0  0  0  0  0
   -3.2874    0.8385   -2.9694 C   0  0  0  0  0  0  0  0  0  0  0  0
   -2.6372    1.2017   -3.7729 H   0  0  0  0  0  0  0  0  0  0  0  0
   -3.6799   -0.1404   -3.2664 H   0  0  0  0  0  0  0  0  0  0  0  0
   -4.3886    1.7829   -2.7599 N   0  0  0  0  0  0  0  0  0  0  0  0
   -4.9919    1.8410   -3.5798 H   0  0  0  0  0  0  0  0  0  0  0  0
   -4.9242    1.5460   -1.9247 H   0  0  0  0  0  0  0  0  0  0  0  0
   -1.0494    1.0179    1.3661 C   0  0  0  0  0  0  0  0  0  0  0  0
   -2.1254    1.6019    1.3094 O   0  0  0  0  0  0  0  0  0  0  0  0
   -0.0610    1.5351    2.1841 N   0  0  0  0  0  0  0  0  0  0  0  0
    0.7826    0.9832    2.3101 H   0  0  0  0  0  0  0  0  0  0  0  0
   -0.1987    2.7891    2.9150 C   0  0  0  0  0  0  0  0  0  0  0  0
   -1.0287    2.7293    3.6269 H   0  0  0  0  0  0  0  0  0  0  0  0
    0.7187    3.0059    3.4705 H   0  0  0  0  0  0  0  0  0  0  0  0
   -0.3868    3.6165    2.2227 H   0  0  0  0  0  0  0  0  0  0  0  0
  1  2  1  0  0  0  0
  2  3  1  0  0  0  0
  2  4  1  0  0  0  0
  2  5  1  0  0  0  0
  5  6  2  0  0  0  0
  5  7  1  0  0  0  0
  7  8  1  0  0  0  0
  7  9  1  0  0  0  0
  9 10  1  0  0  0  0
  9 11  1  0  0  0  0
  9 26  1  0  0  0  0
 11 12  1  0  0  0  0
 11 13  1  0  0  0  0
 11 14  1  0  0  0  0
 14 15  1  0  0  0  0
 14 16  1  0  0  0  0
 14 17  1  0  0  0  0
 17 18  1  0  0  0  0
 17 19  1  0  0  0  0
 17 20  1  0  0  0  0
 20 21  1  0  0  0  0
 20 22  1  0  0  0  0
 20 23  1  0  0  0  0
 23 24  1  0  0  0  0
 23 25  1  0  0  0  0
 26 27  2  0  0  0  0
 26 28  1  0  0  0  0
 28 29  1  0  0  0  0
 28 30  1  0  0  0  0
 30 31  1  0  0  0  0
 30 32  1  0  0  0  0
 30 33  1  0  0  0  0
M  END
$$$$

  -OEChem-03222214063D

 33 32  0     1  0  0  0  0  0999 V2000
   -3.4923   -4.1167    1.8658 H   0  0  0  0  0  0  0  0  0  0  0  0
   -3.6052   -3.0982    1.4838 C   0  0  0  0  0  0  0  0  0  0  0  0
   -4.1834   -2.5143    2.2041 H   0  0  0  0  0  0  0  0  0  0  0  0
   -4.1472   -3.1348    0.5358 H   0  0  0  0  0  0  0  0  0  0  0  0
   -2.2433   -2.4630    1.2763 C   0  0  0  0  0  0  0  0  0  0  0  0
   -1.2295   -3.1126    1.4801 O   0  0  0  0  0  0  0  0  0  0  0  0
   -2.1589   -1.1534    0.8541 N   0  0  0  0  0  0  0  0  0  0  0  0
   -3.0272   -0.6239    0.7994 H   0  0  0  0  0  0  0  0  0  0  0  0
   -0.9131   -0.3797    0.7579 C   0  0  1  0  0  0  0  0  0  0  0  0
   -0.1729   -0.8570    1.4085 H   0  0  0  0  0  0  0  0  0  0  0  0
   -0.3193   -0.4350   -0.6685 C   0  0  0  0  0  0  0  0  0  0  0  0
    0.4700    0.3213   -0.7326 H   0  0  0  0  0  0  0  0  0  0  0  0
    0.1624   -1.4109   -0.7917 H   0  0  0  0  0  0  0  0  0  0  0  0
   -1.2670   -0.2378   -1.8720 C   0  0  0  0  0  0  0  0  0  0  0  0
   -0.6515   -0.0913   -2.7658 H   0  0  0  0  0  0  0  0  0  0  0  0
   -1.8352   -1.1628   -2.0152 H   0  0  0  0  0  0  0  0  0  0  0  0
   -2.2660    0.9197   -1.7547 C   0  0  0  0  0  0  0  0  0  0  0  0
   -2.9873    0.7187   -0.9589 H   0  0  0  0  0  0  0  0  0  0  0  0
   -1.7293    1.8427   -1.5120 H   0  0  0  0  0  0  0  0  0  0  0  0
   -3.0286    1.1104   -3.0626 C   0  0  0  0  0  0  0  0  0  0  0  0
   -2.3298    1.2635   -3.8923 H   0  0  0  0  0  0  0  0  0  0  0  0
   -3.6238    0.2167   -3.2792 H   0  0  0  0  0  0  0  0  0  0  0  0
   -3.9007    2.2804   -2.9272 N   0  0  0  0  0  0  0  0  0  0  0  0
   -4.5127    2.3860   -3.7359 H   0  0  0  0  0  0  0  0  0  0  0  0
   -4.4385    2.2392   -2.0608 H   0  0  0  0  0  0  0  0  0  0  0  0
   -1.0661    1.0433    1.3418 C   0  0  0  0  0  0  0  0  0  0  0  0
   -2.1416    1.6286    1.2858 O   0  0  0  0  0  0  0  0  0  0  0  0
   -0.0841    1.5558    2.1709 N   0  0  0  0  0  0  0  0  0  0  0  0
    0.7608    1.0059    2.2962 H   0  0  0  0  0  0  0  0  0  0  0  0
   -0.2240    2.8093    2.9023 C   0  0  0  0  0  0  0  0  0  0  0  0
   -1.0579    2.7494    3.6096 H   0  0  0  0  0  0  0  0  0  0  0  0
    0.6906    3.0244    3.4630 H   0  0  0  0  0  0  0  0  0  0  0  0
   -0.4075    3.6378    2.2101 H   0  0  0  0  0  0  0  0  0  0  0  0
  1  2  1  0  0  0  0
  2  3  1  0  0  0  0
  2  4  1  0  0  0  0
  2  5  1  0  0  0  0
  5  6  2  0  0  0  0
  5  7  1  0  0  0  0
  7  8  1  0  0  0  0
  7  9  1  0  0  0  0
  9 10  1  0  0  0  0
  9 11  1  0  0  0  0
  9 26  1  0  0  0  0
 11 12  1  0  0  0  0
 11 13  1  0  0  0  0
 11 14  1  0  0  0  0
 14 15  1  0  0  0  0
 14 16  1  0  0  0  0
 14 17  1  0  0  0  0
 17 18  1  0  0  0  0
 17 19  1  0  0  0  0
 17 20  1  0  0  0  0
 20 21  1  0  0  0  0
 20 22  1  0  0  0  0
 20 23  1  0  0  0  0
 23 24  1  0  0  0  0
 23 25  1  0  0  0  0
 26 27  2  0  0  0  0
 26 28  1  0  0  0  0
 28 29  1  0  0  0  0
 28 30  1  0  0  0  0
 30 31  1  0  0  0  0
 30 32  1  0  0  0  0
 30 33  1  0  0  0  0
M  END
$$$$

  -OEChem-03222214063D

 33 32  0     1  0  0  0  0  0999 V2000
   -3.4905   -4.1101    1.8854 H   0  0  0  0  0  0  0  0  0  0  0  0
   -3.6074   -3.1002    1.4825 C   0  0  0  0  0  0  0  0  0  0  0  0
   -4.1922   -2.5056    2.1887 H   0  0  0  0  0  0  0  0  0  0  0  0
   -4.1442   -3.1583    0.5327 H   0  0  0  0  0  0  0  0  0  0  0  0
   -2.2481   -2.4621    1.2681 C   0  0  0  0  0  0  0  0  0  0  0  0
   -1.2321   -3.1065    1.4778 O   0  0  0  0  0  0  0  0  0  0  0  0
   -2.1685   -1.1545    0.8378 N   0  0  0  0  0  0  0  0  0  0  0  0
   -3.0383   -0.6275    0.7798 H   0  0  0  0  0  0  0  0  0  0  0  0
   -0.9241   -0.3795    0.7400 C   0  0  1  0  0  0  0  0  0  0  0  0
   -0.1848   -0.8519    1.3950 H   0  0  0  0  0  0  0  0  0  0  0  0
   -0.3255   -0.4410   -0.6836 C   0  0  0  0  0  0  0  0  0  0  0  0
    0.4750    0.3024   -0.7571 H   0  0  0  0  0  0  0  0  0  0  0  0
    0.1395   -1.4257   -0.8000 H   0  0  0  0  0  0  0  0  0  0  0  0
   -1.2849   -0.2502   -1.8763 C   0  0  0  0  0  0  0  0  0  0  0  0
   -0.6942   -0.3434   -2.7936 H   0  0  0  0  0  0  0  0  0  0  0  0
   -2.0235   -1.0582   -1.8826 H   0  0  0  0  0  0  0  0  0  0  0  0
   -2.0160    1.0963   -1.8960 C   0  0  0  0  0  0  0  0  0  0  0  0
   -2.7718    1.1184   -1.1080 H   0  0  0  0  0  0  0  0  0  0  0  0
   -1.3023    1.9068   -1.7160 H   0  0  0  0  0  0  0  0  0  0  0  0
   -2.7090    1.3225   -3.2367 C   0  0  0  0  0  0  0  0  0  0  0  0
   -1.9818    1.2753   -4.0550 H   0  0  0  0  0  0  0  0  0  0  0  0
   -3.4612    0.5436   -3.4030 H   0  0  0  0  0  0  0  0  0  0  0  0
   -3.3433    2.6434   -3.2123 N   0  0  0  0  0  0  0  0  0  0  0  0
   -3.9022    2.8040   -4.0499 H   0  0  0  0  0  0  0  0  0  0  0  0
   -3.9043    2.7635   -2.3680 H   0  0  0  0  0  0  0  0  0  0  0  0
   -1.0825    1.0456    1.3158 C   0  0  0  0  0  0  0  0  0  0  0  0
   -2.1627    1.6227    1.2631 O   0  0  0  0  0  0  0  0  0  0  0  0
   -0.1027    1.5628    2.1445 N   0  0  0  0  0  0  0  0  0  0  0  0
    0.7425    1.0139    2.2725 H   0  0  0  0  0  0  0  0  0  0  0  0
   -0.2514    2.8092    2.8865 C   0  0  0  0  0  0  0  0  0  0  0  0
   -1.0989    2.7460    3.5773 H   0  0  0  0  0  0  0  0  0  0  0  0
    0.6532    3.0132    3.4674 H   0  0  0  0  0  0  0  0  0  0  0  0
   -0.4170    3.6461    2.1997 H   0  0  0  0  0  0  0  0  0  0  0  0
  1  2  1  0  0  0  0
  2  3  1  0  0  0  0
  2  4  1  0  0  0  0
  2  5  1  0  0  0  0
  5  6  2  0  0  0  0
  5  7  1  0  0  0  0
  7  8  1  0  0  0  0
  7  9  1  0  0  0  0
  9 10  1  0  0  0  0
  9 11  1  0  0  0  0
  9 26  1  0  0  0  0
 11 12  1  0  0  0  0
 11 13  1  0  0  0  0
 11 14  1  0  0  0  0
 14 15  1  0  0  0  0
 14 16  1  0  0  0  0
 14 17  1  0  0  0  0
 17 18  1  0  0  0  0
 17 19  1  0  0  0  0
 17 20  1  0  0  0  0
 20 21  1  0  0  0  0
 20 22  1  0  0  0  0
 20 23  1  0  0  0  0
 23 24  1  0  0  0  0
 23 25  1  0  0  0  0
 26 27  2  0  0  0  0
 26 28  1  0  0  0  0
 28 29  1  0  0  0  0
 28 30  1  0  0  0  0
 30 31  1  0  0  0  0
 30 32  1  0  0  0  0
 30 33  1  0  0  0  0
M  END
$$$$

  -OEChem-03222214063D

 33 32  0     1  0  0  0  0  0999 V2000
   -3.5369   -4.0963    1.8517 H   0  0  0  0  0  0  0  0  0  0  0  0
   -3.6390   -3.0798    1.4612 C   0  0  0  0  0  0  0  0  0  0  0  0
   -4.2153   -2.4852    2.1742 H   0  0  0  0  0  0  0  0  0  0  0  0
   -4.1771   -3.1197    0.5111 H   0  0  0  0  0  0  0  0  0  0  0  0
   -2.2703   -2.4586    1.2549 C   0  0  0  0  0  0  0  0  0  0  0  0
   -1.2636   -3.1123    1.4798 O   0  0  0  0  0  0  0  0  0  0  0  0
   -2.1707   -1.1567    0.8115 N   0  0  0  0  0  0  0  0  0  0  0  0
   -3.0330   -0.6177    0.7485 H   0  0  0  0  0  0  0  0  0  0  0  0
   -0.9162   -0.3958    0.7237 C   0  0  1  0  0  0  0  0  0  0  0  0
   -0.1863   -0.8680    1.3895 H   0  0  0  0  0  0  0  0  0  0  0  0
   -0.3041   -0.4532   -0.6946 C   0  0  0  0  0  0  0  0  0  0  0  0
    0.5204    0.2641   -0.7598 H   0  0  0  0  0  0  0  0  0  0  0  0
    0.1318   -1.4513   -0.8097 H   0  0  0  0  0  0  0  0  0  0  0  0
   -1.2569   -0.2412   -1.8891 C   0  0  0  0  0  0  0  0  0  0  0  0
   -0.7310   -0.5709   -2.7911 H   0  0  0  0  0  0  0  0  0  0  0  0
   -2.1451   -0.8721   -1.7860 H   0  0  0  0  0  0  0  0  0  0  0  0
   -1.6777    1.2202   -2.0863 C   0  0  0  0  0  0  0  0  0  0  0  0
   -2.3368    1.5330   -1.2752 H   0  0  0  0  0  0  0  0  0  0  0  0
   -0.7927    1.8648   -2.0780 H   0  0  0  0  0  0  0  0  0  0  0  0
   -2.4184    1.3990   -3.4077 C   0  0  0  0  0  0  0  0  0  0  0  0
   -1.7861    1.0816   -4.2443 H   0  0  0  0  0  0  0  0  0  0  0  0
   -3.3254    0.7843   -3.4131 H   0  0  0  0  0  0  0  0  0  0  0  0
   -2.7652    2.8154   -3.5540 N   0  0  0  0  0  0  0  0  0  0  0  0
   -3.3221    2.9765   -4.3928 H   0  0  0  0  0  0  0  0  0  0  0  0
   -3.2481    3.1593   -2.7230 H   0  0  0  0  0  0  0  0  0  0  0  0
   -1.0881    1.0326    1.2854 C   0  0  0  0  0  0  0  0  0  0  0  0
   -2.1708    1.6025    1.2033 O   0  0  0  0  0  0  0  0  0  0  0  0
   -0.1290    1.5634    2.1296 N   0  0  0  0  0  0  0  0  0  0  0  0
    0.7169    1.0213    2.2810 H   0  0  0  0  0  0  0  0  0  0  0  0
   -0.3040    2.8143    2.8584 C   0  0  0  0  0  0  0  0  0  0  0  0
   -1.1433    2.7360    3.5575 H   0  0  0  0  0  0  0  0  0  0  0  0
    0.5998    3.0501    3.4282 H   0  0  0  0  0  0  0  0  0  0  0  0
   -0.4985    3.6387    2.1642 H   0  0  0  0  0  0  0  0  0  0  0  0
  1  2  1  0  0  0  0
  2  3  1  0  0  0  0
  2  4  1  0  0  0  0
  2  5  1  0  0  0  0
  5  6  2  0  0  0  0
  5  7  1  0  0  0  0
  7  8  1  0  0  0  0
  7  9  1  0  0  0  0
  9 10  1  0  0  0  0
  9 11  1  0  0  0  0
  9 26  1  0  0  0  0
 11 12  1  0  0  0  0
 11 13  1  0  0  0  0
 11 14  1  0  0  0  0
 14 15  1  0  0  0  0
 14 16  1  0  0  0  0
 14 17  1  0  0  0  0
 17 18  1  0  0  0  0
 17 19  1  0  0  0  0
 17 20  1  0  0  0  0
 20 21  1  0  0  0  0
 20 22  1  0  0  0  0
 20 23  1  0  0  0  0
 23 24  1  0  0  0  0
 23 25  1  0  0  0  0
 26 27  2  0  0  0  0
 26 28  1  0  0  0  0
 28 29  1  0  0  0  0
 28 30  1  0  0  0  0
 30 31  1  0  0  0  0
 30 32  1  0  0  0  0
 30 33  1  0  0  0  0
M  END
$$$$

  -OEChem-03222214063D

 33 32  0     1  0  0  0  0  0999 V2000
   -3.5941   -4.0801    1.8356 H   0  0  0  0  0  0  0  0  0  0  0  0
   -3.6703   -3.0725    1.4175 C   0  0  0  0  0  0  0  0  0  0  0  0
   -4.2703   -2.4562    2.0912 H   0  0  0  0  0  0  0  0  0  0  0  0
   -4.1682   -3.1304    0.4467 H   0  0  0  0  0  0  0  0  0  0  0  0
   -2.2885   -2.4679    1.2547 C   0  0  0  0  0  0  0  0  0  0  0  0
   -1.2990   -3.1168    1.5566 O   0  0  0  0  0  0  0  0  0  0  0  0
   -2.1579   -1.1839    0.7692 N   0  0  0  0  0  0  0  0  0  0  0  0
   -3.0117   -0.6420    0.6442 H   0  0  0  0  0  0  0  0  0  0  0  0
   -0.8925   -0.4381    0.7062 C   0  0  1  0  0  0  0  0  0  0  0  0
   -0.1795   -0.8945    1.4006 H   0  0  0  0  0  0  0  0  0  0  0  0
   -0.2511   -0.4954   -0.6997 C   0  0  0  0  0  0  0  0  0  0  0  0
    0.5934    0.1998   -0.7474 H   0  0  0  0  0  0  0  0  0  0  0  0
    0.1622   -1.5035   -0.8102 H   0  0  0  0  0  0  0  0  0  0  0  0
   -1.1874   -0.2620   -1.9050 C   0  0  0  0  0  0  0  0  0  0  0  0
   -0.7846   -0.8147   -2.7603 H   0  0  0  0  0  0  0  0  0  0  0  0
   -2.1877   -0.6584   -1.7102 H   0  0  0  0  0  0  0  0  0  0  0  0
   -1.2740    1.2206   -2.2937 C   0  0  0  0  0  0  0  0  0  0  0  0
   -1.6671    1.8086   -1.4621 H   0  0  0  0  0  0  0  0  0  0  0  0
   -0.2730    1.5972   -2.5280 H   0  0  0  0  0  0  0  0  0  0  0  0
   -2.1799    1.4142   -3.5055 C   0  0  0  0  0  0  0  0  0  0  0  0
   -1.8012    0.8387   -4.3574 H   0  0  0  0  0  0  0  0  0  0  0  0
   -3.1911    1.0600   -3.2766 H   0  0  0  0  0  0  0  0  0  0  0  0
   -2.2083    2.8414   -3.8387 N   0  0  0  0  0  0  0  0  0  0  0  0
   -2.8347    3.0257   -4.6220 H   0  0  0  0  0  0  0  0  0  0  0  0
   -2.4705    3.3985   -3.0246 H   0  0  0  0  0  0  0  0  0  0  0  0
   -1.1010    1.0044    1.2137 C   0  0  0  0  0  0  0  0  0  0  0  0
   -2.1686    1.5769    1.0193 O   0  0  0  0  0  0  0  0  0  0  0  0
   -0.1897    1.5727    2.0853 N   0  0  0  0  0  0  0  0  0  0  0  0
    0.6446    1.0378    2.3093 H   0  0  0  0  0  0  0  0  0  0  0  0
   -0.3999    2.8586    2.7395 C   0  0  0  0  0  0  0  0  0  0  0  0
   -1.2866    2.8212    3.3811 H   0  0  0  0  0  0  0  0  0  0  0  0
    0.4650    3.1140    3.3593 H   0  0  0  0  0  0  0  0  0  0  0  0
   -0.5364    3.6495    1.9944 H   0  0  0  0  0  0  0  0  0  0  0  0
  1  2  1  0  0  0  0
  2  3  1  0  0  0  0
  2  4  1  0  0  0  0
  2  5  1  0  0  0  0
  5  6  2  0  0  0  0
  5  7  1  0  0  0  0
  7  8  1  0  0  0  0
  7  9  1  0  0  0  0
  9 10  1  0  0  0  0
  9 11  1  0  0  0  0
  9 26  1  0  0  0  0
 11 12  1  0  0  0  0
 11 13  1  0  0  0  0
 11 14  1  0  0  0  0
 14 15  1  0  0  0  0
 14 16  1  0  0  0  0
 14 17  1  0  0  0  0
 17 18  1  0  0  0  0
 17 19  1  0  0  0  0
 17 20  1  0  0  0  0
 20 21  1  0  0  0  0
 20 22  1  0  0  0  0
 20 23  1  0  0  0  0
 23 24  1  0  0  0  0
 23 25  1  0  0  0  0
 26 27  2  0  0  0  0
 26 28  1  0  0  0  0
 28 29  1  0  0  0  0
 28 30  1  0  0  0  0
 30 31  1  0  0  0  0
 30 32  1  0  0  0  0
 30 33  1  0  0  0  0
M  END
$$$$

  -OEChem-03222214063D

 33 32  0     1  0  0  0  0  0999 V2000
   -3.6235   -4.0864    1.8761 H   0  0  0  0  0  0  0  0  0  0  0  0
   -3.6837   -3.1004    1.4067 C   0  0  0  0  0  0  0  0  0  0  0  0
   -4.3142   -2.4551    2.0233 H   0  0  0  0  0  0  0  0  0  0  0  0
   -4.1388   -3.2075    0.4191 H   0  0  0  0  0  0  0  0  0  0  0  0
   -2.2976   -2.4979    1.2753 C   0  0  0  0  0  0  0  0  0  0  0  0
   -1.3201   -3.1313    1.6417 O   0  0  0  0  0  0  0  0  0  0  0  0
   -2.1492   -1.2330    0.7470 N   0  0  0  0  0  0  0  0  0  0  0  0
   -2.9972   -0.7006    0.5587 H   0  0  0  0  0  0  0  0  0  0  0  0
   -0.8804   -0.4908    0.6997 C   0  0  1  0  0  0  0  0  0  0  0  0
   -0.1757   -0.9285    1.4143 H   0  0  0  0  0  0  0  0  0  0  0  0
   -0.2252   -0.5396   -0.6979 C   0  0  0  0  0  0  0  0  0  0  0  0
    0.6227    0.1528   -0.7321 H   0  0  0  0  0  0  0  0  0  0  0  0
    0.1870   -1.5469   -0.8172 H   0  0  0  0  0  0  0  0  0  0  0  0
   -1.1700   -0.2897   -1.8940 C   0  0  0  0  0  0  0  0  0  0  0  0
   -0.9534   -1.0278   -2.6734 H   0  0  0  0  0  0  0  0  0  0  0  0
   -2.2189   -0.4145   -1.6124 H   0  0  0  0  0  0  0  0  0  0  0  0
   -0.9599    1.1138   -2.4771 C   0  0  0  0  0  0  0  0  0  0  0  0
   -1.1070    1.8659   -1.6961 H   0  0  0  0  0  0  0  0  0  0  0  0
    0.0658    1.2090   -2.8486 H   0  0  0  0  0  0  0  0  0  0  0  0
   -1.9363    1.3794   -3.6179 C   0  0  0  0  0  0  0  0  0  0  0  0
   -1.7996    0.6364   -4.4115 H   0  0  0  0  0  0  0  0  0  0  0  0
   -2.9669    1.3040   -3.2534 H   0  0  0  0  0  0  0  0  0  0  0  0
   -1.6840    2.7253   -4.1409 N   0  0  0  0  0  0  0  0  0  0  0  0
   -2.3308    2.9551   -4.8950 H   0  0  0  0  0  0  0  0  0  0  0  0
   -1.7361    3.4191   -3.3943 H   0  0  0  0  0  0  0  0  0  0  0  0
   -1.1110    0.9674    1.1469 C   0  0  0  0  0  0  0  0  0  0  0  0
   -2.1364    1.5555    0.8185 O   0  0  0  0  0  0  0  0  0  0  0  0
   -0.2372    1.5752    2.0296 N   0  0  0  0  0  0  0  0  0  0  0  0
    0.5739    1.0430    2.3319 H   0  0  0  0  0  0  0  0  0  0  0  0
   -0.4375    2.9185    2.5591 C   0  0  0  0  0  0  0  0  0  0  0  0
   -1.3789    2.9746    3.1155 H   0  0  0  0  0  0  0  0  0  0  0  0
    0.3803    3.1838    3.2359 H   0  0  0  0  0  0  0  0  0  0  0  0
   -0.4639    3.6510    1.7456 H   0  0  0  0  0  0  0  0  0  0  0  0
  1  2  1  0  0  0  0
  2  3  1  0  0  0  0
  2  4  1  0  0  0  0
  2  5  1  0  0  0  0
  5  6  2  0  0  0  0
  5  7  1  0  0  0  0
  7  8  1  0  0  0  0
  7  9  1  0  0  0  0
  9 10  1  0  0  0  0
  9 11  1  0  0  0  0
  9 26  1  0  0  0  0
 11 12  1  0  0  0  0
 11 13  1  0  0  0  0
 11 14  1  0  0  0  0
 14 15  1  0  0  0  0
 14 16  1  0  0  0  0
 14 17  1  0  0  0  0
 17 18  1  0  0  0  0
 17 19  1  0  0  0  0
 17 20  1  0  0  0  0
 20 21  1  0  0  0  0
 20 22  1  0  0  0  0
 20 23  1  0  0  0  0
 23 24  1  0  0  0  0
 23 25  1  0  0  0  0
 26 27  2  0  0  0  0
 26 28  1  0  0  0  0
 28 29  1  0  0  0  0
 28 30  1  0  0  0  0
 30 31  1  0  0  0  0
 30 32  1  0  0  0  0
 30 33  1  0  0  0  0
M  END
$$$$

  -OEChem-03222214063D

 33 32  0     1  0  0  0  0  0999 V2000
   -3.6387   -4.0882    1.8562 H   0  0  0  0  0  0  0  0  0  0  0  0
   -3.6895   -3.1039    1.3824 C   0  0  0  0  0  0  0  0  0  0  0  0
   -4.3363   -2.4582    1.9812 H   0  0  0  0  0  0  0  0  0  0  0  0
   -4.1201   -3.2155    0.3844 H   0  0  0  0  0  0  0  0  0  0  0  0
   -2.3019   -2.4985    1.2828 C   0  0  0  0  0  0  0  0  0  0  0  0
   -1.3326   -3.1251    1.6814 O   0  0  0  0  0  0  0  0  0  0  0  0
   -2.1428   -1.2380    0.7466 N   0  0  0  0  0  0  0  0  0  0  0  0
   -2.9864   -0.7128    0.5227 H   0  0  0  0  0  0  0  0  0  0  0  0
   -0.8713   -0.4991    0.7069 C   0  0  1  0  0  0  0  0  0  0  0  0
   -0.1675   -0.9372    1.4221 H   0  0  0  0  0  0  0  0  0  0  0  0
   -0.2243   -0.5502   -0.6928 C   0  0  0  0  0  0  0  0  0  0  0  0
    0.6149    0.1529   -0.7249 H   0  0  0  0  0  0  0  0  0  0  0  0
    0.1989   -1.5515   -0.8247 H   0  0  0  0  0  0  0  0  0  0  0  0
   -1.1903   -0.2919   -1.8708 C   0  0  0  0  0  0  0  0  0  0  0  0
   -1.2095   -1.1735   -2.5197 H   0  0  0  0  0  0  0  0  0  0  0  0
   -2.2111   -0.1219   -1.5168 H   0  0  0  0  0  0  0  0  0  0  0  0
   -0.7478    0.9319   -2.6819 C   0  0  0  0  0  0  0  0  0  0  0  0
   -0.7037    1.8085   -2.0269 H   0  0  0  0  0  0  0  0  0  0  0  0
    0.2537    0.7618   -3.0903 H   0  0  0  0  0  0  0  0  0  0  0  0
   -1.7202    1.2054   -3.8248 C   0  0  0  0  0  0  0  0  0  0  0  0
   -1.7738    0.3352   -4.4882 H   0  0  0  0  0  0  0  0  0  0  0  0
   -2.7235    1.3917   -3.4258 H   0  0  0  0  0  0  0  0  0  0  0  0
   -1.2486    2.3759   -4.5706 N   0  0  0  0  0  0  0  0  0  0  0  0
   -1.8777    2.5997   -5.3414 H   0  0  0  0  0  0  0  0  0  0  0  0
   -1.1338    3.1785   -3.9512 H   0  0  0  0  0  0  0  0  0  0  0  0
   -1.0947    0.9647    1.1393 C   0  0  0  0  0  0  0  0  0  0  0  0
   -2.0929    1.5707    0.7640 O   0  0  0  0  0  0  0  0  0  0  0  0
   -0.2255    1.5746    2.0251 N   0  0  0  0  0  0  0  0  0  0  0  0
    0.5623    1.0297    2.3639 H   0  0  0  0  0  0  0  0  0  0  0  0
   -0.4125    2.9313    2.5242 C   0  0  0  0  0  0  0  0  0  0  0  0
   -1.3651    3.0152    3.0580 H   0  0  0  0  0  0  0  0  0  0  0  0
    0.3948    3.1957    3.2142 H   0  0  0  0  0  0  0  0  0  0  0  0
   -0.4079    3.6479    1.6960 H   0  0  0  0  0  0  0  0  0  0  0  0
  1  2  1  0  0  0  0
  2  3  1  0  0  0  0
  2  4  1  0  0  0  0
  2  5  1  0  0  0  0
  5  6  2  0  0  0  0
  5  7  1  0  0  0  0
  7  8  1  0  0  0  0
  7  9  1  0  0  0  0
  9 10  1  0  0  0  0
  9 11  1  0  0  0  0
  9 26  1  0  0  0  0
 11 12  1  0  0  0  0
 11 13  1  0  0  0  0
 11 14  1  0  0  0  0
 14 15  1  0  0  0  0
 14 16  1  0  0  0  0
 14 17  1  0  0  0  0
 17 18  1  0  0  0  0
 17 19  1  0  0  0  0
 17 20  1  0  0  0  0
 20 21  1  0  0  0  0
 20 22  1  0  0  0  0
 20 23  1  0  0  0  0
 23 24  1  0  0  0  0
 23 25  1  0  0  0  0
 26 27  2  0  0  0  0
 26 28  1  0  0  0  0
 28 29  1  0  0  0  0
 28 30  1  0  0  0  0
 30 31  1  0  0  0  0
 30 32  1  0  0  0  0
 30 33  1  0  0  0  0
M  END
$$$$

  -OEChem-03222214063D

 33 32  0     1  0  0  0  0  0999 V2000
   -3.6471   -4.0746    1.8119 H   0  0  0  0  0  0  0  0  0  0  0  0
   -3.6942   -3.0865    1.3460 C   0  0  0  0  0  0  0  0  0  0  0  0
   -4.3450   -2.4455    1.9455 H   0  0  0  0  0  0  0  0  0  0  0  0
   -4.1173   -3.1895    0.3439 H   0  0  0  0  0  0  0  0  0  0  0  0
   -2.3055   -2.4818    1.2623 C   0  0  0  0  0  0  0  0  0  0  0  0
   -1.3398   -3.1124    1.6630 O   0  0  0  0  0  0  0  0  0  0  0  0
   -2.1419   -1.2169    0.7385 N   0  0  0  0  0  0  0  0  0  0  0  0
   -2.9835   -0.6911    0.5094 H   0  0  0  0  0  0  0  0  0  0  0  0
   -0.8692   -0.4798    0.7098 C   0  0  1  0  0  0  0  0  0  0  0  0
   -0.1700   -0.9258    1.4245 H   0  0  0  0  0  0  0  0  0  0  0  0
   -0.2226   -0.5424   -0.6883 C   0  0  0  0  0  0  0  0  0  0  0  0
    0.6001    0.1801   -0.7206 H   0  0  0  0  0  0  0  0  0  0  0  0
    0.2202   -1.5346   -0.8247 H   0  0  0  0  0  0  0  0  0  0  0  0
   -1.2002   -0.2871   -1.8549 C   0  0  0  0  0  0  0  0  0  0  0  0
   -1.4582   -1.2398   -2.3289 H   0  0  0  0  0  0  0  0  0  0  0  0
   -2.1286    0.1610   -1.4874 H   0  0  0  0  0  0  0  0  0  0  0  0
   -0.5895    0.6709   -2.8837 C   0  0  0  0  0  0  0  0  0  0  0  0
   -0.3472    1.6231   -2.4005 H   0  0  0  0  0  0  0  0  0  0  0  0
    0.3383    0.2432   -3.2775 H   0  0  0  0  0  0  0  0  0  0  0  0
   -1.5591    0.9210   -4.0343 C   0  0  0  0  0  0  0  0  0  0  0  0
   -1.8067   -0.0248   -4.5289 H   0  0  0  0  0  0  0  0  0  0  0  0
   -2.4882    1.3599   -3.6536 H   0  0  0  0  0  0  0  0  0  0  0  0
   -0.9235    1.8342   -4.9889 N   0  0  0  0  0  0  0  0  0  0  0  0
   -1.5407    2.0329   -5.7761 H   0  0  0  0  0  0  0  0  0  0  0  0
   -0.6334    2.6972   -4.5290 H   0  0  0  0  0  0  0  0  0  0  0  0
   -1.0811    0.9827    1.1536 C   0  0  0  0  0  0  0  0  0  0  0  0
   -2.0769    1.5996    0.7904 O   0  0  0  0  0  0  0  0  0  0  0  0
   -0.2063    1.5753    2.0454 N   0  0  0  0  0  0  0  0  0  0  0  0
    0.5787    1.0203    2.3743 H   0  0  0  0  0  0  0  0  0  0  0  0
   -0.3839    2.9251    2.5661 C   0  0  0  0  0  0  0  0  0  0  0  0
   -1.3327    3.0057    3.1069 H   0  0  0  0  0  0  0  0  0  0  0  0
    0.4288    3.1742    3.2551 H   0  0  0  0  0  0  0  0  0  0  0  0
   -0.3801    3.6542    1.7491 H   0  0  0  0  0  0  0  0  0  0  0  0
  1  2  1  0  0  0  0
  2  3  1  0  0  0  0
  2  4  1  0  0  0  0
  2  5  1  0  0  0  0
  5  6  2  0  0  0  0
  5  7  1  0  0  0  0
  7  8  1  0  0  0  0
  7  9  1  0  0  0  0
  9 10  1  0  0  0  0
  9 11  1  0  0  0  0
  9 26  1  0  0  0  0
 11 12  1  0  0  0  0
 11 13  1  0  0  0  0
 11 14  1  0  0  0  0
 14 15  1  0  0  0  0
 14 16  1  0  0  0  0
 14 17  1  0  0  0  0
 17 18  1  0  0  0  0
 17 19  1  0  0  0  0
 17 20  1  0  0  0  0
 20 21  1  0  0  0  0
 20 22  1  0  0  0  0
 20 23  1  0  0  0  0
 23 24  1  0  0  0  0
 23 25  1  0  0  0  0
 26 27  2  0  0  0  0
 26 28  1  0  0  0  0
 28 29  1  0  0  0  0
 28 30  1  0  0  0  0
 30 31  1  0  0  0  0
 30 32  1  0  0  0  0
 30 33  1  0  0  0  0
M  END
$$$$

  -OEChem-03222214063D

 33 32  0     1  0  0  0  0  0999 V2000
   -3.6559   -4.0588    1.7993 H   0  0  0  0  0  0  0  0  0  0  0  0
   -3.7001   -3.0707    1.3326 C   0  0  0  0  0  0  0  0  0  0  0  0
   -4.3452   -2.4259    1.9342 H   0  0  0  0  0  0  0  0  0  0  0  0
   -4.1280   -3.1715    0.3323 H   0  0  0  0  0  0  0  0  0  0  0  0
   -2.3091   -2.4725    1.2420 C   0  0  0  0  0  0  0  0  0  0  0  0
   -1.3434   -3.1119    1.6286 O   0  0  0  0  0  0  0  0  0  0  0  0
   -2.1442   -1.2025    0.7308 N   0  0  0  0  0  0  0  0  0  0  0  0
   -2.9850   -0.6722    0.5088 H   0  0  0  0  0  0  0  0  0  0  0  0
   -0.8706   -0.4680    0.7079 C   0  0  1  0  0  0  0  0  0  0  0  0
   -0.1739   -0.9208    1.4210 H   0  0  0  0  0  0  0  0  0  0  0  0
   -0.2230   -0.5345   -0.6893 C   0  0  0  0  0  0  0  0  0  0  0  0
    0.5918    0.1965   -0.7230 H   0  0  0  0  0  0  0  0  0  0  0  0
    0.2249   -1.5240   -0.8285 H   0  0  0  0  0  0  0  0  0  0  0  0
   -1.2038   -0.2784   -1.8493 C   0  0  0  0  0  0  0  0  0  0  0  0
   -1.6741   -1.2220   -2.1454 H   0  0  0  0  0  0  0  0  0  0  0  0
   -1.9977    0.4033   -1.5291 H   0  0  0  0  0  0  0  0  0  0  0  0
   -0.4836    0.3589   -3.0428 C   0  0  0  0  0  0  0  0  0  0  0  0
   -0.0432    1.3149   -2.7408 H   0  0  0  0  0  0  0  0  0  0  0  0
    0.3267   -0.2982   -3.3753 H   0  0  0  0  0  0  0  0  0  0  0  0
   -1.4524    0.5920   -4.1980 C   0  0  0  0  0  0  0  0  0  0  0  0
   -1.9008   -0.3578   -4.5099 H   0  0  0  0  0  0  0  0  0  0  0  0
   -2.2597    1.2617   -3.8809 H   0  0  0  0  0  0  0  0  0  0  0  0
   -0.7122    1.1858   -5.3153 N   0  0  0  0  0  0  0  0  0  0  0  0
   -1.3231    1.3533   -6.1147 H   0  0  0  0  0  0  0  0  0  0  0  0
   -0.2461    2.0462   -5.0276 H   0  0  0  0  0  0  0  0  0  0  0  0
   -1.0754    0.9912    1.1664 C   0  0  0  0  0  0  0  0  0  0  0  0
   -2.0738    1.6131    0.8192 O   0  0  0  0  0  0  0  0  0  0  0  0
   -0.1964    1.5716    2.0621 N   0  0  0  0  0  0  0  0  0  0  0  0
    0.5914    1.0135    2.3788 H   0  0  0  0  0  0  0  0  0  0  0  0
   -0.3688    2.9170    2.5957 C   0  0  0  0  0  0  0  0  0  0  0  0
   -1.3122    2.9928    3.1465 H   0  0  0  0  0  0  0  0  0  0  0  0
    0.4510    3.1615    3.2781 H   0  0  0  0  0  0  0  0  0  0  0  0
   -0.3743    3.6525    1.7843 H   0  0  0  0  0  0  0  0  0  0  0  0
  1  2  1  0  0  0  0
  2  3  1  0  0  0  0
  2  4  1  0  0  0  0
  2  5  1  0  0  0  0
  5  6  2  0  0  0  0
  5  7  1  0  0  0  0
  7  8  1  0  0  0  0
  7  9  1  0  0  0  0
  9 10  1  0  0  0  0
  9 11  1  0  0  0  0
  9 26  1  0  0  0  0
 11 12  1  0  0  0  0
 11 13  1  0  0  0  0
 11 14  1  0  0  0  0
 14 15  1  0  0  0  0
 14 16  1  0  0  0  0
 14 17  1  0  0  0  0
 17 18  1  0  0  0  0
 17 19  1  0  0  0  0
 17 20  1  0  0  0  0
 20 21  1  0  0  0  0
 20 22  1  0  0  0  0
 20 23  1  0  0  0  0
 23 24  1  0  0  0  0
 23 25  1  0  0  0  0
 26 27  2  0  0  0  0
 26 28  1  0  0  0  0
 28 29  1  0  0  0  0
 28 30  1  0  0  0  0
 30 31  1  0  0  0  0
 30 32  1  0  0  0  0
 30 33  1  0  0  0  0
M  END
$$$$

  -OEChem-03222214063D

 33 32  0     1  0  0  0  0  0999 V2000
   -3.6678   -4.0514    1.7892 H   0  0  0  0  0  0  0  0  0  0  0  0
   -3.7075   -3.0639    1.3209 C   0  0  0  0  0  0  0  0  0  0  0  0
   -4.3605   -2.4191    1.9142 H   0  0  0  0  0  0  0  0  0  0  0  0
   -4.1231   -3.1669    0.3156 H   0  0  0  0  0  0  0  0  0  0  0  0
   -2.3157   -2.4651    1.2462 C   0  0  0  0  0  0  0  0  0  0  0  0
   -1.3544   -3.1037    1.6447 O   0  0  0  0  0  0  0  0  0  0  0  0
   -2.1448   -1.1965    0.7338 N   0  0  0  0  0  0  0  0  0  0  0  0
   -2.9828   -0.6656    0.5027 H   0  0  0  0  0  0  0  0  0  0  0  0
   -0.8685   -0.4670    0.7093 C   0  0  1  0  0  0  0  0  0  0  0  0
   -0.1732   -0.9223    1.4222 H   0  0  0  0  0  0  0  0  0  0  0  0
   -0.2209   -0.5359   -0.6887 C   0  0  0  0  0  0  0  0  0  0  0  0
    0.5964    0.1917   -0.7306 H   0  0  0  0  0  0  0  0  0  0  0  0
    0.2189   -1.5296   -0.8252 H   0  0  0  0  0  0  0  0  0  0  0  0
   -1.2020   -0.2766   -1.8452 C   0  0  0  0  0  0  0  0  0  0  0  0
   -1.8564   -1.1447   -1.9753 H   0  0  0  0  0  0  0  0  0  0  0  0
   -1.8309    0.5887   -1.6141 H   0  0  0  0  0  0  0  0  0  0  0  0
   -0.4428    0.0038   -3.1462 C   0  0  0  0  0  0  0  0  0  0  0  0
    0.1944    0.8850   -3.0197 H   0  0  0  0  0  0  0  0  0  0  0  0
    0.2007   -0.8487   -3.3873 H   0  0  0  0  0  0  0  0  0  0  0  0
   -1.4158    0.2434   -4.2964 C   0  0  0  0  0  0  0  0  0  0  0  0
   -2.0579   -0.6338   -4.4339 H   0  0  0  0  0  0  0  0  0  0  0  0
   -2.0568    1.1032   -4.0717 H   0  0  0  0  0  0  0  0  0  0  0  0
   -0.6448    0.4936   -5.5177 N   0  0  0  0  0  0  0  0  0  0  0  0
   -1.2598    0.6490   -6.3164 H   0  0  0  0  0  0  0  0  0  0  0  0
   -0.0065    1.2793   -5.3920 H   0  0  0  0  0  0  0  0  0  0  0  0
   -1.0695    0.9928    1.1667 C   0  0  0  0  0  0  0  0  0  0  0  0
   -2.0645    1.6177    0.8153 O   0  0  0  0  0  0  0  0  0  0  0  0
   -0.1891    1.5722    2.0619 N   0  0  0  0  0  0  0  0  0  0  0  0
    0.5902    1.0081    2.3891 H   0  0  0  0  0  0  0  0  0  0  0  0
   -0.3584    2.9185    2.5948 C   0  0  0  0  0  0  0  0  0  0  0  0
   -1.3062    3.0008    3.1370 H   0  0  0  0  0  0  0  0  0  0  0  0
    0.4562    3.1570    3.2853 H   0  0  0  0  0  0  0  0  0  0  0  0
   -0.3507    3.6544    1.7839 H   0  0  0  0  0  0  0  0  0  0  0  0
  1  2  1  0  0  0  0
  2  3  1  0  0  0  0
  2  4  1  0  0  0  0
  2  5  1  0  0  0  0
  5  6  2  0  0  0  0
  5  7  1  0  0  0  0
  7  8  1  0  0  0  0
  7  9  1  0  0  0  0
  9 10  1  0  0  0  0
  9 11  1  0  0  0  0
  9 26  1  0  0  0  0
 11 12  1  0  0  0  0
 11 13  1  0  0  0  0
 11 14  1  0  0  0  0
 14 15  1  0  0  0  0
 14 16  1  0  0  0  0
 14 17  1  0  0  0  0
 17 18  1  0  0  0  0
 17 19  1  0  0  0  0
 17 20  1  0  0  0  0
 20 21  1  0  0  0  0
 20 22  1  0  0  0  0
 20 23  1  0  0  0  0
 23 24  1  0  0  0  0
 23 25  1  0  0  0  0
 26 27  2  0  0  0  0
 26 28  1  0  0  0  0
 28 29  1  0  0  0  0
 28 30  1  0  0  0  0
 30 31  1  0  0  0  0
 30 32  1  0  0  0  0
 30 33  1  0  0  0  0
M  END
$$$$

  -OEChem-03222214063D

 33 32  0     1  0  0  0  0  0999 V2000
   -3.6552   -4.0459    1.7223 H   0  0  0  0  0  0  0  0  0  0  0  0
   -3.6974   -3.0494    1.2737 C   0  0  0  0  0  0  0  0  0  0  0  0
   -4.3500   -2.4175    1.8812 H   0  0  0  0  0  0  0  0  0  0  0  0
   -4.1154   -3.1333    0.2676 H   0  0  0  0  0  0  0  0  0  0  0  0
   -2.3071   -2.4456    1.2073 C   0  0  0  0  0  0  0  0  0  0  0  0
   -1.3430   -3.0886    1.5922 O   0  0  0  0  0  0  0  0  0  0  0  0
   -2.1416   -1.1672    0.7173 N   0  0  0  0  0  0  0  0  0  0  0  0
   -2.9832   -0.6357    0.5013 H   0  0  0  0  0  0  0  0  0  0  0  0
   -0.8701   -0.4302    0.7040 C   0  0  1  0  0  0  0  0  0  0  0  0
   -0.1800   -0.8978    1.4136 H   0  0  0  0  0  0  0  0  0  0  0  0
   -0.2211   -0.5110   -0.6914 C   0  0  0  0  0  0  0  0  0  0  0  0
    0.7388    0.0148   -0.6651 H   0  0  0  0  0  0  0  0  0  0  0  0
   -0.0133   -1.5626   -0.9166 H   0  0  0  0  0  0  0  0  0  0  0  0
   -1.0862    0.0785   -1.8184 C   0  0  0  0  0  0  0  0  0  0  0  0
   -2.0434   -0.4502   -1.8681 H   0  0  0  0  0  0  0  0  0  0  0  0
   -1.2935    1.1343   -1.6184 H   0  0  0  0  0  0  0  0  0  0  0  0
   -0.3667   -0.0436   -3.1657 C   0  0  0  0  0  0  0  0  0  0  0  0
    0.5907    0.4853   -3.1215 H   0  0  0  0  0  0  0  0  0  0  0  0
   -0.1617   -1.0977   -3.3797 H   0  0  0  0  0  0  0  0  0  0  0  0
   -1.2190    0.5420   -4.2873 C   0  0  0  0  0  0  0  0  0  0  0  0
   -2.1792    0.0170   -4.3418 H   0  0  0  0  0  0  0  0  0  0  0  0
   -1.4211    1.6009   -4.0911 H   0  0  0  0  0  0  0  0  0  0  0  0
   -0.4953    0.3919   -5.5536 N   0  0  0  0  0  0  0  0  0  0  0  0
   -1.0368    0.7631   -6.3342 H   0  0  0  0  0  0  0  0  0  0  0  0
    0.4226    0.8336   -5.5051 H   0  0  0  0  0  0  0  0  0  0  0  0
   -1.0639    1.0231    1.1848 C   0  0  0  0  0  0  0  0  0  0  0  0
   -2.0698    1.6481    0.8659 O   0  0  0  0  0  0  0  0  0  0  0  0
   -0.1776    1.5853    2.0852 N   0  0  0  0  0  0  0  0  0  0  0  0
    0.6075    1.0170    2.3905 H   0  0  0  0  0  0  0  0  0  0  0  0
   -0.3566    2.9109    2.6651 C   0  0  0  0  0  0  0  0  0  0  0  0
   -1.2955    2.9608    3.2266 H   0  0  0  0  0  0  0  0  0  0  0  0
    0.4670    3.1385    3.3486 H   0  0  0  0  0  0  0  0  0  0  0  0
   -0.3745    3.6735    1.8793 H   0  0  0  0  0  0  0  0  0  0  0  0
  1  2  1  0  0  0  0
  2  3  1  0  0  0  0
  2  4  1  0  0  0  0
  2  5  1  0  0  0  0
  5  6  2  0  0  0  0
  5  7  1  0  0  0  0
  7  8  1  0  0  0  0
  7  9  1  0  0  0  0
  9 10  1  0  0  0  0
  9 11  1  0  0  0  0
  9 26  1  0  0  0  0
 11 12  1  0  0  0  0
 11 13  1  0  0  0  0
 11 14  1  0  0  0  0
 14 15  1  0  0  0  0
 14 16  1  0  0  0  0
 14 17  1  0  0  0  0
 17 18  1  0  0  0  0
 17 19  1  0  0  0  0
 17 20  1  0  0  0  0
 20 21  1  0  0  0  0
 20 22  1  0  0  0  0
 20 23  1  0  0  0  0
 23 24  1  0  0  0  0
 23 25  1  0  0  0  0
 26 27  2  0  0  0  0
 26 28  1  0  0  0  0
 28 29  1  0  0  0  0
 28 30  1  0  0  0  0
 30 31  1  0  0  0  0
 30 32  1  0  0  0  0
 30 33  1  0  0  0  0
M  END
$$$$

  -OEChem-03222214063D

 33 32  0     1  0  0  0  0  0999 V2000
   -3.6657   -4.0471    1.7436 H   0  0  0  0  0  0  0  0  0  0  0  0
   -3.7040   -3.0522    1.2912 C   0  0  0  0  0  0  0  0  0  0  0  0
   -4.3603   -2.4174    1.8916 H   0  0  0  0  0  0  0  0  0  0  0  0
   -4.1147   -3.1394    0.2824 H   0  0  0  0  0  0  0  0  0  0  0  0
   -2.3128   -2.4500    1.2326 C   0  0  0  0  0  0  0  0  0  0  0  0
   -1.3545   -3.0864    1.6420 O   0  0  0  0  0  0  0  0  0  0  0  0
   -2.1402   -1.1786    0.7273 N   0  0  0  0  0  0  0  0  0  0  0  0
   -2.9777   -0.6517    0.4860 H   0  0  0  0  0  0  0  0  0  0  0  0
   -0.8652   -0.4470    0.7085 C   0  0  1  0  0  0  0  0  0  0  0  0
   -0.1742   -0.9106    1.4202 H   0  0  0  0  0  0  0  0  0  0  0  0
   -0.2181   -0.5250   -0.6880 C   0  0  0  0  0  0  0  0  0  0  0  0
    0.7502   -0.0143   -0.6712 H   0  0  0  0  0  0  0  0  0  0  0  0
   -0.0274   -1.5810   -0.9077 H   0  0  0  0  0  0  0  0  0  0  0  0
   -1.0828    0.0720   -1.8131 C   0  0  0  0  0  0  0  0  0  0  0  0
   -2.1193   -0.2646   -1.7135 H   0  0  0  0  0  0  0  0  0  0  0  0
   -1.0774    1.1647   -1.7408 H   0  0  0  0  0  0  0  0  0  0  0  0
   -0.5587   -0.3645   -3.1853 C   0  0  0  0  0  0  0  0  0  0  0  0
    0.4856   -0.0549   -3.2949 H   0  0  0  0  0  0  0  0  0  0  0  0
   -0.5988   -1.4559   -3.2665 H   0  0  0  0  0  0  0  0  0  0  0  0
   -1.3925    0.2542   -4.3033 C   0  0  0  0  0  0  0  0  0  0  0  0
   -2.4393   -0.0539   -4.2048 H   0  0  0  0  0  0  0  0  0  0  0  0
   -1.3523    1.3475   -4.2400 H   0  0  0  0  0  0  0  0  0  0  0  0
   -0.8586   -0.1974   -5.5920 N   0  0  0  0  0  0  0  0  0  0  0  0
   -1.3937    0.1897   -6.3694 H   0  0  0  0  0  0  0  0  0  0  0  0
    0.1306    0.0346   -5.6799 H   0  0  0  0  0  0  0  0  0  0  0  0
   -1.0588    1.0118    1.1711 C   0  0  0  0  0  0  0  0  0  0  0  0
   -2.0519    1.6416    0.8229 O   0  0  0  0  0  0  0  0  0  0  0  0
   -0.1754    1.5834    2.0683 N   0  0  0  0  0  0  0  0  0  0  0  0
    0.5931    1.0088    2.4026 H   0  0  0  0  0  0  0  0  0  0  0  0
   -0.3557    2.9157    2.6318 C   0  0  0  0  0  0  0  0  0  0  0  0
   -1.2958    2.9718    3.1910 H   0  0  0  0  0  0  0  0  0  0  0  0
    0.4666    3.1520    3.3140 H   0  0  0  0  0  0  0  0  0  0  0  0
   -0.3723    3.6685    1.8367 H   0  0  0  0  0  0  0  0  0  0  0  0
  1  2  1  0  0  0  0
  2  3  1  0  0  0  0
  2  4  1  0  0  0  0
  2  5  1  0  0  0  0
  5  6  2  0  0  0  0
  5  7  1  0  0  0  0
  7  8  1  0  0  0  0
  7  9  1  0  0  0  0
  9 10  1  0  0  0  0
  9 11  1  0  0  0  0
  9 26  1  0  0  0  0
 11 12  1  0  0  0  0
 11 13  1  0  0  0  0
 11 14  1  0  0  0  0
 14 15  1  0  0  0  0
 14 16  1  0  0  0  0
 14 17  1  0  0  0  0
 17 18  1  0  0  0  0
 17 19  1  0  0  0  0
 17 20  1  0  0  0  0
 20 21  1  0  0  0  0
 20 22  1  0  0  0  0
 20 23  1  0  0  0  0
 23 24  1  0  0  0  0
 23 25  1  0  0  0  0
 26 27  2  0  0  0  0
 26 28  1  0  0  0  0
 28 29  1  0  0  0  0
 28 30  1  0  0  0  0
 30 31  1  0  0  0  0
 30 32  1  0  0  0  0
 30 33  1  0  0  0  0
M  END
$$$$

  -OEChem-03222214063D

 33 32  0     1  0  0  0  0  0999 V2000
   -3.6708   -4.0536    1.7352 H   0  0  0  0  0  0  0  0  0  0  0  0
   -3.7064   -3.0621    1.2753 C   0  0  0  0  0  0  0  0  0  0  0  0
   -4.3808   -2.4284    1.8562 H   0  0  0  0  0  0  0  0  0  0  0  0
   -4.0932   -3.1590    0.2580 H   0  0  0  0  0  0  0  0  0  0  0  0
   -2.3183   -2.4510    1.2440 C   0  0  0  0  0  0  0  0  0  0  0  0
   -1.3640   -3.0812    1.6724 O   0  0  0  0  0  0  0  0  0  0  0  0
   -2.1425   -1.1812    0.7359 N   0  0  0  0  0  0  0  0  0  0  0  0
   -2.9769   -0.6613    0.4702 H   0  0  0  0  0  0  0  0  0  0  0  0
   -0.8670   -0.4502    0.7201 C   0  0  1  0  0  0  0  0  0  0  0  0
   -0.1768   -0.9137    1.4326 H   0  0  0  0  0  0  0  0  0  0  0  0
   -0.2184   -0.5262   -0.6754 C   0  0  0  0  0  0  0  0  0  0  0  0
    0.7540   -0.0236   -0.6606 H   0  0  0  0  0  0  0  0  0  0  0  0
   -0.0322   -1.5844   -0.8884 H   0  0  0  0  0  0  0  0  0  0  0  0
   -1.0791    0.0736   -1.8053 C   0  0  0  0  0  0  0  0  0  0  0  0
   -2.1435   -0.0351   -1.5763 H   0  0  0  0  0  0  0  0  0  0  0  0
   -0.8703    1.1451   -1.8916 H   0  0  0  0  0  0  0  0  0  0  0  0
   -0.8035   -0.6339   -3.1367 C   0  0  0  0  0  0  0  0  0  0  0  0
    0.2611   -0.5559   -3.3799 H   0  0  0  0  0  0  0  0  0  0  0  0
   -1.0544   -1.6963   -3.0489 H   0  0  0  0  0  0  0  0  0  0  0  0
   -1.6297   -0.0132   -4.2593 C   0  0  0  0  0  0  0  0  0  0  0  0
   -2.6972   -0.0843   -4.0225 H   0  0  0  0  0  0  0  0  0  0  0  0
   -1.3761    1.0472   -4.3698 H   0  0  0  0  0  0  0  0  0  0  0  0
   -1.3459   -0.7342   -5.5041 N   0  0  0  0  0  0  0  0  0  0  0  0
   -1.8790   -0.3488   -6.2838 H   0  0  0  0  0  0  0  0  0  0  0  0
   -0.3468   -0.7310   -5.7094 H   0  0  0  0  0  0  0  0  0  0  0  0
   -1.0578    1.0105    1.1774 C   0  0  0  0  0  0  0  0  0  0  0  0
   -2.0405    1.6476    0.8135 O   0  0  0  0  0  0  0  0  0  0  0  0
   -0.1752    1.5815    2.0758 N   0  0  0  0  0  0  0  0  0  0  0  0
    0.5900    1.0048    2.4141 H   0  0  0  0  0  0  0  0  0  0  0  0
   -0.3401    2.9243    2.6186 C   0  0  0  0  0  0  0  0  0  0  0  0
   -1.2894    3.0060    3.1584 H   0  0  0  0  0  0  0  0  0  0  0  0
    0.4735    3.1537    3.3136 H   0  0  0  0  0  0  0  0  0  0  0  0
   -0.3269    3.6668    1.8138 H   0  0  0  0  0  0  0  0  0  0  0  0
  1  2  1  0  0  0  0
  2  3  1  0  0  0  0
  2  4  1  0  0  0  0
  2  5  1  0  0  0  0
  5  6  2  0  0  0  0
  5  7  1  0  0  0  0
  7  8  1  0  0  0  0
  7  9  1  0  0  0  0
  9 10  1  0  0  0  0
  9 11  1  0  0  0  0
  9 26  1  0  0  0  0
 11 12  1  0  0  0  0
 11 13  1  0  0  0  0
 11 14  1  0  0  0  0
 14 15  1  0  0  0  0
 14 16  1  0  0  0  0
 14 17  1  0  0  0  0
 17 18  1  0  0  0  0
 17 19  1  0  0  0  0
 17 20  1  0  0  0  0
 20 21  1  0  0  0  0
 20 22  1  0  0  0  0
 20 23  1  0  0  0  0
 23 24  1  0  0  0  0
 23 25  1  0  0  0  0
 26 27  2  0  0  0  0
 26 28  1  0  0  0  0
 28 29  1  0  0  0  0
 28 30  1  0  0  0  0
 30 31  1  0  0  0  0
 30 32  1  0  0  0  0
 30 33  1  0  0  0  0
M  END
$$$$

  -OEChem-03222214063D

 33 32  0     1  0  0  0  0  0999 V2000
   -3.6708   -4.0504    1.6944 H   0  0  0  0  0  0  0  0  0  0  0  0
   -3.7040   -3.0547    1.2434 C   0  0  0  0  0  0  0  0  0  0  0  0
   -4.3884   -2.4289    1.8211 H   0  0  0  0  0  0  0  0  0  0  0  0
   -4.0772   -3.1434    0.2202 H   0  0  0  0  0  0  0  0  0  0  0  0
   -2.3184   -2.4377    1.2350 C   0  0  0  0  0  0  0  0  0  0  0  0
   -1.3672   -3.0666    1.6723 O   0  0  0  0  0  0  0  0  0  0  0  0
   -2.1409   -1.1659    0.7324 N   0  0  0  0  0  0  0  0  0  0  0  0
   -2.9731   -0.6493    0.4538 H   0  0  0  0  0  0  0  0  0  0  0  0
   -0.8656   -0.4351    0.7249 C   0  0  1  0  0  0  0  0  0  0  0  0
   -0.1799   -0.9011    1.4399 H   0  0  0  0  0  0  0  0  0  0  0  0
   -0.2150   -0.5225   -0.6687 C   0  0  0  0  0  0  0  0  0  0  0  0
    0.7548   -0.0153   -0.6525 H   0  0  0  0  0  0  0  0  0  0  0  0
   -0.0188   -1.5809   -0.8717 H   0  0  0  0  0  0  0  0  0  0  0  0
   -1.0722    0.0705   -1.8073 C   0  0  0  0  0  0  0  0  0  0  0  0
   -2.1049    0.2212   -1.4778 H   0  0  0  0  0  0  0  0  0  0  0  0
   -0.6737    1.0524   -2.0830 H   0  0  0  0  0  0  0  0  0  0  0  0
   -1.0889   -0.8552   -3.0293 C   0  0  0  0  0  0  0  0  0  0  0  0
   -0.0643   -1.0253   -3.3756 H   0  0  0  0  0  0  0  0  0  0  0  0
   -1.5184   -1.8234   -2.7509 H   0  0  0  0  0  0  0  0  0  0  0  0
   -1.9136   -0.2454   -4.1591 C   0  0  0  0  0  0  0  0  0  0  0  0
   -2.9403   -0.0670   -3.8204 H   0  0  0  0  0  0  0  0  0  0  0  0
   -1.4837    0.7164   -4.4606 H   0  0  0  0  0  0  0  0  0  0  0  0
   -1.9171   -1.1760   -5.2922 N   0  0  0  0  0  0  0  0  0  0  0  0
   -2.4560   -0.8036   -6.0742 H   0  0  0  0  0  0  0  0  0  0  0  0
   -0.9661   -1.4045   -5.5817 H   0  0  0  0  0  0  0  0  0  0  0  0
   -1.0494    1.0258    1.1856 C   0  0  0  0  0  0  0  0  0  0  0  0
   -2.0266    1.6710    0.8217 O   0  0  0  0  0  0  0  0  0  0  0  0
   -0.1655    1.5886    2.0880 N   0  0  0  0  0  0  0  0  0  0  0  0
    0.5871    1.0017    2.4367 H   0  0  0  0  0  0  0  0  0  0  0  0
   -0.3314    2.9259    2.6440 C   0  0  0  0  0  0  0  0  0  0  0  0
   -1.2763    2.9989    3.1927 H   0  0  0  0  0  0  0  0  0  0  0  0
    0.4872    3.1531    3.3337 H   0  0  0  0  0  0  0  0  0  0  0  0
   -0.3288    3.6756    1.8458 H   0  0  0  0  0  0  0  0  0  0  0  0
  1  2  1  0  0  0  0
  2  3  1  0  0  0  0
  2  4  1  0  0  0  0
  2  5  1  0  0  0  0
  5  6  2  0  0  0  0
  5  7  1  0  0  0  0
  7  8  1  0  0  0  0
  7  9  1  0  0  0  0
  9 10  1  0  0  0  0
  9 11  1  0  0  0  0
  9 26  1  0  0  0  0
 11 12  1  0  0  0  0
 11 13  1  0  0  0  0
 11 14  1  0  0  0  0
 14 15  1  0  0  0  0
 14 16  1  0  0  0  0
 14 17  1  0  0  0  0
 17 18  1  0  0  0  0
 17 19  1  0  0  0  0
 17 20  1  0  0  0  0
 20 21  1  0  0  0  0
 20 22  1  0  0  0  0
 20 23  1  0  0  0  0
 23 24  1  0  0  0  0
 23 25  1  0  0  0  0
 26 27  2  0  0  0  0
 26 28  1  0  0  0  0
 28 29  1  0  0  0  0
 28 30  1  0  0  0  0
 30 31  1  0  0  0  0
 30 32  1  0  0  0  0
 30 33  1  0  0  0  0
M  END
$$$$

  -OEChem-03222214063D

 33 32  0     1  0  0  0  0  0999 V2000
   -3.6776   -4.0410    1.6193 H   0  0  0  0  0  0  0  0  0  0  0  0
   -3.7071   -3.0399    1.1800 C   0  0  0  0  0  0  0  0  0  0  0  0
   -4.4050   -2.4239    1.7524 H   0  0  0  0  0  0  0  0  0  0  0  0
   -4.0605   -3.1181    0.1487 H   0  0  0  0  0  0  0  0  0  0  0  0
   -2.3244   -2.4167    1.2057 C   0  0  0  0  0  0  0  0  0  0  0  0
   -1.3782   -3.0461    1.6529 O   0  0  0  0  0  0  0  0  0  0  0  0
   -2.1439   -1.1395    0.7187 N   0  0  0  0  0  0  0  0  0  0  0  0
   -2.9721   -0.6290    0.4188 H   0  0  0  0  0  0  0  0  0  0  0  0
   -0.8700   -0.4068    0.7244 C   0  0  1  0  0  0  0  0  0  0  0  0
   -0.1923   -0.8789    1.4428 H   0  0  0  0  0  0  0  0  0  0  0  0
   -0.2110   -0.5095   -0.6641 C   0  0  0  0  0  0  0  0  0  0  0  0
    0.7482    0.0173   -0.6383 H   0  0  0  0  0  0  0  0  0  0  0  0
    0.0114   -1.5642   -0.8597 H   0  0  0  0  0  0  0  0  0  0  0  0
   -1.0610    0.0711   -1.8150 C   0  0  0  0  0  0  0  0  0  0  0  0
   -1.9998    0.4872   -1.4379 H   0  0  0  0  0  0  0  0  0  0  0  0
   -0.5097    0.8903   -2.2879 H   0  0  0  0  0  0  0  0  0  0  0  0
   -1.3805   -1.0020   -2.8627 C   0  0  0  0  0  0  0  0  0  0  0  0
   -0.4492   -1.4021   -3.2768 H   0  0  0  0  0  0  0  0  0  0  0  0
   -1.9230   -1.8267   -2.3883 H   0  0  0  0  0  0  0  0  0  0  0  0
   -2.2316   -0.4238   -3.9889 C   0  0  0  0  0  0  0  0  0  0  0  0
   -3.1623   -0.0116   -3.5831 H   0  0  0  0  0  0  0  0  0  0  0  0
   -1.6907    0.3865   -4.4901 H   0  0  0  0  0  0  0  0  0  0  0  0
   -2.5346   -1.4960   -4.9415 N   0  0  0  0  0  0  0  0  0  0  0  0
   -3.0969   -1.1511   -5.7194 H   0  0  0  0  0  0  0  0  0  0  0  0
   -1.6796   -1.9383   -5.2786 H   0  0  0  0  0  0  0  0  0  0  0  0
   -1.0429    1.0521    1.1987 C   0  0  0  0  0  0  0  0  0  0  0  0
   -2.0218    1.7060    0.8563 O   0  0  0  0  0  0  0  0  0  0  0  0
   -0.1541    1.5974    2.1073 N   0  0  0  0  0  0  0  0  0  0  0  0
    0.5981    1.0024    2.4426 H   0  0  0  0  0  0  0  0  0  0  0  0
   -0.3122    2.9260    2.6865 C   0  0  0  0  0  0  0  0  0  0  0  0
   -1.2563    2.9950    3.2371 H   0  0  0  0  0  0  0  0  0  0  0  0
    0.5081    3.1359    3.3796 H   0  0  0  0  0  0  0  0  0  0  0  0
   -0.3047    3.6897    1.9019 H   0  0  0  0  0  0  0  0  0  0  0  0
  1  2  1  0  0  0  0
  2  3  1  0  0  0  0
  2  4  1  0  0  0  0
  2  5  1  0  0  0  0
  5  6  2  0  0  0  0
  5  7  1  0  0  0  0
  7  8  1  0  0  0  0
  7  9  1  0  0  0  0
  9 10  1  0  0  0  0
  9 11  1  0  0  0  0
  9 26  1  0  0  0  0
 11 12  1  0  0  0  0
 11 13  1  0  0  0  0
 11 14  1  0  0  0  0
 14 15  1  0  0  0  0
 14 16  1  0  0  0  0
 14 17  1  0  0  0  0
 17 18  1  0  0  0  0
 17 19  1  0  0  0  0
 17 20  1  0  0  0  0
 20 21  1  0  0  0  0
 20 22  1  0  0  0  0
 20 23  1  0  0  0  0
 23 24  1  0  0  0  0
 23 25  1  0  0  0  0
 26 27  2  0  0  0  0
 26 28  1  0  0  0  0
 28 29  1  0  0  0  0
 28 30  1  0  0  0  0
 30 31  1  0  0  0  0
 30 32  1  0  0  0  0
 30 33  1  0  0  0  0
M  END
$$$$

  -OEChem-03222214063D

 33 32  0     1  0  0  0  0  0999 V2000
   -3.6891   -4.0313    1.5909 H   0  0  0  0  0  0  0  0  0  0  0  0
   -3.7152   -3.0266    1.1599 C   0  0  0  0  0  0  0  0  0  0  0  0
   -4.4175   -2.4153    1.7315 H   0  0  0  0  0  0  0  0  0  0  0  0
   -4.0608   -3.0957    0.1254 H   0  0  0  0  0  0  0  0  0  0  0  0
   -2.3334   -2.4026    1.2014 C   0  0  0  0  0  0  0  0  0  0  0  0
   -1.3905   -3.0328    1.6547 O   0  0  0  0  0  0  0  0  0  0  0  0
   -2.1501   -1.1239    0.7196 N   0  0  0  0  0  0  0  0  0  0  0  0
   -2.9750   -0.6171    0.4043 H   0  0  0  0  0  0  0  0  0  0  0  0
   -0.8759   -0.3930    0.7235 C   0  0  1  0  0  0  0  0  0  0  0  0
   -0.2022   -0.8660    1.4451 H   0  0  0  0  0  0  0  0  0  0  0  0
   -0.2085   -0.5090   -0.6613 C   0  0  0  0  0  0  0  0  0  0  0  0
    0.7406    0.0352   -0.6245 H   0  0  0  0  0  0  0  0  0  0  0  0
    0.0357   -1.5594   -0.8527 H   0  0  0  0  0  0  0  0  0  0  0  0
   -1.0458    0.0586   -1.8270 C   0  0  0  0  0  0  0  0  0  0  0  0
   -1.8325    0.7239   -1.4611 H   0  0  0  0  0  0  0  0  0  0  0  0
   -0.3923    0.6543   -2.4728 H   0  0  0  0  0  0  0  0  0  0  0  0
   -1.6693   -1.0668   -2.6633 C   0  0  0  0  0  0  0  0  0  0  0  0
   -0.8776   -1.6873   -3.0953 H   0  0  0  0  0  0  0  0  0  0  0  0
   -2.2860   -1.7048   -2.0225 H   0  0  0  0  0  0  0  0  0  0  0  0
   -2.5361   -0.4959   -3.7808 C   0  0  0  0  0  0  0  0  0  0  0  0
   -3.3250    0.1367   -3.3588 H   0  0  0  0  0  0  0  0  0  0  0  0
   -1.9269    0.1215   -4.4503 H   0  0  0  0  0  0  0  0  0  0  0  0
   -3.1338   -1.6111   -4.5214 N   0  0  0  0  0  0  0  0  0  0  0  0
   -3.7190   -1.2746   -5.2862 H   0  0  0  0  0  0  0  0  0  0  0  0
   -2.4154   -2.2479   -4.8664 H   0  0  0  0  0  0  0  0  0  0  0  0
   -1.0429    1.0650    1.2040 C   0  0  0  0  0  0  0  0  0  0  0  0
   -2.0272    1.7199    0.8798 O   0  0  0  0  0  0  0  0  0  0  0  0
   -0.1478    1.6032    2.1110 N   0  0  0  0  0  0  0  0  0  0  0  0
    0.6087    1.0069    2.4343 H   0  0  0  0  0  0  0  0  0  0  0  0
   -0.3059    2.9248    2.7059 C   0  0  0  0  0  0  0  0  0  0  0  0
   -1.2455    2.9838    3.2653 H   0  0  0  0  0  0  0  0  0  0  0  0
    0.5193    3.1304    3.3942 H   0  0  0  0  0  0  0  0  0  0  0  0
   -0.3079    3.6968    1.9292 H   0  0  0  0  0  0  0  0  0  0  0  0
  1  2  1  0  0  0  0
  2  3  1  0  0  0  0
  2  4  1  0  0  0  0
  2  5  1  0  0  0  0
  5  6  2  0  0  0  0
  5  7  1  0  0  0  0
  7  8  1  0  0  0  0
  7  9  1  0  0  0  0
  9 10  1  0  0  0  0
  9 11  1  0  0  0  0
  9 26  1  0  0  0  0
 11 12  1  0  0  0  0
 11 13  1  0  0  0  0
 11 14  1  0  0  0  0
 14 15  1  0  0  0  0
 14 16  1  0  0  0  0
 14 17  1  0  0  0  0
 17 18  1  0  0  0  0
 17 19  1  0  0  0  0
 17 20  1  0  0  0  0
 20 21  1  0  0  0  0
 20 22  1  0  0  0  0
 20 23  1  0  0  0  0
 23 24  1  0  0  0  0
 23 25  1  0  0  0  0
 26 27  2  0  0  0  0
 26 28  1  0  0  0  0
 28 29  1  0  0  0  0
 28 30  1  0  0  0  0
 30 31  1  0  0  0  0
 30 32  1  0  0  0  0
 30 33  1  0  0  0  0
M  END
$$$$

  -OEChem-03222214063D

 33 32  0     1  0  0  0  0  0999 V2000
   -3.6682   -4.0482    1.7324 H   0  0  0  0  0  0  0  0  0  0  0  0
   -3.7078   -3.0498    1.2880 C   0  0  0  0  0  0  0  0  0  0  0  0
   -4.3900   -2.4298    1.8746 H   0  0  0  0  0  0  0  0  0  0  0  0
   -4.0890   -3.1332    0.2671 H   0  0  0  0  0  0  0  0  0  0  0  0
   -2.3244   -2.4273    1.2736 C   0  0  0  0  0  0  0  0  0  0  0  0
   -1.3658   -3.0561    1.6950 O   0  0  0  0  0  0  0  0  0  0  0  0
   -2.1574   -1.1515    0.7785 N   0  0  0  0  0  0  0  0  0  0  0  0
   -2.9926   -0.6468    0.4868 H   0  0  0  0  0  0  0  0  0  0  0  0
   -0.8870   -0.4175    0.7385 C   0  0  1  0  0  0  0  0  0  0  0  0
   -0.1940   -0.8820    1.4474 H   0  0  0  0  0  0  0  0  0  0  0  0
   -0.2353   -0.5173   -0.6584 C   0  0  0  0  0  0  0  0  0  0  0  0
    0.7092    0.0351   -0.6223 H   0  0  0  0  0  0  0  0  0  0  0  0
    0.0155   -1.5639   -0.8602 H   0  0  0  0  0  0  0  0  0  0  0  0
   -1.0685    0.0434   -1.8308 C   0  0  0  0  0  0  0  0  0  0  0  0
   -1.6623    0.9031   -1.5086 H   0  0  0  0  0  0  0  0  0  0  0  0
   -0.3764    0.3997   -2.6007 H   0  0  0  0  0  0  0  0  0  0  0  0
   -1.9825   -1.0164   -2.4653 C   0  0  0  0  0  0  0  0  0  0  0  0
   -1.3770   -1.8534   -2.8272 H   0  0  0  0  0  0  0  0  0  0  0  0
   -2.6857   -1.4059   -1.7256 H   0  0  0  0  0  0  0  0  0  0  0  0
   -2.7749   -0.4227   -3.6256 C   0  0  0  0  0  0  0  0  0  0  0  0
   -3.3823    0.4186   -3.2732 H   0  0  0  0  0  0  0  0  0  0  0  0
   -2.0917   -0.0500   -4.3969 H   0  0  0  0  0  0  0  0  0  0  0  0
   -3.6417   -1.4680   -4.1787 N   0  0  0  0  0  0  0  0  0  0  0  0
   -4.1975   -1.1124   -4.9566 H   0  0  0  0  0  0  0  0  0  0  0  0
   -3.0970   -2.2822   -4.4632 H   0  0  0  0  0  0  0  0  0  0  0  0
   -1.0604    1.0401    1.2167 C   0  0  0  0  0  0  0  0  0  0  0  0
   -2.0607    1.6799    0.9113 O   0  0  0  0  0  0  0  0  0  0  0  0
   -0.1496    1.5970    2.0961 N   0  0  0  0  0  0  0  0  0  0  0  0
    0.6221    1.0130    2.4056 H   0  0  0  0  0  0  0  0  0  0  0  0
   -0.3080    2.9230    2.6811 C   0  0  0  0  0  0  0  0  0  0  0  0
   -1.2250    2.9720    3.2777 H   0  0  0  0  0  0  0  0  0  0  0  0
    0.5407    3.1526    3.3323 H   0  0  0  0  0  0  0  0  0  0  0  0
   -0.3566    3.6852    1.8963 H   0  0  0  0  0  0  0  0  0  0  0  0
  1  2  1  0  0  0  0
  2  3  1  0  0  0  0
  2  4  1  0  0  0  0
  2  5  1  0  0  0  0
  5  6  2  0  0  0  0
  5  7  1  0  0  0  0
  7  8  1  0  0  0  0
  7  9  1  0  0  0  0
  9 10  1  0  0  0  0
  9 11  1  0  0  0  0
  9 26  1  0  0  0  0
 11 12  1  0  0  0  0
 11 13  1  0  0  0  0
 11 14  1  0  0  0  0
 14 15  1  0  0  0  0
 14 16  1  0  0  0  0
 14 17  1  0  0  0  0
 17 18  1  0  0  0  0
 17 19  1  0  0  0  0
 17 20  1  0  0  0  0
 20 21  1  0  0  0  0
 20 22  1  0  0  0  0
 20 23  1  0  0  0  0
 23 24  1  0  0  0  0
 23 25  1  0  0  0  0
 26 27  2  0  0  0  0
 26 28  1  0  0  0  0
 28 29  1  0  0  0  0
 28 30  1  0  0  0  0
 30 31  1  0  0  0  0
 30 32  1  0  0  0  0
 30 33  1  0  0  0  0
M  END
$$$$

  -OEChem-03222214063D

 33 32  0     1  0  0  0  0  0999 V2000
   -3.5939   -4.0915    1.8630 H   0  0  0  0  0  0  0  0  0  0  0  0
   -3.6645   -3.0910    1.4271 C   0  0  0  0  0  0  0  0  0  0  0  0
   -4.3158   -2.4780    2.0548 H   0  0  0  0  0  0  0  0  0  0  0  0
   -4.1013   -3.1703    0.4285 H   0  0  0  0  0  0  0  0  0  0  0  0
   -2.2877   -2.4606    1.3393 C   0  0  0  0  0  0  0  0  0  0  0  0
   -1.3041   -3.0877    1.7017 O   0  0  0  0  0  0  0  0  0  0  0  0
   -2.1545   -1.1796    0.8478 N   0  0  0  0  0  0  0  0  0  0  0  0
   -3.0066   -0.6766    0.6056 H   0  0  0  0  0  0  0  0  0  0  0  0
   -0.8934   -0.4355    0.7570 C   0  0  1  0  0  0  0  0  0  0  0  0
   -0.1644   -0.9005    1.4284 H   0  0  0  0  0  0  0  0  0  0  0  0
   -0.2948   -0.4883   -0.6672 C   0  0  0  0  0  0  0  0  0  0  0  0
    0.6517    0.0614   -0.6489 H   0  0  0  0  0  0  0  0  0  0  0  0
   -0.0539   -1.5304   -0.9018 H   0  0  0  0  0  0  0  0  0  0  0  0
   -1.1524    0.0887   -1.8156 C   0  0  0  0  0  0  0  0  0  0  0  0
   -1.5286    1.0802   -1.5455 H   0  0  0  0  0  0  0  0  0  0  0  0
   -0.4949    0.2186   -2.6812 H   0  0  0  0  0  0  0  0  0  0  0  0
   -2.3258   -0.8102   -2.2377 C   0  0  0  0  0  0  0  0  0  0  0  0
   -1.9684   -1.8334   -2.3914 H   0  0  0  0  0  0  0  0  0  0  0  0
   -3.0917   -0.8281   -1.4596 H   0  0  0  0  0  0  0  0  0  0  0  0
   -2.9684   -0.2984   -3.5229 C   0  0  0  0  0  0  0  0  0  0  0  0
   -3.3492    0.7179   -3.3711 H   0  0  0  0  0  0  0  0  0  0  0  0
   -2.2285   -0.2682   -4.3304 H   0  0  0  0  0  0  0  0  0  0  0  0
   -4.0690   -1.1991   -3.8807 N   0  0  0  0  0  0  0  0  0  0  0  0
   -4.5477   -0.8795   -4.7229 H   0  0  0  0  0  0  0  0  0  0  0  0
   -3.7354   -2.1563   -3.9934 H   0  0  0  0  0  0  0  0  0  0  0  0
   -1.0680    1.0133    1.2570 C   0  0  0  0  0  0  0  0  0  0  0  0
   -2.0814    1.6467    0.9833 O   0  0  0  0  0  0  0  0  0  0  0  0
   -0.1289    1.5749    2.1028 N   0  0  0  0  0  0  0  0  0  0  0  0
    0.6567    0.9950    2.3836 H   0  0  0  0  0  0  0  0  0  0  0  0
   -0.2763    2.8974    2.6978 C   0  0  0  0  0  0  0  0  0  0  0  0
   -1.1763    2.9397    3.3204 H   0  0  0  0  0  0  0  0  0  0  0  0
    0.5897    3.1283    3.3256 H   0  0  0  0  0  0  0  0  0  0  0  0
   -0.3507    3.6622    1.9176 H   0  0  0  0  0  0  0  0  0  0  0  0
  1  2  1  0  0  0  0
  2  3  1  0  0  0  0
  2  4  1  0  0  0  0
  2  5  1  0  0  0  0
  5  6  2  0  0  0  0
  5  7  1  0  0  0  0
  7  8  1  0  0  0  0
  7  9  1  0  0  0  0
  9 10  1  0  0  0  0
  9 11  1  0  0  0  0
  9 26  1  0  0  0  0
 11 12  1  0  0  0  0
 11 13  1  0  0  0  0
 11 14  1  0  0  0  0
 14 15  1  0  0  0  0
 14 16  1  0  0  0  0
 14 17  1  0  0  0  0
 17 18  1  0  0  0  0
 17 19  1  0  0  0  0
 17 20  1  0  0  0  0
 20 21  1  0  0  0  0
 20 22  1  0  0  0  0
 20 23  1  0  0  0  0
 23 24  1  0  0  0  0
 23 25  1  0  0  0  0
 26 27  2  0  0  0  0
 26 28  1  0  0  0  0
 28 29  1  0  0  0  0
 28 30  1  0  0  0  0
 30 31  1  0  0  0  0
 30 32  1  0  0  0  0
 30 33  1  0  0  0  0
M  END
$$$$

  -OEChem-03222214063D

 33 32  0     1  0  0  0  0  0999 V2000
   -3.5670   -4.1126    1.9183 H   0  0  0  0  0  0  0  0  0  0  0  0
   -3.6435   -3.1100    1.4884 C   0  0  0  0  0  0  0  0  0  0  0  0
   -4.2772   -2.4972    2.1340 H   0  0  0  0  0  0  0  0  0  0  0  0
   -4.1050   -3.1831    0.5007 H   0  0  0  0  0  0  0  0  0  0  0  0
   -2.2668   -2.4844    1.3699 C   0  0  0  0  0  0  0  0  0  0  0  0
   -1.2762   -3.1164    1.7033 O   0  0  0  0  0  0  0  0  0  0  0  0
   -2.1426   -1.2014    0.8826 N   0  0  0  0  0  0  0  0  0  0  0  0
   -2.9993   -0.6962    0.6619 H   0  0  0  0  0  0  0  0  0  0  0  0
   -0.8843   -0.4547    0.7707 C   0  0  1  0  0  0  0  0  0  0  0  0
   -0.1390   -0.9238    1.4208 H   0  0  0  0  0  0  0  0  0  0  0  0
   -0.3137   -0.4713   -0.6665 C   0  0  0  0  0  0  0  0  0  0  0  0
    0.6427    0.0611   -0.6578 H   0  0  0  0  0  0  0  0  0  0  0  0
   -0.0969   -1.5134   -0.9239 H   0  0  0  0  0  0  0  0  0  0  0  0
   -1.1770    0.1272   -1.8014 C   0  0  0  0  0  0  0  0  0  0  0  0
   -1.3333    1.1943   -1.6125 H   0  0  0  0  0  0  0  0  0  0  0  0
   -0.6001    0.0436   -2.7279 H   0  0  0  0  0  0  0  0  0  0  0  0
   -2.5432   -0.5424   -2.0149 C   0  0  0  0  0  0  0  0  0  0  0  0
   -2.4217   -1.6306   -2.0158 H   0  0  0  0  0  0  0  0  0  0  0  0
   -3.2267   -0.2683   -1.2070 H   0  0  0  0  0  0  0  0  0  0  0  0
   -3.1692   -0.1006   -3.3336 C   0  0  0  0  0  0  0  0  0  0  0  0
   -3.3454    0.9809   -3.3187 H   0  0  0  0  0  0  0  0  0  0  0  0
   -2.4949   -0.3249   -4.1674 H   0  0  0  0  0  0  0  0  0  0  0  0
   -4.4371   -0.8168   -3.5074 N   0  0  0  0  0  0  0  0  0  0  0  0
   -4.9121   -0.5230   -4.3610 H   0  0  0  0  0  0  0  0  0  0  0  0
   -4.2899   -1.8258   -3.5024 H   0  0  0  0  0  0  0  0  0  0  0  0
   -1.0609    0.9895    1.2831 C   0  0  0  0  0  0  0  0  0  0  0  0
   -2.0771    1.6214    1.0165 O   0  0  0  0  0  0  0  0  0  0  0  0
   -0.1129    1.5553    2.1161 N   0  0  0  0  0  0  0  0  0  0  0  0
    0.6803    0.9801    2.3850 H   0  0  0  0  0  0  0  0  0  0  0  0
   -0.2570    2.8796    2.7086 C   0  0  0  0  0  0  0  0  0  0  0  0
   -1.1561    2.9252    3.3323 H   0  0  0  0  0  0  0  0  0  0  0  0
    0.6102    3.1099    3.3347 H   0  0  0  0  0  0  0  0  0  0  0  0
   -0.3312    3.6425    1.9265 H   0  0  0  0  0  0  0  0  0  0  0  0
  1  2  1  0  0  0  0
  2  3  1  0  0  0  0
  2  4  1  0  0  0  0
  2  5  1  0  0  0  0
  5  6  2  0  0  0  0
  5  7  1  0  0  0  0
  7  8  1  0  0  0  0
  7  9  1  0  0  0  0
  9 10  1  0  0  0  0
  9 11  1  0  0  0  0
  9 26  1  0  0  0  0
 11 12  1  0  0  0  0
 11 13  1  0  0  0  0
 11 14  1  0  0  0  0
 14 15  1  0  0  0  0
 14 16  1  0  0  0  0
 14 17  1  0  0  0  0
 17 18  1  0  0  0  0
 17 19  1  0  0  0  0
 17 20  1  0  0  0  0
 20 21  1  0  0  0  0
 20 22  1  0  0  0  0
 20 23  1  0  0  0  0
 23 24  1  0  0  0  0
 23 25  1  0  0  0  0
 26 27  2  0  0  0  0
 26 28  1  0  0  0  0
 28 29  1  0  0  0  0
 28 30  1  0  0  0  0
 30 31  1  0  0  0  0
 30 32  1  0  0  0  0
 30 33  1  0  0  0  0
M  END
$$$$

  -OEChem-03222214063D

 33 32  0     1  0  0  0  0  0999 V2000
   -3.5297   -4.1372    1.9743 H   0  0  0  0  0  0  0  0  0  0  0  0
   -3.6206   -3.1365    1.5428 C   0  0  0  0  0  0  0  0  0  0  0  0
   -4.2520   -2.5278    2.1947 H   0  0  0  0  0  0  0  0  0  0  0  0
   -4.0939   -3.2170    0.5612 H   0  0  0  0  0  0  0  0  0  0  0  0
   -2.2508   -2.4991    1.4061 C   0  0  0  0  0  0  0  0  0  0  0  0
   -1.2512   -3.1231    1.7278 O   0  0  0  0  0  0  0  0  0  0  0  0
   -2.1429   -1.2150    0.9171 N   0  0  0  0  0  0  0  0  0  0  0  0
   -3.0061   -0.7172    0.7040 H   0  0  0  0  0  0  0  0  0  0  0  0
   -0.8912   -0.4582    0.7899 C   0  0  1  0  0  0  0  0  0  0  0  0
   -0.1382   -0.9233    1.4341 H   0  0  0  0  0  0  0  0  0  0  0  0
   -0.3253   -0.4690   -0.6493 C   0  0  0  0  0  0  0  0  0  0  0  0
    0.6373    0.0523   -0.6453 H   0  0  0  0  0  0  0  0  0  0  0  0
   -0.1199   -1.5154   -0.8982 H   0  0  0  0  0  0  0  0  0  0  0  0
   -1.1782    0.1159   -1.8019 C   0  0  0  0  0  0  0  0  0  0  0  0
   -1.1300    1.2084   -1.7400 H   0  0  0  0  0  0  0  0  0  0  0  0
   -0.7069   -0.1780   -2.7455 H   0  0  0  0  0  0  0  0  0  0  0  0
   -2.6608   -0.2843   -1.8408 C   0  0  0  0  0  0  0  0  0  0  0  0
   -2.7444   -1.3744   -1.7851 H   0  0  0  0  0  0  0  0  0  0  0  0
   -3.1947    0.1526   -0.9925 H   0  0  0  0  0  0  0  0  0  0  0  0
   -3.3236    0.2085   -3.1230 C   0  0  0  0  0  0  0  0  0  0  0  0
   -3.3214    1.3042   -3.1454 H   0  0  0  0  0  0  0  0  0  0  0  0
   -2.7711   -0.1512   -3.9981 H   0  0  0  0  0  0  0  0  0  0  0  0
   -4.7007   -0.2946   -3.1599 N   0  0  0  0  0  0  0  0  0  0  0  0
   -5.1982    0.0534   -3.9797 H   0  0  0  0  0  0  0  0  0  0  0  0
   -4.7182   -1.3135   -3.1295 H   0  0  0  0  0  0  0  0  0  0  0  0
   -1.0605    0.9874    1.3015 C   0  0  0  0  0  0  0  0  0  0  0  0
   -2.0784    1.6218    1.0501 O   0  0  0  0  0  0  0  0  0  0  0  0
   -0.0989    1.5530    2.1193 N   0  0  0  0  0  0  0  0  0  0  0  0
    0.6979    0.9773    2.3755 H   0  0  0  0  0  0  0  0  0  0  0  0
   -0.2339    2.8757    2.7169 C   0  0  0  0  0  0  0  0  0  0  0  0
   -1.1206    2.9180    3.3580 H   0  0  0  0  0  0  0  0  0  0  0  0
    0.6449    3.1060    3.3267 H   0  0  0  0  0  0  0  0  0  0  0  0
   -0.3250    3.6403    1.9383 H   0  0  0  0  0  0  0  0  0  0  0  0
  1  2  1  0  0  0  0
  2  3  1  0  0  0  0
  2  4  1  0  0  0  0
  2  5  1  0  0  0  0
  5  6  2  0  0  0  0
  5  7  1  0  0  0  0
  7  8  1  0  0  0  0
  7  9  1  0  0  0  0
  9 10  1  0  0  0  0
  9 11  1  0  0  0  0
  9 26  1  0  0  0  0
 11 12  1  0  0  0  0
 11 13  1  0  0  0  0
 11 14  1  0  0  0  0
 14 15  1  0  0  0  0
 14 16  1  0  0  0  0
 14 17  1  0  0  0  0
 17 18  1  0  0  0  0
 17 19  1  0  0  0  0
 17 20  1  0  0  0  0
 20 21  1  0  0  0  0
 20 22  1  0  0  0  0
 20 23  1  0  0  0  0
 23 24  1  0  0  0  0
 23 25  1  0  0  0  0
 26 27  2  0  0  0  0
 26 28  1  0  0  0  0
 28 29  1  0  0  0  0
 28 30  1  0  0  0  0
 30 31  1  0  0  0  0
 30 32  1  0  0  0  0
 30 33  1  0  0  0  0
M  END
$$$$

  -OEChem-03222214063D

 33 32  0     1  0  0  0  0  0999 V2000
   -3.4739   -4.1536    1.9944 H   0  0  0  0  0  0  0  0  0  0  0  0
   -3.5882   -3.1527    1.5689 C   0  0  0  0  0  0  0  0  0  0  0  0
   -4.2172   -2.5567    2.2345 H   0  0  0  0  0  0  0  0  0  0  0  0
   -4.0768   -3.2363    0.5952 H   0  0  0  0  0  0  0  0  0  0  0  0
   -2.2317   -2.4930    1.4101 C   0  0  0  0  0  0  0  0  0  0  0  0
   -1.2151   -3.1131    1.6818 O   0  0  0  0  0  0  0  0  0  0  0  0
   -2.1562   -1.1959    0.9496 N   0  0  0  0  0  0  0  0  0  0  0  0
   -3.0323   -0.7029    0.7829 H   0  0  0  0  0  0  0  0  0  0  0  0
   -0.9196   -0.4169    0.8065 C   0  0  1  0  0  0  0  0  0  0  0  0
   -0.1598   -0.8859    1.4402 H   0  0  0  0  0  0  0  0  0  0  0  0
   -0.3545   -0.4385   -0.6331 C   0  0  0  0  0  0  0  0  0  0  0  0
    0.6047    0.0892   -0.6373 H   0  0  0  0  0  0  0  0  0  0  0  0
   -0.1380   -1.4884   -0.8576 H   0  0  0  0  0  0  0  0  0  0  0  0
   -1.2010    0.1028   -1.8139 C   0  0  0  0  0  0  0  0  0  0  0  0
   -0.9665    1.1674   -1.9204 H   0  0  0  0  0  0  0  0  0  0  0  0
   -0.8648   -0.3958   -2.7288 H   0  0  0  0  0  0  0  0  0  0  0  0
   -2.7307   -0.0126   -1.7136 C   0  0  0  0  0  0  0  0  0  0  0  0
   -3.0046   -1.0652   -1.5935 H   0  0  0  0  0  0  0  0  0  0  0  0
   -3.1086    0.5442   -0.8538 H   0  0  0  0  0  0  0  0  0  0  0  0
   -3.3974    0.5373   -2.9711 C   0  0  0  0  0  0  0  0  0  0  0  0
   -3.2128    1.6147   -3.0493 H   0  0  0  0  0  0  0  0  0  0  0  0
   -2.9808    0.0553   -3.8622 H   0  0  0  0  0  0  0  0  0  0  0  0
   -4.8386    0.2774   -2.8909 N   0  0  0  0  0  0  0  0  0  0  0  0
   -5.3320    0.6869   -3.6841 H   0  0  0  0  0  0  0  0  0  0  0  0
   -5.0272   -0.7219   -2.8213 H   0  0  0  0  0  0  0  0  0  0  0  0
   -1.0597    1.0218    1.3483 C   0  0  0  0  0  0  0  0  0  0  0  0
   -2.0904    1.6616    1.1829 O   0  0  0  0  0  0  0  0  0  0  0  0
   -0.0614    1.5601    2.1401 N   0  0  0  0  0  0  0  0  0  0  0  0
    0.7447    0.9755    2.3413 H   0  0  0  0  0  0  0  0  0  0  0  0
   -0.1654    2.8633    2.7851 C   0  0  0  0  0  0  0  0  0  0  0  0
   -1.0256    2.8882    3.4624 H   0  0  0  0  0  0  0  0  0  0  0  0
    0.7382    3.0708    3.3661 H   0  0  0  0  0  0  0  0  0  0  0  0
   -0.2834    3.6530    2.0356 H   0  0  0  0  0  0  0  0  0  0  0  0
  1  2  1  0  0  0  0
  2  3  1  0  0  0  0
  2  4  1  0  0  0  0
  2  5  1  0  0  0  0
  5  6  2  0  0  0  0
  5  7  1  0  0  0  0
  7  8  1  0  0  0  0
  7  9  1  0  0  0  0
  9 10  1  0  0  0  0
  9 11  1  0  0  0  0
  9 26  1  0  0  0  0
 11 12  1  0  0  0  0
 11 13  1  0  0  0  0
 11 14  1  0  0  0  0
 14 15  1  0  0  0  0
 14 16  1  0  0  0  0
 14 17  1  0  0  0  0
 17 18  1  0  0  0  0
 17 19  1  0  0  0  0
 17 20  1  0  0  0  0
 20 21  1  0  0  0  0
 20 22  1  0  0  0  0
 20 23  1  0  0  0  0
 23 24  1  0  0  0  0
 23 25  1  0  0  0  0
 26 27  2  0  0  0  0
 26 28  1  0  0  0  0
 28 29  1  0  0  0  0
 28 30  1  0  0  0  0
 30 31  1  0  0  0  0
 30 32  1  0  0  0  0
 30 33  1  0  0  0  0
M  END
$$$$

  -OEChem-03222214063D

 33 32  0     1  0  0  0  0  0999 V2000
   -3.4237   -4.1394    1.9943 H   0  0  0  0  0  0  0  0  0  0  0  0
   -3.5604   -3.1234    1.6135 C   0  0  0  0  0  0  0  0  0  0  0  0
   -4.1295   -2.5466    2.3467 H   0  0  0  0  0  0  0  0  0  0  0  0
   -4.1246   -3.1686    0.6788 H   0  0  0  0  0  0  0  0  0  0  0  0
   -2.2137   -2.4684    1.3727 C   0  0  0  0  0  0  0  0  0  0  0  0
   -1.1851   -3.1047    1.5422 O   0  0  0  0  0  0  0  0  0  0  0  0
   -2.1617   -1.1540    0.9612 N   0  0  0  0  0  0  0  0  0  0  0  0
   -3.0425   -0.6451    0.9030 H   0  0  0  0  0  0  0  0  0  0  0  0
   -0.9357   -0.3626    0.8016 C   0  0  1  0  0  0  0  0  0  0  0  0
   -0.1680   -0.8461    1.4147 H   0  0  0  0  0  0  0  0  0  0  0  0
   -0.3802   -0.3914   -0.6414 C   0  0  0  0  0  0  0  0  0  0  0  0
    0.5730    0.1472   -0.6493 H   0  0  0  0  0  0  0  0  0  0  0  0
   -0.1464   -1.4407   -0.8518 H   0  0  0  0  0  0  0  0  0  0  0  0
   -1.2225    0.1212   -1.8399 C   0  0  0  0  0  0  0  0  0  0  0  0
   -0.8038    1.0882   -2.1383 H   0  0  0  0  0  0  0  0  0  0  0  0
   -1.0688   -0.5669   -2.6777 H   0  0  0  0  0  0  0  0  0  0  0  0
   -2.7330    0.3281   -1.6443 C   0  0  0  0  0  0  0  0  0  0  0  0
   -3.1984   -0.6222   -1.3683 H   0  0  0  0  0  0  0  0  0  0  0  0
   -2.9284    1.0545   -0.8548 H   0  0  0  0  0  0  0  0  0  0  0  0
   -3.3745    0.8326   -2.9345 C   0  0  0  0  0  0  0  0  0  0  0  0
   -2.9759    1.8217   -3.1866 H   0  0  0  0  0  0  0  0  0  0  0  0
   -3.1440    0.1515   -3.7610 H   0  0  0  0  0  0  0  0  0  0  0  0
   -4.8263    0.9102   -2.7440 N   0  0  0  0  0  0  0  0  0  0  0  0
   -5.2895    1.2767   -3.5754 H   0  0  0  0  0  0  0  0  0  0  0  0
   -5.2114    0.0037   -2.4815 H   0  0  0  0  0  0  0  0  0  0  0  0
   -1.0486    1.0562    1.4009 C   0  0  0  0  0  0  0  0  0  0  0  0
   -2.1140    1.6594    1.3966 O   0  0  0  0  0  0  0  0  0  0  0  0
   -0.0129    1.5598    2.1683 N   0  0  0  0  0  0  0  0  0  0  0  0
    0.8187    0.9852    2.2692 H   0  0  0  0  0  0  0  0  0  0  0  0
   -0.1097    2.7973    2.9336 C   0  0  0  0  0  0  0  0  0  0  0  0
   -0.9016    2.7213    3.6865 H   0  0  0  0  0  0  0  0  0  0  0  0
    0.8357    3.0008    3.4458 H   0  0  0  0  0  0  0  0  0  0  0  0
   -0.3319    3.6407    2.2712 H   0  0  0  0  0  0  0  0  0  0  0  0
  1  2  1  0  0  0  0
  2  3  1  0  0  0  0
  2  4  1  0  0  0  0
  2  5  1  0  0  0  0
  5  6  2  0  0  0  0
  5  7  1  0  0  0  0
  7  8  1  0  0  0  0
  7  9  1  0  0  0  0
  9 10  1  0  0  0  0
  9 11  1  0  0  0  0
  9 26  1  0  0  0  0
 11 12  1  0  0  0  0
 11 13  1  0  0  0  0
 11 14  1  0  0  0  0
 14 15  1  0  0  0  0
 14 16  1  0  0  0  0
 14 17  1  0  0  0  0
 17 18  1  0  0  0  0
 17 19  1  0  0  0  0
 17 20  1  0  0  0  0
 20 21  1  0  0  0  0
 20 22  1  0  0  0  0
 20 23  1  0  0  0  0
 23 24  1  0  0  0  0
 23 25  1  0  0  0  0
 26 27  2  0  0  0  0
 26 28  1  0  0  0  0
 28 29  1  0  0  0  0
 28 30  1  0  0  0  0
 30 31  1  0  0  0  0
 30 32  1  0  0  0  0
 30 33  1  0  0  0  0
M  END
$$$$

  -OEChem-03222214063D

 33 32  0     1  0  0  0  0  0999 V2000
   -3.1113   -4.3587    2.1449 H   0  0  0  0  0  0  0  0  0  0  0  0
   -3.3480   -3.3785    1.7216 C   0  0  0  0  0  0  0  0  0  0  0  0
   -3.9639   -2.8256    2.4349 H   0  0  0  0  0  0  0  0  0  0  0  0
   -3.9123   -3.5207    0.7967 H   0  0  0  0  0  0  0  0  0  0  0  0
   -2.0714   -2.6102    1.4364 C   0  0  0  0  0  0  0  0  0  0  0  0
   -0.9868   -3.1227    1.6672 O   0  0  0  0  0  0  0  0  0  0  0  0
   -2.1439   -1.3339    0.9196 N   0  0  0  0  0  0  0  0  0  0  0  0
   -3.0694   -0.9160    0.8305 H   0  0  0  0  0  0  0  0  0  0  0  0
   -0.9966   -0.4393    0.7157 C   0  0  1  0  0  0  0  0  0  0  0  0
   -0.1986   -0.7904    1.3779 H   0  0  0  0  0  0  0  0  0  0  0  0
   -0.4152   -0.5403   -0.7131 C   0  0  0  0  0  0  0  0  0  0  0  0
    0.4665    0.1080   -0.7415 H   0  0  0  0  0  0  0  0  0  0  0  0
   -0.0474   -1.5661   -0.8245 H   0  0  0  0  0  0  0  0  0  0  0  0
   -1.2490   -0.2232   -1.9872 C   0  0  0  0  0  0  0  0  0  0  0  0
   -0.6983    0.5176   -2.5760 H   0  0  0  0  0  0  0  0  0  0  0  0
   -1.2480   -1.1423   -2.5828 H   0  0  0  0  0  0  0  0  0  0  0  0
   -2.7246    0.2185   -1.8905 C   0  0  0  0  0  0  0  0  0  0  0  0
   -3.1905   -0.0914   -0.9568 H   0  0  0  0  0  0  0  0  0  0  0  0
   -3.2763   -0.2777   -2.6953 H   0  0  0  0  0  0  0  0  0  0  0  0
   -2.8894    1.7277   -2.0736 C   0  0  0  0  0  0  0  0  0  0  0  0
   -2.4147    2.2691   -1.2501 H   0  0  0  0  0  0  0  0  0  0  0  0
   -2.4102    2.0499   -3.0044 H   0  0  0  0  0  0  0  0  0  0  0  0
   -4.3229    2.0347   -2.1275 N   0  0  0  0  0  0  0  0  0  0  0  0
   -4.4846    3.0412   -2.1421 H   0  0  0  0  0  0  0  0  0  0  0  0
   -4.7686    1.5787   -2.9223 H   0  0  0  0  0  0  0  0  0  0  0  0
   -1.2720    0.9997    1.1985 C   0  0  0  0  0  0  0  0  0  0  0  0
   -2.4018    1.4671    1.1509 O   0  0  0  0  0  0  0  0  0  0  0  0
   -0.3167    1.6700    1.9419 N   0  0  0  0  0  0  0  0  0  0  0  0
    0.5708    1.2008    2.0967 H   0  0  0  0  0  0  0  0  0  0  0  0
   -0.5699    2.9363    2.6193 C   0  0  0  0  0  0  0  0  0  0  0  0
   -1.3446    2.8141    3.3835 H   0  0  0  0  0  0  0  0  0  0  0  0
    0.3430    3.2940    3.1051 H   0  0  0  0  0  0  0  0  0  0  0  0
   -0.8991    3.6957    1.9021 H   0  0  0  0  0  0  0  0  0  0  0  0
  1  2  1  0  0  0  0
  2  3  1  0  0  0  0
  2  4  1  0  0  0  0
  2  5  1  0  0  0  0
  5  6  2  0  0  0  0
  5  7  1  0  0  0  0
  7  8  1  0  0  0  0
  7  9  1  0  0  0  0
  9 10  1  0  0  0  0
  9 11  1  0  0  0  0
  9 26  1  0  0  0  0
 11 12  1  0  0  0  0
 11 13  1  0  0  0  0
 11 14  1  0  0  0  0
 14 15  1  0  0  0  0
 14 16  1  0  0  0  0
 14 17  1  0  0  0  0
 17 18  1  0  0  0  0
 17 19  1  0  0  0  0
 17 20  1  0  0  0  0
 20 21  1  0  0  0  0
 20 22  1  0  0  0  0
 20 23  1  0  0  0  0
 23 24  1  0  0  0  0
 23 25  1  0  0  0  0
 26 27  2  0  0  0  0
 26 28  1  0  0  0  0
 28 29  1  0  0  0  0
 28 30  1  0  0  0  0
 30 31  1  0  0  0  0
 30 32  1  0  0  0  0
 30 33  1  0  0  0  0
M  END
$$$$

  -OEChem-03222214063D

 33 32  0     1  0  0  0  0  0999 V2000
   -3.4736   -4.1119    1.8507 H   0  0  0  0  0  0  0  0  0  0  0  0
   -3.5925   -3.0824    1.5018 C   0  0  0  0  0  0  0  0  0  0  0  0
   -4.1383   -2.5145    2.2592 H   0  0  0  0  0  0  0  0  0  0  0  0
   -4.1696   -3.0883    0.5741 H   0  0  0  0  0  0  0  0  0  0  0  0
   -2.2344   -2.4511    1.2618 C   0  0  0  0  0  0  0  0  0  0  0  0
   -1.2191   -3.1161    1.3978 O   0  0  0  0  0  0  0  0  0  0  0  0
   -2.1567   -1.1253    0.8914 N   0  0  0  0  0  0  0  0  0  0  0  0
   -3.0224   -0.5883    0.8989 H   0  0  0  0  0  0  0  0  0  0  0  0
   -0.9114   -0.3526    0.7878 C   0  0  1  0  0  0  0  0  0  0  0  0
   -0.1656   -0.8614    1.4072 H   0  0  0  0  0  0  0  0  0  0  0  0
   -0.3397   -0.3841   -0.6488 C   0  0  0  0  0  0  0  0  0  0  0  0
    0.5992    0.1781   -0.6238 H   0  0  0  0  0  0  0  0  0  0  0  0
   -0.0754   -1.4225   -0.8765 H   0  0  0  0  0  0  0  0  0  0  0  0
   -1.1584    0.1598   -1.8477 C   0  0  0  0  0  0  0  0  0  0  0  0
   -0.4773    0.7077   -2.5074 H   0  0  0  0  0  0  0  0  0  0  0  0
   -1.5163   -0.7105   -2.4083 H   0  0  0  0  0  0  0  0  0  0  0  0
   -2.3797    1.0433   -1.5589 C   0  0  0  0  0  0  0  0  0  0  0  0
   -3.0734    0.5395   -0.8822 H   0  0  0  0  0  0  0  0  0  0  0  0
   -2.0495    1.9759   -1.0917 H   0  0  0  0  0  0  0  0  0  0  0  0
   -3.1168    1.3764   -2.8534 C   0  0  0  0  0  0  0  0  0  0  0  0
   -2.4302    1.8377   -3.5717 H   0  0  0  0  0  0  0  0  0  0  0  0
   -3.5138    0.4591   -3.3020 H   0  0  0  0  0  0  0  0  0  0  0  0
   -4.2097    2.3041   -2.5479 N   0  0  0  0  0  0  0  0  0  0  0  0
   -4.7869    2.4847   -3.3688 H   0  0  0  0  0  0  0  0  0  0  0  0
   -4.7736    1.9656   -1.7681 H   0  0  0  0  0  0  0  0  0  0  0  0
   -1.0353    1.0458    1.4333 C   0  0  0  0  0  0  0  0  0  0  0  0
   -2.1201    1.6153    1.4725 O   0  0  0  0  0  0  0  0  0  0  0  0
   -0.0224    1.5178    2.2492 N   0  0  0  0  0  0  0  0  0  0  0  0
    0.8282    0.9658    2.3104 H   0  0  0  0  0  0  0  0  0  0  0  0
   -0.1411    2.7224    3.0628 C   0  0  0  0  0  0  0  0  0  0  0  0
   -0.9395    2.6083    3.8037 H   0  0  0  0  0  0  0  0  0  0  0  0
    0.7968    2.9158    3.5924 H   0  0  0  0  0  0  0  0  0  0  0  0
   -0.3664    3.5892    2.4325 H   0  0  0  0  0  0  0  0  0  0  0  0
  1  2  1  0  0  0  0
  2  3  1  0  0  0  0
  2  4  1  0  0  0  0
  2  5  1  0  0  0  0
  5  6  2  0  0  0  0
  5  7  1  0  0  0  0
  7  8  1  0  0  0  0
  7  9  1  0  0  0  0
  9 10  1  0  0  0  0
  9 11  1  0  0  0  0
  9 26  1  0  0  0  0
 11 12  1  0  0  0  0
 11 13  1  0  0  0  0
 11 14  1  0  0  0  0
 14 15  1  0  0  0  0
 14 16  1  0  0  0  0
 14 17  1  0  0  0  0
 17 18  1  0  0  0  0
 17 19  1  0  0  0  0
 17 20  1  0  0  0  0
 20 21  1  0  0  0  0
 20 22  1  0  0  0  0
 20 23  1  0  0  0  0
 23 24  1  0  0  0  0
 23 25  1  0  0  0  0
 26 27  2  0  0  0  0
 26 28  1  0  0  0  0
 28 29  1  0  0  0  0
 28 30  1  0  0  0  0
 30 31  1  0  0  0  0
 30 32  1  0  0  0  0
 30 33  1  0  0  0  0
M  END
$$$$

  -OEChem-03222214063D

 33 32  0     1  0  0  0  0  0999 V2000
   -3.4695   -4.1331    1.7704 H   0  0  0  0  0  0  0  0  0  0  0  0
   -3.5921   -3.0959    1.4465 C   0  0  0  0  0  0  0  0  0  0  0  0
   -4.1445   -2.5500    2.2152 H   0  0  0  0  0  0  0  0  0  0  0  0
   -4.1651   -3.0822    0.5164 H   0  0  0  0  0  0  0  0  0  0  0  0
   -2.2363   -2.4519    1.2275 C   0  0  0  0  0  0  0  0  0  0  0  0
   -1.2175   -3.1100    1.3704 O   0  0  0  0  0  0  0  0  0  0  0  0
   -2.1650   -1.1229    0.8671 N   0  0  0  0  0  0  0  0  0  0  0  0
   -3.0353   -0.5936    0.8685 H   0  0  0  0  0  0  0  0  0  0  0  0
   -0.9257   -0.3387    0.7810 C   0  0  1  0  0  0  0  0  0  0  0  0
   -0.1874   -0.8443    1.4125 H   0  0  0  0  0  0  0  0  0  0  0  0
   -0.3299   -0.3880   -0.6449 C   0  0  0  0  0  0  0  0  0  0  0  0
    0.5980    0.1921   -0.6169 H   0  0  0  0  0  0  0  0  0  0  0  0
   -0.0480   -1.4244   -0.8594 H   0  0  0  0  0  0  0  0  0  0  0  0
   -1.1533    0.1326   -1.8467 C   0  0  0  0  0  0  0  0  0  0  0  0
   -0.4536    0.4480   -2.6278 H   0  0  0  0  0  0  0  0  0  0  0  0
   -1.7234   -0.7133   -2.2451 H   0  0  0  0  0  0  0  0  0  0  0  0
   -2.1487    1.2658   -1.5793 C   0  0  0  0  0  0  0  0  0  0  0  0
   -2.9130    0.9351   -0.8717 H   0  0  0  0  0  0  0  0  0  0  0  0
   -1.6199    2.1239   -1.1522 H   0  0  0  0  0  0  0  0  0  0  0  0
   -2.8390    1.6971   -2.8702 C   0  0  0  0  0  0  0  0  0  0  0  0
   -2.0957    1.9731   -3.6264 H   0  0  0  0  0  0  0  0  0  0  0  0
   -3.4376    0.8694   -3.2665 H   0  0  0  0  0  0  0  0  0  0  0  0
   -3.6964    2.8483   -2.5759 N   0  0  0  0  0  0  0  0  0  0  0  0
   -4.2713    3.1006   -3.3791 H   0  0  0  0  0  0  0  0  0  0  0  0
   -4.2715    2.6764   -1.7503 H   0  0  0  0  0  0  0  0  0  0  0  0
   -1.0551    1.0578    1.4319 C   0  0  0  0  0  0  0  0  0  0  0  0
   -2.1428    1.6222    1.4772 O   0  0  0  0  0  0  0  0  0  0  0  0
   -0.0472    1.5267    2.2559 N   0  0  0  0  0  0  0  0  0  0  0  0
    0.8085    0.9821    2.3097 H   0  0  0  0  0  0  0  0  0  0  0  0
   -0.1671    2.7317    3.0686 C   0  0  0  0  0  0  0  0  0  0  0  0
   -0.9548    2.6113    3.8197 H   0  0  0  0  0  0  0  0  0  0  0  0
    0.7761    2.9343    3.5848 H   0  0  0  0  0  0  0  0  0  0  0  0
   -0.4086    3.5957    2.4404 H   0  0  0  0  0  0  0  0  0  0  0  0
  1  2  1  0  0  0  0
  2  3  1  0  0  0  0
  2  4  1  0  0  0  0
  2  5  1  0  0  0  0
  5  6  2  0  0  0  0
  5  7  1  0  0  0  0
  7  8  1  0  0  0  0
  7  9  1  0  0  0  0
  9 10  1  0  0  0  0
  9 11  1  0  0  0  0
  9 26  1  0  0  0  0
 11 12  1  0  0  0  0
 11 13  1  0  0  0  0
 11 14  1  0  0  0  0
 14 15  1  0  0  0  0
 14 16  1  0  0  0  0
 14 17  1  0  0  0  0
 17 18  1  0  0  0  0
 17 19  1  0  0  0  0
 17 20  1  0  0  0  0
 20 21  1  0  0  0  0
 20 22  1  0  0  0  0
 20 23  1  0  0  0  0
 23 24  1  0  0  0  0
 23 25  1  0  0  0  0
 26 27  2  0  0  0  0
 26 28  1  0  0  0  0
 28 29  1  0  0  0  0
 28 30  1  0  0  0  0
 30 31  1  0  0  0  0
 30 32  1  0  0  0  0
 30 33  1  0  0  0  0
M  END
$$$$

  -OEChem-03222214063D

 33 32  0     1  0  0  0  0  0999 V2000
   -3.4439   -4.1490    1.7767 H   0  0  0  0  0  0  0  0  0  0  0  0
   -3.5800   -3.1156    1.4458 C   0  0  0  0  0  0  0  0  0  0  0  0
   -4.1340   -2.5704    2.2140 H   0  0  0  0  0  0  0  0  0  0  0  0
   -4.1590   -3.1154    0.5192 H   0  0  0  0  0  0  0  0  0  0  0  0
   -2.2320   -2.4588    1.2144 C   0  0  0  0  0  0  0  0  0  0  0  0
   -1.2066   -3.1084    1.3489 O   0  0  0  0  0  0  0  0  0  0  0  0
   -2.1736   -1.1287    0.8542 N   0  0  0  0  0  0  0  0  0  0  0  0
   -3.0479   -0.6059    0.8643 H   0  0  0  0  0  0  0  0  0  0  0  0
   -0.9402   -0.3347    0.7675 C   0  0  1  0  0  0  0  0  0  0  0  0
   -0.1999   -0.8339    1.4014 H   0  0  0  0  0  0  0  0  0  0  0  0
   -0.3409   -0.3880   -0.6562 C   0  0  0  0  0  0  0  0  0  0  0  0
    0.5865    0.1934   -0.6375 H   0  0  0  0  0  0  0  0  0  0  0  0
   -0.0625   -1.4259   -0.8670 H   0  0  0  0  0  0  0  0  0  0  0  0
   -1.1789    0.1214   -1.8486 C   0  0  0  0  0  0  0  0  0  0  0  0
   -0.5112    0.2044   -2.7126 H   0  0  0  0  0  0  0  0  0  0  0  0
   -1.9298   -0.6386   -2.0890 H   0  0  0  0  0  0  0  0  0  0  0  0
   -1.9047    1.4547   -1.6501 C   0  0  0  0  0  0  0  0  0  0  0  0
   -2.7283    1.3254   -0.9441 H   0  0  0  0  0  0  0  0  0  0  0  0
   -1.2082    2.1981   -1.2491 H   0  0  0  0  0  0  0  0  0  0  0  0
   -2.4777    1.9634   -2.9696 C   0  0  0  0  0  0  0  0  0  0  0  0
   -1.6848    2.0550   -3.7204 H   0  0  0  0  0  0  0  0  0  0  0  0
   -3.2255    1.2574   -3.3478 H   0  0  0  0  0  0  0  0  0  0  0  0
   -3.0897    3.2733   -2.7327 N   0  0  0  0  0  0  0  0  0  0  0  0
   -3.5829    3.6086   -3.5596 H   0  0  0  0  0  0  0  0  0  0  0  0
   -3.7089    3.2463   -1.9215 H   0  0  0  0  0  0  0  0  0  0  0  0
   -1.0777    1.0606    1.4182 C   0  0  0  0  0  0  0  0  0  0  0  0
   -2.1700    1.6155    1.4694 O   0  0  0  0  0  0  0  0  0  0  0  0
   -0.0704    1.5340    2.2406 N   0  0  0  0  0  0  0  0  0  0  0  0
    0.7881    0.9934    2.2913 H   0  0  0  0  0  0  0  0  0  0  0  0
   -0.2002    2.7277    3.0681 C   0  0  0  0  0  0  0  0  0  0  0  0
   -0.9917    2.5935    3.8129 H   0  0  0  0  0  0  0  0  0  0  0  0
    0.7387    2.9282    3.5931 H   0  0  0  0  0  0  0  0  0  0  0  0
   -0.4418    3.5984    2.4495 H   0  0  0  0  0  0  0  0  0  0  0  0
  1  2  1  0  0  0  0
  2  3  1  0  0  0  0
  2  4  1  0  0  0  0
  2  5  1  0  0  0  0
  5  6  2  0  0  0  0
  5  7  1  0  0  0  0
  7  8  1  0  0  0  0
  7  9  1  0  0  0  0
  9 10  1  0  0  0  0
  9 11  1  0  0  0  0
  9 26  1  0  0  0  0
 11 12  1  0  0  0  0
 11 13  1  0  0  0  0
 11 14  1  0  0  0  0
 14 15  1  0  0  0  0
 14 16  1  0  0  0  0
 14 17  1  0  0  0  0
 17 18  1  0  0  0  0
 17 19  1  0  0  0  0
 17 20  1  0  0  0  0
 20 21  1  0  0  0  0
 20 22  1  0  0  0  0
 20 23  1  0  0  0  0
 23 24  1  0  0  0  0
 23 25  1  0  0  0  0
 26 27  2  0  0  0  0
 26 28  1  0  0  0  0
 28 29  1  0  0  0  0
 28 30  1  0  0  0  0
 30 31  1  0  0  0  0
 30 32  1  0  0  0  0
 30 33  1  0  0  0  0
M  END
$$$$

  -OEChem-03222214063D

 33 32  0     1  0  0  0  0  0999 V2000
   -3.7512   -3.8854    1.5799 H   0  0  0  0  0  0  0  0  0  0  0  0
   -3.7753   -2.8553    1.2137 C   0  0  0  0  0  0  0  0  0  0  0  0
   -4.3659   -2.2492    1.9050 H   0  0  0  0  0  0  0  0  0  0  0  0
   -4.2506   -2.8420    0.2300 H   0  0  0  0  0  0  0  0  0  0  0  0
   -2.3662   -2.3027    1.1137 C   0  0  0  0  0  0  0  0  0  0  0  0
   -1.4111   -3.0133    1.3858 O   0  0  0  0  0  0  0  0  0  0  0  0
   -2.1725   -0.9976    0.7120 N   0  0  0  0  0  0  0  0  0  0  0  0
   -3.0011   -0.4121    0.6198 H   0  0  0  0  0  0  0  0  0  0  0  0
   -0.8798   -0.2990    0.7274 C   0  0  1  0  0  0  0  0  0  0  0  0
   -0.2388   -0.8132    1.4511 H   0  0  0  0  0  0  0  0  0  0  0  0
   -0.1665   -0.4704   -0.6387 C   0  0  0  0  0  0  0  0  0  0  0  0
    0.8093    0.0204   -0.5661 H   0  0  0  0  0  0  0  0  0  0  0  0
    0.0244   -1.5401   -0.7759 H   0  0  0  0  0  0  0  0  0  0  0  0
   -0.8503    0.0433   -1.9266 C   0  0  0  0  0  0  0  0  0  0  0  0
   -0.2240   -0.2235   -2.7841 H   0  0  0  0  0  0  0  0  0  0  0  0
   -1.7846   -0.5179   -2.0326 H   0  0  0  0  0  0  0  0  0  0  0  0
   -1.1665    1.5479   -2.0137 C   0  0  0  0  0  0  0  0  0  0  0  0
   -0.3783    2.0327   -2.5987 H   0  0  0  0  0  0  0  0  0  0  0  0
   -1.1597    2.0268   -1.0412 H   0  0  0  0  0  0  0  0  0  0  0  0
   -2.5135    1.8045   -2.6827 C   0  0  0  0  0  0  0  0  0  0  0  0
   -2.5252    1.3709   -3.6887 H   0  0  0  0  0  0  0  0  0  0  0  0
   -3.3149    1.3389   -2.0983 H   0  0  0  0  0  0  0  0  0  0  0  0
   -2.7246    3.2527   -2.7556 N   0  0  0  0  0  0  0  0  0  0  0  0
   -3.6290    3.4722   -3.1720 H   0  0  0  0  0  0  0  0  0  0  0  0
   -2.6419    3.6735   -1.8286 H   0  0  0  0  0  0  0  0  0  0  0  0
   -1.0223    1.1222    1.3136 C   0  0  0  0  0  0  0  0  0  0  0  0
   -2.0857    1.7263    1.2011 O   0  0  0  0  0  0  0  0  0  0  0  0
   -0.0990    1.5863    2.2331 N   0  0  0  0  0  0  0  0  0  0  0  0
    0.7163    1.0077    2.4145 H   0  0  0  0  0  0  0  0  0  0  0  0
   -0.2731    2.8166    2.9960 C   0  0  0  0  0  0  0  0  0  0  0  0
   -1.1612    2.7502    3.6334 H   0  0  0  0  0  0  0  0  0  0  0  0
    0.5985    2.9924    3.6339 H   0  0  0  0  0  0  0  0  0  0  0  0
   -0.3858    3.6724    2.3220 H   0  0  0  0  0  0  0  0  0  0  0  0
  1  2  1  0  0  0  0
  2  3  1  0  0  0  0
  2  4  1  0  0  0  0
  2  5  1  0  0  0  0
  5  6  2  0  0  0  0
  5  7  1  0  0  0  0
  7  8  1  0  0  0  0
  7  9  1  0  0  0  0
  9 10  1  0  0  0  0
  9 11  1  0  0  0  0
  9 26  1  0  0  0  0
 11 12  1  0  0  0  0
 11 13  1  0  0  0  0
 11 14  1  0  0  0  0
 14 15  1  0  0  0  0
 14 16  1  0  0  0  0
 14 17  1  0  0  0  0
 17 18  1  0  0  0  0
 17 19  1  0  0  0  0
 17 20  1  0  0  0  0
 20 21  1  0  0  0  0
 20 22  1  0  0  0  0
 20 23  1  0  0  0  0
 23 24  1  0  0  0  0
 23 25  1  0  0  0  0
 26 27  2  0  0  0  0
 26 28  1  0  0  0  0
 28 29  1  0  0  0  0
 28 30  1  0  0  0  0
 30 31  1  0  0  0  0
 30 32  1  0  0  0  0
 30 33  1  0  0  0  0
M  END
$$$$

  -OEChem-03222214063D

 33 32  0     1  0  0  0  0  0999 V2000
   -3.5394   -4.0961    1.7318 H   0  0  0  0  0  0  0  0  0  0  0  0
   -3.6393   -3.0642    1.3841 C   0  0  0  0  0  0  0  0  0  0  0  0
   -4.2084   -2.4969    2.1244 H   0  0  0  0  0  0  0  0  0  0  0  0
   -4.1836   -3.0626    0.4368 H   0  0  0  0  0  0  0  0  0  0  0  0
   -2.2689   -2.4411    1.1948 C   0  0  0  0  0  0  0  0  0  0  0  0
   -1.2640   -3.1046    1.3980 O   0  0  0  0  0  0  0  0  0  0  0  0
   -2.1661   -1.1253    0.7945 N   0  0  0  0  0  0  0  0  0  0  0  0
   -3.0278   -0.5828    0.7548 H   0  0  0  0  0  0  0  0  0  0  0  0
   -0.9115   -0.3615    0.7379 C   0  0  1  0  0  0  0  0  0  0  0  0
   -0.1911   -0.8557    1.3982 H   0  0  0  0  0  0  0  0  0  0  0  0
   -0.2962   -0.4229   -0.6781 C   0  0  0  0  0  0  0  0  0  0  0  0
    0.6669    0.0976   -0.6644 H   0  0  0  0  0  0  0  0  0  0  0  0
   -0.0851   -1.4761   -0.8926 H   0  0  0  0  0  0  0  0  0  0  0  0
   -1.1351    0.1277   -1.8496 C   0  0  0  0  0  0  0  0  0  0  0  0
   -0.6828   -0.2385   -2.7772 H   0  0  0  0  0  0  0  0  0  0  0  0
   -2.1500   -0.2792   -1.8000 H   0  0  0  0  0  0  0  0  0  0  0  0
   -1.2004    1.6604   -1.9211 C   0  0  0  0  0  0  0  0  0  0  0  0
   -1.7954    2.0591   -1.0997 H   0  0  0  0  0  0  0  0  0  0  0  0
   -0.1902    2.0760   -1.8452 H   0  0  0  0  0  0  0  0  0  0  0  0
   -1.8325    2.1119   -3.2348 C   0  0  0  0  0  0  0  0  0  0  0  0
   -1.2582    1.7265   -4.0846 H   0  0  0  0  0  0  0  0  0  0  0  0
   -2.8546    1.7245   -3.3098 H   0  0  0  0  0  0  0  0  0  0  0  0
   -1.8449    3.5772   -3.2656 N   0  0  0  0  0  0  0  0  0  0  0  0
   -2.2921    3.9254   -4.1133 H   0  0  0  0  0  0  0  0  0  0  0  0
   -2.2999    3.9537   -2.4331 H   0  0  0  0  0  0  0  0  0  0  0  0
   -1.0839    1.0475    1.3437 C   0  0  0  0  0  0  0  0  0  0  0  0
   -2.1770    1.6029    1.2989 O   0  0  0  0  0  0  0  0  0  0  0  0
   -0.1270    1.5488    2.2082 N   0  0  0  0  0  0  0  0  0  0  0  0
    0.7220    1.0055    2.3360 H   0  0  0  0  0  0  0  0  0  0  0  0
   -0.3128    2.7600    2.9984 C   0  0  0  0  0  0  0  0  0  0  0  0
   -1.1340    2.6297    3.7109 H   0  0  0  0  0  0  0  0  0  0  0  0
    0.5987    2.9902    3.5585 H   0  0  0  0  0  0  0  0  0  0  0  0
   -0.5416    3.6109    2.3480 H   0  0  0  0  0  0  0  0  0  0  0  0
  1  2  1  0  0  0  0
  2  3  1  0  0  0  0
  2  4  1  0  0  0  0
  2  5  1  0  0  0  0
  5  6  2  0  0  0  0
  5  7  1  0  0  0  0
  7  8  1  0  0  0  0
  7  9  1  0  0  0  0
  9 10  1  0  0  0  0
  9 11  1  0  0  0  0
  9 26  1  0  0  0  0
 11 12  1  0  0  0  0
 11 13  1  0  0  0  0
 11 14  1  0  0  0  0
 14 15  1  0  0  0  0
 14 16  1  0  0  0  0
 14 17  1  0  0  0  0
 17 18  1  0  0  0  0
 17 19  1  0  0  0  0
 17 20  1  0  0  0  0
 20 21  1  0  0  0  0
 20 22  1  0  0  0  0
 20 23  1  0  0  0  0
 23 24  1  0  0  0  0
 23 25  1  0  0  0  0
 26 27  2  0  0  0  0
 26 28  1  0  0  0  0
 28 29  1  0  0  0  0
 28 30  1  0  0  0  0
 30 31  1  0  0  0  0
 30 32  1  0  0  0  0
 30 33  1  0  0  0  0
M  END
$$$$

  -OEChem-03222214063D

 33 32  0     1  0  0  0  0  0999 V2000
   -3.6099   -4.0635    1.7256 H   0  0  0  0  0  0  0  0  0  0  0  0
   -3.6750   -3.0491    1.3217 C   0  0  0  0  0  0  0  0  0  0  0  0
   -4.2863   -2.4413    1.9934 H   0  0  0  0  0  0  0  0  0  0  0  0
   -4.1543   -3.0907    0.3406 H   0  0  0  0  0  0  0  0  0  0  0  0
   -2.2884   -2.4464    1.1953 C   0  0  0  0  0  0  0  0  0  0  0  0
   -1.3079   -3.1017    1.5121 O   0  0  0  0  0  0  0  0  0  0  0  0
   -2.1426   -1.1568    0.7289 N   0  0  0  0  0  0  0  0  0  0  0  0
   -2.9922   -0.6115    0.5906 H   0  0  0  0  0  0  0  0  0  0  0  0
   -0.8747   -0.4125    0.7110 C   0  0  1  0  0  0  0  0  0  0  0  0
   -0.1820   -0.8823    1.4169 H   0  0  0  0  0  0  0  0  0  0  0  0
   -0.2170   -0.4936   -0.6847 C   0  0  0  0  0  0  0  0  0  0  0  0
    0.7593    0.0008   -0.6537 H   0  0  0  0  0  0  0  0  0  0  0  0
   -0.0303   -1.5527   -0.8921 H   0  0  0  0  0  0  0  0  0  0  0  0
   -1.0398    0.0752   -1.8584 C   0  0  0  0  0  0  0  0  0  0  0  0
   -0.7748   -0.4773   -2.7659 H   0  0  0  0  0  0  0  0  0  0  0  0
   -2.1082   -0.0820   -1.6817 H   0  0  0  0  0  0  0  0  0  0  0  0
   -0.7648    1.5666   -2.1071 C   0  0  0  0  0  0  0  0  0  0  0  0
   -0.9628    2.1544   -1.2094 H   0  0  0  0  0  0  0  0  0  0  0  0
    0.2900    1.7029   -2.3670 H   0  0  0  0  0  0  0  0  0  0  0  0
   -1.6349    2.0949   -3.2425 C   0  0  0  0  0  0  0  0  0  0  0  0
   -1.4471    1.5251   -4.1593 H   0  0  0  0  0  0  0  0  0  0  0  0
   -2.6939    1.9855   -2.9834 H   0  0  0  0  0  0  0  0  0  0  0  0
   -1.3110    3.5087   -3.4546 N   0  0  0  0  0  0  0  0  0  0  0  0
   -1.8904    3.9129   -4.1898 H   0  0  0  0  0  0  0  0  0  0  0  0
   -1.4081    4.0357   -2.5860 H   0  0  0  0  0  0  0  0  0  0  0  0
   -1.0904    1.0244    1.2287 C   0  0  0  0  0  0  0  0  0  0  0  0
   -2.1485    1.6042    1.0030 O   0  0  0  0  0  0  0  0  0  0  0  0
   -0.2024    1.5803    2.1313 N   0  0  0  0  0  0  0  0  0  0  0  0
    0.6218    1.0386    2.3752 H   0  0  0  0  0  0  0  0  0  0  0  0
   -0.4251    2.8615    2.7899 C   0  0  0  0  0  0  0  0  0  0  0  0
   -1.3291    2.8226    3.4067 H   0  0  0  0  0  0  0  0  0  0  0  0
    0.4238    3.1079    3.4349 H   0  0  0  0  0  0  0  0  0  0  0  0
   -0.5381    3.6593    2.0482 H   0  0  0  0  0  0  0  0  0  0  0  0
  1  2  1  0  0  0  0
  2  3  1  0  0  0  0
  2  4  1  0  0  0  0
  2  5  1  0  0  0  0
  5  6  2  0  0  0  0
  5  7  1  0  0  0  0
  7  8  1  0  0  0  0
  7  9  1  0  0  0  0
  9 10  1  0  0  0  0
  9 11  1  0  0  0  0
  9 26  1  0  0  0  0
 11 12  1  0  0  0  0
 11 13  1  0  0  0  0
 11 14  1  0  0  0  0
 14 15  1  0  0  0  0
 14 16  1  0  0  0  0
 14 17  1  0  0  0  0
 17 18  1  0  0  0  0
 17 19  1  0  0  0  0
 17 20  1  0  0  0  0
 20 21  1  0  0  0  0
 20 22  1  0  0  0  0
 20 23  1  0  0  0  0
 23 24  1  0  0  0  0
 23 25  1  0  0  0  0
 26 27  2  0  0  0  0
 26 28  1  0  0  0  0
 28 29  1  0  0  0  0
 28 30  1  0  0  0  0
 30 31  1  0  0  0  0
 30 32  1  0  0  0  0
 30 33  1  0  0  0  0
M  END
$$$$

  -OEChem-03222214063D

 33 32  0     1  0  0  0  0  0999 V2000
   -3.6379   -4.0695    1.7491 H   0  0  0  0  0  0  0  0  0  0  0  0
   -3.6871   -3.0747    1.2976 C   0  0  0  0  0  0  0  0  0  0  0  0
   -4.3358   -2.4426    1.9089 H   0  0  0  0  0  0  0  0  0  0  0  0
   -4.1143   -3.1628    0.2958 H   0  0  0  0  0  0  0  0  0  0  0  0
   -2.2990   -2.4681    1.2164 C   0  0  0  0  0  0  0  0  0  0  0  0
   -1.3312   -3.1048    1.6021 O   0  0  0  0  0  0  0  0  0  0  0  0
   -2.1386   -1.1950    0.7113 N   0  0  0  0  0  0  0  0  0  0  0  0
   -2.9827   -0.6667    0.4971 H   0  0  0  0  0  0  0  0  0  0  0  0
   -0.8721   -0.4481    0.7054 C   0  0  1  0  0  0  0  0  0  0  0  0
   -0.1875   -0.9016    1.4296 H   0  0  0  0  0  0  0  0  0  0  0  0
   -0.1996   -0.5279   -0.6792 C   0  0  0  0  0  0  0  0  0  0  0  0
    0.7745   -0.0292   -0.6400 H   0  0  0  0  0  0  0  0  0  0  0  0
   -0.0060   -1.5845   -0.8928 H   0  0  0  0  0  0  0  0  0  0  0  0
   -1.0438    0.0484   -1.8343 C   0  0  0  0  0  0  0  0  0  0  0  0
   -0.9959   -0.6413   -2.6834 H   0  0  0  0  0  0  0  0  0  0  0  0
   -2.0954    0.1346   -1.5444 H   0  0  0  0  0  0  0  0  0  0  0  0
   -0.5132    1.4154   -2.2863 C   0  0  0  0  0  0  0  0  0  0  0  0
   -0.4801    2.1016   -1.4345 H   0  0  0  0  0  0  0  0  0  0  0  0
    0.5058    1.3059   -2.6719 H   0  0  0  0  0  0  0  0  0  0  0  0
   -1.4057    2.0086   -3.3714 C   0  0  0  0  0  0  0  0  0  0  0  0
   -1.4478    1.3340   -4.2337 H   0  0  0  0  0  0  0  0  0  0  0  0
   -2.4245    2.1368   -2.9884 H   0  0  0  0  0  0  0  0  0  0  0  0
   -0.8520    3.3046   -3.7751 N   0  0  0  0  0  0  0  0  0  0  0  0
   -1.4252    3.7404   -4.4973 H   0  0  0  0  0  0  0  0  0  0  0  0
   -0.7534    3.9226   -2.9692 H   0  0  0  0  0  0  0  0  0  0  0  0
   -1.0893    1.0087    1.1650 C   0  0  0  0  0  0  0  0  0  0  0  0
   -2.1026    1.6147    0.8315 O   0  0  0  0  0  0  0  0  0  0  0  0
   -0.2224    1.5920    2.0706 N   0  0  0  0  0  0  0  0  0  0  0  0
    0.5759    1.0442    2.3788 H   0  0  0  0  0  0  0  0  0  0  0  0
   -0.4125    2.9303    2.6159 C   0  0  0  0  0  0  0  0  0  0  0  0
   -1.3611    2.9921    3.1595 H   0  0  0  0  0  0  0  0  0  0  0  0
    0.3988    3.1750    3.3082 H   0  0  0  0  0  0  0  0  0  0  0  0
   -0.4171    3.6741    1.8122 H   0  0  0  0  0  0  0  0  0  0  0  0
  1  2  1  0  0  0  0
  2  3  1  0  0  0  0
  2  4  1  0  0  0  0
  2  5  1  0  0  0  0
  5  6  2  0  0  0  0
  5  7  1  0  0  0  0
  7  8  1  0  0  0  0
  7  9  1  0  0  0  0
  9 10  1  0  0  0  0
  9 11  1  0  0  0  0
  9 26  1  0  0  0  0
 11 12  1  0  0  0  0
 11 13  1  0  0  0  0
 11 14  1  0  0  0  0
 14 15  1  0  0  0  0
 14 16  1  0  0  0  0
 14 17  1  0  0  0  0
 17 18  1  0  0  0  0
 17 19  1  0  0  0  0
 17 20  1  0  0  0  0
 20 21  1  0  0  0  0
 20 22  1  0  0  0  0
 20 23  1  0  0  0  0
 23 24  1  0  0  0  0
 23 25  1  0  0  0  0
 26 27  2  0  0  0  0
 26 28  1  0  0  0  0
 28 29  1  0  0  0  0
 28 30  1  0  0  0  0
 30 31  1  0  0  0  0
 30 32  1  0  0  0  0
 30 33  1  0  0  0  0
M  END
$$$$

  -OEChem-03222214063D

 33 32  0     1  0  0  0  0  0999 V2000
   -3.6317   -4.0769    1.7411 H   0  0  0  0  0  0  0  0  0  0  0  0
   -3.6844   -3.0843    1.2851 C   0  0  0  0  0  0  0  0  0  0  0  0
   -4.3415   -2.4541    1.8893 H   0  0  0  0  0  0  0  0  0  0  0  0
   -4.1045   -3.1796    0.2811 H   0  0  0  0  0  0  0  0  0  0  0  0
   -2.2997   -2.4684    1.2108 C   0  0  0  0  0  0  0  0  0  0  0  0
   -1.3295   -3.1015    1.5964 O   0  0  0  0  0  0  0  0  0  0  0  0
   -2.1452   -1.1912    0.7134 N   0  0  0  0  0  0  0  0  0  0  0  0
   -2.9912   -0.6683    0.4941 H   0  0  0  0  0  0  0  0  0  0  0  0
   -0.8819   -0.4389    0.7093 C   0  0  1  0  0  0  0  0  0  0  0  0
   -0.1953   -0.8957    1.4293 H   0  0  0  0  0  0  0  0  0  0  0  0
   -0.2134   -0.5176   -0.6758 C   0  0  0  0  0  0  0  0  0  0  0  0
    0.7506    0.0004   -0.6301 H   0  0  0  0  0  0  0  0  0  0  0  0
    0.0023   -1.5687   -0.8956 H   0  0  0  0  0  0  0  0  0  0  0  0
   -1.0700    0.0560   -1.8241 C   0  0  0  0  0  0  0  0  0  0  0  0
   -1.2615   -0.7378   -2.5536 H   0  0  0  0  0  0  0  0  0  0  0  0
   -2.0426    0.3972   -1.4576 H   0  0  0  0  0  0  0  0  0  0  0  0
   -0.3536    1.2189   -2.5203 C   0  0  0  0  0  0  0  0  0  0  0  0
   -0.1327    2.0030   -1.7884 H   0  0  0  0  0  0  0  0  0  0  0  0
    0.5947    0.8692   -2.9416 H   0  0  0  0  0  0  0  0  0  0  0  0
   -1.2195    1.8002   -3.6330 C   0  0  0  0  0  0  0  0  0  0  0  0
   -1.4534    1.0256   -4.3717 H   0  0  0  0  0  0  0  0  0  0  0  0
   -2.1631    2.1709   -3.2171 H   0  0  0  0  0  0  0  0  0  0  0  0
   -0.4839    2.8953   -4.2718 N   0  0  0  0  0  0  0  0  0  0  0  0
   -1.0283    3.3133   -5.0262 H   0  0  0  0  0  0  0  0  0  0  0  0
   -0.2145    3.6003   -3.5855 H   0  0  0  0  0  0  0  0  0  0  0  0
   -1.0858    1.0183    1.1764 C   0  0  0  0  0  0  0  0  0  0  0  0
   -2.0899    1.6402    0.8461 O   0  0  0  0  0  0  0  0  0  0  0  0
   -0.2083    1.5891    2.0799 N   0  0  0  0  0  0  0  0  0  0  0  0
    0.5851    1.0312    2.3826 H   0  0  0  0  0  0  0  0  0  0  0  0
   -0.3785    2.9293    2.6280 C   0  0  0  0  0  0  0  0  0  0  0  0
   -1.3261    3.0041    3.1719 H   0  0  0  0  0  0  0  0  0  0  0  0
    0.4366    3.1605    3.3207 H   0  0  0  0  0  0  0  0  0  0  0  0
   -0.3721    3.6748    1.8258 H   0  0  0  0  0  0  0  0  0  0  0  0
  1  2  1  0  0  0  0
  2  3  1  0  0  0  0
  2  4  1  0  0  0  0
  2  5  1  0  0  0  0
  5  6  2  0  0  0  0
  5  7  1  0  0  0  0
  7  8  1  0  0  0  0
  7  9  1  0  0  0  0
  9 10  1  0  0  0  0
  9 11  1  0  0  0  0
  9 26  1  0  0  0  0
 11 12  1  0  0  0  0
 11 13  1  0  0  0  0
 11 14  1  0  0  0  0
 14 15  1  0  0  0  0
 14 16  1  0  0  0  0
 14 17  1  0  0  0  0
 17 18  1  0  0  0  0
 17 19  1  0  0  0  0
 17 20  1  0  0  0  0
 20 21  1  0  0  0  0
 20 22  1  0  0  0  0
 20 23  1  0  0  0  0
 23 24  1  0  0  0  0
 23 25  1  0  0  0  0
 26 27  2  0  0  0  0
 26 28  1  0  0  0  0
 28 29  1  0  0  0  0
 28 30  1  0  0  0  0
 30 31  1  0  0  0  0
 30 32  1  0  0  0  0
 30 33  1  0  0  0  0
M  END
$$$$

  -OEChem-03222214063D

 33 32  0     1  0  0  0  0  0999 V2000
   -3.6238   -4.0670    1.7078 H   0  0  0  0  0  0  0  0  0  0  0  0
   -3.6822   -3.0639    1.2760 C   0  0  0  0  0  0  0  0  0  0  0  0
   -4.3252   -2.4457    1.9072 H   0  0  0  0  0  0  0  0  0  0  0  0
   -4.1213   -3.1344    0.2780 H   0  0  0  0  0  0  0  0  0  0  0  0
   -2.2975   -2.4504    1.1895 C   0  0  0  0  0  0  0  0  0  0  0  0
   -1.3226   -3.0917    1.5488 O   0  0  0  0  0  0  0  0  0  0  0  0
   -2.1491   -1.1655    0.7111 N   0  0  0  0  0  0  0  0  0  0  0  0
   -2.9982   -0.6379    0.5154 H   0  0  0  0  0  0  0  0  0  0  0  0
   -0.8864   -0.4133    0.7065 C   0  0  1  0  0  0  0  0  0  0  0  0
   -0.1989   -0.8794    1.4199 H   0  0  0  0  0  0  0  0  0  0  0  0
   -0.2238   -0.4978   -0.6809 C   0  0  0  0  0  0  0  0  0  0  0  0
    0.7282    0.0409   -0.6297 H   0  0  0  0  0  0  0  0  0  0  0  0
    0.0133   -1.5438   -0.9019 H   0  0  0  0  0  0  0  0  0  0  0  0
   -1.0812    0.0705   -1.8303 C   0  0  0  0  0  0  0  0  0  0  0  0
   -1.5156   -0.7607   -2.3954 H   0  0  0  0  0  0  0  0  0  0  0  0
   -1.9124    0.6647   -1.4412 H   0  0  0  0  0  0  0  0  0  0  0  0
   -0.2445    0.9550   -2.7613 C   0  0  0  0  0  0  0  0  0  0  0  0
    0.1771    1.7909   -2.1937 H   0  0  0  0  0  0  0  0  0  0  0  0
    0.5848    0.3719   -3.1752 H   0  0  0  0  0  0  0  0  0  0  0  0
   -1.0997    1.4988   -3.9013 C   0  0  0  0  0  0  0  0  0  0  0  0
   -1.5240    0.6707   -4.4797 H   0  0  0  0  0  0  0  0  0  0  0  0
   -1.9281    2.0922   -3.4985 H   0  0  0  0  0  0  0  0  0  0  0  0
   -0.2554    2.3308   -4.7639 N   0  0  0  0  0  0  0  0  0  0  0  0
   -0.7907    2.7165   -5.5417 H   0  0  0  0  0  0  0  0  0  0  0  0
    0.1927    3.0738   -4.2277 H   0  0  0  0  0  0  0  0  0  0  0  0
   -1.0795    1.0375    1.1983 C   0  0  0  0  0  0  0  0  0  0  0  0
   -2.0961    1.6597    0.9095 O   0  0  0  0  0  0  0  0  0  0  0  0
   -0.1887    1.5900    2.1006 N   0  0  0  0  0  0  0  0  0  0  0  0
    0.6046    1.0228    2.3862 H   0  0  0  0  0  0  0  0  0  0  0  0
   -0.3681    2.9054    2.7029 C   0  0  0  0  0  0  0  0  0  0  0  0
   -1.2925    2.9358    3.2893 H   0  0  0  0  0  0  0  0  0  0  0  0
    0.4707    3.1341    3.3673 H   0  0  0  0  0  0  0  0  0  0  0  0
   -0.4159    3.6779    1.9283 H   0  0  0  0  0  0  0  0  0  0  0  0
  1  2  1  0  0  0  0
  2  3  1  0  0  0  0
  2  4  1  0  0  0  0
  2  5  1  0  0  0  0
  5  6  2  0  0  0  0
  5  7  1  0  0  0  0
  7  8  1  0  0  0  0
  7  9  1  0  0  0  0
  9 10  1  0  0  0  0
  9 11  1  0  0  0  0
  9 26  1  0  0  0  0
 11 12  1  0  0  0  0
 11 13  1  0  0  0  0
 11 14  1  0  0  0  0
 14 15  1  0  0  0  0
 14 16  1  0  0  0  0
 14 17  1  0  0  0  0
 17 18  1  0  0  0  0
 17 19  1  0  0  0  0
 17 20  1  0  0  0  0
 20 21  1  0  0  0  0
 20 22  1  0  0  0  0
 20 23  1  0  0  0  0
 23 24  1  0  0  0  0
 23 25  1  0  0  0  0
 26 27  2  0  0  0  0
 26 28  1  0  0  0  0
 28 29  1  0  0  0  0
 28 30  1  0  0  0  0
 30 31  1  0  0  0  0
 30 32  1  0  0  0  0
 30 33  1  0  0  0  0
M  END
$$$$

  -OEChem-03222214063D

 33 32  0     1  0  0  0  0  0999 V2000
   -3.6265   -4.0581    1.6865 H   0  0  0  0  0  0  0  0  0  0  0  0
   -3.6829   -3.0518    1.2620 C   0  0  0  0  0  0  0  0  0  0  0  0
   -4.3274   -2.4379    1.8959 H   0  0  0  0  0  0  0  0  0  0  0  0
   -4.1194   -3.1145    0.2623 H   0  0  0  0  0  0  0  0  0  0  0  0
   -2.2976   -2.4385    1.1843 C   0  0  0  0  0  0  0  0  0  0  0  0
   -1.3244   -3.0816    1.5450 O   0  0  0  0  0  0  0  0  0  0  0  0
   -2.1470   -1.1515    0.7125 N   0  0  0  0  0  0  0  0  0  0  0  0
   -2.9951   -0.6215    0.5198 H   0  0  0  0  0  0  0  0  0  0  0  0
   -0.8827   -0.4027    0.7036 C   0  0  1  0  0  0  0  0  0  0  0  0
   -0.1923   -0.8726    1.4118 H   0  0  0  0  0  0  0  0  0  0  0  0
   -0.2281   -0.4906   -0.6881 C   0  0  0  0  0  0  0  0  0  0  0  0
    0.7197    0.0558   -0.6422 H   0  0  0  0  0  0  0  0  0  0  0  0
    0.0123   -1.5353   -0.9120 H   0  0  0  0  0  0  0  0  0  0  0  0
   -1.0891    0.0786   -1.8316 C   0  0  0  0  0  0  0  0  0  0  0  0
   -1.7434   -0.7098   -2.2177 H   0  0  0  0  0  0  0  0  0  0  0  0
   -1.7286    0.8874   -1.4687 H   0  0  0  0  0  0  0  0  0  0  0  0
   -0.2077    0.6372   -2.9538 C   0  0  0  0  0  0  0  0  0  0  0  0
    0.4196    1.4449   -2.5631 H   0  0  0  0  0  0  0  0  0  0  0  0
    0.4508   -0.1519   -3.3320 H   0  0  0  0  0  0  0  0  0  0  0  0
   -1.0655    1.1709   -4.0966 C   0  0  0  0  0  0  0  0  0  0  0  0
   -1.6916    0.3687   -4.5027 H   0  0  0  0  0  0  0  0  0  0  0  0
   -1.7252    1.9654   -3.7304 H   0  0  0  0  0  0  0  0  0  0  0  0
   -0.1798    1.6911   -5.1424 N   0  0  0  0  0  0  0  0  0  0  0  0
   -0.7147    2.0590   -5.9291 H   0  0  0  0  0  0  0  0  0  0  0  0
    0.4499    2.4006   -4.7681 H   0  0  0  0  0  0  0  0  0  0  0  0
   -1.0728    1.0451    1.2052 C   0  0  0  0  0  0  0  0  0  0  0  0
   -2.0954    1.6649    0.9328 O   0  0  0  0  0  0  0  0  0  0  0  0
   -0.1771    1.5928    2.1053 N   0  0  0  0  0  0  0  0  0  0  0  0
    0.6149    1.0220    2.3874 H   0  0  0  0  0  0  0  0  0  0  0  0
   -0.3614    2.8993    2.7258 C   0  0  0  0  0  0  0  0  0  0  0  0
   -1.2828    2.9160    3.3172 H   0  0  0  0  0  0  0  0  0  0  0  0
    0.4794    3.1251    3.3887 H   0  0  0  0  0  0  0  0  0  0  0  0
   -0.4187    3.6819    1.9619 H   0  0  0  0  0  0  0  0  0  0  0  0
  1  2  1  0  0  0  0
  2  3  1  0  0  0  0
  2  4  1  0  0  0  0
  2  5  1  0  0  0  0
  5  6  2  0  0  0  0
  5  7  1  0  0  0  0
  7  8  1  0  0  0  0
  7  9  1  0  0  0  0
  9 10  1  0  0  0  0
  9 11  1  0  0  0  0
  9 26  1  0  0  0  0
 11 12  1  0  0  0  0
 11 13  1  0  0  0  0
 11 14  1  0  0  0  0
 14 15  1  0  0  0  0
 14 16  1  0  0  0  0
 14 17  1  0  0  0  0
 17 18  1  0  0  0  0
 17 19  1  0  0  0  0
 17 20  1  0  0  0  0
 20 21  1  0  0  0  0
 20 22  1  0  0  0  0
 20 23  1  0  0  0  0
 23 24  1  0  0  0  0
 23 25  1  0  0  0  0
 26 27  2  0  0  0  0
 26 28  1  0  0  0  0
 28 29  1  0  0  0  0
 28 30  1  0  0  0  0
 30 31  1  0  0  0  0
 30 32  1  0  0  0  0
 30 33  1  0  0  0  0
M  END
$$$$

  -OEChem-03222214063D

 33 32  0     1  0  0  0  0  0999 V2000
   -3.6348   -4.0506    1.7065 H   0  0  0  0  0  0  0  0  0  0  0  0
   -3.6881   -3.0501    1.2682 C   0  0  0  0  0  0  0  0  0  0  0  0
   -4.3343   -2.4270    1.8912 H   0  0  0  0  0  0  0  0  0  0  0  0
   -4.1208   -3.1265    0.2677 H   0  0  0  0  0  0  0  0  0  0  0  0
   -2.3012   -2.4403    1.1886 C   0  0  0  0  0  0  0  0  0  0  0  0
   -1.3301   -3.0834    1.5553 O   0  0  0  0  0  0  0  0  0  0  0  0
   -2.1458   -1.1554    0.7121 N   0  0  0  0  0  0  0  0  0  0  0  0
   -2.9914   -0.6244    0.5115 H   0  0  0  0  0  0  0  0  0  0  0  0
   -0.8783   -0.4117    0.7012 C   0  0  1  0  0  0  0  0  0  0  0  0
   -0.1866   -0.8819    1.4075 H   0  0  0  0  0  0  0  0  0  0  0  0
   -0.2289   -0.4949   -0.6934 C   0  0  0  0  0  0  0  0  0  0  0  0
    0.7229    0.0451   -0.6570 H   0  0  0  0  0  0  0  0  0  0  0  0
   -0.0018   -1.5420   -0.9201 H   0  0  0  0  0  0  0  0  0  0  0  0
   -1.0933    0.0846   -1.8271 C   0  0  0  0  0  0  0  0  0  0  0  0
   -1.9233   -0.5967   -2.0411 H   0  0  0  0  0  0  0  0  0  0  0  0
   -1.5180    1.0472   -1.5292 H   0  0  0  0  0  0  0  0  0  0  0  0
   -0.2500    0.3011   -3.0880 C   0  0  0  0  0  0  0  0  0  0  0  0
    0.5621    1.0029   -2.8726 H   0  0  0  0  0  0  0  0  0  0  0  0
    0.1962   -0.6495   -3.3985 H   0  0  0  0  0  0  0  0  0  0  0  0
   -1.1065    0.8516   -4.2243 C   0  0  0  0  0  0  0  0  0  0  0  0
   -1.9219    0.1557   -4.4512 H   0  0  0  0  0  0  0  0  0  0  0  0
   -1.5491    1.8100   -3.9304 H   0  0  0  0  0  0  0  0  0  0  0  0
   -0.2571    1.0281   -5.4064 N   0  0  0  0  0  0  0  0  0  0  0  0
   -0.7924    1.3919   -6.1946 H   0  0  0  0  0  0  0  0  0  0  0  0
    0.5387    1.6310   -5.1985 H   0  0  0  0  0  0  0  0  0  0  0  0
   -1.0697    1.0368    1.1985 C   0  0  0  0  0  0  0  0  0  0  0  0
   -2.0871    1.6589    0.9119 O   0  0  0  0  0  0  0  0  0  0  0  0
   -0.1765    1.5878    2.0989 N   0  0  0  0  0  0  0  0  0  0  0  0
    0.6158    1.0190    2.3845 H   0  0  0  0  0  0  0  0  0  0  0  0
   -0.3577    2.9011    2.7053 C   0  0  0  0  0  0  0  0  0  0  0  0
   -1.2870    2.9312    3.2839 H   0  0  0  0  0  0  0  0  0  0  0  0
    0.4758    3.1257    3.3779 H   0  0  0  0  0  0  0  0  0  0  0  0
   -0.3976    3.6768    1.9333 H   0  0  0  0  0  0  0  0  0  0  0  0
  1  2  1  0  0  0  0
  2  3  1  0  0  0  0
  2  4  1  0  0  0  0
  2  5  1  0  0  0  0
  5  6  2  0  0  0  0
  5  7  1  0  0  0  0
  7  8  1  0  0  0  0
  7  9  1  0  0  0  0
  9 10  1  0  0  0  0
  9 11  1  0  0  0  0
  9 26  1  0  0  0  0
 11 12  1  0  0  0  0
 11 13  1  0  0  0  0
 11 14  1  0  0  0  0
 14 15  1  0  0  0  0
 14 16  1  0  0  0  0
 14 17  1  0  0  0  0
 17 18  1  0  0  0  0
 17 19  1  0  0  0  0
 17 20  1  0  0  0  0
 20 21  1  0  0  0  0
 20 22  1  0  0  0  0
 20 23  1  0  0  0  0
 23 24  1  0  0  0  0
 23 25  1  0  0  0  0
 26 27  2  0  0  0  0
 26 28  1  0  0  0  0
 28 29  1  0  0  0  0
 28 30  1  0  0  0  0
 30 31  1  0  0  0  0
 30 32  1  0  0  0  0
 30 33  1  0  0  0  0
M  END
$$$$

  -OEChem-03222214063D

 33 32  0     1  0  0  0  0  0999 V2000
   -3.6356   -4.0451    1.6396 H   0  0  0  0  0  0  0  0  0  0  0  0
   -3.6818   -3.0389    1.2137 C   0  0  0  0  0  0  0  0  0  0  0  0
   -4.3414   -2.4249    1.8316 H   0  0  0  0  0  0  0  0  0  0  0  0
   -4.0939   -3.1021    0.2038 H   0  0  0  0  0  0  0  0  0  0  0  0
   -2.2952   -2.4254    1.1681 C   0  0  0  0  0  0  0  0  0  0  0  0
   -1.3296   -3.0694    1.5476 O   0  0  0  0  0  0  0  0  0  0  0  0
   -2.1349   -1.1364    0.7042 N   0  0  0  0  0  0  0  0  0  0  0  0
   -2.9781   -0.6094    0.4837 H   0  0  0  0  0  0  0  0  0  0  0  0
   -0.8686   -0.3909    0.7074 C   0  0  1  0  0  0  0  0  0  0  0  0
   -0.1855   -0.8702    1.4160 H   0  0  0  0  0  0  0  0  0  0  0  0
   -0.2151   -0.4859   -0.6861 C   0  0  0  0  0  0  0  0  0  0  0  0
    0.8326   -0.1812   -0.5972 H   0  0  0  0  0  0  0  0  0  0  0  0
   -0.2238   -1.5312   -1.0132 H   0  0  0  0  0  0  0  0  0  0  0  0
   -0.8881    0.3910   -1.7548 C   0  0  0  0  0  0  0  0  0  0  0  0
   -1.9399    0.1037   -1.8557 H   0  0  0  0  0  0  0  0  0  0  0  0
   -0.8516    1.4439   -1.4584 H   0  0  0  0  0  0  0  0  0  0  0  0
   -0.1780    0.2348   -3.1036 C   0  0  0  0  0  0  0  0  0  0  0  0
    0.8730    0.5243   -3.0031 H   0  0  0  0  0  0  0  0  0  0  0  0
   -0.2120   -0.8134   -3.4187 H   0  0  0  0  0  0  0  0  0  0  0  0
   -0.8459    1.1024   -4.1663 C   0  0  0  0  0  0  0  0  0  0  0  0
   -1.8972    0.8147   -4.2787 H   0  0  0  0  0  0  0  0  0  0  0  0
   -0.8122    2.1556   -3.8658 H   0  0  0  0  0  0  0  0  0  0  0  0
   -0.1387    0.9164   -5.4370 N   0  0  0  0  0  0  0  0  0  0  0  0
   -0.5632    1.4718   -6.1799 H   0  0  0  0  0  0  0  0  0  0  0  0
    0.8525    1.1359   -5.3397 H   0  0  0  0  0  0  0  0  0  0  0  0
   -1.0618    1.0535    1.2153 C   0  0  0  0  0  0  0  0  0  0  0  0
   -2.0706    1.6826    0.9135 O   0  0  0  0  0  0  0  0  0  0  0  0
   -0.1741    1.5979    2.1251 N   0  0  0  0  0  0  0  0  0  0  0  0
    0.6078    1.0210    2.4223 H   0  0  0  0  0  0  0  0  0  0  0  0
   -0.3608    2.9049    2.7432 C   0  0  0  0  0  0  0  0  0  0  0  0
   -1.3000    2.9328    3.3058 H   0  0  0  0  0  0  0  0  0  0  0  0
    0.4614    3.1175    3.4333 H   0  0  0  0  0  0  0  0  0  0  0  0
   -0.3830    3.6900    1.9801 H   0  0  0  0  0  0  0  0  0  0  0  0
  1  2  1  0  0  0  0
  2  3  1  0  0  0  0
  2  4  1  0  0  0  0
  2  5  1  0  0  0  0
  5  6  2  0  0  0  0
  5  7  1  0  0  0  0
  7  8  1  0  0  0  0
  7  9  1  0  0  0  0
  9 10  1  0  0  0  0
  9 11  1  0  0  0  0
  9 26  1  0  0  0  0
 11 12  1  0  0  0  0
 11 13  1  0  0  0  0
 11 14  1  0  0  0  0
 14 15  1  0  0  0  0
 14 16  1  0  0  0  0
 14 17  1  0  0  0  0
 17 18  1  0  0  0  0
 17 19  1  0  0  0  0
 17 20  1  0  0  0  0
 20 21  1  0  0  0  0
 20 22  1  0  0  0  0
 20 23  1  0  0  0  0
 23 24  1  0  0  0  0
 23 25  1  0  0  0  0
 26 27  2  0  0  0  0
 26 28  1  0  0  0  0
 28 29  1  0  0  0  0
 28 30  1  0  0  0  0
 30 31  1  0  0  0  0
 30 32  1  0  0  0  0
 30 33  1  0  0  0  0
M  END
$$$$

  -OEChem-03222214063D

 33 32  0     1  0  0  0  0  0999 V2000
   -3.6483   -4.0460    1.6417 H   0  0  0  0  0  0  0  0  0  0  0  0
   -3.6884   -3.0426    1.2088 C   0  0  0  0  0  0  0  0  0  0  0  0
   -4.3601   -2.4256    1.8104 H   0  0  0  0  0  0  0  0  0  0  0  0
   -4.0822   -3.1128    0.1921 H   0  0  0  0  0  0  0  0  0  0  0  0
   -2.3024   -2.4267    1.1844 C   0  0  0  0  0  0  0  0  0  0  0  0
   -1.3436   -3.0642    1.5911 O   0  0  0  0  0  0  0  0  0  0  0  0
   -2.1350   -1.1434    0.7078 N   0  0  0  0  0  0  0  0  0  0  0  0
   -2.9737   -0.6215    0.4600 H   0  0  0  0  0  0  0  0  0  0  0  0
   -0.8664   -0.4017    0.7107 C   0  0  1  0  0  0  0  0  0  0  0  0
   -0.1858   -0.8783    1.4238 H   0  0  0  0  0  0  0  0  0  0  0  0
   -0.2097   -0.4994   -0.6803 C   0  0  0  0  0  0  0  0  0  0  0  0
    0.8421   -0.2066   -0.6019 H   0  0  0  0  0  0  0  0  0  0  0  0
   -0.2330   -1.5468   -1.0003 H   0  0  0  0  0  0  0  0  0  0  0  0
   -0.8849    0.3816   -1.7442 C   0  0  0  0  0  0  0  0  0  0  0  0
   -1.9726    0.2757   -1.6742 H   0  0  0  0  0  0  0  0  0  0  0  0
   -0.6375    1.4336   -1.5674 H   0  0  0  0  0  0  0  0  0  0  0  0
   -0.4384   -0.0295   -3.1511 C   0  0  0  0  0  0  0  0  0  0  0  0
    0.6504    0.0534   -3.2292 H   0  0  0  0  0  0  0  0  0  0  0  0
   -0.7128   -1.0733   -3.3366 H   0  0  0  0  0  0  0  0  0  0  0  0
   -1.0955    0.8585   -4.2034 C   0  0  0  0  0  0  0  0  0  0  0  0
   -2.1859    0.7744   -4.1356 H   0  0  0  0  0  0  0  0  0  0  0  0
   -0.8243    1.9063   -4.0323 H   0  0  0  0  0  0  0  0  0  0  0  0
   -0.6429    0.4297   -5.5305 N   0  0  0  0  0  0  0  0  0  0  0  0
   -1.0679    0.9944   -6.2659 H   0  0  0  0  0  0  0  0  0  0  0  0
    0.3744    0.4533   -5.5964 H   0  0  0  0  0  0  0  0  0  0  0  0
   -1.0540    1.0493    1.2013 C   0  0  0  0  0  0  0  0  0  0  0  0
   -2.0499    1.6870    0.8763 O   0  0  0  0  0  0  0  0  0  0  0  0
   -0.1676    1.5978    2.1099 N   0  0  0  0  0  0  0  0  0  0  0  0
    0.5993    1.0131    2.4298 H   0  0  0  0  0  0  0  0  0  0  0  0
   -0.3461    2.9153    2.7076 C   0  0  0  0  0  0  0  0  0  0  0  0
   -1.2918    2.9620    3.2576 H   0  0  0  0  0  0  0  0  0  0  0  0
    0.4698    3.1278    3.4050 H   0  0  0  0  0  0  0  0  0  0  0  0
   -0.3494    3.6897    1.9335 H   0  0  0  0  0  0  0  0  0  0  0  0
  1  2  1  0  0  0  0
  2  3  1  0  0  0  0
  2  4  1  0  0  0  0
  2  5  1  0  0  0  0
  5  6  2  0  0  0  0
  5  7  1  0  0  0  0
  7  8  1  0  0  0  0
  7  9  1  0  0  0  0
  9 10  1  0  0  0  0
  9 11  1  0  0  0  0
  9 26  1  0  0  0  0
 11 12  1  0  0  0  0
 11 13  1  0  0  0  0
 11 14  1  0  0  0  0
 14 15  1  0  0  0  0
 14 16  1  0  0  0  0
 14 17  1  0  0  0  0
 17 18  1  0  0  0  0
 17 19  1  0  0  0  0
 17 20  1  0  0  0  0
 20 21  1  0  0  0  0
 20 22  1  0  0  0  0
 20 23  1  0  0  0  0
 23 24  1  0  0  0  0
 23 25  1  0  0  0  0
 26 27  2  0  0  0  0
 26 28  1  0  0  0  0
 28 29  1  0  0  0  0
 28 30  1  0  0  0  0
 30 31  1  0  0  0  0
 30 32  1  0  0  0  0
 30 33  1  0  0  0  0
M  END
$$$$

  -OEChem-03222214063D

 33 32  0     1  0  0  0  0  0999 V2000
   -3.6541   -4.0487    1.6293 H   0  0  0  0  0  0  0  0  0  0  0  0
   -3.6931   -3.0456    1.1955 C   0  0  0  0  0  0  0  0  0  0  0  0
   -4.3753   -2.4314    1.7884 H   0  0  0  0  0  0  0  0  0  0  0  0
   -4.0736   -3.1182    0.1738 H   0  0  0  0  0  0  0  0  0  0  0  0
   -2.3093   -2.4239    1.1882 C   0  0  0  0  0  0  0  0  0  0  0  0
   -1.3526   -3.0588    1.6039 O   0  0  0  0  0  0  0  0  0  0  0  0
   -2.1407   -1.1406    0.7119 N   0  0  0  0  0  0  0  0  0  0  0  0
   -2.9779   -0.6228    0.4511 H   0  0  0  0  0  0  0  0  0  0  0  0
   -0.8721   -0.3987    0.7159 C   0  0  1  0  0  0  0  0  0  0  0  0
   -0.1935   -0.8762    1.4301 H   0  0  0  0  0  0  0  0  0  0  0  0
   -0.2118   -0.4990   -0.6730 C   0  0  0  0  0  0  0  0  0  0  0  0
    0.8417   -0.2115   -0.5976 H   0  0  0  0  0  0  0  0  0  0  0  0
   -0.2378   -1.5491   -0.9845 H   0  0  0  0  0  0  0  0  0  0  0  0
   -0.8842    0.3800   -1.7431 C   0  0  0  0  0  0  0  0  0  0  0  0
   -1.9530    0.4777   -1.5268 H   0  0  0  0  0  0  0  0  0  0  0  0
   -0.4467    1.3838   -1.7241 H   0  0  0  0  0  0  0  0  0  0  0  0
   -0.7405   -0.2434   -3.1356 C   0  0  0  0  0  0  0  0  0  0  0  0
    0.3206   -0.3728   -3.3714 H   0  0  0  0  0  0  0  0  0  0  0  0
   -1.2143   -1.2306   -3.1503 H   0  0  0  0  0  0  0  0  0  0  0  0
   -1.3937    0.6433   -4.1911 C   0  0  0  0  0  0  0  0  0  0  0  0
   -2.4583    0.7720   -3.9660 H   0  0  0  0  0  0  0  0  0  0  0  0
   -0.9242    1.6333   -4.1917 H   0  0  0  0  0  0  0  0  0  0  0  0
   -1.2336    0.0070   -5.5021 N   0  0  0  0  0  0  0  0  0  0  0  0
   -1.6615    0.5674   -6.2392 H   0  0  0  0  0  0  0  0  0  0  0  0
   -0.2501   -0.1711   -5.7048 H   0  0  0  0  0  0  0  0  0  0  0  0
   -1.0507    1.0545    1.2051 C   0  0  0  0  0  0  0  0  0  0  0  0
   -2.0434    1.6983    0.8831 O   0  0  0  0  0  0  0  0  0  0  0  0
   -0.1601    1.5992    2.1121 N   0  0  0  0  0  0  0  0  0  0  0  0
    0.6089    1.0138    2.4254 H   0  0  0  0  0  0  0  0  0  0  0  0
   -0.3269    2.9203    2.7058 C   0  0  0  0  0  0  0  0  0  0  0  0
   -1.2732    2.9785    3.2540 H   0  0  0  0  0  0  0  0  0  0  0  0
    0.4898    3.1264    3.4042 H   0  0  0  0  0  0  0  0  0  0  0  0
   -0.3206    3.6928    1.9297 H   0  0  0  0  0  0  0  0  0  0  0  0
  1  2  1  0  0  0  0
  2  3  1  0  0  0  0
  2  4  1  0  0  0  0
  2  5  1  0  0  0  0
  5  6  2  0  0  0  0
  5  7  1  0  0  0  0
  7  8  1  0  0  0  0
  7  9  1  0  0  0  0
  9 10  1  0  0  0  0
  9 11  1  0  0  0  0
  9 26  1  0  0  0  0
 11 12  1  0  0  0  0
 11 13  1  0  0  0  0
 11 14  1  0  0  0  0
 14 15  1  0  0  0  0
 14 16  1  0  0  0  0
 14 17  1  0  0  0  0
 17 18  1  0  0  0  0
 17 19  1  0  0  0  0
 17 20  1  0  0  0  0
 20 21  1  0  0  0  0
 20 22  1  0  0  0  0
 20 23  1  0  0  0  0
 23 24  1  0  0  0  0
 23 25  1  0  0  0  0
 26 27  2  0  0  0  0
 26 28  1  0  0  0  0
 28 29  1  0  0  0  0
 28 30  1  0  0  0  0
 30 31  1  0  0  0  0
 30 32  1  0  0  0  0
 30 33  1  0  0  0  0
M  END
$$$$

  -OEChem-03222214063D

 33 32  0     1  0  0  0  0  0999 V2000
   -3.6515   -4.0420    1.6015 H   0  0  0  0  0  0  0  0  0  0  0  0
   -3.6949   -3.0357    1.1756 C   0  0  0  0  0  0  0  0  0  0  0  0
   -4.3797   -2.4292    1.7733 H   0  0  0  0  0  0  0  0  0  0  0  0
   -4.0752   -3.1017    0.1533 H   0  0  0  0  0  0  0  0  0  0  0  0
   -2.3138   -2.4082    1.1733 C   0  0  0  0  0  0  0  0  0  0  0  0
   -1.3528   -3.0447    1.5769 O   0  0  0  0  0  0  0  0  0  0  0  0
   -2.1523   -1.1181    0.7134 N   0  0  0  0  0  0  0  0  0  0  0  0
   -2.9922   -0.6024    0.4574 H   0  0  0  0  0  0  0  0  0  0  0  0
   -0.8864   -0.3720    0.7160 C   0  0  1  0  0  0  0  0  0  0  0  0
   -0.2077   -0.8562    1.4261 H   0  0  0  0  0  0  0  0  0  0  0  0
   -0.2250   -0.4765   -0.6719 C   0  0  0  0  0  0  0  0  0  0  0  0
    0.8253   -0.1794   -0.5903 H   0  0  0  0  0  0  0  0  0  0  0  0
   -0.2342   -1.5301   -0.9727 H   0  0  0  0  0  0  0  0  0  0  0  0
   -0.8908    0.3908   -1.7590 C   0  0  0  0  0  0  0  0  0  0  0  0
   -1.8835    0.7148   -1.4327 H   0  0  0  0  0  0  0  0  0  0  0  0
   -0.2885    1.2886   -1.9331 H   0  0  0  0  0  0  0  0  0  0  0  0
   -1.0661   -0.3997   -3.0607 C   0  0  0  0  0  0  0  0  0  0  0  0
   -0.0890   -0.7443   -3.4146 H   0  0  0  0  0  0  0  0  0  0  0  0
   -1.6901   -1.2808   -2.8761 H   0  0  0  0  0  0  0  0  0  0  0  0
   -1.7225    0.4633   -4.1338 C   0  0  0  0  0  0  0  0  0  0  0  0
   -2.7051    0.8058   -3.7905 H   0  0  0  0  0  0  0  0  0  0  0  0
   -1.1057    1.3463   -4.3349 H   0  0  0  0  0  0  0  0  0  0  0  0
   -1.8705   -0.3389   -5.3520 N   0  0  0  0  0  0  0  0  0  0  0  0
   -2.3064    0.2016   -6.0992 H   0  0  0  0  0  0  0  0  0  0  0  0
   -0.9725   -0.7176   -5.6526 H   0  0  0  0  0  0  0  0  0  0  0  0
   -1.0512    1.0767    1.2245 C   0  0  0  0  0  0  0  0  0  0  0  0
   -2.0508    1.7265    0.9383 O   0  0  0  0  0  0  0  0  0  0  0  0
   -0.1444    1.6018    2.1271 N   0  0  0  0  0  0  0  0  0  0  0  0
    0.6279    1.0080    2.4158 H   0  0  0  0  0  0  0  0  0  0  0  0
   -0.2994    2.9095    2.7530 C   0  0  0  0  0  0  0  0  0  0  0  0
   -1.2366    2.9568    3.3175 H   0  0  0  0  0  0  0  0  0  0  0  0
    0.5288    3.0983    3.4428 H   0  0  0  0  0  0  0  0  0  0  0  0
   -0.3042    3.6993    1.9946 H   0  0  0  0  0  0  0  0  0  0  0  0
  1  2  1  0  0  0  0
  2  3  1  0  0  0  0
  2  4  1  0  0  0  0
  2  5  1  0  0  0  0
  5  6  2  0  0  0  0
  5  7  1  0  0  0  0
  7  8  1  0  0  0  0
  7  9  1  0  0  0  0
  9 10  1  0  0  0  0
  9 11  1  0  0  0  0
  9 26  1  0  0  0  0
 11 12  1  0  0  0  0
 11 13  1  0  0  0  0
 11 14  1  0  0  0  0
 14 15  1  0  0  0  0
 14 16  1  0  0  0  0
 14 17  1  0  0  0  0
 17 18  1  0  0  0  0
 17 19  1  0  0  0  0
 17 20  1  0  0  0  0
 20 21  1  0  0  0  0
 20 22  1  0  0  0  0
 20 23  1  0  0  0  0
 23 24  1  0  0  0  0
 23 25  1  0  0  0  0
 26 27  2  0  0  0  0
 26 28  1  0  0  0  0
 28 29  1  0  0  0  0
 28 30  1  0  0  0  0
 30 31  1  0  0  0  0
 30 32  1  0  0  0  0
 30 33  1  0  0  0  0
M  END
$$$$

  -OEChem-03222214063D

 33 32  0     1  0  0  0  0  0999 V2000
   -3.6616   -4.0255    1.5675 H   0  0  0  0  0  0  0  0  0  0  0  0
   -3.7033   -3.0158    1.1500 C   0  0  0  0  0  0  0  0  0  0  0  0
   -4.3899   -2.4142    1.7504 H   0  0  0  0  0  0  0  0  0  0  0  0
   -4.0796   -3.0733    0.1257 H   0  0  0  0  0  0  0  0  0  0  0  0
   -2.3223   -2.3881    1.1586 C   0  0  0  0  0  0  0  0  0  0  0  0
   -1.3623   -3.0297    1.5568 O   0  0  0  0  0  0  0  0  0  0  0  0
   -2.1597   -1.0930    0.7130 N   0  0  0  0  0  0  0  0  0  0  0  0
   -2.9987   -0.5766    0.4551 H   0  0  0  0  0  0  0  0  0  0  0  0
   -0.8929   -0.3488    0.7166 C   0  0  1  0  0  0  0  0  0  0  0  0
   -0.2176   -0.8398    1.4246 H   0  0  0  0  0  0  0  0  0  0  0  0
   -0.2307   -0.4645   -0.6711 C   0  0  0  0  0  0  0  0  0  0  0  0
    0.8137   -0.1512   -0.5762 H   0  0  0  0  0  0  0  0  0  0  0  0
   -0.2158   -1.5198   -0.9653 H   0  0  0  0  0  0  0  0  0  0  0  0
   -0.8831    0.3915   -1.7773 C   0  0  0  0  0  0  0  0  0  0  0  0
   -1.7281    0.9637   -1.3867 H   0  0  0  0  0  0  0  0  0  0  0  0
   -0.1492    1.1080   -2.1607 H   0  0  0  0  0  0  0  0  0  0  0  0
   -1.3896   -0.4914   -2.9236 C   0  0  0  0  0  0  0  0  0  0  0  0
   -0.5514   -1.0435   -3.3608 H   0  0  0  0  0  0  0  0  0  0  0  0
   -2.1099   -1.2189   -2.5350 H   0  0  0  0  0  0  0  0  0  0  0  0
   -2.0623    0.3520   -4.0020 C   0  0  0  0  0  0  0  0  0  0  0  0
   -2.9100    0.9004   -3.5758 H   0  0  0  0  0  0  0  0  0  0  0  0
   -1.3519    1.0827   -4.4042 H   0  0  0  0  0  0  0  0  0  0  0  0
   -2.5290   -0.5398   -5.0680 N   0  0  0  0  0  0  0  0  0  0  0  0
   -2.9882   -0.0158   -5.8131 H   0  0  0  0  0  0  0  0  0  0  0  0
   -1.7618   -1.1013   -5.4374 H   0  0  0  0  0  0  0  0  0  0  0  0
   -1.0468    1.0958    1.2422 C   0  0  0  0  0  0  0  0  0  0  0  0
   -2.0541    1.7471    0.9888 O   0  0  0  0  0  0  0  0  0  0  0  0
   -0.1302    1.6062    2.1438 N   0  0  0  0  0  0  0  0  0  0  0  0
    0.6474    1.0096    2.4116 H   0  0  0  0  0  0  0  0  0  0  0  0
   -0.2796    2.9016    2.7961 C   0  0  0  0  0  0  0  0  0  0  0  0
   -1.2124    2.9383    3.3687 H   0  0  0  0  0  0  0  0  0  0  0  0
    0.5539    3.0766    3.4833 H   0  0  0  0  0  0  0  0  0  0  0  0
   -0.2897    3.7057    2.0529 H   0  0  0  0  0  0  0  0  0  0  0  0
  1  2  1  0  0  0  0
  2  3  1  0  0  0  0
  2  4  1  0  0  0  0
  2  5  1  0  0  0  0
  5  6  2  0  0  0  0
  5  7  1  0  0  0  0
  7  8  1  0  0  0  0
  7  9  1  0  0  0  0
  9 10  1  0  0  0  0
  9 11  1  0  0  0  0
  9 26  1  0  0  0  0
 11 12  1  0  0  0  0
 11 13  1  0  0  0  0
 11 14  1  0  0  0  0
 14 15  1  0  0  0  0
 14 16  1  0  0  0  0
 14 17  1  0  0  0  0
 17 18  1  0  0  0  0
 17 19  1  0  0  0  0
 17 20  1  0  0  0  0
 20 21  1  0  0  0  0
 20 22  1  0  0  0  0
 20 23  1  0  0  0  0
 23 24  1  0  0  0  0
 23 25  1  0  0  0  0
 26 27  2  0  0  0  0
 26 28  1  0  0  0  0
 28 29  1  0  0  0  0
 28 30  1  0  0  0  0
 30 31  1  0  0  0  0
 30 32  1  0  0  0  0
 30 33  1  0  0  0  0
M  END
$$$$

  -OEChem-03222214063D

 33 32  0     1  0  0  0  0  0999 V2000
   -3.6755   -4.0105    1.5512 H   0  0  0  0  0  0  0  0  0  0  0  0
   -3.7133   -2.9954    1.1463 C   0  0  0  0  0  0  0  0  0  0  0  0
   -4.4003   -2.3993    1.7517 H   0  0  0  0  0  0  0  0  0  0  0  0
   -4.0864   -3.0384    0.1202 H   0  0  0  0  0  0  0  0  0  0  0  0
   -2.3304   -2.3726    1.1662 C   0  0  0  0  0  0  0  0  0  0  0  0
   -1.3748   -3.0183    1.5683 O   0  0  0  0  0  0  0  0  0  0  0  0
   -2.1599   -1.0796    0.7186 N   0  0  0  0  0  0  0  0  0  0  0  0
   -2.9949   -0.5602    0.4532 H   0  0  0  0  0  0  0  0  0  0  0  0
   -0.8894   -0.3428    0.7177 C   0  0  1  0  0  0  0  0  0  0  0  0
   -0.2163   -0.8331    1.4286 H   0  0  0  0  0  0  0  0  0  0  0  0
   -0.2272   -0.4734   -0.6695 C   0  0  0  0  0  0  0  0  0  0  0  0
    0.8121   -0.1467   -0.5638 H   0  0  0  0  0  0  0  0  0  0  0  0
   -0.1952   -1.5294   -0.9595 H   0  0  0  0  0  0  0  0  0  0  0  0
   -0.8664    0.3738   -1.7897 C   0  0  0  0  0  0  0  0  0  0  0  0
   -1.4935    1.1721   -1.3875 H   0  0  0  0  0  0  0  0  0  0  0  0
   -0.0690    0.8507   -2.3690 H   0  0  0  0  0  0  0  0  0  0  0  0
   -1.6961   -0.5058   -2.7329 C   0  0  0  0  0  0  0  0  0  0  0  0
   -1.0495   -1.2506   -3.2079 H   0  0  0  0  0  0  0  0  0  0  0  0
   -2.4616   -1.0385   -2.1595 H   0  0  0  0  0  0  0  0  0  0  0  0
   -2.3744    0.3395   -3.8059 C   0  0  0  0  0  0  0  0  0  0  0  0
   -3.0357    1.0779   -3.3387 H   0  0  0  0  0  0  0  0  0  0  0  0
   -1.6213    0.8792   -4.3907 H   0  0  0  0  0  0  0  0  0  0  0  0
   -3.1513   -0.5480   -4.6769 N   0  0  0  0  0  0  0  0  0  0  0  0
   -3.6298   -0.0209   -5.4075 H   0  0  0  0  0  0  0  0  0  0  0  0
   -2.5596   -1.2743   -5.0805 H   0  0  0  0  0  0  0  0  0  0  0  0
   -1.0413    1.1018    1.2419 C   0  0  0  0  0  0  0  0  0  0  0  0
   -2.0521    1.7507    0.9955 O   0  0  0  0  0  0  0  0  0  0  0  0
   -0.1229    1.6107    2.1419 N   0  0  0  0  0  0  0  0  0  0  0  0
    0.6530    1.0119    2.4098 H   0  0  0  0  0  0  0  0  0  0  0  0
   -0.2814    2.8979    2.8075 C   0  0  0  0  0  0  0  0  0  0  0  0
   -1.2062    2.9152    3.3941 H   0  0  0  0  0  0  0  0  0  0  0  0
    0.5598    3.0798    3.4832 H   0  0  0  0  0  0  0  0  0  0  0  0
   -0.3149    3.7079    2.0714 H   0  0  0  0  0  0  0  0  0  0  0  0
  1  2  1  0  0  0  0
  2  3  1  0  0  0  0
  2  4  1  0  0  0  0
  2  5  1  0  0  0  0
  5  6  2  0  0  0  0
  5  7  1  0  0  0  0
  7  8  1  0  0  0  0
  7  9  1  0  0  0  0
  9 10  1  0  0  0  0
  9 11  1  0  0  0  0
  9 26  1  0  0  0  0
 11 12  1  0  0  0  0
 11 13  1  0  0  0  0
 11 14  1  0  0  0  0
 14 15  1  0  0  0  0
 14 16  1  0  0  0  0
 14 17  1  0  0  0  0
 17 18  1  0  0  0  0
 17 19  1  0  0  0  0
 17 20  1  0  0  0  0
 20 21  1  0  0  0  0
 20 22  1  0  0  0  0
 20 23  1  0  0  0  0
 23 24  1  0  0  0  0
 23 25  1  0  0  0  0
 26 27  2  0  0  0  0
 26 28  1  0  0  0  0
 28 29  1  0  0  0  0
 28 30  1  0  0  0  0
 30 31  1  0  0  0  0
 30 32  1  0  0  0  0
 30 33  1  0  0  0  0
M  END
$$$$

  -OEChem-03222214063D

 33 32  0     1  0  0  0  0  0999 V2000
   -3.6657   -4.0227    1.6348 H   0  0  0  0  0  0  0  0  0  0  0  0
   -3.7094   -3.0101    1.2246 C   0  0  0  0  0  0  0  0  0  0  0  0
   -4.3802   -2.4079    1.8420 H   0  0  0  0  0  0  0  0  0  0  0  0
   -4.1062   -3.0575    0.2076 H   0  0  0  0  0  0  0  0  0  0  0  0
   -2.3242   -2.3925    1.2097 C   0  0  0  0  0  0  0  0  0  0  0  0
   -1.3625   -3.0377    1.5981 O   0  0  0  0  0  0  0  0  0  0  0  0
   -2.1600   -1.1030    0.7507 N   0  0  0  0  0  0  0  0  0  0  0  0
   -2.9984   -0.5867    0.4895 H   0  0  0  0  0  0  0  0  0  0  0  0
   -0.8909   -0.3654    0.7261 C   0  0  1  0  0  0  0  0  0  0  0  0
   -0.2069   -0.8505    1.4296 H   0  0  0  0  0  0  0  0  0  0  0  0
   -0.2395   -0.4836   -0.6693 C   0  0  0  0  0  0  0  0  0  0  0  0
    0.7987   -0.1526   -0.5668 H   0  0  0  0  0  0  0  0  0  0  0  0
   -0.2070   -1.5367   -0.9689 H   0  0  0  0  0  0  0  0  0  0  0  0
   -0.8812    0.3634   -1.7879 C   0  0  0  0  0  0  0  0  0  0  0  0
   -1.2668    1.3109   -1.4037 H   0  0  0  0  0  0  0  0  0  0  0  0
   -0.1046    0.6086   -2.5195 H   0  0  0  0  0  0  0  0  0  0  0  0
   -1.9932   -0.4076   -2.5125 C   0  0  0  0  0  0  0  0  0  0  0  0
   -1.5809   -1.3223   -2.9504 H   0  0  0  0  0  0  0  0  0  0  0  0
   -2.7730   -0.6950   -1.8021 H   0  0  0  0  0  0  0  0  0  0  0  0
   -2.6200    0.4453   -3.6103 C   0  0  0  0  0  0  0  0  0  0  0  0
   -3.0624    1.3489   -3.1756 H   0  0  0  0  0  0  0  0  0  0  0  0
   -1.8548    0.7538   -4.3311 H   0  0  0  0  0  0  0  0  0  0  0  0
   -3.6550   -0.3483   -4.2808 N   0  0  0  0  0  0  0  0  0  0  0  0
   -4.1151    0.1907   -5.0145 H   0  0  0  0  0  0  0  0  0  0  0  0
   -3.2666   -1.2141   -4.6546 H   0  0  0  0  0  0  0  0  0  0  0  0
   -1.0488    1.0802    1.2437 C   0  0  0  0  0  0  0  0  0  0  0  0
   -2.0619    1.7232    0.9916 O   0  0  0  0  0  0  0  0  0  0  0  0
   -0.1248    1.6029    2.1301 N   0  0  0  0  0  0  0  0  0  0  0  0
    0.6530    1.0081    2.4013 H   0  0  0  0  0  0  0  0  0  0  0  0
   -0.2859    2.8948    2.7861 C   0  0  0  0  0  0  0  0  0  0  0  0
   -1.1964    2.9049    3.3945 H   0  0  0  0  0  0  0  0  0  0  0  0
    0.5686    3.0961    3.4392 H   0  0  0  0  0  0  0  0  0  0  0  0
   -0.3493    3.6968    2.0433 H   0  0  0  0  0  0  0  0  0  0  0  0
  1  2  1  0  0  0  0
  2  3  1  0  0  0  0
  2  4  1  0  0  0  0
  2  5  1  0  0  0  0
  5  6  2  0  0  0  0
  5  7  1  0  0  0  0
  7  8  1  0  0  0  0
  7  9  1  0  0  0  0
  9 10  1  0  0  0  0
  9 11  1  0  0  0  0
  9 26  1  0  0  0  0
 11 12  1  0  0  0  0
 11 13  1  0  0  0  0
 11 14  1  0  0  0  0
 14 15  1  0  0  0  0
 14 16  1  0  0  0  0
 14 17  1  0  0  0  0
 17 18  1  0  0  0  0
 17 19  1  0  0  0  0
 17 20  1  0  0  0  0
 20 21  1  0  0  0  0
 20 22  1  0  0  0  0
 20 23  1  0  0  0  0
 23 24  1  0  0  0  0
 23 25  1  0  0  0  0
 26 27  2  0  0  0  0
 26 28  1  0  0  0  0
 28 29  1  0  0  0  0
 28 30  1  0  0  0  0
 30 31  1  0  0  0  0
 30 32  1  0  0  0  0
 30 33  1  0  0  0  0
M  END
$$$$

  -OEChem-03222214063D

 33 32  0     1  0  0  0  0  0999 V2000
   -3.6268   -4.0650    1.7266 H   0  0  0  0  0  0  0  0  0  0  0  0
   -3.6840   -3.0555    1.3101 C   0  0  0  0  0  0  0  0  0  0  0  0
   -4.3380   -2.4502    1.9422 H   0  0  0  0  0  0  0  0  0  0  0  0
   -4.1109   -3.1115    0.3058 H   0  0  0  0  0  0  0  0  0  0  0  0
   -2.3010   -2.4344    1.2504 C   0  0  0  0  0  0  0  0  0  0  0  0
   -1.3257   -3.0780    1.6060 O   0  0  0  0  0  0  0  0  0  0  0  0
   -2.1534   -1.1433    0.7904 N   0  0  0  0  0  0  0  0  0  0  0  0
   -3.0005   -0.6264    0.5590 H   0  0  0  0  0  0  0  0  0  0  0  0
   -0.8886   -0.3986    0.7416 C   0  0  1  0  0  0  0  0  0  0  0  0
   -0.1842   -0.8836    1.4249 H   0  0  0  0  0  0  0  0  0  0  0  0
   -0.2639   -0.4766   -0.6699 C   0  0  0  0  0  0  0  0  0  0  0  0
    0.7782   -0.1528   -0.5837 H   0  0  0  0  0  0  0  0  0  0  0  0
   -0.2470   -1.5219   -0.9964 H   0  0  0  0  0  0  0  0  0  0  0  0
   -0.9230    0.3888   -1.7644 C   0  0  0  0  0  0  0  0  0  0  0  0
   -1.0644    1.4160   -1.4153 H   0  0  0  0  0  0  0  0  0  0  0  0
   -0.2350    0.4323   -2.6149 H   0  0  0  0  0  0  0  0  0  0  0  0
   -2.2587   -0.1869   -2.2554 C   0  0  0  0  0  0  0  0  0  0  0  0
   -2.1183   -1.2282   -2.5627 H   0  0  0  0  0  0  0  0  0  0  0  0
   -2.9963   -0.1646   -1.4494 H   0  0  0  0  0  0  0  0  0  0  0  0
   -2.8030    0.6219   -3.4279 C   0  0  0  0  0  0  0  0  0  0  0  0
   -2.9925    1.6544   -3.1133 H   0  0  0  0  0  0  0  0  0  0  0  0
   -2.0728    0.6430   -4.2445 H   0  0  0  0  0  0  0  0  0  0  0  0
   -4.0496   -0.0027   -3.8827 N   0  0  0  0  0  0  0  0  0  0  0  0
   -4.4661    0.5227   -4.6513 H   0  0  0  0  0  0  0  0  0  0  0  0
   -3.8962   -0.9755   -4.1477 H   0  0  0  0  0  0  0  0  0  0  0  0
   -1.0551    1.0429    1.2667 C   0  0  0  0  0  0  0  0  0  0  0  0
   -2.0701    1.6814    1.0116 O   0  0  0  0  0  0  0  0  0  0  0  0
   -0.1252    1.5795    2.1387 N   0  0  0  0  0  0  0  0  0  0  0  0
    0.6623    0.9954    2.4052 H   0  0  0  0  0  0  0  0  0  0  0  0
   -0.2800    2.8855    2.7679 C   0  0  0  0  0  0  0  0  0  0  0  0
   -1.1889    2.9110    3.3782 H   0  0  0  0  0  0  0  0  0  0  0  0
    0.5766    3.0985    3.4146 H   0  0  0  0  0  0  0  0  0  0  0  0
   -0.3429    3.6716    2.0081 H   0  0  0  0  0  0  0  0  0  0  0  0
  1  2  1  0  0  0  0
  2  3  1  0  0  0  0
  2  4  1  0  0  0  0
  2  5  1  0  0  0  0
  5  6  2  0  0  0  0
  5  7  1  0  0  0  0
  7  8  1  0  0  0  0
  7  9  1  0  0  0  0
  9 10  1  0  0  0  0
  9 11  1  0  0  0  0
  9 26  1  0  0  0  0
 11 12  1  0  0  0  0
 11 13  1  0  0  0  0
 11 14  1  0  0  0  0
 14 15  1  0  0  0  0
 14 16  1  0  0  0  0
 14 17  1  0  0  0  0
 17 18  1  0  0  0  0
 17 19  1  0  0  0  0
 17 20  1  0  0  0  0
 20 21  1  0  0  0  0
 20 22  1  0  0  0  0
 20 23  1  0  0  0  0
 23 24  1  0  0  0  0
 23 25  1  0  0  0  0
 26 27  2  0  0  0  0
 26 28  1  0  0  0  0
 28 29  1  0  0  0  0
 28 30  1  0  0  0  0
 30 31  1  0  0  0  0
 30 32  1  0  0  0  0
 30 33  1  0  0  0  0
M  END
$$$$

  -OEChem-03222214063D

 33 32  0     1  0  0  0  0  0999 V2000
   -3.5948   -4.0957    1.7572 H   0  0  0  0  0  0  0  0  0  0  0  0
   -3.6636   -3.0853    1.3446 C   0  0  0  0  0  0  0  0  0  0  0  0
   -4.3181   -2.4874    1.9837 H   0  0  0  0  0  0  0  0  0  0  0  0
   -4.0963   -3.1415    0.3428 H   0  0  0  0  0  0  0  0  0  0  0  0
   -2.2868   -2.4522    1.2767 C   0  0  0  0  0  0  0  0  0  0  0  0
   -1.3028   -3.0908    1.6172 O   0  0  0  0  0  0  0  0  0  0  0  0
   -2.1554   -1.1575    0.8219 N   0  0  0  0  0  0  0  0  0  0  0  0
   -3.0092   -0.6486    0.5975 H   0  0  0  0  0  0  0  0  0  0  0  0
   -0.8969   -0.4025    0.7606 C   0  0  1  0  0  0  0  0  0  0  0  0
   -0.1813   -0.8883    1.4319 H   0  0  0  0  0  0  0  0  0  0  0  0
   -0.2844   -0.4590   -0.6569 C   0  0  0  0  0  0  0  0  0  0  0  0
    0.7621   -0.1467   -0.5829 H   0  0  0  0  0  0  0  0  0  0  0  0
   -0.2838   -1.5020   -0.9905 H   0  0  0  0  0  0  0  0  0  0  0  0
   -0.9512    0.4074   -1.7471 C   0  0  0  0  0  0  0  0  0  0  0  0
   -0.8717    1.4652   -1.4752 H   0  0  0  0  0  0  0  0  0  0  0  0
   -0.3894    0.2681   -2.6763 H   0  0  0  0  0  0  0  0  0  0  0  0
   -2.4269    0.0662   -2.0051 C   0  0  0  0  0  0  0  0  0  0  0  0
   -2.5259   -1.0091   -2.1844 H   0  0  0  0  0  0  0  0  0  0  0  0
   -3.0353    0.3271   -1.1352 H   0  0  0  0  0  0  0  0  0  0  0  0
   -2.9590    0.8353   -3.2099 C   0  0  0  0  0  0  0  0  0  0  0  0
   -2.9315    1.9115   -3.0054 H   0  0  0  0  0  0  0  0  0  0  0  0
   -2.3358    0.6397   -4.0895 H   0  0  0  0  0  0  0  0  0  0  0  0
   -4.3376    0.4061   -3.4683 N   0  0  0  0  0  0  0  0  0  0  0  0
   -4.7510    0.9362   -4.2356 H   0  0  0  0  0  0  0  0  0  0  0  0
   -4.3802   -0.5957   -3.6537 H   0  0  0  0  0  0  0  0  0  0  0  0
   -1.0539    1.0374    1.2932 C   0  0  0  0  0  0  0  0  0  0  0  0
   -2.0622    1.6880    1.0447 O   0  0  0  0  0  0  0  0  0  0  0  0
   -0.1075    1.5665    2.1521 N   0  0  0  0  0  0  0  0  0  0  0  0
    0.6729    0.9714    2.4149 H   0  0  0  0  0  0  0  0  0  0  0  0
   -0.2393    2.8749    2.7815 C   0  0  0  0  0  0  0  0  0  0  0  0
   -1.1431    2.9141    3.3986 H   0  0  0  0  0  0  0  0  0  0  0  0
    0.6255    3.0753    3.4213 H   0  0  0  0  0  0  0  0  0  0  0  0
   -0.2968    3.6615    2.0218 H   0  0  0  0  0  0  0  0  0  0  0  0
  1  2  1  0  0  0  0
  2  3  1  0  0  0  0
  2  4  1  0  0  0  0
  2  5  1  0  0  0  0
  5  6  2  0  0  0  0
  5  7  1  0  0  0  0
  7  8  1  0  0  0  0
  7  9  1  0  0  0  0
  9 10  1  0  0  0  0
  9 11  1  0  0  0  0
  9 26  1  0  0  0  0
 11 12  1  0  0  0  0
 11 13  1  0  0  0  0
 11 14  1  0  0  0  0
 14 15  1  0  0  0  0
 14 16  1  0  0  0  0
 14 17  1  0  0  0  0
 17 18  1  0  0  0  0
 17 19  1  0  0  0  0
 17 20  1  0  0  0  0
 20 21  1  0  0  0  0
 20 22  1  0  0  0  0
 20 23  1  0  0  0  0
 23 24  1  0  0  0  0
 23 25  1  0  0  0  0
 26 27  2  0  0  0  0
 26 28  1  0  0  0  0
 28 29  1  0  0  0  0
 28 30  1  0  0  0  0
 30 31  1  0  0  0  0
 30 32  1  0  0  0  0
 30 33  1  0  0  0  0
M  END
$$$$

  -OEChem-03222214063D

 33 32  0     1  0  0  0  0  0999 V2000
   -3.5431   -4.1150    1.7782 H   0  0  0  0  0  0  0  0  0  0  0  0
   -3.6409   -3.0947    1.3968 C   0  0  0  0  0  0  0  0  0  0  0  0
   -4.2731   -2.5224    2.0801 H   0  0  0  0  0  0  0  0  0  0  0  0
   -4.1167   -3.1290    0.4138 H   0  0  0  0  0  0  0  0  0  0  0  0
   -2.2751   -2.4441    1.2865 C   0  0  0  0  0  0  0  0  0  0  0  0
   -1.2710   -3.0812    1.5649 O   0  0  0  0  0  0  0  0  0  0  0  0
   -2.1764   -1.1362    0.8618 N   0  0  0  0  0  0  0  0  0  0  0  0
   -3.0444   -0.6303    0.6919 H   0  0  0  0  0  0  0  0  0  0  0  0
   -0.9314   -0.3608    0.7760 C   0  0  1  0  0  0  0  0  0  0  0  0
   -0.2070   -0.8536    1.4327 H   0  0  0  0  0  0  0  0  0  0  0  0
   -0.3170   -0.4198   -0.6400 C   0  0  0  0  0  0  0  0  0  0  0  0
    0.7291   -0.1048   -0.5716 H   0  0  0  0  0  0  0  0  0  0  0  0
   -0.3135   -1.4693   -0.9532 H   0  0  0  0  0  0  0  0  0  0  0  0
   -0.9809    0.4084   -1.7628 C   0  0  0  0  0  0  0  0  0  0  0  0
   -0.7089    1.4599   -1.6217 H   0  0  0  0  0  0  0  0  0  0  0  0
   -0.5593    0.0862   -2.7207 H   0  0  0  0  0  0  0  0  0  0  0  0
   -2.5149    0.3203   -1.8291 C   0  0  0  0  0  0  0  0  0  0  0  0
   -2.8082   -0.7307   -1.9150 H   0  0  0  0  0  0  0  0  0  0  0  0
   -2.9727    0.7275   -0.9263 H   0  0  0  0  0  0  0  0  0  0  0  0
   -3.0499    1.0948   -3.0298 C   0  0  0  0  0  0  0  0  0  0  0  0
   -2.8446    2.1637   -2.9034 H   0  0  0  0  0  0  0  0  0  0  0  0
   -2.5551    0.7594   -3.9480 H   0  0  0  0  0  0  0  0  0  0  0  0
   -4.4954    0.8674   -3.1310 N   0  0  0  0  0  0  0  0  0  0  0  0
   -4.9035    1.4173   -3.8869 H   0  0  0  0  0  0  0  0  0  0  0  0
   -4.7034   -0.1237   -3.2480 H   0  0  0  0  0  0  0  0  0  0  0  0
   -1.0503    1.0711    1.3428 C   0  0  0  0  0  0  0  0  0  0  0  0
   -2.0761    1.7242    1.2007 O   0  0  0  0  0  0  0  0  0  0  0  0
   -0.0574    1.5685    2.1683 N   0  0  0  0  0  0  0  0  0  0  0  0
    0.7363    0.9650    2.3629 H   0  0  0  0  0  0  0  0  0  0  0  0
   -0.1624    2.8408    2.8730 C   0  0  0  0  0  0  0  0  0  0  0  0
   -1.0181    2.8307    3.5563 H   0  0  0  0  0  0  0  0  0  0  0  0
    0.7443    3.0253    3.4569 H   0  0  0  0  0  0  0  0  0  0  0  0
   -0.2886    3.6639    2.1620 H   0  0  0  0  0  0  0  0  0  0  0  0
  1  2  1  0  0  0  0
  2  3  1  0  0  0  0
  2  4  1  0  0  0  0
  2  5  1  0  0  0  0
  5  6  2  0  0  0  0
  5  7  1  0  0  0  0
  7  8  1  0  0  0  0
  7  9  1  0  0  0  0
  9 10  1  0  0  0  0
  9 11  1  0  0  0  0
  9 26  1  0  0  0  0
 11 12  1  0  0  0  0
 11 13  1  0  0  0  0
 11 14  1  0  0  0  0
 14 15  1  0  0  0  0
 14 16  1  0  0  0  0
 14 17  1  0  0  0  0
 17 18  1  0  0  0  0
 17 19  1  0  0  0  0
 17 20  1  0  0  0  0
 20 21  1  0  0  0  0
 20 22  1  0  0  0  0
 20 23  1  0  0  0  0
 23 24  1  0  0  0  0
 23 25  1  0  0  0  0
 26 27  2  0  0  0  0
 26 28  1  0  0  0  0
 28 29  1  0  0  0  0
 28 30  1  0  0  0  0
 30 31  1  0  0  0  0
 30 32  1  0  0  0  0
 30 33  1  0  0  0  0
M  END
$$$$

  -OEChem-03222214063D

 33 32  0     1  0  0  0  0  0999 V2000
   -3.4755   -4.1293    1.7729 H   0  0  0  0  0  0  0  0  0  0  0  0
   -3.6031   -3.0916    1.4528 C   0  0  0  0  0  0  0  0  0  0  0  0
   -4.1767   -2.5562    2.2133 H   0  0  0  0  0  0  0  0  0  0  0  0
   -4.1577   -3.0781    0.5115 H   0  0  0  0  0  0  0  0  0  0  0  0
   -2.2503   -2.4318    1.2636 C   0  0  0  0  0  0  0  0  0  0  0  0
   -1.2270   -3.0794    1.4232 O   0  0  0  0  0  0  0  0  0  0  0  0
   -2.1875   -1.1037    0.8983 N   0  0  0  0  0  0  0  0  0  0  0  0
   -3.0658   -0.5890    0.8552 H   0  0  0  0  0  0  0  0  0  0  0  0
   -0.9566   -0.3091    0.7868 C   0  0  1  0  0  0  0  0  0  0  0  0
   -0.2188   -0.8187    1.4148 H   0  0  0  0  0  0  0  0  0  0  0  0
   -0.3495   -0.3505   -0.6336 C   0  0  0  0  0  0  0  0  0  0  0  0
    0.6956   -0.0318   -0.5662 H   0  0  0  0  0  0  0  0  0  0  0  0
   -0.3382   -1.4020   -0.9398 H   0  0  0  0  0  0  0  0  0  0  0  0
   -1.0068    0.4536   -1.7795 C   0  0  0  0  0  0  0  0  0  0  0  0
   -0.5450    1.4464   -1.8002 H   0  0  0  0  0  0  0  0  0  0  0  0
   -0.7584   -0.0401   -2.7248 H   0  0  0  0  0  0  0  0  0  0  0  0
   -2.5277    0.6599   -1.6986 C   0  0  0  0  0  0  0  0  0  0  0  0
   -3.0188   -0.3110   -1.5823 H   0  0  0  0  0  0  0  0  0  0  0  0
   -2.7959    1.2844   -0.8470 H   0  0  0  0  0  0  0  0  0  0  0  0
   -3.0440    1.3314   -2.9682 C   0  0  0  0  0  0  0  0  0  0  0  0
   -2.6015    2.3288   -3.0687 H   0  0  0  0  0  0  0  0  0  0  0  0
   -2.7604    0.7427   -3.8476 H   0  0  0  0  0  0  0  0  0  0  0  0
   -4.5044    1.4356   -2.8876 N   0  0  0  0  0  0  0  0  0  0  0  0
   -4.8884    1.9060   -3.7068 H   0  0  0  0  0  0  0  0  0  0  0  0
   -4.9320    0.5194   -2.7581 H   0  0  0  0  0  0  0  0  0  0  0  0
   -1.0495    1.0949    1.4244 C   0  0  0  0  0  0  0  0  0  0  0  0
   -2.1146    1.6972    1.4660 O   0  0  0  0  0  0  0  0  0  0  0  0
   -0.0106    1.5547    2.2146 N   0  0  0  0  0  0  0  0  0  0  0  0
    0.8193    0.9730    2.2826 H   0  0  0  0  0  0  0  0  0  0  0  0
   -0.0980    2.7536    3.0401 C   0  0  0  0  0  0  0  0  0  0  0  0
   -0.8746    2.6366    3.8033 H   0  0  0  0  0  0  0  0  0  0  0  0
    0.8564    2.9374    3.5426 H   0  0  0  0  0  0  0  0  0  0  0  0
   -0.3372    3.6271    2.4243 H   0  0  0  0  0  0  0  0  0  0  0  0
  1  2  1  0  0  0  0
  2  3  1  0  0  0  0
  2  4  1  0  0  0  0
  2  5  1  0  0  0  0
  5  6  2  0  0  0  0
  5  7  1  0  0  0  0
  7  8  1  0  0  0  0
  7  9  1  0  0  0  0
  9 10  1  0  0  0  0
  9 11  1  0  0  0  0
  9 26  1  0  0  0  0
 11 12  1  0  0  0  0
 11 13  1  0  0  0  0
 11 14  1  0  0  0  0
 14 15  1  0  0  0  0
 14 16  1  0  0  0  0
 14 17  1  0  0  0  0
 17 18  1  0  0  0  0
 17 19  1  0  0  0  0
 17 20  1  0  0  0  0
 20 21  1  0  0  0  0
 20 22  1  0  0  0  0
 20 23  1  0  0  0  0
 23 24  1  0  0  0  0
 23 25  1  0  0  0  0
 26 27  2  0  0  0  0
 26 28  1  0  0  0  0
 28 29  1  0  0  0  0
 28 30  1  0  0  0  0
 30 31  1  0  0  0  0
 30 32  1  0  0  0  0
 30 33  1  0  0  0  0
M  END
$$$$

  -OEChem-03222214063D

 33 32  0     1  0  0  0  0  0999 V2000
   -3.1911   -4.2976    2.0655 H   0  0  0  0  0  0  0  0  0  0  0  0
   -3.4066   -3.3137    1.6396 C   0  0  0  0  0  0  0  0  0  0  0  0
   -4.0407   -2.7598    2.3360 H   0  0  0  0  0  0  0  0  0  0  0  0
   -3.9428   -3.4464    0.6969 H   0  0  0  0  0  0  0  0  0  0  0  0
   -2.1153   -2.5547    1.3980 C   0  0  0  0  0  0  0  0  0  0  0  0
   -1.0422   -3.0847    1.6425 O   0  0  0  0  0  0  0  0  0  0  0  0
   -2.1614   -1.2682    0.9029 N   0  0  0  0  0  0  0  0  0  0  0  0
   -3.0807   -0.8422    0.7939 H   0  0  0  0  0  0  0  0  0  0  0  0
   -1.0020   -0.3798    0.7372 C   0  0  1  0  0  0  0  0  0  0  0  0
   -0.2373   -0.7564    1.4242 H   0  0  0  0  0  0  0  0  0  0  0  0
   -0.3623   -0.5030   -0.6640 C   0  0  0  0  0  0  0  0  0  0  0  0
    0.6492   -0.0892   -0.5985 H   0  0  0  0  0  0  0  0  0  0  0  0
   -0.2446   -1.5749   -0.8567 H   0  0  0  0  0  0  0  0  0  0  0  0
   -1.0245    0.1137   -1.9257 C   0  0  0  0  0  0  0  0  0  0  0  0
   -0.4167    0.9769   -2.2161 H   0  0  0  0  0  0  0  0  0  0  0  0
   -0.9220   -0.6148   -2.7371 H   0  0  0  0  0  0  0  0  0  0  0  0
   -2.5025    0.5614   -1.8831 C   0  0  0  0  0  0  0  0  0  0  0  0
   -3.0001    0.2534   -0.9646 H   0  0  0  0  0  0  0  0  0  0  0  0
   -3.0264    0.0566   -2.7009 H   0  0  0  0  0  0  0  0  0  0  0  0
   -2.6665    2.0701   -2.0724 C   0  0  0  0  0  0  0  0  0  0  0  0
   -2.2636    2.6073   -1.2077 H   0  0  0  0  0  0  0  0  0  0  0  0
   -2.1174    2.4009   -2.9606 H   0  0  0  0  0  0  0  0  0  0  0  0
   -4.0936    2.3690   -2.2374 N   0  0  0  0  0  0  0  0  0  0  0  0
   -4.2573    3.3741   -2.2877 H   0  0  0  0  0  0  0  0  0  0  0  0
   -4.4788    1.8925   -3.0516 H   0  0  0  0  0  0  0  0  0  0  0  0
   -1.2405    1.0633    1.2304 C   0  0  0  0  0  0  0  0  0  0  0  0
   -2.3559    1.5646    1.1832 O   0  0  0  0  0  0  0  0  0  0  0  0
   -0.2734    1.6943    1.9929 N   0  0  0  0  0  0  0  0  0  0  0  0
    0.5976    1.1956    2.1501 H   0  0  0  0  0  0  0  0  0  0  0  0
   -0.4983    2.9533    2.6934 C   0  0  0  0  0  0  0  0  0  0  0  0
   -1.2984    2.8426    3.4329 H   0  0  0  0  0  0  0  0  0  0  0  0
    0.4126    3.2648    3.2134 H   0  0  0  0  0  0  0  0  0  0  0  0
   -0.7784    3.7412    1.9863 H   0  0  0  0  0  0  0  0  0  0  0  0
  1  2  1  0  0  0  0
  2  3  1  0  0  0  0
  2  4  1  0  0  0  0
  2  5  1  0  0  0  0
  5  6  2  0  0  0  0
  5  7  1  0  0  0  0
  7  8  1  0  0  0  0
  7  9  1  0  0  0  0
  9 10  1  0  0  0  0
  9 11  1  0  0  0  0
  9 26  1  0  0  0  0
 11 12  1  0  0  0  0
 11 13  1  0  0  0  0
 11 14  1  0  0  0  0
 14 15  1  0  0  0  0
 14 16  1  0  0  0  0
 14 17  1  0  0  0  0
 17 18  1  0  0  0  0
 17 19  1  0  0  0  0
 17 20  1  0  0  0  0
 20 21  1  0  0  0  0
 20 22  1  0  0  0  0
 20 23  1  0  0  0  0
 23 24  1  0  0  0  0
 23 25  1  0  0  0  0
 26 27  2  0  0  0  0
 26 28  1  0  0  0  0
 28 29  1  0  0  0  0
 28 30  1  0  0  0  0
 30 31  1  0  0  0  0
 30 32  1  0  0  0  0
 30 33  1  0  0  0  0
M  END
$$$$

  -OEChem-03222214063D

 33 32  0     1  0  0  0  0  0999 V2000
   -3.3350   -4.2932    1.7382 H   0  0  0  0  0  0  0  0  0  0  0  0
   -3.5300   -3.2983    1.3281 C   0  0  0  0  0  0  0  0  0  0  0  0
   -4.2141   -2.7699    1.9966 H   0  0  0  0  0  0  0  0  0  0  0  0
   -4.0007   -3.4070    0.3480 H   0  0  0  0  0  0  0  0  0  0  0  0
   -2.2322   -2.5239    1.1957 C   0  0  0  0  0  0  0  0  0  0  0  0
   -1.1735   -3.0510    1.5005 O   0  0  0  0  0  0  0  0  0  0  0  0
   -2.2566   -1.2273    0.7258 N   0  0  0  0  0  0  0  0  0  0  0  0
   -3.1710   -0.8018    0.5844 H   0  0  0  0  0  0  0  0  0  0  0  0
   -1.0966   -0.3252    0.6800 C   0  0  1  0  0  0  0  0  0  0  0  0
   -0.3928   -0.6990    1.4311 H   0  0  0  0  0  0  0  0  0  0  0  0
   -0.3348   -0.4601   -0.6632 C   0  0  0  0  0  0  0  0  0  0  0  0
    0.6506   -0.0112   -0.5019 H   0  0  0  0  0  0  0  0  0  0  0  0
   -0.1612   -1.5287   -0.8306 H   0  0  0  0  0  0  0  0  0  0  0  0
   -0.8717    0.1364   -1.9935 C   0  0  0  0  0  0  0  0  0  0  0  0
   -0.0966    0.7736   -2.4331 H   0  0  0  0  0  0  0  0  0  0  0  0
   -0.9965   -0.7084   -2.6790 H   0  0  0  0  0  0  0  0  0  0  0  0
   -2.2071    0.8950   -1.9957 C   0  0  0  0  0  0  0  0  0  0  0  0
   -2.8701    0.5140   -1.2174 H   0  0  0  0  0  0  0  0  0  0  0  0
   -2.7153    0.7191   -2.9492 H   0  0  0  0  0  0  0  0  0  0  0  0
   -1.9816    2.4034   -1.8584 C   0  0  0  0  0  0  0  0  0  0  0  0
   -1.1826    2.6121   -1.1395 H   0  0  0  0  0  0  0  0  0  0  0  0
   -1.6772    2.8231   -2.8236 H   0  0  0  0  0  0  0  0  0  0  0  0
   -3.2192    3.0290   -1.3954 N   0  0  0  0  0  0  0  0  0  0  0  0
   -4.0015    2.7831   -1.9994 H   0  0  0  0  0  0  0  0  0  0  0  0
   -3.4070    2.7401   -0.4272 H   0  0  0  0  0  0  0  0  0  0  0  0
   -1.4233    1.0968    1.1893 C   0  0  0  0  0  0  0  0  0  0  0  0
   -2.5659    1.5372    1.1019 O   0  0  0  0  0  0  0  0  0  0  0  0
   -0.5507    1.7342    2.0532 N   0  0  0  0  0  0  0  0  0  0  0  0
    0.3490    1.2943    2.2239 H   0  0  0  0  0  0  0  0  0  0  0  0
   -0.8646    2.9819    2.7399 C   0  0  0  0  0  0  0  0  0  0  0  0
   -1.7408    2.8555    3.3845 H   0  0  0  0  0  0  0  0  0  0  0  0
   -0.0204    3.2936    3.3625 H   0  0  0  0  0  0  0  0  0  0  0  0
   -1.0712    3.7762    2.0148 H   0  0  0  0  0  0  0  0  0  0  0  0
  1  2  1  0  0  0  0
  2  3  1  0  0  0  0
  2  4  1  0  0  0  0
  2  5  1  0  0  0  0
  5  6  2  0  0  0  0
  5  7  1  0  0  0  0
  7  8  1  0  0  0  0
  7  9  1  0  0  0  0
  9 10  1  0  0  0  0
  9 11  1  0  0  0  0
  9 26  1  0  0  0  0
 11 12  1  0  0  0  0
 11 13  1  0  0  0  0
 11 14  1  0  0  0  0
 14 15  1  0  0  0  0
 14 16  1  0  0  0  0
 14 17  1  0  0  0  0
 17 18  1  0  0  0  0
 17 19  1  0  0  0  0
 17 20  1  0  0  0  0
 20 21  1  0  0  0  0
 20 22  1  0  0  0  0
 20 23  1  0  0  0  0
 23 24  1  0  0  0  0
 23 25  1  0  0  0  0
 26 27  2  0  0  0  0
 26 28  1  0  0  0  0
 28 29  1  0  0  0  0
 28 30  1  0  0  0  0
 30 31  1  0  0  0  0
 30 32  1  0  0  0  0
 30 33  1  0  0  0  0
M  END
$$$$

  -OEChem-03222214063D

 33 32  0     1  0  0  0  0  0999 V2000
   -3.4687   -4.1397    1.6980 H   0  0  0  0  0  0  0  0  0  0  0  0
   -3.5972   -3.0950    1.4016 C   0  0  0  0  0  0  0  0  0  0  0  0
   -4.1405   -2.5699    2.1908 H   0  0  0  0  0  0  0  0  0  0  0  0
   -4.1826   -3.0591    0.4799 H   0  0  0  0  0  0  0  0  0  0  0  0
   -2.2450   -2.4431    1.1817 C   0  0  0  0  0  0  0  0  0  0  0  0
   -1.2246   -3.1069    1.2796 O   0  0  0  0  0  0  0  0  0  0  0  0
   -2.1783   -1.0996    0.8768 N   0  0  0  0  0  0  0  0  0  0  0  0
   -3.0482   -0.5712    0.9195 H   0  0  0  0  0  0  0  0  0  0  0  0
   -0.9406   -0.3104    0.8100 C   0  0  1  0  0  0  0  0  0  0  0  0
   -0.2118   -0.8424    1.4304 H   0  0  0  0  0  0  0  0  0  0  0  0
   -0.3298   -0.3485   -0.6126 C   0  0  0  0  0  0  0  0  0  0  0  0
    0.7002    0.0066   -0.5063 H   0  0  0  0  0  0  0  0  0  0  0  0
   -0.2650   -1.3959   -0.9266 H   0  0  0  0  0  0  0  0  0  0  0  0
   -0.9470    0.4611   -1.7805 C   0  0  0  0  0  0  0  0  0  0  0  0
   -0.1301    0.8930   -2.3686 H   0  0  0  0  0  0  0  0  0  0  0  0
   -1.4628   -0.2564   -2.4274 H   0  0  0  0  0  0  0  0  0  0  0  0
   -1.9505    1.5681   -1.4456 C   0  0  0  0  0  0  0  0  0  0  0  0
   -2.7768    1.1589   -0.8577 H   0  0  0  0  0  0  0  0  0  0  0  0
   -1.4533    2.3507   -0.8645 H   0  0  0  0  0  0  0  0  0  0  0  0
   -2.5183    2.1863   -2.7201 C   0  0  0  0  0  0  0  0  0  0  0  0
   -1.7072    2.5408   -3.3656 H   0  0  0  0  0  0  0  0  0  0  0  0
   -3.0913    1.4349   -3.2745 H   0  0  0  0  0  0  0  0  0  0  0  0
   -3.3822    3.3098   -2.3474 N   0  0  0  0  0  0  0  0  0  0  0  0
   -3.8864    3.6764   -3.1541 H   0  0  0  0  0  0  0  0  0  0  0  0
   -4.0253    3.0461   -1.6000 H   0  0  0  0  0  0  0  0  0  0  0  0
   -1.0580    1.0580    1.5187 C   0  0  0  0  0  0  0  0  0  0  0  0
   -2.1505    1.6066    1.6193 O   0  0  0  0  0  0  0  0  0  0  0  0
   -0.0377    1.4901    2.3477 N   0  0  0  0  0  0  0  0  0  0  0  0
    0.8209    0.9475    2.3590 H   0  0  0  0  0  0  0  0  0  0  0  0
   -0.1527    2.6441    3.2319 C   0  0  0  0  0  0  0  0  0  0  0  0
   -0.9308    2.4754    3.9837 H   0  0  0  0  0  0  0  0  0  0  0  0
    0.7955    2.8203    3.7486 H   0  0  0  0  0  0  0  0  0  0  0  0
   -0.4049    3.5425    2.6586 H   0  0  0  0  0  0  0  0  0  0  0  0
  1  2  1  0  0  0  0
  2  3  1  0  0  0  0
  2  4  1  0  0  0  0
  2  5  1  0  0  0  0
  5  6  2  0  0  0  0
  5  7  1  0  0  0  0
  7  8  1  0  0  0  0
  7  9  1  0  0  0  0
  9 10  1  0  0  0  0
  9 11  1  0  0  0  0
  9 26  1  0  0  0  0
 11 12  1  0  0  0  0
 11 13  1  0  0  0  0
 11 14  1  0  0  0  0
 14 15  1  0  0  0  0
 14 16  1  0  0  0  0
 14 17  1  0  0  0  0
 17 18  1  0  0  0  0
 17 19  1  0  0  0  0
 17 20  1  0  0  0  0
 20 21  1  0  0  0  0
 20 22  1  0  0  0  0
 20 23  1  0  0  0  0
 23 24  1  0  0  0  0
 23 25  1  0  0  0  0
 26 27  2  0  0  0  0
 26 28  1  0  0  0  0
 28 29  1  0  0  0  0
 28 30  1  0  0  0  0
 30 31  1  0  0  0  0
 30 32  1  0  0  0  0
 30 33  1  0  0  0  0
M  END
$$$$

  -OEChem-03222214063D

 33 32  0     1  0  0  0  0  0999 V2000
   -2.9756   -4.2009    2.1896 H   0  0  0  0  0  0  0  0  0  0  0  0
   -3.2675   -3.2295    1.7807 C   0  0  0  0  0  0  0  0  0  0  0  0
   -3.8341   -2.6843    2.5396 H   0  0  0  0  0  0  0  0  0  0  0  0
   -3.9030   -3.3906    0.9065 H   0  0  0  0  0  0  0  0  0  0  0  0
   -2.0360   -2.4371    1.3855 C   0  0  0  0  0  0  0  0  0  0  0  0
   -0.9272   -2.9360    1.5007 O   0  0  0  0  0  0  0  0  0  0  0  0
   -2.1782   -1.1553    0.8958 N   0  0  0  0  0  0  0  0  0  0  0  0
   -3.1132   -0.7516    0.9153 H   0  0  0  0  0  0  0  0  0  0  0  0
   -1.0705   -0.2339    0.6089 C   0  0  1  0  0  0  0  0  0  0  0  0
   -0.2377   -0.5670    1.2373 H   0  0  0  0  0  0  0  0  0  0  0  0
   -0.5467   -0.4361   -0.8390 C   0  0  0  0  0  0  0  0  0  0  0  0
    0.4283    0.0605   -0.8741 H   0  0  0  0  0  0  0  0  0  0  0  0
   -0.3543   -1.5045   -0.9842 H   0  0  0  0  0  0  0  0  0  0  0  0
   -1.3324    0.0721   -2.0765 C   0  0  0  0  0  0  0  0  0  0  0  0
   -0.6253    0.2228   -2.8990 H   0  0  0  0  0  0  0  0  0  0  0  0
   -1.9994   -0.7424   -2.3777 H   0  0  0  0  0  0  0  0  0  0  0  0
   -2.2128    1.3181   -1.9468 C   0  0  0  0  0  0  0  0  0  0  0  0
   -2.8078    1.4295   -2.8587 H   0  0  0  0  0  0  0  0  0  0  0  0
   -2.9258    1.1768   -1.1337 H   0  0  0  0  0  0  0  0  0  0  0  0
   -1.3829    2.5918   -1.7635 C   0  0  0  0  0  0  0  0  0  0  0  0
   -0.4925    2.3969   -1.1585 H   0  0  0  0  0  0  0  0  0  0  0  0
   -1.0426    2.9607   -2.7372 H   0  0  0  0  0  0  0  0  0  0  0  0
   -2.2123    3.5935   -1.0932 N   0  0  0  0  0  0  0  0  0  0  0  0
   -3.0289    3.8246   -1.6573 H   0  0  0  0  0  0  0  0  0  0  0  0
   -2.5059    3.2436   -0.1724 H   0  0  0  0  0  0  0  0  0  0  0  0
   -1.3236    1.1982    1.1323 C   0  0  0  0  0  0  0  0  0  0  0  0
   -2.4661    1.6382    1.2229 O   0  0  0  0  0  0  0  0  0  0  0  0
   -0.3175    1.8757    1.7971 N   0  0  0  0  0  0  0  0  0  0  0  0
    0.6110    1.4637    1.7931 H   0  0  0  0  0  0  0  0  0  0  0  0
   -0.5029    3.1834    2.4152 C   0  0  0  0  0  0  0  0  0  0  0  0
   -1.2580    3.1303    3.2063 H   0  0  0  0  0  0  0  0  0  0  0  0
    0.4364    3.5293    2.8574 H   0  0  0  0  0  0  0  0  0  0  0  0
   -0.8246    3.9172    1.6683 H   0  0  0  0  0  0  0  0  0  0  0  0
  1  2  1  0  0  0  0
  2  3  1  0  0  0  0
  2  4  1  0  0  0  0
  2  5  1  0  0  0  0
  5  6  2  0  0  0  0
  5  7  1  0  0  0  0
  7  8  1  0  0  0  0
  7  9  1  0  0  0  0
  9 10  1  0  0  0  0
  9 11  1  0  0  0  0
  9 26  1  0  0  0  0
 11 12  1  0  0  0  0
 11 13  1  0  0  0  0
 11 14  1  0  0  0  0
 14 15  1  0  0  0  0
 14 16  1  0  0  0  0
 14 17  1  0  0  0  0
 17 18  1  0  0  0  0
 17 19  1  0  0  0  0
 17 20  1  0  0  0  0
 20 21  1  0  0  0  0
 20 22  1  0  0  0  0
 20 23  1  0  0  0  0
 23 24  1  0  0  0  0
 23 25  1  0  0  0  0
 26 27  2  0  0  0  0
 26 28  1  0  0  0  0
 28 29  1  0  0  0  0
 28 30  1  0  0  0  0
 30 31  1  0  0  0  0
 30 32  1  0  0  0  0
 30 33  1  0  0  0  0
M  END
$$$$

  -OEChem-03222214063D

 33 32  0     1  0  0  0  0  0999 V2000
   -3.9560   -3.6907    1.4341 H   0  0  0  0  0  0  0  0  0  0  0  0
   -3.9328   -2.6627    1.0619 C   0  0  0  0  0  0  0  0  0  0  0  0
   -4.5462   -2.0380    1.7157 H   0  0  0  0  0  0  0  0  0  0  0  0
   -4.3511   -2.6436    0.0528 H   0  0  0  0  0  0  0  0  0  0  0  0
   -2.5065   -2.1464    1.0407 C   0  0  0  0  0  0  0  0  0  0  0  0
   -1.5907   -2.8720    1.3958 O   0  0  0  0  0  0  0  0  0  0  0  0
   -2.2544   -0.8555    0.6232 N   0  0  0  0  0  0  0  0  0  0  0  0
   -3.0619   -0.2591    0.4521 H   0  0  0  0  0  0  0  0  0  0  0  0
   -0.9488   -0.1855    0.7035 C   0  0  1  0  0  0  0  0  0  0  0  0
   -0.4009   -0.6993    1.5003 H   0  0  0  0  0  0  0  0  0  0  0  0
   -0.1054   -0.4648   -0.5669 C   0  0  0  0  0  0  0  0  0  0  0  0
    0.9236   -0.1889   -0.3150 H   0  0  0  0  0  0  0  0  0  0  0  0
   -0.1058   -1.5461   -0.7422 H   0  0  0  0  0  0  0  0  0  0  0  0
   -0.4199    0.2281   -1.9148 C   0  0  0  0  0  0  0  0  0  0  0  0
    0.4398    0.0569   -2.5710 H   0  0  0  0  0  0  0  0  0  0  0  0
   -1.2691   -0.2894   -2.3736 H   0  0  0  0  0  0  0  0  0  0  0  0
   -0.7067    1.7368   -1.9082 C   0  0  0  0  0  0  0  0  0  0  0  0
   -0.2239    2.1938   -2.7779 H   0  0  0  0  0  0  0  0  0  0  0  0
   -0.2618    2.2071   -1.0289 H   0  0  0  0  0  0  0  0  0  0  0  0
   -2.2051    2.0289   -2.0065 C   0  0  0  0  0  0  0  0  0  0  0  0
   -2.5413    1.8988   -3.0408 H   0  0  0  0  0  0  0  0  0  0  0  0
   -2.7750    1.3354   -1.3797 H   0  0  0  0  0  0  0  0  0  0  0  0
   -2.4426    3.4014   -1.5585 N   0  0  0  0  0  0  0  0  0  0  0  0
   -3.4162    3.6659   -1.6992 H   0  0  0  0  0  0  0  0  0  0  0  0
   -2.1985    3.4783   -0.5655 H   0  0  0  0  0  0  0  0  0  0  0  0
   -1.0355    1.2596    1.2430 C   0  0  0  0  0  0  0  0  0  0  0  0
   -2.0485    1.9287    1.0685 O   0  0  0  0  0  0  0  0  0  0  0  0
   -0.1288    1.6925    2.1940 N   0  0  0  0  0  0  0  0  0  0  0  0
    0.6449    1.0743    2.4212 H   0  0  0  0  0  0  0  0  0  0  0  0
   -0.2547    2.9546    2.9136 C   0  0  0  0  0  0  0  0  0  0  0  0
   -1.1701    2.9642    3.5145 H   0  0  0  0  0  0  0  0  0  0  0  0
    0.5994    3.0948    3.5830 H   0  0  0  0  0  0  0  0  0  0  0  0
   -0.2845    3.7946    2.2115 H   0  0  0  0  0  0  0  0  0  0  0  0
  1  2  1  0  0  0  0
  2  3  1  0  0  0  0
  2  4  1  0  0  0  0
  2  5  1  0  0  0  0
  5  6  2  0  0  0  0
  5  7  1  0  0  0  0
  7  8  1  0  0  0  0
  7  9  1  0  0  0  0
  9 10  1  0  0  0  0
  9 11  1  0  0  0  0
  9 26  1  0  0  0  0
 11 12  1  0  0  0  0
 11 13  1  0  0  0  0
 11 14  1  0  0  0  0
 14 15  1  0  0  0  0
 14 16  1  0  0  0  0
 14 17  1  0  0  0  0
 17 18  1  0  0  0  0
 17 19  1  0  0  0  0
 17 20  1  0  0  0  0
 20 21  1  0  0  0  0
 20 22  1  0  0  0  0
 20 23  1  0  0  0  0
 23 24  1  0  0  0  0
 23 25  1  0  0  0  0
 26 27  2  0  0  0  0
 26 28  1  0  0  0  0
 28 29  1  0  0  0  0
 28 30  1  0  0  0  0
 30 31  1  0  0  0  0
 30 32  1  0  0  0  0
 30 33  1  0  0  0  0
M  END
$$$$

  -OEChem-03222214063D

 33 32  0     1  0  0  0  0  0999 V2000
   -3.4825   -4.1830    1.6079 H   0  0  0  0  0  0  0  0  0  0  0  0
   -3.6066   -3.1150    1.4081 C   0  0  0  0  0  0  0  0  0  0  0  0
   -4.0986   -2.6504    2.2660 H   0  0  0  0  0  0  0  0  0  0  0  0
   -4.2381   -2.9934    0.5247 H   0  0  0  0  0  0  0  0  0  0  0  0
   -2.2549   -2.4674    1.1736 C   0  0  0  0  0  0  0  0  0  0  0  0
   -1.2349   -3.1299    1.2841 O   0  0  0  0  0  0  0  0  0  0  0  0
   -2.1859   -1.1308    0.8400 N   0  0  0  0  0  0  0  0  0  0  0  0
   -3.0536   -0.5979    0.8769 H   0  0  0  0  0  0  0  0  0  0  0  0
   -0.9445   -0.3476    0.7653 C   0  0  1  0  0  0  0  0  0  0  0  0
   -0.2033   -0.8675    1.3813 H   0  0  0  0  0  0  0  0  0  0  0  0
   -0.3724   -0.3838   -0.6716 C   0  0  0  0  0  0  0  0  0  0  0  0
    0.6717   -0.0600   -0.6124 H   0  0  0  0  0  0  0  0  0  0  0  0
   -0.3600   -1.4277   -1.0024 H   0  0  0  0  0  0  0  0  0  0  0  0
   -1.0448    0.4544   -1.7789 C   0  0  0  0  0  0  0  0  0  0  0  0
   -0.4985    0.2574   -2.7073 H   0  0  0  0  0  0  0  0  0  0  0  0
   -2.0701    0.0974   -1.9218 H   0  0  0  0  0  0  0  0  0  0  0  0
   -1.0808    1.9714   -1.5443 C   0  0  0  0  0  0  0  0  0  0  0  0
   -0.1280    2.3042   -1.1200 H   0  0  0  0  0  0  0  0  0  0  0  0
   -1.8807    2.2273   -0.8486 H   0  0  0  0  0  0  0  0  0  0  0  0
   -1.3354    2.7190   -2.8498 C   0  0  0  0  0  0  0  0  0  0  0  0
   -0.5596    2.4769   -3.5846 H   0  0  0  0  0  0  0  0  0  0  0  0
   -2.3045    2.4226   -3.2662 H   0  0  0  0  0  0  0  0  0  0  0  0
   -1.3229    4.1573   -2.5687 N   0  0  0  0  0  0  0  0  0  0  0  0
   -1.5442    4.6995   -3.4034 H   0  0  0  0  0  0  0  0  0  0  0  0
   -1.9624    4.3841   -1.8061 H   0  0  0  0  0  0  0  0  0  0  0  0
   -1.0938    1.0272    1.4509 C   0  0  0  0  0  0  0  0  0  0  0  0
   -2.1953    1.5660    1.5034 O   0  0  0  0  0  0  0  0  0  0  0  0
   -0.0974    1.4916    2.2905 N   0  0  0  0  0  0  0  0  0  0  0  0
    0.7738    0.9700    2.3209 H   0  0  0  0  0  0  0  0  0  0  0  0
   -0.2351    2.6825    3.1198 C   0  0  0  0  0  0  0  0  0  0  0  0
   -1.0296    2.5437    3.8604 H   0  0  0  0  0  0  0  0  0  0  0  0
    0.7008    2.8845    3.6496 H   0  0  0  0  0  0  0  0  0  0  0  0
   -0.4766    3.5535    2.5013 H   0  0  0  0  0  0  0  0  0  0  0  0
  1  2  1  0  0  0  0
  2  3  1  0  0  0  0
  2  4  1  0  0  0  0
  2  5  1  0  0  0  0
  5  6  2  0  0  0  0
  5  7  1  0  0  0  0
  7  8  1  0  0  0  0
  7  9  1  0  0  0  0
  9 10  1  0  0  0  0
  9 11  1  0  0  0  0
  9 26  1  0  0  0  0
 11 12  1  0  0  0  0
 11 13  1  0  0  0  0
 11 14  1  0  0  0  0
 14 15  1  0  0  0  0
 14 16  1  0  0  0  0
 14 17  1  0  0  0  0
 17 18  1  0  0  0  0
 17 19  1  0  0  0  0
 17 20  1  0  0  0  0
 20 21  1  0  0  0  0
 20 22  1  0  0  0  0
 20 23  1  0  0  0  0
 23 24  1  0  0  0  0
 23 25  1  0  0  0  0
 26 27  2  0  0  0  0
 26 28  1  0  0  0  0
 28 29  1  0  0  0  0
 28 30  1  0  0  0  0
 30 31  1  0  0  0  0
 30 32  1  0  0  0  0
 30 33  1  0  0  0  0
M  END
$$$$

  -OEChem-03222214063D

 33 32  0     1  0  0  0  0  0999 V2000
   -3.5490   -4.1211    1.5951 H   0  0  0  0  0  0  0  0  0  0  0  0
   -3.6413   -3.0760    1.2868 C   0  0  0  0  0  0  0  0  0  0  0  0
   -4.2261   -2.5377    2.0366 H   0  0  0  0  0  0  0  0  0  0  0  0
   -4.1648   -3.0361    0.3285 H   0  0  0  0  0  0  0  0  0  0  0  0
   -2.2672   -2.4473    1.1530 C   0  0  0  0  0  0  0  0  0  0  0  0
   -1.2675   -3.1132    1.3736 O   0  0  0  0  0  0  0  0  0  0  0  0
   -2.1558   -1.1241    0.7802 N   0  0  0  0  0  0  0  0  0  0  0  0
   -3.0171   -0.5828    0.7208 H   0  0  0  0  0  0  0  0  0  0  0  0
   -0.9006   -0.3593    0.7607 C   0  0  1  0  0  0  0  0  0  0  0  0
   -0.1894   -0.8685    1.4190 H   0  0  0  0  0  0  0  0  0  0  0  0
   -0.2833   -0.4123   -0.6560 C   0  0  0  0  0  0  0  0  0  0  0  0
    0.7697   -0.1240   -0.5794 H   0  0  0  0  0  0  0  0  0  0  0  0
   -0.2997   -1.4565   -0.9866 H   0  0  0  0  0  0  0  0  0  0  0  0
   -0.9293    0.4464   -1.7620 C   0  0  0  0  0  0  0  0  0  0  0  0
   -0.5559    0.0773   -2.7231 H   0  0  0  0  0  0  0  0  0  0  0  0
   -2.0136    0.2942   -1.7513 H   0  0  0  0  0  0  0  0  0  0  0  0
   -0.6237    1.9514   -1.6745 C   0  0  0  0  0  0  0  0  0  0  0  0
   -1.1275    2.4085   -0.8236 H   0  0  0  0  0  0  0  0  0  0  0  0
    0.4539    2.0996   -1.5509 H   0  0  0  0  0  0  0  0  0  0  0  0
   -1.0859    2.6655   -2.9408 C   0  0  0  0  0  0  0  0  0  0  0  0
   -0.5958    2.2331   -3.8201 H   0  0  0  0  0  0  0  0  0  0  0  0
   -2.1686    2.5480   -3.0615 H   0  0  0  0  0  0  0  0  0  0  0  0
   -0.7402    4.0851   -2.8248 N   0  0  0  0  0  0  0  0  0  0  0  0
   -1.0441    4.6074   -3.6462 H   0  0  0  0  0  0  0  0  0  0  0  0
   -1.1351    4.4855   -1.9731 H   0  0  0  0  0  0  0  0  0  0  0  0
   -1.0952    1.0343    1.3918 C   0  0  0  0  0  0  0  0  0  0  0  0
   -2.1828    1.5964    1.3013 O   0  0  0  0  0  0  0  0  0  0  0  0
   -0.1642    1.5294    2.2868 N   0  0  0  0  0  0  0  0  0  0  0  0
    0.6858    0.9912    2.4283 H   0  0  0  0  0  0  0  0  0  0  0  0
   -0.3659    2.7458    3.0646 C   0  0  0  0  0  0  0  0  0  0  0  0
   -1.2046    2.6212    3.7575 H   0  0  0  0  0  0  0  0  0  0  0  0
    0.5325    2.9773    3.6451 H   0  0  0  0  0  0  0  0  0  0  0  0
   -0.5771    3.5935    2.4041 H   0  0  0  0  0  0  0  0  0  0  0  0
  1  2  1  0  0  0  0
  2  3  1  0  0  0  0
  2  4  1  0  0  0  0
  2  5  1  0  0  0  0
  5  6  2  0  0  0  0
  5  7  1  0  0  0  0
  7  8  1  0  0  0  0
  7  9  1  0  0  0  0
  9 10  1  0  0  0  0
  9 11  1  0  0  0  0
  9 26  1  0  0  0  0
 11 12  1  0  0  0  0
 11 13  1  0  0  0  0
 11 14  1  0  0  0  0
 14 15  1  0  0  0  0
 14 16  1  0  0  0  0
 14 17  1  0  0  0  0
 17 18  1  0  0  0  0
 17 19  1  0  0  0  0
 17 20  1  0  0  0  0
 20 21  1  0  0  0  0
 20 22  1  0  0  0  0
 20 23  1  0  0  0  0
 23 24  1  0  0  0  0
 23 25  1  0  0  0  0
 26 27  2  0  0  0  0
 26 28  1  0  0  0  0
 28 29  1  0  0  0  0
 28 30  1  0  0  0  0
 30 31  1  0  0  0  0
 30 32  1  0  0  0  0
 30 33  1  0  0  0  0
M  END
$$$$

  -OEChem-03222214063D

 33 32  0     1  0  0  0  0  0999 V2000
   -3.6266   -4.0688    1.6210 H   0  0  0  0  0  0  0  0  0  0  0  0
   -3.6805   -3.0486    1.2306 C   0  0  0  0  0  0  0  0  0  0  0  0
   -4.3219   -2.4541    1.8857 H   0  0  0  0  0  0  0  0  0  0  0  0
   -4.1190   -3.0769    0.2301 H   0  0  0  0  0  0  0  0  0  0  0  0
   -2.2931   -2.4379    1.1704 C   0  0  0  0  0  0  0  0  0  0  0  0
   -1.3235   -3.0906    1.5235 O   0  0  0  0  0  0  0  0  0  0  0  0
   -2.1348   -1.1446    0.7182 N   0  0  0  0  0  0  0  0  0  0  0  0
   -2.9799   -0.6069    0.5326 H   0  0  0  0  0  0  0  0  0  0  0  0
   -0.8685   -0.3981    0.7326 C   0  0  1  0  0  0  0  0  0  0  0  0
   -0.1909   -0.8765    1.4475 H   0  0  0  0  0  0  0  0  0  0  0  0
   -0.1983   -0.4973   -0.6563 C   0  0  0  0  0  0  0  0  0  0  0  0
    0.8590   -0.2300   -0.5609 H   0  0  0  0  0  0  0  0  0  0  0  0
   -0.2318   -1.5457   -0.9715 H   0  0  0  0  0  0  0  0  0  0  0  0
   -0.8319    0.3645   -1.7654 C   0  0  0  0  0  0  0  0  0  0  0  0
   -0.6778   -0.1393   -2.7253 H   0  0  0  0  0  0  0  0  0  0  0  0
   -1.9127    0.4380   -1.6055 H   0  0  0  0  0  0  0  0  0  0  0  0
   -0.2134    1.7694   -1.8567 C   0  0  0  0  0  0  0  0  0  0  0  0
   -0.2768    2.2883   -0.8984 H   0  0  0  0  0  0  0  0  0  0  0  0
    0.8462    1.6827   -2.1185 H   0  0  0  0  0  0  0  0  0  0  0  0
   -0.9281    2.6036   -2.9142 C   0  0  0  0  0  0  0  0  0  0  0  0
   -0.8666    2.1088   -3.8897 H   0  0  0  0  0  0  0  0  0  0  0  0
   -1.9867    2.7114   -2.6520 H   0  0  0  0  0  0  0  0  0  0  0  0
   -0.2876    3.9208   -2.9786 N   0  0  0  0  0  0  0  0  0  0  0  0
   -0.7402    4.5159   -3.6722 H   0  0  0  0  0  0  0  0  0  0  0  0
   -0.2899    4.3679   -2.0616 H   0  0  0  0  0  0  0  0  0  0  0  0
   -1.0877    1.0363    1.2552 C   0  0  0  0  0  0  0  0  0  0  0  0
   -2.1169    1.6423    0.9725 O   0  0  0  0  0  0  0  0  0  0  0  0
   -0.2160    1.5842    2.1783 N   0  0  0  0  0  0  0  0  0  0  0  0
    0.5924    1.0312    2.4487 H   0  0  0  0  0  0  0  0  0  0  0  0
   -0.4175    2.8889    2.7961 C   0  0  0  0  0  0  0  0  0  0  0  0
   -1.3448    2.8986    3.3785 H   0  0  0  0  0  0  0  0  0  0  0  0
    0.4149    3.1218    3.4671 H   0  0  0  0  0  0  0  0  0  0  0  0
   -0.4733    3.6701    2.0308 H   0  0  0  0  0  0  0  0  0  0  0  0
  1  2  1  0  0  0  0
  2  3  1  0  0  0  0
  2  4  1  0  0  0  0
  2  5  1  0  0  0  0
  5  6  2  0  0  0  0
  5  7  1  0  0  0  0
  7  8  1  0  0  0  0
  7  9  1  0  0  0  0
  9 10  1  0  0  0  0
  9 11  1  0  0  0  0
  9 26  1  0  0  0  0
 11 12  1  0  0  0  0
 11 13  1  0  0  0  0
 11 14  1  0  0  0  0
 14 15  1  0  0  0  0
 14 16  1  0  0  0  0
 14 17  1  0  0  0  0
 17 18  1  0  0  0  0
 17 19  1  0  0  0  0
 17 20  1  0  0  0  0
 20 21  1  0  0  0  0
 20 22  1  0  0  0  0
 20 23  1  0  0  0  0
 23 24  1  0  0  0  0
 23 25  1  0  0  0  0
 26 27  2  0  0  0  0
 26 28  1  0  0  0  0
 28 29  1  0  0  0  0
 28 30  1  0  0  0  0
 30 31  1  0  0  0  0
 30 32  1  0  0  0  0
 30 33  1  0  0  0  0
M  END
$$$$

  -OEChem-03222214063D

 33 32  0     1  0  0  0  0  0999 V2000
   -3.6316   -4.0696    1.6640 H   0  0  0  0  0  0  0  0  0  0  0  0
   -3.6857   -3.0641    1.2376 C   0  0  0  0  0  0  0  0  0  0  0  0
   -4.3399   -2.4516    1.8629 H   0  0  0  0  0  0  0  0  0  0  0  0
   -4.1099   -3.1298    0.2329 H   0  0  0  0  0  0  0  0  0  0  0  0
   -2.3009   -2.4473    1.1756 C   0  0  0  0  0  0  0  0  0  0  0  0
   -1.3308   -3.0877    1.5493 O   0  0  0  0  0  0  0  0  0  0  0  0
   -2.1463   -1.1614    0.7009 N   0  0  0  0  0  0  0  0  0  0  0  0
   -2.9934   -0.6361    0.4914 H   0  0  0  0  0  0  0  0  0  0  0  0
   -0.8859   -0.4049    0.7136 C   0  0  1  0  0  0  0  0  0  0  0  0
   -0.2158   -0.8730    1.4421 H   0  0  0  0  0  0  0  0  0  0  0  0
   -0.1923   -0.5074   -0.6598 C   0  0  0  0  0  0  0  0  0  0  0  0
    0.8599   -0.2257   -0.5492 H   0  0  0  0  0  0  0  0  0  0  0  0
   -0.2061   -1.5567   -0.9738 H   0  0  0  0  0  0  0  0  0  0  0  0
   -0.8439    0.3489   -1.7629 C   0  0  0  0  0  0  0  0  0  0  0  0
   -0.9095   -0.2527   -2.6755 H   0  0  0  0  0  0  0  0  0  0  0  0
   -1.8668    0.6252   -1.4892 H   0  0  0  0  0  0  0  0  0  0  0  0
   -0.0122    1.6007   -2.0712 C   0  0  0  0  0  0  0  0  0  0  0  0
    0.1331    2.1838   -1.1564 H   0  0  0  0  0  0  0  0  0  0  0  0
    0.9737    1.3066   -2.4459 H   0  0  0  0  0  0  0  0  0  0  0  0
   -0.7126    2.4679   -3.1119 C   0  0  0  0  0  0  0  0  0  0  0  0
   -0.8637    1.8979   -4.0353 H   0  0  0  0  0  0  0  0  0  0  0  0
   -1.6948    2.7797   -2.7392 H   0  0  0  0  0  0  0  0  0  0  0  0
    0.1219    3.6434   -3.3793 N   0  0  0  0  0  0  0  0  0  0  0  0
   -0.3091    4.2487   -4.0779 H   0  0  0  0  0  0  0  0  0  0  0  0
    0.3073    4.1593   -2.5192 H   0  0  0  0  0  0  0  0  0  0  0  0
   -1.0860    1.0456    1.2032 C   0  0  0  0  0  0  0  0  0  0  0  0
   -2.0997    1.6663    0.9001 O   0  0  0  0  0  0  0  0  0  0  0  0
   -0.2080    1.6003    2.1162 N   0  0  0  0  0  0  0  0  0  0  0  0
    0.5883    1.0390    2.4050 H   0  0  0  0  0  0  0  0  0  0  0  0
   -0.3887    2.9229    2.7018 C   0  0  0  0  0  0  0  0  0  0  0  0
   -1.3277    2.9687    3.2634 H   0  0  0  0  0  0  0  0  0  0  0  0
    0.4346    3.1490    3.3861 H   0  0  0  0  0  0  0  0  0  0  0  0
   -0.4079    3.6889    1.9194 H   0  0  0  0  0  0  0  0  0  0  0  0
  1  2  1  0  0  0  0
  2  3  1  0  0  0  0
  2  4  1  0  0  0  0
  2  5  1  0  0  0  0
  5  6  2  0  0  0  0
  5  7  1  0  0  0  0
  7  8  1  0  0  0  0
  7  9  1  0  0  0  0
  9 10  1  0  0  0  0
  9 11  1  0  0  0  0
  9 26  1  0  0  0  0
 11 12  1  0  0  0  0
 11 13  1  0  0  0  0
 11 14  1  0  0  0  0
 14 15  1  0  0  0  0
 14 16  1  0  0  0  0
 14 17  1  0  0  0  0
 17 18  1  0  0  0  0
 17 19  1  0  0  0  0
 17 20  1  0  0  0  0
 20 21  1  0  0  0  0
 20 22  1  0  0  0  0
 20 23  1  0  0  0  0
 23 24  1  0  0  0  0
 23 25  1  0  0  0  0
 26 27  2  0  0  0  0
 26 28  1  0  0  0  0
 28 29  1  0  0  0  0
 28 30  1  0  0  0  0
 30 31  1  0  0  0  0
 30 32  1  0  0  0  0
 30 33  1  0  0  0  0
M  END
$$$$

  -OEChem-03222214063D

 33 32  0     1  0  0  0  0  0999 V2000
   -3.6108   -4.0768    1.6615 H   0  0  0  0  0  0  0  0  0  0  0  0
   -3.6764   -3.0699    1.2403 C   0  0  0  0  0  0  0  0  0  0  0  0
   -4.3261   -2.4644    1.8767 H   0  0  0  0  0  0  0  0  0  0  0  0
   -4.1133   -3.1338    0.2409 H   0  0  0  0  0  0  0  0  0  0  0  0
   -2.2963   -2.4443    1.1636 C   0  0  0  0  0  0  0  0  0  0  0  0
   -1.3168   -3.0844    1.5129 O   0  0  0  0  0  0  0  0  0  0  0  0
   -2.1579   -1.1503    0.7063 N   0  0  0  0  0  0  0  0  0  0  0  0
   -3.0119   -0.6284    0.5176 H   0  0  0  0  0  0  0  0  0  0  0  0
   -0.9031   -0.3852    0.7130 C   0  0  1  0  0  0  0  0  0  0  0  0
   -0.2272   -0.8592    1.4322 H   0  0  0  0  0  0  0  0  0  0  0  0
   -0.2140   -0.4805   -0.6624 C   0  0  0  0  0  0  0  0  0  0  0  0
    0.8310   -0.1768   -0.5400 H   0  0  0  0  0  0  0  0  0  0  0  0
   -0.2008   -1.5292   -0.9782 H   0  0  0  0  0  0  0  0  0  0  0  0
   -0.8692    0.3688   -1.7718 C   0  0  0  0  0  0  0  0  0  0  0  0
   -1.1853   -0.2999   -2.5792 H   0  0  0  0  0  0  0  0  0  0  0  0
   -1.7699    0.8717   -1.4108 H   0  0  0  0  0  0  0  0  0  0  0  0
    0.1107    1.4023   -2.3398 C   0  0  0  0  0  0  0  0  0  0  0  0
    0.4530    2.0615   -1.5352 H   0  0  0  0  0  0  0  0  0  0  0  0
    0.9852    0.8926   -2.7579 H   0  0  0  0  0  0  0  0  0  0  0  0
   -0.5566    2.2390   -3.4271 C   0  0  0  0  0  0  0  0  0  0  0  0
   -0.9046    1.5911   -4.2394 H   0  0  0  0  0  0  0  0  0  0  0  0
   -1.4253    2.7650   -3.0150 H   0  0  0  0  0  0  0  0  0  0  0  0
    0.4210    3.2036   -3.9404 N   0  0  0  0  0  0  0  0  0  0  0  0
    0.0163    3.7810   -4.6773 H   0  0  0  0  0  0  0  0  0  0  0  0
    0.7902    3.7839   -3.1874 H   0  0  0  0  0  0  0  0  0  0  0  0
   -1.0916    1.0594    1.2253 C   0  0  0  0  0  0  0  0  0  0  0  0
   -2.1165    1.6807    0.9651 O   0  0  0  0  0  0  0  0  0  0  0  0
   -0.1953    1.5973    2.1306 N   0  0  0  0  0  0  0  0  0  0  0  0
    0.6034    1.0285    2.3973 H   0  0  0  0  0  0  0  0  0  0  0  0
   -0.3733    2.9019    2.7562 C   0  0  0  0  0  0  0  0  0  0  0  0
   -1.2995    2.9238    3.3400 H   0  0  0  0  0  0  0  0  0  0  0  0
    0.4636    3.1166    3.4277 H   0  0  0  0  0  0  0  0  0  0  0  0
   -0.4170    3.6887    1.9958 H   0  0  0  0  0  0  0  0  0  0  0  0
  1  2  1  0  0  0  0
  2  3  1  0  0  0  0
  2  4  1  0  0  0  0
  2  5  1  0  0  0  0
  5  6  2  0  0  0  0
  5  7  1  0  0  0  0
  7  8  1  0  0  0  0
  7  9  1  0  0  0  0
  9 10  1  0  0  0  0
  9 11  1  0  0  0  0
  9 26  1  0  0  0  0
 11 12  1  0  0  0  0
 11 13  1  0  0  0  0
 11 14  1  0  0  0  0
 14 15  1  0  0  0  0
 14 16  1  0  0  0  0
 14 17  1  0  0  0  0
 17 18  1  0  0  0  0
 17 19  1  0  0  0  0
 17 20  1  0  0  0  0
 20 21  1  0  0  0  0
 20 22  1  0  0  0  0
 20 23  1  0  0  0  0
 23 24  1  0  0  0  0
 23 25  1  0  0  0  0
 26 27  2  0  0  0  0
 26 28  1  0  0  0  0
 28 29  1  0  0  0  0
 28 30  1  0  0  0  0
 30 31  1  0  0  0  0
 30 32  1  0  0  0  0
 30 33  1  0  0  0  0
M  END
$$$$

  -OEChem-03222214063D

 33 32  0     1  0  0  0  0  0999 V2000
   -3.5958   -4.0768    1.6245 H   0  0  0  0  0  0  0  0  0  0  0  0
   -3.6670   -3.0604    1.2274 C   0  0  0  0  0  0  0  0  0  0  0  0
   -4.3124   -2.4706    1.8828 H   0  0  0  0  0  0  0  0  0  0  0  0
   -4.1118   -3.1019    0.2302 H   0  0  0  0  0  0  0  0  0  0  0  0
   -2.2895   -2.4296    1.1531 C   0  0  0  0  0  0  0  0  0  0  0  0
   -1.3058   -3.0716    1.4869 O   0  0  0  0  0  0  0  0  0  0  0  0
   -2.1583   -1.1289    0.7131 N   0  0  0  0  0  0  0  0  0  0  0  0
   -3.0151   -0.6064    0.5387 H   0  0  0  0  0  0  0  0  0  0  0  0
   -0.9047   -0.3621    0.7138 C   0  0  1  0  0  0  0  0  0  0  0  0
   -0.2205   -0.8422    1.4211 H   0  0  0  0  0  0  0  0  0  0  0  0
   -0.2319   -0.4556   -0.6709 C   0  0  0  0  0  0  0  0  0  0  0  0
    0.8062   -0.1306   -0.5452 H   0  0  0  0  0  0  0  0  0  0  0  0
   -0.1978   -1.5028   -0.9897 H   0  0  0  0  0  0  0  0  0  0  0  0
   -0.8885    0.3900   -1.7826 C   0  0  0  0  0  0  0  0  0  0  0  0
   -1.4652   -0.2735   -2.4354 H   0  0  0  0  0  0  0  0  0  0  0  0
   -1.5900    1.1183   -1.3698 H   0  0  0  0  0  0  0  0  0  0  0  0
    0.1648    1.1415   -2.6052 C   0  0  0  0  0  0  0  0  0  0  0  0
    0.7267    1.8178   -1.9529 H   0  0  0  0  0  0  0  0  0  0  0  0
    0.8697    0.4263   -3.0423 H   0  0  0  0  0  0  0  0  0  0  0  0
   -0.4952    1.9471   -3.7202 C   0  0  0  0  0  0  0  0  0  0  0  0
   -1.0530    1.2791   -4.3859 H   0  0  0  0  0  0  0  0  0  0  0  0
   -1.2003    2.6694   -3.2937 H   0  0  0  0  0  0  0  0  0  0  0  0
    0.5492    2.6466   -4.4748 N   0  0  0  0  0  0  0  0  0  0  0  0
    0.1487    3.1948   -5.2362 H   0  0  0  0  0  0  0  0  0  0  0  0
    1.1113    3.2353   -3.8603 H   0  0  0  0  0  0  0  0  0  0  0  0
   -1.0925    1.0740    1.2504 C   0  0  0  0  0  0  0  0  0  0  0  0
   -2.1299    1.6880    1.0247 O   0  0  0  0  0  0  0  0  0  0  0  0
   -0.1862    1.6014    2.1523 N   0  0  0  0  0  0  0  0  0  0  0  0
    0.6162    1.0298    2.4009 H   0  0  0  0  0  0  0  0  0  0  0  0
   -0.3722    2.8833    2.8214 C   0  0  0  0  0  0  0  0  0  0  0  0
   -1.2828    2.8700    3.4296 H   0  0  0  0  0  0  0  0  0  0  0  0
    0.4783    3.0942    3.4768 H   0  0  0  0  0  0  0  0  0  0  0  0
   -0.4504    3.6913    2.0864 H   0  0  0  0  0  0  0  0  0  0  0  0
  1  2  1  0  0  0  0
  2  3  1  0  0  0  0
  2  4  1  0  0  0  0
  2  5  1  0  0  0  0
  5  6  2  0  0  0  0
  5  7  1  0  0  0  0
  7  8  1  0  0  0  0
  7  9  1  0  0  0  0
  9 10  1  0  0  0  0
  9 11  1  0  0  0  0
  9 26  1  0  0  0  0
 11 12  1  0  0  0  0
 11 13  1  0  0  0  0
 11 14  1  0  0  0  0
 14 15  1  0  0  0  0
 14 16  1  0  0  0  0
 14 17  1  0  0  0  0
 17 18  1  0  0  0  0
 17 19  1  0  0  0  0
 17 20  1  0  0  0  0
 20 21  1  0  0  0  0
 20 22  1  0  0  0  0
 20 23  1  0  0  0  0
 23 24  1  0  0  0  0
 23 25  1  0  0  0  0
 26 27  2  0  0  0  0
 26 28  1  0  0  0  0
 28 29  1  0  0  0  0
 28 30  1  0  0  0  0
 30 31  1  0  0  0  0
 30 32  1  0  0  0  0
 30 33  1  0  0  0  0
M  END
$$$$

  -OEChem-03222214063D

 33 32  0     1  0  0  0  0  0999 V2000
   -3.5954   -4.0647    1.6221 H   0  0  0  0  0  0  0  0  0  0  0  0
   -3.6655   -3.0501    1.2199 C   0  0  0  0  0  0  0  0  0  0  0  0
   -4.3106   -2.4566    1.8723 H   0  0  0  0  0  0  0  0  0  0  0  0
   -4.1099   -3.0956    0.2227 H   0  0  0  0  0  0  0  0  0  0  0  0
   -2.2867   -2.4223    1.1438 C   0  0  0  0  0  0  0  0  0  0  0  0
   -1.3038   -3.0681    1.4722 O   0  0  0  0  0  0  0  0  0  0  0  0
   -2.1528   -1.1204    0.7086 N   0  0  0  0  0  0  0  0  0  0  0  0
   -3.0082   -0.5928    0.5420 H   0  0  0  0  0  0  0  0  0  0  0  0
   -0.8964   -0.3588    0.7093 C   0  0  1  0  0  0  0  0  0  0  0  0
   -0.2101   -0.8436    1.4114 H   0  0  0  0  0  0  0  0  0  0  0  0
   -0.2353   -0.4508   -0.6813 C   0  0  0  0  0  0  0  0  0  0  0  0
    0.8013   -0.1196   -0.5612 H   0  0  0  0  0  0  0  0  0  0  0  0
   -0.2006   -1.4962   -1.0058 H   0  0  0  0  0  0  0  0  0  0  0  0
   -0.8967    0.4028   -1.7815 C   0  0  0  0  0  0  0  0  0  0  0  0
   -1.6953   -0.1783   -2.2544 H   0  0  0  0  0  0  0  0  0  0  0  0
   -1.3510    1.3033   -1.3628 H   0  0  0  0  0  0  0  0  0  0  0  0
    0.1343    0.8458   -2.8259 C   0  0  0  0  0  0  0  0  0  0  0  0
    0.9044    1.4592   -2.3471 H   0  0  0  0  0  0  0  0  0  0  0  0
    0.6216   -0.0345   -3.2581 H   0  0  0  0  0  0  0  0  0  0  0  0
   -0.5342    1.6496   -3.9374 C   0  0  0  0  0  0  0  0  0  0  0  0
   -1.3014    1.0422   -4.4304 H   0  0  0  0  0  0  0  0  0  0  0  0
   -1.0213    2.5373   -3.5180 H   0  0  0  0  0  0  0  0  0  0  0  0
    0.4904    2.0456   -4.9084 N   0  0  0  0  0  0  0  0  0  0  0  0
    0.0847    2.5842   -5.6738 H   0  0  0  0  0  0  0  0  0  0  0  0
    1.2416    2.5660   -4.4557 H   0  0  0  0  0  0  0  0  0  0  0  0
   -1.0852    1.0737    1.2533 C   0  0  0  0  0  0  0  0  0  0  0  0
   -2.1216    1.6883    1.0240 O   0  0  0  0  0  0  0  0  0  0  0  0
   -0.1806    1.6004    2.1573 N   0  0  0  0  0  0  0  0  0  0  0  0
    0.6231    1.0305    2.4059 H   0  0  0  0  0  0  0  0  0  0  0  0
   -0.3717    2.8807    2.8281 C   0  0  0  0  0  0  0  0  0  0  0  0
   -1.2870    2.8652    3.4292 H   0  0  0  0  0  0  0  0  0  0  0  0
    0.4733    3.0909    3.4907 H   0  0  0  0  0  0  0  0  0  0  0  0
   -0.4453    3.6902    2.0943 H   0  0  0  0  0  0  0  0  0  0  0  0
  1  2  1  0  0  0  0
  2  3  1  0  0  0  0
  2  4  1  0  0  0  0
  2  5  1  0  0  0  0
  5  6  2  0  0  0  0
  5  7  1  0  0  0  0
  7  8  1  0  0  0  0
  7  9  1  0  0  0  0
  9 10  1  0  0  0  0
  9 11  1  0  0  0  0
  9 26  1  0  0  0  0
 11 12  1  0  0  0  0
 11 13  1  0  0  0  0
 11 14  1  0  0  0  0
 14 15  1  0  0  0  0
 14 16  1  0  0  0  0
 14 17  1  0  0  0  0
 17 18  1  0  0  0  0
 17 19  1  0  0  0  0
 17 20  1  0  0  0  0
 20 21  1  0  0  0  0
 20 22  1  0  0  0  0
 20 23  1  0  0  0  0
 23 24  1  0  0  0  0
 23 25  1  0  0  0  0
 26 27  2  0  0  0  0
 26 28  1  0  0  0  0
 28 29  1  0  0  0  0
 28 30  1  0  0  0  0
 30 31  1  0  0  0  0
 30 32  1  0  0  0  0
 30 33  1  0  0  0  0
M  END
$$$$

  -OEChem-03222214063D

 33 32  0     1  0  0  0  0  0999 V2000
   -3.6132   -4.0542    1.6333 H   0  0  0  0  0  0  0  0  0  0  0  0
   -3.6723   -3.0450    1.2164 C   0  0  0  0  0  0  0  0  0  0  0  0
   -4.3256   -2.4403    1.8501 H   0  0  0  0  0  0  0  0  0  0  0  0
   -4.1006   -3.1026    0.2128 H   0  0  0  0  0  0  0  0  0  0  0  0
   -2.2897   -2.4237    1.1540 C   0  0  0  0  0  0  0  0  0  0  0  0
   -1.3150   -3.0686    1.5078 O   0  0  0  0  0  0  0  0  0  0  0  0
   -2.1430   -1.1272    0.7071 N   0  0  0  0  0  0  0  0  0  0  0  0
   -2.9922   -0.5995    0.5120 H   0  0  0  0  0  0  0  0  0  0  0  0
   -0.8812   -0.3745    0.7078 C   0  0  1  0  0  0  0  0  0  0  0  0
   -0.1938   -0.8582    1.4095 H   0  0  0  0  0  0  0  0  0  0  0  0
   -0.2289   -0.4645   -0.6874 C   0  0  0  0  0  0  0  0  0  0  0  0
    0.8129   -0.1444   -0.5830 H   0  0  0  0  0  0  0  0  0  0  0  0
   -0.2142   -1.5090   -1.0177 H   0  0  0  0  0  0  0  0  0  0  0  0
   -0.8970    0.4036   -1.7689 C   0  0  0  0  0  0  0  0  0  0  0  0
   -1.8545   -0.0437   -2.0545 H   0  0  0  0  0  0  0  0  0  0  0  0
   -1.0960    1.4097   -1.3902 H   0  0  0  0  0  0  0  0  0  0  0  0
    0.0164    0.5363   -2.9924 C   0  0  0  0  0  0  0  0  0  0  0  0
    0.9586    1.0113   -2.7005 H   0  0  0  0  0  0  0  0  0  0  0  0
    0.2467   -0.4585   -3.3880 H   0  0  0  0  0  0  0  0  0  0  0  0
   -0.6556    1.3692   -4.0803 C   0  0  0  0  0  0  0  0  0  0  0  0
   -1.5972    0.8990   -4.3853 H   0  0  0  0  0  0  0  0  0  0  0  0
   -0.8841    2.3709   -3.6992 H   0  0  0  0  0  0  0  0  0  0  0  0
    0.2523    1.4603   -5.2281 N   0  0  0  0  0  0  0  0  0  0  0  0
   -0.1620    2.0059   -5.9838 H   0  0  0  0  0  0  0  0  0  0  0  0
    1.1539    1.8483   -4.9515 H   0  0  0  0  0  0  0  0  0  0  0  0
   -1.0743    1.0619    1.2384 C   0  0  0  0  0  0  0  0  0  0  0  0
   -2.0993    1.6824    0.9760 O   0  0  0  0  0  0  0  0  0  0  0  0
   -0.1784    1.5969    2.1457 N   0  0  0  0  0  0  0  0  0  0  0  0
    0.6172    1.0251    2.4154 H   0  0  0  0  0  0  0  0  0  0  0  0
   -0.3657    2.8925    2.7873 C   0  0  0  0  0  0  0  0  0  0  0  0
   -1.2962    2.9040    3.3647 H   0  0  0  0  0  0  0  0  0  0  0  0
    0.4654    3.1018    3.4676 H   0  0  0  0  0  0  0  0  0  0  0  0
   -0.4067    3.6885    2.0364 H   0  0  0  0  0  0  0  0  0  0  0  0
  1  2  1  0  0  0  0
  2  3  1  0  0  0  0
  2  4  1  0  0  0  0
  2  5  1  0  0  0  0
  5  6  2  0  0  0  0
  5  7  1  0  0  0  0
  7  8  1  0  0  0  0
  7  9  1  0  0  0  0
  9 10  1  0  0  0  0
  9 11  1  0  0  0  0
  9 26  1  0  0  0  0
 11 12  1  0  0  0  0
 11 13  1  0  0  0  0
 11 14  1  0  0  0  0
 14 15  1  0  0  0  0
 14 16  1  0  0  0  0
 14 17  1  0  0  0  0
 17 18  1  0  0  0  0
 17 19  1  0  0  0  0
 17 20  1  0  0  0  0
 20 21  1  0  0  0  0
 20 22  1  0  0  0  0
 20 23  1  0  0  0  0
 23 24  1  0  0  0  0
 23 25  1  0  0  0  0
 26 27  2  0  0  0  0
 26 28  1  0  0  0  0
 28 29  1  0  0  0  0
 28 30  1  0  0  0  0
 30 31  1  0  0  0  0
 30 32  1  0  0  0  0
 30 33  1  0  0  0  0
M  END
$$$$

  -OEChem-03222214063D

 33 32  0     1  0  0  0  0  0999 V2000
   -3.6201   -4.0529    1.5818 H   0  0  0  0  0  0  0  0  0  0  0  0
   -3.6717   -3.0389    1.1755 C   0  0  0  0  0  0  0  0  0  0  0  0
   -4.3369   -2.4410    1.8032 H   0  0  0  0  0  0  0  0  0  0  0  0
   -4.0809   -3.0853    0.1634 H   0  0  0  0  0  0  0  0  0  0  0  0
   -2.2885   -2.4166    1.1468 C   0  0  0  0  0  0  0  0  0  0  0  0
   -1.3215   -3.0619    1.5202 O   0  0  0  0  0  0  0  0  0  0  0  0
   -2.1324   -1.1199    0.7036 N   0  0  0  0  0  0  0  0  0  0  0  0
   -2.9770   -0.5938    0.4864 H   0  0  0  0  0  0  0  0  0  0  0  0
   -0.8689   -0.3697    0.7151 C   0  0  1  0  0  0  0  0  0  0  0  0
   -0.1890   -0.8583    1.4208 H   0  0  0  0  0  0  0  0  0  0  0  0
   -0.2116   -0.4642   -0.6799 C   0  0  0  0  0  0  0  0  0  0  0  0
    0.8736   -0.4093   -0.5466 H   0  0  0  0  0  0  0  0  0  0  0  0
   -0.4313   -1.4428   -1.1205 H   0  0  0  0  0  0  0  0  0  0  0  0
   -0.6253    0.6485   -1.6569 C   0  0  0  0  0  0  0  0  0  0  0  0
   -1.7112    0.6247   -1.7974 H   0  0  0  0  0  0  0  0  0  0  0  0
   -0.3562    1.6295   -1.2522 H   0  0  0  0  0  0  0  0  0  0  0  0
    0.0767    0.4654   -3.0062 C   0  0  0  0  0  0  0  0  0  0  0  0
    1.1617    0.4981   -2.8642 H   0  0  0  0  0  0  0  0  0  0  0  0
   -0.1805   -0.5131   -3.4251 H   0  0  0  0  0  0  0  0  0  0  0  0
   -0.3417    1.5572   -3.9866 C   0  0  0  0  0  0  0  0  0  0  0  0
   -1.4259    1.5255   -4.1436 H   0  0  0  0  0  0  0  0  0  0  0  0
   -0.0853    2.5434   -3.5836 H   0  0  0  0  0  0  0  0  0  0  0  0
    0.3555    1.3336   -5.2569 N   0  0  0  0  0  0  0  0  0  0  0  0
    0.0995    2.0390   -5.9477 H   0  0  0  0  0  0  0  0  0  0  0  0
    1.3658    1.3075   -5.1202 H   0  0  0  0  0  0  0  0  0  0  0  0
   -1.0674    1.0656    1.2467 C   0  0  0  0  0  0  0  0  0  0  0  0
   -2.0764    1.6967    0.9497 O   0  0  0  0  0  0  0  0  0  0  0  0
   -0.1811    1.6013    2.1629 N   0  0  0  0  0  0  0  0  0  0  0  0
    0.6038    1.0242    2.4517 H   0  0  0  0  0  0  0  0  0  0  0  0
   -0.3718    2.9010    2.7950 C   0  0  0  0  0  0  0  0  0  0  0  0
   -1.3118    2.9197    3.3566 H   0  0  0  0  0  0  0  0  0  0  0  0
    0.4489    3.1088    3.4883 H   0  0  0  0  0  0  0  0  0  0  0  0
   -0.3959    3.6941    2.0403 H   0  0  0  0  0  0  0  0  0  0  0  0
  1  2  1  0  0  0  0
  2  3  1  0  0  0  0
  2  4  1  0  0  0  0
  2  5  1  0  0  0  0
  5  6  2  0  0  0  0
  5  7  1  0  0  0  0
  7  8  1  0  0  0  0
  7  9  1  0  0  0  0
  9 10  1  0  0  0  0
  9 11  1  0  0  0  0
  9 26  1  0  0  0  0
 11 12  1  0  0  0  0
 11 13  1  0  0  0  0
 11 14  1  0  0  0  0
 14 15  1  0  0  0  0
 14 16  1  0  0  0  0
 14 17  1  0  0  0  0
 17 18  1  0  0  0  0
 17 19  1  0  0  0  0
 17 20  1  0  0  0  0
 20 21  1  0  0  0  0
 20 22  1  0  0  0  0
 20 23  1  0  0  0  0
 23 24  1  0  0  0  0
 23 25  1  0  0  0  0
 26 27  2  0  0  0  0
 26 28  1  0  0  0  0
 28 29  1  0  0  0  0
 28 30  1  0  0  0  0
 30 31  1  0  0  0  0
 30 32  1  0  0  0  0
 30 33  1  0  0  0  0
M  END
$$$$

  -OEChem-03222214063D

 33 32  0     1  0  0  0  0  0999 V2000
   -3.6344   -4.0522    1.5836 H   0  0  0  0  0  0  0  0  0  0  0  0
   -3.6821   -3.0376    1.1783 C   0  0  0  0  0  0  0  0  0  0  0  0
   -4.3504   -2.4401    1.8030 H   0  0  0  0  0  0  0  0  0  0  0  0
   -4.0854   -3.0820    0.1637 H   0  0  0  0  0  0  0  0  0  0  0  0
   -2.2982   -2.4164    1.1570 C   0  0  0  0  0  0  0  0  0  0  0  0
   -1.3342   -3.0602    1.5407 O   0  0  0  0  0  0  0  0  0  0  0  0
   -2.1386   -1.1228    0.7055 N   0  0  0  0  0  0  0  0  0  0  0  0
   -2.9815   -0.5995    0.4752 H   0  0  0  0  0  0  0  0  0  0  0  0
   -0.8737   -0.3744    0.7132 C   0  0  1  0  0  0  0  0  0  0  0  0
   -0.1973   -0.8608    1.4236 H   0  0  0  0  0  0  0  0  0  0  0  0
   -0.2080   -0.4743   -0.6771 C   0  0  0  0  0  0  0  0  0  0  0  0
    0.8786   -0.4286   -0.5514 H   0  0  0  0  0  0  0  0  0  0  0  0
   -0.4401   -1.4533   -1.1102 H   0  0  0  0  0  0  0  0  0  0  0  0
   -0.6227    0.6386   -1.6533 C   0  0  0  0  0  0  0  0  0  0  0  0
   -1.7093    0.7713   -1.6146 H   0  0  0  0  0  0  0  0  0  0  0  0
   -0.1544    1.5854   -1.3637 H   0  0  0  0  0  0  0  0  0  0  0  0
   -0.2274    0.2759   -3.0885 C   0  0  0  0  0  0  0  0  0  0  0  0
    0.8555    0.1268   -3.1453 H   0  0  0  0  0  0  0  0  0  0  0  0
   -0.7136   -0.6609   -3.3803 H   0  0  0  0  0  0  0  0  0  0  0  0
   -0.6414    1.3798   -4.0568 C   0  0  0  0  0  0  0  0  0  0  0  0
   -1.7260    1.5298   -4.0130 H   0  0  0  0  0  0  0  0  0  0  0  0
   -0.1565    2.3228   -3.7806 H   0  0  0  0  0  0  0  0  0  0  0  0
   -0.2459    0.9852   -5.4124 N   0  0  0  0  0  0  0  0  0  0  0  0
   -0.5113    1.6944   -6.0958 H   0  0  0  0  0  0  0  0  0  0  0  0
    0.7539    0.7894   -5.4602 H   0  0  0  0  0  0  0  0  0  0  0  0
   -1.0607    1.0670    1.2339 C   0  0  0  0  0  0  0  0  0  0  0  0
   -2.0653    1.7045    0.9365 O   0  0  0  0  0  0  0  0  0  0  0  0
   -0.1685    1.6022    2.1450 N   0  0  0  0  0  0  0  0  0  0  0  0
    0.6082    1.0182    2.4424 H   0  0  0  0  0  0  0  0  0  0  0  0
   -0.3512    2.9056    2.7716 C   0  0  0  0  0  0  0  0  0  0  0  0
   -1.2839    2.9267    3.3450 H   0  0  0  0  0  0  0  0  0  0  0  0
    0.4787    3.1185    3.4522 H   0  0  0  0  0  0  0  0  0  0  0  0
   -0.3863    3.6938    2.0122 H   0  0  0  0  0  0  0  0  0  0  0  0
  1  2  1  0  0  0  0
  2  3  1  0  0  0  0
  2  4  1  0  0  0  0
  2  5  1  0  0  0  0
  5  6  2  0  0  0  0
  5  7  1  0  0  0  0
  7  8  1  0  0  0  0
  7  9  1  0  0  0  0
  9 10  1  0  0  0  0
  9 11  1  0  0  0  0
  9 26  1  0  0  0  0
 11 12  1  0  0  0  0
 11 13  1  0  0  0  0
 11 14  1  0  0  0  0
 14 15  1  0  0  0  0
 14 16  1  0  0  0  0
 14 17  1  0  0  0  0
 17 18  1  0  0  0  0
 17 19  1  0  0  0  0
 17 20  1  0  0  0  0
 20 21  1  0  0  0  0
 20 22  1  0  0  0  0
 20 23  1  0  0  0  0
 23 24  1  0  0  0  0
 23 25  1  0  0  0  0
 26 27  2  0  0  0  0
 26 28  1  0  0  0  0
 28 29  1  0  0  0  0
 28 30  1  0  0  0  0
 30 31  1  0  0  0  0
 30 32  1  0  0  0  0
 30 33  1  0  0  0  0
M  END
$$$$

  -OEChem-03222214063D

 33 32  0     1  0  0  0  0  0999 V2000
   -3.6316   -4.0535    1.5784 H   0  0  0  0  0  0  0  0  0  0  0  0
   -3.6856   -3.0370    1.1787 C   0  0  0  0  0  0  0  0  0  0  0  0
   -4.3511   -2.4448    1.8113 H   0  0  0  0  0  0  0  0  0  0  0  0
   -4.0957   -3.0772    0.1666 H   0  0  0  0  0  0  0  0  0  0  0  0
   -2.3040   -2.4111    1.1514 C   0  0  0  0  0  0  0  0  0  0  0  0
   -1.3348   -3.0540    1.5242 O   0  0  0  0  0  0  0  0  0  0  0  0
   -2.1523   -1.1133    0.7089 N   0  0  0  0  0  0  0  0  0  0  0  0
   -2.9986   -0.5923    0.4861 H   0  0  0  0  0  0  0  0  0  0  0  0
   -0.8899   -0.3606    0.7129 C   0  0  1  0  0  0  0  0  0  0  0  0
   -0.2141   -0.8509    1.4210 H   0  0  0  0  0  0  0  0  0  0  0  0
   -0.2180   -0.4612   -0.6743 C   0  0  0  0  0  0  0  0  0  0  0  0
    0.8682   -0.4155   -0.5477 H   0  0  0  0  0  0  0  0  0  0  0  0
   -0.4466   -1.4456   -1.0972 H   0  0  0  0  0  0  0  0  0  0  0  0
   -0.6288    0.6436   -1.6646 C   0  0  0  0  0  0  0  0  0  0  0  0
   -1.6619    0.9496   -1.4709 H   0  0  0  0  0  0  0  0  0  0  0  0
    0.0145    1.5203   -1.5340 H   0  0  0  0  0  0  0  0  0  0  0  0
   -0.5664    0.1348   -3.1089 C   0  0  0  0  0  0  0  0  0  0  0  0
    0.4511   -0.1987   -3.3364 H   0  0  0  0  0  0  0  0  0  0  0  0
   -1.2387   -0.7212   -3.2294 H   0  0  0  0  0  0  0  0  0  0  0  0
   -0.9747    1.2339   -4.0853 C   0  0  0  0  0  0  0  0  0  0  0  0
   -1.9942    1.5703   -3.8656 H   0  0  0  0  0  0  0  0  0  0  0  0
   -0.3040    2.0944   -3.9844 H   0  0  0  0  0  0  0  0  0  0  0  0
   -0.9082    0.6985   -5.4485 N   0  0  0  0  0  0  0  0  0  0  0  0
   -1.1826    1.4015   -6.1347 H   0  0  0  0  0  0  0  0  0  0  0  0
    0.0214    0.3327   -5.6535 H   0  0  0  0  0  0  0  0  0  0  0  0
   -1.0645    1.0790    1.2447 C   0  0  0  0  0  0  0  0  0  0  0  0
   -2.0754    1.7194    0.9769 O   0  0  0  0  0  0  0  0  0  0  0  0
   -0.1585    1.6016    2.1496 N   0  0  0  0  0  0  0  0  0  0  0  0
    0.6190    1.0109    2.4305 H   0  0  0  0  0  0  0  0  0  0  0  0
   -0.3255    2.8994    2.7925 C   0  0  0  0  0  0  0  0  0  0  0  0
   -1.2440    2.9168    3.3885 H   0  0  0  0  0  0  0  0  0  0  0  0
    0.5205    3.1048    3.4555 H   0  0  0  0  0  0  0  0  0  0  0  0
   -0.3772    3.6952    2.0419 H   0  0  0  0  0  0  0  0  0  0  0  0
  1  2  1  0  0  0  0
  2  3  1  0  0  0  0
  2  4  1  0  0  0  0
  2  5  1  0  0  0  0
  5  6  2  0  0  0  0
  5  7  1  0  0  0  0
  7  8  1  0  0  0  0
  7  9  1  0  0  0  0
  9 10  1  0  0  0  0
  9 11  1  0  0  0  0
  9 26  1  0  0  0  0
 11 12  1  0  0  0  0
 11 13  1  0  0  0  0
 11 14  1  0  0  0  0
 14 15  1  0  0  0  0
 14 16  1  0  0  0  0
 14 17  1  0  0  0  0
 17 18  1  0  0  0  0
 17 19  1  0  0  0  0
 17 20  1  0  0  0  0
 20 21  1  0  0  0  0
 20 22  1  0  0  0  0
 20 23  1  0  0  0  0
 23 24  1  0  0  0  0
 23 25  1  0  0  0  0
 26 27  2  0  0  0  0
 26 28  1  0  0  0  0
 28 29  1  0  0  0  0
 28 30  1  0  0  0  0
 30 31  1  0  0  0  0
 30 32  1  0  0  0  0
 30 33  1  0  0  0  0
M  END
$$$$

  -OEChem-03222214063D

 33 32  0     1  0  0  0  0  0999 V2000
   -3.6282   -4.0454    1.5565 H   0  0  0  0  0  0  0  0  0  0  0  0
   -3.6887   -3.0233    1.1724 C   0  0  0  0  0  0  0  0  0  0  0  0
   -4.3487   -2.4419    1.8206 H   0  0  0  0  0  0  0  0  0  0  0  0
   -4.1098   -3.0498    0.1645 H   0  0  0  0  0  0  0  0  0  0  0  0
   -2.3089   -2.3936    1.1389 C   0  0  0  0  0  0  0  0  0  0  0  0
   -1.3338   -3.0415    1.4869 O   0  0  0  0  0  0  0  0  0  0  0  0
   -2.1650   -1.0887    0.7153 N   0  0  0  0  0  0  0  0  0  0  0  0
   -3.0149   -0.5669    0.5082 H   0  0  0  0  0  0  0  0  0  0  0  0
   -0.9043   -0.3334    0.7144 C   0  0  1  0  0  0  0  0  0  0  0  0
   -0.2273   -0.8315    1.4159 H   0  0  0  0  0  0  0  0  0  0  0  0
   -0.2331   -0.4357   -0.6737 C   0  0  0  0  0  0  0  0  0  0  0  0
    0.8517   -0.3808   -0.5387 H   0  0  0  0  0  0  0  0  0  0  0  0
   -0.4452   -1.4281   -1.0864 H   0  0  0  0  0  0  0  0  0  0  0  0
   -0.6335    0.6573   -1.6863 C   0  0  0  0  0  0  0  0  0  0  0  0
   -1.5455    1.1660   -1.3631 H   0  0  0  0  0  0  0  0  0  0  0  0
    0.1616    1.4070   -1.7553 H   0  0  0  0  0  0  0  0  0  0  0  0
   -0.9213    0.0480   -3.0637 C   0  0  0  0  0  0  0  0  0  0  0  0
   -0.0290   -0.4707   -3.4290 H   0  0  0  0  0  0  0  0  0  0  0  0
   -1.7300   -0.6858   -2.9799 H   0  0  0  0  0  0  0  0  0  0  0  0
   -1.3274    1.1295   -4.0603 C   0  0  0  0  0  0  0  0  0  0  0  0
   -2.2223    1.6514   -3.7031 H   0  0  0  0  0  0  0  0  0  0  0  0
   -0.5229    1.8660   -4.1640 H   0  0  0  0  0  0  0  0  0  0  0  0
   -1.6020    0.4952   -5.3532 N   0  0  0  0  0  0  0  0  0  0  0  0
   -1.8908    1.1837   -6.0482 H   0  0  0  0  0  0  0  0  0  0  0  0
   -0.7949   -0.0358   -5.6799 H   0  0  0  0  0  0  0  0  0  0  0  0
   -1.0654    1.0988    1.2698 C   0  0  0  0  0  0  0  0  0  0  0  0
   -2.0883    1.7379    1.0494 O   0  0  0  0  0  0  0  0  0  0  0  0
   -0.1418    1.6022    2.1679 N   0  0  0  0  0  0  0  0  0  0  0  0
    0.6432    1.0072    2.4171 H   0  0  0  0  0  0  0  0  0  0  0  0
   -0.3013    2.8803    2.8507 C   0  0  0  0  0  0  0  0  0  0  0  0
   -1.2024    2.8724    3.4728 H   0  0  0  0  0  0  0  0  0  0  0  0
    0.5619    3.0755    3.4943 H   0  0  0  0  0  0  0  0  0  0  0  0
   -0.3811    3.6957    2.1241 H   0  0  0  0  0  0  0  0  0  0  0  0
  1  2  1  0  0  0  0
  2  3  1  0  0  0  0
  2  4  1  0  0  0  0
  2  5  1  0  0  0  0
  5  6  2  0  0  0  0
  5  7  1  0  0  0  0
  7  8  1  0  0  0  0
  7  9  1  0  0  0  0
  9 10  1  0  0  0  0
  9 11  1  0  0  0  0
  9 26  1  0  0  0  0
 11 12  1  0  0  0  0
 11 13  1  0  0  0  0
 11 14  1  0  0  0  0
 14 15  1  0  0  0  0
 14 16  1  0  0  0  0
 14 17  1  0  0  0  0
 17 18  1  0  0  0  0
 17 19  1  0  0  0  0
 17 20  1  0  0  0  0
 20 21  1  0  0  0  0
 20 22  1  0  0  0  0
 20 23  1  0  0  0  0
 23 24  1  0  0  0  0
 23 25  1  0  0  0  0
 26 27  2  0  0  0  0
 26 28  1  0  0  0  0
 28 29  1  0  0  0  0
 28 30  1  0  0  0  0
 30 31  1  0  0  0  0
 30 32  1  0  0  0  0
 30 33  1  0  0  0  0
M  END
$$$$

  -OEChem-03222214063D

 33 32  0     1  0  0  0  0  0999 V2000
   -3.6374   -4.0280    1.5275 H   0  0  0  0  0  0  0  0  0  0  0  0
   -3.6970   -3.0001    1.1587 C   0  0  0  0  0  0  0  0  0  0  0  0
   -4.3553   -2.4274    1.8164 H   0  0  0  0  0  0  0  0  0  0  0  0
   -4.1194   -3.0110    0.1510 H   0  0  0  0  0  0  0  0  0  0  0  0
   -2.3161   -2.3727    1.1326 C   0  0  0  0  0  0  0  0  0  0  0  0
   -1.3428   -3.0263    1.4750 O   0  0  0  0  0  0  0  0  0  0  0  0
   -2.1683   -1.0644    0.7208 N   0  0  0  0  0  0  0  0  0  0  0  0
   -3.0160   -0.5386    0.5151 H   0  0  0  0  0  0  0  0  0  0  0  0
   -0.9045   -0.3149    0.7192 C   0  0  1  0  0  0  0  0  0  0  0  0
   -0.2287   -0.8204    1.4168 H   0  0  0  0  0  0  0  0  0  0  0  0
   -0.2395   -0.4264   -0.6724 C   0  0  0  0  0  0  0  0  0  0  0  0
    0.8427   -0.3570   -0.5232 H   0  0  0  0  0  0  0  0  0  0  0  0
   -0.4291   -1.4259   -1.0789 H   0  0  0  0  0  0  0  0  0  0  0  0
   -0.6242    0.6567   -1.7047 C   0  0  0  0  0  0  0  0  0  0  0  0
   -1.3287    1.3794   -1.2887 H   0  0  0  0  0  0  0  0  0  0  0  0
    0.2741    1.2087   -2.0002 H   0  0  0  0  0  0  0  0  0  0  0  0
   -1.2672    0.0217   -2.9437 C   0  0  0  0  0  0  0  0  0  0  0  0
   -0.5593   -0.6692   -3.4126 H   0  0  0  0  0  0  0  0  0  0  0  0
   -2.1520   -0.5500   -2.6444 H   0  0  0  0  0  0  0  0  0  0  0  0
   -1.6798    1.0903   -3.9516 C   0  0  0  0  0  0  0  0  0  0  0  0
   -2.3952    1.7819   -3.4923 H   0  0  0  0  0  0  0  0  0  0  0  0
   -0.8039    1.6675   -4.2681 H   0  0  0  0  0  0  0  0  0  0  0  0
   -2.2938    0.4297   -5.1078 N   0  0  0  0  0  0  0  0  0  0  0  0
   -2.6036    1.1108   -5.8011 H   0  0  0  0  0  0  0  0  0  0  0  0
   -1.6558   -0.2488   -5.5237 H   0  0  0  0  0  0  0  0  0  0  0  0
   -1.0569    1.1123    1.2894 C   0  0  0  0  0  0  0  0  0  0  0  0
   -2.0825    1.7536    1.0880 O   0  0  0  0  0  0  0  0  0  0  0  0
   -0.1259    1.6035    2.1869 N   0  0  0  0  0  0  0  0  0  0  0  0
    0.6577    1.0027    2.4263 H   0  0  0  0  0  0  0  0  0  0  0  0
   -0.2854    2.8675    2.8959 C   0  0  0  0  0  0  0  0  0  0  0  0
   -1.1767    2.8403    3.5319 H   0  0  0  0  0  0  0  0  0  0  0  0
    0.5863    3.0584    3.5294 H   0  0  0  0  0  0  0  0  0  0  0  0
   -0.3837    3.6955    2.1858 H   0  0  0  0  0  0  0  0  0  0  0  0
  1  2  1  0  0  0  0
  2  3  1  0  0  0  0
  2  4  1  0  0  0  0
  2  5  1  0  0  0  0
  5  6  2  0  0  0  0
  5  7  1  0  0  0  0
  7  8  1  0  0  0  0
  7  9  1  0  0  0  0
  9 10  1  0  0  0  0
  9 11  1  0  0  0  0
  9 26  1  0  0  0  0
 11 12  1  0  0  0  0
 11 13  1  0  0  0  0
 11 14  1  0  0  0  0
 14 15  1  0  0  0  0
 14 16  1  0  0  0  0
 14 17  1  0  0  0  0
 17 18  1  0  0  0  0
 17 19  1  0  0  0  0
 17 20  1  0  0  0  0
 20 21  1  0  0  0  0
 20 22  1  0  0  0  0
 20 23  1  0  0  0  0
 23 24  1  0  0  0  0
 23 25  1  0  0  0  0
 26 27  2  0  0  0  0
 26 28  1  0  0  0  0
 28 29  1  0  0  0  0
 28 30  1  0  0  0  0
 30 31  1  0  0  0  0
 30 32  1  0  0  0  0
 30 33  1  0  0  0  0
M  END
$$$$

  -OEChem-03222214063D

 33 32  0     1  0  0  0  0  0999 V2000
   -3.6622   -4.0089    1.5360 H   0  0  0  0  0  0  0  0  0  0  0  0
   -3.7079   -2.9860    1.1522 C   0  0  0  0  0  0  0  0  0  0  0  0
   -4.3711   -2.3989    1.7920 H   0  0  0  0  0  0  0  0  0  0  0  0
   -4.1151   -3.0072    0.1384 H   0  0  0  0  0  0  0  0  0  0  0  0
   -2.3223   -2.3694    1.1384 C   0  0  0  0  0  0  0  0  0  0  0  0
   -1.3571   -3.0286    1.4929 O   0  0  0  0  0  0  0  0  0  0  0  0
   -2.1616   -1.0643    0.7228 N   0  0  0  0  0  0  0  0  0  0  0  0
   -3.0031   -0.5360    0.4984 H   0  0  0  0  0  0  0  0  0  0  0  0
   -0.8935   -0.3229    0.7262 C   0  0  1  0  0  0  0  0  0  0  0  0
   -0.2211   -0.8283    1.4270 H   0  0  0  0  0  0  0  0  0  0  0  0
   -0.2331   -0.4447   -0.6672 C   0  0  0  0  0  0  0  0  0  0  0  0
    0.8471   -0.3644   -0.5077 H   0  0  0  0  0  0  0  0  0  0  0  0
   -0.4093   -1.4466   -1.0742 H   0  0  0  0  0  0  0  0  0  0  0  0
   -0.6070    0.6354   -1.7057 C   0  0  0  0  0  0  0  0  0  0  0  0
   -1.0396    1.5258   -1.2458 H   0  0  0  0  0  0  0  0  0  0  0  0
    0.3049    0.9551   -2.2209 H   0  0  0  0  0  0  0  0  0  0  0  0
   -1.5766    0.0648   -2.7471 C   0  0  0  0  0  0  0  0  0  0  0  0
   -1.0985   -0.7610   -3.2838 H   0  0  0  0  0  0  0  0  0  0  0  0
   -2.4654   -0.3285   -2.2426 H   0  0  0  0  0  0  0  0  0  0  0  0
   -2.0032    1.1408   -3.7402 C   0  0  0  0  0  0  0  0  0  0  0  0
   -2.5058    1.9588   -3.2120 H   0  0  0  0  0  0  0  0  0  0  0  0
   -1.1250    1.5531   -4.2493 H   0  0  0  0  0  0  0  0  0  0  0  0
   -2.9163    0.5384   -4.7165 N   0  0  0  0  0  0  0  0  0  0  0  0
   -3.2454    1.2303   -5.3898 H   0  0  0  0  0  0  0  0  0  0  0  0
   -2.4769   -0.2507   -5.1902 H   0  0  0  0  0  0  0  0  0  0  0  0
   -1.0497    1.1056    1.2908 C   0  0  0  0  0  0  0  0  0  0  0  0
   -2.0674    1.7520    1.0662 O   0  0  0  0  0  0  0  0  0  0  0  0
   -0.1269    1.5999    2.1946 N   0  0  0  0  0  0  0  0  0  0  0  0
    0.6506    0.9974    2.4494 H   0  0  0  0  0  0  0  0  0  0  0  0
   -0.2808    2.8782    2.8780 C   0  0  0  0  0  0  0  0  0  0  0  0
   -1.1912    2.8803    3.4866 H   0  0  0  0  0  0  0  0  0  0  0  0
    0.5751    3.0612    3.5348 H   0  0  0  0  0  0  0  0  0  0  0  0
   -0.3399    3.6955    2.1515 H   0  0  0  0  0  0  0  0  0  0  0  0
  1  2  1  0  0  0  0
  2  3  1  0  0  0  0
  2  4  1  0  0  0  0
  2  5  1  0  0  0  0
  5  6  2  0  0  0  0
  5  7  1  0  0  0  0
  7  8  1  0  0  0  0
  7  9  1  0  0  0  0
  9 10  1  0  0  0  0
  9 11  1  0  0  0  0
  9 26  1  0  0  0  0
 11 12  1  0  0  0  0
 11 13  1  0  0  0  0
 11 14  1  0  0  0  0
 14 15  1  0  0  0  0
 14 16  1  0  0  0  0
 14 17  1  0  0  0  0
 17 18  1  0  0  0  0
 17 19  1  0  0  0  0
 17 20  1  0  0  0  0
 20 21  1  0  0  0  0
 20 22  1  0  0  0  0
 20 23  1  0  0  0  0
 23 24  1  0  0  0  0
 23 25  1  0  0  0  0
 26 27  2  0  0  0  0
 26 28  1  0  0  0  0
 28 29  1  0  0  0  0
 28 30  1  0  0  0  0
 30 31  1  0  0  0  0
 30 32  1  0  0  0  0
 30 33  1  0  0  0  0
M  END
$$$$

  -OEChem-03222214063D

 33 32  0     1  0  0  0  0  0999 V2000
   -3.6646   -4.0173    1.5722 H   0  0  0  0  0  0  0  0  0  0  0  0
   -3.7080   -2.9945    1.1877 C   0  0  0  0  0  0  0  0  0  0  0  0
   -4.3697   -2.4055    1.8274 H   0  0  0  0  0  0  0  0  0  0  0  0
   -4.1164   -3.0157    0.1744 H   0  0  0  0  0  0  0  0  0  0  0  0
   -2.3202   -2.3815    1.1730 C   0  0  0  0  0  0  0  0  0  0  0  0
   -1.3591   -3.0379    1.5435 O   0  0  0  0  0  0  0  0  0  0  0  0
   -2.1520   -1.0835    0.7385 N   0  0  0  0  0  0  0  0  0  0  0  0
   -2.9895   -0.5559    0.4966 H   0  0  0  0  0  0  0  0  0  0  0  0
   -0.8804   -0.3478    0.7324 C   0  0  1  0  0  0  0  0  0  0  0  0
   -0.2036   -0.8474    1.4331 H   0  0  0  0  0  0  0  0  0  0  0  0
   -0.2321   -0.4715   -0.6674 C   0  0  0  0  0  0  0  0  0  0  0  0
    0.8494   -0.3959   -0.5174 H   0  0  0  0  0  0  0  0  0  0  0  0
   -0.4197   -1.4689   -1.0796 H   0  0  0  0  0  0  0  0  0  0  0  0
   -0.6099    0.6116   -1.6986 C   0  0  0  0  0  0  0  0  0  0  0  0
   -0.7632    1.5889   -1.2346 H   0  0  0  0  0  0  0  0  0  0  0  0
    0.2244    0.7233   -2.3988 H   0  0  0  0  0  0  0  0  0  0  0  0
   -1.8489    0.1926   -2.4995 C   0  0  0  0  0  0  0  0  0  0  0  0
   -1.6425   -0.7387   -3.0367 H   0  0  0  0  0  0  0  0  0  0  0  0
   -2.6851    0.0119   -1.8169 H   0  0  0  0  0  0  0  0  0  0  0  0
   -2.2476    1.2784   -3.4934 C   0  0  0  0  0  0  0  0  0  0  0  0
   -2.5077    2.1982   -2.9571 H   0  0  0  0  0  0  0  0  0  0  0  0
   -1.4103    1.5006   -4.1643 H   0  0  0  0  0  0  0  0  0  0  0  0
   -3.4003    0.8041   -4.2664 N   0  0  0  0  0  0  0  0  0  0  0  0
   -3.7205    1.5145   -4.9246 H   0  0  0  0  0  0  0  0  0  0  0  0
   -3.1840   -0.0682   -4.7483 H   0  0  0  0  0  0  0  0  0  0  0  0
   -1.0442    1.0872    1.2777 C   0  0  0  0  0  0  0  0  0  0  0  0
   -2.0532    1.7348    1.0208 O   0  0  0  0  0  0  0  0  0  0  0  0
   -0.1283    1.5987    2.1793 N   0  0  0  0  0  0  0  0  0  0  0  0
    0.6452    0.9998    2.4536 H   0  0  0  0  0  0  0  0  0  0  0  0
   -0.2911    2.8868    2.8426 C   0  0  0  0  0  0  0  0  0  0  0  0
   -1.1984    2.8902    3.4558 H   0  0  0  0  0  0  0  0  0  0  0  0
    0.5662    3.0888    3.4919 H   0  0  0  0  0  0  0  0  0  0  0  0
   -0.3614    3.6922    2.1039 H   0  0  0  0  0  0  0  0  0  0  0  0
  1  2  1  0  0  0  0
  2  3  1  0  0  0  0
  2  4  1  0  0  0  0
  2  5  1  0  0  0  0
  5  6  2  0  0  0  0
  5  7  1  0  0  0  0
  7  8  1  0  0  0  0
  7  9  1  0  0  0  0
  9 10  1  0  0  0  0
  9 11  1  0  0  0  0
  9 26  1  0  0  0  0
 11 12  1  0  0  0  0
 11 13  1  0  0  0  0
 11 14  1  0  0  0  0
 14 15  1  0  0  0  0
 14 16  1  0  0  0  0
 14 17  1  0  0  0  0
 17 18  1  0  0  0  0
 17 19  1  0  0  0  0
 17 20  1  0  0  0  0
 20 21  1  0  0  0  0
 20 22  1  0  0  0  0
 20 23  1  0  0  0  0
 23 24  1  0  0  0  0
 23 25  1  0  0  0  0
 26 27  2  0  0  0  0
 26 28  1  0  0  0  0
 28 29  1  0  0  0  0
 28 30  1  0  0  0  0
 30 31  1  0  0  0  0
 30 32  1  0  0  0  0
 30 33  1  0  0  0  0
M  END
$$$$

  -OEChem-03222214063D

 33 32  0     1  0  0  0  0  0999 V2000
   -3.6439   -4.0434    1.6351 H   0  0  0  0  0  0  0  0  0  0  0  0
   -3.6965   -3.0251    1.2400 C   0  0  0  0  0  0  0  0  0  0  0  0
   -4.3490   -2.4307    1.8842 H   0  0  0  0  0  0  0  0  0  0  0  0
   -4.1212   -3.0583    0.2338 H   0  0  0  0  0  0  0  0  0  0  0  0
   -2.3111   -2.4091    1.1961 C   0  0  0  0  0  0  0  0  0  0  0  0
   -1.3413   -3.0620    1.5499 O   0  0  0  0  0  0  0  0  0  0  0  0
   -2.1558   -1.1112    0.7572 N   0  0  0  0  0  0  0  0  0  0  0  0
   -2.9995   -0.5864    0.5313 H   0  0  0  0  0  0  0  0  0  0  0  0
   -0.8888   -0.3680    0.7388 C   0  0  1  0  0  0  0  0  0  0  0  0
   -0.2034   -0.8637    1.4338 H   0  0  0  0  0  0  0  0  0  0  0  0
   -0.2431   -0.4719   -0.6630 C   0  0  0  0  0  0  0  0  0  0  0  0
    0.8401   -0.4019   -0.5232 H   0  0  0  0  0  0  0  0  0  0  0  0
   -0.4428   -1.4614   -1.0881 H   0  0  0  0  0  0  0  0  0  0  0  0
   -0.6354    0.6189   -1.6784 C   0  0  0  0  0  0  0  0  0  0  0  0
   -0.5466    1.6169   -1.2388 H   0  0  0  0  0  0  0  0  0  0  0  0
    0.0688    0.5751   -2.5157 H   0  0  0  0  0  0  0  0  0  0  0  0
   -2.0528    0.4000   -2.2250 C   0  0  0  0  0  0  0  0  0  0  0  0
   -2.1146   -0.5878   -2.6927 H   0  0  0  0  0  0  0  0  0  0  0  0
   -2.7794    0.4343   -1.4082 H   0  0  0  0  0  0  0  0  0  0  0  0
   -2.4144    1.4734   -3.2464 C   0  0  0  0  0  0  0  0  0  0  0  0
   -2.4302    2.4572   -2.7634 H   0  0  0  0  0  0  0  0  0  0  0  0
   -1.6674    1.4987   -4.0474 H   0  0  0  0  0  0  0  0  0  0  0  0
   -3.7355    1.1627   -3.8023 N   0  0  0  0  0  0  0  0  0  0  0  0
   -4.0309    1.8736   -4.4713 H   0  0  0  0  0  0  0  0  0  0  0  0
   -3.7452    0.2360   -4.2272 H   0  0  0  0  0  0  0  0  0  0  0  0
   -1.0521    1.0676    1.2816 C   0  0  0  0  0  0  0  0  0  0  0  0
   -2.0618    1.7151    1.0290 O   0  0  0  0  0  0  0  0  0  0  0  0
   -0.1286    1.5830    2.1728 N   0  0  0  0  0  0  0  0  0  0  0  0
    0.6534    0.9898    2.4353 H   0  0  0  0  0  0  0  0  0  0  0  0
   -0.2786    2.8804    2.8202 C   0  0  0  0  0  0  0  0  0  0  0  0
   -1.1823    2.8980    3.4385 H   0  0  0  0  0  0  0  0  0  0  0  0
    0.5841    3.0846    3.4616 H   0  0  0  0  0  0  0  0  0  0  0  0
   -0.3483    3.6762    2.0712 H   0  0  0  0  0  0  0  0  0  0  0  0
  1  2  1  0  0  0  0
  2  3  1  0  0  0  0
  2  4  1  0  0  0  0
  2  5  1  0  0  0  0
  5  6  2  0  0  0  0
  5  7  1  0  0  0  0
  7  8  1  0  0  0  0
  7  9  1  0  0  0  0
  9 10  1  0  0  0  0
  9 11  1  0  0  0  0
  9 26  1  0  0  0  0
 11 12  1  0  0  0  0
 11 13  1  0  0  0  0
 11 14  1  0  0  0  0
 14 15  1  0  0  0  0
 14 16  1  0  0  0  0
 14 17  1  0  0  0  0
 17 18  1  0  0  0  0
 17 19  1  0  0  0  0
 17 20  1  0  0  0  0
 20 21  1  0  0  0  0
 20 22  1  0  0  0  0
 20 23  1  0  0  0  0
 23 24  1  0  0  0  0
 23 25  1  0  0  0  0
 26 27  2  0  0  0  0
 26 28  1  0  0  0  0
 28 29  1  0  0  0  0
 28 30  1  0  0  0  0
 30 31  1  0  0  0  0
 30 32  1  0  0  0  0
 30 33  1  0  0  0  0
M  END
$$$$

  -OEChem-03222214063D

 33 32  0     1  0  0  0  0  0999 V2000
   -3.5996   -4.0774    1.6499 H   0  0  0  0  0  0  0  0  0  0  0  0
   -3.6782   -3.0478    1.2901 C   0  0  0  0  0  0  0  0  0  0  0  0
   -4.3075   -2.4806    1.9802 H   0  0  0  0  0  0  0  0  0  0  0  0
   -4.1456   -3.0537    0.3025 H   0  0  0  0  0  0  0  0  0  0  0  0
   -2.3020   -2.4154    1.2068 C   0  0  0  0  0  0  0  0  0  0  0  0
   -1.3117   -3.0661    1.5029 O   0  0  0  0  0  0  0  0  0  0  0  0
   -2.1795   -1.1057    0.7932 N   0  0  0  0  0  0  0  0  0  0  0  0
   -3.0391   -0.5878    0.6168 H   0  0  0  0  0  0  0  0  0  0  0  0
   -0.9264   -0.3393    0.7516 C   0  0  1  0  0  0  0  0  0  0  0  0
   -0.2336   -0.8402    1.4355 H   0  0  0  0  0  0  0  0  0  0  0  0
   -0.2697   -0.4357   -0.6448 C   0  0  0  0  0  0  0  0  0  0  0  0
    0.8135   -0.3582   -0.5081 H   0  0  0  0  0  0  0  0  0  0  0  0
   -0.4660   -1.4293   -1.0615 H   0  0  0  0  0  0  0  0  0  0  0  0
   -0.6739    0.6302   -1.6810 C   0  0  0  0  0  0  0  0  0  0  0  0
   -0.3869    1.6220   -1.3162 H   0  0  0  0  0  0  0  0  0  0  0  0
   -0.1148    0.4466   -2.6044 H   0  0  0  0  0  0  0  0  0  0  0  0
   -2.1790    0.6216   -1.9957 C   0  0  0  0  0  0  0  0  0  0  0  0
   -2.4585   -0.3663   -2.3753 H   0  0  0  0  0  0  0  0  0  0  0  0
   -2.7701    0.8124   -1.0979 H   0  0  0  0  0  0  0  0  0  0  0  0
   -2.5211    1.6826   -3.0368 C   0  0  0  0  0  0  0  0  0  0  0  0
   -2.3269    2.6803   -2.6273 H   0  0  0  0  0  0  0  0  0  0  0  0
   -1.8973    1.5525   -3.9281 H   0  0  0  0  0  0  0  0  0  0  0  0
   -3.9373    1.5514   -3.3951 N   0  0  0  0  0  0  0  0  0  0  0  0
   -4.2194    2.2744   -4.0566 H   0  0  0  0  0  0  0  0  0  0  0  0
   -4.1383    0.6218   -3.7622 H   0  0  0  0  0  0  0  0  0  0  0  0
   -1.0539    1.0905    1.3231 C   0  0  0  0  0  0  0  0  0  0  0  0
   -2.0781    1.7422    1.1618 O   0  0  0  0  0  0  0  0  0  0  0  0
   -0.0865    1.5798    2.1829 N   0  0  0  0  0  0  0  0  0  0  0  0
    0.7017    0.9750    2.3955 H   0  0  0  0  0  0  0  0  0  0  0  0
   -0.2121    2.8481    2.8917 C   0  0  0  0  0  0  0  0  0  0  0  0
   -1.0716    2.8243    3.5699 H   0  0  0  0  0  0  0  0  0  0  0  0
    0.6889    3.0433    3.4810 H   0  0  0  0  0  0  0  0  0  0  0  0
   -0.3452    3.6724    2.1833 H   0  0  0  0  0  0  0  0  0  0  0  0
  1  2  1  0  0  0  0
  2  3  1  0  0  0  0
  2  4  1  0  0  0  0
  2  5  1  0  0  0  0
  5  6  2  0  0  0  0
  5  7  1  0  0  0  0
  7  8  1  0  0  0  0
  7  9  1  0  0  0  0
  9 10  1  0  0  0  0
  9 11  1  0  0  0  0
  9 26  1  0  0  0  0
 11 12  1  0  0  0  0
 11 13  1  0  0  0  0
 11 14  1  0  0  0  0
 14 15  1  0  0  0  0
 14 16  1  0  0  0  0
 14 17  1  0  0  0  0
 17 18  1  0  0  0  0
 17 19  1  0  0  0  0
 17 20  1  0  0  0  0
 20 21  1  0  0  0  0
 20 22  1  0  0  0  0
 20 23  1  0  0  0  0
 23 24  1  0  0  0  0
 23 25  1  0  0  0  0
 26 27  2  0  0  0  0
 26 28  1  0  0  0  0
 28 29  1  0  0  0  0
 28 30  1  0  0  0  0
 30 31  1  0  0  0  0
 30 32  1  0  0  0  0
 30 33  1  0  0  0  0
M  END
$$$$

  -OEChem-03222214063D

 33 32  0     1  0  0  0  0  0999 V2000
   -3.5169   -4.1193    1.6178 H   0  0  0  0  0  0  0  0  0  0  0  0
   -3.6357   -3.0649    1.3531 C   0  0  0  0  0  0  0  0  0  0  0  0
   -4.1921   -2.5626    2.1483 H   0  0  0  0  0  0  0  0  0  0  0  0
   -4.2029   -2.9965    0.4217 H   0  0  0  0  0  0  0  0  0  0  0  0
   -2.2776   -2.4119    1.1800 C   0  0  0  0  0  0  0  0  0  0  0  0
   -1.2600   -3.0683    1.3396 O   0  0  0  0  0  0  0  0  0  0  0  0
   -2.2029   -1.0776    0.8391 N   0  0  0  0  0  0  0  0  0  0  0  0
   -3.0781   -0.5576    0.7976 H   0  0  0  0  0  0  0  0  0  0  0  0
   -0.9669   -0.2857    0.7707 C   0  0  1  0  0  0  0  0  0  0  0  0
   -0.2573   -0.8089    1.4201 H   0  0  0  0  0  0  0  0  0  0  0  0
   -0.3125   -0.3435   -0.6287 C   0  0  0  0  0  0  0  0  0  0  0  0
    0.7710   -0.2627   -0.4958 H   0  0  0  0  0  0  0  0  0  0  0  0
   -0.5044   -1.3371   -1.0474 H   0  0  0  0  0  0  0  0  0  0  0  0
   -0.7190    0.7053   -1.6830 C   0  0  0  0  0  0  0  0  0  0  0  0
   -0.2349    1.6557   -1.4345 H   0  0  0  0  0  0  0  0  0  0  0  0
   -0.3292    0.3819   -2.6538 H   0  0  0  0  0  0  0  0  0  0  0  0
   -2.2314    0.9560   -1.7984 C   0  0  0  0  0  0  0  0  0  0  0  0
   -2.7433   -0.0007   -1.9428 H   0  0  0  0  0  0  0  0  0  0  0  0
   -2.6300    1.4163   -0.8957 H   0  0  0  0  0  0  0  0  0  0  0  0
   -2.5320    1.8738   -2.9801 C   0  0  0  0  0  0  0  0  0  0  0  0
   -2.0753    2.8560   -2.8148 H   0  0  0  0  0  0  0  0  0  0  0  0
   -2.1117    1.4534   -3.9004 H   0  0  0  0  0  0  0  0  0  0  0  0
   -3.9857    2.0121   -3.1132 N   0  0  0  0  0  0  0  0  0  0  0  0
   -4.2303    2.6255   -3.8904 H   0  0  0  0  0  0  0  0  0  0  0  0
   -4.4337    1.1016   -3.2108 H   0  0  0  0  0  0  0  0  0  0  0  0
   -1.0631    1.1092    1.4283 C   0  0  0  0  0  0  0  0  0  0  0  0
   -2.1307    1.7074    1.4734 O   0  0  0  0  0  0  0  0  0  0  0  0
   -0.0386    1.5493    2.2480 N   0  0  0  0  0  0  0  0  0  0  0  0
    0.7910    0.9670    2.3160 H   0  0  0  0  0  0  0  0  0  0  0  0
   -0.1376    2.7338    3.0929 C   0  0  0  0  0  0  0  0  0  0  0  0
   -0.9004    2.5899    3.8654 H   0  0  0  0  0  0  0  0  0  0  0  0
    0.8209    2.9301    3.5829 H   0  0  0  0  0  0  0  0  0  0  0  0
   -0.4037    3.6113    2.4940 H   0  0  0  0  0  0  0  0  0  0  0  0
  1  2  1  0  0  0  0
  2  3  1  0  0  0  0
  2  4  1  0  0  0  0
  2  5  1  0  0  0  0
  5  6  2  0  0  0  0
  5  7  1  0  0  0  0
  7  8  1  0  0  0  0
  7  9  1  0  0  0  0
  9 10  1  0  0  0  0
  9 11  1  0  0  0  0
  9 26  1  0  0  0  0
 11 12  1  0  0  0  0
 11 13  1  0  0  0  0
 11 14  1  0  0  0  0
 14 15  1  0  0  0  0
 14 16  1  0  0  0  0
 14 17  1  0  0  0  0
 17 18  1  0  0  0  0
 17 19  1  0  0  0  0
 17 20  1  0  0  0  0
 20 21  1  0  0  0  0
 20 22  1  0  0  0  0
 20 23  1  0  0  0  0
 23 24  1  0  0  0  0
 23 25  1  0  0  0  0
 26 27  2  0  0  0  0
 26 28  1  0  0  0  0
 28 29  1  0  0  0  0
 28 30  1  0  0  0  0
 30 31  1  0  0  0  0
 30 32  1  0  0  0  0
 30 33  1  0  0  0  0
M  END
$$$$

  -OEChem-03222214063D

 33 32  0     1  0  0  0  0  0999 V2000
   -3.3146   -4.2232    1.9580 H   0  0  0  0  0  0  0  0  0  0  0  0
   -3.4993   -3.2240    1.5541 C   0  0  0  0  0  0  0  0  0  0  0  0
   -4.1336   -2.6737    2.2531 H   0  0  0  0  0  0  0  0  0  0  0  0
   -4.0199   -3.3207    0.5984 H   0  0  0  0  0  0  0  0  0  0  0  0
   -2.1871   -2.4891    1.3560 C   0  0  0  0  0  0  0  0  0  0  0  0
   -1.1314   -3.0496    1.6079 O   0  0  0  0  0  0  0  0  0  0  0  0
   -2.1950   -1.1923    0.8852 N   0  0  0  0  0  0  0  0  0  0  0  0
   -3.1024   -0.7453    0.7623 H   0  0  0  0  0  0  0  0  0  0  0  0
   -1.0125   -0.3281    0.7559 C   0  0  1  0  0  0  0  0  0  0  0  0
   -0.2881   -0.7365    1.4681 H   0  0  0  0  0  0  0  0  0  0  0  0
   -0.3155   -0.4851   -0.6162 C   0  0  0  0  0  0  0  0  0  0  0  0
    0.7581   -0.3337   -0.4643 H   0  0  0  0  0  0  0  0  0  0  0  0
   -0.4401   -1.5290   -0.9231 H   0  0  0  0  0  0  0  0  0  0  0  0
   -0.7333    0.4009   -1.8142 C   0  0  0  0  0  0  0  0  0  0  0  0
   -0.0938    1.2891   -1.7768 H   0  0  0  0  0  0  0  0  0  0  0  0
   -0.4840   -0.1243   -2.7420 H   0  0  0  0  0  0  0  0  0  0  0  0
   -2.1994    0.8804   -1.8924 C   0  0  0  0  0  0  0  0  0  0  0  0
   -2.7694    0.6200   -1.0015 H   0  0  0  0  0  0  0  0  0  0  0  0
   -2.6772    0.3520   -2.7232 H   0  0  0  0  0  0  0  0  0  0  0  0
   -2.3077    2.3843   -2.1410 C   0  0  0  0  0  0  0  0  0  0  0  0
   -1.9837    2.9341   -1.2503 H   0  0  0  0  0  0  0  0  0  0  0  0
   -1.6617    2.6762   -2.9764 H   0  0  0  0  0  0  0  0  0  0  0  0
   -3.7019    2.7111   -2.4591 N   0  0  0  0  0  0  0  0  0  0  0  0
   -3.8300    3.7165   -2.5688 H   0  0  0  0  0  0  0  0  0  0  0  0
   -4.0191    2.2080   -3.2867 H   0  0  0  0  0  0  0  0  0  0  0  0
   -1.1989    1.1187    1.2664 C   0  0  0  0  0  0  0  0  0  0  0  0
   -2.2920    1.6675    1.2181 O   0  0  0  0  0  0  0  0  0  0  0  0
   -0.2151    1.6989    2.0484 N   0  0  0  0  0  0  0  0  0  0  0  0
    0.6346    1.1645    2.2049 H   0  0  0  0  0  0  0  0  0  0  0  0
   -0.3948    2.9580    2.7621 C   0  0  0  0  0  0  0  0  0  0  0  0
   -1.2002    2.8689    3.4987 H   0  0  0  0  0  0  0  0  0  0  0  0
    0.5259    3.2303    3.2870 H   0  0  0  0  0  0  0  0  0  0  0  0
   -0.6440    3.7632    2.0628 H   0  0  0  0  0  0  0  0  0  0  0  0
  1  2  1  0  0  0  0
  2  3  1  0  0  0  0
  2  4  1  0  0  0  0
  2  5  1  0  0  0  0
  5  6  2  0  0  0  0
  5  7  1  0  0  0  0
  7  8  1  0  0  0  0
  7  9  1  0  0  0  0
  9 10  1  0  0  0  0
  9 11  1  0  0  0  0
  9 26  1  0  0  0  0
 11 12  1  0  0  0  0
 11 13  1  0  0  0  0
 11 14  1  0  0  0  0
 14 15  1  0  0  0  0
 14 16  1  0  0  0  0
 14 17  1  0  0  0  0
 17 18  1  0  0  0  0
 17 19  1  0  0  0  0
 17 20  1  0  0  0  0
 20 21  1  0  0  0  0
 20 22  1  0  0  0  0
 20 23  1  0  0  0  0
 23 24  1  0  0  0  0
 23 25  1  0  0  0  0
 26 27  2  0  0  0  0
 26 28  1  0  0  0  0
 28 29  1  0  0  0  0
 28 30  1  0  0  0  0
 30 31  1  0  0  0  0
 30 32  1  0  0  0  0
 30 33  1  0  0  0  0
M  END
$$$$

  -OEChem-03222214063D

 33 32  0     1  0  0  0  0  0999 V2000
   -4.2374   -3.5186    0.9467 H   0  0  0  0  0  0  0  0  0  0  0  0
   -4.1441   -2.4527    0.7206 C   0  0  0  0  0  0  0  0  0  0  0  0
   -4.7370   -1.8863    1.4427 H   0  0  0  0  0  0  0  0  0  0  0  0
   -4.5338   -2.2703   -0.2837 H   0  0  0  0  0  0  0  0  0  0  0  0
   -2.6901   -2.0269    0.7975 C   0  0  0  0  0  0  0  0  0  0  0  0
   -1.8306   -2.8388    1.1025 O   0  0  0  0  0  0  0  0  0  0  0  0
   -2.3466   -0.7212    0.5150 N   0  0  0  0  0  0  0  0  0  0  0  0
   -3.1099   -0.0612    0.3734 H   0  0  0  0  0  0  0  0  0  0  0  0
   -1.0099   -0.1391    0.7048 C   0  0  1  0  0  0  0  0  0  0  0  0
   -0.5221   -0.7591    1.4645 H   0  0  0  0  0  0  0  0  0  0  0  0
   -0.1127   -0.2988   -0.5549 C   0  0  0  0  0  0  0  0  0  0  0  0
    0.9144   -0.4183   -0.1947 H   0  0  0  0  0  0  0  0  0  0  0  0
   -0.3849   -1.2559   -1.0125 H   0  0  0  0  0  0  0  0  0  0  0  0
   -0.0473    0.7475   -1.7048 C   0  0  0  0  0  0  0  0  0  0  0  0
    0.9099    1.2698   -1.6057 H   0  0  0  0  0  0  0  0  0  0  0  0
   -0.0076    0.2000   -2.6524 H   0  0  0  0  0  0  0  0  0  0  0  0
   -1.1175    1.8403   -1.8351 C   0  0  0  0  0  0  0  0  0  0  0  0
   -1.1061    2.4730   -0.9478 H   0  0  0  0  0  0  0  0  0  0  0  0
   -0.8438    2.4962   -2.6675 H   0  0  0  0  0  0  0  0  0  0  0  0
   -2.5187    1.2943   -2.1164 C   0  0  0  0  0  0  0  0  0  0  0  0
   -2.7096    1.2961   -3.1951 H   0  0  0  0  0  0  0  0  0  0  0  0
   -2.6133    0.2617   -1.7757 H   0  0  0  0  0  0  0  0  0  0  0  0
   -3.4893    2.1471   -1.4249 N   0  0  0  0  0  0  0  0  0  0  0  0
   -4.4337    1.7704   -1.4818 H   0  0  0  0  0  0  0  0  0  0  0  0
   -3.2067    2.2988   -0.4469 H   0  0  0  0  0  0  0  0  0  0  0  0
   -1.0808    1.2496    1.3768 C   0  0  0  0  0  0  0  0  0  0  0  0
   -2.0922    1.9351    1.2473 O   0  0  0  0  0  0  0  0  0  0  0  0
   -0.2125    1.5641    2.4069 N   0  0  0  0  0  0  0  0  0  0  0  0
    0.5472    0.9168    2.5964 H   0  0  0  0  0  0  0  0  0  0  0  0
   -0.3563    2.7458    3.2498 C   0  0  0  0  0  0  0  0  0  0  0  0
   -1.2875    2.6966    3.8237 H   0  0  0  0  0  0  0  0  0  0  0  0
    0.4802    2.8136    3.9522 H   0  0  0  0  0  0  0  0  0  0  0  0
   -0.3666    3.6545    2.6384 H   0  0  0  0  0  0  0  0  0  0  0  0
  1  2  1  0  0  0  0
  2  3  1  0  0  0  0
  2  4  1  0  0  0  0
  2  5  1  0  0  0  0
  5  6  2  0  0  0  0
  5  7  1  0  0  0  0
  7  8  1  0  0  0  0
  7  9  1  0  0  0  0
  9 10  1  0  0  0  0
  9 11  1  0  0  0  0
  9 26  1  0  0  0  0
 11 12  1  0  0  0  0
 11 13  1  0  0  0  0
 11 14  1  0  0  0  0
 14 15  1  0  0  0  0
 14 16  1  0  0  0  0
 14 17  1  0  0  0  0
 17 18  1  0  0  0  0
 17 19  1  0  0  0  0
 17 20  1  0  0  0  0
 20 21  1  0  0  0  0
 20 22  1  0  0  0  0
 20 23  1  0  0  0  0
 23 24  1  0  0  0  0
 23 25  1  0  0  0  0
 26 27  2  0  0  0  0
 26 28  1  0  0  0  0
 28 29  1  0  0  0  0
 28 30  1  0  0  0  0
 30 31  1  0  0  0  0
 30 32  1  0  0  0  0
 30 33  1  0  0  0  0
M  END
$$$$

  -OEChem-03222214063D

 33 32  0     1  0  0  0  0  0999 V2000
   -3.5422   -4.1582    1.5185 H   0  0  0  0  0  0  0  0  0  0  0  0
   -3.6569   -3.0963    1.2839 C   0  0  0  0  0  0  0  0  0  0  0  0
   -4.2087   -2.6144    2.0947 H   0  0  0  0  0  0  0  0  0  0  0  0
   -4.2263   -2.9991    0.3565 H   0  0  0  0  0  0  0  0  0  0  0  0
   -2.2958   -2.4456    1.1252 C   0  0  0  0  0  0  0  0  0  0  0  0
   -1.2824   -3.1194    1.2292 O   0  0  0  0  0  0  0  0  0  0  0  0
   -2.2126   -1.0936    0.8640 N   0  0  0  0  0  0  0  0  0  0  0  0
   -3.0802   -0.5605    0.8963 H   0  0  0  0  0  0  0  0  0  0  0  0
   -0.9683   -0.3108    0.8491 C   0  0  1  0  0  0  0  0  0  0  0  0
   -0.2662   -0.8674    1.4786 H   0  0  0  0  0  0  0  0  0  0  0  0
   -0.3128   -0.3353   -0.5577 C   0  0  0  0  0  0  0  0  0  0  0  0
    0.7664   -0.2624   -0.3877 H   0  0  0  0  0  0  0  0  0  0  0  0
   -0.4845   -1.3274   -0.9886 H   0  0  0  0  0  0  0  0  0  0  0  0
   -0.6404    0.7156   -1.6508 C   0  0  0  0  0  0  0  0  0  0  0  0
    0.2960    1.1922   -1.9599 H   0  0  0  0  0  0  0  0  0  0  0  0
   -1.0174    0.1640   -2.5186 H   0  0  0  0  0  0  0  0  0  0  0  0
   -1.6507    1.8218   -1.3319 C   0  0  0  0  0  0  0  0  0  0  0  0
   -2.5630    1.3858   -0.9139 H   0  0  0  0  0  0  0  0  0  0  0  0
   -1.2199    2.5152   -0.6037 H   0  0  0  0  0  0  0  0  0  0  0  0
   -2.0109    2.6043   -2.5921 C   0  0  0  0  0  0  0  0  0  0  0  0
   -1.1040    2.9814   -3.0779 H   0  0  0  0  0  0  0  0  0  0  0  0
   -2.5308    1.9500   -3.3006 H   0  0  0  0  0  0  0  0  0  0  0  0
   -2.8726    3.7270   -2.2129 N   0  0  0  0  0  0  0  0  0  0  0  0
   -3.2338    4.2131   -3.0330 H   0  0  0  0  0  0  0  0  0  0  0  0
   -3.6316    3.4177   -1.6045 H   0  0  0  0  0  0  0  0  0  0  0  0
   -1.0976    1.0340    1.5980 C   0  0  0  0  0  0  0  0  0  0  0  0
   -2.1926    1.5806    1.6850 O   0  0  0  0  0  0  0  0  0  0  0  0
   -0.0985    1.4396    2.4652 N   0  0  0  0  0  0  0  0  0  0  0  0
    0.7633    0.9021    2.4750 H   0  0  0  0  0  0  0  0  0  0  0  0
   -0.2300    2.5768    3.3683 C   0  0  0  0  0  0  0  0  0  0  0  0
   -1.0217    2.3935    4.1022 H   0  0  0  0  0  0  0  0  0  0  0  0
    0.7086    2.7432    3.9055 H   0  0  0  0  0  0  0  0  0  0  0  0
   -0.4725    3.4858    2.8077 H   0  0  0  0  0  0  0  0  0  0  0  0
  1  2  1  0  0  0  0
  2  3  1  0  0  0  0
  2  4  1  0  0  0  0
  2  5  1  0  0  0  0
  5  6  2  0  0  0  0
  5  7  1  0  0  0  0
  7  8  1  0  0  0  0
  7  9  1  0  0  0  0
  9 10  1  0  0  0  0
  9 11  1  0  0  0  0
  9 26  1  0  0  0  0
 11 12  1  0  0  0  0
 11 13  1  0  0  0  0
 11 14  1  0  0  0  0
 14 15  1  0  0  0  0
 14 16  1  0  0  0  0
 14 17  1  0  0  0  0
 17 18  1  0  0  0  0
 17 19  1  0  0  0  0
 17 20  1  0  0  0  0
 20 21  1  0  0  0  0
 20 22  1  0  0  0  0
 20 23  1  0  0  0  0
 23 24  1  0  0  0  0
 23 25  1  0  0  0  0
 26 27  2  0  0  0  0
 26 28  1  0  0  0  0
 28 29  1  0  0  0  0
 28 30  1  0  0  0  0
 30 31  1  0  0  0  0
 30 32  1  0  0  0  0
 30 33  1  0  0  0  0
M  END
$$$$

  -OEChem-03222214063D

 33 32  0     1  0  0  0  0  0999 V2000
   -3.0832   -4.1578    2.1524 H   0  0  0  0  0  0  0  0  0  0  0  0
   -3.3478   -3.1845    1.7297 C   0  0  0  0  0  0  0  0  0  0  0  0
   -3.9372   -2.6306    2.4644 H   0  0  0  0  0  0  0  0  0  0  0  0
   -3.9507   -3.3414    0.8321 H   0  0  0  0  0  0  0  0  0  0  0  0
   -2.0927   -2.4074    1.3798 C   0  0  0  0  0  0  0  0  0  0  0  0
   -0.9961   -2.9277    1.5146 O   0  0  0  0  0  0  0  0  0  0  0  0
   -2.1995   -1.1133    0.9127 N   0  0  0  0  0  0  0  0  0  0  0  0
   -3.1283   -0.6950    0.9128 H   0  0  0  0  0  0  0  0  0  0  0  0
   -1.0697   -0.2043    0.6721 C   0  0  1  0  0  0  0  0  0  0  0  0
   -0.2702   -0.5635    1.3286 H   0  0  0  0  0  0  0  0  0  0  0  0
   -0.4916   -0.4191   -0.7579 C   0  0  0  0  0  0  0  0  0  0  0  0
    0.5700   -0.1648   -0.6732 H   0  0  0  0  0  0  0  0  0  0  0  0
   -0.5277   -1.4906   -0.9830 H   0  0  0  0  0  0  0  0  0  0  0  0
   -0.9883    0.3440   -2.0183 C   0  0  0  0  0  0  0  0  0  0  0  0
   -0.1241    0.5772   -2.6497 H   0  0  0  0  0  0  0  0  0  0  0  0
   -1.6005   -0.3690   -2.5806 H   0  0  0  0  0  0  0  0  0  0  0  0
   -1.8466    1.6036   -1.8724 C   0  0  0  0  0  0  0  0  0  0  0  0
   -2.3326    1.8125   -2.8307 H   0  0  0  0  0  0  0  0  0  0  0  0
   -2.6503    1.4182   -1.1583 H   0  0  0  0  0  0  0  0  0  0  0  0
   -1.0106    2.8299   -1.4983 C   0  0  0  0  0  0  0  0  0  0  0  0
   -0.1904    2.5554   -0.8285 H   0  0  0  0  0  0  0  0  0  0  0  0
   -0.5645    3.2671   -2.3980 H   0  0  0  0  0  0  0  0  0  0  0  0
   -1.8822    3.7997   -0.8342 N   0  0  0  0  0  0  0  0  0  0  0  0
   -2.6318    4.0993   -1.4563 H   0  0  0  0  0  0  0  0  0  0  0  0
   -2.2767    3.3875    0.0207 H   0  0  0  0  0  0  0  0  0  0  0  0
   -1.3148    1.2196    1.2184 C   0  0  0  0  0  0  0  0  0  0  0  0
   -2.4520    1.6782    1.2782 O   0  0  0  0  0  0  0  0  0  0  0  0
   -0.3150    1.8662    1.9231 N   0  0  0  0  0  0  0  0  0  0  0  0
    0.6047    1.4351    1.9368 H   0  0  0  0  0  0  0  0  0  0  0  0
   -0.4909    3.1633    2.5664 C   0  0  0  0  0  0  0  0  0  0  0  0
   -1.3100    3.1261    3.2923 H   0  0  0  0  0  0  0  0  0  0  0  0
    0.4235    3.4489    3.0950 H   0  0  0  0  0  0  0  0  0  0  0  0
   -0.7139    3.9335    1.8206 H   0  0  0  0  0  0  0  0  0  0  0  0
  1  2  1  0  0  0  0
  2  3  1  0  0  0  0
  2  4  1  0  0  0  0
  2  5  1  0  0  0  0
  5  6  2  0  0  0  0
  5  7  1  0  0  0  0
  7  8  1  0  0  0  0
  7  9  1  0  0  0  0
  9 10  1  0  0  0  0
  9 11  1  0  0  0  0
  9 26  1  0  0  0  0
 11 12  1  0  0  0  0
 11 13  1  0  0  0  0
 11 14  1  0  0  0  0
 14 15  1  0  0  0  0
 14 16  1  0  0  0  0
 14 17  1  0  0  0  0
 17 18  1  0  0  0  0
 17 19  1  0  0  0  0
 17 20  1  0  0  0  0
 20 21  1  0  0  0  0
 20 22  1  0  0  0  0
 20 23  1  0  0  0  0
 23 24  1  0  0  0  0
 23 25  1  0  0  0  0
 26 27  2  0  0  0  0
 26 28  1  0  0  0  0
 28 29  1  0  0  0  0
 28 30  1  0  0  0  0
 30 31  1  0  0  0  0
 30 32  1  0  0  0  0
 30 33  1  0  0  0  0
M  END
$$$$

  -OEChem-03222214063D

 33 32  0     1  0  0  0  0  0999 V2000
   -3.9874   -3.6418    1.3839 H   0  0  0  0  0  0  0  0  0  0  0  0
   -3.9506   -2.6033    1.0430 C   0  0  0  0  0  0  0  0  0  0  0  0
   -4.5614   -1.9915    1.7114 H   0  0  0  0  0  0  0  0  0  0  0  0
   -4.3626   -2.5494    0.0324 H   0  0  0  0  0  0  0  0  0  0  0  0
   -2.5184   -2.1029    1.0445 C   0  0  0  0  0  0  0  0  0  0  0  0
   -1.6105   -2.8535    1.3666 O   0  0  0  0  0  0  0  0  0  0  0  0
   -2.2515   -0.7999    0.6766 N   0  0  0  0  0  0  0  0  0  0  0  0
   -3.0529   -0.1876    0.5348 H   0  0  0  0  0  0  0  0  0  0  0  0
   -0.9376   -0.1471    0.7712 C   0  0  1  0  0  0  0  0  0  0  0  0
   -0.4069   -0.6928    1.5587 H   0  0  0  0  0  0  0  0  0  0  0  0
   -0.0844   -0.4266   -0.4980 C   0  0  0  0  0  0  0  0  0  0  0  0
    0.9534   -0.4046   -0.1499 H   0  0  0  0  0  0  0  0  0  0  0  0
   -0.2765   -1.4558   -0.8192 H   0  0  0  0  0  0  0  0  0  0  0  0
   -0.1020    0.4711   -1.7641 C   0  0  0  0  0  0  0  0  0  0  0  0
    0.8753    0.3598   -2.2456 H   0  0  0  0  0  0  0  0  0  0  0  0
   -0.8367    0.0509   -2.4594 H   0  0  0  0  0  0  0  0  0  0  0  0
   -0.3826    1.9747   -1.6352 C   0  0  0  0  0  0  0  0  0  0  0  0
    0.1614    2.5041   -2.4239 H   0  0  0  0  0  0  0  0  0  0  0  0
    0.0029    2.3604   -0.6899 H   0  0  0  0  0  0  0  0  0  0  0  0
   -1.8695    2.2861   -1.8189 C   0  0  0  0  0  0  0  0  0  0  0  0
   -2.1243    2.2550   -2.8839 H   0  0  0  0  0  0  0  0  0  0  0  0
   -2.4869    1.5406   -1.3070 H   0  0  0  0  0  0  0  0  0  0  0  0
   -2.1421    3.6139   -1.2673 N   0  0  0  0  0  0  0  0  0  0  0  0
   -3.0963    3.9040   -1.4752 H   0  0  0  0  0  0  0  0  0  0  0  0
   -1.9963    3.5933   -0.2523 H   0  0  0  0  0  0  0  0  0  0  0  0
   -1.0085    1.2755    1.3675 C   0  0  0  0  0  0  0  0  0  0  0  0
   -2.0232    1.9522    1.2348 O   0  0  0  0  0  0  0  0  0  0  0  0
   -0.0919    1.6657    2.3275 N   0  0  0  0  0  0  0  0  0  0  0  0
    0.6933    1.0465    2.5075 H   0  0  0  0  0  0  0  0  0  0  0  0
   -0.1960    2.9076    3.0843 C   0  0  0  0  0  0  0  0  0  0  0  0
   -1.1173    2.9197    3.6761 H   0  0  0  0  0  0  0  0  0  0  0  0
    0.6537    3.0065    3.7664 H   0  0  0  0  0  0  0  0  0  0  0  0
   -0.1986    3.7691    2.4082 H   0  0  0  0  0  0  0  0  0  0  0  0
  1  2  1  0  0  0  0
  2  3  1  0  0  0  0
  2  4  1  0  0  0  0
  2  5  1  0  0  0  0
  5  6  2  0  0  0  0
  5  7  1  0  0  0  0
  7  8  1  0  0  0  0
  7  9  1  0  0  0  0
  9 10  1  0  0  0  0
  9 11  1  0  0  0  0
  9 26  1  0  0  0  0
 11 12  1  0  0  0  0
 11 13  1  0  0  0  0
 11 14  1  0  0  0  0
 14 15  1  0  0  0  0
 14 16  1  0  0  0  0
 14 17  1  0  0  0  0
 17 18  1  0  0  0  0
 17 19  1  0  0  0  0
 17 20  1  0  0  0  0
 20 21  1  0  0  0  0
 20 22  1  0  0  0  0
 20 23  1  0  0  0  0
 23 24  1  0  0  0  0
 23 25  1  0  0  0  0
 26 27  2  0  0  0  0
 26 28  1  0  0  0  0
 28 29  1  0  0  0  0
 28 30  1  0  0  0  0
 30 31  1  0  0  0  0
 30 32  1  0  0  0  0
 30 33  1  0  0  0  0
M  END
$$$$

  -OEChem-03222214063D

 33 32  0     1  0  0  0  0  0999 V2000
   -3.8973   -3.7751    1.2414 H   0  0  0  0  0  0  0  0  0  0  0  0
   -3.8761   -2.7271    0.9296 C   0  0  0  0  0  0  0  0  0  0  0  0
   -4.5115   -2.1466    1.6029 H   0  0  0  0  0  0  0  0  0  0  0  0
   -4.2707   -2.6542   -0.0866 H   0  0  0  0  0  0  0  0  0  0  0  0
   -2.4551   -2.1970    0.9721 C   0  0  0  0  0  0  0  0  0  0  0  0
   -1.5443   -2.9236    1.3379 O   0  0  0  0  0  0  0  0  0  0  0  0
   -2.2013   -0.8932    0.5980 N   0  0  0  0  0  0  0  0  0  0  0  0
   -3.0082   -0.3002    0.4106 H   0  0  0  0  0  0  0  0  0  0  0  0
   -0.9065   -0.2115    0.7424 C   0  0  1  0  0  0  0  0  0  0  0  0
   -0.3780   -0.7389    1.5434 H   0  0  0  0  0  0  0  0  0  0  0  0
   -0.0294   -0.4547   -0.5180 C   0  0  0  0  0  0  0  0  0  0  0  0
    1.0060   -0.4279   -0.1628 H   0  0  0  0  0  0  0  0  0  0  0  0
   -0.2082   -1.4768   -0.8685 H   0  0  0  0  0  0  0  0  0  0  0  0
   -0.0614    0.4785   -1.7538 C   0  0  0  0  0  0  0  0  0  0  0  0
    0.8017    0.2165   -2.3749 H   0  0  0  0  0  0  0  0  0  0  0  0
   -0.9510    0.2266   -2.3404 H   0  0  0  0  0  0  0  0  0  0  0  0
   -0.0289    2.0003   -1.5326 C   0  0  0  0  0  0  0  0  0  0  0  0
    0.6947    2.4422   -2.2249 H   0  0  0  0  0  0  0  0  0  0  0  0
    0.3334    2.2371   -0.5310 H   0  0  0  0  0  0  0  0  0  0  0  0
   -1.3870    2.6496   -1.8115 C   0  0  0  0  0  0  0  0  0  0  0  0
   -1.5050    2.8083   -2.8890 H   0  0  0  0  0  0  0  0  0  0  0  0
   -2.2041    2.0003   -1.4795 H   0  0  0  0  0  0  0  0  0  0  0  0
   -1.4565    3.9235   -1.0941 N   0  0  0  0  0  0  0  0  0  0  0  0
   -2.2868    4.4467   -1.3685 H   0  0  0  0  0  0  0  0  0  0  0  0
   -1.4763    3.7415   -0.0863 H   0  0  0  0  0  0  0  0  0  0  0  0
   -1.0622    1.2126    1.3165 C   0  0  0  0  0  0  0  0  0  0  0  0
   -2.0817    1.8591    1.0986 O   0  0  0  0  0  0  0  0  0  0  0  0
   -0.2141    1.6499    2.3181 N   0  0  0  0  0  0  0  0  0  0  0  0
    0.5790    1.0597    2.5530 H   0  0  0  0  0  0  0  0  0  0  0  0
   -0.3898    2.9091    3.0321 C   0  0  0  0  0  0  0  0  0  0  0  0
   -1.3315    2.9043    3.5909 H   0  0  0  0  0  0  0  0  0  0  0  0
    0.4315    3.0598    3.7394 H   0  0  0  0  0  0  0  0  0  0  0  0
   -0.3994    3.7498    2.3303 H   0  0  0  0  0  0  0  0  0  0  0  0
  1  2  1  0  0  0  0
  2  3  1  0  0  0  0
  2  4  1  0  0  0  0
  2  5  1  0  0  0  0
  5  6  2  0  0  0  0
  5  7  1  0  0  0  0
  7  8  1  0  0  0  0
  7  9  1  0  0  0  0
  9 10  1  0  0  0  0
  9 11  1  0  0  0  0
  9 26  1  0  0  0  0
 11 12  1  0  0  0  0
 11 13  1  0  0  0  0
 11 14  1  0  0  0  0
 14 15  1  0  0  0  0
 14 16  1  0  0  0  0
 14 17  1  0  0  0  0
 17 18  1  0  0  0  0
 17 19  1  0  0  0  0
 17 20  1  0  0  0  0
 20 21  1  0  0  0  0
 20 22  1  0  0  0  0
 20 23  1  0  0  0  0
 23 24  1  0  0  0  0
 23 25  1  0  0  0  0
 26 27  2  0  0  0  0
 26 28  1  0  0  0  0
 28 29  1  0  0  0  0
 28 30  1  0  0  0  0
 30 31  1  0  0  0  0
 30 32  1  0  0  0  0
 30 33  1  0  0  0  0
M  END
$$$$

  -OEChem-03222214063D

 33 32  0     1  0  0  0  0  0999 V2000
   -3.4913   -4.1953    1.5688 H   0  0  0  0  0  0  0  0  0  0  0  0
   -3.6093   -3.1482    1.2764 C   0  0  0  0  0  0  0  0  0  0  0  0
   -4.1876   -2.6307    2.0457 H   0  0  0  0  0  0  0  0  0  0  0  0
   -4.1535   -3.1051    0.3299 H   0  0  0  0  0  0  0  0  0  0  0  0
   -2.2503   -2.4921    1.1215 C   0  0  0  0  0  0  0  0  0  0  0  0
   -1.2334   -3.1510    1.2739 O   0  0  0  0  0  0  0  0  0  0  0  0
   -2.1725   -1.1504    0.8114 N   0  0  0  0  0  0  0  0  0  0  0  0
   -3.0446   -0.6231    0.8047 H   0  0  0  0  0  0  0  0  0  0  0  0
   -0.9327   -0.3605    0.7932 C   0  0  1  0  0  0  0  0  0  0  0  0
   -0.2017   -0.8864    1.4163 H   0  0  0  0  0  0  0  0  0  0  0  0
   -0.3420   -0.3604   -0.6404 C   0  0  0  0  0  0  0  0  0  0  0  0
    0.7454   -0.2925   -0.5335 H   0  0  0  0  0  0  0  0  0  0  0  0
   -0.5472   -1.3352   -1.0958 H   0  0  0  0  0  0  0  0  0  0  0  0
   -0.7495    0.7336   -1.6518 C   0  0  0  0  0  0  0  0  0  0  0  0
   -0.2335    0.5075   -2.5909 H   0  0  0  0  0  0  0  0  0  0  0  0
   -1.8246    0.6540   -1.8431 H   0  0  0  0  0  0  0  0  0  0  0  0
   -0.4300    2.1853   -1.2553 C   0  0  0  0  0  0  0  0  0  0  0  0
   -1.1824    2.5710   -0.5664 H   0  0  0  0  0  0  0  0  0  0  0  0
    0.5473    2.2292   -0.7637 H   0  0  0  0  0  0  0  0  0  0  0  0
   -0.4136    3.0916   -2.4827 C   0  0  0  0  0  0  0  0  0  0  0  0
    0.3443    2.7501   -3.1965 H   0  0  0  0  0  0  0  0  0  0  0  0
   -1.3891    3.0631   -2.9809 H   0  0  0  0  0  0  0  0  0  0  0  0
   -0.1076    4.4572   -2.0463 N   0  0  0  0  0  0  0  0  0  0  0  0
   -0.1059    5.1049   -2.8340 H   0  0  0  0  0  0  0  0  0  0  0  0
   -0.7628    4.7633   -1.3260 H   0  0  0  0  0  0  0  0  0  0  0  0
   -1.1422    0.9938    1.4989 C   0  0  0  0  0  0  0  0  0  0  0  0
   -2.2429    1.5367    1.4592 O   0  0  0  0  0  0  0  0  0  0  0  0
   -0.1985    1.4663    2.3925 N   0  0  0  0  0  0  0  0  0  0  0  0
    0.6783    0.9581    2.4645 H   0  0  0  0  0  0  0  0  0  0  0  0
   -0.3819    2.6725    3.1898 C   0  0  0  0  0  0  0  0  0  0  0  0
   -1.2421    2.5622    3.8583 H   0  0  0  0  0  0  0  0  0  0  0  0
    0.5074    2.8618    3.7984 H   0  0  0  0  0  0  0  0  0  0  0  0
   -0.5472    3.5388    2.5406 H   0  0  0  0  0  0  0  0  0  0  0  0
  1  2  1  0  0  0  0
  2  3  1  0  0  0  0
  2  4  1  0  0  0  0
  2  5  1  0  0  0  0
  5  6  2  0  0  0  0
  5  7  1  0  0  0  0
  7  8  1  0  0  0  0
  7  9  1  0  0  0  0
  9 10  1  0  0  0  0
  9 11  1  0  0  0  0
  9 26  1  0  0  0  0
 11 12  1  0  0  0  0
 11 13  1  0  0  0  0
 11 14  1  0  0  0  0
 14 15  1  0  0  0  0
 14 16  1  0  0  0  0
 14 17  1  0  0  0  0
 17 18  1  0  0  0  0
 17 19  1  0  0  0  0
 17 20  1  0  0  0  0
 20 21  1  0  0  0  0
 20 22  1  0  0  0  0
 20 23  1  0  0  0  0
 23 24  1  0  0  0  0
 23 25  1  0  0  0  0
 26 27  2  0  0  0  0
 26 28  1  0  0  0  0
 28 29  1  0  0  0  0
 28 30  1  0  0  0  0
 30 31  1  0  0  0  0
 30 32  1  0  0  0  0
 30 33  1  0  0  0  0
M  END
$$$$

  -OEChem-03222214063D

 33 32  0     1  0  0  0  0  0999 V2000
   -3.5815   -4.1324    1.5172 H   0  0  0  0  0  0  0  0  0  0  0  0
   -3.6596   -3.0857    1.2101 C   0  0  0  0  0  0  0  0  0  0  0  0
   -4.2703   -2.5492    1.9402 H   0  0  0  0  0  0  0  0  0  0  0  0
   -4.1476   -3.0405    0.2335 H   0  0  0  0  0  0  0  0  0  0  0  0
   -2.2796   -2.4605    1.1291 C   0  0  0  0  0  0  0  0  0  0  0  0
   -1.2916   -3.1282    1.3915 O   0  0  0  0  0  0  0  0  0  0  0  0
   -2.1487   -1.1375    0.7612 N   0  0  0  0  0  0  0  0  0  0  0  0
   -3.0048   -0.5957    0.6522 H   0  0  0  0  0  0  0  0  0  0  0  0
   -0.8896   -0.3782    0.7829 C   0  0  1  0  0  0  0  0  0  0  0  0
   -0.1938   -0.8925    1.4540 H   0  0  0  0  0  0  0  0  0  0  0  0
   -0.2541   -0.4202   -0.6298 C   0  0  0  0  0  0  0  0  0  0  0  0
    0.8334   -0.3954   -0.5073 H   0  0  0  0  0  0  0  0  0  0  0  0
   -0.4925   -1.3883   -1.0832 H   0  0  0  0  0  0  0  0  0  0  0  0
   -0.6301    0.6871   -1.6362 C   0  0  0  0  0  0  0  0  0  0  0  0
   -0.3241    0.3448   -2.6303 H   0  0  0  0  0  0  0  0  0  0  0  0
   -1.7188    0.8041   -1.6506 H   0  0  0  0  0  0  0  0  0  0  0  0
    0.0283    2.0556   -1.3777 C   0  0  0  0  0  0  0  0  0  0  0  0
   -0.3585    2.5231   -0.4725 H   0  0  0  0  0  0  0  0  0  0  0  0
    1.1083    1.9248   -1.2548 H   0  0  0  0  0  0  0  0  0  0  0  0
   -0.2319    3.0001   -2.5468 C   0  0  0  0  0  0  0  0  0  0  0  0
    0.1759    2.5775   -3.4716 H   0  0  0  0  0  0  0  0  0  0  0  0
   -1.3104    3.1395   -2.6814 H   0  0  0  0  0  0  0  0  0  0  0  0
    0.4112    4.2857   -2.2588 N   0  0  0  0  0  0  0  0  0  0  0  0
    0.2651    4.9491   -3.0196 H   0  0  0  0  0  0  0  0  0  0  0  0
    0.0749    4.6684   -1.3748 H   0  0  0  0  0  0  0  0  0  0  0  0
   -1.1177    1.0103    1.4107 C   0  0  0  0  0  0  0  0  0  0  0  0
   -2.1704    1.6079    1.2065 O   0  0  0  0  0  0  0  0  0  0  0  0
   -0.2283    1.5128    2.3427 N   0  0  0  0  0  0  0  0  0  0  0  0
    0.6098    0.9713    2.5344 H   0  0  0  0  0  0  0  0  0  0  0  0
   -0.4302    2.7739    3.0452 C   0  0  0  0  0  0  0  0  0  0  0  0
   -1.3233    2.7217    3.6767 H   0  0  0  0  0  0  0  0  0  0  0  0
    0.4317    2.9941    3.6822 H   0  0  0  0  0  0  0  0  0  0  0  0
   -0.5501    3.5955    2.3312 H   0  0  0  0  0  0  0  0  0  0  0  0
  1  2  1  0  0  0  0
  2  3  1  0  0  0  0
  2  4  1  0  0  0  0
  2  5  1  0  0  0  0
  5  6  2  0  0  0  0
  5  7  1  0  0  0  0
  7  8  1  0  0  0  0
  7  9  1  0  0  0  0
  9 10  1  0  0  0  0
  9 11  1  0  0  0  0
  9 26  1  0  0  0  0
 11 12  1  0  0  0  0
 11 13  1  0  0  0  0
 11 14  1  0  0  0  0
 14 15  1  0  0  0  0
 14 16  1  0  0  0  0
 14 17  1  0  0  0  0
 17 18  1  0  0  0  0
 17 19  1  0  0  0  0
 17 20  1  0  0  0  0
 20 21  1  0  0  0  0
 20 22  1  0  0  0  0
 20 23  1  0  0  0  0
 23 24  1  0  0  0  0
 23 25  1  0  0  0  0
 26 27  2  0  0  0  0
 26 28  1  0  0  0  0
 28 29  1  0  0  0  0
 28 30  1  0  0  0  0
 30 31  1  0  0  0  0
 30 32  1  0  0  0  0
 30 33  1  0  0  0  0
M  END
$$$$

  -OEChem-03222214063D

 33 32  0     1  0  0  0  0  0999 V2000
   -3.6240   -4.0750    1.5907 H   0  0  0  0  0  0  0  0  0  0  0  0
   -3.6805   -3.0566    1.1961 C   0  0  0  0  0  0  0  0  0  0  0  0
   -4.3365   -2.4655    1.8396 H   0  0  0  0  0  0  0  0  0  0  0  0
   -4.1035   -3.0920    0.1893 H   0  0  0  0  0  0  0  0  0  0  0  0
   -2.2976   -2.4347    1.1546 C   0  0  0  0  0  0  0  0  0  0  0  0
   -1.3275   -3.0828    1.5149 O   0  0  0  0  0  0  0  0  0  0  0  0
   -2.1438   -1.1372    0.7117 N   0  0  0  0  0  0  0  0  0  0  0  0
   -2.9906   -0.6062    0.5145 H   0  0  0  0  0  0  0  0  0  0  0  0
   -0.8821   -0.3835    0.7408 C   0  0  1  0  0  0  0  0  0  0  0  0
   -0.2166   -0.8653    1.4643 H   0  0  0  0  0  0  0  0  0  0  0  0
   -0.1892   -0.4931   -0.6391 C   0  0  0  0  0  0  0  0  0  0  0  0
    0.8951   -0.4735   -0.4888 H   0  0  0  0  0  0  0  0  0  0  0  0
   -0.4259   -1.4726   -1.0681 H   0  0  0  0  0  0  0  0  0  0  0  0
   -0.5612    0.5944   -1.6646 C   0  0  0  0  0  0  0  0  0  0  0  0
   -0.4709    0.1662   -2.6683 H   0  0  0  0  0  0  0  0  0  0  0  0
   -1.6072    0.8906   -1.5350 H   0  0  0  0  0  0  0  0  0  0  0  0
    0.3623    1.8208   -1.5871 C   0  0  0  0  0  0  0  0  0  0  0  0
    0.3732    2.2341   -0.5761 H   0  0  0  0  0  0  0  0  0  0  0  0
    1.3858    1.5227   -1.8366 H   0  0  0  0  0  0  0  0  0  0  0  0
   -0.0999    2.9022   -2.5578 C   0  0  0  0  0  0  0  0  0  0  0  0
   -0.1059    2.5118   -3.5815 H   0  0  0  0  0  0  0  0  0  0  0  0
   -1.1185    3.2188   -2.3067 H   0  0  0  0  0  0  0  0  0  0  0  0
    0.8207    4.0389   -2.4610 N   0  0  0  0  0  0  0  0  0  0  0  0
    0.5462    4.7886   -3.0957 H   0  0  0  0  0  0  0  0  0  0  0  0
    0.8761    4.3795   -1.5014 H   0  0  0  0  0  0  0  0  0  0  0  0
   -1.1017    1.0496    1.2701 C   0  0  0  0  0  0  0  0  0  0  0  0
   -2.1170    1.6696    0.9701 O   0  0  0  0  0  0  0  0  0  0  0  0
   -0.2332    1.5896    2.2009 N   0  0  0  0  0  0  0  0  0  0  0  0
    0.5692    1.0301    2.4758 H   0  0  0  0  0  0  0  0  0  0  0  0
   -0.4230    2.8998    2.8103 C   0  0  0  0  0  0  0  0  0  0  0  0
   -1.3637    2.9300    3.3699 H   0  0  0  0  0  0  0  0  0  0  0  0
    0.3971    3.1174    3.5012 H   0  0  0  0  0  0  0  0  0  0  0  0
   -0.4439    3.6798    2.0421 H   0  0  0  0  0  0  0  0  0  0  0  0
  1  2  1  0  0  0  0
  2  3  1  0  0  0  0
  2  4  1  0  0  0  0
  2  5  1  0  0  0  0
  5  6  2  0  0  0  0
  5  7  1  0  0  0  0
  7  8  1  0  0  0  0
  7  9  1  0  0  0  0
  9 10  1  0  0  0  0
  9 11  1  0  0  0  0
  9 26  1  0  0  0  0
 11 12  1  0  0  0  0
 11 13  1  0  0  0  0
 11 14  1  0  0  0  0
 14 15  1  0  0  0  0
 14 16  1  0  0  0  0
 14 17  1  0  0  0  0
 17 18  1  0  0  0  0
 17 19  1  0  0  0  0
 17 20  1  0  0  0  0
 20 21  1  0  0  0  0
 20 22  1  0  0  0  0
 20 23  1  0  0  0  0
 23 24  1  0  0  0  0
 23 25  1  0  0  0  0
 26 27  2  0  0  0  0
 26 28  1  0  0  0  0
 28 29  1  0  0  0  0
 28 30  1  0  0  0  0
 30 31  1  0  0  0  0
 30 32  1  0  0  0  0
 30 33  1  0  0  0  0
M  END
$$$$

  -OEChem-03222214063D

 33 32  0     1  0  0  0  0  0999 V2000
   -3.6150   -4.0773    1.6206 H   0  0  0  0  0  0  0  0  0  0  0  0
   -3.6800   -3.0632    1.2164 C   0  0  0  0  0  0  0  0  0  0  0  0
   -4.3281   -2.4669    1.8632 H   0  0  0  0  0  0  0  0  0  0  0  0
   -4.1179   -3.1097    0.2166 H   0  0  0  0  0  0  0  0  0  0  0  0
   -2.2995   -2.4380    1.1475 C   0  0  0  0  0  0  0  0  0  0  0  0
   -1.3209   -3.0816    1.4925 O   0  0  0  0  0  0  0  0  0  0  0  0
   -2.1595   -1.1404    0.7000 N   0  0  0  0  0  0  0  0  0  0  0  0
   -3.0132   -0.6165    0.5148 H   0  0  0  0  0  0  0  0  0  0  0  0
   -0.9056   -0.3733    0.7171 C   0  0  1  0  0  0  0  0  0  0  0  0
   -0.2432   -0.8499    1.4472 H   0  0  0  0  0  0  0  0  0  0  0  0
   -0.1902   -0.4849   -0.6480 C   0  0  0  0  0  0  0  0  0  0  0  0
    0.8910   -0.4484   -0.4790 H   0  0  0  0  0  0  0  0  0  0  0  0
   -0.4033   -1.4714   -1.0735 H   0  0  0  0  0  0  0  0  0  0  0  0
   -0.5774    0.5943   -1.6784 C   0  0  0  0  0  0  0  0  0  0  0  0
   -0.7142    0.1053   -2.6485 H   0  0  0  0  0  0  0  0  0  0  0  0
   -1.5340    1.0608   -1.4272 H   0  0  0  0  0  0  0  0  0  0  0  0
    0.5240    1.6507   -1.8325 C   0  0  0  0  0  0  0  0  0  0  0  0
    0.7312    2.1117   -0.8617 H   0  0  0  0  0  0  0  0  0  0  0  0
    1.4454    1.1771   -2.1871 H   0  0  0  0  0  0  0  0  0  0  0  0
    0.0973    2.7313   -2.8205 C   0  0  0  0  0  0  0  0  0  0  0  0
   -0.1091    2.2843   -3.7993 H   0  0  0  0  0  0  0  0  0  0  0  0
   -0.8188    3.2198   -2.4692 H   0  0  0  0  0  0  0  0  0  0  0  0
    1.1801    3.7127   -2.9369 N   0  0  0  0  0  0  0  0  0  0  0  0
    0.9419    4.4448   -3.6061 H   0  0  0  0  0  0  0  0  0  0  0  0
    1.4071    4.1134   -2.0270 H   0  0  0  0  0  0  0  0  0  0  0  0
   -1.1030    1.0668    1.2394 C   0  0  0  0  0  0  0  0  0  0  0  0
   -2.1323    1.6817    0.9805 O   0  0  0  0  0  0  0  0  0  0  0  0
   -0.2142    1.6033    2.1530 N   0  0  0  0  0  0  0  0  0  0  0  0
    0.5930    1.0422    2.4102 H   0  0  0  0  0  0  0  0  0  0  0  0
   -0.4008    2.9027    2.7864 C   0  0  0  0  0  0  0  0  0  0  0  0
   -1.3264    2.9143    3.3715 H   0  0  0  0  0  0  0  0  0  0  0  0
    0.4354    3.1197    3.4579 H   0  0  0  0  0  0  0  0  0  0  0  0
   -0.4509    3.6932    2.0303 H   0  0  0  0  0  0  0  0  0  0  0  0
  1  2  1  0  0  0  0
  2  3  1  0  0  0  0
  2  4  1  0  0  0  0
  2  5  1  0  0  0  0
  5  6  2  0  0  0  0
  5  7  1  0  0  0  0
  7  8  1  0  0  0  0
  7  9  1  0  0  0  0
  9 10  1  0  0  0  0
  9 11  1  0  0  0  0
  9 26  1  0  0  0  0
 11 12  1  0  0  0  0
 11 13  1  0  0  0  0
 11 14  1  0  0  0  0
 14 15  1  0  0  0  0
 14 16  1  0  0  0  0
 14 17  1  0  0  0  0
 17 18  1  0  0  0  0
 17 19  1  0  0  0  0
 17 20  1  0  0  0  0
 20 21  1  0  0  0  0
 20 22  1  0  0  0  0
 20 23  1  0  0  0  0
 23 24  1  0  0  0  0
 23 25  1  0  0  0  0
 26 27  2  0  0  0  0
 26 28  1  0  0  0  0
 28 29  1  0  0  0  0
 28 30  1  0  0  0  0
 30 31  1  0  0  0  0
 30 32  1  0  0  0  0
 30 33  1  0  0  0  0
M  END
$$$$

  -OEChem-03222214063D

 33 32  0     1  0  0  0  0  0999 V2000
   -3.5907   -4.0861    1.6196 H   0  0  0  0  0  0  0  0  0  0  0  0
   -3.6668   -3.0742    1.2117 C   0  0  0  0  0  0  0  0  0  0  0  0
   -4.3178   -2.4821    1.8595 H   0  0  0  0  0  0  0  0  0  0  0  0
   -4.1086   -3.1280    0.2139 H   0  0  0  0  0  0  0  0  0  0  0  0
   -2.2923   -2.4366    1.1356 C   0  0  0  0  0  0  0  0  0  0  0  0
   -1.3047   -3.0772    1.4602 O   0  0  0  0  0  0  0  0  0  0  0  0
   -2.1683   -1.1305    0.7090 N   0  0  0  0  0  0  0  0  0  0  0  0
   -3.0286   -0.6112    0.5421 H   0  0  0  0  0  0  0  0  0  0  0  0
   -0.9205   -0.3539    0.7204 C   0  0  1  0  0  0  0  0  0  0  0  0
   -0.2494   -0.8368    1.4383 H   0  0  0  0  0  0  0  0  0  0  0  0
   -0.2141   -0.4531   -0.6511 C   0  0  0  0  0  0  0  0  0  0  0  0
    0.8640   -0.3928   -0.4697 H   0  0  0  0  0  0  0  0  0  0  0  0
   -0.3985   -1.4449   -1.0775 H   0  0  0  0  0  0  0  0  0  0  0  0
   -0.6035    0.6205   -1.6916 C   0  0  0  0  0  0  0  0  0  0  0  0
   -1.0122    0.1126   -2.5716 H   0  0  0  0  0  0  0  0  0  0  0  0
   -1.3910    1.2809   -1.3230 H   0  0  0  0  0  0  0  0  0  0  0  0
    0.6105    1.4516   -2.1252 C   0  0  0  0  0  0  0  0  0  0  0  0
    1.0443    1.9483   -1.2511 H   0  0  0  0  0  0  0  0  0  0  0  0
    1.3732    0.7950   -2.5571 H   0  0  0  0  0  0  0  0  0  0  0  0
    0.2068    2.5039   -3.1544 C   0  0  0  0  0  0  0  0  0  0  0  0
   -0.2230    2.0192   -4.0382 H   0  0  0  0  0  0  0  0  0  0  0  0
   -0.5518    3.1715   -2.7304 H   0  0  0  0  0  0  0  0  0  0  0  0
    1.3983    3.2701   -3.5334 N   0  0  0  0  0  0  0  0  0  0  0  0
    1.1745    3.9771   -4.2339 H   0  0  0  0  0  0  0  0  0  0  0  0
    1.8345    3.6954   -2.7156 H   0  0  0  0  0  0  0  0  0  0  0  0
   -1.1155    1.0761    1.2699 C   0  0  0  0  0  0  0  0  0  0  0  0
   -2.1564    1.6857    1.0478 O   0  0  0  0  0  0  0  0  0  0  0  0
   -0.2136    1.6007    2.1775 N   0  0  0  0  0  0  0  0  0  0  0  0
    0.6012    1.0395    2.4095 H   0  0  0  0  0  0  0  0  0  0  0  0
   -0.3958    2.8877    2.8374 C   0  0  0  0  0  0  0  0  0  0  0  0
   -1.3224    2.8920    3.4211 H   0  0  0  0  0  0  0  0  0  0  0  0
    0.4400    3.0867    3.5150 H   0  0  0  0  0  0  0  0  0  0  0  0
   -0.4411    3.6939    2.0977 H   0  0  0  0  0  0  0  0  0  0  0  0
  1  2  1  0  0  0  0
  2  3  1  0  0  0  0
  2  4  1  0  0  0  0
  2  5  1  0  0  0  0
  5  6  2  0  0  0  0
  5  7  1  0  0  0  0
  7  8  1  0  0  0  0
  7  9  1  0  0  0  0
  9 10  1  0  0  0  0
  9 11  1  0  0  0  0
  9 26  1  0  0  0  0
 11 12  1  0  0  0  0
 11 13  1  0  0  0  0
 11 14  1  0  0  0  0
 14 15  1  0  0  0  0
 14 16  1  0  0  0  0
 14 17  1  0  0  0  0
 17 18  1  0  0  0  0
 17 19  1  0  0  0  0
 17 20  1  0  0  0  0
 20 21  1  0  0  0  0
 20 22  1  0  0  0  0
 20 23  1  0  0  0  0
 23 24  1  0  0  0  0
 23 25  1  0  0  0  0
 26 27  2  0  0  0  0
 26 28  1  0  0  0  0
 28 29  1  0  0  0  0
 28 30  1  0  0  0  0
 30 31  1  0  0  0  0
 30 32  1  0  0  0  0
 30 33  1  0  0  0  0
M  END
$$$$

  -OEChem-03222214063D

 33 32  0     1  0  0  0  0  0999 V2000
   -3.5710   -4.0899    1.5540 H   0  0  0  0  0  0  0  0  0  0  0  0
   -3.6520   -3.0630    1.1870 C   0  0  0  0  0  0  0  0  0  0  0  0
   -4.3010   -2.4983    1.8607 H   0  0  0  0  0  0  0  0  0  0  0  0
   -4.0988   -3.0790    0.1901 H   0  0  0  0  0  0  0  0  0  0  0  0
   -2.2797   -2.4194    1.1275 C   0  0  0  0  0  0  0  0  0  0  0  0
   -1.2908   -3.0613    1.4454 O   0  0  0  0  0  0  0  0  0  0  0  0
   -2.1581   -1.1083    0.7161 N   0  0  0  0  0  0  0  0  0  0  0  0
   -3.0185   -0.5876    0.5540 H   0  0  0  0  0  0  0  0  0  0  0  0
   -0.9101   -0.3324    0.7265 C   0  0  1  0  0  0  0  0  0  0  0  0
   -0.2290   -0.8214    1.4309 H   0  0  0  0  0  0  0  0  0  0  0  0
   -0.2299   -0.4245   -0.6597 C   0  0  0  0  0  0  0  0  0  0  0  0
    0.8473   -0.3466   -0.4792 H   0  0  0  0  0  0  0  0  0  0  0  0
   -0.3993   -1.4174   -1.0900 H   0  0  0  0  0  0  0  0  0  0  0  0
   -0.6230    0.6516   -1.6970 C   0  0  0  0  0  0  0  0  0  0  0  0
   -1.3078    0.2035   -2.4245 H   0  0  0  0  0  0  0  0  0  0  0  0
   -1.1523    1.4878   -1.2375 H   0  0  0  0  0  0  0  0  0  0  0  0
    0.6118    1.2084   -2.4160 C   0  0  0  0  0  0  0  0  0  0  0  0
    1.2795    1.6815   -1.6887 H   0  0  0  0  0  0  0  0  0  0  0  0
    1.1579    0.3900   -2.8971 H   0  0  0  0  0  0  0  0  0  0  0  0
    0.2069    2.2331   -3.4715 C   0  0  0  0  0  0  0  0  0  0  0  0
   -0.4521    1.7674   -4.2128 H   0  0  0  0  0  0  0  0  0  0  0  0
   -0.3386    3.0597   -3.0026 H   0  0  0  0  0  0  0  0  0  0  0  0
    1.4185    2.7356   -4.1262 N   0  0  0  0  0  0  0  0  0  0  0  0
    1.1902    3.4152   -4.8519 H   0  0  0  0  0  0  0  0  0  0  0  0
    2.0635    3.1349   -3.4446 H   0  0  0  0  0  0  0  0  0  0  0  0
   -1.1118    1.0882    1.2969 C   0  0  0  0  0  0  0  0  0  0  0  0
   -2.1577    1.6931    1.0847 O   0  0  0  0  0  0  0  0  0  0  0  0
   -0.2095    1.6081    2.2069 N   0  0  0  0  0  0  0  0  0  0  0  0
    0.6025    1.0430    2.4390 H   0  0  0  0  0  0  0  0  0  0  0  0
   -0.4115    2.8720    2.9048 C   0  0  0  0  0  0  0  0  0  0  0  0
   -1.3178    2.8306    3.5182 H   0  0  0  0  0  0  0  0  0  0  0  0
    0.4399    3.0825    3.5591 H   0  0  0  0  0  0  0  0  0  0  0  0
   -0.5077    3.6944    2.1882 H   0  0  0  0  0  0  0  0  0  0  0  0
  1  2  1  0  0  0  0
  2  3  1  0  0  0  0
  2  4  1  0  0  0  0
  2  5  1  0  0  0  0
  5  6  2  0  0  0  0
  5  7  1  0  0  0  0
  7  8  1  0  0  0  0
  7  9  1  0  0  0  0
  9 10  1  0  0  0  0
  9 11  1  0  0  0  0
  9 26  1  0  0  0  0
 11 12  1  0  0  0  0
 11 13  1  0  0  0  0
 11 14  1  0  0  0  0
 14 15  1  0  0  0  0
 14 16  1  0  0  0  0
 14 17  1  0  0  0  0
 17 18  1  0  0  0  0
 17 19  1  0  0  0  0
 17 20  1  0  0  0  0
 20 21  1  0  0  0  0
 20 22  1  0  0  0  0
 20 23  1  0  0  0  0
 23 24  1  0  0  0  0
 23 25  1  0  0  0  0
 26 27  2  0  0  0  0
 26 28  1  0  0  0  0
 28 29  1  0  0  0  0
 28 30  1  0  0  0  0
 30 31  1  0  0  0  0
 30 32  1  0  0  0  0
 30 33  1  0  0  0  0
M  END
$$$$

  -OEChem-03222214063D

 33 32  0     1  0  0  0  0  0999 V2000
   -3.5801   -4.0748    1.5564 H   0  0  0  0  0  0  0  0  0  0  0  0
   -3.6526   -3.0510    1.1788 C   0  0  0  0  0  0  0  0  0  0  0  0
   -4.3020   -2.4760    1.8434 H   0  0  0  0  0  0  0  0  0  0  0  0
   -4.0936   -3.0741    0.1793 H   0  0  0  0  0  0  0  0  0  0  0  0
   -2.2763   -2.4153    1.1225 C   0  0  0  0  0  0  0  0  0  0  0  0
   -1.2925   -3.0604    1.4498 O   0  0  0  0  0  0  0  0  0  0  0  0
   -2.1463   -1.1050    0.7111 N   0  0  0  0  0  0  0  0  0  0  0  0
   -3.0031   -0.5815    0.5398 H   0  0  0  0  0  0  0  0  0  0  0  0
   -0.8938   -0.3364    0.7238 C   0  0  1  0  0  0  0  0  0  0  0  0
   -0.2095   -0.8292    1.4220 H   0  0  0  0  0  0  0  0  0  0  0  0
   -0.2291   -0.4220   -0.6709 C   0  0  0  0  0  0  0  0  0  0  0  0
    0.8495   -0.3415   -0.5004 H   0  0  0  0  0  0  0  0  0  0  0  0
   -0.4037   -1.4101   -1.1098 H   0  0  0  0  0  0  0  0  0  0  0  0
   -0.6275    0.6670   -1.6894 C   0  0  0  0  0  0  0  0  0  0  0  0
   -1.5206    0.3400   -2.2318 H   0  0  0  0  0  0  0  0  0  0  0  0
   -0.8713    1.6094   -1.1947 H   0  0  0  0  0  0  0  0  0  0  0  0
    0.5215    0.9511   -2.6645 C   0  0  0  0  0  0  0  0  0  0  0  0
    1.3910    1.3247   -2.1141 H   0  0  0  0  0  0  0  0  0  0  0  0
    0.8118    0.0237   -3.1694 H   0  0  0  0  0  0  0  0  0  0  0  0
    0.1003    1.9818   -3.7080 C   0  0  0  0  0  0  0  0  0  0  0  0
   -0.7646    1.6133   -4.2711 H   0  0  0  0  0  0  0  0  0  0  0  0
   -0.1882    2.9177   -3.2164 H   0  0  0  0  0  0  0  0  0  0  0  0
    1.2258    2.2155   -4.6183 N   0  0  0  0  0  0  0  0  0  0  0  0
    0.9819    2.8946   -5.3392 H   0  0  0  0  0  0  0  0  0  0  0  0
    2.0562    2.5117   -4.1058 H   0  0  0  0  0  0  0  0  0  0  0  0
   -1.0998    1.0828    1.2951 C   0  0  0  0  0  0  0  0  0  0  0  0
   -2.1360    1.6951    1.0585 O   0  0  0  0  0  0  0  0  0  0  0  0
   -0.2036    1.6043    2.2102 N   0  0  0  0  0  0  0  0  0  0  0  0
    0.6016    1.0356    2.4568 H   0  0  0  0  0  0  0  0  0  0  0  0
   -0.4077    2.8736    2.8978 C   0  0  0  0  0  0  0  0  0  0  0  0
   -1.3260    2.8439    3.4938 H   0  0  0  0  0  0  0  0  0  0  0  0
    0.4325    3.0799    3.5678 H   0  0  0  0  0  0  0  0  0  0  0  0
   -0.4827    3.6931    2.1754 H   0  0  0  0  0  0  0  0  0  0  0  0
  1  2  1  0  0  0  0
  2  3  1  0  0  0  0
  2  4  1  0  0  0  0
  2  5  1  0  0  0  0
  5  6  2  0  0  0  0
  5  7  1  0  0  0  0
  7  8  1  0  0  0  0
  7  9  1  0  0  0  0
  9 10  1  0  0  0  0
  9 11  1  0  0  0  0
  9 26  1  0  0  0  0
 11 12  1  0  0  0  0
 11 13  1  0  0  0  0
 11 14  1  0  0  0  0
 14 15  1  0  0  0  0
 14 16  1  0  0  0  0
 14 17  1  0  0  0  0
 17 18  1  0  0  0  0
 17 19  1  0  0  0  0
 17 20  1  0  0  0  0
 20 21  1  0  0  0  0
 20 22  1  0  0  0  0
 20 23  1  0  0  0  0
 23 24  1  0  0  0  0
 23 25  1  0  0  0  0
 26 27  2  0  0  0  0
 26 28  1  0  0  0  0
 28 29  1  0  0  0  0
 28 30  1  0  0  0  0
 30 31  1  0  0  0  0
 30 32  1  0  0  0  0
 30 33  1  0  0  0  0
M  END
$$$$

  -OEChem-03222214063D

 33 32  0     1  0  0  0  0  0999 V2000
   -3.6015   -4.0631    1.5623 H   0  0  0  0  0  0  0  0  0  0  0  0
   -3.6620   -3.0426    1.1740 C   0  0  0  0  0  0  0  0  0  0  0  0
   -4.3189   -2.4576    1.8223 H   0  0  0  0  0  0  0  0  0  0  0  0
   -4.0871   -3.0734    0.1678 H   0  0  0  0  0  0  0  0  0  0  0  0
   -2.2811   -2.4155    1.1342 C   0  0  0  0  0  0  0  0  0  0  0  0
   -1.3072   -3.0624    1.4867 O   0  0  0  0  0  0  0  0  0  0  0  0
   -2.1351   -1.1117    0.7076 N   0  0  0  0  0  0  0  0  0  0  0  0
   -2.9847   -0.5845    0.5133 H   0  0  0  0  0  0  0  0  0  0  0  0
   -0.8754   -0.3547    0.7206 C   0  0  1  0  0  0  0  0  0  0  0  0
   -0.1922   -0.8467    1.4203 H   0  0  0  0  0  0  0  0  0  0  0  0
   -0.2203   -0.4421   -0.6779 C   0  0  0  0  0  0  0  0  0  0  0  0
    0.8621   -0.3751   -0.5278 H   0  0  0  0  0  0  0  0  0  0  0  0
   -0.4194   -1.4236   -1.1214 H   0  0  0  0  0  0  0  0  0  0  0  0
   -0.6258    0.6623   -1.6720 C   0  0  0  0  0  0  0  0  0  0  0  0
   -1.6519    0.4861   -2.0110 H   0  0  0  0  0  0  0  0  0  0  0  0
   -0.5930    1.6466   -1.1969 H   0  0  0  0  0  0  0  0  0  0  0  0
    0.3369    0.6946   -2.8646 C   0  0  0  0  0  0  0  0  0  0  0  0
    1.3521    0.9095   -2.5159 H   0  0  0  0  0  0  0  0  0  0  0  0
    0.3471   -0.2846   -3.3547 H   0  0  0  0  0  0  0  0  0  0  0  0
   -0.0887    1.7575   -3.8733 C   0  0  0  0  0  0  0  0  0  0  0  0
   -1.1008    1.5460   -4.2361 H   0  0  0  0  0  0  0  0  0  0  0  0
   -0.0973    2.7446   -3.3977 H   0  0  0  0  0  0  0  0  0  0  0  0
    0.8561    1.7451   -4.9943 N   0  0  0  0  0  0  0  0  0  0  0  0
    0.6033    2.4394   -5.6975 H   0  0  0  0  0  0  0  0  0  0  0  0
    1.8122    1.8878   -4.6696 H   0  0  0  0  0  0  0  0  0  0  0  0
   -1.0803    1.0717    1.2737 C   0  0  0  0  0  0  0  0  0  0  0  0
   -2.1001    1.6954    0.9987 O   0  0  0  0  0  0  0  0  0  0  0  0
   -0.1924    1.6019    2.1917 N   0  0  0  0  0  0  0  0  0  0  0  0
    0.5996    1.0281    2.4671 H   0  0  0  0  0  0  0  0  0  0  0  0
   -0.3928    2.8891    2.8460 C   0  0  0  0  0  0  0  0  0  0  0  0
   -1.3224    2.8840    3.4248 H   0  0  0  0  0  0  0  0  0  0  0  0
    0.4374    3.1010    3.5266 H   0  0  0  0  0  0  0  0  0  0  0  0
   -0.4444    3.6922    2.1034 H   0  0  0  0  0  0  0  0  0  0  0  0
  1  2  1  0  0  0  0
  2  3  1  0  0  0  0
  2  4  1  0  0  0  0
  2  5  1  0  0  0  0
  5  6  2  0  0  0  0
  5  7  1  0  0  0  0
  7  8  1  0  0  0  0
  7  9  1  0  0  0  0
  9 10  1  0  0  0  0
  9 11  1  0  0  0  0
  9 26  1  0  0  0  0
 11 12  1  0  0  0  0
 11 13  1  0  0  0  0
 11 14  1  0  0  0  0
 14 15  1  0  0  0  0
 14 16  1  0  0  0  0
 14 17  1  0  0  0  0
 17 18  1  0  0  0  0
 17 19  1  0  0  0  0
 17 20  1  0  0  0  0
 20 21  1  0  0  0  0
 20 22  1  0  0  0  0
 20 23  1  0  0  0  0
 23 24  1  0  0  0  0
 23 25  1  0  0  0  0
 26 27  2  0  0  0  0
 26 28  1  0  0  0  0
 28 29  1  0  0  0  0
 28 30  1  0  0  0  0
 30 31  1  0  0  0  0
 30 32  1  0  0  0  0
 30 33  1  0  0  0  0
M  END
$$$$

  -OEChem-03222214063D

 33 32  0     1  0  0  0  0  0999 V2000
   -3.6145   -4.0571    1.5674 H   0  0  0  0  0  0  0  0  0  0  0  0
   -3.6662   -3.0441    1.1585 C   0  0  0  0  0  0  0  0  0  0  0  0
   -4.3404   -2.4480    1.7783 H   0  0  0  0  0  0  0  0  0  0  0  0
   -4.0649   -3.0943    0.1424 H   0  0  0  0  0  0  0  0  0  0  0  0
   -2.2854   -2.4160    1.1424 C   0  0  0  0  0  0  0  0  0  0  0  0
   -1.3186   -3.0598    1.5191 O   0  0  0  0  0  0  0  0  0  0  0  0
   -2.1300   -1.1167    0.7059 N   0  0  0  0  0  0  0  0  0  0  0  0
   -2.9740   -0.5910    0.4844 H   0  0  0  0  0  0  0  0  0  0  0  0
   -0.8658   -0.3672    0.7238 C   0  0  1  0  0  0  0  0  0  0  0  0
   -0.1881   -0.8553    1.4320 H   0  0  0  0  0  0  0  0  0  0  0  0
   -0.2018   -0.4565   -0.6732 C   0  0  0  0  0  0  0  0  0  0  0  0
    0.8600   -0.6796   -0.5268 H   0  0  0  0  0  0  0  0  0  0  0  0
   -0.6283   -1.2986   -1.2292 H   0  0  0  0  0  0  0  0  0  0  0  0
   -0.3045    0.8187   -1.5269 C   0  0  0  0  0  0  0  0  0  0  0  0
   -1.3595    1.0679   -1.6845 H   0  0  0  0  0  0  0  0  0  0  0  0
    0.1720    1.6585   -1.0107 H   0  0  0  0  0  0  0  0  0  0  0  0
    0.3825    0.6169   -2.8815 C   0  0  0  0  0  0  0  0  0  0  0  0
    1.4396    0.3779   -2.7265 H   0  0  0  0  0  0  0  0  0  0  0  0
   -0.0811   -0.2239   -3.4078 H   0  0  0  0  0  0  0  0  0  0  0  0
    0.2636    1.8727   -3.7407 C   0  0  0  0  0  0  0  0  0  0  0  0
   -0.7922    2.1082   -3.9159 H   0  0  0  0  0  0  0  0  0  0  0  0
    0.7211    2.7256   -3.2268 H   0  0  0  0  0  0  0  0  0  0  0  0
    0.9412    1.6302   -5.0182 N   0  0  0  0  0  0  0  0  0  0  0  0
    0.8790    2.4442   -5.6299 H   0  0  0  0  0  0  0  0  0  0  0  0
    1.9131    1.3581   -4.8716 H   0  0  0  0  0  0  0  0  0  0  0  0
   -1.0792    1.0632    1.2648 C   0  0  0  0  0  0  0  0  0  0  0  0
   -2.0838    1.6950    0.9552 O   0  0  0  0  0  0  0  0  0  0  0  0
   -0.2020    1.5997    2.1894 N   0  0  0  0  0  0  0  0  0  0  0  0
    0.5835    1.0254    2.4819 H   0  0  0  0  0  0  0  0  0  0  0  0
   -0.3928    2.9044    2.8111 C   0  0  0  0  0  0  0  0  0  0  0  0
   -1.3471    2.9382    3.3475 H   0  0  0  0  0  0  0  0  0  0  0  0
    0.4117    3.1047    3.5254 H   0  0  0  0  0  0  0  0  0  0  0  0
   -0.3866    3.6941    2.0525 H   0  0  0  0  0  0  0  0  0  0  0  0
  1  2  1  0  0  0  0
  2  3  1  0  0  0  0
  2  4  1  0  0  0  0
  2  5  1  0  0  0  0
  5  6  2  0  0  0  0
  5  7  1  0  0  0  0
  7  8  1  0  0  0  0
  7  9  1  0  0  0  0
  9 10  1  0  0  0  0
  9 11  1  0  0  0  0
  9 26  1  0  0  0  0
 11 12  1  0  0  0  0
 11 13  1  0  0  0  0
 11 14  1  0  0  0  0
 14 15  1  0  0  0  0
 14 16  1  0  0  0  0
 14 17  1  0  0  0  0
 17 18  1  0  0  0  0
 17 19  1  0  0  0  0
 17 20  1  0  0  0  0
 20 21  1  0  0  0  0
 20 22  1  0  0  0  0
 20 23  1  0  0  0  0
 23 24  1  0  0  0  0
 23 25  1  0  0  0  0
 26 27  2  0  0  0  0
 26 28  1  0  0  0  0
 28 29  1  0  0  0  0
 28 30  1  0  0  0  0
 30 31  1  0  0  0  0
 30 32  1  0  0  0  0
 30 33  1  0  0  0  0
M  END
$$$$

  -OEChem-03222214063D

 33 32  0     1  0  0  0  0  0999 V2000
   -3.6163   -4.0570    1.5606 H   0  0  0  0  0  0  0  0  0  0  0  0
   -3.6737   -3.0373    1.1696 C   0  0  0  0  0  0  0  0  0  0  0  0
   -4.3357   -2.4509    1.8114 H   0  0  0  0  0  0  0  0  0  0  0  0
   -4.0902   -3.0697    0.1599 H   0  0  0  0  0  0  0  0  0  0  0  0
   -2.2924   -2.4107    1.1387 C   0  0  0  0  0  0  0  0  0  0  0  0
   -1.3218   -3.0561    1.5029 O   0  0  0  0  0  0  0  0  0  0  0  0
   -2.1414   -1.1099    0.7045 N   0  0  0  0  0  0  0  0  0  0  0  0
   -2.9881   -0.5845    0.4931 H   0  0  0  0  0  0  0  0  0  0  0  0
   -0.8786   -0.3574    0.7150 C   0  0  1  0  0  0  0  0  0  0  0  0
   -0.2025   -0.8465    1.4239 H   0  0  0  0  0  0  0  0  0  0  0  0
   -0.2039   -0.4506   -0.6759 C   0  0  0  0  0  0  0  0  0  0  0  0
    0.8577   -0.6765   -0.5335 H   0  0  0  0  0  0  0  0  0  0  0  0
   -0.6355   -1.2957   -1.2233 H   0  0  0  0  0  0  0  0  0  0  0  0
   -0.3083    0.8208   -1.5358 C   0  0  0  0  0  0  0  0  0  0  0  0
   -1.3363    1.1980   -1.5101 H   0  0  0  0  0  0  0  0  0  0  0  0
    0.3521    1.5985   -1.1377 H   0  0  0  0  0  0  0  0  0  0  0  0
    0.0505    0.5165   -2.9944 C   0  0  0  0  0  0  0  0  0  0  0  0
    1.0725    0.1278   -3.0476 H   0  0  0  0  0  0  0  0  0  0  0  0
   -0.6238   -0.2510   -3.3882 H   0  0  0  0  0  0  0  0  0  0  0  0
   -0.0624    1.7723   -3.8535 C   0  0  0  0  0  0  0  0  0  0  0  0
   -1.0850    2.1642   -3.8134 H   0  0  0  0  0  0  0  0  0  0  0  0
    0.6138    2.5475   -3.4764 H   0  0  0  0  0  0  0  0  0  0  0  0
    0.2864    1.4255   -5.2347 N   0  0  0  0  0  0  0  0  0  0  0  0
    0.2111    2.2357   -5.8498 H   0  0  0  0  0  0  0  0  0  0  0  0
    1.2184    1.0145   -5.2859 H   0  0  0  0  0  0  0  0  0  0  0  0
   -1.0760    1.0746    1.2591 C   0  0  0  0  0  0  0  0  0  0  0  0
   -2.0914    1.7045    0.9830 O   0  0  0  0  0  0  0  0  0  0  0  0
   -0.1839    1.6026    2.1745 N   0  0  0  0  0  0  0  0  0  0  0  0
    0.6013    1.0216    2.4547 H   0  0  0  0  0  0  0  0  0  0  0  0
   -0.3761    2.8919    2.8273 C   0  0  0  0  0  0  0  0  0  0  0  0
   -1.3020    2.8908    3.4121 H   0  0  0  0  0  0  0  0  0  0  0  0
    0.4591    3.1029    3.5022 H   0  0  0  0  0  0  0  0  0  0  0  0
   -0.4300    3.6937    2.0833 H   0  0  0  0  0  0  0  0  0  0  0  0
  1  2  1  0  0  0  0
  2  3  1  0  0  0  0
  2  4  1  0  0  0  0
  2  5  1  0  0  0  0
  5  6  2  0  0  0  0
  5  7  1  0  0  0  0
  7  8  1  0  0  0  0
  7  9  1  0  0  0  0
  9 10  1  0  0  0  0
  9 11  1  0  0  0  0
  9 26  1  0  0  0  0
 11 12  1  0  0  0  0
 11 13  1  0  0  0  0
 11 14  1  0  0  0  0
 14 15  1  0  0  0  0
 14 16  1  0  0  0  0
 14 17  1  0  0  0  0
 17 18  1  0  0  0  0
 17 19  1  0  0  0  0
 17 20  1  0  0  0  0
 20 21  1  0  0  0  0
 20 22  1  0  0  0  0
 20 23  1  0  0  0  0
 23 24  1  0  0  0  0
 23 25  1  0  0  0  0
 26 27  2  0  0  0  0
 26 28  1  0  0  0  0
 28 29  1  0  0  0  0
 28 30  1  0  0  0  0
 30 31  1  0  0  0  0
 30 32  1  0  0  0  0
 30 33  1  0  0  0  0
M  END
$$$$

  -OEChem-03222214063D

 33 32  0     1  0  0  0  0  0999 V2000
   -3.6063   -4.0565    1.5526 H   0  0  0  0  0  0  0  0  0  0  0  0
   -3.6727   -3.0342    1.1701 C   0  0  0  0  0  0  0  0  0  0  0  0
   -4.3304   -2.4557    1.8234 H   0  0  0  0  0  0  0  0  0  0  0  0
   -4.1004   -3.0612    0.1650 H   0  0  0  0  0  0  0  0  0  0  0  0
   -2.2946   -2.4011    1.1287 C   0  0  0  0  0  0  0  0  0  0  0  0
   -1.3156   -3.0491    1.4648 O   0  0  0  0  0  0  0  0  0  0  0  0
   -2.1554   -1.0934    0.7116 N   0  0  0  0  0  0  0  0  0  0  0  0
   -3.0077   -0.5682    0.5231 H   0  0  0  0  0  0  0  0  0  0  0  0
   -0.8958   -0.3353    0.7157 C   0  0  1  0  0  0  0  0  0  0  0  0
   -0.2184   -0.8315    1.4183 H   0  0  0  0  0  0  0  0  0  0  0  0
   -0.2182   -0.4281   -0.6746 C   0  0  0  0  0  0  0  0  0  0  0  0
    0.8436   -0.6534   -0.5325 H   0  0  0  0  0  0  0  0  0  0  0  0
   -0.6476   -1.2817   -1.2106 H   0  0  0  0  0  0  0  0  0  0  0  0
   -0.3192    0.8334   -1.5544 C   0  0  0  0  0  0  0  0  0  0  0  0
   -1.2599    1.3561   -1.3579 H   0  0  0  0  0  0  0  0  0  0  0  0
    0.5043    1.5171   -1.3233 H   0  0  0  0  0  0  0  0  0  0  0  0
   -0.3185    0.4600   -3.0415 C   0  0  0  0  0  0  0  0  0  0  0  0
    0.6021   -0.0815   -3.2818 H   0  0  0  0  0  0  0  0  0  0  0  0
   -1.1660   -0.1988   -3.2586 H   0  0  0  0  0  0  0  0  0  0  0  0
   -0.4189    1.7074   -3.9144 C   0  0  0  0  0  0  0  0  0  0  0  0
   -1.3434    2.2502   -3.6878 H   0  0  0  0  0  0  0  0  0  0  0  0
    0.4257    2.3758   -3.7137 H   0  0  0  0  0  0  0  0  0  0  0  0
   -0.4126    1.2951   -5.3213 N   0  0  0  0  0  0  0  0  0  0  0  0
   -0.4914    2.1000   -5.9427 H   0  0  0  0  0  0  0  0  0  0  0  0
    0.4194    0.7470   -5.5389 H   0  0  0  0  0  0  0  0  0  0  0  0
   -1.0797    1.0901    1.2815 C   0  0  0  0  0  0  0  0  0  0  0  0
   -2.1070    1.7184    1.0495 O   0  0  0  0  0  0  0  0  0  0  0  0
   -0.1698    1.6021    2.1885 N   0  0  0  0  0  0  0  0  0  0  0  0
    0.6226    1.0177    2.4394 H   0  0  0  0  0  0  0  0  0  0  0  0
   -0.3513    2.8758    2.8744 C   0  0  0  0  0  0  0  0  0  0  0  0
   -1.2648    2.8593    3.4782 H   0  0  0  0  0  0  0  0  0  0  0  0
    0.4970    3.0727    3.5370 H   0  0  0  0  0  0  0  0  0  0  0  0
   -0.4211    3.6947    2.1507 H   0  0  0  0  0  0  0  0  0  0  0  0
  1  2  1  0  0  0  0
  2  3  1  0  0  0  0
  2  4  1  0  0  0  0
  2  5  1  0  0  0  0
  5  6  2  0  0  0  0
  5  7  1  0  0  0  0
  7  8  1  0  0  0  0
  7  9  1  0  0  0  0
  9 10  1  0  0  0  0
  9 11  1  0  0  0  0
  9 26  1  0  0  0  0
 11 12  1  0  0  0  0
 11 13  1  0  0  0  0
 11 14  1  0  0  0  0
 14 15  1  0  0  0  0
 14 16  1  0  0  0  0
 14 17  1  0  0  0  0
 17 18  1  0  0  0  0
 17 19  1  0  0  0  0
 17 20  1  0  0  0  0
 20 21  1  0  0  0  0
 20 22  1  0  0  0  0
 20 23  1  0  0  0  0
 23 24  1  0  0  0  0
 23 25  1  0  0  0  0
 26 27  2  0  0  0  0
 26 28  1  0  0  0  0
 28 29  1  0  0  0  0
 28 30  1  0  0  0  0
 30 31  1  0  0  0  0
 30 32  1  0  0  0  0
 30 33  1  0  0  0  0
M  END
$$$$

  -OEChem-03222214063D

 33 32  0     1  0  0  0  0  0999 V2000
   -3.6079   -4.0470    1.5259 H   0  0  0  0  0  0  0  0  0  0  0  0
   -3.6754   -3.0184    1.1606 C   0  0  0  0  0  0  0  0  0  0  0  0
   -4.3266   -2.4492    1.8283 H   0  0  0  0  0  0  0  0  0  0  0  0
   -4.1109   -3.0283    0.1585 H   0  0  0  0  0  0  0  0  0  0  0  0
   -2.2969   -2.3863    1.1186 C   0  0  0  0  0  0  0  0  0  0  0  0
   -1.3160   -3.0405    1.4370 O   0  0  0  0  0  0  0  0  0  0  0  0
   -2.1602   -1.0725    0.7208 N   0  0  0  0  0  0  0  0  0  0  0  0
   -3.0137   -0.5452    0.5442 H   0  0  0  0  0  0  0  0  0  0  0  0
   -0.9006   -0.3147    0.7233 C   0  0  1  0  0  0  0  0  0  0  0  0
   -0.2217   -0.8196    1.4181 H   0  0  0  0  0  0  0  0  0  0  0  0
   -0.2293   -0.4077   -0.6715 C   0  0  0  0  0  0  0  0  0  0  0  0
    0.8332   -0.6264   -0.5233 H   0  0  0  0  0  0  0  0  0  0  0  0
   -0.6468   -1.2728   -1.1985 H   0  0  0  0  0  0  0  0  0  0  0  0
   -0.3192    0.8435   -1.5734 C   0  0  0  0  0  0  0  0  0  0  0  0
   -1.0918    1.5303   -1.2215 H   0  0  0  0  0  0  0  0  0  0  0  0
    0.6360    1.3786   -1.5555 H   0  0  0  0  0  0  0  0  0  0  0  0
   -0.6919    0.4539   -3.0090 C   0  0  0  0  0  0  0  0  0  0  0  0
    0.0622   -0.2310   -3.4100 H   0  0  0  0  0  0  0  0  0  0  0  0
   -1.6569   -0.0641   -3.0113 H   0  0  0  0  0  0  0  0  0  0  0  0
   -0.7851    1.6886   -3.9005 C   0  0  0  0  0  0  0  0  0  0  0  0
   -1.5501    2.3722   -3.5153 H   0  0  0  0  0  0  0  0  0  0  0  0
    0.1731    2.2200   -3.9081 H   0  0  0  0  0  0  0  0  0  0  0  0
   -1.1357    1.2589   -5.2578 N   0  0  0  0  0  0  0  0  0  0  0  0
   -1.2227    2.0568   -5.8871 H   0  0  0  0  0  0  0  0  0  0  0  0
   -0.4596    0.5843   -5.6155 H   0  0  0  0  0  0  0  0  0  0  0  0
   -1.0763    1.1019    1.3128 C   0  0  0  0  0  0  0  0  0  0  0  0
   -2.1089    1.7311    1.1084 O   0  0  0  0  0  0  0  0  0  0  0  0
   -0.1555    1.5988    2.2173 N   0  0  0  0  0  0  0  0  0  0  0  0
    0.6398    1.0104    2.4493 H   0  0  0  0  0  0  0  0  0  0  0  0
   -0.3324    2.8574    2.9315 C   0  0  0  0  0  0  0  0  0  0  0  0
   -1.2354    2.8228    3.5500 H   0  0  0  0  0  0  0  0  0  0  0  0
    0.5261    3.0467    3.5829 H   0  0  0  0  0  0  0  0  0  0  0  0
   -0.4199    3.6898    2.2255 H   0  0  0  0  0  0  0  0  0  0  0  0
  1  2  1  0  0  0  0
  2  3  1  0  0  0  0
  2  4  1  0  0  0  0
  2  5  1  0  0  0  0
  5  6  2  0  0  0  0
  5  7  1  0  0  0  0
  7  8  1  0  0  0  0
  7  9  1  0  0  0  0
  9 10  1  0  0  0  0
  9 11  1  0  0  0  0
  9 26  1  0  0  0  0
 11 12  1  0  0  0  0
 11 13  1  0  0  0  0
 11 14  1  0  0  0  0
 14 15  1  0  0  0  0
 14 16  1  0  0  0  0
 14 17  1  0  0  0  0
 17 18  1  0  0  0  0
 17 19  1  0  0  0  0
 17 20  1  0  0  0  0
 20 21  1  0  0  0  0
 20 22  1  0  0  0  0
 20 23  1  0  0  0  0
 23 24  1  0  0  0  0
 23 25  1  0  0  0  0
 26 27  2  0  0  0  0
 26 28  1  0  0  0  0
 28 29  1  0  0  0  0
 28 30  1  0  0  0  0
 30 31  1  0  0  0  0
 30 32  1  0  0  0  0
 30 33  1  0  0  0  0
M  END
$$$$

  -OEChem-03222214063D

 33 32  0     1  0  0  0  0  0999 V2000
   -3.6281   -4.0271    1.5154 H   0  0  0  0  0  0  0  0  0  0  0  0
   -3.6856   -2.9983    1.1491 C   0  0  0  0  0  0  0  0  0  0  0  0
   -4.3390   -2.4248    1.8111 H   0  0  0  0  0  0  0  0  0  0  0  0
   -4.1126   -3.0049    0.1434 H   0  0  0  0  0  0  0  0  0  0  0  0
   -2.3029   -2.3749    1.1183 C   0  0  0  0  0  0  0  0  0  0  0  0
   -1.3275   -3.0370    1.4376 O   0  0  0  0  0  0  0  0  0  0  0  0
   -2.1561   -1.0599    0.7286 N   0  0  0  0  0  0  0  0  0  0  0  0
   -3.0046   -0.5282    0.5408 H   0  0  0  0  0  0  0  0  0  0  0  0
   -0.8917   -0.3105    0.7349 C   0  0  1  0  0  0  0  0  0  0  0  0
   -0.2136   -0.8226    1.4257 H   0  0  0  0  0  0  0  0  0  0  0  0
   -0.2323   -0.4079   -0.6665 C   0  0  0  0  0  0  0  0  0  0  0  0
    0.8302   -0.6157   -0.5045 H   0  0  0  0  0  0  0  0  0  0  0  0
   -0.6319   -1.2835   -1.1900 H   0  0  0  0  0  0  0  0  0  0  0  0
   -0.3055    0.8356   -1.5844 C   0  0  0  0  0  0  0  0  0  0  0  0
   -0.8160    1.6747   -1.1092 H   0  0  0  0  0  0  0  0  0  0  0  0
    0.7118    1.1671   -1.8169 H   0  0  0  0  0  0  0  0  0  0  0  0
   -1.0398    0.5013   -2.8887 C   0  0  0  0  0  0  0  0  0  0  0  0
   -0.5044   -0.2935   -3.4183 H   0  0  0  0  0  0  0  0  0  0  0  0
   -2.0472    0.1378   -2.6597 H   0  0  0  0  0  0  0  0  0  0  0  0
   -1.1447    1.7304   -3.7869 C   0  0  0  0  0  0  0  0  0  0  0  0
   -1.7064    2.5208   -3.2761 H   0  0  0  0  0  0  0  0  0  0  0  0
   -0.1449    2.1163   -4.0149 H   0  0  0  0  0  0  0  0  0  0  0  0
   -1.8315    1.3473   -5.0244 N   0  0  0  0  0  0  0  0  0  0  0  0
   -1.9353    2.1453   -5.6513 H   0  0  0  0  0  0  0  0  0  0  0  0
   -1.3479    0.5789   -5.4890 H   0  0  0  0  0  0  0  0  0  0  0  0
   -1.0650    1.1023    1.3339 C   0  0  0  0  0  0  0  0  0  0  0  0
   -2.0909    1.7397    1.1211 O   0  0  0  0  0  0  0  0  0  0  0  0
   -0.1452    1.5925    2.2433 N   0  0  0  0  0  0  0  0  0  0  0  0
    0.6429    0.9970    2.4814 H   0  0  0  0  0  0  0  0  0  0  0  0
   -0.3166    2.8525    2.9567 C   0  0  0  0  0  0  0  0  0  0  0  0
   -1.2278    2.8283    3.5635 H   0  0  0  0  0  0  0  0  0  0  0  0
    0.5355    3.0308    3.6196 H   0  0  0  0  0  0  0  0  0  0  0  0
   -0.3849    3.6866    2.2506 H   0  0  0  0  0  0  0  0  0  0  0  0
  1  2  1  0  0  0  0
  2  3  1  0  0  0  0
  2  4  1  0  0  0  0
  2  5  1  0  0  0  0
  5  6  2  0  0  0  0
  5  7  1  0  0  0  0
  7  8  1  0  0  0  0
  7  9  1  0  0  0  0
  9 10  1  0  0  0  0
  9 11  1  0  0  0  0
  9 26  1  0  0  0  0
 11 12  1  0  0  0  0
 11 13  1  0  0  0  0
 11 14  1  0  0  0  0
 14 15  1  0  0  0  0
 14 16  1  0  0  0  0
 14 17  1  0  0  0  0
 17 18  1  0  0  0  0
 17 19  1  0  0  0  0
 17 20  1  0  0  0  0
 20 21  1  0  0  0  0
 20 22  1  0  0  0  0
 20 23  1  0  0  0  0
 23 24  1  0  0  0  0
 23 25  1  0  0  0  0
 26 27  2  0  0  0  0
 26 28  1  0  0  0  0
 28 29  1  0  0  0  0
 28 30  1  0  0  0  0
 30 31  1  0  0  0  0
 30 32  1  0  0  0  0
 30 33  1  0  0  0  0
M  END
$$$$

  -OEChem-03222214063D

 33 32  0     1  0  0  0  0  0999 V2000
   -3.6490   -4.0152    1.5226 H   0  0  0  0  0  0  0  0  0  0  0  0
   -3.6960   -2.9865    1.1542 C   0  0  0  0  0  0  0  0  0  0  0  0
   -4.3542   -2.4083    1.8071 H   0  0  0  0  0  0  0  0  0  0  0  0
   -4.1106   -2.9926    0.1432 H   0  0  0  0  0  0  0  0  0  0  0  0
   -2.3089   -2.3721    1.1394 C   0  0  0  0  0  0  0  0  0  0  0  0
   -1.3432   -3.0376    1.4801 O   0  0  0  0  0  0  0  0  0  0  0  0
   -2.1453   -1.0641    0.7337 N   0  0  0  0  0  0  0  0  0  0  0  0
   -2.9861   -0.5259    0.5295 H   0  0  0  0  0  0  0  0  0  0  0  0
   -0.8735   -0.3279    0.7412 C   0  0  1  0  0  0  0  0  0  0  0  0
   -0.1973   -0.8371    1.4359 H   0  0  0  0  0  0  0  0  0  0  0  0
   -0.2268   -0.4392   -0.6650 C   0  0  0  0  0  0  0  0  0  0  0  0
    0.8360   -0.6408   -0.4965 H   0  0  0  0  0  0  0  0  0  0  0  0
   -0.6196   -1.3178   -1.1880 H   0  0  0  0  0  0  0  0  0  0  0  0
   -0.2915    0.8016   -1.5842 C   0  0  0  0  0  0  0  0  0  0  0  0
   -0.4914    1.7258   -1.0388 H   0  0  0  0  0  0  0  0  0  0  0  0
    0.6849    0.9262   -2.0637 H   0  0  0  0  0  0  0  0  0  0  0  0
   -1.3400    0.6005   -2.6848 C   0  0  0  0  0  0  0  0  0  0  0  0
   -1.0678   -0.2631   -3.3001 H   0  0  0  0  0  0  0  0  0  0  0  0
   -2.3147    0.3983   -2.2283 H   0  0  0  0  0  0  0  0  0  0  0  0
   -1.4498    1.8408   -3.5660 C   0  0  0  0  0  0  0  0  0  0  0  0
   -1.7739    2.6984   -2.9656 H   0  0  0  0  0  0  0  0  0  0  0  0
   -0.4737    2.0799   -4.0024 H   0  0  0  0  0  0  0  0  0  0  0  0
   -2.4247    1.5747   -4.6286 N   0  0  0  0  0  0  0  0  0  0  0  0
   -2.5477    2.3894   -5.2297 H   0  0  0  0  0  0  0  0  0  0  0  0
   -2.1578    0.7557   -5.1742 H   0  0  0  0  0  0  0  0  0  0  0  0
   -1.0526    1.0911    1.3220 C   0  0  0  0  0  0  0  0  0  0  0  0
   -2.0647    1.7363    1.0711 O   0  0  0  0  0  0  0  0  0  0  0  0
   -0.1441    1.5908    2.2375 N   0  0  0  0  0  0  0  0  0  0  0  0
    0.6361    0.9946    2.4983 H   0  0  0  0  0  0  0  0  0  0  0  0
   -0.3182    2.8645    2.9255 C   0  0  0  0  0  0  0  0  0  0  0  0
   -1.2352    2.8551    3.5242 H   0  0  0  0  0  0  0  0  0  0  0  0
    0.5284    3.0524    3.5930 H   0  0  0  0  0  0  0  0  0  0  0  0
   -0.3770    3.6855    2.2032 H   0  0  0  0  0  0  0  0  0  0  0  0
  1  2  1  0  0  0  0
  2  3  1  0  0  0  0
  2  4  1  0  0  0  0
  2  5  1  0  0  0  0
  5  6  2  0  0  0  0
  5  7  1  0  0  0  0
  7  8  1  0  0  0  0
  7  9  1  0  0  0  0
  9 10  1  0  0  0  0
  9 11  1  0  0  0  0
  9 26  1  0  0  0  0
 11 12  1  0  0  0  0
 11 13  1  0  0  0  0
 11 14  1  0  0  0  0
 14 15  1  0  0  0  0
 14 16  1  0  0  0  0
 14 17  1  0  0  0  0
 17 18  1  0  0  0  0
 17 19  1  0  0  0  0
 17 20  1  0  0  0  0
 20 21  1  0  0  0  0
 20 22  1  0  0  0  0
 20 23  1  0  0  0  0
 23 24  1  0  0  0  0
 23 25  1  0  0  0  0
 26 27  2  0  0  0  0
 26 28  1  0  0  0  0
 28 29  1  0  0  0  0
 28 30  1  0  0  0  0
 30 31  1  0  0  0  0
 30 32  1  0  0  0  0
 30 33  1  0  0  0  0
M  END
$$$$

  -OEChem-03222214063D

 33 32  0     1  0  0  0  0  0999 V2000
   -3.6610   -4.0161    1.5681 H   0  0  0  0  0  0  0  0  0  0  0  0
   -3.7030   -2.9936    1.1824 C   0  0  0  0  0  0  0  0  0  0  0  0
   -4.3579   -2.4011    1.8260 H   0  0  0  0  0  0  0  0  0  0  0  0
   -4.1185   -3.0146    0.1720 H   0  0  0  0  0  0  0  0  0  0  0  0
   -2.3130   -2.3860    1.1576 C   0  0  0  0  0  0  0  0  0  0  0  0
   -1.3510   -3.0484    1.5147 O   0  0  0  0  0  0  0  0  0  0  0  0
   -2.1439   -1.0844    0.7341 N   0  0  0  0  0  0  0  0  0  0  0  0
   -2.9816   -0.5490    0.5101 H   0  0  0  0  0  0  0  0  0  0  0  0
   -0.8710   -0.3502    0.7397 C   0  0  1  0  0  0  0  0  0  0  0  0
   -0.1973   -0.8521    1.4420 H   0  0  0  0  0  0  0  0  0  0  0  0
   -0.2205   -0.4674   -0.6638 C   0  0  0  0  0  0  0  0  0  0  0  0
    0.8424   -0.6682   -0.4953 H   0  0  0  0  0  0  0  0  0  0  0  0
   -0.6160   -1.3407   -1.1934 H   0  0  0  0  0  0  0  0  0  0  0  0
   -0.2901    0.7766   -1.5728 C   0  0  0  0  0  0  0  0  0  0  0  0
   -0.2188    1.7096   -1.0079 H   0  0  0  0  0  0  0  0  0  0  0  0
    0.5700    0.7548   -2.2503 H   0  0  0  0  0  0  0  0  0  0  0  0
   -1.5646    0.7474   -2.4253 C   0  0  0  0  0  0  0  0  0  0  0  0
   -1.5518   -0.1345   -3.0736 H   0  0  0  0  0  0  0  0  0  0  0  0
   -2.4419    0.6762   -1.7740 H   0  0  0  0  0  0  0  0  0  0  0  0
   -1.6807    2.0071   -3.2772 C   0  0  0  0  0  0  0  0  0  0  0  0
   -1.7717    2.8869   -2.6301 H   0  0  0  0  0  0  0  0  0  0  0  0
   -0.7835    2.1291   -3.8940 H   0  0  0  0  0  0  0  0  0  0  0  0
   -2.8657    1.8875   -4.1330 N   0  0  0  0  0  0  0  0  0  0  0  0
   -3.0008    2.7269   -4.6963 H   0  0  0  0  0  0  0  0  0  0  0  0
   -2.8105    1.0572   -4.7222 H   0  0  0  0  0  0  0  0  0  0  0  0
   -1.0514    1.0775    1.2988 C   0  0  0  0  0  0  0  0  0  0  0  0
   -2.0535    1.7274    1.0226 O   0  0  0  0  0  0  0  0  0  0  0  0
   -0.1474    1.5875    2.2131 N   0  0  0  0  0  0  0  0  0  0  0  0
    0.6275    0.9917    2.4901 H   0  0  0  0  0  0  0  0  0  0  0  0
   -0.3145    2.8781    2.8702 C   0  0  0  0  0  0  0  0  0  0  0  0
   -1.2360    2.8907    3.4618 H   0  0  0  0  0  0  0  0  0  0  0  0
    0.5288    3.0737    3.5394 H   0  0  0  0  0  0  0  0  0  0  0  0
   -0.3600    3.6825    2.1286 H   0  0  0  0  0  0  0  0  0  0  0  0
  1  2  1  0  0  0  0
  2  3  1  0  0  0  0
  2  4  1  0  0  0  0
  2  5  1  0  0  0  0
  5  6  2  0  0  0  0
  5  7  1  0  0  0  0
  7  8  1  0  0  0  0
  7  9  1  0  0  0  0
  9 10  1  0  0  0  0
  9 11  1  0  0  0  0
  9 26  1  0  0  0  0
 11 12  1  0  0  0  0
 11 13  1  0  0  0  0
 11 14  1  0  0  0  0
 14 15  1  0  0  0  0
 14 16  1  0  0  0  0
 14 17  1  0  0  0  0
 17 18  1  0  0  0  0
 17 19  1  0  0  0  0
 17 20  1  0  0  0  0
 20 21  1  0  0  0  0
 20 22  1  0  0  0  0
 20 23  1  0  0  0  0
 23 24  1  0  0  0  0
 23 25  1  0  0  0  0
 26 27  2  0  0  0  0
 26 28  1  0  0  0  0
 28 29  1  0  0  0  0
 28 30  1  0  0  0  0
 30 31  1  0  0  0  0
 30 32  1  0  0  0  0
 30 33  1  0  0  0  0
M  END
$$$$

  -OEChem-03222214063D

 33 32  0     1  0  0  0  0  0999 V2000
   -3.6325   -4.0455    1.6087 H   0  0  0  0  0  0  0  0  0  0  0  0
   -3.6955   -3.0200    1.2345 C   0  0  0  0  0  0  0  0  0  0  0  0
   -4.3353   -2.4396    1.9036 H   0  0  0  0  0  0  0  0  0  0  0  0
   -4.1418   -3.0353    0.2373 H   0  0  0  0  0  0  0  0  0  0  0  0
   -2.3121   -2.4002    1.1727 C   0  0  0  0  0  0  0  0  0  0  0  0
   -1.3343   -3.0580    1.4936 O   0  0  0  0  0  0  0  0  0  0  0  0
   -2.1660   -1.0946    0.7524 N   0  0  0  0  0  0  0  0  0  0  0  0
   -3.0152   -0.5637    0.5640 H   0  0  0  0  0  0  0  0  0  0  0  0
   -0.9016   -0.3453    0.7386 C   0  0  1  0  0  0  0  0  0  0  0  0
   -0.2249   -0.8441    1.4402 H   0  0  0  0  0  0  0  0  0  0  0  0
   -0.2340   -0.4645   -0.6556 C   0  0  0  0  0  0  0  0  0  0  0  0
    0.8298   -0.6585   -0.4852 H   0  0  0  0  0  0  0  0  0  0  0  0
   -0.6286   -1.3389   -1.1844 H   0  0  0  0  0  0  0  0  0  0  0  0
   -0.3198    0.7702   -1.5711 C   0  0  0  0  0  0  0  0  0  0  0  0
   -0.0310    1.6762   -1.0295 H   0  0  0  0  0  0  0  0  0  0  0  0
    0.3951    0.6454   -2.3911 H   0  0  0  0  0  0  0  0  0  0  0  0
   -1.7249    0.9276   -2.1706 C   0  0  0  0  0  0  0  0  0  0  0  0
   -1.9447    0.0628   -2.8043 H   0  0  0  0  0  0  0  0  0  0  0  0
   -2.4793    0.9602   -1.3799 H   0  0  0  0  0  0  0  0  0  0  0  0
   -1.8205    2.2056   -2.9980 C   0  0  0  0  0  0  0  0  0  0  0  0
   -1.6996    3.0791   -2.3471 H   0  0  0  0  0  0  0  0  0  0  0  0
   -1.0240    2.2279   -3.7498 H   0  0  0  0  0  0  0  0  0  0  0  0
   -3.1304    2.2458   -3.6566 N   0  0  0  0  0  0  0  0  0  0  0  0
   -3.2468    3.1031   -4.1965 H   0  0  0  0  0  0  0  0  0  0  0  0
   -3.2730    1.4231   -4.2416 H   0  0  0  0  0  0  0  0  0  0  0  0
   -1.0616    1.0838    1.3033 C   0  0  0  0  0  0  0  0  0  0  0  0
   -2.0842    1.7253    1.0936 O   0  0  0  0  0  0  0  0  0  0  0  0
   -0.1310    1.5858    2.1954 N   0  0  0  0  0  0  0  0  0  0  0  0
    0.6560    0.9910    2.4377 H   0  0  0  0  0  0  0  0  0  0  0  0
   -0.2818    2.8669    2.8753 C   0  0  0  0  0  0  0  0  0  0  0  0
   -1.1675    2.8574    3.5192 H   0  0  0  0  0  0  0  0  0  0  0  0
    0.5956    3.0709    3.4963 H   0  0  0  0  0  0  0  0  0  0  0  0
   -0.3844    3.6783    2.1470 H   0  0  0  0  0  0  0  0  0  0  0  0
  1  2  1  0  0  0  0
  2  3  1  0  0  0  0
  2  4  1  0  0  0  0
  2  5  1  0  0  0  0
  5  6  2  0  0  0  0
  5  7  1  0  0  0  0
  7  8  1  0  0  0  0
  7  9  1  0  0  0  0
  9 10  1  0  0  0  0
  9 11  1  0  0  0  0
  9 26  1  0  0  0  0
 11 12  1  0  0  0  0
 11 13  1  0  0  0  0
 11 14  1  0  0  0  0
 14 15  1  0  0  0  0
 14 16  1  0  0  0  0
 14 17  1  0  0  0  0
 17 18  1  0  0  0  0
 17 19  1  0  0  0  0
 17 20  1  0  0  0  0
 20 21  1  0  0  0  0
 20 22  1  0  0  0  0
 20 23  1  0  0  0  0
 23 24  1  0  0  0  0
 23 25  1  0  0  0  0
 26 27  2  0  0  0  0
 26 28  1  0  0  0  0
 28 29  1  0  0  0  0
 28 30  1  0  0  0  0
 30 31  1  0  0  0  0
 30 32  1  0  0  0  0
 30 33  1  0  0  0  0
M  END
$$$$

  -OEChem-03222214063D

 33 32  0     1  0  0  0  0  0999 V2000
   -3.5540   -4.1038    1.6041 H   0  0  0  0  0  0  0  0  0  0  0  0
   -3.6596   -3.0557    1.3109 C   0  0  0  0  0  0  0  0  0  0  0  0
   -4.2454   -2.5342    2.0718 H   0  0  0  0  0  0  0  0  0  0  0  0
   -4.1900   -3.0083    0.3568 H   0  0  0  0  0  0  0  0  0  0  0  0
   -2.2936   -2.4097    1.1754 C   0  0  0  0  0  0  0  0  0  0  0  0
   -1.2853   -3.0637    1.3945 O   0  0  0  0  0  0  0  0  0  0  0  0
   -2.2003   -1.0855    0.8000 N   0  0  0  0  0  0  0  0  0  0  0  0
   -3.0706   -0.5626    0.7134 H   0  0  0  0  0  0  0  0  0  0  0  0
   -0.9569   -0.3032    0.7512 C   0  0  1  0  0  0  0  0  0  0  0  0
   -0.2688   -0.8097    1.4358 H   0  0  0  0  0  0  0  0  0  0  0  0
   -0.2710   -0.4063   -0.6344 C   0  0  0  0  0  0  0  0  0  0  0  0
    0.7953   -0.5830   -0.4608 H   0  0  0  0  0  0  0  0  0  0  0  0
   -0.6532   -1.2912   -1.1542 H   0  0  0  0  0  0  0  0  0  0  0  0
   -0.3758    0.8018   -1.5830 C   0  0  0  0  0  0  0  0  0  0  0  0
    0.1005    1.6677   -1.1117 H   0  0  0  0  0  0  0  0  0  0  0  0
    0.1839    0.5781   -2.4970 H   0  0  0  0  0  0  0  0  0  0  0  0
   -1.8226    1.1635   -1.9582 C   0  0  0  0  0  0  0  0  0  0  0  0
   -2.2680    0.3228   -2.4994 H   0  0  0  0  0  0  0  0  0  0  0  0
   -2.4358    1.3435   -1.0756 H   0  0  0  0  0  0  0  0  0  0  0  0
   -1.8513    2.4094   -2.8394 C   0  0  0  0  0  0  0  0  0  0  0  0
   -1.4881    3.2742   -2.2729 H   0  0  0  0  0  0  0  0  0  0  0  0
   -1.1969    2.2715   -3.7070 H   0  0  0  0  0  0  0  0  0  0  0  0
   -3.2283    2.6441   -3.2852 N   0  0  0  0  0  0  0  0  0  0  0  0
   -3.2943    3.4858   -3.8572 H   0  0  0  0  0  0  0  0  0  0  0  0
   -3.5972    1.8339   -3.7820 H   0  0  0  0  0  0  0  0  0  0  0  0
   -1.0818    1.1075    1.3705 C   0  0  0  0  0  0  0  0  0  0  0  0
   -2.1495    1.7071    1.3440 O   0  0  0  0  0  0  0  0  0  0  0  0
   -0.0928    1.5756    2.2179 N   0  0  0  0  0  0  0  0  0  0  0  0
    0.7341    0.9980    2.3389 H   0  0  0  0  0  0  0  0  0  0  0  0
   -0.2315    2.7838    3.0229 C   0  0  0  0  0  0  0  0  0  0  0  0
   -1.0243    2.6580    3.7676 H   0  0  0  0  0  0  0  0  0  0  0  0
    0.7047    3.0001    3.5458 H   0  0  0  0  0  0  0  0  0  0  0  0
   -0.4772    3.6418    2.3882 H   0  0  0  0  0  0  0  0  0  0  0  0
  1  2  1  0  0  0  0
  2  3  1  0  0  0  0
  2  4  1  0  0  0  0
  2  5  1  0  0  0  0
  5  6  2  0  0  0  0
  5  7  1  0  0  0  0
  7  8  1  0  0  0  0
  7  9  1  0  0  0  0
  9 10  1  0  0  0  0
  9 11  1  0  0  0  0
  9 26  1  0  0  0  0
 11 12  1  0  0  0  0
 11 13  1  0  0  0  0
 11 14  1  0  0  0  0
 14 15  1  0  0  0  0
 14 16  1  0  0  0  0
 14 17  1  0  0  0  0
 17 18  1  0  0  0  0
 17 19  1  0  0  0  0
 17 20  1  0  0  0  0
 20 21  1  0  0  0  0
 20 22  1  0  0  0  0
 20 23  1  0  0  0  0
 23 24  1  0  0  0  0
 23 25  1  0  0  0  0
 26 27  2  0  0  0  0
 26 28  1  0  0  0  0
 28 29  1  0  0  0  0
 28 30  1  0  0  0  0
 30 31  1  0  0  0  0
 30 32  1  0  0  0  0
 30 33  1  0  0  0  0
M  END
$$$$

  -OEChem-03222214063D

 33 32  0     1  0  0  0  0  0999 V2000
   -3.4456   -4.1537    1.8182 H   0  0  0  0  0  0  0  0  0  0  0  0
   -3.5924   -3.1389    1.4379 C   0  0  0  0  0  0  0  0  0  0  0  0
   -4.2131   -2.5841    2.1456 H   0  0  0  0  0  0  0  0  0  0  0  0
   -4.1075   -3.1938    0.4758 H   0  0  0  0  0  0  0  0  0  0  0  0
   -2.2541   -2.4449    1.2689 C   0  0  0  0  0  0  0  0  0  0  0  0
   -1.2205   -3.0459    1.5188 O   0  0  0  0  0  0  0  0  0  0  0  0
   -2.2144   -1.1376    0.8298 N   0  0  0  0  0  0  0  0  0  0  0  0
   -3.1055   -0.6559    0.7196 H   0  0  0  0  0  0  0  0  0  0  0  0
   -1.0046   -0.3071    0.7435 C   0  0  1  0  0  0  0  0  0  0  0  0
   -0.3158   -0.7485    1.4714 H   0  0  0  0  0  0  0  0  0  0  0  0
   -0.2677   -0.4775   -0.6104 C   0  0  0  0  0  0  0  0  0  0  0  0
    0.7976   -0.6128   -0.3973 H   0  0  0  0  0  0  0  0  0  0  0  0
   -0.6140   -1.4104   -1.0674 H   0  0  0  0  0  0  0  0  0  0  0  0
   -0.3781    0.6352   -1.6738 C   0  0  0  0  0  0  0  0  0  0  0  0
    0.2621    1.4571   -1.3359 H   0  0  0  0  0  0  0  0  0  0  0  0
    0.0386    0.2750   -2.6202 H   0  0  0  0  0  0  0  0  0  0  0  0
   -1.7922    1.1968   -1.9259 C   0  0  0  0  0  0  0  0  0  0  0  0
   -2.4762    0.9821   -1.1058 H   0  0  0  0  0  0  0  0  0  0  0  0
   -2.2028    0.6899   -2.8048 H   0  0  0  0  0  0  0  0  0  0  0  0
   -1.7675    2.7021   -2.1807 C   0  0  0  0  0  0  0  0  0  0  0  0
   -1.5109    3.2303   -1.2553 H   0  0  0  0  0  0  0  0  0  0  0  0
   -1.0097    2.9444   -2.9339 H   0  0  0  0  0  0  0  0  0  0  0  0
   -3.0899    3.1252   -2.6532 N   0  0  0  0  0  0  0  0  0  0  0  0
   -3.1294    4.1352   -2.7880 H   0  0  0  0  0  0  0  0  0  0  0  0
   -3.3528    2.6305   -3.5047 H   0  0  0  0  0  0  0  0  0  0  0  0
   -1.1663    1.1313    1.2880 C   0  0  0  0  0  0  0  0  0  0  0  0
   -2.2512    1.6978    1.2464 O   0  0  0  0  0  0  0  0  0  0  0  0
   -0.1860    1.6684    2.1045 N   0  0  0  0  0  0  0  0  0  0  0  0
    0.6551    1.1179    2.2511 H   0  0  0  0  0  0  0  0  0  0  0  0
   -0.3516    2.9123    2.8479 C   0  0  0  0  0  0  0  0  0  0  0  0
   -1.1615    2.8172    3.5787 H   0  0  0  0  0  0  0  0  0  0  0  0
    0.5704    3.1592    3.3829 H   0  0  0  0  0  0  0  0  0  0  0  0
   -0.5864    3.7371    2.1670 H   0  0  0  0  0  0  0  0  0  0  0  0
  1  2  1  0  0  0  0
  2  3  1  0  0  0  0
  2  4  1  0  0  0  0
  2  5  1  0  0  0  0
  5  6  2  0  0  0  0
  5  7  1  0  0  0  0
  7  8  1  0  0  0  0
  7  9  1  0  0  0  0
  9 10  1  0  0  0  0
  9 11  1  0  0  0  0
  9 26  1  0  0  0  0
 11 12  1  0  0  0  0
 11 13  1  0  0  0  0
 11 14  1  0  0  0  0
 14 15  1  0  0  0  0
 14 16  1  0  0  0  0
 14 17  1  0  0  0  0
 17 18  1  0  0  0  0
 17 19  1  0  0  0  0
 17 20  1  0  0  0  0
 20 21  1  0  0  0  0
 20 22  1  0  0  0  0
 20 23  1  0  0  0  0
 23 24  1  0  0  0  0
 23 25  1  0  0  0  0
 26 27  2  0  0  0  0
 26 28  1  0  0  0  0
 28 29  1  0  0  0  0
 28 30  1  0  0  0  0
 30 31  1  0  0  0  0
 30 32  1  0  0  0  0
 30 33  1  0  0  0  0
M  END
$$$$

  -OEChem-03222214063D

 33 32  0     1  0  0  0  0  0999 V2000
   -3.4032   -4.2583    1.6531 H   0  0  0  0  0  0  0  0  0  0  0  0
   -3.5717   -3.2443    1.2800 C   0  0  0  0  0  0  0  0  0  0  0  0
   -4.2432   -2.7235    1.9670 H   0  0  0  0  0  0  0  0  0  0  0  0
   -4.0427   -3.3041    0.2960 H   0  0  0  0  0  0  0  0  0  0  0  0
   -2.2544   -2.4986    1.1783 C   0  0  0  0  0  0  0  0  0  0  0  0
   -1.2112   -3.0613    1.4737 O   0  0  0  0  0  0  0  0  0  0  0  0
   -2.2435   -1.1866    0.7515 N   0  0  0  0  0  0  0  0  0  0  0  0
   -3.1465   -0.7353    0.6113 H   0  0  0  0  0  0  0  0  0  0  0  0
   -1.0661   -0.3058    0.7486 C   0  0  1  0  0  0  0  0  0  0  0  0
   -0.4115   -0.7201    1.5225 H   0  0  0  0  0  0  0  0  0  0  0  0
   -0.2285   -0.4493   -0.5500 C   0  0  0  0  0  0  0  0  0  0  0  0
    0.8195   -0.5603   -0.2529 H   0  0  0  0  0  0  0  0  0  0  0  0
   -0.5148   -1.3998   -1.0126 H   0  0  0  0  0  0  0  0  0  0  0  0
   -0.2608    0.6211   -1.6684 C   0  0  0  0  0  0  0  0  0  0  0  0
    0.5506    1.3258   -1.4589 H   0  0  0  0  0  0  0  0  0  0  0  0
   -0.0065    0.1287   -2.6130 H   0  0  0  0  0  0  0  0  0  0  0  0
   -1.5555    1.4324   -1.8772 C   0  0  0  0  0  0  0  0  0  0  0  0
   -2.3680    1.0571   -1.2523 H   0  0  0  0  0  0  0  0  0  0  0  0
   -1.8759    1.2804   -2.9128 H   0  0  0  0  0  0  0  0  0  0  0  0
   -1.3616    2.9349   -1.6609 C   0  0  0  0  0  0  0  0  0  0  0  0
   -1.1602    3.1480   -0.6063 H   0  0  0  0  0  0  0  0  0  0  0  0
   -0.5069    3.2907   -2.2465 H   0  0  0  0  0  0  0  0  0  0  0  0
   -2.5773    3.6312   -2.0941 N   0  0  0  0  0  0  0  0  0  0  0  0
   -2.5105    4.6349   -1.9286 H   0  0  0  0  0  0  0  0  0  0  0  0
   -2.7895    3.4321   -3.0709 H   0  0  0  0  0  0  0  0  0  0  0  0
   -1.3450    1.1105    1.2951 C   0  0  0  0  0  0  0  0  0  0  0  0
   -2.4714    1.5859    1.2201 O   0  0  0  0  0  0  0  0  0  0  0  0
   -0.4556    1.6915    2.1822 N   0  0  0  0  0  0  0  0  0  0  0  0
    0.4128    1.1976    2.3664 H   0  0  0  0  0  0  0  0  0  0  0  0
   -0.7583    2.8927    2.9517 C   0  0  0  0  0  0  0  0  0  0  0  0
   -1.5891    2.7066    3.6403 H   0  0  0  0  0  0  0  0  0  0  0  0
    0.1149    3.1983    3.5360 H   0  0  0  0  0  0  0  0  0  0  0  0
   -1.0317    3.7167    2.2842 H   0  0  0  0  0  0  0  0  0  0  0  0
  1  2  1  0  0  0  0
  2  3  1  0  0  0  0
  2  4  1  0  0  0  0
  2  5  1  0  0  0  0
  5  6  2  0  0  0  0
  5  7  1  0  0  0  0
  7  8  1  0  0  0  0
  7  9  1  0  0  0  0
  9 10  1  0  0  0  0
  9 11  1  0  0  0  0
  9 26  1  0  0  0  0
 11 12  1  0  0  0  0
 11 13  1  0  0  0  0
 11 14  1  0  0  0  0
 14 15  1  0  0  0  0
 14 16  1  0  0  0  0
 14 17  1  0  0  0  0
 17 18  1  0  0  0  0
 17 19  1  0  0  0  0
 17 20  1  0  0  0  0
 20 21  1  0  0  0  0
 20 22  1  0  0  0  0
 20 23  1  0  0  0  0
 23 24  1  0  0  0  0
 23 25  1  0  0  0  0
 26 27  2  0  0  0  0
 26 28  1  0  0  0  0
 28 29  1  0  0  0  0
 28 30  1  0  0  0  0
 30 31  1  0  0  0  0
 30 32  1  0  0  0  0
 30 33  1  0  0  0  0
M  END
$$$$

  -OEChem-03222214063D

 33 32  0     1  0  0  0  0  0999 V2000
   -3.5787   -4.1569    1.4414 H   0  0  0  0  0  0  0  0  0  0  0  0
   -3.6848   -3.0955    1.2003 C   0  0  0  0  0  0  0  0  0  0  0  0
   -4.2519   -2.6084    1.9973 H   0  0  0  0  0  0  0  0  0  0  0  0
   -4.2341   -3.0003    0.2606 H   0  0  0  0  0  0  0  0  0  0  0  0
   -2.3184   -2.4497    1.0688 C   0  0  0  0  0  0  0  0  0  0  0  0
   -1.3099   -3.1308    1.1727 O   0  0  0  0  0  0  0  0  0  0  0  0
   -2.2232   -1.0940    0.8312 N   0  0  0  0  0  0  0  0  0  0  0  0
   -3.0871   -0.5547    0.8689 H   0  0  0  0  0  0  0  0  0  0  0  0
   -0.9727   -0.3203    0.8544 C   0  0  1  0  0  0  0  0  0  0  0  0
   -0.2858   -0.8882    1.4907 H   0  0  0  0  0  0  0  0  0  0  0  0
   -0.2914   -0.3252   -0.5447 C   0  0  0  0  0  0  0  0  0  0  0  0
    0.7638   -0.5655   -0.3784 H   0  0  0  0  0  0  0  0  0  0  0  0
   -0.7045   -1.1726   -1.1026 H   0  0  0  0  0  0  0  0  0  0  0  0
   -0.3087    0.8948   -1.5033 C   0  0  0  0  0  0  0  0  0  0  0  0
    0.6936    1.3363   -1.5067 H   0  0  0  0  0  0  0  0  0  0  0  0
   -0.4880    0.5071   -2.5120 H   0  0  0  0  0  0  0  0  0  0  0  0
   -1.3021    2.0316   -1.2377 C   0  0  0  0  0  0  0  0  0  0  0  0
   -2.2862    1.6182   -0.9961 H   0  0  0  0  0  0  0  0  0  0  0  0
   -0.9550    2.6405   -0.3984 H   0  0  0  0  0  0  0  0  0  0  0  0
   -1.4322    2.9336   -2.4619 C   0  0  0  0  0  0  0  0  0  0  0  0
   -0.4461    3.2946   -2.7747 H   0  0  0  0  0  0  0  0  0  0  0  0
   -1.8693    2.3710   -3.2941 H   0  0  0  0  0  0  0  0  0  0  0  0
   -2.2892    4.0695   -2.1129 N   0  0  0  0  0  0  0  0  0  0  0  0
   -2.5010    4.6418   -2.9297 H   0  0  0  0  0  0  0  0  0  0  0  0
   -3.1441    3.7549   -1.6525 H   0  0  0  0  0  0  0  0  0  0  0  0
   -1.1295    1.0071    1.6264 C   0  0  0  0  0  0  0  0  0  0  0  0
   -2.2272    1.5539    1.6765 O   0  0  0  0  0  0  0  0  0  0  0  0
   -0.1590    1.4031    2.5295 N   0  0  0  0  0  0  0  0  0  0  0  0
    0.7075    0.8734    2.5526 H   0  0  0  0  0  0  0  0  0  0  0  0
   -0.3169    2.5370    3.4326 C   0  0  0  0  0  0  0  0  0  0  0  0
   -1.1499    2.3652    4.1222 H   0  0  0  0  0  0  0  0  0  0  0  0
    0.5944    2.6813    4.0207 H   0  0  0  0  0  0  0  0  0  0  0  0
   -0.5113    3.4536    2.8656 H   0  0  0  0  0  0  0  0  0  0  0  0
  1  2  1  0  0  0  0
  2  3  1  0  0  0  0
  2  4  1  0  0  0  0
  2  5  1  0  0  0  0
  5  6  2  0  0  0  0
  5  7  1  0  0  0  0
  7  8  1  0  0  0  0
  7  9  1  0  0  0  0
  9 10  1  0  0  0  0
  9 11  1  0  0  0  0
  9 26  1  0  0  0  0
 11 12  1  0  0  0  0
 11 13  1  0  0  0  0
 11 14  1  0  0  0  0
 14 15  1  0  0  0  0
 14 16  1  0  0  0  0
 14 17  1  0  0  0  0
 17 18  1  0  0  0  0
 17 19  1  0  0  0  0
 17 20  1  0  0  0  0
 20 21  1  0  0  0  0
 20 22  1  0  0  0  0
 20 23  1  0  0  0  0
 23 24  1  0  0  0  0
 23 25  1  0  0  0  0
 26 27  2  0  0  0  0
 26 28  1  0  0  0  0
 28 29  1  0  0  0  0
 28 30  1  0  0  0  0
 30 31  1  0  0  0  0
 30 32  1  0  0  0  0
 30 33  1  0  0  0  0
M  END
$$$$

  -OEChem-03222214063D

 33 32  0     1  0  0  0  0  0999 V2000
   -4.0636   -3.5639    1.2305 H   0  0  0  0  0  0  0  0  0  0  0  0
   -4.0083   -2.4869    1.0482 C   0  0  0  0  0  0  0  0  0  0  0  0
   -4.5122   -1.9648    1.8652 H   0  0  0  0  0  0  0  0  0  0  0  0
   -4.5213   -2.2622    0.1099 H   0  0  0  0  0  0  0  0  0  0  0  0
   -2.5593   -2.0443    0.9667 C   0  0  0  0  0  0  0  0  0  0  0  0
   -1.6635   -2.8527    1.1550 O   0  0  0  0  0  0  0  0  0  0  0  0
   -2.2624   -0.7272    0.6804 N   0  0  0  0  0  0  0  0  0  0  0  0
   -3.0438   -0.0741    0.6553 H   0  0  0  0  0  0  0  0  0  0  0  0
   -0.9172   -0.1346    0.7437 C   0  0  1  0  0  0  0  0  0  0  0  0
   -0.3701   -0.7564    1.4604 H   0  0  0  0  0  0  0  0  0  0  0  0
   -0.1398   -0.3507   -0.5911 C   0  0  0  0  0  0  0  0  0  0  0  0
    0.8559   -0.6982   -0.2956 H   0  0  0  0  0  0  0  0  0  0  0  0
   -0.6051   -1.1977   -1.1066 H   0  0  0  0  0  0  0  0  0  0  0  0
    0.1119    0.7474   -1.6667 C   0  0  0  0  0  0  0  0  0  0  0  0
    1.1973    0.8295   -1.7868 H   0  0  0  0  0  0  0  0  0  0  0  0
   -0.2760    0.3741   -2.6208 H   0  0  0  0  0  0  0  0  0  0  0  0
   -0.4123    2.1763   -1.4813 C   0  0  0  0  0  0  0  0  0  0  0  0
    0.0531    2.8206   -2.2340 H   0  0  0  0  0  0  0  0  0  0  0  0
   -0.1089    2.5788   -0.5142 H   0  0  0  0  0  0  0  0  0  0  0  0
   -1.9266    2.2496   -1.6827 C   0  0  0  0  0  0  0  0  0  0  0  0
   -2.1623    2.2020   -2.7515 H   0  0  0  0  0  0  0  0  0  0  0  0
   -2.4241    1.4067   -1.1935 H   0  0  0  0  0  0  0  0  0  0  0  0
   -2.4094    3.5048   -1.1062 N   0  0  0  0  0  0  0  0  0  0  0  0
   -3.4030    3.6328   -1.2907 H   0  0  0  0  0  0  0  0  0  0  0  0
   -2.2366    3.5017   -0.0945 H   0  0  0  0  0  0  0  0  0  0  0  0
   -0.9074    1.2385    1.4494 C   0  0  0  0  0  0  0  0  0  0  0  0
   -1.9038    1.9548    1.4155 O   0  0  0  0  0  0  0  0  0  0  0  0
    0.0704    1.5286    2.3841 N   0  0  0  0  0  0  0  0  0  0  0  0
    0.8396    0.8717    2.4798 H   0  0  0  0  0  0  0  0  0  0  0  0
    0.0510    2.7175    3.2283 C   0  0  0  0  0  0  0  0  0  0  0  0
   -0.8095    2.6926    3.9051 H   0  0  0  0  0  0  0  0  0  0  0  0
    0.9634    2.7685    3.8302 H   0  0  0  0  0  0  0  0  0  0  0  0
   -0.0079    3.6232    2.6150 H   0  0  0  0  0  0  0  0  0  0  0  0
  1  2  1  0  0  0  0
  2  3  1  0  0  0  0
  2  4  1  0  0  0  0
  2  5  1  0  0  0  0
  5  6  2  0  0  0  0
  5  7  1  0  0  0  0
  7  8  1  0  0  0  0
  7  9  1  0  0  0  0
  9 10  1  0  0  0  0
  9 11  1  0  0  0  0
  9 26  1  0  0  0  0
 11 12  1  0  0  0  0
 11 13  1  0  0  0  0
 11 14  1  0  0  0  0
 14 15  1  0  0  0  0
 14 16  1  0  0  0  0
 14 17  1  0  0  0  0
 17 18  1  0  0  0  0
 17 19  1  0  0  0  0
 17 20  1  0  0  0  0
 20 21  1  0  0  0  0
 20 22  1  0  0  0  0
 20 23  1  0  0  0  0
 23 24  1  0  0  0  0
 23 25  1  0  0  0  0
 26 27  2  0  0  0  0
 26 28  1  0  0  0  0
 28 29  1  0  0  0  0
 28 30  1  0  0  0  0
 30 31  1  0  0  0  0
 30 32  1  0  0  0  0
 30 33  1  0  0  0  0
M  END
$$$$

  -OEChem-03222214063D

 33 32  0     1  0  0  0  0  0999 V2000
   -4.0227   -3.6010    1.3510 H   0  0  0  0  0  0  0  0  0  0  0  0
   -3.9710   -2.5538    1.0402 C   0  0  0  0  0  0  0  0  0  0  0  0
   -4.5579   -1.9507    1.7372 H   0  0  0  0  0  0  0  0  0  0  0  0
   -4.3992   -2.4615    0.0392 H   0  0  0  0  0  0  0  0  0  0  0  0
   -2.5296   -2.0810    1.0323 C   0  0  0  0  0  0  0  0  0  0  0  0
   -1.6313   -2.8590    1.3132 O   0  0  0  0  0  0  0  0  0  0  0  0
   -2.2427   -0.7712    0.7056 N   0  0  0  0  0  0  0  0  0  0  0  0
   -3.0338   -0.1389    0.5953 H   0  0  0  0  0  0  0  0  0  0  0  0
   -0.9150   -0.1469    0.8124 C   0  0  1  0  0  0  0  0  0  0  0  0
   -0.3928   -0.7255    1.5820 H   0  0  0  0  0  0  0  0  0  0  0  0
   -0.0760   -0.4116   -0.4759 C   0  0  0  0  0  0  0  0  0  0  0  0
    0.9144   -0.6946   -0.1043 H   0  0  0  0  0  0  0  0  0  0  0  0
   -0.4760   -1.3076   -0.9626 H   0  0  0  0  0  0  0  0  0  0  0  0
    0.2106    0.6304   -1.5958 C   0  0  0  0  0  0  0  0  0  0  0  0
    1.2647    0.5158   -1.8700 H   0  0  0  0  0  0  0  0  0  0  0  0
   -0.3676    0.3338   -2.4776 H   0  0  0  0  0  0  0  0  0  0  0  0
   -0.0322    2.1282   -1.3694 C   0  0  0  0  0  0  0  0  0  0  0  0
    0.5939    2.6941   -2.0665 H   0  0  0  0  0  0  0  0  0  0  0  0
    0.2846    2.4286   -0.3699 H   0  0  0  0  0  0  0  0  0  0  0  0
   -1.4870    2.5060   -1.6543 C   0  0  0  0  0  0  0  0  0  0  0  0
   -1.6438    2.5782   -2.7361 H   0  0  0  0  0  0  0  0  0  0  0  0
   -2.1687    1.7401   -1.2699 H   0  0  0  0  0  0  0  0  0  0  0  0
   -1.7728    3.7888   -1.0113 N   0  0  0  0  0  0  0  0  0  0  0  0
   -2.6884    4.1375   -1.2904 H   0  0  0  0  0  0  0  0  0  0  0  0
   -1.7400    3.6704    0.0070 H   0  0  0  0  0  0  0  0  0  0  0  0
   -0.9727    1.2539    1.4581 C   0  0  0  0  0  0  0  0  0  0  0  0
   -1.9788    1.9465    1.3401 O   0  0  0  0  0  0  0  0  0  0  0  0
   -0.0522    1.6054    2.4294 N   0  0  0  0  0  0  0  0  0  0  0  0
    0.7336    0.9794    2.5812 H   0  0  0  0  0  0  0  0  0  0  0  0
   -0.1291    2.8378    3.2048 C   0  0  0  0  0  0  0  0  0  0  0  0
   -1.0493    2.8614    3.7980 H   0  0  0  0  0  0  0  0  0  0  0  0
    0.7232    2.9086    3.8876 H   0  0  0  0  0  0  0  0  0  0  0  0
   -0.1135    3.7094    2.5417 H   0  0  0  0  0  0  0  0  0  0  0  0
  1  2  1  0  0  0  0
  2  3  1  0  0  0  0
  2  4  1  0  0  0  0
  2  5  1  0  0  0  0
  5  6  2  0  0  0  0
  5  7  1  0  0  0  0
  7  8  1  0  0  0  0
  7  9  1  0  0  0  0
  9 10  1  0  0  0  0
  9 11  1  0  0  0  0
  9 26  1  0  0  0  0
 11 12  1  0  0  0  0
 11 13  1  0  0  0  0
 11 14  1  0  0  0  0
 14 15  1  0  0  0  0
 14 16  1  0  0  0  0
 14 17  1  0  0  0  0
 17 18  1  0  0  0  0
 17 19  1  0  0  0  0
 17 20  1  0  0  0  0
 20 21  1  0  0  0  0
 20 22  1  0  0  0  0
 20 23  1  0  0  0  0
 23 24  1  0  0  0  0
 23 25  1  0  0  0  0
 26 27  2  0  0  0  0
 26 28  1  0  0  0  0
 28 29  1  0  0  0  0
 28 30  1  0  0  0  0
 30 31  1  0  0  0  0
 30 32  1  0  0  0  0
 30 33  1  0  0  0  0
M  END
$$$$

  -OEChem-03222214063D

 33 32  0     1  0  0  0  0  0999 V2000
   -4.0080   -3.6895    1.1247 H   0  0  0  0  0  0  0  0  0  0  0  0
   -3.9409   -2.6476    0.7993 C   0  0  0  0  0  0  0  0  0  0  0  0
   -4.5977   -2.0398    1.4264 H   0  0  0  0  0  0  0  0  0  0  0  0
   -4.2747   -2.5804   -0.2389 H   0  0  0  0  0  0  0  0  0  0  0  0
   -2.5113   -2.1540    0.9163 C   0  0  0  0  0  0  0  0  0  0  0  0
   -1.6340   -2.9109    1.3017 O   0  0  0  0  0  0  0  0  0  0  0  0
   -2.2112   -0.8480    0.5875 N   0  0  0  0  0  0  0  0  0  0  0  0
   -2.9951   -0.2298    0.3840 H   0  0  0  0  0  0  0  0  0  0  0  0
   -0.9081   -0.2025    0.8060 C   0  0  1  0  0  0  0  0  0  0  0  0
   -0.4325   -0.7578    1.6214 H   0  0  0  0  0  0  0  0  0  0  0  0
    0.0185   -0.4523   -0.4235 C   0  0  0  0  0  0  0  0  0  0  0  0
    0.9862   -0.7181    0.0146 H   0  0  0  0  0  0  0  0  0  0  0  0
   -0.3310   -1.3514   -0.9424 H   0  0  0  0  0  0  0  0  0  0  0  0
    0.3630    0.6036   -1.5099 C   0  0  0  0  0  0  0  0  0  0  0  0
    1.3459    0.3334   -1.9104 H   0  0  0  0  0  0  0  0  0  0  0  0
   -0.3474    0.4743   -2.3334 H   0  0  0  0  0  0  0  0  0  0  0  0
    0.4089    2.0981   -1.1549 C   0  0  0  0  0  0  0  0  0  0  0  0
    1.2165    2.5692   -1.7242 H   0  0  0  0  0  0  0  0  0  0  0  0
    0.6650    2.2382   -0.1041 H   0  0  0  0  0  0  0  0  0  0  0  0
   -0.8899    2.8149   -1.5345 C   0  0  0  0  0  0  0  0  0  0  0  0
   -0.8638    3.0834   -2.5962 H   0  0  0  0  0  0  0  0  0  0  0  0
   -1.7545    2.1605   -1.3804 H   0  0  0  0  0  0  0  0  0  0  0  0
   -1.0305    4.0144   -0.7075 N   0  0  0  0  0  0  0  0  0  0  0  0
   -1.7925    4.5988   -1.0486 H   0  0  0  0  0  0  0  0  0  0  0  0
   -1.2141    3.7353    0.2612 H   0  0  0  0  0  0  0  0  0  0  0  0
   -1.0736    1.2077    1.4097 C   0  0  0  0  0  0  0  0  0  0  0  0
   -2.0749    1.8722    1.1616 O   0  0  0  0  0  0  0  0  0  0  0  0
   -0.2701    1.6075    2.4625 N   0  0  0  0  0  0  0  0  0  0  0  0
    0.5149    1.0104    2.7067 H   0  0  0  0  0  0  0  0  0  0  0  0
   -0.4519    2.8595    3.1874 C   0  0  0  0  0  0  0  0  0  0  0  0
   -1.4406    2.8910    3.6572 H   0  0  0  0  0  0  0  0  0  0  0  0
    0.3052    2.9550    3.9717 H   0  0  0  0  0  0  0  0  0  0  0  0
   -0.3552    3.7133    2.5085 H   0  0  0  0  0  0  0  0  0  0  0  0
  1  2  1  0  0  0  0
  2  3  1  0  0  0  0
  2  4  1  0  0  0  0
  2  5  1  0  0  0  0
  5  6  2  0  0  0  0
  5  7  1  0  0  0  0
  7  8  1  0  0  0  0
  7  9  1  0  0  0  0
  9 10  1  0  0  0  0
  9 11  1  0  0  0  0
  9 26  1  0  0  0  0
 11 12  1  0  0  0  0
 11 13  1  0  0  0  0
 11 14  1  0  0  0  0
 14 15  1  0  0  0  0
 14 16  1  0  0  0  0
 14 17  1  0  0  0  0
 17 18  1  0  0  0  0
 17 19  1  0  0  0  0
 17 20  1  0  0  0  0
 20 21  1  0  0  0  0
 20 22  1  0  0  0  0
 20 23  1  0  0  0  0
 23 24  1  0  0  0  0
 23 25  1  0  0  0  0
 26 27  2  0  0  0  0
 26 28  1  0  0  0  0
 28 29  1  0  0  0  0
 28 30  1  0  0  0  0
 30 31  1  0  0  0  0
 30 32  1  0  0  0  0
 30 33  1  0  0  0  0
M  END
$$$$

  -OEChem-03222214063D

 33 32  0     1  0  0  0  0  0999 V2000
   -3.4653   -4.2515    1.4958 H   0  0  0  0  0  0  0  0  0  0  0  0
   -3.5923   -3.2033    1.2115 C   0  0  0  0  0  0  0  0  0  0  0  0
   -4.1950   -2.7028    1.9731 H   0  0  0  0  0  0  0  0  0  0  0  0
   -4.1166   -3.1586    0.2541 H   0  0  0  0  0  0  0  0  0  0  0  0
   -2.2402   -2.5256    1.0931 C   0  0  0  0  0  0  0  0  0  0  0  0
   -1.2170   -3.1757    1.2396 O   0  0  0  0  0  0  0  0  0  0  0  0
   -2.1745   -1.1756    0.8178 N   0  0  0  0  0  0  0  0  0  0  0  0
   -3.0518   -0.6567    0.8155 H   0  0  0  0  0  0  0  0  0  0  0  0
   -0.9420   -0.3732    0.8318 C   0  0  1  0  0  0  0  0  0  0  0  0
   -0.2066   -0.9015    1.4479 H   0  0  0  0  0  0  0  0  0  0  0  0
   -0.3541   -0.3338   -0.6092 C   0  0  0  0  0  0  0  0  0  0  0  0
    0.7185   -0.5187   -0.4913 H   0  0  0  0  0  0  0  0  0  0  0  0
   -0.7477   -1.1865   -1.1728 H   0  0  0  0  0  0  0  0  0  0  0  0
   -0.4564    0.9151   -1.5192 C   0  0  0  0  0  0  0  0  0  0  0  0
    0.2134    0.7464   -2.3690 H   0  0  0  0  0  0  0  0  0  0  0  0
   -1.4757    0.9637   -1.9161 H   0  0  0  0  0  0  0  0  0  0  0  0
   -0.1335    2.2844   -0.8989 C   0  0  0  0  0  0  0  0  0  0  0  0
   -0.9962    2.6659   -0.3489 H   0  0  0  0  0  0  0  0  0  0  0  0
    0.7122    2.1895   -0.2103 H   0  0  0  0  0  0  0  0  0  0  0  0
    0.2202    3.3036   -1.9779 C   0  0  0  0  0  0  0  0  0  0  0  0
    1.0933    2.9660   -2.5473 H   0  0  0  0  0  0  0  0  0  0  0  0
   -0.6182    3.4182   -2.6741 H   0  0  0  0  0  0  0  0  0  0  0  0
    0.5146    4.5821   -1.3240 N   0  0  0  0  0  0  0  0  0  0  0  0
    0.7389    5.3039   -2.0087 H   0  0  0  0  0  0  0  0  0  0  0  0
   -0.2630    4.8735   -0.7306 H   0  0  0  0  0  0  0  0  0  0  0  0
   -1.2009    0.9530    1.5749 C   0  0  0  0  0  0  0  0  0  0  0  0
   -2.3036    1.4880    1.4990 O   0  0  0  0  0  0  0  0  0  0  0  0
   -0.2895    1.4265    2.5014 N   0  0  0  0  0  0  0  0  0  0  0  0
    0.6067    0.9518    2.5635 H   0  0  0  0  0  0  0  0  0  0  0  0
   -0.4989    2.6400    3.2816 C   0  0  0  0  0  0  0  0  0  0  0  0
   -1.3999    2.5496    3.8975 H   0  0  0  0  0  0  0  0  0  0  0  0
    0.3545    2.8159    3.9435 H   0  0  0  0  0  0  0  0  0  0  0  0
   -0.6084    3.5057    2.6199 H   0  0  0  0  0  0  0  0  0  0  0  0
  1  2  1  0  0  0  0
  2  3  1  0  0  0  0
  2  4  1  0  0  0  0
  2  5  1  0  0  0  0
  5  6  2  0  0  0  0
  5  7  1  0  0  0  0
  7  8  1  0  0  0  0
  7  9  1  0  0  0  0
  9 10  1  0  0  0  0
  9 11  1  0  0  0  0
  9 26  1  0  0  0  0
 11 12  1  0  0  0  0
 11 13  1  0  0  0  0
 11 14  1  0  0  0  0
 14 15  1  0  0  0  0
 14 16  1  0  0  0  0
 14 17  1  0  0  0  0
 17 18  1  0  0  0  0
 17 19  1  0  0  0  0
 17 20  1  0  0  0  0
 20 21  1  0  0  0  0
 20 22  1  0  0  0  0
 20 23  1  0  0  0  0
 23 24  1  0  0  0  0
 23 25  1  0  0  0  0
 26 27  2  0  0  0  0
 26 28  1  0  0  0  0
 28 29  1  0  0  0  0
 28 30  1  0  0  0  0
 30 31  1  0  0  0  0
 30 32  1  0  0  0  0
 30 33  1  0  0  0  0
M  END
$$$$

  -OEChem-03222214063D

 33 32  0     1  0  0  0  0  0999 V2000
   -3.4995   -4.2202    1.4673 H   0  0  0  0  0  0  0  0  0  0  0  0
   -3.6108   -3.1649    1.2033 C   0  0  0  0  0  0  0  0  0  0  0  0
   -4.2083   -2.6705    1.9730 H   0  0  0  0  0  0  0  0  0  0  0  0
   -4.1318   -3.0942    0.2456 H   0  0  0  0  0  0  0  0  0  0  0  0
   -2.2492   -2.5040    1.1013 C   0  0  0  0  0  0  0  0  0  0  0  0
   -1.2370   -3.1566    1.3033 O   0  0  0  0  0  0  0  0  0  0  0  0
   -2.1629   -1.1641    0.7855 N   0  0  0  0  0  0  0  0  0  0  0  0
   -3.0348   -0.6392    0.7305 H   0  0  0  0  0  0  0  0  0  0  0  0
   -0.9219   -0.3752    0.8045 C   0  0  1  0  0  0  0  0  0  0  0  0
   -0.1941   -0.8941    1.4367 H   0  0  0  0  0  0  0  0  0  0  0  0
   -0.3289   -0.3455   -0.6316 C   0  0  0  0  0  0  0  0  0  0  0  0
    0.7401   -0.5610   -0.5340 H   0  0  0  0  0  0  0  0  0  0  0  0
   -0.7563   -1.1761   -1.2034 H   0  0  0  0  0  0  0  0  0  0  0  0
   -0.4408    0.9275   -1.5008 C   0  0  0  0  0  0  0  0  0  0  0  0
    0.0193    0.6956   -2.4670 H   0  0  0  0  0  0  0  0  0  0  0  0
   -1.4987    1.1406   -1.6871 H   0  0  0  0  0  0  0  0  0  0  0  0
    0.2240    2.1944   -0.9301 C   0  0  0  0  0  0  0  0  0  0  0  0
   -0.4401    2.6955   -0.2233 H   0  0  0  0  0  0  0  0  0  0  0  0
    1.1472    1.9243   -0.4073 H   0  0  0  0  0  0  0  0  0  0  0  0
    0.5547    3.1844   -2.0426 C   0  0  0  0  0  0  0  0  0  0  0  0
    1.2471    2.7303   -2.7601 H   0  0  0  0  0  0  0  0  0  0  0  0
   -0.3591    3.4635   -2.5790 H   0  0  0  0  0  0  0  0  0  0  0  0
    1.1699    4.3695   -1.4377 N   0  0  0  0  0  0  0  0  0  0  0  0
    1.4055    5.0645   -2.1459 H   0  0  0  0  0  0  0  0  0  0  0  0
    0.5604    4.7704   -0.7244 H   0  0  0  0  0  0  0  0  0  0  0  0
   -1.1875    0.9740    1.5000 C   0  0  0  0  0  0  0  0  0  0  0  0
   -2.2618    1.5455    1.3374 O   0  0  0  0  0  0  0  0  0  0  0  0
   -0.2953    1.4663    2.4349 N   0  0  0  0  0  0  0  0  0  0  0  0
    0.5762    0.9606    2.5652 H   0  0  0  0  0  0  0  0  0  0  0  0
   -0.5135    2.6993    3.1803 C   0  0  0  0  0  0  0  0  0  0  0  0
   -1.3989    2.6091    3.8182 H   0  0  0  0  0  0  0  0  0  0  0  0
    0.3508    2.9138    3.8161 H   0  0  0  0  0  0  0  0  0  0  0  0
   -0.6557    3.5419    2.4953 H   0  0  0  0  0  0  0  0  0  0  0  0
  1  2  1  0  0  0  0
  2  3  1  0  0  0  0
  2  4  1  0  0  0  0
  2  5  1  0  0  0  0
  5  6  2  0  0  0  0
  5  7  1  0  0  0  0
  7  8  1  0  0  0  0
  7  9  1  0  0  0  0
  9 10  1  0  0  0  0
  9 11  1  0  0  0  0
  9 26  1  0  0  0  0
 11 12  1  0  0  0  0
 11 13  1  0  0  0  0
 11 14  1  0  0  0  0
 14 15  1  0  0  0  0
 14 16  1  0  0  0  0
 14 17  1  0  0  0  0
 17 18  1  0  0  0  0
 17 19  1  0  0  0  0
 17 20  1  0  0  0  0
 20 21  1  0  0  0  0
 20 22  1  0  0  0  0
 20 23  1  0  0  0  0
 23 24  1  0  0  0  0
 23 25  1  0  0  0  0
 26 27  2  0  0  0  0
 26 28  1  0  0  0  0
 28 29  1  0  0  0  0
 28 30  1  0  0  0  0
 30 31  1  0  0  0  0
 30 32  1  0  0  0  0
 30 33  1  0  0  0  0
M  END
$$$$

  -OEChem-03222214063D

 33 32  0     1  0  0  0  0  0999 V2000
   -3.5976   -4.1276    1.4581 H   0  0  0  0  0  0  0  0  0  0  0  0
   -3.6645   -3.0793    1.1537 C   0  0  0  0  0  0  0  0  0  0  0  0
   -4.3003   -2.5459    1.8645 H   0  0  0  0  0  0  0  0  0  0  0  0
   -4.1179   -3.0292    0.1608 H   0  0  0  0  0  0  0  0  0  0  0  0
   -2.2828   -2.4535    1.1250 C   0  0  0  0  0  0  0  0  0  0  0  0
   -1.3070   -3.1135    1.4465 O   0  0  0  0  0  0  0  0  0  0  0  0
   -2.1374   -1.1364    0.7423 N   0  0  0  0  0  0  0  0  0  0  0  0
   -2.9876   -0.5987    0.5798 H   0  0  0  0  0  0  0  0  0  0  0  0
   -0.8782   -0.3785    0.7963 C   0  0  1  0  0  0  0  0  0  0  0  0
   -0.1959   -0.8807    1.4902 H   0  0  0  0  0  0  0  0  0  0  0  0
   -0.2201   -0.4287   -0.6101 C   0  0  0  0  0  0  0  0  0  0  0  0
    0.8361   -0.6827   -0.4743 H   0  0  0  0  0  0  0  0  0  0  0  0
   -0.6626   -1.2566   -1.1743 H   0  0  0  0  0  0  0  0  0  0  0  0
   -0.2844    0.8313   -1.4975 C   0  0  0  0  0  0  0  0  0  0  0  0
   -0.0282    0.5295   -2.5183 H   0  0  0  0  0  0  0  0  0  0  0  0
   -1.3122    1.2088   -1.5191 H   0  0  0  0  0  0  0  0  0  0  0  0
    0.6750    1.9599   -1.0783 C   0  0  0  0  0  0  0  0  0  0  0  0
    0.3944    2.3850   -0.1149 H   0  0  0  0  0  0  0  0  0  0  0  0
    1.6905    1.5611   -0.9874 H   0  0  0  0  0  0  0  0  0  0  0  0
    0.6668    3.0771   -2.1173 C   0  0  0  0  0  0  0  0  0  0  0  0
    0.9709    2.6850   -3.0940 H   0  0  0  0  0  0  0  0  0  0  0  0
   -0.3436    3.4898   -2.2150 H   0  0  0  0  0  0  0  0  0  0  0  0
    1.6006    4.1228   -1.6879 N   0  0  0  0  0  0  0  0  0  0  0  0
    1.6417    4.8811   -2.3691 H   0  0  0  0  0  0  0  0  0  0  0  0
    1.3489    4.4780   -0.7655 H   0  0  0  0  0  0  0  0  0  0  0  0
   -1.1443    1.0165    1.3982 C   0  0  0  0  0  0  0  0  0  0  0  0
   -2.1695    1.6262    1.1099 O   0  0  0  0  0  0  0  0  0  0  0  0
   -0.2960    1.5363    2.3594 N   0  0  0  0  0  0  0  0  0  0  0  0
    0.5209    0.9875    2.6124 H   0  0  0  0  0  0  0  0  0  0  0  0
   -0.5343    2.8026    3.0402 C   0  0  0  0  0  0  0  0  0  0  0  0
   -1.4527    2.7502    3.6340 H   0  0  0  0  0  0  0  0  0  0  0  0
    0.2992    3.0342    3.7103 H   0  0  0  0  0  0  0  0  0  0  0  0
   -0.6292    3.6166    2.3140 H   0  0  0  0  0  0  0  0  0  0  0  0
  1  2  1  0  0  0  0
  2  3  1  0  0  0  0
  2  4  1  0  0  0  0
  2  5  1  0  0  0  0
  5  6  2  0  0  0  0
  5  7  1  0  0  0  0
  7  8  1  0  0  0  0
  7  9  1  0  0  0  0
  9 10  1  0  0  0  0
  9 11  1  0  0  0  0
  9 26  1  0  0  0  0
 11 12  1  0  0  0  0
 11 13  1  0  0  0  0
 11 14  1  0  0  0  0
 14 15  1  0  0  0  0
 14 16  1  0  0  0  0
 14 17  1  0  0  0  0
 17 18  1  0  0  0  0
 17 19  1  0  0  0  0
 17 20  1  0  0  0  0
 20 21  1  0  0  0  0
 20 22  1  0  0  0  0
 20 23  1  0  0  0  0
 23 24  1  0  0  0  0
 23 25  1  0  0  0  0
 26 27  2  0  0  0  0
 26 28  1  0  0  0  0
 28 29  1  0  0  0  0
 28 30  1  0  0  0  0
 30 31  1  0  0  0  0
 30 32  1  0  0  0  0
 30 33  1  0  0  0  0
M  END
$$$$

  -OEChem-03222214063D

 33 32  0     1  0  0  0  0  0999 V2000
   -3.6203   -4.0720    1.5876 H   0  0  0  0  0  0  0  0  0  0  0  0
   -3.6783   -3.0529    1.1952 C   0  0  0  0  0  0  0  0  0  0  0  0
   -4.3295   -2.4621    1.8440 H   0  0  0  0  0  0  0  0  0  0  0  0
   -4.1079   -3.0858    0.1912 H   0  0  0  0  0  0  0  0  0  0  0  0
   -2.2950   -2.4320    1.1457 C   0  0  0  0  0  0  0  0  0  0  0  0
   -1.3231   -3.0786    1.5037 O   0  0  0  0  0  0  0  0  0  0  0  0
   -2.1439   -1.1340    0.7041 N   0  0  0  0  0  0  0  0  0  0  0  0
   -2.9920   -0.6045    0.5081 H   0  0  0  0  0  0  0  0  0  0  0  0
   -0.8844   -0.3762    0.7365 C   0  0  1  0  0  0  0  0  0  0  0  0
   -0.2224   -0.8517    1.4678 H   0  0  0  0  0  0  0  0  0  0  0  0
   -0.1767   -0.4901   -0.6397 C   0  0  0  0  0  0  0  0  0  0  0  0
    0.8755   -0.7418   -0.4712 H   0  0  0  0  0  0  0  0  0  0  0  0
   -0.6099   -1.3352   -1.1854 H   0  0  0  0  0  0  0  0  0  0  0  0
   -0.2454    0.7522   -1.5487 C   0  0  0  0  0  0  0  0  0  0  0  0
   -0.1969    0.4155   -2.5895 H   0  0  0  0  0  0  0  0  0  0  0  0
   -1.2029    1.2681   -1.4294 H   0  0  0  0  0  0  0  0  0  0  0  0
    0.9310    1.7101   -1.3101 C   0  0  0  0  0  0  0  0  0  0  0  0
    0.9741    2.0038   -0.2585 H   0  0  0  0  0  0  0  0  0  0  0  0
    1.8711    1.2054   -1.5564 H   0  0  0  0  0  0  0  0  0  0  0  0
    0.7887    2.9611   -2.1704 C   0  0  0  0  0  0  0  0  0  0  0  0
    0.7544    2.6859   -3.2304 H   0  0  0  0  0  0  0  0  0  0  0  0
   -0.1431    3.4820   -1.9227 H   0  0  0  0  0  0  0  0  0  0  0  0
    1.9385    3.8349   -1.9170 N   0  0  0  0  0  0  0  0  0  0  0  0
    1.8920    4.6784   -2.4885 H   0  0  0  0  0  0  0  0  0  0  0  0
    2.0058    4.0711   -0.9273 H   0  0  0  0  0  0  0  0  0  0  0  0
   -1.1179    1.0551    1.2673 C   0  0  0  0  0  0  0  0  0  0  0  0
   -2.1409    1.6641    0.9712 O   0  0  0  0  0  0  0  0  0  0  0  0
   -0.2574    1.6004    2.2026 N   0  0  0  0  0  0  0  0  0  0  0  0
    0.5478    1.0462    2.4801 H   0  0  0  0  0  0  0  0  0  0  0  0
   -0.4686    2.9007    2.8258 C   0  0  0  0  0  0  0  0  0  0  0  0
   -1.4098    2.9090    3.3854 H   0  0  0  0  0  0  0  0  0  0  0  0
    0.3479    3.1246    3.5190 H   0  0  0  0  0  0  0  0  0  0  0  0
   -0.5028    3.6884    2.0658 H   0  0  0  0  0  0  0  0  0  0  0  0
  1  2  1  0  0  0  0
  2  3  1  0  0  0  0
  2  4  1  0  0  0  0
  2  5  1  0  0  0  0
  5  6  2  0  0  0  0
  5  7  1  0  0  0  0
  7  8  1  0  0  0  0
  7  9  1  0  0  0  0
  9 10  1  0  0  0  0
  9 11  1  0  0  0  0
  9 26  1  0  0  0  0
 11 12  1  0  0  0  0
 11 13  1  0  0  0  0
 11 14  1  0  0  0  0
 14 15  1  0  0  0  0
 14 16  1  0  0  0  0
 14 17  1  0  0  0  0
 17 18  1  0  0  0  0
 17 19  1  0  0  0  0
 17 20  1  0  0  0  0
 20 21  1  0  0  0  0
 20 22  1  0  0  0  0
 20 23  1  0  0  0  0
 23 24  1  0  0  0  0
 23 25  1  0  0  0  0
 26 27  2  0  0  0  0
 26 28  1  0  0  0  0
 28 29  1  0  0  0  0
 28 30  1  0  0  0  0
 30 31  1  0  0  0  0
 30 32  1  0  0  0  0
 30 33  1  0  0  0  0
M  END
$$$$

  -OEChem-03222214063D

 33 32  0     1  0  0  0  0  0999 V2000
   -3.6040   -4.0834    1.6013 H   0  0  0  0  0  0  0  0  0  0  0  0
   -3.6731   -3.0686    1.1998 C   0  0  0  0  0  0  0  0  0  0  0  0
   -4.3262   -2.4782    1.8469 H   0  0  0  0  0  0  0  0  0  0  0  0
   -4.1084   -3.1147    0.1987 H   0  0  0  0  0  0  0  0  0  0  0  0
   -2.2955   -2.4357    1.1371 C   0  0  0  0  0  0  0  0  0  0  0  0
   -1.3140   -3.0777    1.4769 O   0  0  0  0  0  0  0  0  0  0  0  0
   -2.1615   -1.1330    0.7031 N   0  0  0  0  0  0  0  0  0  0  0  0
   -3.0175   -0.6109    0.5228 H   0  0  0  0  0  0  0  0  0  0  0  0
   -0.9102   -0.3613    0.7227 C   0  0  1  0  0  0  0  0  0  0  0  0
   -0.2487   -0.8370    1.4540 H   0  0  0  0  0  0  0  0  0  0  0  0
   -0.1855   -0.4733   -0.6430 C   0  0  0  0  0  0  0  0  0  0  0  0
    0.8669   -0.7104   -0.4556 H   0  0  0  0  0  0  0  0  0  0  0  0
   -0.5969   -1.3308   -1.1862 H   0  0  0  0  0  0  0  0  0  0  0  0
   -0.2657    0.7639   -1.5630 C   0  0  0  0  0  0  0  0  0  0  0  0
   -0.4585    0.4129   -2.5823 H   0  0  0  0  0  0  0  0  0  0  0  0
   -1.1019    1.4172   -1.3025 H   0  0  0  0  0  0  0  0  0  0  0  0
    1.0564    1.5411   -1.5784 C   0  0  0  0  0  0  0  0  0  0  0  0
    1.3109    1.8509   -0.5598 H   0  0  0  0  0  0  0  0  0  0  0  0
    1.8613    0.8977   -1.9491 H   0  0  0  0  0  0  0  0  0  0  0  0
    0.9447    2.7757   -2.4673 C   0  0  0  0  0  0  0  0  0  0  0  0
    0.7012    2.4780   -3.4933 H   0  0  0  0  0  0  0  0  0  0  0  0
    0.1438    3.4293   -2.1032 H   0  0  0  0  0  0  0  0  0  0  0  0
    2.2263    3.4871   -2.4435 N   0  0  0  0  0  0  0  0  0  0  0  0
    2.2016    4.3099   -3.0460 H   0  0  0  0  0  0  0  0  0  0  0  0
    2.4845    3.7429   -1.4907 H   0  0  0  0  0  0  0  0  0  0  0  0
   -1.1224    1.0699    1.2627 C   0  0  0  0  0  0  0  0  0  0  0  0
   -2.1582    1.6760    1.0083 O   0  0  0  0  0  0  0  0  0  0  0  0
   -0.2389    1.6070    2.1811 N   0  0  0  0  0  0  0  0  0  0  0  0
    0.5741    1.0517    2.4331 H   0  0  0  0  0  0  0  0  0  0  0  0
   -0.4347    2.9028    2.8192 C   0  0  0  0  0  0  0  0  0  0  0  0
   -1.3717    2.9131    3.3862 H   0  0  0  0  0  0  0  0  0  0  0  0
    0.3886    3.1134    3.5087 H   0  0  0  0  0  0  0  0  0  0  0  0
   -0.4686    3.6983    2.0673 H   0  0  0  0  0  0  0  0  0  0  0  0
  1  2  1  0  0  0  0
  2  3  1  0  0  0  0
  2  4  1  0  0  0  0
  2  5  1  0  0  0  0
  5  6  2  0  0  0  0
  5  7  1  0  0  0  0
  7  8  1  0  0  0  0
  7  9  1  0  0  0  0
  9 10  1  0  0  0  0
  9 11  1  0  0  0  0
  9 26  1  0  0  0  0
 11 12  1  0  0  0  0
 11 13  1  0  0  0  0
 11 14  1  0  0  0  0
 14 15  1  0  0  0  0
 14 16  1  0  0  0  0
 14 17  1  0  0  0  0
 17 18  1  0  0  0  0
 17 19  1  0  0  0  0
 17 20  1  0  0  0  0
 20 21  1  0  0  0  0
 20 22  1  0  0  0  0
 20 23  1  0  0  0  0
 23 24  1  0  0  0  0
 23 25  1  0  0  0  0
 26 27  2  0  0  0  0
 26 28  1  0  0  0  0
 28 29  1  0  0  0  0
 28 30  1  0  0  0  0
 30 31  1  0  0  0  0
 30 32  1  0  0  0  0
 30 33  1  0  0  0  0
M  END
$$$$

  -OEChem-03222214063D

 33 32  0     1  0  0  0  0  0999 V2000
   -3.5664   -4.1014    1.5359 H   0  0  0  0  0  0  0  0  0  0  0  0
   -3.6492   -3.0730    1.1730 C   0  0  0  0  0  0  0  0  0  0  0  0
   -4.3049   -2.5139    1.8449 H   0  0  0  0  0  0  0  0  0  0  0  0
   -4.0889   -3.0866    0.1729 H   0  0  0  0  0  0  0  0  0  0  0  0
   -2.2793   -2.4230    1.1269 C   0  0  0  0  0  0  0  0  0  0  0  0
   -1.2913   -3.0592    1.4590 O   0  0  0  0  0  0  0  0  0  0  0  0
   -2.1593   -1.1120    0.7142 N   0  0  0  0  0  0  0  0  0  0  0  0
   -3.0201   -0.5966    0.5372 H   0  0  0  0  0  0  0  0  0  0  0  0
   -0.9137   -0.3318    0.7358 C   0  0  1  0  0  0  0  0  0  0  0  0
   -0.2426   -0.8135    1.4547 H   0  0  0  0  0  0  0  0  0  0  0  0
   -0.2060   -0.4313   -0.6408 C   0  0  0  0  0  0  0  0  0  0  0  0
    0.8489   -0.6489   -0.4439 H   0  0  0  0  0  0  0  0  0  0  0  0
   -0.5956   -1.3002   -1.1822 H   0  0  0  0  0  0  0  0  0  0  0  0
   -0.2875    0.8006   -1.5731 C   0  0  0  0  0  0  0  0  0  0  0  0
   -0.7690    0.4905   -2.5065 H   0  0  0  0  0  0  0  0  0  0  0  0
   -0.9051    1.6000   -1.1603 H   0  0  0  0  0  0  0  0  0  0  0  0
    1.1068    1.3497   -1.8986 C   0  0  0  0  0  0  0  0  0  0  0  0
    1.6070    1.6515   -0.9727 H   0  0  0  0  0  0  0  0  0  0  0  0
    1.7104    0.5687   -2.3729 H   0  0  0  0  0  0  0  0  0  0  0  0
    1.0098    2.5497   -2.8356 C   0  0  0  0  0  0  0  0  0  0  0  0
    0.5195    2.2568   -3.7707 H   0  0  0  0  0  0  0  0  0  0  0  0
    0.4113    3.3415   -2.3714 H   0  0  0  0  0  0  0  0  0  0  0  0
    2.3643    3.0372   -3.1127 N   0  0  0  0  0  0  0  0  0  0  0  0
    2.3460    3.8341   -3.7493 H   0  0  0  0  0  0  0  0  0  0  0  0
    2.8523    3.2731   -2.2489 H   0  0  0  0  0  0  0  0  0  0  0  0
   -1.1349    1.0868    1.3029 C   0  0  0  0  0  0  0  0  0  0  0  0
   -2.1761    1.6893    1.0629 O   0  0  0  0  0  0  0  0  0  0  0  0
   -0.2485    1.6150    2.2234 N   0  0  0  0  0  0  0  0  0  0  0  0
    0.5646    1.0565    2.4673 H   0  0  0  0  0  0  0  0  0  0  0  0
   -0.4620    2.8859    2.9044 C   0  0  0  0  0  0  0  0  0  0  0  0
   -1.3806    2.8524    3.4997 H   0  0  0  0  0  0  0  0  0  0  0  0
    0.3762    3.1014    3.5740 H   0  0  0  0  0  0  0  0  0  0  0  0
   -0.5417    3.7010    2.1774 H   0  0  0  0  0  0  0  0  0  0  0  0
  1  2  1  0  0  0  0
  2  3  1  0  0  0  0
  2  4  1  0  0  0  0
  2  5  1  0  0  0  0
  5  6  2  0  0  0  0
  5  7  1  0  0  0  0
  7  8  1  0  0  0  0
  7  9  1  0  0  0  0
  9 10  1  0  0  0  0
  9 11  1  0  0  0  0
  9 26  1  0  0  0  0
 11 12  1  0  0  0  0
 11 13  1  0  0  0  0
 11 14  1  0  0  0  0
 14 15  1  0  0  0  0
 14 16  1  0  0  0  0
 14 17  1  0  0  0  0
 17 18  1  0  0  0  0
 17 19  1  0  0  0  0
 17 20  1  0  0  0  0
 20 21  1  0  0  0  0
 20 22  1  0  0  0  0
 20 23  1  0  0  0  0
 23 24  1  0  0  0  0
 23 25  1  0  0  0  0
 26 27  2  0  0  0  0
 26 28  1  0  0  0  0
 28 29  1  0  0  0  0
 28 30  1  0  0  0  0
 30 31  1  0  0  0  0
 30 32  1  0  0  0  0
 30 33  1  0  0  0  0
M  END
$$$$

  -OEChem-03222214063D

 33 32  0     1  0  0  0  0  0999 V2000
   -3.5648   -4.0846    1.5458 H   0  0  0  0  0  0  0  0  0  0  0  0
   -3.6404   -3.0633    1.1624 C   0  0  0  0  0  0  0  0  0  0  0  0
   -4.2994   -2.4891    1.8182 H   0  0  0  0  0  0  0  0  0  0  0  0
   -4.0724   -3.0937    0.1593 H   0  0  0  0  0  0  0  0  0  0  0  0
   -2.2675   -2.4198    1.1146 C   0  0  0  0  0  0  0  0  0  0  0  0
   -1.2807   -3.0616    1.4393 O   0  0  0  0  0  0  0  0  0  0  0  0
   -2.1440   -1.1055    0.7141 N   0  0  0  0  0  0  0  0  0  0  0  0
   -3.0033   -0.5860    0.5417 H   0  0  0  0  0  0  0  0  0  0  0  0
   -0.8967   -0.3286    0.7406 C   0  0  1  0  0  0  0  0  0  0  0  0
   -0.2176   -0.8173    1.4467 H   0  0  0  0  0  0  0  0  0  0  0  0
   -0.2130   -0.4094   -0.6507 C   0  0  0  0  0  0  0  0  0  0  0  0
    0.8453   -0.6115   -0.4550 H   0  0  0  0  0  0  0  0  0  0  0  0
   -0.5899   -1.2787   -1.2002 H   0  0  0  0  0  0  0  0  0  0  0  0
   -0.2976    0.8333   -1.5696 C   0  0  0  0  0  0  0  0  0  0  0  0
   -1.0428    0.6431   -2.3493 H   0  0  0  0  0  0  0  0  0  0  0  0
   -0.6204    1.7266   -1.0331 H   0  0  0  0  0  0  0  0  0  0  0  0
    1.0615    1.1445   -2.2082 C   0  0  0  0  0  0  0  0  0  0  0  0
    1.7937    1.3680   -1.4254 H   0  0  0  0  0  0  0  0  0  0  0  0
    1.4152    0.2704   -2.7652 H   0  0  0  0  0  0  0  0  0  0  0  0
    0.9528    2.3365   -3.1549 C   0  0  0  0  0  0  0  0  0  0  0  0
    0.2288    2.1198   -3.9483 H   0  0  0  0  0  0  0  0  0  0  0  0
    0.6038    3.2202   -2.6088 H   0  0  0  0  0  0  0  0  0  0  0  0
    2.2727    2.5925   -3.7393 N   0  0  0  0  0  0  0  0  0  0  0  0
    2.2412    3.3754   -4.3925 H   0  0  0  0  0  0  0  0  0  0  0  0
    2.9705    2.7526   -3.0132 H   0  0  0  0  0  0  0  0  0  0  0  0
   -1.1309    1.0811    1.3234 C   0  0  0  0  0  0  0  0  0  0  0  0
   -2.1653    1.6877    1.0652 O   0  0  0  0  0  0  0  0  0  0  0  0
   -0.2525    1.6078    2.2523 N   0  0  0  0  0  0  0  0  0  0  0  0
    0.5584    1.0489    2.5026 H   0  0  0  0  0  0  0  0  0  0  0  0
   -0.4718    2.8782    2.9322 C   0  0  0  0  0  0  0  0  0  0  0  0
   -1.4170    2.8591    3.4848 H   0  0  0  0  0  0  0  0  0  0  0  0
    0.3386    3.0723    3.6413 H   0  0  0  0  0  0  0  0  0  0  0  0
   -0.5024    3.6992    2.2085 H   0  0  0  0  0  0  0  0  0  0  0  0
  1  2  1  0  0  0  0
  2  3  1  0  0  0  0
  2  4  1  0  0  0  0
  2  5  1  0  0  0  0
  5  6  2  0  0  0  0
  5  7  1  0  0  0  0
  7  8  1  0  0  0  0
  7  9  1  0  0  0  0
  9 10  1  0  0  0  0
  9 11  1  0  0  0  0
  9 26  1  0  0  0  0
 11 12  1  0  0  0  0
 11 13  1  0  0  0  0
 11 14  1  0  0  0  0
 14 15  1  0  0  0  0
 14 16  1  0  0  0  0
 14 17  1  0  0  0  0
 17 18  1  0  0  0  0
 17 19  1  0  0  0  0
 17 20  1  0  0  0  0
 20 21  1  0  0  0  0
 20 22  1  0  0  0  0
 20 23  1  0  0  0  0
 23 24  1  0  0  0  0
 23 25  1  0  0  0  0
 26 27  2  0  0  0  0
 26 28  1  0  0  0  0
 28 29  1  0  0  0  0
 28 30  1  0  0  0  0
 30 31  1  0  0  0  0
 30 32  1  0  0  0  0
 30 33  1  0  0  0  0
M  END
$$$$

  -OEChem-03222214063D

 33 32  0     1  0  0  0  0  0999 V2000
   -3.5736   -4.0800    1.5278 H   0  0  0  0  0  0  0  0  0  0  0  0
   -3.6410   -3.0576    1.1459 C   0  0  0  0  0  0  0  0  0  0  0  0
   -4.3074   -2.4830    1.7937 H   0  0  0  0  0  0  0  0  0  0  0  0
   -4.0589   -3.0852    0.1369 H   0  0  0  0  0  0  0  0  0  0  0  0
   -2.2660   -2.4174    1.1185 C   0  0  0  0  0  0  0  0  0  0  0  0
   -1.2863   -3.0612    1.4602 O   0  0  0  0  0  0  0  0  0  0  0  0
   -2.1318   -1.1056    0.7134 N   0  0  0  0  0  0  0  0  0  0  0  0
   -2.9856   -0.5830    0.5240 H   0  0  0  0  0  0  0  0  0  0  0  0
   -0.8779   -0.3391    0.7416 C   0  0  1  0  0  0  0  0  0  0  0  0
   -0.1943   -0.8314    1.4409 H   0  0  0  0  0  0  0  0  0  0  0  0
   -0.2147   -0.4105   -0.6595 C   0  0  0  0  0  0  0  0  0  0  0  0
    0.8461   -0.6138   -0.4797 H   0  0  0  0  0  0  0  0  0  0  0  0
   -0.6026   -1.2692   -1.2179 H   0  0  0  0  0  0  0  0  0  0  0  0
   -0.3049    0.8481   -1.5507 C   0  0  0  0  0  0  0  0  0  0  0  0
   -1.2349    0.8158   -2.1278 H   0  0  0  0  0  0  0  0  0  0  0  0
   -0.3167    1.7637   -0.9549 H   0  0  0  0  0  0  0  0  0  0  0  0
    0.9107    0.9419   -2.4813 C   0  0  0  0  0  0  0  0  0  0  0  0
    1.8265    1.0272   -1.8873 H   0  0  0  0  0  0  0  0  0  0  0  0
    0.9809    0.0306   -3.0846 H   0  0  0  0  0  0  0  0  0  0  0  0
    0.7932    2.1495   -3.4068 C   0  0  0  0  0  0  0  0  0  0  0  0
   -0.1143    2.0687   -4.0154 H   0  0  0  0  0  0  0  0  0  0  0  0
    0.7260    3.0702   -2.8167 H   0  0  0  0  0  0  0  0  0  0  0  0
    1.9739    2.1906   -4.2749 N   0  0  0  0  0  0  0  0  0  0  0  0
    1.9319    2.9815   -4.9177 H   0  0  0  0  0  0  0  0  0  0  0  0
    2.8328    2.2132   -3.7254 H   0  0  0  0  0  0  0  0  0  0  0  0
   -1.1147    1.0719    1.3202 C   0  0  0  0  0  0  0  0  0  0  0  0
   -2.1349    1.6894    1.0331 O   0  0  0  0  0  0  0  0  0  0  0  0
   -0.2433    1.6017    2.2540 N   0  0  0  0  0  0  0  0  0  0  0  0
    0.5586    1.0384    2.5227 H   0  0  0  0  0  0  0  0  0  0  0  0
   -0.4521    2.8891    2.9047 C   0  0  0  0  0  0  0  0  0  0  0  0
   -1.3991    2.8923    3.4548 H   0  0  0  0  0  0  0  0  0  0  0  0
    0.3585    3.0911    3.6113 H   0  0  0  0  0  0  0  0  0  0  0  0
   -0.4723    3.6942    2.1628 H   0  0  0  0  0  0  0  0  0  0  0  0
  1  2  1  0  0  0  0
  2  3  1  0  0  0  0
  2  4  1  0  0  0  0
  2  5  1  0  0  0  0
  5  6  2  0  0  0  0
  5  7  1  0  0  0  0
  7  8  1  0  0  0  0
  7  9  1  0  0  0  0
  9 10  1  0  0  0  0
  9 11  1  0  0  0  0
  9 26  1  0  0  0  0
 11 12  1  0  0  0  0
 11 13  1  0  0  0  0
 11 14  1  0  0  0  0
 14 15  1  0  0  0  0
 14 16  1  0  0  0  0
 14 17  1  0  0  0  0
 17 18  1  0  0  0  0
 17 19  1  0  0  0  0
 17 20  1  0  0  0  0
 20 21  1  0  0  0  0
 20 22  1  0  0  0  0
 20 23  1  0  0  0  0
 23 24  1  0  0  0  0
 23 25  1  0  0  0  0
 26 27  2  0  0  0  0
 26 28  1  0  0  0  0
 28 29  1  0  0  0  0
 28 30  1  0  0  0  0
 30 31  1  0  0  0  0
 30 32  1  0  0  0  0
 30 33  1  0  0  0  0
M  END
$$$$

  -OEChem-03222214063D

 33 32  0     1  0  0  0  0  0999 V2000
   -3.5981   -4.0616    1.5435 H   0  0  0  0  0  0  0  0  0  0  0  0
   -3.6532   -3.0426    1.1504 C   0  0  0  0  0  0  0  0  0  0  0  0
   -4.3216   -2.4560    1.7852 H   0  0  0  0  0  0  0  0  0  0  0  0
   -4.0610   -3.0771    0.1373 H   0  0  0  0  0  0  0  0  0  0  0  0
   -2.2726   -2.4141    1.1309 C   0  0  0  0  0  0  0  0  0  0  0  0
   -1.3029   -3.0596    1.4967 O   0  0  0  0  0  0  0  0  0  0  0  0
   -2.1222   -1.1098    0.7081 N   0  0  0  0  0  0  0  0  0  0  0  0
   -2.9685   -0.5835    0.4965 H   0  0  0  0  0  0  0  0  0  0  0  0
   -0.8610   -0.3554    0.7321 C   0  0  1  0  0  0  0  0  0  0  0  0
   -0.1785   -0.8460    1.4342 H   0  0  0  0  0  0  0  0  0  0  0  0
   -0.2046   -0.4334   -0.6705 C   0  0  0  0  0  0  0  0  0  0  0  0
    0.8575   -0.6459   -0.5109 H   0  0  0  0  0  0  0  0  0  0  0  0
   -0.6135   -1.2813   -1.2306 H   0  0  0  0  0  0  0  0  0  0  0  0
   -0.3017    0.8377   -1.5360 C   0  0  0  0  0  0  0  0  0  0  0  0
   -1.3285    0.9555   -1.8984 H   0  0  0  0  0  0  0  0  0  0  0  0
   -0.0444    1.7266   -0.9525 H   0  0  0  0  0  0  0  0  0  0  0  0
    0.6786    0.7615   -2.7118 C   0  0  0  0  0  0  0  0  0  0  0  0
    1.7033    0.6844   -2.3346 H   0  0  0  0  0  0  0  0  0  0  0  0
    0.4691   -0.1338   -3.3064 H   0  0  0  0  0  0  0  0  0  0  0  0
    0.5562    1.9953   -3.6013 C   0  0  0  0  0  0  0  0  0  0  0  0
   -0.4630    2.0740   -3.9958 H   0  0  0  0  0  0  0  0  0  0  0  0
    0.7663    2.9005   -3.0209 H   0  0  0  0  0  0  0  0  0  0  0  0
    1.5128    1.8692   -4.7053 N   0  0  0  0  0  0  0  0  0  0  0  0
    1.4603    2.6710   -5.3336 H   0  0  0  0  0  0  0  0  0  0  0  0
    2.4621    1.7426   -4.3549 H   0  0  0  0  0  0  0  0  0  0  0  0
   -1.0906    1.0655    1.2900 C   0  0  0  0  0  0  0  0  0  0  0  0
   -2.0996    1.6909    0.9813 O   0  0  0  0  0  0  0  0  0  0  0  0
   -0.2208    1.6012    2.2220 N   0  0  0  0  0  0  0  0  0  0  0  0
    0.5695    1.0313    2.5103 H   0  0  0  0  0  0  0  0  0  0  0  0
   -0.4308    2.8936    2.8626 C   0  0  0  0  0  0  0  0  0  0  0  0
   -1.3839    2.9039    3.4019 H   0  0  0  0  0  0  0  0  0  0  0  0
    0.3723    3.0967    3.5773 H   0  0  0  0  0  0  0  0  0  0  0  0
   -0.4398    3.6938    2.1151 H   0  0  0  0  0  0  0  0  0  0  0  0
  1  2  1  0  0  0  0
  2  3  1  0  0  0  0
  2  4  1  0  0  0  0
  2  5  1  0  0  0  0
  5  6  2  0  0  0  0
  5  7  1  0  0  0  0
  7  8  1  0  0  0  0
  7  9  1  0  0  0  0
  9 10  1  0  0  0  0
  9 11  1  0  0  0  0
  9 26  1  0  0  0  0
 11 12  1  0  0  0  0
 11 13  1  0  0  0  0
 11 14  1  0  0  0  0
 14 15  1  0  0  0  0
 14 16  1  0  0  0  0
 14 17  1  0  0  0  0
 17 18  1  0  0  0  0
 17 19  1  0  0  0  0
 17 20  1  0  0  0  0
 20 21  1  0  0  0  0
 20 22  1  0  0  0  0
 20 23  1  0  0  0  0
 23 24  1  0  0  0  0
 23 25  1  0  0  0  0
 26 27  2  0  0  0  0
 26 28  1  0  0  0  0
 28 29  1  0  0  0  0
 28 30  1  0  0  0  0
 30 31  1  0  0  0  0
 30 32  1  0  0  0  0
 30 33  1  0  0  0  0
M  END
$$$$

  -OEChem-03222214063D

 33 32  0     1  0  0  0  0  0999 V2000
   -3.6187   -4.0495    1.5548 H   0  0  0  0  0  0  0  0  0  0  0  0
   -3.6645   -3.0325    1.1552 C   0  0  0  0  0  0  0  0  0  0  0  0
   -4.3314   -2.4370    1.7836 H   0  0  0  0  0  0  0  0  0  0  0  0
   -4.0681   -3.0702    0.1406 H   0  0  0  0  0  0  0  0  0  0  0  0
   -2.2792   -2.4142    1.1377 C   0  0  0  0  0  0  0  0  0  0  0  0
   -1.3166   -3.0618    1.5188 O   0  0  0  0  0  0  0  0  0  0  0  0
   -2.1156   -1.1170    0.6985 N   0  0  0  0  0  0  0  0  0  0  0  0
   -2.9561   -0.5868    0.4736 H   0  0  0  0  0  0  0  0  0  0  0  0
   -0.8487   -0.3724    0.7269 C   0  0  1  0  0  0  0  0  0  0  0  0
   -0.1712   -0.8528    1.4404 H   0  0  0  0  0  0  0  0  0  0  0  0
   -0.1793   -0.4525   -0.6703 C   0  0  0  0  0  0  0  0  0  0  0  0
    0.7862   -0.9555   -0.5542 H   0  0  0  0  0  0  0  0  0  0  0  0
   -0.7867   -1.0818   -1.3299 H   0  0  0  0  0  0  0  0  0  0  0  0
    0.0558    0.8967   -1.3706 C   0  0  0  0  0  0  0  0  0  0  0  0
   -0.9015    1.4098   -1.5137 H   0  0  0  0  0  0  0  0  0  0  0  0
    0.6981    1.5334   -0.7532 H   0  0  0  0  0  0  0  0  0  0  0  0
    0.7196    0.6813   -2.7349 C   0  0  0  0  0  0  0  0  0  0  0  0
    1.6845    0.1821   -2.6001 H   0  0  0  0  0  0  0  0  0  0  0  0
    0.0882    0.0352   -3.3538 H   0  0  0  0  0  0  0  0  0  0  0  0
    0.9309    2.0113   -3.4518 C   0  0  0  0  0  0  0  0  0  0  0  0
   -0.0312    2.5139   -3.6020 H   0  0  0  0  0  0  0  0  0  0  0  0
    1.5662    2.6678   -2.8468 H   0  0  0  0  0  0  0  0  0  0  0  0
    1.5645    1.7462   -4.7472 N   0  0  0  0  0  0  0  0  0  0  0  0
    1.7155    2.6096   -5.2688 H   0  0  0  0  0  0  0  0  0  0  0  0
    2.4382    1.2332   -4.6302 H   0  0  0  0  0  0  0  0  0  0  0  0
   -1.0854    1.0562    1.2642 C   0  0  0  0  0  0  0  0  0  0  0  0
   -2.0892    1.6798    0.9359 O   0  0  0  0  0  0  0  0  0  0  0  0
   -0.2274    1.6009    2.2020 N   0  0  0  0  0  0  0  0  0  0  0  0
    0.5511    1.0282    2.5158 H   0  0  0  0  0  0  0  0  0  0  0  0
   -0.4428    2.9015    2.8236 C   0  0  0  0  0  0  0  0  0  0  0  0
   -1.3935    2.9135    3.3670 H   0  0  0  0  0  0  0  0  0  0  0  0
    0.3626    3.1212    3.5310 H   0  0  0  0  0  0  0  0  0  0  0  0
   -0.4603    3.6901    2.0641 H   0  0  0  0  0  0  0  0  0  0  0  0
  1  2  1  0  0  0  0
  2  3  1  0  0  0  0
  2  4  1  0  0  0  0
  2  5  1  0  0  0  0
  5  6  2  0  0  0  0
  5  7  1  0  0  0  0
  7  8  1  0  0  0  0
  7  9  1  0  0  0  0
  9 10  1  0  0  0  0
  9 11  1  0  0  0  0
  9 26  1  0  0  0  0
 11 12  1  0  0  0  0
 11 13  1  0  0  0  0
 11 14  1  0  0  0  0
 14 15  1  0  0  0  0
 14 16  1  0  0  0  0
 14 17  1  0  0  0  0
 17 18  1  0  0  0  0
 17 19  1  0  0  0  0
 17 20  1  0  0  0  0
 20 21  1  0  0  0  0
 20 22  1  0  0  0  0
 20 23  1  0  0  0  0
 23 24  1  0  0  0  0
 23 25  1  0  0  0  0
 26 27  2  0  0  0  0
 26 28  1  0  0  0  0
 28 29  1  0  0  0  0
 28 30  1  0  0  0  0
 30 31  1  0  0  0  0
 30 32  1  0  0  0  0
 30 33  1  0  0  0  0
M  END
$$$$

  -OEChem-03222214063D

 33 32  0     1  0  0  0  0  0999 V2000
   -3.6110   -4.0525    1.5452 H   0  0  0  0  0  0  0  0  0  0  0  0
   -3.6647   -3.0302    1.1607 C   0  0  0  0  0  0  0  0  0  0  0  0
   -4.3268   -2.4460    1.8043 H   0  0  0  0  0  0  0  0  0  0  0  0
   -4.0792   -3.0552    0.1500 H   0  0  0  0  0  0  0  0  0  0  0  0
   -2.2817   -2.4067    1.1368 C   0  0  0  0  0  0  0  0  0  0  0  0
   -1.3134   -3.0540    1.5041 O   0  0  0  0  0  0  0  0  0  0  0  0
   -2.1262   -1.1061    0.7050 N   0  0  0  0  0  0  0  0  0  0  0  0
   -2.9707   -0.5764    0.4941 H   0  0  0  0  0  0  0  0  0  0  0  0
   -0.8604   -0.3585    0.7229 C   0  0  1  0  0  0  0  0  0  0  0  0
   -0.1820   -0.8416    1.4339 H   0  0  0  0  0  0  0  0  0  0  0  0
   -0.1871   -0.4444   -0.6730 C   0  0  0  0  0  0  0  0  0  0  0  0
    0.7762   -0.9532   -0.5654 H   0  0  0  0  0  0  0  0  0  0  0  0
   -0.8050   -1.0763   -1.3202 H   0  0  0  0  0  0  0  0  0  0  0  0
    0.0478    0.8983   -1.3893 C   0  0  0  0  0  0  0  0  0  0  0  0
   -0.8559    1.5140   -1.3378 H   0  0  0  0  0  0  0  0  0  0  0  0
    0.8630    1.4435   -0.9021 H   0  0  0  0  0  0  0  0  0  0  0  0
    0.3656    0.6707   -2.8714 C   0  0  0  0  0  0  0  0  0  0  0  0
    1.2604    0.0467   -2.9635 H   0  0  0  0  0  0  0  0  0  0  0  0
   -0.4652    0.1436   -3.3523 H   0  0  0  0  0  0  0  0  0  0  0  0
    0.5944    2.0002   -3.5846 C   0  0  0  0  0  0  0  0  0  0  0  0
   -0.3027    2.6251   -3.5089 H   0  0  0  0  0  0  0  0  0  0  0  0
    1.4251    2.5402   -3.1166 H   0  0  0  0  0  0  0  0  0  0  0  0
    0.8981    1.7292   -4.9930 N   0  0  0  0  0  0  0  0  0  0  0  0
    1.0471    2.5943   -5.5123 H   0  0  0  0  0  0  0  0  0  0  0  0
    1.7017    1.1076   -5.0821 H   0  0  0  0  0  0  0  0  0  0  0  0
   -1.0831    1.0680    1.2720 C   0  0  0  0  0  0  0  0  0  0  0  0
   -2.1002    1.6883    0.9801 O   0  0  0  0  0  0  0  0  0  0  0  0
   -0.2091    1.6043    2.2000 N   0  0  0  0  0  0  0  0  0  0  0  0
    0.5734    1.0277    2.4961 H   0  0  0  0  0  0  0  0  0  0  0  0
   -0.4263    2.8891    2.8542 C   0  0  0  0  0  0  0  0  0  0  0  0
   -1.3605    2.8752    3.4255 H   0  0  0  0  0  0  0  0  0  0  0  0
    0.3962    3.1075    3.5418 H   0  0  0  0  0  0  0  0  0  0  0  0
   -0.4790    3.6930    2.1125 H   0  0  0  0  0  0  0  0  0  0  0  0
  1  2  1  0  0  0  0
  2  3  1  0  0  0  0
  2  4  1  0  0  0  0
  2  5  1  0  0  0  0
  5  6  2  0  0  0  0
  5  7  1  0  0  0  0
  7  8  1  0  0  0  0
  7  9  1  0  0  0  0
  9 10  1  0  0  0  0
  9 11  1  0  0  0  0
  9 26  1  0  0  0  0
 11 12  1  0  0  0  0
 11 13  1  0  0  0  0
 11 14  1  0  0  0  0
 14 15  1  0  0  0  0
 14 16  1  0  0  0  0
 14 17  1  0  0  0  0
 17 18  1  0  0  0  0
 17 19  1  0  0  0  0
 17 20  1  0  0  0  0
 20 21  1  0  0  0  0
 20 22  1  0  0  0  0
 20 23  1  0  0  0  0
 23 24  1  0  0  0  0
 23 25  1  0  0  0  0
 26 27  2  0  0  0  0
 26 28  1  0  0  0  0
 28 29  1  0  0  0  0
 28 30  1  0  0  0  0
 30 31  1  0  0  0  0
 30 32  1  0  0  0  0
 30 33  1  0  0  0  0
M  END
$$$$

  -OEChem-03222214063D

 33 32  0     1  0  0  0  0  0999 V2000
   -3.6002   -4.0544    1.5353 H   0  0  0  0  0  0  0  0  0  0  0  0
   -3.6621   -3.0304    1.1562 C   0  0  0  0  0  0  0  0  0  0  0  0
   -4.3189   -2.4521    1.8106 H   0  0  0  0  0  0  0  0  0  0  0  0
   -4.0883   -3.0519    0.1503 H   0  0  0  0  0  0  0  0  0  0  0  0
   -2.2818   -2.4017    1.1191 C   0  0  0  0  0  0  0  0  0  0  0  0
   -1.3048   -3.0544    1.4522 O   0  0  0  0  0  0  0  0  0  0  0  0
   -2.1377   -1.0919    0.7113 N   0  0  0  0  0  0  0  0  0  0  0  0
   -2.9875   -0.5613    0.5258 H   0  0  0  0  0  0  0  0  0  0  0  0
   -0.8755   -0.3378    0.7286 C   0  0  1  0  0  0  0  0  0  0  0  0
   -0.1947   -0.8296    1.4308 H   0  0  0  0  0  0  0  0  0  0  0  0
   -0.1999   -0.4170   -0.6681 C   0  0  0  0  0  0  0  0  0  0  0  0
    0.7633   -0.9266   -0.5625 H   0  0  0  0  0  0  0  0  0  0  0  0
   -0.8184   -1.0574   -1.3062 H   0  0  0  0  0  0  0  0  0  0  0  0
    0.0400    0.9178   -1.4061 C   0  0  0  0  0  0  0  0  0  0  0  0
   -0.7434    1.6414   -1.1658 H   0  0  0  0  0  0  0  0  0  0  0  0
    1.0007    1.3441   -1.0987 H   0  0  0  0  0  0  0  0  0  0  0  0
   -0.0069    0.7125   -2.9255 C   0  0  0  0  0  0  0  0  0  0  0  0
    0.7528   -0.0189   -3.2191 H   0  0  0  0  0  0  0  0  0  0  0  0
   -0.9867    0.3188   -3.2161 H   0  0  0  0  0  0  0  0  0  0  0  0
    0.2412    2.0266   -3.6603 C   0  0  0  0  0  0  0  0  0  0  0  0
   -0.5247    2.7603   -3.3851 H   0  0  0  0  0  0  0  0  0  0  0  0
    1.2190    2.4345   -3.3815 H   0  0  0  0  0  0  0  0  0  0  0  0
    0.1938    1.7716   -5.1034 N   0  0  0  0  0  0  0  0  0  0  0  0
    0.3407    2.6290   -5.6359 H   0  0  0  0  0  0  0  0  0  0  0  0
    0.8680    1.0553   -5.3724 H   0  0  0  0  0  0  0  0  0  0  0  0
   -1.0918    1.0778    1.3073 C   0  0  0  0  0  0  0  0  0  0  0  0
   -2.1182    1.6977    1.0502 O   0  0  0  0  0  0  0  0  0  0  0  0
   -0.2048    1.5968    2.2330 N   0  0  0  0  0  0  0  0  0  0  0  0
    0.5925    1.0231    2.4929 H   0  0  0  0  0  0  0  0  0  0  0  0
   -0.4074    2.8715    2.9114 C   0  0  0  0  0  0  0  0  0  0  0  0
   -1.3363    2.8549    3.4912 H   0  0  0  0  0  0  0  0  0  0  0  0
    0.4230    3.0715    3.5954 H   0  0  0  0  0  0  0  0  0  0  0  0
   -0.4601    3.6885    2.1839 H   0  0  0  0  0  0  0  0  0  0  0  0
  1  2  1  0  0  0  0
  2  3  1  0  0  0  0
  2  4  1  0  0  0  0
  2  5  1  0  0  0  0
  5  6  2  0  0  0  0
  5  7  1  0  0  0  0
  7  8  1  0  0  0  0
  7  9  1  0  0  0  0
  9 10  1  0  0  0  0
  9 11  1  0  0  0  0
  9 26  1  0  0  0  0
 11 12  1  0  0  0  0
 11 13  1  0  0  0  0
 11 14  1  0  0  0  0
 14 15  1  0  0  0  0
 14 16  1  0  0  0  0
 14 17  1  0  0  0  0
 17 18  1  0  0  0  0
 17 19  1  0  0  0  0
 17 20  1  0  0  0  0
 20 21  1  0  0  0  0
 20 22  1  0  0  0  0
 20 23  1  0  0  0  0
 23 24  1  0  0  0  0
 23 25  1  0  0  0  0
 26 27  2  0  0  0  0
 26 28  1  0  0  0  0
 28 29  1  0  0  0  0
 28 30  1  0  0  0  0
 30 31  1  0  0  0  0
 30 32  1  0  0  0  0
 30 33  1  0  0  0  0
M  END
$$$$

  -OEChem-03222214063D

 33 32  0     1  0  0  0  0  0999 V2000
   -3.6056   -4.0445    1.5172 H   0  0  0  0  0  0  0  0  0  0  0  0
   -3.6657   -3.0171    1.1475 C   0  0  0  0  0  0  0  0  0  0  0  0
   -4.3199   -2.4431    1.8082 H   0  0  0  0  0  0  0  0  0  0  0  0
   -4.0936   -3.0286    0.1422 H   0  0  0  0  0  0  0  0  0  0  0  0
   -2.2839   -2.3913    1.1142 C   0  0  0  0  0  0  0  0  0  0  0  0
   -1.3076   -3.0497    1.4382 O   0  0  0  0  0  0  0  0  0  0  0  0
   -2.1376   -1.0769    0.7223 N   0  0  0  0  0  0  0  0  0  0  0  0
   -2.9861   -0.5421    0.5428 H   0  0  0  0  0  0  0  0  0  0  0  0
   -0.8727   -0.3271    0.7406 C   0  0  1  0  0  0  0  0  0  0  0  0
   -0.1904   -0.8287    1.4346 H   0  0  0  0  0  0  0  0  0  0  0  0
   -0.2077   -0.4033   -0.6633 C   0  0  0  0  0  0  0  0  0  0  0  0
    0.7549   -0.9132   -0.5548 H   0  0  0  0  0  0  0  0  0  0  0  0
   -0.8225   -1.0547   -1.2940 H   0  0  0  0  0  0  0  0  0  0  0  0
    0.0456    0.9221   -1.4222 C   0  0  0  0  0  0  0  0  0  0  0  0
   -0.5260    1.7508   -1.0001 H   0  0  0  0  0  0  0  0  0  0  0  0
    1.1064    1.1837   -1.3502 H   0  0  0  0  0  0  0  0  0  0  0  0
   -0.3741    0.7959   -2.8926 C   0  0  0  0  0  0  0  0  0  0  0  0
    0.1871   -0.0170   -3.3647 H   0  0  0  0  0  0  0  0  0  0  0  0
   -1.4400    0.5514   -2.9522 H   0  0  0  0  0  0  0  0  0  0  0  0
   -0.1174    2.0965   -3.6486 C   0  0  0  0  0  0  0  0  0  0  0  0
   -0.6965    2.9117   -3.2002 H   0  0  0  0  0  0  0  0  0  0  0  0
    0.9441    2.3617   -3.5914 H   0  0  0  0  0  0  0  0  0  0  0  0
   -0.5153    1.9102   -5.0475 N   0  0  0  0  0  0  0  0  0  0  0  0
   -0.3742    2.7631   -5.5889 H   0  0  0  0  0  0  0  0  0  0  0  0
   -0.0199    1.1244   -5.4686 H   0  0  0  0  0  0  0  0  0  0  0  0
   -1.0865    1.0803    1.3396 C   0  0  0  0  0  0  0  0  0  0  0  0
   -2.1117    1.7053    1.0898 O   0  0  0  0  0  0  0  0  0  0  0  0
   -0.1956    1.5887    2.2677 N   0  0  0  0  0  0  0  0  0  0  0  0
    0.6008    1.0104    2.5203 H   0  0  0  0  0  0  0  0  0  0  0  0
   -0.3956    2.8552    2.9620 C   0  0  0  0  0  0  0  0  0  0  0  0
   -1.3255    2.8337    3.5401 H   0  0  0  0  0  0  0  0  0  0  0  0
    0.4340    3.0438    3.6502 H   0  0  0  0  0  0  0  0  0  0  0  0
   -0.4442    3.6817    2.2453 H   0  0  0  0  0  0  0  0  0  0  0  0
  1  2  1  0  0  0  0
  2  3  1  0  0  0  0
  2  4  1  0  0  0  0
  2  5  1  0  0  0  0
  5  6  2  0  0  0  0
  5  7  1  0  0  0  0
  7  8  1  0  0  0  0
  7  9  1  0  0  0  0
  9 10  1  0  0  0  0
  9 11  1  0  0  0  0
  9 26  1  0  0  0  0
 11 12  1  0  0  0  0
 11 13  1  0  0  0  0
 11 14  1  0  0  0  0
 14 15  1  0  0  0  0
 14 16  1  0  0  0  0
 14 17  1  0  0  0  0
 17 18  1  0  0  0  0
 17 19  1  0  0  0  0
 17 20  1  0  0  0  0
 20 21  1  0  0  0  0
 20 22  1  0  0  0  0
 20 23  1  0  0  0  0
 23 24  1  0  0  0  0
 23 25  1  0  0  0  0
 26 27  2  0  0  0  0
 26 28  1  0  0  0  0
 28 29  1  0  0  0  0
 28 30  1  0  0  0  0
 30 31  1  0  0  0  0
 30 32  1  0  0  0  0
 30 33  1  0  0  0  0
M  END
$$$$

  -OEChem-03222214063D

 33 32  0     1  0  0  0  0  0999 V2000
   -3.6263   -4.0337    1.5102 H   0  0  0  0  0  0  0  0  0  0  0  0
   -3.6767   -3.0020    1.1513 C   0  0  0  0  0  0  0  0  0  0  0  0
   -4.3281   -2.4293    1.8157 H   0  0  0  0  0  0  0  0  0  0  0  0
   -4.1013   -2.9993    0.1446 H   0  0  0  0  0  0  0  0  0  0  0  0
   -2.2900   -2.3873    1.1293 C   0  0  0  0  0  0  0  0  0  0  0  0
   -1.3223   -3.0510    1.4679 O   0  0  0  0  0  0  0  0  0  0  0  0
   -2.1293   -1.0764    0.7318 N   0  0  0  0  0  0  0  0  0  0  0  0
   -2.9709   -0.5364    0.5354 H   0  0  0  0  0  0  0  0  0  0  0  0
   -0.8574   -0.3392    0.7513 C   0  0  1  0  0  0  0  0  0  0  0  0
   -0.1743   -0.8426    1.4433 H   0  0  0  0  0  0  0  0  0  0  0  0
   -0.2097   -0.4204   -0.6612 C   0  0  0  0  0  0  0  0  0  0  0  0
    0.7551   -0.9242   -0.5419 H   0  0  0  0  0  0  0  0  0  0  0  0
   -0.8142   -1.0836   -1.2897 H   0  0  0  0  0  0  0  0  0  0  0  0
    0.0570    0.8986   -1.4302 C   0  0  0  0  0  0  0  0  0  0  0  0
   -0.2162    1.7873   -0.8593 H   0  0  0  0  0  0  0  0  0  0  0  0
    1.1304    0.9726   -1.6337 H   0  0  0  0  0  0  0  0  0  0  0  0
   -0.7049    0.9184   -2.7615 C   0  0  0  0  0  0  0  0  0  0  0  0
   -0.3903    0.0699   -3.3777 H   0  0  0  0  0  0  0  0  0  0  0  0
   -1.7787    0.8200   -2.5701 H   0  0  0  0  0  0  0  0  0  0  0  0
   -0.4493    2.2181   -3.5188 C   0  0  0  0  0  0  0  0  0  0  0  0
   -0.7994    3.0711   -2.9266 H   0  0  0  0  0  0  0  0  0  0  0  0
    0.6244    2.3445   -3.6969 H   0  0  0  0  0  0  0  0  0  0  0  0
   -1.1686    2.1658   -4.7956 N   0  0  0  0  0  0  0  0  0  0  0  0
   -1.0366    3.0245   -5.3300 H   0  0  0  0  0  0  0  0  0  0  0  0
   -0.8905    1.3501   -5.3407 H   0  0  0  0  0  0  0  0  0  0  0  0
   -1.0747    1.0695    1.3447 C   0  0  0  0  0  0  0  0  0  0  0  0
   -2.0866    1.7044    1.0681 O   0  0  0  0  0  0  0  0  0  0  0  0
   -0.1909    1.5801    2.2782 N   0  0  0  0  0  0  0  0  0  0  0  0
    0.5952    0.9965    2.5501 H   0  0  0  0  0  0  0  0  0  0  0  0
   -0.3918    2.8544    2.9571 C   0  0  0  0  0  0  0  0  0  0  0  0
   -1.3181    2.8358    3.5410 H   0  0  0  0  0  0  0  0  0  0  0  0
    0.4415    3.0566    3.6368 H   0  0  0  0  0  0  0  0  0  0  0  0
   -0.4501    3.6709    2.2297 H   0  0  0  0  0  0  0  0  0  0  0  0
  1  2  1  0  0  0  0
  2  3  1  0  0  0  0
  2  4  1  0  0  0  0
  2  5  1  0  0  0  0
  5  6  2  0  0  0  0
  5  7  1  0  0  0  0
  7  8  1  0  0  0  0
  7  9  1  0  0  0  0
  9 10  1  0  0  0  0
  9 11  1  0  0  0  0
  9 26  1  0  0  0  0
 11 12  1  0  0  0  0
 11 13  1  0  0  0  0
 11 14  1  0  0  0  0
 14 15  1  0  0  0  0
 14 16  1  0  0  0  0
 14 17  1  0  0  0  0
 17 18  1  0  0  0  0
 17 19  1  0  0  0  0
 17 20  1  0  0  0  0
 20 21  1  0  0  0  0
 20 22  1  0  0  0  0
 20 23  1  0  0  0  0
 23 24  1  0  0  0  0
 23 25  1  0  0  0  0
 26 27  2  0  0  0  0
 26 28  1  0  0  0  0
 28 29  1  0  0  0  0
 28 30  1  0  0  0  0
 30 31  1  0  0  0  0
 30 32  1  0  0  0  0
 30 33  1  0  0  0  0
M  END
$$$$

  -OEChem-03222214063D

 33 32  0     1  0  0  0  0  0999 V2000
   -3.6511   -4.0183    1.5622 H   0  0  0  0  0  0  0  0  0  0  0  0
   -3.6893   -2.9969    1.1733 C   0  0  0  0  0  0  0  0  0  0  0  0
   -4.3464   -2.4012    1.8115 H   0  0  0  0  0  0  0  0  0  0  0  0
   -4.0994   -3.0196    0.1607 H   0  0  0  0  0  0  0  0  0  0  0  0
   -2.2978   -2.3931    1.1529 C   0  0  0  0  0  0  0  0  0  0  0  0
   -1.3376   -3.0590    1.5084 O   0  0  0  0  0  0  0  0  0  0  0  0
   -2.1241   -1.0912    0.7332 N   0  0  0  0  0  0  0  0  0  0  0  0
   -2.9599   -0.5476    0.5214 H   0  0  0  0  0  0  0  0  0  0  0  0
   -0.8470   -0.3641    0.7488 C   0  0  1  0  0  0  0  0  0  0  0  0
   -0.1661   -0.8616    1.4474 H   0  0  0  0  0  0  0  0  0  0  0  0
   -0.2066   -0.4581   -0.6646 C   0  0  0  0  0  0  0  0  0  0  0  0
    0.7616   -0.9517   -0.5324 H   0  0  0  0  0  0  0  0  0  0  0  0
   -0.7998   -1.1282   -1.2966 H   0  0  0  0  0  0  0  0  0  0  0  0
    0.0623    0.8607   -1.4270 C   0  0  0  0  0  0  0  0  0  0  0  0
    0.0925    1.7344   -0.7726 H   0  0  0  0  0  0  0  0  0  0  0  0
    1.0518    0.7900   -1.8908 H   0  0  0  0  0  0  0  0  0  0  0  0
   -0.9689    1.0628   -2.5440 C   0  0  0  0  0  0  0  0  0  0  0  0
   -0.9022    0.2373   -3.2600 H   0  0  0  0  0  0  0  0  0  0  0  0
   -1.9773    1.0611   -2.1159 H   0  0  0  0  0  0  0  0  0  0  0  0
   -0.7362    2.3851   -3.2683 C   0  0  0  0  0  0  0  0  0  0  0  0
   -0.8648    3.2198   -2.5701 H   0  0  0  0  0  0  0  0  0  0  0  0
    0.2856    2.4241   -3.6614 H   0  0  0  0  0  0  0  0  0  0  0  0
   -1.7009    2.4963   -4.3670 N   0  0  0  0  0  0  0  0  0  0  0  0
   -1.5950    3.3804   -4.8643 H   0  0  0  0  0  0  0  0  0  0  0  0
   -1.6222    1.7059   -5.0062 H   0  0  0  0  0  0  0  0  0  0  0  0
   -1.0670    1.0546    1.3166 C   0  0  0  0  0  0  0  0  0  0  0  0
   -2.0710    1.6909    1.0158 O   0  0  0  0  0  0  0  0  0  0  0  0
   -0.1900    1.5771    2.2496 N   0  0  0  0  0  0  0  0  0  0  0  0
    0.5942    0.9973    2.5343 H   0  0  0  0  0  0  0  0  0  0  0  0
   -0.3849    2.8687    2.8965 C   0  0  0  0  0  0  0  0  0  0  0  0
   -1.3300    2.8818    3.4494 H   0  0  0  0  0  0  0  0  0  0  0  0
    0.4298    3.0655    3.5999 H   0  0  0  0  0  0  0  0  0  0  0  0
   -0.4007    3.6717    2.1523 H   0  0  0  0  0  0  0  0  0  0  0  0
  1  2  1  0  0  0  0
  2  3  1  0  0  0  0
  2  4  1  0  0  0  0
  2  5  1  0  0  0  0
  5  6  2  0  0  0  0
  5  7  1  0  0  0  0
  7  8  1  0  0  0  0
  7  9  1  0  0  0  0
  9 10  1  0  0  0  0
  9 11  1  0  0  0  0
  9 26  1  0  0  0  0
 11 12  1  0  0  0  0
 11 13  1  0  0  0  0
 11 14  1  0  0  0  0
 14 15  1  0  0  0  0
 14 16  1  0  0  0  0
 14 17  1  0  0  0  0
 17 18  1  0  0  0  0
 17 19  1  0  0  0  0
 17 20  1  0  0  0  0
 20 21  1  0  0  0  0
 20 22  1  0  0  0  0
 20 23  1  0  0  0  0
 23 24  1  0  0  0  0
 23 25  1  0  0  0  0
 26 27  2  0  0  0  0
 26 28  1  0  0  0  0
 28 29  1  0  0  0  0
 28 30  1  0  0  0  0
 30 31  1  0  0  0  0
 30 32  1  0  0  0  0
 30 33  1  0  0  0  0
M  END
$$$$

  -OEChem-03222214063D

 33 32  0     1  0  0  0  0  0999 V2000
   -3.6458   -4.0291    1.5960 H   0  0  0  0  0  0  0  0  0  0  0  0
   -3.6913   -3.0073    1.2088 C   0  0  0  0  0  0  0  0  0  0  0  0
   -4.3356   -2.4124    1.8606 H   0  0  0  0  0  0  0  0  0  0  0  0
   -4.1212   -3.0295    0.2045 H   0  0  0  0  0  0  0  0  0  0  0  0
   -2.3006   -2.4028    1.1622 C   0  0  0  0  0  0  0  0  0  0  0  0
   -1.3348   -3.0664    1.5063 O   0  0  0  0  0  0  0  0  0  0  0  0
   -2.1344   -1.1025    0.7338 N   0  0  0  0  0  0  0  0  0  0  0  0
   -2.9742   -0.5605    0.5344 H   0  0  0  0  0  0  0  0  0  0  0  0
   -0.8607   -0.3697    0.7401 C   0  0  1  0  0  0  0  0  0  0  0  0
   -0.1812   -0.8613    1.4444 H   0  0  0  0  0  0  0  0  0  0  0  0
   -0.2111   -0.4752   -0.6673 C   0  0  0  0  0  0  0  0  0  0  0  0
    0.7608   -0.9593   -0.5276 H   0  0  0  0  0  0  0  0  0  0  0  0
   -0.7971   -1.1480   -1.3027 H   0  0  0  0  0  0  0  0  0  0  0  0
    0.0460    0.8421   -1.4269 C   0  0  0  0  0  0  0  0  0  0  0  0
    0.3199    1.6560   -0.7499 H   0  0  0  0  0  0  0  0  0  0  0  0
    0.9003    0.6894   -2.0947 H   0  0  0  0  0  0  0  0  0  0  0  0
   -1.1632    1.2268   -2.2895 C   0  0  0  0  0  0  0  0  0  0  0  0
   -1.3355    0.4520   -3.0433 H   0  0  0  0  0  0  0  0  0  0  0  0
   -2.0609    1.2946   -1.6672 H   0  0  0  0  0  0  0  0  0  0  0  0
   -0.9318    2.5679   -2.9790 C   0  0  0  0  0  0  0  0  0  0  0  0
   -0.8416    3.3611   -2.2281 H   0  0  0  0  0  0  0  0  0  0  0  0
   -0.0015    2.5382   -3.5569 H   0  0  0  0  0  0  0  0  0  0  0  0
   -2.0644    2.8447   -3.8686 N   0  0  0  0  0  0  0  0  0  0  0  0
   -1.9577    3.7452   -4.3352 H   0  0  0  0  0  0  0  0  0  0  0  0
   -2.1914    2.0940   -4.5466 H   0  0  0  0  0  0  0  0  0  0  0  0
   -1.0689    1.0556    1.2981 C   0  0  0  0  0  0  0  0  0  0  0  0
   -2.0863    1.6837    1.0289 O   0  0  0  0  0  0  0  0  0  0  0  0
   -0.1808    1.5795    2.2201 N   0  0  0  0  0  0  0  0  0  0  0  0
    0.6092    1.0022    2.4934 H   0  0  0  0  0  0  0  0  0  0  0  0
   -0.3720    2.8693    2.8723 C   0  0  0  0  0  0  0  0  0  0  0  0
   -1.2940    2.8671    3.4633 H   0  0  0  0  0  0  0  0  0  0  0  0
    0.4672    3.0835    3.5411 H   0  0  0  0  0  0  0  0  0  0  0  0
   -0.4328    3.6695    2.1271 H   0  0  0  0  0  0  0  0  0  0  0  0
  1  2  1  0  0  0  0
  2  3  1  0  0  0  0
  2  4  1  0  0  0  0
  2  5  1  0  0  0  0
  5  6  2  0  0  0  0
  5  7  1  0  0  0  0
  7  8  1  0  0  0  0
  7  9  1  0  0  0  0
  9 10  1  0  0  0  0
  9 11  1  0  0  0  0
  9 26  1  0  0  0  0
 11 12  1  0  0  0  0
 11 13  1  0  0  0  0
 11 14  1  0  0  0  0
 14 15  1  0  0  0  0
 14 16  1  0  0  0  0
 14 17  1  0  0  0  0
 17 18  1  0  0  0  0
 17 19  1  0  0  0  0
 17 20  1  0  0  0  0
 20 21  1  0  0  0  0
 20 22  1  0  0  0  0
 20 23  1  0  0  0  0
 23 24  1  0  0  0  0
 23 25  1  0  0  0  0
 26 27  2  0  0  0  0
 26 28  1  0  0  0  0
 28 29  1  0  0  0  0
 28 30  1  0  0  0  0
 30 31  1  0  0  0  0
 30 32  1  0  0  0  0
 30 33  1  0  0  0  0
M  END
$$$$

  -OEChem-03222214063D

 33 32  0     1  0  0  0  0  0999 V2000
   -3.5971   -4.0710    1.5940 H   0  0  0  0  0  0  0  0  0  0  0  0
   -3.6758   -3.0328    1.2593 C   0  0  0  0  0  0  0  0  0  0  0  0
   -4.2825   -2.4763    1.9778 H   0  0  0  0  0  0  0  0  0  0  0  0
   -4.1685   -3.0129    0.2842 H   0  0  0  0  0  0  0  0  0  0  0  0
   -2.2964   -2.4104    1.1540 C   0  0  0  0  0  0  0  0  0  0  0  0
   -1.3057   -3.0721    1.4232 O   0  0  0  0  0  0  0  0  0  0  0  0
   -2.1695   -1.0973    0.7519 N   0  0  0  0  0  0  0  0  0  0  0  0
   -3.0269   -0.5591    0.6327 H   0  0  0  0  0  0  0  0  0  0  0  0
   -0.9110   -0.3389    0.7367 C   0  0  1  0  0  0  0  0  0  0  0  0
   -0.2306   -0.8327    1.4383 H   0  0  0  0  0  0  0  0  0  0  0  0
   -0.2301   -0.4485   -0.6544 C   0  0  0  0  0  0  0  0  0  0  0  0
    0.7481   -0.9142   -0.4969 H   0  0  0  0  0  0  0  0  0  0  0  0
   -0.8008   -1.1356   -1.2884 H   0  0  0  0  0  0  0  0  0  0  0  0
    0.0081    0.8559   -1.4376 C   0  0  0  0  0  0  0  0  0  0  0  0
    0.4703    1.6058   -0.7877 H   0  0  0  0  0  0  0  0  0  0  0  0
    0.7170    0.6488   -2.2462 H   0  0  0  0  0  0  0  0  0  0  0  0
   -1.2827    1.4133   -2.0576 C   0  0  0  0  0  0  0  0  0  0  0  0
   -1.6644    0.6971   -2.7918 H   0  0  0  0  0  0  0  0  0  0  0  0
   -2.0571    1.5496   -1.3007 H   0  0  0  0  0  0  0  0  0  0  0  0
   -1.0171    2.7509   -2.7425 C   0  0  0  0  0  0  0  0  0  0  0  0
   -0.7009    3.4929   -2.0006 H   0  0  0  0  0  0  0  0  0  0  0  0
   -0.2141    2.6427   -3.4798 H   0  0  0  0  0  0  0  0  0  0  0  0
   -2.2470    3.1960   -3.4050 N   0  0  0  0  0  0  0  0  0  0  0  0
   -2.1139    4.0930   -3.8713 H   0  0  0  0  0  0  0  0  0  0  0  0
   -2.5897    2.4913   -4.0571 H   0  0  0  0  0  0  0  0  0  0  0  0
   -1.0901    1.0775    1.3282 C   0  0  0  0  0  0  0  0  0  0  0  0
   -2.1560    1.6693    1.2051 O   0  0  0  0  0  0  0  0  0  0  0  0
   -0.1596    1.5775    2.2218 N   0  0  0  0  0  0  0  0  0  0  0  0
    0.6612    1.0102    2.4130 H   0  0  0  0  0  0  0  0  0  0  0  0
   -0.3461    2.8206    2.9610 C   0  0  0  0  0  0  0  0  0  0  0  0
   -1.1828    2.7274    3.6613 H   0  0  0  0  0  0  0  0  0  0  0  0
    0.5573    3.0628    3.5289 H   0  0  0  0  0  0  0  0  0  0  0  0
   -0.5525    3.6485    2.2741 H   0  0  0  0  0  0  0  0  0  0  0  0
  1  2  1  0  0  0  0
  2  3  1  0  0  0  0
  2  4  1  0  0  0  0
  2  5  1  0  0  0  0
  5  6  2  0  0  0  0
  5  7  1  0  0  0  0
  7  8  1  0  0  0  0
  7  9  1  0  0  0  0
  9 10  1  0  0  0  0
  9 11  1  0  0  0  0
  9 26  1  0  0  0  0
 11 12  1  0  0  0  0
 11 13  1  0  0  0  0
 11 14  1  0  0  0  0
 14 15  1  0  0  0  0
 14 16  1  0  0  0  0
 14 17  1  0  0  0  0
 17 18  1  0  0  0  0
 17 19  1  0  0  0  0
 17 20  1  0  0  0  0
 20 21  1  0  0  0  0
 20 22  1  0  0  0  0
 20 23  1  0  0  0  0
 23 24  1  0  0  0  0
 23 25  1  0  0  0  0
 26 27  2  0  0  0  0
 26 28  1  0  0  0  0
 28 29  1  0  0  0  0
 28 30  1  0  0  0  0
 30 31  1  0  0  0  0
 30 32  1  0  0  0  0
 30 33  1  0  0  0  0
M  END
$$$$

  -OEChem-03222214063D

 33 32  0     1  0  0  0  0  0999 V2000
   -3.5094   -4.1536    1.3561 H   0  0  0  0  0  0  0  0  0  0  0  0
   -3.6136   -3.0910    1.1193 C   0  0  0  0  0  0  0  0  0  0  0  0
   -4.2067   -2.6118    1.9021 H   0  0  0  0  0  0  0  0  0  0  0  0
   -4.1356   -2.9924    0.1644 H   0  0  0  0  0  0  0  0  0  0  0  0
   -2.2475   -2.4369    1.0323 C   0  0  0  0  0  0  0  0  0  0  0  0
   -1.2394   -3.1002    1.2210 O   0  0  0  0  0  0  0  0  0  0  0  0
   -2.1530   -1.0931    0.7371 N   0  0  0  0  0  0  0  0  0  0  0  0
   -3.0224   -0.5619    0.7046 H   0  0  0  0  0  0  0  0  0  0  0  0
   -0.9128   -0.3056    0.7877 C   0  0  1  0  0  0  0  0  0  0  0  0
   -0.2289   -0.8345    1.4599 H   0  0  0  0  0  0  0  0  0  0  0  0
   -0.2078   -0.3005   -0.5952 C   0  0  0  0  0  0  0  0  0  0  0  0
    0.7700   -0.7750   -0.4628 H   0  0  0  0  0  0  0  0  0  0  0  0
   -0.7728   -0.9471   -1.2751 H   0  0  0  0  0  0  0  0  0  0  0  0
    0.0333    1.0370   -1.3239 C   0  0  0  0  0  0  0  0  0  0  0  0
    0.6986    1.6668   -0.7244 H   0  0  0  0  0  0  0  0  0  0  0  0
    0.5584    0.8066   -2.2567 H   0  0  0  0  0  0  0  0  0  0  0  0
   -1.2417    1.8313   -1.6528 C   0  0  0  0  0  0  0  0  0  0  0  0
   -1.5625    2.4177   -0.7903 H   0  0  0  0  0  0  0  0  0  0  0  0
   -2.0496    1.1422   -1.9189 H   0  0  0  0  0  0  0  0  0  0  0  0
   -0.9937    2.7891   -2.8158 C   0  0  0  0  0  0  0  0  0  0  0  0
   -0.1668    3.4664   -2.5747 H   0  0  0  0  0  0  0  0  0  0  0  0
   -0.7210    2.2242   -3.7140 H   0  0  0  0  0  0  0  0  0  0  0  0
   -2.2150    3.5611   -3.0614 N   0  0  0  0  0  0  0  0  0  0  0  0
   -2.1109    4.1755   -3.8685 H   0  0  0  0  0  0  0  0  0  0  0  0
   -3.0223    2.9472   -3.1695 H   0  0  0  0  0  0  0  0  0  0  0  0
   -1.1383    1.0502    1.4908 C   0  0  0  0  0  0  0  0  0  0  0  0
   -2.2451    1.5775    1.4541 O   0  0  0  0  0  0  0  0  0  0  0  0
   -0.2275    1.5039    2.4281 N   0  0  0  0  0  0  0  0  0  0  0  0
    0.6328    0.9762    2.5429 H   0  0  0  0  0  0  0  0  0  0  0  0
   -0.4626    2.6641    3.2793 C   0  0  0  0  0  0  0  0  0  0  0  0
   -1.3237    2.4912    3.9333 H   0  0  0  0  0  0  0  0  0  0  0  0
    0.4137    2.8584    3.9050 H   0  0  0  0  0  0  0  0  0  0  0  0
   -0.6551    3.5534    2.6699 H   0  0  0  0  0  0  0  0  0  0  0  0
  1  2  1  0  0  0  0
  2  3  1  0  0  0  0
  2  4  1  0  0  0  0
  2  5  1  0  0  0  0
  5  6  2  0  0  0  0
  5  7  1  0  0  0  0
  7  8  1  0  0  0  0
  7  9  1  0  0  0  0
  9 10  1  0  0  0  0
  9 11  1  0  0  0  0
  9 26  1  0  0  0  0
 11 12  1  0  0  0  0
 11 13  1  0  0  0  0
 11 14  1  0  0  0  0
 14 15  1  0  0  0  0
 14 16  1  0  0  0  0
 14 17  1  0  0  0  0
 17 18  1  0  0  0  0
 17 19  1  0  0  0  0
 17 20  1  0  0  0  0
 20 21  1  0  0  0  0
 20 22  1  0  0  0  0
 20 23  1  0  0  0  0
 23 24  1  0  0  0  0
 23 25  1  0  0  0  0
 26 27  2  0  0  0  0
 26 28  1  0  0  0  0
 28 29  1  0  0  0  0
 28 30  1  0  0  0  0
 30 31  1  0  0  0  0
 30 32  1  0  0  0  0
 30 33  1  0  0  0  0
M  END
$$$$

  -OEChem-03222214063D

 33 32  0     1  0  0  0  0  0999 V2000
   -3.4865   -4.1897    1.5841 H   0  0  0  0  0  0  0  0  0  0  0  0
   -3.6174   -3.1748    1.1984 C   0  0  0  0  0  0  0  0  0  0  0  0
   -4.2919   -2.6299    1.8633 H   0  0  0  0  0  0  0  0  0  0  0  0
   -4.0645   -3.2307    0.2030 H   0  0  0  0  0  0  0  0  0  0  0  0
   -2.2782   -2.4659    1.1240 C   0  0  0  0  0  0  0  0  0  0  0  0
   -1.2572   -3.0544    1.4456 O   0  0  0  0  0  0  0  0  0  0  0  0
   -2.2220   -1.1577    0.6904 N   0  0  0  0  0  0  0  0  0  0  0  0
   -3.1090   -0.6796    0.5370 H   0  0  0  0  0  0  0  0  0  0  0  0
   -1.0208   -0.3110    0.7176 C   0  0  1  0  0  0  0  0  0  0  0  0
   -0.3870   -0.7313    1.5056 H   0  0  0  0  0  0  0  0  0  0  0  0
   -0.1725   -0.4743   -0.5750 C   0  0  0  0  0  0  0  0  0  0  0  0
    0.7976   -0.8908   -0.2846 H   0  0  0  0  0  0  0  0  0  0  0  0
   -0.6595   -1.2360   -1.1928 H   0  0  0  0  0  0  0  0  0  0  0  0
    0.1075    0.7301   -1.5020 C   0  0  0  0  0  0  0  0  0  0  0  0
    0.8808    1.3340   -1.0156 H   0  0  0  0  0  0  0  0  0  0  0  0
    0.5418    0.3559   -2.4352 H   0  0  0  0  0  0  0  0  0  0  0  0
   -1.0830    1.6475   -1.8475 C   0  0  0  0  0  0  0  0  0  0  0  0
   -1.9950    1.3311   -1.3384 H   0  0  0  0  0  0  0  0  0  0  0  0
   -1.2838    1.5419   -2.9185 H   0  0  0  0  0  0  0  0  0  0  0  0
   -0.7963    3.1210   -1.5548 C   0  0  0  0  0  0  0  0  0  0  0  0
   -0.7173    3.2850   -0.4751 H   0  0  0  0  0  0  0  0  0  0  0  0
    0.1537    3.4160   -2.0139 H   0  0  0  0  0  0  0  0  0  0  0  0
   -1.8850    3.9316   -2.1096 N   0  0  0  0  0  0  0  0  0  0  0  0
   -1.7558    4.9215   -1.9028 H   0  0  0  0  0  0  0  0  0  0  0  0
   -1.9884    3.7753   -3.1116 H   0  0  0  0  0  0  0  0  0  0  0  0
   -1.3025    1.1097    1.2526 C   0  0  0  0  0  0  0  0  0  0  0  0
   -2.4173    1.6026    1.1253 O   0  0  0  0  0  0  0  0  0  0  0  0
   -0.4391    1.6830    2.1697 N   0  0  0  0  0  0  0  0  0  0  0  0
    0.4157    1.1789    2.3871 H   0  0  0  0  0  0  0  0  0  0  0  0
   -0.7477    2.8990    2.9130 C   0  0  0  0  0  0  0  0  0  0  0  0
   -1.6196    2.7439    3.5572 H   0  0  0  0  0  0  0  0  0  0  0  0
    0.1015    3.1830    3.5417 H   0  0  0  0  0  0  0  0  0  0  0  0
   -0.9594    3.7250    2.2260 H   0  0  0  0  0  0  0  0  0  0  0  0
  1  2  1  0  0  0  0
  2  3  1  0  0  0  0
  2  4  1  0  0  0  0
  2  5  1  0  0  0  0
  5  6  2  0  0  0  0
  5  7  1  0  0  0  0
  7  8  1  0  0  0  0
  7  9  1  0  0  0  0
  9 10  1  0  0  0  0
  9 11  1  0  0  0  0
  9 26  1  0  0  0  0
 11 12  1  0  0  0  0
 11 13  1  0  0  0  0
 11 14  1  0  0  0  0
 14 15  1  0  0  0  0
 14 16  1  0  0  0  0
 14 17  1  0  0  0  0
 17 18  1  0  0  0  0
 17 19  1  0  0  0  0
 17 20  1  0  0  0  0
 20 21  1  0  0  0  0
 20 22  1  0  0  0  0
 20 23  1  0  0  0  0
 23 24  1  0  0  0  0
 23 25  1  0  0  0  0
 26 27  2  0  0  0  0
 26 28  1  0  0  0  0
 28 29  1  0  0  0  0
 28 30  1  0  0  0  0
 30 31  1  0  0  0  0
 30 32  1  0  0  0  0
 30 33  1  0  0  0  0
M  END
$$$$

  -OEChem-03222214063D

 33 32  0     1  0  0  0  0  0999 V2000
   -3.5184   -4.0802    1.5944 H   0  0  0  0  0  0  0  0  0  0  0  0
   -3.6408   -3.0739    1.1842 C   0  0  0  0  0  0  0  0  0  0  0  0
   -4.3197   -2.5110    1.8293 H   0  0  0  0  0  0  0  0  0  0  0  0
   -4.0778   -3.1511    0.1858 H   0  0  0  0  0  0  0  0  0  0  0  0
   -2.2971   -2.3735    1.1086 C   0  0  0  0  0  0  0  0  0  0  0  0
   -1.2829   -2.9606    1.4523 O   0  0  0  0  0  0  0  0  0  0  0  0
   -2.2276   -1.0733    0.6522 N   0  0  0  0  0  0  0  0  0  0  0  0
   -3.1097   -0.5918    0.4831 H   0  0  0  0  0  0  0  0  0  0  0  0
   -1.0179   -0.2366    0.6822 C   0  0  1  0  0  0  0  0  0  0  0  0
   -0.3849   -0.6414    1.4788 H   0  0  0  0  0  0  0  0  0  0  0  0
   -0.1830   -0.4456   -0.6214 C   0  0  0  0  0  0  0  0  0  0  0  0
    0.7703   -0.8937   -0.3222 H   0  0  0  0  0  0  0  0  0  0  0  0
   -0.7014   -1.2138   -1.2052 H   0  0  0  0  0  0  0  0  0  0  0  0
    0.1573    0.6838   -1.6320 C   0  0  0  0  0  0  0  0  0  0  0  0
    1.1347    1.0956   -1.3595 H   0  0  0  0  0  0  0  0  0  0  0  0
    0.2867    0.2119   -2.6119 H   0  0  0  0  0  0  0  0  0  0  0  0
   -0.8295    1.8509   -1.7998 C   0  0  0  0  0  0  0  0  0  0  0  0
   -1.8163    1.5559   -1.4373 H   0  0  0  0  0  0  0  0  0  0  0  0
   -0.9519    2.0553   -2.8683 H   0  0  0  0  0  0  0  0  0  0  0  0
   -0.3406    3.1450   -1.1406 C   0  0  0  0  0  0  0  0  0  0  0  0
    0.2292    2.9319   -0.2317 H   0  0  0  0  0  0  0  0  0  0  0  0
    0.3239    3.6843   -1.8245 H   0  0  0  0  0  0  0  0  0  0  0  0
   -1.5047    3.9642   -0.8016 N   0  0  0  0  0  0  0  0  0  0  0  0
   -2.0437    4.1925   -1.6358 H   0  0  0  0  0  0  0  0  0  0  0  0
   -2.0956    3.4664   -0.1232 H   0  0  0  0  0  0  0  0  0  0  0  0
   -1.3339    1.1853    1.1935 C   0  0  0  0  0  0  0  0  0  0  0  0
   -2.4351    1.6882    0.9849 O   0  0  0  0  0  0  0  0  0  0  0  0
   -0.5029    1.7841    2.1237 N   0  0  0  0  0  0  0  0  0  0  0  0
    0.3611    1.3051    2.3609 H   0  0  0  0  0  0  0  0  0  0  0  0
   -0.8035    3.0547    2.7737 C   0  0  0  0  0  0  0  0  0  0  0  0
   -1.7519    2.9940    3.3177 H   0  0  0  0  0  0  0  0  0  0  0  0
   -0.0136    3.3093    3.4867 H   0  0  0  0  0  0  0  0  0  0  0  0
   -0.8722    3.8587    2.0335 H   0  0  0  0  0  0  0  0  0  0  0  0
  1  2  1  0  0  0  0
  2  3  1  0  0  0  0
  2  4  1  0  0  0  0
  2  5  1  0  0  0  0
  5  6  2  0  0  0  0
  5  7  1  0  0  0  0
  7  8  1  0  0  0  0
  7  9  1  0  0  0  0
  9 10  1  0  0  0  0
  9 11  1  0  0  0  0
  9 26  1  0  0  0  0
 11 12  1  0  0  0  0
 11 13  1  0  0  0  0
 11 14  1  0  0  0  0
 14 15  1  0  0  0  0
 14 16  1  0  0  0  0
 14 17  1  0  0  0  0
 17 18  1  0  0  0  0
 17 19  1  0  0  0  0
 17 20  1  0  0  0  0
 20 21  1  0  0  0  0
 20 22  1  0  0  0  0
 20 23  1  0  0  0  0
 23 24  1  0  0  0  0
 23 25  1  0  0  0  0
 26 27  2  0  0  0  0
 26 28  1  0  0  0  0
 28 29  1  0  0  0  0
 28 30  1  0  0  0  0
 30 31  1  0  0  0  0
 30 32  1  0  0  0  0
 30 33  1  0  0  0  0
M  END
$$$$

  -OEChem-03222214063D

 33 32  0     1  0  0  0  0  0999 V2000
   -3.4946   -4.2251    1.4631 H   0  0  0  0  0  0  0  0  0  0  0  0
   -3.6140   -3.1702    1.2015 C   0  0  0  0  0  0  0  0  0  0  0  0
   -4.2001   -2.6782    1.9815 H   0  0  0  0  0  0  0  0  0  0  0  0
   -4.1514   -3.1001    0.2528 H   0  0  0  0  0  0  0  0  0  0  0  0
   -2.2565   -2.5047    1.0772 C   0  0  0  0  0  0  0  0  0  0  0  0
   -1.2374   -3.1675    1.1943 O   0  0  0  0  0  0  0  0  0  0  0  0
   -2.1820   -1.1491    0.8352 N   0  0  0  0  0  0  0  0  0  0  0  0
   -3.0546   -0.6226    0.8625 H   0  0  0  0  0  0  0  0  0  0  0  0
   -0.9427   -0.3574    0.8701 C   0  0  1  0  0  0  0  0  0  0  0  0
   -0.2317   -0.9001    1.5021 H   0  0  0  0  0  0  0  0  0  0  0  0
   -0.2895   -0.3309   -0.5484 C   0  0  0  0  0  0  0  0  0  0  0  0
    0.6720   -0.8471   -0.4582 H   0  0  0  0  0  0  0  0  0  0  0  0
   -0.9055   -0.9687   -1.1917 H   0  0  0  0  0  0  0  0  0  0  0  0
   -0.0204    0.9579   -1.3752 C   0  0  0  0  0  0  0  0  0  0  0  0
    1.0593    1.1404   -1.3545 H   0  0  0  0  0  0  0  0  0  0  0  0
   -0.2827    0.7333   -2.4146 H   0  0  0  0  0  0  0  0  0  0  0  0
   -0.6999    2.2753   -0.9850 C   0  0  0  0  0  0  0  0  0  0  0  0
   -1.7731    2.1125   -0.8494 H   0  0  0  0  0  0  0  0  0  0  0  0
   -0.2720    2.6565   -0.0538 H   0  0  0  0  0  0  0  0  0  0  0  0
   -0.5004    3.3314   -2.0681 C   0  0  0  0  0  0  0  0  0  0  0  0
    0.5670    3.4646   -2.2776 H   0  0  0  0  0  0  0  0  0  0  0  0
   -0.9931    3.0146   -2.9942 H   0  0  0  0  0  0  0  0  0  0  0  0
   -1.0758    4.5928   -1.5933 N   0  0  0  0  0  0  0  0  0  0  0  0
   -1.0518    5.3088   -2.3188 H   0  0  0  0  0  0  0  0  0  0  0  0
   -2.0263    4.4533   -1.2476 H   0  0  0  0  0  0  0  0  0  0  0  0
   -1.1833    0.9552    1.6449 C   0  0  0  0  0  0  0  0  0  0  0  0
   -2.2920    1.4826    1.6235 O   0  0  0  0  0  0  0  0  0  0  0  0
   -0.2604    1.3903    2.5791 N   0  0  0  0  0  0  0  0  0  0  0  0
    0.6291    0.9019    2.6250 H   0  0  0  0  0  0  0  0  0  0  0  0
   -0.4709    2.5537    3.4319 C   0  0  0  0  0  0  0  0  0  0  0  0
   -1.3445    2.4048    4.0751 H   0  0  0  0  0  0  0  0  0  0  0  0
    0.4030    2.7182    4.0695 H   0  0  0  0  0  0  0  0  0  0  0  0
   -0.6293    3.4504    2.8234 H   0  0  0  0  0  0  0  0  0  0  0  0
  1  2  1  0  0  0  0
  2  3  1  0  0  0  0
  2  4  1  0  0  0  0
  2  5  1  0  0  0  0
  5  6  2  0  0  0  0
  5  7  1  0  0  0  0
  7  8  1  0  0  0  0
  7  9  1  0  0  0  0
  9 10  1  0  0  0  0
  9 11  1  0  0  0  0
  9 26  1  0  0  0  0
 11 12  1  0  0  0  0
 11 13  1  0  0  0  0
 11 14  1  0  0  0  0
 14 15  1  0  0  0  0
 14 16  1  0  0  0  0
 14 17  1  0  0  0  0
 17 18  1  0  0  0  0
 17 19  1  0  0  0  0
 17 20  1  0  0  0  0
 20 21  1  0  0  0  0
 20 22  1  0  0  0  0
 20 23  1  0  0  0  0
 23 24  1  0  0  0  0
 23 25  1  0  0  0  0
 26 27  2  0  0  0  0
 26 28  1  0  0  0  0
 28 29  1  0  0  0  0
 28 30  1  0  0  0  0
 30 31  1  0  0  0  0
 30 32  1  0  0  0  0
 30 33  1  0  0  0  0
M  END
$$$$

  -OEChem-03222214063D

 33 32  0     1  0  0  0  0  0999 V2000
   -4.0357   -3.5806    1.2991 H   0  0  0  0  0  0  0  0  0  0  0  0
   -3.9661   -2.5272    1.0135 C   0  0  0  0  0  0  0  0  0  0  0  0
   -4.5313   -1.9294    1.7328 H   0  0  0  0  0  0  0  0  0  0  0  0
   -4.4044   -2.4014    0.0205 H   0  0  0  0  0  0  0  0  0  0  0  0
   -2.5153   -2.0841    0.9988 C   0  0  0  0  0  0  0  0  0  0  0  0
   -1.6292   -2.8873    1.2453 O   0  0  0  0  0  0  0  0  0  0  0  0
   -2.2046   -0.7723    0.7052 N   0  0  0  0  0  0  0  0  0  0  0  0
   -2.9821   -0.1184    0.6253 H   0  0  0  0  0  0  0  0  0  0  0  0
   -0.8613   -0.1823    0.8173 C   0  0  1  0  0  0  0  0  0  0  0  0
   -0.3219   -0.7874    1.5538 H   0  0  0  0  0  0  0  0  0  0  0  0
   -0.0703   -0.3980   -0.5150 C   0  0  0  0  0  0  0  0  0  0  0  0
    0.7855   -1.0271   -0.2476 H   0  0  0  0  0  0  0  0  0  0  0  0
   -0.6962   -1.0215   -1.1621 H   0  0  0  0  0  0  0  0  0  0  0  0
    0.5045    0.7203   -1.4369 C   0  0  0  0  0  0  0  0  0  0  0  0
    1.5838    0.5443   -1.4969 H   0  0  0  0  0  0  0  0  0  0  0  0
    0.1121    0.5562   -2.4464 H   0  0  0  0  0  0  0  0  0  0  0  0
    0.3363    2.2088   -1.1082 C   0  0  0  0  0  0  0  0  0  0  0  0
    1.0542    2.7821   -1.7035 H   0  0  0  0  0  0  0  0  0  0  0  0
    0.5852    2.4113   -0.0665 H   0  0  0  0  0  0  0  0  0  0  0  0
   -1.0637    2.7030   -1.4781 C   0  0  0  0  0  0  0  0  0  0  0  0
   -1.1166    2.8861   -2.5567 H   0  0  0  0  0  0  0  0  0  0  0  0
   -1.8186    1.9488   -1.2322 H   0  0  0  0  0  0  0  0  0  0  0  0
   -1.3390    3.9346   -0.7369 N   0  0  0  0  0  0  0  0  0  0  0  0
   -2.1995    4.3697   -1.0663 H   0  0  0  0  0  0  0  0  0  0  0  0
   -1.4199    3.7164    0.2618 H   0  0  0  0  0  0  0  0  0  0  0  0
   -0.9277    1.1964    1.5067 C   0  0  0  0  0  0  0  0  0  0  0  0
   -1.9269    1.8997    1.3885 O   0  0  0  0  0  0  0  0  0  0  0  0
   -0.0142    1.5218    2.4932 N   0  0  0  0  0  0  0  0  0  0  0  0
    0.7764    0.8973    2.6258 H   0  0  0  0  0  0  0  0  0  0  0  0
   -0.0813    2.7482    3.2787 C   0  0  0  0  0  0  0  0  0  0  0  0
   -1.0131    2.7860    3.8526 H   0  0  0  0  0  0  0  0  0  0  0  0
    0.7577    2.7944    3.9796 H   0  0  0  0  0  0  0  0  0  0  0  0
   -0.0339    3.6248    2.6240 H   0  0  0  0  0  0  0  0  0  0  0  0
  1  2  1  0  0  0  0
  2  3  1  0  0  0  0
  2  4  1  0  0  0  0
  2  5  1  0  0  0  0
  5  6  2  0  0  0  0
  5  7  1  0  0  0  0
  7  8  1  0  0  0  0
  7  9  1  0  0  0  0
  9 10  1  0  0  0  0
  9 11  1  0  0  0  0
  9 26  1  0  0  0  0
 11 12  1  0  0  0  0
 11 13  1  0  0  0  0
 11 14  1  0  0  0  0
 14 15  1  0  0  0  0
 14 16  1  0  0  0  0
 14 17  1  0  0  0  0
 17 18  1  0  0  0  0
 17 19  1  0  0  0  0
 17 20  1  0  0  0  0
 20 21  1  0  0  0  0
 20 22  1  0  0  0  0
 20 23  1  0  0  0  0
 23 24  1  0  0  0  0
 23 25  1  0  0  0  0
 26 27  2  0  0  0  0
 26 28  1  0  0  0  0
 28 29  1  0  0  0  0
 28 30  1  0  0  0  0
 30 31  1  0  0  0  0
 30 32  1  0  0  0  0
 30 33  1  0  0  0  0
M  END
$$$$

  -OEChem-03222214063D

 33 32  0     1  0  0  0  0  0999 V2000
   -3.5262   -4.2542    1.3979 H   0  0  0  0  0  0  0  0  0  0  0  0
   -3.6414   -3.1768    1.2510 C   0  0  0  0  0  0  0  0  0  0  0  0
   -4.1634   -2.7570    2.1143 H   0  0  0  0  0  0  0  0  0  0  0  0
   -4.2398   -3.0057    0.3530 H   0  0  0  0  0  0  0  0  0  0  0  0
   -2.2815   -2.5219    1.0988 C   0  0  0  0  0  0  0  0  0  0  0  0
   -1.2669   -3.1969    1.1785 O   0  0  0  0  0  0  0  0  0  0  0  0
   -2.1972   -1.1645    0.8694 N   0  0  0  0  0  0  0  0  0  0  0  0
   -3.0605   -0.6251    0.9283 H   0  0  0  0  0  0  0  0  0  0  0  0
   -0.9444   -0.3935    0.8600 C   0  0  1  0  0  0  0  0  0  0  0  0
   -0.1925   -0.9498    1.4298 H   0  0  0  0  0  0  0  0  0  0  0  0
   -0.4213   -0.3238   -0.6114 C   0  0  0  0  0  0  0  0  0  0  0  0
    0.5543   -0.8206   -0.5836 H   0  0  0  0  0  0  0  0  0  0  0  0
   -1.0568   -0.9644   -1.2326 H   0  0  0  0  0  0  0  0  0  0  0  0
   -0.1914    0.9846   -1.4216 C   0  0  0  0  0  0  0  0  0  0  0  0
    0.7412    0.8571   -1.9819 H   0  0  0  0  0  0  0  0  0  0  0  0
   -0.9977    1.0507   -2.1597 H   0  0  0  0  0  0  0  0  0  0  0  0
   -0.1395    2.3411   -0.7085 C   0  0  0  0  0  0  0  0  0  0  0  0
    0.5770    2.2981    0.1172 H   0  0  0  0  0  0  0  0  0  0  0  0
   -1.1271    2.5996   -0.3197 H   0  0  0  0  0  0  0  0  0  0  0  0
    0.2926    3.4450   -1.6688 C   0  0  0  0  0  0  0  0  0  0  0  0
    1.2756    3.2151   -2.0944 H   0  0  0  0  0  0  0  0  0  0  0  0
   -0.4251    3.5272   -2.4926 H   0  0  0  0  0  0  0  0  0  0  0  0
    0.3541    4.7043   -0.9215 N   0  0  0  0  0  0  0  0  0  0  0  0
    0.6026    5.4837   -1.5306 H   0  0  0  0  0  0  0  0  0  0  0  0
   -0.5286    4.8848   -0.4418 H   0  0  0  0  0  0  0  0  0  0  0  0
   -1.1700    0.9019    1.6678 C   0  0  0  0  0  0  0  0  0  0  0  0
   -2.2694    1.4494    1.6519 O   0  0  0  0  0  0  0  0  0  0  0  0
   -0.2255    1.3283    2.5841 N   0  0  0  0  0  0  0  0  0  0  0  0
    0.6666    0.8427    2.6000 H   0  0  0  0  0  0  0  0  0  0  0  0
   -0.4021    2.5038    3.4276 C   0  0  0  0  0  0  0  0  0  0  0  0
   -1.2606    2.3714    4.0943 H   0  0  0  0  0  0  0  0  0  0  0  0
    0.4895    2.6666    4.0407 H   0  0  0  0  0  0  0  0  0  0  0  0
   -0.5660    3.3951    2.8127 H   0  0  0  0  0  0  0  0  0  0  0  0
  1  2  1  0  0  0  0
  2  3  1  0  0  0  0
  2  4  1  0  0  0  0
  2  5  1  0  0  0  0
  5  6  2  0  0  0  0
  5  7  1  0  0  0  0
  7  8  1  0  0  0  0
  7  9  1  0  0  0  0
  9 10  1  0  0  0  0
  9 11  1  0  0  0  0
  9 26  1  0  0  0  0
 11 12  1  0  0  0  0
 11 13  1  0  0  0  0
 11 14  1  0  0  0  0
 14 15  1  0  0  0  0
 14 16  1  0  0  0  0
 14 17  1  0  0  0  0
 17 18  1  0  0  0  0
 17 19  1  0  0  0  0
 17 20  1  0  0  0  0
 20 21  1  0  0  0  0
 20 22  1  0  0  0  0
 20 23  1  0  0  0  0
 23 24  1  0  0  0  0
 23 25  1  0  0  0  0
 26 27  2  0  0  0  0
 26 28  1  0  0  0  0
 28 29  1  0  0  0  0
 28 30  1  0  0  0  0
 30 31  1  0  0  0  0
 30 32  1  0  0  0  0
 30 33  1  0  0  0  0
M  END
$$$$

  -OEChem-03222214063D

 33 32  0     1  0  0  0  0  0999 V2000
   -3.4715   -4.2757    1.4087 H   0  0  0  0  0  0  0  0  0  0  0  0
   -3.5903   -3.2224    1.1400 C   0  0  0  0  0  0  0  0  0  0  0  0
   -4.2209   -2.7368    1.8887 H   0  0  0  0  0  0  0  0  0  0  0  0
   -4.0804   -3.1601    0.1655 H   0  0  0  0  0  0  0  0  0  0  0  0
   -2.2360   -2.5414    1.0824 C   0  0  0  0  0  0  0  0  0  0  0  0
   -1.2188   -3.1855    1.2868 O   0  0  0  0  0  0  0  0  0  0  0  0
   -2.1612   -1.1927    0.8048 N   0  0  0  0  0  0  0  0  0  0  0  0
   -3.0380   -0.6750    0.7540 H   0  0  0  0  0  0  0  0  0  0  0  0
   -0.9301   -0.3905    0.8708 C   0  0  1  0  0  0  0  0  0  0  0  0
   -0.2031   -0.9042    1.5088 H   0  0  0  0  0  0  0  0  0  0  0  0
   -0.3202   -0.3302   -0.5653 C   0  0  0  0  0  0  0  0  0  0  0  0
    0.6672   -0.7940   -0.4701 H   0  0  0  0  0  0  0  0  0  0  0  0
   -0.8967   -0.9912   -1.2213 H   0  0  0  0  0  0  0  0  0  0  0  0
   -0.0819    0.9839   -1.3572 C   0  0  0  0  0  0  0  0  0  0  0  0
    0.7330    0.7893   -2.0625 H   0  0  0  0  0  0  0  0  0  0  0  0
   -0.9802    1.1767   -1.9531 H   0  0  0  0  0  0  0  0  0  0  0  0
    0.2284    2.2780   -0.5902 C   0  0  0  0  0  0  0  0  0  0  0  0
   -0.6847    2.6914   -0.1565 H   0  0  0  0  0  0  0  0  0  0  0  0
    0.9447    2.0702    0.2107 H   0  0  0  0  0  0  0  0  0  0  0  0
    0.8222    3.3320   -1.5199 C   0  0  0  0  0  0  0  0  0  0  0  0
    1.7473    2.9591   -1.9738 H   0  0  0  0  0  0  0  0  0  0  0  0
    0.1157    3.5620   -2.3254 H   0  0  0  0  0  0  0  0  0  0  0  0
    1.1034    4.5364   -0.7329 N   0  0  0  0  0  0  0  0  0  0  0  0
    1.4915    5.2764   -1.3178 H   0  0  0  0  0  0  0  0  0  0  0  0
    0.2644    4.8584   -0.2492 H   0  0  0  0  0  0  0  0  0  0  0  0
   -1.2674    0.9247    1.6028 C   0  0  0  0  0  0  0  0  0  0  0  0
   -2.3573    1.4629    1.4269 O   0  0  0  0  0  0  0  0  0  0  0  0
   -0.4244    1.4161    2.5832 N   0  0  0  0  0  0  0  0  0  0  0  0
    0.4669    0.9465    2.7141 H   0  0  0  0  0  0  0  0  0  0  0  0
   -0.6957    2.6337    3.3368 C   0  0  0  0  0  0  0  0  0  0  0  0
   -1.6454    2.5478    3.8753 H   0  0  0  0  0  0  0  0  0  0  0  0
    0.0994    2.8112    4.0672 H   0  0  0  0  0  0  0  0  0  0  0  0
   -0.7473    3.4963    2.6641 H   0  0  0  0  0  0  0  0  0  0  0  0
  1  2  1  0  0  0  0
  2  3  1  0  0  0  0
  2  4  1  0  0  0  0
  2  5  1  0  0  0  0
  5  6  2  0  0  0  0
  5  7  1  0  0  0  0
  7  8  1  0  0  0  0
  7  9  1  0  0  0  0
  9 10  1  0  0  0  0
  9 11  1  0  0  0  0
  9 26  1  0  0  0  0
 11 12  1  0  0  0  0
 11 13  1  0  0  0  0
 11 14  1  0  0  0  0
 14 15  1  0  0  0  0
 14 16  1  0  0  0  0
 14 17  1  0  0  0  0
 17 18  1  0  0  0  0
 17 19  1  0  0  0  0
 17 20  1  0  0  0  0
 20 21  1  0  0  0  0
 20 22  1  0  0  0  0
 20 23  1  0  0  0  0
 23 24  1  0  0  0  0
 23 25  1  0  0  0  0
 26 27  2  0  0  0  0
 26 28  1  0  0  0  0
 28 29  1  0  0  0  0
 28 30  1  0  0  0  0
 30 31  1  0  0  0  0
 30 32  1  0  0  0  0
 30 33  1  0  0  0  0
M  END
$$$$

  -OEChem-03222214063D

 33 32  0     1  0  0  0  0  0999 V2000
   -3.4777   -4.2457    1.4467 H   0  0  0  0  0  0  0  0  0  0  0  0
   -3.5886   -3.2041    1.1323 C   0  0  0  0  0  0  0  0  0  0  0  0
   -4.2450   -2.6913    1.8394 H   0  0  0  0  0  0  0  0  0  0  0  0
   -4.0443   -3.1816    0.1394 H   0  0  0  0  0  0  0  0  0  0  0  0
   -2.2341   -2.5221    1.0940 C   0  0  0  0  0  0  0  0  0  0  0  0
   -1.2218   -3.1614    1.3343 O   0  0  0  0  0  0  0  0  0  0  0  0
   -2.1524   -1.1799    0.7877 N   0  0  0  0  0  0  0  0  0  0  0  0
   -3.0269   -0.6633    0.7011 H   0  0  0  0  0  0  0  0  0  0  0  0
   -0.9186   -0.3810    0.8474 C   0  0  1  0  0  0  0  0  0  0  0  0
   -0.1870   -0.8846    1.4880 H   0  0  0  0  0  0  0  0  0  0  0  0
   -0.3244   -0.3221   -0.5922 C   0  0  0  0  0  0  0  0  0  0  0  0
    0.6604   -0.7960   -0.5272 H   0  0  0  0  0  0  0  0  0  0  0  0
   -0.9237   -0.9601   -1.2506 H   0  0  0  0  0  0  0  0  0  0  0  0
   -0.1090    1.0146   -1.3429 C   0  0  0  0  0  0  0  0  0  0  0  0
    0.5079    0.7929   -2.2203 H   0  0  0  0  0  0  0  0  0  0  0  0
   -1.0797    1.3639   -1.7108 H   0  0  0  0  0  0  0  0  0  0  0  0
    0.5359    2.1690   -0.5566 C   0  0  0  0  0  0  0  0  0  0  0  0
   -0.2224    2.7134    0.0107 H   0  0  0  0  0  0  0  0  0  0  0  0
    1.2815    1.7718    0.1396 H   0  0  0  0  0  0  0  0  0  0  0  0
    1.2165    3.1572   -1.4991 C   0  0  0  0  0  0  0  0  0  0  0  0
    2.0105    2.6549   -2.0629 H   0  0  0  0  0  0  0  0  0  0  0  0
    0.4888    3.5552   -2.2150 H   0  0  0  0  0  0  0  0  0  0  0  0
    1.7855    4.2451   -0.6983 N   0  0  0  0  0  0  0  0  0  0  0  0
    2.2650    4.9248   -1.2888 H   0  0  0  0  0  0  0  0  0  0  0  0
    1.0643    4.6980   -0.1365 H   0  0  0  0  0  0  0  0  0  0  0  0
   -1.2566    0.9510    1.5474 C   0  0  0  0  0  0  0  0  0  0  0  0
   -2.3227    1.5143    1.3162 O   0  0  0  0  0  0  0  0  0  0  0  0
   -0.4204    1.4597    2.5250 N   0  0  0  0  0  0  0  0  0  0  0  0
    0.4574    0.9754    2.6901 H   0  0  0  0  0  0  0  0  0  0  0  0
   -0.6887    2.6975    3.2459 C   0  0  0  0  0  0  0  0  0  0  0  0
   -1.6334    2.6245    3.7948 H   0  0  0  0  0  0  0  0  0  0  0  0
    0.1130    2.8977    3.9632 H   0  0  0  0  0  0  0  0  0  0  0  0
   -0.7486    3.5407    2.5499 H   0  0  0  0  0  0  0  0  0  0  0  0
  1  2  1  0  0  0  0
  2  3  1  0  0  0  0
  2  4  1  0  0  0  0
  2  5  1  0  0  0  0
  5  6  2  0  0  0  0
  5  7  1  0  0  0  0
  7  8  1  0  0  0  0
  7  9  1  0  0  0  0
  9 10  1  0  0  0  0
  9 11  1  0  0  0  0
  9 26  1  0  0  0  0
 11 12  1  0  0  0  0
 11 13  1  0  0  0  0
 11 14  1  0  0  0  0
 14 15  1  0  0  0  0
 14 16  1  0  0  0  0
 14 17  1  0  0  0  0
 17 18  1  0  0  0  0
 17 19  1  0  0  0  0
 17 20  1  0  0  0  0
 20 21  1  0  0  0  0
 20 22  1  0  0  0  0
 20 23  1  0  0  0  0
 23 24  1  0  0  0  0
 23 25  1  0  0  0  0
 26 27  2  0  0  0  0
 26 28  1  0  0  0  0
 28 29  1  0  0  0  0
 28 30  1  0  0  0  0
 30 31  1  0  0  0  0
 30 32  1  0  0  0  0
 30 33  1  0  0  0  0
M  END
$$$$

  -OEChem-03222214063D

 33 32  0     1  0  0  0  0  0999 V2000
   -3.5247   -4.2038    1.3965 H   0  0  0  0  0  0  0  0  0  0  0  0
   -3.6188   -3.1507    1.1173 C   0  0  0  0  0  0  0  0  0  0  0  0
   -4.2651   -2.6501    1.8422 H   0  0  0  0  0  0  0  0  0  0  0  0
   -4.0765   -3.0885    0.1272 H   0  0  0  0  0  0  0  0  0  0  0  0
   -2.2531   -2.4905    1.0985 C   0  0  0  0  0  0  0  0  0  0  0  0
   -1.2586   -3.1368    1.3887 O   0  0  0  0  0  0  0  0  0  0  0  0
   -2.1418   -1.1591    0.7566 N   0  0  0  0  0  0  0  0  0  0  0  0
   -3.0051   -0.6343    0.6220 H   0  0  0  0  0  0  0  0  0  0  0  0
   -0.8980   -0.3770    0.8269 C   0  0  1  0  0  0  0  0  0  0  0  0
   -0.1849   -0.8758    1.4917 H   0  0  0  0  0  0  0  0  0  0  0  0
   -0.2781   -0.3465   -0.6004 C   0  0  0  0  0  0  0  0  0  0  0  0
    0.6936   -0.8470   -0.5374 H   0  0  0  0  0  0  0  0  0  0  0  0
   -0.8939   -0.9600   -1.2667 H   0  0  0  0  0  0  0  0  0  0  0  0
   -0.0529    1.0017   -1.3192 C   0  0  0  0  0  0  0  0  0  0  0  0
    0.3639    0.7740   -2.3061 H   0  0  0  0  0  0  0  0  0  0  0  0
   -1.0194    1.4911   -1.4799 H   0  0  0  0  0  0  0  0  0  0  0  0
    0.8883    1.9838   -0.5991 C   0  0  0  0  0  0  0  0  0  0  0  0
    0.3464    2.5454    0.1629 H   0  0  0  0  0  0  0  0  0  0  0  0
    1.7000    1.4322   -0.1136 H   0  0  0  0  0  0  0  0  0  0  0  0
    1.4851    2.9854   -1.5830 C   0  0  0  0  0  0  0  0  0  0  0  0
    2.0758    2.4614   -2.3426 H   0  0  0  0  0  0  0  0  0  0  0  0
    0.6845    3.5341   -2.0916 H   0  0  0  0  0  0  0  0  0  0  0  0
    2.3410    3.9137   -0.8378 N   0  0  0  0  0  0  0  0  0  0  0  0
    2.7776    4.5931   -1.4611 H   0  0  0  0  0  0  0  0  0  0  0  0
    1.8140    4.3836   -0.1018 H   0  0  0  0  0  0  0  0  0  0  0  0
   -1.2255    0.9823    1.4789 C   0  0  0  0  0  0  0  0  0  0  0  0
   -2.2624    1.5707    1.1873 O   0  0  0  0  0  0  0  0  0  0  0  0
   -0.4044    1.5048    2.4624 N   0  0  0  0  0  0  0  0  0  0  0  0
    0.4454    0.9943    2.6860 H   0  0  0  0  0  0  0  0  0  0  0  0
   -0.6720    2.7646    3.1446 C   0  0  0  0  0  0  0  0  0  0  0  0
   -1.6150    2.7072    3.6981 H   0  0  0  0  0  0  0  0  0  0  0  0
    0.1317    2.9890    3.8523 H   0  0  0  0  0  0  0  0  0  0  0  0
   -0.7360    3.5856    2.4228 H   0  0  0  0  0  0  0  0  0  0  0  0
  1  2  1  0  0  0  0
  2  3  1  0  0  0  0
  2  4  1  0  0  0  0
  2  5  1  0  0  0  0
  5  6  2  0  0  0  0
  5  7  1  0  0  0  0
  7  8  1  0  0  0  0
  7  9  1  0  0  0  0
  9 10  1  0  0  0  0
  9 11  1  0  0  0  0
  9 26  1  0  0  0  0
 11 12  1  0  0  0  0
 11 13  1  0  0  0  0
 11 14  1  0  0  0  0
 14 15  1  0  0  0  0
 14 16  1  0  0  0  0
 14 17  1  0  0  0  0
 17 18  1  0  0  0  0
 17 19  1  0  0  0  0
 17 20  1  0  0  0  0
 20 21  1  0  0  0  0
 20 22  1  0  0  0  0
 20 23  1  0  0  0  0
 23 24  1  0  0  0  0
 23 25  1  0  0  0  0
 26 27  2  0  0  0  0
 26 28  1  0  0  0  0
 28 29  1  0  0  0  0
 28 30  1  0  0  0  0
 30 31  1  0  0  0  0
 30 32  1  0  0  0  0
 30 33  1  0  0  0  0
M  END
$$$$

  -OEChem-03222214063D

 33 32  0     1  0  0  0  0  0999 V2000
   -3.6353   -4.0754    1.5082 H   0  0  0  0  0  0  0  0  0  0  0  0
   -3.6772   -3.0436    1.1486 C   0  0  0  0  0  0  0  0  0  0  0  0
   -4.3401   -2.4697    1.8007 H   0  0  0  0  0  0  0  0  0  0  0  0
   -4.0831   -3.0405    0.1343 H   0  0  0  0  0  0  0  0  0  0  0  0
   -2.2890   -2.4316    1.1521 C   0  0  0  0  0  0  0  0  0  0  0  0
   -1.3339   -3.0854    1.5406 O   0  0  0  0  0  0  0  0  0  0  0  0
   -2.1130   -1.1334    0.7214 N   0  0  0  0  0  0  0  0  0  0  0  0
   -2.9489   -0.5931    0.5020 H   0  0  0  0  0  0  0  0  0  0  0  0
   -0.8446   -0.3919    0.7884 C   0  0  1  0  0  0  0  0  0  0  0  0
   -0.1740   -0.8662    1.5127 H   0  0  0  0  0  0  0  0  0  0  0  0
   -0.1736   -0.4785   -0.6142 C   0  0  0  0  0  0  0  0  0  0  0  0
    0.7718   -1.0196   -0.5039 H   0  0  0  0  0  0  0  0  0  0  0  0
   -0.8028   -1.0920   -1.2677 H   0  0  0  0  0  0  0  0  0  0  0  0
    0.1065    0.8343   -1.3711 C   0  0  0  0  0  0  0  0  0  0  0  0
    0.3191    0.5869   -2.4164 H   0  0  0  0  0  0  0  0  0  0  0  0
   -0.7902    1.4623   -1.3671 H   0  0  0  0  0  0  0  0  0  0  0  0
    1.3055    1.6159   -0.8118 C   0  0  0  0  0  0  0  0  0  0  0  0
    1.1750    1.8351    0.2471 H   0  0  0  0  0  0  0  0  0  0  0  0
    2.2116    1.0099   -0.9145 H   0  0  0  0  0  0  0  0  0  0  0  0
    1.4874    2.9278   -1.5686 C   0  0  0  0  0  0  0  0  0  0  0  0
    1.6576    2.7272   -2.6323 H   0  0  0  0  0  0  0  0  0  0  0  0
    0.5838    3.5414   -1.4779 H   0  0  0  0  0  0  0  0  0  0  0  0
    2.6380    3.6381   -1.0018 N   0  0  0  0  0  0  0  0  0  0  0  0
    2.8123    4.5116   -1.4992 H   0  0  0  0  0  0  0  0  0  0  0  0
    2.5064    3.8085   -0.0051 H   0  0  0  0  0  0  0  0  0  0  0  0
   -1.1439    1.0254    1.3280 C   0  0  0  0  0  0  0  0  0  0  0  0
   -2.1477    1.6266    0.9577 O   0  0  0  0  0  0  0  0  0  0  0  0
   -0.3444    1.5910    2.3051 N   0  0  0  0  0  0  0  0  0  0  0  0
    0.4545    1.0524    2.6282 H   0  0  0  0  0  0  0  0  0  0  0  0
   -0.6038    2.8971    2.8976 C   0  0  0  0  0  0  0  0  0  0  0  0
   -1.5611    2.8935    3.4293 H   0  0  0  0  0  0  0  0  0  0  0  0
    0.1868    3.1529    3.6095 H   0  0  0  0  0  0  0  0  0  0  0  0
   -0.6337    3.6699    2.1222 H   0  0  0  0  0  0  0  0  0  0  0  0
  1  2  1  0  0  0  0
  2  3  1  0  0  0  0
  2  4  1  0  0  0  0
  2  5  1  0  0  0  0
  5  6  2  0  0  0  0
  5  7  1  0  0  0  0
  7  8  1  0  0  0  0
  7  9  1  0  0  0  0
  9 10  1  0  0  0  0
  9 11  1  0  0  0  0
  9 26  1  0  0  0  0
 11 12  1  0  0  0  0
 11 13  1  0  0  0  0
 11 14  1  0  0  0  0
 14 15  1  0  0  0  0
 14 16  1  0  0  0  0
 14 17  1  0  0  0  0
 17 18  1  0  0  0  0
 17 19  1  0  0  0  0
 17 20  1  0  0  0  0
 20 21  1  0  0  0  0
 20 22  1  0  0  0  0
 20 23  1  0  0  0  0
 23 24  1  0  0  0  0
 23 25  1  0  0  0  0
 26 27  2  0  0  0  0
 26 28  1  0  0  0  0
 28 29  1  0  0  0  0
 28 30  1  0  0  0  0
 30 31  1  0  0  0  0
 30 32  1  0  0  0  0
 30 33  1  0  0  0  0
M  END
$$$$

  -OEChem-03222214063D

 33 32  0     1  0  0  0  0  0999 V2000
   -3.6144   -4.0686    1.5967 H   0  0  0  0  0  0  0  0  0  0  0  0
   -3.6713   -3.0524    1.1966 C   0  0  0  0  0  0  0  0  0  0  0  0
   -4.3234   -2.4569    1.8401 H   0  0  0  0  0  0  0  0  0  0  0  0
   -4.0994   -3.0924    0.1922 H   0  0  0  0  0  0  0  0  0  0  0  0
   -2.2877   -2.4322    1.1459 C   0  0  0  0  0  0  0  0  0  0  0  0
   -1.3170   -3.0759    1.5124 O   0  0  0  0  0  0  0  0  0  0  0  0
   -2.1351   -1.1363    0.6987 N   0  0  0  0  0  0  0  0  0  0  0  0
   -2.9823   -0.6069    0.4978 H   0  0  0  0  0  0  0  0  0  0  0  0
   -0.8752   -0.3786    0.7339 C   0  0  1  0  0  0  0  0  0  0  0  0
   -0.2098   -0.8430    1.4695 H   0  0  0  0  0  0  0  0  0  0  0  0
   -0.1668   -0.4876   -0.6448 C   0  0  0  0  0  0  0  0  0  0  0  0
    0.7826   -1.0165   -0.5109 H   0  0  0  0  0  0  0  0  0  0  0  0
   -0.7785   -1.1203   -1.2964 H   0  0  0  0  0  0  0  0  0  0  0  0
    0.0887    0.8302   -1.4036 C   0  0  0  0  0  0  0  0  0  0  0  0
    0.1040    0.6049   -2.4751 H   0  0  0  0  0  0  0  0  0  0  0  0
   -0.7218    1.5482   -1.2509 H   0  0  0  0  0  0  0  0  0  0  0  0
    1.4484    1.4389   -1.0363 C   0  0  0  0  0  0  0  0  0  0  0  0
    1.5056    1.6009    0.0436 H   0  0  0  0  0  0  0  0  0  0  0  0
    2.2503    0.7476   -1.3161 H   0  0  0  0  0  0  0  0  0  0  0  0
    1.6538    2.7689   -1.7545 C   0  0  0  0  0  0  0  0  0  0  0  0
    1.6104    2.6200   -2.8391 H   0  0  0  0  0  0  0  0  0  0  0  0
    0.8611    3.4725   -1.4755 H   0  0  0  0  0  0  0  0  0  0  0  0
    2.9635    3.3081   -1.3757 N   0  0  0  0  0  0  0  0  0  0  0  0
    3.1532    4.1869   -1.8578 H   0  0  0  0  0  0  0  0  0  0  0  0
    3.0328    3.4259   -0.3653 H   0  0  0  0  0  0  0  0  0  0  0  0
   -1.1300    1.0517    1.2590 C   0  0  0  0  0  0  0  0  0  0  0  0
   -2.1511    1.6518    0.9389 O   0  0  0  0  0  0  0  0  0  0  0  0
   -0.2867    1.6124    2.2007 N   0  0  0  0  0  0  0  0  0  0  0  0
    0.5196    1.0675    2.4936 H   0  0  0  0  0  0  0  0  0  0  0  0
   -0.5161    2.9178    2.8066 C   0  0  0  0  0  0  0  0  0  0  0  0
   -1.4716    2.9292    3.3416 H   0  0  0  0  0  0  0  0  0  0  0  0
    0.2816    3.1498    3.5187 H   0  0  0  0  0  0  0  0  0  0  0  0
   -0.5323    3.6979    2.0383 H   0  0  0  0  0  0  0  0  0  0  0  0
  1  2  1  0  0  0  0
  2  3  1  0  0  0  0
  2  4  1  0  0  0  0
  2  5  1  0  0  0  0
  5  6  2  0  0  0  0
  5  7  1  0  0  0  0
  7  8  1  0  0  0  0
  7  9  1  0  0  0  0
  9 10  1  0  0  0  0
  9 11  1  0  0  0  0
  9 26  1  0  0  0  0
 11 12  1  0  0  0  0
 11 13  1  0  0  0  0
 11 14  1  0  0  0  0
 14 15  1  0  0  0  0
 14 16  1  0  0  0  0
 14 17  1  0  0  0  0
 17 18  1  0  0  0  0
 17 19  1  0  0  0  0
 17 20  1  0  0  0  0
 20 21  1  0  0  0  0
 20 22  1  0  0  0  0
 20 23  1  0  0  0  0
 23 24  1  0  0  0  0
 23 25  1  0  0  0  0
 26 27  2  0  0  0  0
 26 28  1  0  0  0  0
 28 29  1  0  0  0  0
 28 30  1  0  0  0  0
 30 31  1  0  0  0  0
 30 32  1  0  0  0  0
 30 33  1  0  0  0  0
M  END
$$$$

  -OEChem-03222214063D

 33 32  0     1  0  0  0  0  0999 V2000
   -3.5907   -4.0776    1.5831 H   0  0  0  0  0  0  0  0  0  0  0  0
   -3.6569   -3.0594    1.1897 C   0  0  0  0  0  0  0  0  0  0  0  0
   -4.3084   -2.4717    1.8409 H   0  0  0  0  0  0  0  0  0  0  0  0
   -4.0914   -3.0957    0.1877 H   0  0  0  0  0  0  0  0  0  0  0  0
   -2.2779   -2.4298    1.1340 C   0  0  0  0  0  0  0  0  0  0  0  0
   -1.2991   -3.0705    1.4838 O   0  0  0  0  0  0  0  0  0  0  0  0
   -2.1404   -1.1274    0.7020 N   0  0  0  0  0  0  0  0  0  0  0  0
   -2.9942   -0.6029    0.5167 H   0  0  0  0  0  0  0  0  0  0  0  0
   -0.8878   -0.3587    0.7335 C   0  0  1  0  0  0  0  0  0  0  0  0
   -0.2188   -0.8256    1.4639 H   0  0  0  0  0  0  0  0  0  0  0  0
   -0.1741   -0.4597   -0.6431 C   0  0  0  0  0  0  0  0  0  0  0  0
    0.7770   -0.9831   -0.4994 H   0  0  0  0  0  0  0  0  0  0  0  0
   -0.7752   -1.1041   -1.2938 H   0  0  0  0  0  0  0  0  0  0  0  0
    0.0764    0.8562   -1.4153 C   0  0  0  0  0  0  0  0  0  0  0  0
   -0.1635    0.6766   -2.4687 H   0  0  0  0  0  0  0  0  0  0  0  0
   -0.5761    1.6696   -1.0914 H   0  0  0  0  0  0  0  0  0  0  0  0
    1.5486    1.2766   -1.3380 C   0  0  0  0  0  0  0  0  0  0  0  0
    1.8348    1.4136   -0.2904 H   0  0  0  0  0  0  0  0  0  0  0  0
    2.1818    0.4910   -1.7636 H   0  0  0  0  0  0  0  0  0  0  0  0
    1.7788    2.5778   -2.1007 C   0  0  0  0  0  0  0  0  0  0  0  0
    1.5061    2.4478   -3.1540 H   0  0  0  0  0  0  0  0  0  0  0  0
    1.1526    3.3743   -1.6832 H   0  0  0  0  0  0  0  0  0  0  0  0
    3.1952    2.9403   -1.9928 N   0  0  0  0  0  0  0  0  0  0  0  0
    3.3973    3.7948   -2.5120 H   0  0  0  0  0  0  0  0  0  0  0  0
    3.4768    3.0326   -1.0172 H   0  0  0  0  0  0  0  0  0  0  0  0
   -1.1416    1.0634    1.2780 C   0  0  0  0  0  0  0  0  0  0  0  0
   -2.1714    1.6602    0.9806 O   0  0  0  0  0  0  0  0  0  0  0  0
   -0.2882    1.6160    2.2152 N   0  0  0  0  0  0  0  0  0  0  0  0
    0.5202    1.0680    2.4958 H   0  0  0  0  0  0  0  0  0  0  0  0
   -0.5221    2.9069    2.8507 C   0  0  0  0  0  0  0  0  0  0  0  0
   -1.4738    2.9008    3.3924 H   0  0  0  0  0  0  0  0  0  0  0  0
    0.2790    3.1284    3.5624 H   0  0  0  0  0  0  0  0  0  0  0  0
   -0.5484    3.7038    2.1002 H   0  0  0  0  0  0  0  0  0  0  0  0
  1  2  1  0  0  0  0
  2  3  1  0  0  0  0
  2  4  1  0  0  0  0
  2  5  1  0  0  0  0
  5  6  2  0  0  0  0
  5  7  1  0  0  0  0
  7  8  1  0  0  0  0
  7  9  1  0  0  0  0
  9 10  1  0  0  0  0
  9 11  1  0  0  0  0
  9 26  1  0  0  0  0
 11 12  1  0  0  0  0
 11 13  1  0  0  0  0
 11 14  1  0  0  0  0
 14 15  1  0  0  0  0
 14 16  1  0  0  0  0
 14 17  1  0  0  0  0
 17 18  1  0  0  0  0
 17 19  1  0  0  0  0
 17 20  1  0  0  0  0
 20 21  1  0  0  0  0
 20 22  1  0  0  0  0
 20 23  1  0  0  0  0
 23 24  1  0  0  0  0
 23 25  1  0  0  0  0
 26 27  2  0  0  0  0
 26 28  1  0  0  0  0
 28 29  1  0  0  0  0
 28 30  1  0  0  0  0
 30 31  1  0  0  0  0
 30 32  1  0  0  0  0
 30 33  1  0  0  0  0
M  END
$$$$

  -OEChem-03222214063D

 33 32  0     1  0  0  0  0  0999 V2000
   -3.5658   -4.0869    1.5512 H   0  0  0  0  0  0  0  0  0  0  0  0
   -3.6360   -3.0674    1.1618 C   0  0  0  0  0  0  0  0  0  0  0  0
   -4.3042   -2.4900    1.8052 H   0  0  0  0  0  0  0  0  0  0  0  0
   -4.0538   -3.1035    0.1528 H   0  0  0  0  0  0  0  0  0  0  0  0
   -2.2629   -2.4231    1.1305 C   0  0  0  0  0  0  0  0  0  0  0  0
   -1.2820   -3.0588    1.4837 O   0  0  0  0  0  0  0  0  0  0  0  0
   -2.1319   -1.1148    0.7138 N   0  0  0  0  0  0  0  0  0  0  0  0
   -2.9871   -0.5954    0.5214 H   0  0  0  0  0  0  0  0  0  0  0  0
   -0.8815   -0.3421    0.7505 C   0  0  1  0  0  0  0  0  0  0  0  0
   -0.2039   -0.8140    1.4695 H   0  0  0  0  0  0  0  0  0  0  0  0
   -0.1864   -0.4245   -0.6388 C   0  0  0  0  0  0  0  0  0  0  0  0
    0.7699   -0.9374   -0.4907 H   0  0  0  0  0  0  0  0  0  0  0  0
   -0.7760   -1.0788   -1.2903 H   0  0  0  0  0  0  0  0  0  0  0  0
    0.0640    0.8924   -1.4165 C   0  0  0  0  0  0  0  0  0  0  0  0
   -0.4585    0.8282   -2.3770 H   0  0  0  0  0  0  0  0  0  0  0  0
   -0.3333    1.7721   -0.9082 H   0  0  0  0  0  0  0  0  0  0  0  0
    1.5600    1.1047   -1.6787 C   0  0  0  0  0  0  0  0  0  0  0  0
    2.0954    1.1564   -0.7253 H   0  0  0  0  0  0  0  0  0  0  0  0
    1.9595    0.2584   -2.2474 H   0  0  0  0  0  0  0  0  0  0  0  0
    1.7942    2.3928   -2.4621 C   0  0  0  0  0  0  0  0  0  0  0  0
    1.2709    2.3469   -3.4237 H   0  0  0  0  0  0  0  0  0  0  0  0
    1.4026    3.2494   -1.9020 H   0  0  0  0  0  0  0  0  0  0  0  0
    3.2344    2.5515   -2.6852 N   0  0  0  0  0  0  0  0  0  0  0  0
    3.4339    3.3977   -3.2188 H   0  0  0  0  0  0  0  0  0  0  0  0
    3.7453    2.5489   -1.8027 H   0  0  0  0  0  0  0  0  0  0  0  0
   -1.1504    1.0693    1.3143 C   0  0  0  0  0  0  0  0  0  0  0  0
   -2.1748    1.6693    1.0058 O   0  0  0  0  0  0  0  0  0  0  0  0
   -0.3028    1.6185    2.2586 N   0  0  0  0  0  0  0  0  0  0  0  0
    0.5049    1.0704    2.5410 H   0  0  0  0  0  0  0  0  0  0  0  0
   -0.5415    2.9063    2.8981 C   0  0  0  0  0  0  0  0  0  0  0  0
   -1.5060    2.9042    3.4168 H   0  0  0  0  0  0  0  0  0  0  0  0
    0.2439    3.1156    3.6308 H   0  0  0  0  0  0  0  0  0  0  0  0
   -0.5432    3.7088    2.1531 H   0  0  0  0  0  0  0  0  0  0  0  0
  1  2  1  0  0  0  0
  2  3  1  0  0  0  0
  2  4  1  0  0  0  0
  2  5  1  0  0  0  0
  5  6  2  0  0  0  0
  5  7  1  0  0  0  0
  7  8  1  0  0  0  0
  7  9  1  0  0  0  0
  9 10  1  0  0  0  0
  9 11  1  0  0  0  0
  9 26  1  0  0  0  0
 11 12  1  0  0  0  0
 11 13  1  0  0  0  0
 11 14  1  0  0  0  0
 14 15  1  0  0  0  0
 14 16  1  0  0  0  0
 14 17  1  0  0  0  0
 17 18  1  0  0  0  0
 17 19  1  0  0  0  0
 17 20  1  0  0  0  0
 20 21  1  0  0  0  0
 20 22  1  0  0  0  0
 20 23  1  0  0  0  0
 23 24  1  0  0  0  0
 23 25  1  0  0  0  0
 26 27  2  0  0  0  0
 26 28  1  0  0  0  0
 28 29  1  0  0  0  0
 28 30  1  0  0  0  0
 30 31  1  0  0  0  0
 30 32  1  0  0  0  0
 30 33  1  0  0  0  0
M  END
$$$$

  -OEChem-03222214063D

 33 32  0     1  0  0  0  0  0999 V2000
   -3.5738   -4.0747    1.5043 H   0  0  0  0  0  0  0  0  0  0  0  0
   -3.6321   -3.0481    1.1321 C   0  0  0  0  0  0  0  0  0  0  0  0
   -4.3026   -2.4765    1.7785 H   0  0  0  0  0  0  0  0  0  0  0  0
   -4.0394   -3.0632    0.1183 H   0  0  0  0  0  0  0  0  0  0  0  0
   -2.2539   -2.4140    1.1261 C   0  0  0  0  0  0  0  0  0  0  0  0
   -1.2833   -3.0564    1.4948 O   0  0  0  0  0  0  0  0  0  0  0  0
   -2.1078   -1.1060    0.7147 N   0  0  0  0  0  0  0  0  0  0  0  0
   -2.9564   -0.5812    0.5072 H   0  0  0  0  0  0  0  0  0  0  0  0
   -0.8526   -0.3424    0.7623 C   0  0  1  0  0  0  0  0  0  0  0  0
   -0.1716   -0.8209    1.4742 H   0  0  0  0  0  0  0  0  0  0  0  0
   -0.1797   -0.4086   -0.6386 C   0  0  0  0  0  0  0  0  0  0  0  0
    0.7827   -0.9099   -0.4906 H   0  0  0  0  0  0  0  0  0  0  0  0
   -0.7602   -1.0627   -1.2977 H   0  0  0  0  0  0  0  0  0  0  0  0
    0.0714    0.9193   -1.3952 C   0  0  0  0  0  0  0  0  0  0  0  0
   -0.6838    1.0279   -2.1809 H   0  0  0  0  0  0  0  0  0  0  0  0
   -0.0126    1.7915   -0.7445 H   0  0  0  0  0  0  0  0  0  0  0  0
    1.4794    0.9488   -2.0027 C   0  0  0  0  0  0  0  0  0  0  0  0
    2.2270    0.8871   -1.2052 H   0  0  0  0  0  0  0  0  0  0  0  0
    1.6136    0.0845   -2.6619 H   0  0  0  0  0  0  0  0  0  0  0  0
    1.6957    2.2297   -2.8039 C   0  0  0  0  0  0  0  0  0  0  0  0
    0.9528    2.2994   -3.6064 H   0  0  0  0  0  0  0  0  0  0  0  0
    1.5775    3.1042   -2.1546 H   0  0  0  0  0  0  0  0  0  0  0  0
    3.0459    2.2032   -3.3746 N   0  0  0  0  0  0  0  0  0  0  0  0
    3.2270    3.0370   -3.9337 H   0  0  0  0  0  0  0  0  0  0  0  0
    3.7507    2.0932   -2.6458 H   0  0  0  0  0  0  0  0  0  0  0  0
   -1.1353    1.0647    1.3302 C   0  0  0  0  0  0  0  0  0  0  0  0
   -2.1469    1.6709    0.9928 O   0  0  0  0  0  0  0  0  0  0  0  0
   -0.3030    1.6154    2.2874 N   0  0  0  0  0  0  0  0  0  0  0  0
    0.4907    1.0610    2.5963 H   0  0  0  0  0  0  0  0  0  0  0  0
   -0.5616    2.8981    2.9299 C   0  0  0  0  0  0  0  0  0  0  0  0
   -1.5245    2.8781    3.4515 H   0  0  0  0  0  0  0  0  0  0  0  0
    0.2223    3.1205    3.6603 H   0  0  0  0  0  0  0  0  0  0  0  0
   -0.5797    3.7018    2.1863 H   0  0  0  0  0  0  0  0  0  0  0  0
  1  2  1  0  0  0  0
  2  3  1  0  0  0  0
  2  4  1  0  0  0  0
  2  5  1  0  0  0  0
  5  6  2  0  0  0  0
  5  7  1  0  0  0  0
  7  8  1  0  0  0  0
  7  9  1  0  0  0  0
  9 10  1  0  0  0  0
  9 11  1  0  0  0  0
  9 26  1  0  0  0  0
 11 12  1  0  0  0  0
 11 13  1  0  0  0  0
 11 14  1  0  0  0  0
 14 15  1  0  0  0  0
 14 16  1  0  0  0  0
 14 17  1  0  0  0  0
 17 18  1  0  0  0  0
 17 19  1  0  0  0  0
 17 20  1  0  0  0  0
 20 21  1  0  0  0  0
 20 22  1  0  0  0  0
 20 23  1  0  0  0  0
 23 24  1  0  0  0  0
 23 25  1  0  0  0  0
 26 27  2  0  0  0  0
 26 28  1  0  0  0  0
 28 29  1  0  0  0  0
 28 30  1  0  0  0  0
 30 31  1  0  0  0  0
 30 32  1  0  0  0  0
 30 33  1  0  0  0  0
M  END
$$$$

  -OEChem-03222214063D

 33 32  0     1  0  0  0  0  0999 V2000
   -3.5901   -4.0623    1.5195 H   0  0  0  0  0  0  0  0  0  0  0  0
   -3.6403   -3.0411    1.1314 C   0  0  0  0  0  0  0  0  0  0  0  0
   -4.3163   -2.4576    1.7613 H   0  0  0  0  0  0  0  0  0  0  0  0
   -4.0359   -3.0699    0.1131 H   0  0  0  0  0  0  0  0  0  0  0  0
   -2.2594   -2.4132    1.1325 C   0  0  0  0  0  0  0  0  0  0  0  0
   -1.2960   -3.0573    1.5174 O   0  0  0  0  0  0  0  0  0  0  0  0
   -2.1014   -1.1102    0.7093 N   0  0  0  0  0  0  0  0  0  0  0  0
   -2.9433   -0.5825    0.4835 H   0  0  0  0  0  0  0  0  0  0  0  0
   -0.8388   -0.3592    0.7547 C   0  0  1  0  0  0  0  0  0  0  0  0
   -0.1567   -0.8399    1.4638 H   0  0  0  0  0  0  0  0  0  0  0  0
   -0.1792   -0.4217   -0.6511 C   0  0  0  0  0  0  0  0  0  0  0  0
    0.7851   -0.9225   -0.5155 H   0  0  0  0  0  0  0  0  0  0  0  0
   -0.7680   -1.0631   -1.3157 H   0  0  0  0  0  0  0  0  0  0  0  0
    0.0687    0.9194   -1.3768 C   0  0  0  0  0  0  0  0  0  0  0  0
   -0.8262    1.1988   -1.9430 H   0  0  0  0  0  0  0  0  0  0  0  0
    0.2793    1.7224   -0.6660 H   0  0  0  0  0  0  0  0  0  0  0  0
    1.2915    0.8195   -2.2973 C   0  0  0  0  0  0  0  0  0  0  0  0
    2.1856    0.5988   -1.7050 H   0  0  0  0  0  0  0  0  0  0  0  0
    1.1467    0.0004   -3.0098 H   0  0  0  0  0  0  0  0  0  0  0  0
    1.4995    2.1220   -3.0651 C   0  0  0  0  0  0  0  0  0  0  0  0
    0.6140    2.3451   -3.6707 H   0  0  0  0  0  0  0  0  0  0  0  0
    1.6504    2.9513   -2.3652 H   0  0  0  0  0  0  0  0  0  0  0  0
    2.6724    1.9722   -3.9319 N   0  0  0  0  0  0  0  0  0  0  0  0
    2.8434    2.8201   -4.4726 H   0  0  0  0  0  0  0  0  0  0  0  0
    3.4976    1.7118   -3.3922 H   0  0  0  0  0  0  0  0  0  0  0  0
   -1.1131    1.0552    1.3098 C   0  0  0  0  0  0  0  0  0  0  0  0
   -2.1121    1.6724    0.9553 O   0  0  0  0  0  0  0  0  0  0  0  0
   -0.2804    1.6064    2.2663 N   0  0  0  0  0  0  0  0  0  0  0  0
    0.5022    1.0441    2.5887 H   0  0  0  0  0  0  0  0  0  0  0  0
   -0.5214    2.9036    2.8861 C   0  0  0  0  0  0  0  0  0  0  0  0
   -1.4917    2.9117    3.3937 H   0  0  0  0  0  0  0  0  0  0  0  0
    0.2567    3.1197    3.6244 H   0  0  0  0  0  0  0  0  0  0  0  0
   -0.5119    3.6968    2.1313 H   0  0  0  0  0  0  0  0  0  0  0  0
  1  2  1  0  0  0  0
  2  3  1  0  0  0  0
  2  4  1  0  0  0  0
  2  5  1  0  0  0  0
  5  6  2  0  0  0  0
  5  7  1  0  0  0  0
  7  8  1  0  0  0  0
  7  9  1  0  0  0  0
  9 10  1  0  0  0  0
  9 11  1  0  0  0  0
  9 26  1  0  0  0  0
 11 12  1  0  0  0  0
 11 13  1  0  0  0  0
 11 14  1  0  0  0  0
 14 15  1  0  0  0  0
 14 16  1  0  0  0  0
 14 17  1  0  0  0  0
 17 18  1  0  0  0  0
 17 19  1  0  0  0  0
 17 20  1  0  0  0  0
 20 21  1  0  0  0  0
 20 22  1  0  0  0  0
 20 23  1  0  0  0  0
 23 24  1  0  0  0  0
 23 25  1  0  0  0  0
 26 27  2  0  0  0  0
 26 28  1  0  0  0  0
 28 29  1  0  0  0  0
 28 30  1  0  0  0  0
 30 31  1  0  0  0  0
 30 32  1  0  0  0  0
 30 33  1  0  0  0  0
M  END
$$$$

  -OEChem-03222214063D

 33 32  0     1  0  0  0  0  0999 V2000
   -3.6049   -4.0510    1.5591 H   0  0  0  0  0  0  0  0  0  0  0  0
   -3.6506   -3.0403    1.1442 C   0  0  0  0  0  0  0  0  0  0  0  0
   -4.3302   -2.4397    1.7534 H   0  0  0  0  0  0  0  0  0  0  0  0
   -4.0381   -3.0948    0.1241 H   0  0  0  0  0  0  0  0  0  0  0  0
   -2.2685   -2.4151    1.1391 C   0  0  0  0  0  0  0  0  0  0  0  0
   -1.3056   -3.0594    1.5249 O   0  0  0  0  0  0  0  0  0  0  0  0
   -2.1071   -1.1164    0.7035 N   0  0  0  0  0  0  0  0  0  0  0  0
   -2.9477   -0.5885    0.4736 H   0  0  0  0  0  0  0  0  0  0  0  0
   -0.8415   -0.3695    0.7387 C   0  0  1  0  0  0  0  0  0  0  0  0
   -0.1608   -0.8490    1.4498 H   0  0  0  0  0  0  0  0  0  0  0  0
   -0.1827   -0.4447   -0.6648 C   0  0  0  0  0  0  0  0  0  0  0  0
    0.7841   -0.9429   -0.5390 H   0  0  0  0  0  0  0  0  0  0  0  0
   -0.7799   -1.0818   -1.3262 H   0  0  0  0  0  0  0  0  0  0  0  0
    0.0546    0.9020   -1.3733 C   0  0  0  0  0  0  0  0  0  0  0  0
   -0.9015    1.3082   -1.7213 H   0  0  0  0  0  0  0  0  0  0  0  0
    0.5008    1.6238   -0.6822 H   0  0  0  0  0  0  0  0  0  0  0  0
    1.0211    0.7261   -2.5497 C   0  0  0  0  0  0  0  0  0  0  0  0
    1.9823    0.3493   -2.1855 H   0  0  0  0  0  0  0  0  0  0  0  0
    0.6143   -0.0085   -3.2528 H   0  0  0  0  0  0  0  0  0  0  0  0
    1.2363    2.0513   -3.2746 C   0  0  0  0  0  0  0  0  0  0  0  0
    0.2821    2.4263   -3.6613 H   0  0  0  0  0  0  0  0  0  0  0  0
    1.6390    2.7982   -2.5815 H   0  0  0  0  0  0  0  0  0  0  0  0
    2.1742    1.8331   -4.3800 N   0  0  0  0  0  0  0  0  0  0  0  0
    2.3423    2.6957   -4.8978 H   0  0  0  0  0  0  0  0  0  0  0  0
    3.0503    1.4334   -4.0443 H   0  0  0  0  0  0  0  0  0  0  0  0
   -1.0941    1.0551    1.2801 C   0  0  0  0  0  0  0  0  0  0  0  0
   -2.0909    1.6787    0.9312 O   0  0  0  0  0  0  0  0  0  0  0  0
   -0.2476    1.6050    2.2256 N   0  0  0  0  0  0  0  0  0  0  0  0
    0.5342    1.0387    2.5427 H   0  0  0  0  0  0  0  0  0  0  0  0
   -0.4685    2.9096    2.8379 C   0  0  0  0  0  0  0  0  0  0  0  0
   -1.4498    2.9451    3.3227 H   0  0  0  0  0  0  0  0  0  0  0  0
    0.2967    3.1066    3.5948 H   0  0  0  0  0  0  0  0  0  0  0  0
   -0.4197    3.7005    2.0821 H   0  0  0  0  0  0  0  0  0  0  0  0
  1  2  1  0  0  0  0
  2  3  1  0  0  0  0
  2  4  1  0  0  0  0
  2  5  1  0  0  0  0
  5  6  2  0  0  0  0
  5  7  1  0  0  0  0
  7  8  1  0  0  0  0
  7  9  1  0  0  0  0
  9 10  1  0  0  0  0
  9 11  1  0  0  0  0
  9 26  1  0  0  0  0
 11 12  1  0  0  0  0
 11 13  1  0  0  0  0
 11 14  1  0  0  0  0
 14 15  1  0  0  0  0
 14 16  1  0  0  0  0
 14 17  1  0  0  0  0
 17 18  1  0  0  0  0
 17 19  1  0  0  0  0
 17 20  1  0  0  0  0
 20 21  1  0  0  0  0
 20 22  1  0  0  0  0
 20 23  1  0  0  0  0
 23 24  1  0  0  0  0
 23 25  1  0  0  0  0
 26 27  2  0  0  0  0
 26 28  1  0  0  0  0
 28 29  1  0  0  0  0
 28 30  1  0  0  0  0
 30 31  1  0  0  0  0
 30 32  1  0  0  0  0
 30 33  1  0  0  0  0
M  END
$$$$

  -OEChem-03222214063D

 33 32  0     1  0  0  0  0  0999 V2000
   -3.6295   -4.0344    1.5743 H   0  0  0  0  0  0  0  0  0  0  0  0
   -3.6628   -3.0271    1.1497 C   0  0  0  0  0  0  0  0  0  0  0  0
   -4.3407   -2.4143    1.7489 H   0  0  0  0  0  0  0  0  0  0  0  0
   -4.0444   -3.0875    0.1277 H   0  0  0  0  0  0  0  0  0  0  0  0
   -2.2749   -2.4143    1.1473 C   0  0  0  0  0  0  0  0  0  0  0  0
   -1.3210   -3.0606    1.5521 O   0  0  0  0  0  0  0  0  0  0  0  0
   -2.0977   -1.1235    0.6951 N   0  0  0  0  0  0  0  0  0  0  0  0
   -2.9318   -0.5888    0.4565 H   0  0  0  0  0  0  0  0  0  0  0  0
   -0.8255   -0.3882    0.7347 C   0  0  1  0  0  0  0  0  0  0  0  0
   -0.1468   -0.8576    1.4544 H   0  0  0  0  0  0  0  0  0  0  0  0
   -0.1605   -0.4674   -0.6638 C   0  0  0  0  0  0  0  0  0  0  0  0
    0.6367   -1.2168   -0.6229 H   0  0  0  0  0  0  0  0  0  0  0  0
   -0.8978   -0.8245   -1.3910 H   0  0  0  0  0  0  0  0  0  0  0  0
    0.4132    0.8565   -1.1976 C   0  0  0  0  0  0  0  0  0  0  0  0
   -0.3854    1.6011   -1.2843 H   0  0  0  0  0  0  0  0  0  0  0  0
    1.1689    1.2404   -0.5043 H   0  0  0  0  0  0  0  0  0  0  0  0
    1.0412    0.6488   -2.5797 C   0  0  0  0  0  0  0  0  0  0  0  0
    1.8496   -0.0859   -2.5094 H   0  0  0  0  0  0  0  0  0  0  0  0
    0.2883    0.2578   -3.2722 H   0  0  0  0  0  0  0  0  0  0  0  0
    1.5920    1.9625   -3.1264 C   0  0  0  0  0  0  0  0  0  0  0  0
    0.7841    2.6967   -3.2218 H   0  0  0  0  0  0  0  0  0  0  0  0
    2.3427    2.3703   -2.4405 H   0  0  0  0  0  0  0  0  0  0  0  0
    2.1934    1.7071   -4.4387 N   0  0  0  0  0  0  0  0  0  0  0  0
    2.5687    2.5634   -4.8465 H   0  0  0  0  0  0  0  0  0  0  0  0
    2.9123    0.9862   -4.3792 H   0  0  0  0  0  0  0  0  0  0  0  0
   -1.0807    1.0444    1.2541 C   0  0  0  0  0  0  0  0  0  0  0  0
   -2.0722    1.6652    0.8858 O   0  0  0  0  0  0  0  0  0  0  0  0
   -0.2459    1.6044    2.2041 N   0  0  0  0  0  0  0  0  0  0  0  0
    0.5263    1.0382    2.5439 H   0  0  0  0  0  0  0  0  0  0  0  0
   -0.4757    2.9153    2.7992 C   0  0  0  0  0  0  0  0  0  0  0  0
   -1.4613    2.9537    3.2750 H   0  0  0  0  0  0  0  0  0  0  0  0
    0.2820    3.1235    3.5606 H   0  0  0  0  0  0  0  0  0  0  0  0
   -0.4220    3.6974    2.0348 H   0  0  0  0  0  0  0  0  0  0  0  0
  1  2  1  0  0  0  0
  2  3  1  0  0  0  0
  2  4  1  0  0  0  0
  2  5  1  0  0  0  0
  5  6  2  0  0  0  0
  5  7  1  0  0  0  0
  7  8  1  0  0  0  0
  7  9  1  0  0  0  0
  9 10  1  0  0  0  0
  9 11  1  0  0  0  0
  9 26  1  0  0  0  0
 11 12  1  0  0  0  0
 11 13  1  0  0  0  0
 11 14  1  0  0  0  0
 14 15  1  0  0  0  0
 14 16  1  0  0  0  0
 14 17  1  0  0  0  0
 17 18  1  0  0  0  0
 17 19  1  0  0  0  0
 17 20  1  0  0  0  0
 20 21  1  0  0  0  0
 20 22  1  0  0  0  0
 20 23  1  0  0  0  0
 23 24  1  0  0  0  0
 23 25  1  0  0  0  0
 26 27  2  0  0  0  0
 26 28  1  0  0  0  0
 28 29  1  0  0  0  0
 28 30  1  0  0  0  0
 30 31  1  0  0  0  0
 30 32  1  0  0  0  0
 30 33  1  0  0  0  0
M  END
$$$$

  -OEChem-03222214063D

 33 32  0     1  0  0  0  0  0999 V2000
   -3.6134   -4.0441    1.5318 H   0  0  0  0  0  0  0  0  0  0  0  0
   -3.6574   -3.0223    1.1447 C   0  0  0  0  0  0  0  0  0  0  0  0
   -4.3239   -2.4336    1.7796 H   0  0  0  0  0  0  0  0  0  0  0  0
   -4.0601   -3.0472    0.1293 H   0  0  0  0  0  0  0  0  0  0  0  0
   -2.2710   -2.4065    1.1359 C   0  0  0  0  0  0  0  0  0  0  0  0
   -1.3113   -3.0569    1.5199 O   0  0  0  0  0  0  0  0  0  0  0  0
   -2.1014   -1.1096    0.6991 N   0  0  0  0  0  0  0  0  0  0  0  0
   -2.9390   -0.5734    0.4766 H   0  0  0  0  0  0  0  0  0  0  0  0
   -0.8313   -0.3710    0.7372 C   0  0  1  0  0  0  0  0  0  0  0  0
   -0.1507   -0.8456    1.4515 H   0  0  0  0  0  0  0  0  0  0  0  0
   -0.1633   -0.4443   -0.6618 C   0  0  0  0  0  0  0  0  0  0  0  0
    0.6279   -1.2007   -0.6359 H   0  0  0  0  0  0  0  0  0  0  0  0
   -0.9139   -0.7956   -1.3784 H   0  0  0  0  0  0  0  0  0  0  0  0
    0.4148    0.8737   -1.2138 C   0  0  0  0  0  0  0  0  0  0  0  0
   -0.3022    1.6912   -1.0903 H   0  0  0  0  0  0  0  0  0  0  0  0
    1.3280    1.1343   -0.6688 H   0  0  0  0  0  0  0  0  0  0  0  0
    0.7010    0.7425   -2.7145 C   0  0  0  0  0  0  0  0  0  0  0  0
    1.4061   -0.0778   -2.8825 H   0  0  0  0  0  0  0  0  0  0  0  0
   -0.2257    0.5067   -3.2483 H   0  0  0  0  0  0  0  0  0  0  0  0
    1.2842    2.0365   -3.2739 C   0  0  0  0  0  0  0  0  0  0  0  0
    0.5783    2.8613   -3.1249 H   0  0  0  0  0  0  0  0  0  0  0  0
    2.2145    2.2858   -2.7517 H   0  0  0  0  0  0  0  0  0  0  0  0
    1.5421    1.8510   -4.7052 N   0  0  0  0  0  0  0  0  0  0  0  0
    1.9190    2.6997   -5.1268 H   0  0  0  0  0  0  0  0  0  0  0  0
    2.1616    1.0572   -4.8670 H   0  0  0  0  0  0  0  0  0  0  0  0
   -1.0873    1.0528    1.2771 C   0  0  0  0  0  0  0  0  0  0  0  0
   -2.0914    1.6690    0.9358 O   0  0  0  0  0  0  0  0  0  0  0  0
   -0.2460    1.6025    2.2269 N   0  0  0  0  0  0  0  0  0  0  0  0
    0.5318    1.0346    2.5510 H   0  0  0  0  0  0  0  0  0  0  0  0
   -0.4837    2.8972    2.8526 C   0  0  0  0  0  0  0  0  0  0  0  0
   -1.4339    2.8909    3.3969 H   0  0  0  0  0  0  0  0  0  0  0  0
    0.3189    3.1283    3.5596 H   0  0  0  0  0  0  0  0  0  0  0  0
   -0.5158    3.6882    2.0959 H   0  0  0  0  0  0  0  0  0  0  0  0
  1  2  1  0  0  0  0
  2  3  1  0  0  0  0
  2  4  1  0  0  0  0
  2  5  1  0  0  0  0
  5  6  2  0  0  0  0
  5  7  1  0  0  0  0
  7  8  1  0  0  0  0
  7  9  1  0  0  0  0
  9 10  1  0  0  0  0
  9 11  1  0  0  0  0
  9 26  1  0  0  0  0
 11 12  1  0  0  0  0
 11 13  1  0  0  0  0
 11 14  1  0  0  0  0
 14 15  1  0  0  0  0
 14 16  1  0  0  0  0
 14 17  1  0  0  0  0
 17 18  1  0  0  0  0
 17 19  1  0  0  0  0
 17 20  1  0  0  0  0
 20 21  1  0  0  0  0
 20 22  1  0  0  0  0
 20 23  1  0  0  0  0
 23 24  1  0  0  0  0
 23 25  1  0  0  0  0
 26 27  2  0  0  0  0
 26 28  1  0  0  0  0
 28 29  1  0  0  0  0
 28 30  1  0  0  0  0
 30 31  1  0  0  0  0
 30 32  1  0  0  0  0
 30 33  1  0  0  0  0
M  END
$$$$

  -OEChem-03222214063D

 33 32  0     1  0  0  0  0  0999 V2000
   -3.6068   -4.0462    1.5114 H   0  0  0  0  0  0  0  0  0  0  0  0
   -3.6537   -3.0193    1.1385 C   0  0  0  0  0  0  0  0  0  0  0  0
   -4.3144   -2.4389    1.7871 H   0  0  0  0  0  0  0  0  0  0  0  0
   -4.0654   -3.0304    0.1264 H   0  0  0  0  0  0  0  0  0  0  0  0
   -2.2676   -2.4027    1.1260 C   0  0  0  0  0  0  0  0  0  0  0  0
   -1.3041   -3.0570    1.4934 O   0  0  0  0  0  0  0  0  0  0  0  0
   -2.1033   -1.0990    0.7080 N   0  0  0  0  0  0  0  0  0  0  0  0
   -2.9433   -0.5615    0.4976 H   0  0  0  0  0  0  0  0  0  0  0  0
   -0.8337   -0.3587    0.7469 C   0  0  1  0  0  0  0  0  0  0  0  0
   -0.1501   -0.8410    1.4532 H   0  0  0  0  0  0  0  0  0  0  0  0
   -0.1708   -0.4238   -0.6573 C   0  0  0  0  0  0  0  0  0  0  0  0
    0.6141   -1.1869   -0.6428 H   0  0  0  0  0  0  0  0  0  0  0  0
   -0.9325   -0.7754   -1.3616 H   0  0  0  0  0  0  0  0  0  0  0  0
    0.4148    0.8860   -1.2330 C   0  0  0  0  0  0  0  0  0  0  0  0
   -0.1502    1.7594   -0.8989 H   0  0  0  0  0  0  0  0  0  0  0  0
    1.4484    1.0047   -0.8919 H   0  0  0  0  0  0  0  0  0  0  0  0
    0.3446    0.8802   -2.7657 C   0  0  0  0  0  0  0  0  0  0  0  0
    0.8796    0.0067   -3.1520 H   0  0  0  0  0  0  0  0  0  0  0  0
   -0.6998    0.8082   -3.0880 H   0  0  0  0  0  0  0  0  0  0  0  0
    0.9593    2.1504   -3.3467 C   0  0  0  0  0  0  0  0  0  0  0  0
    0.4178    3.0304   -2.9819 H   0  0  0  0  0  0  0  0  0  0  0  0
    2.0052    2.2399   -3.0329 H   0  0  0  0  0  0  0  0  0  0  0  0
    0.8757    2.0823   -4.8089 N   0  0  0  0  0  0  0  0  0  0  0  0
    1.2650    2.9199   -5.2415 H   0  0  0  0  0  0  0  0  0  0  0  0
    1.3323    1.2423   -5.1639 H   0  0  0  0  0  0  0  0  0  0  0  0
   -1.0921    1.0551    1.3113 C   0  0  0  0  0  0  0  0  0  0  0  0
   -2.0992    1.6736    0.9836 O   0  0  0  0  0  0  0  0  0  0  0  0
   -0.2466    1.5945    2.2638 N   0  0  0  0  0  0  0  0  0  0  0  0
    0.5360    1.0256    2.5739 H   0  0  0  0  0  0  0  0  0  0  0  0
   -0.4836    2.8805    2.9083 C   0  0  0  0  0  0  0  0  0  0  0  0
   -1.4296    2.8644    3.4596 H   0  0  0  0  0  0  0  0  0  0  0  0
    0.3234    3.1053    3.6121 H   0  0  0  0  0  0  0  0  0  0  0  0
   -0.5238    3.6810    2.1623 H   0  0  0  0  0  0  0  0  0  0  0  0
  1  2  1  0  0  0  0
  2  3  1  0  0  0  0
  2  4  1  0  0  0  0
  2  5  1  0  0  0  0
  5  6  2  0  0  0  0
  5  7  1  0  0  0  0
  7  8  1  0  0  0  0
  7  9  1  0  0  0  0
  9 10  1  0  0  0  0
  9 11  1  0  0  0  0
  9 26  1  0  0  0  0
 11 12  1  0  0  0  0
 11 13  1  0  0  0  0
 11 14  1  0  0  0  0
 14 15  1  0  0  0  0
 14 16  1  0  0  0  0
 14 17  1  0  0  0  0
 17 18  1  0  0  0  0
 17 19  1  0  0  0  0
 17 20  1  0  0  0  0
 20 21  1  0  0  0  0
 20 22  1  0  0  0  0
 20 23  1  0  0  0  0
 23 24  1  0  0  0  0
 23 25  1  0  0  0  0
 26 27  2  0  0  0  0
 26 28  1  0  0  0  0
 28 29  1  0  0  0  0
 28 30  1  0  0  0  0
 30 31  1  0  0  0  0
 30 32  1  0  0  0  0
 30 33  1  0  0  0  0
M  END
$$$$

  -OEChem-03222214063D

 33 32  0     1  0  0  0  0  0999 V2000
   -3.6203   -4.0362    1.5203 H   0  0  0  0  0  0  0  0  0  0  0  0
   -3.6613   -3.0112    1.1414 C   0  0  0  0  0  0  0  0  0  0  0  0
   -4.3203   -2.4235    1.7850 H   0  0  0  0  0  0  0  0  0  0  0  0
   -4.0705   -3.0255    0.1283 H   0  0  0  0  0  0  0  0  0  0  0  0
   -2.2723   -2.4019    1.1291 C   0  0  0  0  0  0  0  0  0  0  0  0
   -1.3110   -3.0632    1.4895 O   0  0  0  0  0  0  0  0  0  0  0  0
   -2.1024   -1.0971    0.7175 N   0  0  0  0  0  0  0  0  0  0  0  0
   -2.9398   -0.5537    0.5115 H   0  0  0  0  0  0  0  0  0  0  0  0
   -0.8287   -0.3641    0.7575 C   0  0  1  0  0  0  0  0  0  0  0  0
   -0.1428   -0.8517    1.4580 H   0  0  0  0  0  0  0  0  0  0  0  0
   -0.1777   -0.4265   -0.6537 C   0  0  0  0  0  0  0  0  0  0  0  0
    0.6029   -1.1939   -0.6400 H   0  0  0  0  0  0  0  0  0  0  0  0
   -0.9427   -0.7844   -1.3515 H   0  0  0  0  0  0  0  0  0  0  0  0
    0.4199    0.8745   -1.2462 C   0  0  0  0  0  0  0  0  0  0  0  0
    0.0882    1.7670   -0.7129 H   0  0  0  0  0  0  0  0  0  0  0  0
    1.5109    0.8352   -1.1623 H   0  0  0  0  0  0  0  0  0  0  0  0
    0.0106    1.0456   -2.7149 C   0  0  0  0  0  0  0  0  0  0  0  0
    0.3393    0.1738   -3.2899 H   0  0  0  0  0  0  0  0  0  0  0  0
   -1.0805    1.1102   -2.7892 H   0  0  0  0  0  0  0  0  0  0  0  0
    0.6284    2.3080   -3.3091 C   0  0  0  0  0  0  0  0  0  0  0  0
    0.2823    3.1901   -2.7587 H   0  0  0  0  0  0  0  0  0  0  0  0
    1.7203    2.2643   -3.2307 H   0  0  0  0  0  0  0  0  0  0  0  0
    0.2292    2.4071   -4.7162 N   0  0  0  0  0  0  0  0  0  0  0  0
    0.6133    3.2456   -5.1518 H   0  0  0  0  0  0  0  0  0  0  0  0
    0.4988    1.5708   -5.2339 H   0  0  0  0  0  0  0  0  0  0  0  0
   -1.0911    1.0451    1.3312 C   0  0  0  0  0  0  0  0  0  0  0  0
   -2.0922    1.6698    0.9968 O   0  0  0  0  0  0  0  0  0  0  0  0
   -0.2478    1.5800    2.2881 N   0  0  0  0  0  0  0  0  0  0  0  0
    0.5364    1.0115    2.5949 H   0  0  0  0  0  0  0  0  0  0  0  0
   -0.4736    2.8732    2.9216 C   0  0  0  0  0  0  0  0  0  0  0  0
   -1.4292    2.8767    3.4565 H   0  0  0  0  0  0  0  0  0  0  0  0
    0.3246    3.0878    3.6386 H   0  0  0  0  0  0  0  0  0  0  0  0
   -0.4869    3.6699    2.1704 H   0  0  0  0  0  0  0  0  0  0  0  0
  1  2  1  0  0  0  0
  2  3  1  0  0  0  0
  2  4  1  0  0  0  0
  2  5  1  0  0  0  0
  5  6  2  0  0  0  0
  5  7  1  0  0  0  0
  7  8  1  0  0  0  0
  7  9  1  0  0  0  0
  9 10  1  0  0  0  0
  9 11  1  0  0  0  0
  9 26  1  0  0  0  0
 11 12  1  0  0  0  0
 11 13  1  0  0  0  0
 11 14  1  0  0  0  0
 14 15  1  0  0  0  0
 14 16  1  0  0  0  0
 14 17  1  0  0  0  0
 17 18  1  0  0  0  0
 17 19  1  0  0  0  0
 17 20  1  0  0  0  0
 20 21  1  0  0  0  0
 20 22  1  0  0  0  0
 20 23  1  0  0  0  0
 23 24  1  0  0  0  0
 23 25  1  0  0  0  0
 26 27  2  0  0  0  0
 26 28  1  0  0  0  0
 28 29  1  0  0  0  0
 28 30  1  0  0  0  0
 30 31  1  0  0  0  0
 30 32  1  0  0  0  0
 30 33  1  0  0  0  0
M  END
$$$$

  -OEChem-03222214063D

 33 32  0     1  0  0  0  0  0999 V2000
   -3.6431   -4.0248    1.5511 H   0  0  0  0  0  0  0  0  0  0  0  0
   -3.6753   -3.0019    1.1655 C   0  0  0  0  0  0  0  0  0  0  0  0
   -4.3304   -2.4046    1.8046 H   0  0  0  0  0  0  0  0  0  0  0  0
   -4.0836   -3.0199    0.1522 H   0  0  0  0  0  0  0  0  0  0  0  0
   -2.2810   -2.4044    1.1500 C   0  0  0  0  0  0  0  0  0  0  0  0
   -1.3264   -3.0700    1.5203 O   0  0  0  0  0  0  0  0  0  0  0  0
   -2.0984   -1.1061    0.7233 N   0  0  0  0  0  0  0  0  0  0  0  0
   -2.9304   -0.5570    0.5100 H   0  0  0  0  0  0  0  0  0  0  0  0
   -0.8184   -0.3843    0.7577 C   0  0  1  0  0  0  0  0  0  0  0  0
   -0.1310   -0.8695    1.4583 H   0  0  0  0  0  0  0  0  0  0  0  0
   -0.1834   -0.4525   -0.6600 C   0  0  0  0  0  0  0  0  0  0  0  0
    0.6039   -1.2127   -0.6316 H   0  0  0  0  0  0  0  0  0  0  0  0
   -0.9384   -0.8279   -1.3597 H   0  0  0  0  0  0  0  0  0  0  0  0
    0.4208    0.8445   -1.2555 C   0  0  0  0  0  0  0  0  0  0  0  0
    0.3810    1.6888   -0.5650 H   0  0  0  0  0  0  0  0  0  0  0  0
    1.4807    0.6644   -1.4634 H   0  0  0  0  0  0  0  0  0  0  0  0
   -0.2784    1.2316   -2.5648 C   0  0  0  0  0  0  0  0  0  0  0  0
   -0.1866    0.4128   -3.2860 H   0  0  0  0  0  0  0  0  0  0  0  0
   -1.3440    1.4003   -2.3749 H   0  0  0  0  0  0  0  0  0  0  0  0
    0.3320    2.4992   -3.1552 C   0  0  0  0  0  0  0  0  0  0  0  0
    0.2032    3.3357   -2.4592 H   0  0  0  0  0  0  0  0  0  0  0  0
    1.4055    2.3574   -3.3220 H   0  0  0  0  0  0  0  0  0  0  0  0
   -0.3385    2.7952   -4.4248 N   0  0  0  0  0  0  0  0  0  0  0  0
    0.0299    3.6465   -4.8484 H   0  0  0  0  0  0  0  0  0  0  0  0
   -0.2700    2.0075   -5.0688 H   0  0  0  0  0  0  0  0  0  0  0  0
   -1.0824    1.0314    1.3155 C   0  0  0  0  0  0  0  0  0  0  0  0
   -2.0793    1.6553    0.9681 O   0  0  0  0  0  0  0  0  0  0  0  0
   -0.2432    1.5745    2.2713 N   0  0  0  0  0  0  0  0  0  0  0  0
    0.5379    1.0077    2.5884 H   0  0  0  0  0  0  0  0  0  0  0  0
   -0.4722    2.8729    2.8930 C   0  0  0  0  0  0  0  0  0  0  0  0
   -1.4292    2.8795    3.4252 H   0  0  0  0  0  0  0  0  0  0  0  0
    0.3236    3.0946    3.6105 H   0  0  0  0  0  0  0  0  0  0  0  0
   -0.4846    3.6634    2.1351 H   0  0  0  0  0  0  0  0  0  0  0  0
  1  2  1  0  0  0  0
  2  3  1  0  0  0  0
  2  4  1  0  0  0  0
  2  5  1  0  0  0  0
  5  6  2  0  0  0  0
  5  7  1  0  0  0  0
  7  8  1  0  0  0  0
  7  9  1  0  0  0  0
  9 10  1  0  0  0  0
  9 11  1  0  0  0  0
  9 26  1  0  0  0  0
 11 12  1  0  0  0  0
 11 13  1  0  0  0  0
 11 14  1  0  0  0  0
 14 15  1  0  0  0  0
 14 16  1  0  0  0  0
 14 17  1  0  0  0  0
 17 18  1  0  0  0  0
 17 19  1  0  0  0  0
 17 20  1  0  0  0  0
 20 21  1  0  0  0  0
 20 22  1  0  0  0  0
 20 23  1  0  0  0  0
 23 24  1  0  0  0  0
 23 25  1  0  0  0  0
 26 27  2  0  0  0  0
 26 28  1  0  0  0  0
 28 29  1  0  0  0  0
 28 30  1  0  0  0  0
 30 31  1  0  0  0  0
 30 32  1  0  0  0  0
 30 33  1  0  0  0  0
M  END
$$$$

  -OEChem-03222214063D

 33 32  0     1  0  0  0  0  0999 V2000
   -3.6527   -4.0199    1.6037 H   0  0  0  0  0  0  0  0  0  0  0  0
   -3.6839   -3.0026    1.2037 C   0  0  0  0  0  0  0  0  0  0  0  0
   -4.3309   -2.3935    1.8393 H   0  0  0  0  0  0  0  0  0  0  0  0
   -4.1011   -3.0329    0.1943 H   0  0  0  0  0  0  0  0  0  0  0  0
   -2.2873   -2.4118    1.1686 C   0  0  0  0  0  0  0  0  0  0  0  0
   -1.3326   -3.0763    1.5409 O   0  0  0  0  0  0  0  0  0  0  0  0
   -2.1018   -1.1210    0.7211 N   0  0  0  0  0  0  0  0  0  0  0  0
   -2.9328   -0.5686    0.5122 H   0  0  0  0  0  0  0  0  0  0  0  0
   -0.8195   -0.4038    0.7438 C   0  0  1  0  0  0  0  0  0  0  0  0
   -0.1318   -0.8817    1.4491 H   0  0  0  0  0  0  0  0  0  0  0  0
   -0.1901   -0.4859   -0.6738 C   0  0  0  0  0  0  0  0  0  0  0  0
    0.6070   -1.2352   -0.6267 H   0  0  0  0  0  0  0  0  0  0  0  0
   -0.9316   -0.8753   -1.3798 H   0  0  0  0  0  0  0  0  0  0  0  0
    0.4090    0.8134   -1.2599 C   0  0  0  0  0  0  0  0  0  0  0  0
    0.6349    1.5535   -0.4884 H   0  0  0  0  0  0  0  0  0  0  0  0
    1.3641    0.5608   -1.7324 H   0  0  0  0  0  0  0  0  0  0  0  0
   -0.5032    1.4143   -2.3370 C   0  0  0  0  0  0  0  0  0  0  0  0
   -0.6373    0.6931   -3.1496 H   0  0  0  0  0  0  0  0  0  0  0  0
   -1.4877    1.6288   -1.9078 H   0  0  0  0  0  0  0  0  0  0  0  0
    0.0927    2.7033   -2.8950 C   0  0  0  0  0  0  0  0  0  0  0  0
    0.1745    3.4521   -2.0991 H   0  0  0  0  0  0  0  0  0  0  0  0
    1.0973    2.5126   -3.2881 H   0  0  0  0  0  0  0  0  0  0  0  0
   -0.7770    3.2020   -3.9650 N   0  0  0  0  0  0  0  0  0  0  0  0
   -0.4160    4.0688   -4.3629 H   0  0  0  0  0  0  0  0  0  0  0  0
   -0.9121    2.4962   -4.6883 H   0  0  0  0  0  0  0  0  0  0  0  0
   -1.0785    1.0222    1.2796 C   0  0  0  0  0  0  0  0  0  0  0  0
   -2.0842    1.6364    0.9407 O   0  0  0  0  0  0  0  0  0  0  0  0
   -0.2364    1.5767    2.2266 N   0  0  0  0  0  0  0  0  0  0  0  0
    0.5493    1.0161    2.5440 H   0  0  0  0  0  0  0  0  0  0  0  0
   -0.4686    2.8792    2.8388 C   0  0  0  0  0  0  0  0  0  0  0  0
   -1.4198    2.8834    3.3815 H   0  0  0  0  0  0  0  0  0  0  0  0
    0.3338    3.1134    3.5448 H   0  0  0  0  0  0  0  0  0  0  0  0
   -0.4954    3.6626    2.0740 H   0  0  0  0  0  0  0  0  0  0  0  0
  1  2  1  0  0  0  0
  2  3  1  0  0  0  0
  2  4  1  0  0  0  0
  2  5  1  0  0  0  0
  5  6  2  0  0  0  0
  5  7  1  0  0  0  0
  7  8  1  0  0  0  0
  7  9  1  0  0  0  0
  9 10  1  0  0  0  0
  9 11  1  0  0  0  0
  9 26  1  0  0  0  0
 11 12  1  0  0  0  0
 11 13  1  0  0  0  0
 11 14  1  0  0  0  0
 14 15  1  0  0  0  0
 14 16  1  0  0  0  0
 14 17  1  0  0  0  0
 17 18  1  0  0  0  0
 17 19  1  0  0  0  0
 17 20  1  0  0  0  0
 20 21  1  0  0  0  0
 20 22  1  0  0  0  0
 20 23  1  0  0  0  0
 23 24  1  0  0  0  0
 23 25  1  0  0  0  0
 26 27  2  0  0  0  0
 26 28  1  0  0  0  0
 28 29  1  0  0  0  0
 28 30  1  0  0  0  0
 30 31  1  0  0  0  0
 30 32  1  0  0  0  0
 30 33  1  0  0  0  0
M  END
$$$$

  -OEChem-03222214063D

 33 32  0     1  0  0  0  0  0999 V2000
   -3.6301   -4.0333    1.6393 H   0  0  0  0  0  0  0  0  0  0  0  0
   -3.6795   -3.0141    1.2457 C   0  0  0  0  0  0  0  0  0  0  0  0
   -4.3044   -2.4104    1.9084 H   0  0  0  0  0  0  0  0  0  0  0  0
   -4.1337   -3.0410    0.2523 H   0  0  0  0  0  0  0  0  0  0  0  0
   -2.2872   -2.4178    1.1613 C   0  0  0  0  0  0  0  0  0  0  0  0
   -1.3168   -3.0823    1.4907 O   0  0  0  0  0  0  0  0  0  0  0  0
   -2.1244   -1.1217    0.7204 N   0  0  0  0  0  0  0  0  0  0  0  0
   -2.9666   -0.5687    0.5646 H   0  0  0  0  0  0  0  0  0  0  0  0
   -0.8506   -0.3892    0.7279 C   0  0  1  0  0  0  0  0  0  0  0  0
   -0.1638   -0.8643    1.4363 H   0  0  0  0  0  0  0  0  0  0  0  0
   -0.2005   -0.4829   -0.6786 C   0  0  0  0  0  0  0  0  0  0  0  0
    0.6100   -1.2157   -0.6085 H   0  0  0  0  0  0  0  0  0  0  0  0
   -0.9248   -0.8906   -1.3919 H   0  0  0  0  0  0  0  0  0  0  0  0
    0.3821    0.8157   -1.2721 C   0  0  0  0  0  0  0  0  0  0  0  0
    0.8101    1.4473   -0.4878 H   0  0  0  0  0  0  0  0  0  0  0  0
    1.2040    0.5429   -1.9422 H   0  0  0  0  0  0  0  0  0  0  0  0
   -0.6543    1.5950   -2.0947 C   0  0  0  0  0  0  0  0  0  0  0  0
   -0.9907    0.9769   -2.9333 H   0  0  0  0  0  0  0  0  0  0  0  0
   -1.5295    1.8311   -1.4836 H   0  0  0  0  0  0  0  0  0  0  0  0
   -0.0538    2.8925   -2.6287 C   0  0  0  0  0  0  0  0  0  0  0  0
    0.2272    3.5452   -1.7946 H   0  0  0  0  0  0  0  0  0  0  0  0
    0.8483    2.6770   -3.2119 H   0  0  0  0  0  0  0  0  0  0  0  0
   -1.0483    3.5599   -3.4738 N   0  0  0  0  0  0  0  0  0  0  0  0
   -0.6845    4.4313   -3.8585 H   0  0  0  0  0  0  0  0  0  0  0  0
   -1.3763    2.9409   -4.2147 H   0  0  0  0  0  0  0  0  0  0  0  0
   -1.0922    1.0357    1.2752 C   0  0  0  0  0  0  0  0  0  0  0  0
   -2.1435    1.6193    1.0350 O   0  0  0  0  0  0  0  0  0  0  0  0
   -0.2243    1.5796    2.2050 N   0  0  0  0  0  0  0  0  0  0  0  0
    0.5870    1.0289    2.4707 H   0  0  0  0  0  0  0  0  0  0  0  0
   -0.4651    2.8514    2.8752 C   0  0  0  0  0  0  0  0  0  0  0  0
   -1.3805    2.8011    3.4739 H   0  0  0  0  0  0  0  0  0  0  0  0
    0.3703    3.0935    3.5391 H   0  0  0  0  0  0  0  0  0  0  0  0
   -0.5675    3.6572    2.1408 H   0  0  0  0  0  0  0  0  0  0  0  0
  1  2  1  0  0  0  0
  2  3  1  0  0  0  0
  2  4  1  0  0  0  0
  2  5  1  0  0  0  0
  5  6  2  0  0  0  0
  5  7  1  0  0  0  0
  7  8  1  0  0  0  0
  7  9  1  0  0  0  0
  9 10  1  0  0  0  0
  9 11  1  0  0  0  0
  9 26  1  0  0  0  0
 11 12  1  0  0  0  0
 11 13  1  0  0  0  0
 11 14  1  0  0  0  0
 14 15  1  0  0  0  0
 14 16  1  0  0  0  0
 14 17  1  0  0  0  0
 17 18  1  0  0  0  0
 17 19  1  0  0  0  0
 17 20  1  0  0  0  0
 20 21  1  0  0  0  0
 20 22  1  0  0  0  0
 20 23  1  0  0  0  0
 23 24  1  0  0  0  0
 23 25  1  0  0  0  0
 26 27  2  0  0  0  0
 26 28  1  0  0  0  0
 28 29  1  0  0  0  0
 28 30  1  0  0  0  0
 30 31  1  0  0  0  0
 30 32  1  0  0  0  0
 30 33  1  0  0  0  0
M  END
$$$$

  -OEChem-03222214063D

 33 32  0     1  0  0  0  0  0999 V2000
   -3.5612   -4.1120    1.5045 H   0  0  0  0  0  0  0  0  0  0  0  0
   -3.6465   -3.0590    1.2223 C   0  0  0  0  0  0  0  0  0  0  0  0
   -4.2397   -2.5385    1.9780 H   0  0  0  0  0  0  0  0  0  0  0  0
   -4.1578   -2.9935    0.2589 H   0  0  0  0  0  0  0  0  0  0  0  0
   -2.2691   -2.4309    1.1222 C   0  0  0  0  0  0  0  0  0  0  0  0
   -1.2757   -3.0932    1.3797 O   0  0  0  0  0  0  0  0  0  0  0  0
   -2.1449   -1.1116    0.7409 N   0  0  0  0  0  0  0  0  0  0  0  0
   -3.0025   -0.5666    0.6554 H   0  0  0  0  0  0  0  0  0  0  0  0
   -0.8876   -0.3504    0.7614 C   0  0  1  0  0  0  0  0  0  0  0  0
   -0.1959   -0.8399    1.4554 H   0  0  0  0  0  0  0  0  0  0  0  0
   -0.2183   -0.4070   -0.6378 C   0  0  0  0  0  0  0  0  0  0  0  0
    0.5995   -1.1322   -0.5744 H   0  0  0  0  0  0  0  0  0  0  0  0
   -0.9362   -0.8132   -1.3582 H   0  0  0  0  0  0  0  0  0  0  0  0
    0.3503    0.8939   -1.2398 C   0  0  0  0  0  0  0  0  0  0  0  0
    0.9728    1.4037   -0.4973 H   0  0  0  0  0  0  0  0  0  0  0  0
    1.0043    0.6100   -2.0710 H   0  0  0  0  0  0  0  0  0  0  0  0
   -0.7137    1.8652   -1.7784 C   0  0  0  0  0  0  0  0  0  0  0  0
   -1.4069    1.3246   -2.4304 H   0  0  0  0  0  0  0  0  0  0  0  0
   -1.2929    2.3049   -0.9660 H   0  0  0  0  0  0  0  0  0  0  0  0
   -0.0536    2.9926   -2.5682 C   0  0  0  0  0  0  0  0  0  0  0  0
    0.6465    3.5394   -1.9267 H   0  0  0  0  0  0  0  0  0  0  0  0
    0.5097    2.5793   -3.4122 H   0  0  0  0  0  0  0  0  0  0  0  0
   -1.0955    3.9001   -3.0570 N   0  0  0  0  0  0  0  0  0  0  0  0
   -0.7002    4.6480   -3.6264 H   0  0  0  0  0  0  0  0  0  0  0  0
   -1.8160    3.3911   -3.5691 H   0  0  0  0  0  0  0  0  0  0  0  0
   -1.1341    1.0443    1.3774 C   0  0  0  0  0  0  0  0  0  0  0  0
   -2.2293    1.5827    1.2500 O   0  0  0  0  0  0  0  0  0  0  0  0
   -0.2513    1.5565    2.3114 N   0  0  0  0  0  0  0  0  0  0  0  0
    0.5932    1.0250    2.5016 H   0  0  0  0  0  0  0  0  0  0  0  0
   -0.5137    2.7649    3.0840 C   0  0  0  0  0  0  0  0  0  0  0  0
   -1.3676    2.6132    3.7525 H   0  0  0  0  0  0  0  0  0  0  0  0
    0.3599    3.0240    3.6897 H   0  0  0  0  0  0  0  0  0  0  0  0
   -0.7324    3.6066    2.4182 H   0  0  0  0  0  0  0  0  0  0  0  0
  1  2  1  0  0  0  0
  2  3  1  0  0  0  0
  2  4  1  0  0  0  0
  2  5  1  0  0  0  0
  5  6  2  0  0  0  0
  5  7  1  0  0  0  0
  7  8  1  0  0  0  0
  7  9  1  0  0  0  0
  9 10  1  0  0  0  0
  9 11  1  0  0  0  0
  9 26  1  0  0  0  0
 11 12  1  0  0  0  0
 11 13  1  0  0  0  0
 11 14  1  0  0  0  0
 14 15  1  0  0  0  0
 14 16  1  0  0  0  0
 14 17  1  0  0  0  0
 17 18  1  0  0  0  0
 17 19  1  0  0  0  0
 17 20  1  0  0  0  0
 20 21  1  0  0  0  0
 20 22  1  0  0  0  0
 20 23  1  0  0  0  0
 23 24  1  0  0  0  0
 23 25  1  0  0  0  0
 26 27  2  0  0  0  0
 26 28  1  0  0  0  0
 28 29  1  0  0  0  0
 28 30  1  0  0  0  0
 30 31  1  0  0  0  0
 30 32  1  0  0  0  0
 30 33  1  0  0  0  0
M  END
$$$$

  -OEChem-03222214063D

 33 32  0     1  0  0  0  0  0999 V2000
   -3.5147   -4.0921    1.7343 H   0  0  0  0  0  0  0  0  0  0  0  0
   -3.6225   -3.0900    1.3100 C   0  0  0  0  0  0  0  0  0  0  0  0
   -4.2619   -2.4962    1.9679 H   0  0  0  0  0  0  0  0  0  0  0  0
   -4.0962   -3.1714    0.3288 H   0  0  0  0  0  0  0  0  0  0  0  0
   -2.2630   -2.4302    1.1752 C   0  0  0  0  0  0  0  0  0  0  0  0
   -1.2534   -3.0450    1.4829 O   0  0  0  0  0  0  0  0  0  0  0  0
   -2.1739   -1.1354    0.7092 N   0  0  0  0  0  0  0  0  0  0  0  0
   -3.0468   -0.6249    0.5791 H   0  0  0  0  0  0  0  0  0  0  0  0
   -0.9416   -0.3347    0.6921 C   0  0  1  0  0  0  0  0  0  0  0  0
   -0.2743   -0.7533    1.4525 H   0  0  0  0  0  0  0  0  0  0  0  0
   -0.1852   -0.5222   -0.6538 C   0  0  0  0  0  0  0  0  0  0  0  0
    0.6408   -1.2184   -0.4747 H   0  0  0  0  0  0  0  0  0  0  0  0
   -0.8621   -1.0189   -1.3569 H   0  0  0  0  0  0  0  0  0  0  0  0
    0.3825    0.7095   -1.3897 C   0  0  0  0  0  0  0  0  0  0  0  0
    1.1226    1.1695   -0.7266 H   0  0  0  0  0  0  0  0  0  0  0  0
    0.9210    0.3703   -2.2809 H   0  0  0  0  0  0  0  0  0  0  0  0
   -0.6436    1.7771   -1.8189 C   0  0  0  0  0  0  0  0  0  0  0  0
   -1.6082    1.6336   -1.3318 H   0  0  0  0  0  0  0  0  0  0  0  0
   -0.8257    1.6594   -2.8919 H   0  0  0  0  0  0  0  0  0  0  0  0
   -0.1355    3.1932   -1.5545 C   0  0  0  0  0  0  0  0  0  0  0  0
   -0.0505    3.3649   -0.4758 H   0  0  0  0  0  0  0  0  0  0  0  0
    0.8566    3.3237   -2.0006 H   0  0  0  0  0  0  0  0  0  0  0  0
   -1.0758    4.1522   -2.1421 N   0  0  0  0  0  0  0  0  0  0  0  0
   -0.7753    5.1136   -1.9839 H   0  0  0  0  0  0  0  0  0  0  0  0
   -1.2167    3.9699   -3.1353 H   0  0  0  0  0  0  0  0  0  0  0  0
   -1.2019    1.0983    1.2069 C   0  0  0  0  0  0  0  0  0  0  0  0
   -2.3091    1.6064    1.0674 O   0  0  0  0  0  0  0  0  0  0  0  0
   -0.3234    1.6801    2.1041 N   0  0  0  0  0  0  0  0  0  0  0  0
    0.5271    1.1712    2.3263 H   0  0  0  0  0  0  0  0  0  0  0  0
   -0.6028    2.9274    2.8057 C   0  0  0  0  0  0  0  0  0  0  0  0
   -1.4798    2.8156    3.4518 H   0  0  0  0  0  0  0  0  0  0  0  0
    0.2516    3.2117    3.4273 H   0  0  0  0  0  0  0  0  0  0  0  0
   -0.7931    3.7344    2.0903 H   0  0  0  0  0  0  0  0  0  0  0  0
  1  2  1  0  0  0  0
  2  3  1  0  0  0  0
  2  4  1  0  0  0  0
  2  5  1  0  0  0  0
  5  6  2  0  0  0  0
  5  7  1  0  0  0  0
  7  8  1  0  0  0  0
  7  9  1  0  0  0  0
  9 10  1  0  0  0  0
  9 11  1  0  0  0  0
  9 26  1  0  0  0  0
 11 12  1  0  0  0  0
 11 13  1  0  0  0  0
 11 14  1  0  0  0  0
 14 15  1  0  0  0  0
 14 16  1  0  0  0  0
 14 17  1  0  0  0  0
 17 18  1  0  0  0  0
 17 19  1  0  0  0  0
 17 20  1  0  0  0  0
 20 21  1  0  0  0  0
 20 22  1  0  0  0  0
 20 23  1  0  0  0  0
 23 24  1  0  0  0  0
 23 25  1  0  0  0  0
 26 27  2  0  0  0  0
 26 28  1  0  0  0  0
 28 29  1  0  0  0  0
 28 30  1  0  0  0  0
 30 31  1  0  0  0  0
 30 32  1  0  0  0  0
 30 33  1  0  0  0  0
M  END
$$$$

  -OEChem-03222214063D

 33 32  0     1  0  0  0  0  0999 V2000
   -3.5723   -4.1482    1.4215 H   0  0  0  0  0  0  0  0  0  0  0  0
   -3.6495   -3.1006    1.1175 C   0  0  0  0  0  0  0  0  0  0  0  0
   -4.2731   -2.5692    1.8406 H   0  0  0  0  0  0  0  0  0  0  0  0
   -4.1225   -3.0527    0.1337 H   0  0  0  0  0  0  0  0  0  0  0  0
   -2.2717   -2.4684    1.0602 C   0  0  0  0  0  0  0  0  0  0  0  0
   -1.2787   -3.1444    1.2803 O   0  0  0  0  0  0  0  0  0  0  0  0
   -2.1481   -1.1279    0.7621 N   0  0  0  0  0  0  0  0  0  0  0  0
   -3.0065   -0.5803    0.7083 H   0  0  0  0  0  0  0  0  0  0  0  0
   -0.8933   -0.3658    0.8448 C   0  0  1  0  0  0  0  0  0  0  0  0
   -0.2053   -0.8879    1.5180 H   0  0  0  0  0  0  0  0  0  0  0  0
   -0.2109   -0.3510   -0.5553 C   0  0  0  0  0  0  0  0  0  0  0  0
    0.5714   -1.1170   -0.5464 H   0  0  0  0  0  0  0  0  0  0  0  0
   -0.9608   -0.6879   -1.2790 H   0  0  0  0  0  0  0  0  0  0  0  0
    0.3947    0.9336   -1.1736 C   0  0  0  0  0  0  0  0  0  0  0  0
    1.3581    1.1261   -0.6902 H   0  0  0  0  0  0  0  0  0  0  0  0
    0.6034    0.7111   -2.2255 H   0  0  0  0  0  0  0  0  0  0  0  0
   -0.4292    2.2283   -1.0975 C   0  0  0  0  0  0  0  0  0  0  0  0
   -1.4927    2.0004   -1.2215 H   0  0  0  0  0  0  0  0  0  0  0  0
   -0.2836    2.7112   -0.1276 H   0  0  0  0  0  0  0  0  0  0  0  0
   -0.0021    3.2106   -2.1853 C   0  0  0  0  0  0  0  0  0  0  0  0
    1.0778    3.3881   -2.1327 H   0  0  0  0  0  0  0  0  0  0  0  0
   -0.2320    2.7961   -3.1731 H   0  0  0  0  0  0  0  0  0  0  0  0
   -0.7231    4.4707   -1.9850 N   0  0  0  0  0  0  0  0  0  0  0  0
   -0.5413    5.1277   -2.7433 H   0  0  0  0  0  0  0  0  0  0  0  0
   -1.7244    4.3055   -1.8756 H   0  0  0  0  0  0  0  0  0  0  0  0
   -1.1820    0.9781    1.5447 C   0  0  0  0  0  0  0  0  0  0  0  0
   -2.2677    1.5296    1.3859 O   0  0  0  0  0  0  0  0  0  0  0  0
   -0.3316    1.4481    2.5289 N   0  0  0  0  0  0  0  0  0  0  0  0
    0.5352    0.9419    2.6844 H   0  0  0  0  0  0  0  0  0  0  0  0
   -0.5939    2.6542    3.3043 C   0  0  0  0  0  0  0  0  0  0  0  0
   -1.5297    2.5541    3.8642 H   0  0  0  0  0  0  0  0  0  0  0  0
    0.2176    2.8299    4.0170 H   0  0  0  0  0  0  0  0  0  0  0  0
   -0.6690    3.5246    2.6438 H   0  0  0  0  0  0  0  0  0  0  0  0
  1  2  1  0  0  0  0
  2  3  1  0  0  0  0
  2  4  1  0  0  0  0
  2  5  1  0  0  0  0
  5  6  2  0  0  0  0
  5  7  1  0  0  0  0
  7  8  1  0  0  0  0
  7  9  1  0  0  0  0
  9 10  1  0  0  0  0
  9 11  1  0  0  0  0
  9 26  1  0  0  0  0
 11 12  1  0  0  0  0
 11 13  1  0  0  0  0
 11 14  1  0  0  0  0
 14 15  1  0  0  0  0
 14 16  1  0  0  0  0
 14 17  1  0  0  0  0
 17 18  1  0  0  0  0
 17 19  1  0  0  0  0
 17 20  1  0  0  0  0
 20 21  1  0  0  0  0
 20 22  1  0  0  0  0
 20 23  1  0  0  0  0
 23 24  1  0  0  0  0
 23 25  1  0  0  0  0
 26 27  2  0  0  0  0
 26 28  1  0  0  0  0
 28 29  1  0  0  0  0
 28 30  1  0  0  0  0
 30 31  1  0  0  0  0
 30 32  1  0  0  0  0
 30 33  1  0  0  0  0
M  END
$$$$

  -OEChem-03222214063D

 33 32  0     1  0  0  0  0  0999 V2000
   -3.5339   -4.2079    1.4312 H   0  0  0  0  0  0  0  0  0  0  0  0
   -3.6286   -3.1601    1.1327 C   0  0  0  0  0  0  0  0  0  0  0  0
   -4.2586   -2.6427    1.8604 H   0  0  0  0  0  0  0  0  0  0  0  0
   -4.1047   -3.1145    0.1503 H   0  0  0  0  0  0  0  0  0  0  0  0
   -2.2609   -2.5068    1.0747 C   0  0  0  0  0  0  0  0  0  0  0  0
   -1.2571   -3.1707    1.2817 O   0  0  0  0  0  0  0  0  0  0  0  0
   -2.1582   -1.1610    0.7930 N   0  0  0  0  0  0  0  0  0  0  0  0
   -3.0243   -0.6248    0.7476 H   0  0  0  0  0  0  0  0  0  0  0  0
   -0.9118   -0.3838    0.8738 C   0  0  1  0  0  0  0  0  0  0  0  0
   -0.2090   -0.9022    1.5345 H   0  0  0  0  0  0  0  0  0  0  0  0
   -0.2485   -0.3518   -0.5389 C   0  0  0  0  0  0  0  0  0  0  0  0
    0.5279   -1.1240   -0.5506 H   0  0  0  0  0  0  0  0  0  0  0  0
   -1.0166   -0.6861   -1.2447 H   0  0  0  0  0  0  0  0  0  0  0  0
    0.3486    0.9226   -1.1968 C   0  0  0  0  0  0  0  0  0  0  0  0
    1.4094    0.9633   -0.9275 H   0  0  0  0  0  0  0  0  0  0  0  0
    0.3017    0.7744   -2.2811 H   0  0  0  0  0  0  0  0  0  0  0  0
   -0.2437    2.2996   -0.8685 C   0  0  0  0  0  0  0  0  0  0  0  0
   -1.3363    2.2521   -0.9031 H   0  0  0  0  0  0  0  0  0  0  0  0
    0.0700    2.6156    0.1295 H   0  0  0  0  0  0  0  0  0  0  0  0
    0.2346    3.3487   -1.8683 C   0  0  0  0  0  0  0  0  0  0  0  0
    1.3296    3.3669   -1.9035 H   0  0  0  0  0  0  0  0  0  0  0  0
   -0.1352    3.1062   -2.8707 H   0  0  0  0  0  0  0  0  0  0  0  0
   -0.2725    4.6567   -1.4443 N   0  0  0  0  0  0  0  0  0  0  0  0
   -0.0421    5.3821   -2.1230 H   0  0  0  0  0  0  0  0  0  0  0  0
   -1.2787    4.6205   -1.2758 H   0  0  0  0  0  0  0  0  0  0  0  0
   -1.2254    0.9428    1.5956 C   0  0  0  0  0  0  0  0  0  0  0  0
   -2.3153    1.4858    1.4372 O   0  0  0  0  0  0  0  0  0  0  0  0
   -0.3794    1.4148    2.5828 N   0  0  0  0  0  0  0  0  0  0  0  0
    0.5010    0.9271    2.7204 H   0  0  0  0  0  0  0  0  0  0  0  0
   -0.6412    2.6276    3.3478 C   0  0  0  0  0  0  0  0  0  0  0  0
   -1.5818    2.5366    3.9012 H   0  0  0  0  0  0  0  0  0  0  0  0
    0.1659    2.8029    4.0655 H   0  0  0  0  0  0  0  0  0  0  0  0
   -0.7065    3.4941    2.6811 H   0  0  0  0  0  0  0  0  0  0  0  0
  1  2  1  0  0  0  0
  2  3  1  0  0  0  0
  2  4  1  0  0  0  0
  2  5  1  0  0  0  0
  5  6  2  0  0  0  0
  5  7  1  0  0  0  0
  7  8  1  0  0  0  0
  7  9  1  0  0  0  0
  9 10  1  0  0  0  0
  9 11  1  0  0  0  0
  9 26  1  0  0  0  0
 11 12  1  0  0  0  0
 11 13  1  0  0  0  0
 11 14  1  0  0  0  0
 14 15  1  0  0  0  0
 14 16  1  0  0  0  0
 14 17  1  0  0  0  0
 17 18  1  0  0  0  0
 17 19  1  0  0  0  0
 17 20  1  0  0  0  0
 20 21  1  0  0  0  0
 20 22  1  0  0  0  0
 20 23  1  0  0  0  0
 23 24  1  0  0  0  0
 23 25  1  0  0  0  0
 26 27  2  0  0  0  0
 26 28  1  0  0  0  0
 28 29  1  0  0  0  0
 28 30  1  0  0  0  0
 30 31  1  0  0  0  0
 30 32  1  0  0  0  0
 30 33  1  0  0  0  0
M  END
$$$$

  -OEChem-03222214063D

 33 32  0     1  0  0  0  0  0999 V2000
   -3.5258   -4.2431    1.4142 H   0  0  0  0  0  0  0  0  0  0  0  0
   -3.6256   -3.1909    1.1332 C   0  0  0  0  0  0  0  0  0  0  0  0
   -4.2599   -2.6889    1.8678 H   0  0  0  0  0  0  0  0  0  0  0  0
   -4.1004   -3.1316    0.1509 H   0  0  0  0  0  0  0  0  0  0  0  0
   -2.2609   -2.5295    1.0891 C   0  0  0  0  0  0  0  0  0  0  0  0
   -1.2555   -3.1876    1.3070 O   0  0  0  0  0  0  0  0  0  0  0  0
   -2.1623   -1.1831    0.8085 N   0  0  0  0  0  0  0  0  0  0  0  0
   -3.0306   -0.6512    0.7511 H   0  0  0  0  0  0  0  0  0  0  0  0
   -0.9199   -0.3997    0.8984 C   0  0  1  0  0  0  0  0  0  0  0  0
   -0.2095   -0.9112    1.5565 H   0  0  0  0  0  0  0  0  0  0  0  0
   -0.2713   -0.3562   -0.5233 C   0  0  0  0  0  0  0  0  0  0  0  0
    0.5039   -1.1294   -0.5413 H   0  0  0  0  0  0  0  0  0  0  0  0
   -1.0443   -0.6945   -1.2220 H   0  0  0  0  0  0  0  0  0  0  0  0
    0.3235    0.9124   -1.2017 C   0  0  0  0  0  0  0  0  0  0  0  0
    1.4130    0.8024   -1.1810 H   0  0  0  0  0  0  0  0  0  0  0  0
    0.0243    0.8856   -2.2551 H   0  0  0  0  0  0  0  0  0  0  0  0
    0.0145    2.3121   -0.6573 C   0  0  0  0  0  0  0  0  0  0  0  0
   -1.0676    2.4573   -0.5929 H   0  0  0  0  0  0  0  0  0  0  0  0
    0.4566    2.4330    0.3346 H   0  0  0  0  0  0  0  0  0  0  0  0
    0.5928    3.3902   -1.5687 C   0  0  0  0  0  0  0  0  0  0  0  0
    1.6736    3.2508   -1.6833 H   0  0  0  0  0  0  0  0  0  0  0  0
    0.1334    3.3284   -2.5616 H   0  0  0  0  0  0  0  0  0  0  0  0
    0.3188    4.6969   -0.9642 N   0  0  0  0  0  0  0  0  0  0  0  0
    0.6382    5.4568   -1.5647 H   0  0  0  0  0  0  0  0  0  0  0  0
   -0.6740    4.7963   -0.7479 H   0  0  0  0  0  0  0  0  0  0  0  0
   -1.2703    0.9185    1.6210 C   0  0  0  0  0  0  0  0  0  0  0  0
   -2.3598    1.4537    1.4324 O   0  0  0  0  0  0  0  0  0  0  0  0
   -0.4500    1.4046    2.6231 N   0  0  0  0  0  0  0  0  0  0  0  0
    0.4406    0.9381    2.7684 H   0  0  0  0  0  0  0  0  0  0  0  0
   -0.7330    2.6280    3.3633 C   0  0  0  0  0  0  0  0  0  0  0  0
   -1.6822    2.5393    3.9021 H   0  0  0  0  0  0  0  0  0  0  0  0
    0.0603    2.8213    4.0916 H   0  0  0  0  0  0  0  0  0  0  0  0
   -0.7925    3.4827    2.6811 H   0  0  0  0  0  0  0  0  0  0  0  0
  1  2  1  0  0  0  0
  2  3  1  0  0  0  0
  2  4  1  0  0  0  0
  2  5  1  0  0  0  0
  5  6  2  0  0  0  0
  5  7  1  0  0  0  0
  7  8  1  0  0  0  0
  7  9  1  0  0  0  0
  9 10  1  0  0  0  0
  9 11  1  0  0  0  0
  9 26  1  0  0  0  0
 11 12  1  0  0  0  0
 11 13  1  0  0  0  0
 11 14  1  0  0  0  0
 14 15  1  0  0  0  0
 14 16  1  0  0  0  0
 14 17  1  0  0  0  0
 17 18  1  0  0  0  0
 17 19  1  0  0  0  0
 17 20  1  0  0  0  0
 20 21  1  0  0  0  0
 20 22  1  0  0  0  0
 20 23  1  0  0  0  0
 23 24  1  0  0  0  0
 23 25  1  0  0  0  0
 26 27  2  0  0  0  0
 26 28  1  0  0  0  0
 28 29  1  0  0  0  0
 28 30  1  0  0  0  0
 30 31  1  0  0  0  0
 30 32  1  0  0  0  0
 30 33  1  0  0  0  0
M  END
$$$$

  -OEChem-03222214063D

 33 32  0     1  0  0  0  0  0999 V2000
   -3.9476   -3.6749    1.0923 H   0  0  0  0  0  0  0  0  0  0  0  0
   -3.8662   -2.6195    0.8172 C   0  0  0  0  0  0  0  0  0  0  0  0
   -4.5073   -2.0326    1.4795 H   0  0  0  0  0  0  0  0  0  0  0  0
   -4.2082   -2.4967   -0.2133 H   0  0  0  0  0  0  0  0  0  0  0  0
   -2.4272   -2.1560    0.9434 C   0  0  0  0  0  0  0  0  0  0  0  0
   -1.5649   -2.9363    1.3155 O   0  0  0  0  0  0  0  0  0  0  0  0
   -2.0975   -0.8525    0.6355 N   0  0  0  0  0  0  0  0  0  0  0  0
   -2.8643   -0.2084    0.4448 H   0  0  0  0  0  0  0  0  0  0  0  0
   -0.7721   -0.2517    0.8574 C   0  0  1  0  0  0  0  0  0  0  0  0
   -0.2482   -0.8235    1.6306 H   0  0  0  0  0  0  0  0  0  0  0  0
    0.0583   -0.4415   -0.4575 C   0  0  0  0  0  0  0  0  0  0  0  0
    0.7059   -1.3062   -0.2777 H   0  0  0  0  0  0  0  0  0  0  0  0
   -0.6482   -0.7618   -1.2310 H   0  0  0  0  0  0  0  0  0  0  0  0
    0.9391    0.6330   -1.1651 C   0  0  0  0  0  0  0  0  0  0  0  0
    1.9530    0.2199   -1.1913 H   0  0  0  0  0  0  0  0  0  0  0  0
    0.6148    0.7054   -2.2091 H   0  0  0  0  0  0  0  0  0  0  0  0
    1.0817    2.0560   -0.6129 C   0  0  0  0  0  0  0  0  0  0  0  0
    2.0130    2.4894   -0.9913 H   0  0  0  0  0  0  0  0  0  0  0  0
    1.1793    2.0454    0.4711 H   0  0  0  0  0  0  0  0  0  0  0  0
   -0.0656    2.9490   -1.0932 C   0  0  0  0  0  0  0  0  0  0  0  0
    0.1716    3.3429   -2.0876 H   0  0  0  0  0  0  0  0  0  0  0  0
   -0.9943    2.3749   -1.1798 H   0  0  0  0  0  0  0  0  0  0  0  0
   -0.2569    4.0465   -0.1442 N   0  0  0  0  0  0  0  0  0  0  0  0
   -0.8790    4.7533   -0.5348 H   0  0  0  0  0  0  0  0  0  0  0  0
   -0.6540    3.6774    0.7244 H   0  0  0  0  0  0  0  0  0  0  0  0
   -0.9797    1.1423    1.4900 C   0  0  0  0  0  0  0  0  0  0  0  0
   -1.9511    1.8285    1.1849 O   0  0  0  0  0  0  0  0  0  0  0  0
   -0.2042    1.5347    2.5675 N   0  0  0  0  0  0  0  0  0  0  0  0
    0.5640    0.9260    2.8357 H   0  0  0  0  0  0  0  0  0  0  0  0
   -0.4181    2.7646    3.3210 C   0  0  0  0  0  0  0  0  0  0  0  0
   -1.4417    2.8063    3.7079 H   0  0  0  0  0  0  0  0  0  0  0  0
    0.2716    2.8103    4.1691 H   0  0  0  0  0  0  0  0  0  0  0  0
   -0.2432    3.6401    2.6880 H   0  0  0  0  0  0  0  0  0  0  0  0
  1  2  1  0  0  0  0
  2  3  1  0  0  0  0
  2  4  1  0  0  0  0
  2  5  1  0  0  0  0
  5  6  2  0  0  0  0
  5  7  1  0  0  0  0
  7  8  1  0  0  0  0
  7  9  1  0  0  0  0
  9 10  1  0  0  0  0
  9 11  1  0  0  0  0
  9 26  1  0  0  0  0
 11 12  1  0  0  0  0
 11 13  1  0  0  0  0
 11 14  1  0  0  0  0
 14 15  1  0  0  0  0
 14 16  1  0  0  0  0
 14 17  1  0  0  0  0
 17 18  1  0  0  0  0
 17 19  1  0  0  0  0
 17 20  1  0  0  0  0
 20 21  1  0  0  0  0
 20 22  1  0  0  0  0
 20 23  1  0  0  0  0
 23 24  1  0  0  0  0
 23 25  1  0  0  0  0
 26 27  2  0  0  0  0
 26 28  1  0  0  0  0
 28 29  1  0  0  0  0
 28 30  1  0  0  0  0
 30 31  1  0  0  0  0
 30 32  1  0  0  0  0
 30 33  1  0  0  0  0
M  END
$$$$

  -OEChem-03222214063D

 33 32  0     1  0  0  0  0  0999 V2000
   -3.5092   -4.2546    1.4247 H   0  0  0  0  0  0  0  0  0  0  0  0
   -3.6011   -3.2205    1.0812 C   0  0  0  0  0  0  0  0  0  0  0  0
   -4.2917   -2.6909    1.7418 H   0  0  0  0  0  0  0  0  0  0  0  0
   -4.0055   -3.2197    0.0661 H   0  0  0  0  0  0  0  0  0  0  0  0
   -2.2443   -2.5418    1.0970 C   0  0  0  0  0  0  0  0  0  0  0  0
   -1.2439   -3.1813    1.3821 O   0  0  0  0  0  0  0  0  0  0  0  0
   -2.1465   -1.2007    0.7925 N   0  0  0  0  0  0  0  0  0  0  0  0
   -3.0148   -0.6809    0.6673 H   0  0  0  0  0  0  0  0  0  0  0  0
   -0.9134   -0.4056    0.9044 C   0  0  1  0  0  0  0  0  0  0  0  0
   -0.1974   -0.8959    1.5724 H   0  0  0  0  0  0  0  0  0  0  0  0
   -0.2823   -0.3479   -0.5237 C   0  0  0  0  0  0  0  0  0  0  0  0
    0.5321   -1.0799   -0.5094 H   0  0  0  0  0  0  0  0  0  0  0  0
   -1.0175   -0.7359   -1.2372 H   0  0  0  0  0  0  0  0  0  0  0  0
    0.2926    0.9378   -1.1843 C   0  0  0  0  0  0  0  0  0  0  0  0
    1.2155    0.6481   -1.6980 H   0  0  0  0  0  0  0  0  0  0  0  0
   -0.4151    1.2534   -1.9584 H   0  0  0  0  0  0  0  0  0  0  0  0
    0.5875    2.1743   -0.3248 C   0  0  0  0  0  0  0  0  0  0  0  0
   -0.3465    2.6517   -0.0185 H   0  0  0  0  0  0  0  0  0  0  0  0
    1.1527    1.8789    0.5640 H   0  0  0  0  0  0  0  0  0  0  0  0
    1.4050    3.2000   -1.1043 C   0  0  0  0  0  0  0  0  0  0  0  0
    2.3579    2.7624   -1.4223 H   0  0  0  0  0  0  0  0  0  0  0  0
    0.8573    3.5143   -1.9998 H   0  0  0  0  0  0  0  0  0  0  0  0
    1.6507    4.3522   -0.2319 N   0  0  0  0  0  0  0  0  0  0  0  0
    2.1932    5.0699   -0.7128 H   0  0  0  0  0  0  0  0  0  0  0  0
    0.7724    4.7356    0.1185 H   0  0  0  0  0  0  0  0  0  0  0  0
   -1.3199    0.9163    1.5908 C   0  0  0  0  0  0  0  0  0  0  0  0
   -2.3793    1.4636    1.2965 O   0  0  0  0  0  0  0  0  0  0  0  0
   -0.5528    1.4405    2.6159 N   0  0  0  0  0  0  0  0  0  0  0  0
    0.3296    0.9813    2.8225 H   0  0  0  0  0  0  0  0  0  0  0  0
   -0.8727    2.6874    3.2989 C   0  0  0  0  0  0  0  0  0  0  0  0
   -1.8571    2.6230    3.7741 H   0  0  0  0  0  0  0  0  0  0  0  0
   -0.1291    2.8945    4.0744 H   0  0  0  0  0  0  0  0  0  0  0  0
   -0.8762    3.5220    2.5900 H   0  0  0  0  0  0  0  0  0  0  0  0
  1  2  1  0  0  0  0
  2  3  1  0  0  0  0
  2  4  1  0  0  0  0
  2  5  1  0  0  0  0
  5  6  2  0  0  0  0
  5  7  1  0  0  0  0
  7  8  1  0  0  0  0
  7  9  1  0  0  0  0
  9 10  1  0  0  0  0
  9 11  1  0  0  0  0
  9 26  1  0  0  0  0
 11 12  1  0  0  0  0
 11 13  1  0  0  0  0
 11 14  1  0  0  0  0
 14 15  1  0  0  0  0
 14 16  1  0  0  0  0
 14 17  1  0  0  0  0
 17 18  1  0  0  0  0
 17 19  1  0  0  0  0
 17 20  1  0  0  0  0
 20 21  1  0  0  0  0
 20 22  1  0  0  0  0
 20 23  1  0  0  0  0
 23 24  1  0  0  0  0
 23 25  1  0  0  0  0
 26 27  2  0  0  0  0
 26 28  1  0  0  0  0
 28 29  1  0  0  0  0
 28 30  1  0  0  0  0
 30 31  1  0  0  0  0
 30 32  1  0  0  0  0
 30 33  1  0  0  0  0
M  END
$$$$

  -OEChem-03222214063D

 33 32  0     1  0  0  0  0  0999 V2000
   -3.4992   -4.2366    1.4299 H   0  0  0  0  0  0  0  0  0  0  0  0
   -3.5900   -3.2046    1.0797 C   0  0  0  0  0  0  0  0  0  0  0  0
   -4.2891   -2.6729    1.7298 H   0  0  0  0  0  0  0  0  0  0  0  0
   -3.9839   -3.2112    0.0606 H   0  0  0  0  0  0  0  0  0  0  0  0
   -2.2354   -2.5218    1.1065 C   0  0  0  0  0  0  0  0  0  0  0  0
   -1.2394   -3.1515    1.4265 O   0  0  0  0  0  0  0  0  0  0  0  0
   -2.1352   -1.1875    0.7741 N   0  0  0  0  0  0  0  0  0  0  0  0
   -3.0019   -0.6737    0.6178 H   0  0  0  0  0  0  0  0  0  0  0  0
   -0.9054   -0.3881    0.8876 C   0  0  1  0  0  0  0  0  0  0  0  0
   -0.1898   -0.8648    1.5658 H   0  0  0  0  0  0  0  0  0  0  0  0
   -0.2767   -0.3378   -0.5391 C   0  0  0  0  0  0  0  0  0  0  0  0
    0.5485   -1.0574   -0.5206 H   0  0  0  0  0  0  0  0  0  0  0  0
   -1.0035   -0.7297   -1.2590 H   0  0  0  0  0  0  0  0  0  0  0  0
    0.2830    0.9619   -1.1730 C   0  0  0  0  0  0  0  0  0  0  0  0
    1.0447    0.6623   -1.9007 H   0  0  0  0  0  0  0  0  0  0  0  0
   -0.5272    1.4380   -1.7359 H   0  0  0  0  0  0  0  0  0  0  0  0
    0.8734    2.0309   -0.2416 C   0  0  0  0  0  0  0  0  0  0  0  0
    0.0733    2.6356    0.1918 H   0  0  0  0  0  0  0  0  0  0  0  0
    1.4369    1.5499    0.5642 H   0  0  0  0  0  0  0  0  0  0  0  0
    1.8064    2.9660   -1.0053 C   0  0  0  0  0  0  0  0  0  0  0  0
    2.6405    2.3997   -1.4344 H   0  0  0  0  0  0  0  0  0  0  0  0
    1.2644    3.4498   -1.8256 H   0  0  0  0  0  0  0  0  0  0  0  0
    2.3156    3.9743   -0.0710 N   0  0  0  0  0  0  0  0  0  0  0  0
    2.9618    4.6130   -0.5350 H   0  0  0  0  0  0  0  0  0  0  0  0
    1.5482    4.4874    0.3633 H   0  0  0  0  0  0  0  0  0  0  0  0
   -1.3197    0.9494    1.5383 C   0  0  0  0  0  0  0  0  0  0  0  0
   -2.3601    1.5051    1.1975 O   0  0  0  0  0  0  0  0  0  0  0  0
   -0.5672    1.4958    2.5630 N   0  0  0  0  0  0  0  0  0  0  0  0
    0.2989    1.0259    2.8114 H   0  0  0  0  0  0  0  0  0  0  0  0
   -0.9058    2.7470    3.2290 C   0  0  0  0  0  0  0  0  0  0  0  0
   -1.8823    2.6681    3.7183 H   0  0  0  0  0  0  0  0  0  0  0  0
   -0.1561    2.9844    3.9897 H   0  0  0  0  0  0  0  0  0  0  0  0
   -0.9381    3.5696    2.5070 H   0  0  0  0  0  0  0  0  0  0  0  0
  1  2  1  0  0  0  0
  2  3  1  0  0  0  0
  2  4  1  0  0  0  0
  2  5  1  0  0  0  0
  5  6  2  0  0  0  0
  5  7  1  0  0  0  0
  7  8  1  0  0  0  0
  7  9  1  0  0  0  0
  9 10  1  0  0  0  0
  9 11  1  0  0  0  0
  9 26  1  0  0  0  0
 11 12  1  0  0  0  0
 11 13  1  0  0  0  0
 11 14  1  0  0  0  0
 14 15  1  0  0  0  0
 14 16  1  0  0  0  0
 14 17  1  0  0  0  0
 17 18  1  0  0  0  0
 17 19  1  0  0  0  0
 17 20  1  0  0  0  0
 20 21  1  0  0  0  0
 20 22  1  0  0  0  0
 20 23  1  0  0  0  0
 23 24  1  0  0  0  0
 23 25  1  0  0  0  0
 26 27  2  0  0  0  0
 26 28  1  0  0  0  0
 28 29  1  0  0  0  0
 28 30  1  0  0  0  0
 30 31  1  0  0  0  0
 30 32  1  0  0  0  0
 30 33  1  0  0  0  0
M  END
$$$$

  -OEChem-03222214063D

 33 32  0     1  0  0  0  0  0999 V2000
   -3.4796   -4.2177    1.4128 H   0  0  0  0  0  0  0  0  0  0  0  0
   -3.5758   -3.1809    1.0784 C   0  0  0  0  0  0  0  0  0  0  0  0
   -4.2671   -2.6587    1.7443 H   0  0  0  0  0  0  0  0  0  0  0  0
   -3.9817   -3.1739    0.0640 H   0  0  0  0  0  0  0  0  0  0  0  0
   -2.2219   -2.4971    1.0986 C   0  0  0  0  0  0  0  0  0  0  0  0
   -1.2265   -3.1223    1.4289 O   0  0  0  0  0  0  0  0  0  0  0  0
   -2.1223   -1.1666    0.7511 N   0  0  0  0  0  0  0  0  0  0  0  0
   -2.9888   -0.6559    0.5851 H   0  0  0  0  0  0  0  0  0  0  0  0
   -0.8922   -0.3669    0.8553 C   0  0  1  0  0  0  0  0  0  0  0  0
   -0.1708   -0.8402    1.5297 H   0  0  0  0  0  0  0  0  0  0  0  0
   -0.2779   -0.3120   -0.5741 C   0  0  0  0  0  0  0  0  0  0  0  0
    0.5471   -1.0317   -0.5838 H   0  0  0  0  0  0  0  0  0  0  0  0
   -1.0169   -0.6814   -1.2934 H   0  0  0  0  0  0  0  0  0  0  0  0
    0.2586    1.0133   -1.1600 C   0  0  0  0  0  0  0  0  0  0  0  0
    0.8279    0.7612   -2.0610 H   0  0  0  0  0  0  0  0  0  0  0  0
   -0.5913    1.6278   -1.4766 H   0  0  0  0  0  0  0  0  0  0  0  0
    1.1352    1.8614   -0.2245 C   0  0  0  0  0  0  0  0  0  0  0  0
    0.5096    2.5408    0.3579 H   0  0  0  0  0  0  0  0  0  0  0  0
    1.6863    1.2118    0.4629 H   0  0  0  0  0  0  0  0  0  0  0  0
    2.1320    2.7007   -1.0180 C   0  0  0  0  0  0  0  0  0  0  0  0
    2.8062    2.0487   -1.5850 H   0  0  0  0  0  0  0  0  0  0  0  0
    1.6003    3.3432   -1.7289 H   0  0  0  0  0  0  0  0  0  0  0  0
    2.9027    3.5178   -0.0758 N   0  0  0  0  0  0  0  0  0  0  0  0
    3.6036    4.0773   -0.5620 H   0  0  0  0  0  0  0  0  0  0  0  0
    2.2867    4.1118    0.4792 H   0  0  0  0  0  0  0  0  0  0  0  0
   -1.2933    0.9822    1.4912 C   0  0  0  0  0  0  0  0  0  0  0  0
   -2.3275    1.5442    1.1434 O   0  0  0  0  0  0  0  0  0  0  0  0
   -0.5329    1.5346    2.5068 N   0  0  0  0  0  0  0  0  0  0  0  0
    0.3249    1.0546    2.7650 H   0  0  0  0  0  0  0  0  0  0  0  0
   -0.8689    2.7864    3.1730 C   0  0  0  0  0  0  0  0  0  0  0  0
   -1.8479    2.7115    3.6579 H   0  0  0  0  0  0  0  0  0  0  0  0
   -0.1219    3.0195    3.9378 H   0  0  0  0  0  0  0  0  0  0  0  0
   -0.8941    3.6097    2.4516 H   0  0  0  0  0  0  0  0  0  0  0  0
  1  2  1  0  0  0  0
  2  3  1  0  0  0  0
  2  4  1  0  0  0  0
  2  5  1  0  0  0  0
  5  6  2  0  0  0  0
  5  7  1  0  0  0  0
  7  8  1  0  0  0  0
  7  9  1  0  0  0  0
  9 10  1  0  0  0  0
  9 11  1  0  0  0  0
  9 26  1  0  0  0  0
 11 12  1  0  0  0  0
 11 13  1  0  0  0  0
 11 14  1  0  0  0  0
 14 15  1  0  0  0  0
 14 16  1  0  0  0  0
 14 17  1  0  0  0  0
 17 18  1  0  0  0  0
 17 19  1  0  0  0  0
 17 20  1  0  0  0  0
 20 21  1  0  0  0  0
 20 22  1  0  0  0  0
 20 23  1  0  0  0  0
 23 24  1  0  0  0  0
 23 25  1  0  0  0  0
 26 27  2  0  0  0  0
 26 28  1  0  0  0  0
 28 29  1  0  0  0  0
 28 30  1  0  0  0  0
 30 31  1  0  0  0  0
 30 32  1  0  0  0  0
 30 33  1  0  0  0  0
M  END
$$$$

  -OEChem-03222214063D

 33 32  0     1  0  0  0  0  0999 V2000
   -3.5762   -4.1369    1.3983 H   0  0  0  0  0  0  0  0  0  0  0  0
   -3.6346   -3.0937    1.0759 C   0  0  0  0  0  0  0  0  0  0  0  0
   -4.3203   -2.5581    1.7369 H   0  0  0  0  0  0  0  0  0  0  0  0
   -4.0233   -3.0619    0.0552 H   0  0  0  0  0  0  0  0  0  0  0  0
   -2.2603   -2.4533    1.1267 C   0  0  0  0  0  0  0  0  0  0  0  0
   -1.3016   -3.0951    1.5264 O   0  0  0  0  0  0  0  0  0  0  0  0
   -2.1009   -1.1424    0.7299 N   0  0  0  0  0  0  0  0  0  0  0  0
   -2.9412   -0.6120    0.5022 H   0  0  0  0  0  0  0  0  0  0  0  0
   -0.8484   -0.3805    0.8489 C   0  0  1  0  0  0  0  0  0  0  0  0
   -0.1607   -0.8490    1.5606 H   0  0  0  0  0  0  0  0  0  0  0  0
   -0.1985   -0.3887   -0.5650 C   0  0  0  0  0  0  0  0  0  0  0  0
    0.5938   -1.1446   -0.5564 H   0  0  0  0  0  0  0  0  0  0  0  0
   -0.9436   -0.7283   -1.2928 H   0  0  0  0  0  0  0  0  0  0  0  0
    0.3865    0.9152   -1.1432 C   0  0  0  0  0  0  0  0  0  0  0  0
    0.7692    0.6886   -2.1439 H   0  0  0  0  0  0  0  0  0  0  0  0
   -0.4132    1.6543   -1.2608 H   0  0  0  0  0  0  0  0  0  0  0  0
    1.5209    1.5276   -0.3065 C   0  0  0  0  0  0  0  0  0  0  0  0
    1.1299    2.0052    0.5894 H   0  0  0  0  0  0  0  0  0  0  0  0
    2.2168    0.7405    0.0017 H   0  0  0  0  0  0  0  0  0  0  0  0
    2.2788    2.5760   -1.1151 C   0  0  0  0  0  0  0  0  0  0  0  0
    2.7315    2.1136   -1.9994 H   0  0  0  0  0  0  0  0  0  0  0  0
    1.5909    3.3590   -1.4535 H   0  0  0  0  0  0  0  0  0  0  0  0
    3.3231    3.1537   -0.2635 N   0  0  0  0  0  0  0  0  0  0  0  0
    3.8803    3.8374   -0.7763 H   0  0  0  0  0  0  0  0  0  0  0  0
    2.9207    3.5699    0.5760 H   0  0  0  0  0  0  0  0  0  0  0  0
   -1.2313    1.0065    1.4144 C   0  0  0  0  0  0  0  0  0  0  0  0
   -2.2280    1.5874    0.9954 O   0  0  0  0  0  0  0  0  0  0  0  0
   -0.4984    1.5825    2.4368 N   0  0  0  0  0  0  0  0  0  0  0  0
    0.3071    1.0690    2.7838 H   0  0  0  0  0  0  0  0  0  0  0  0
   -0.8363    2.8630    3.0455 C   0  0  0  0  0  0  0  0  0  0  0  0
   -1.8141    2.8076    3.5350 H   0  0  0  0  0  0  0  0  0  0  0  0
   -0.0877    3.1339    3.7963 H   0  0  0  0  0  0  0  0  0  0  0  0
   -0.8658    3.6524    2.2871 H   0  0  0  0  0  0  0  0  0  0  0  0
  1  2  1  0  0  0  0
  2  3  1  0  0  0  0
  2  4  1  0  0  0  0
  2  5  1  0  0  0  0
  5  6  2  0  0  0  0
  5  7  1  0  0  0  0
  7  8  1  0  0  0  0
  7  9  1  0  0  0  0
  9 10  1  0  0  0  0
  9 11  1  0  0  0  0
  9 26  1  0  0  0  0
 11 12  1  0  0  0  0
 11 13  1  0  0  0  0
 11 14  1  0  0  0  0
 14 15  1  0  0  0  0
 14 16  1  0  0  0  0
 14 17  1  0  0  0  0
 17 18  1  0  0  0  0
 17 19  1  0  0  0  0
 17 20  1  0  0  0  0
 20 21  1  0  0  0  0
 20 22  1  0  0  0  0
 20 23  1  0  0  0  0
 23 24  1  0  0  0  0
 23 25  1  0  0  0  0
 26 27  2  0  0  0  0
 26 28  1  0  0  0  0
 28 29  1  0  0  0  0
 28 30  1  0  0  0  0
 30 31  1  0  0  0  0
 30 32  1  0  0  0  0
 30 33  1  0  0  0  0
M  END
$$$$

  -OEChem-03222214063D

 33 32  0     1  0  0  0  0  0999 V2000
   -3.6326   -4.0566    1.5697 H   0  0  0  0  0  0  0  0  0  0  0  0
   -3.6688   -3.0376    1.1743 C   0  0  0  0  0  0  0  0  0  0  0  0
   -4.3370   -2.4406    1.7996 H   0  0  0  0  0  0  0  0  0  0  0  0
   -4.0639   -3.0685    0.1561 H   0  0  0  0  0  0  0  0  0  0  0  0
   -2.2796   -2.4275    1.1720 C   0  0  0  0  0  0  0  0  0  0  0  0
   -1.3295   -3.0699    1.5907 O   0  0  0  0  0  0  0  0  0  0  0  0
   -2.0981   -1.1418    0.7076 N   0  0  0  0  0  0  0  0  0  0  0  0
   -2.9307   -0.6077    0.4617 H   0  0  0  0  0  0  0  0  0  0  0  0
   -0.8289   -0.4013    0.7677 C   0  0  1  0  0  0  0  0  0  0  0  0
   -0.1533   -0.8532    1.5013 H   0  0  0  0  0  0  0  0  0  0  0  0
   -0.1580   -0.4892   -0.6318 C   0  0  0  0  0  0  0  0  0  0  0  0
    0.6182   -1.2608   -0.5993 H   0  0  0  0  0  0  0  0  0  0  0  0
   -0.9086   -0.8313   -1.3523 H   0  0  0  0  0  0  0  0  0  0  0  0
    0.4352    0.8079   -1.2140 C   0  0  0  0  0  0  0  0  0  0  0  0
    0.6329    0.6474   -2.2790 H   0  0  0  0  0  0  0  0  0  0  0  0
   -0.2867    1.6277   -1.1462 H   0  0  0  0  0  0  0  0  0  0  0  0
    1.7572    1.1913   -0.5337 C   0  0  0  0  0  0  0  0  0  0  0  0
    1.6224    1.2816    0.5456 H   0  0  0  0  0  0  0  0  0  0  0  0
    2.4990    0.4054   -0.7105 H   0  0  0  0  0  0  0  0  0  0  0  0
    2.2803    2.5139   -1.0851 C   0  0  0  0  0  0  0  0  0  0  0  0
    2.4396    2.4325   -2.1662 H   0  0  0  0  0  0  0  0  0  0  0  0
    1.5482    3.3099   -0.9078 H   0  0  0  0  0  0  0  0  0  0  0  0
    3.5451    2.8325   -0.4153 N   0  0  0  0  0  0  0  0  0  0  0  0
    3.9479    3.6963   -0.7794 H   0  0  0  0  0  0  0  0  0  0  0  0
    3.4214    2.8872    0.5952 H   0  0  0  0  0  0  0  0  0  0  0  0
   -1.1387    1.0290    1.2664 C   0  0  0  0  0  0  0  0  0  0  0  0
   -2.1292    1.6232    0.8519 O   0  0  0  0  0  0  0  0  0  0  0  0
   -0.3543    1.6251    2.2370 N   0  0  0  0  0  0  0  0  0  0  0  0
    0.4287    1.0894    2.6012 H   0  0  0  0  0  0  0  0  0  0  0  0
   -0.6223    2.9484    2.7856 C   0  0  0  0  0  0  0  0  0  0  0  0
   -1.5933    2.9632    3.2913 H   0  0  0  0  0  0  0  0  0  0  0  0
    0.1503    3.2203    3.5111 H   0  0  0  0  0  0  0  0  0  0  0  0
   -0.6278    3.6999    1.9890 H   0  0  0  0  0  0  0  0  0  0  0  0
  1  2  1  0  0  0  0
  2  3  1  0  0  0  0
  2  4  1  0  0  0  0
  2  5  1  0  0  0  0
  5  6  2  0  0  0  0
  5  7  1  0  0  0  0
  7  8  1  0  0  0  0
  7  9  1  0  0  0  0
  9 10  1  0  0  0  0
  9 11  1  0  0  0  0
  9 26  1  0  0  0  0
 11 12  1  0  0  0  0
 11 13  1  0  0  0  0
 11 14  1  0  0  0  0
 14 15  1  0  0  0  0
 14 16  1  0  0  0  0
 14 17  1  0  0  0  0
 17 18  1  0  0  0  0
 17 19  1  0  0  0  0
 17 20  1  0  0  0  0
 20 21  1  0  0  0  0
 20 22  1  0  0  0  0
 20 23  1  0  0  0  0
 23 24  1  0  0  0  0
 23 25  1  0  0  0  0
 26 27  2  0  0  0  0
 26 28  1  0  0  0  0
 28 29  1  0  0  0  0
 28 30  1  0  0  0  0
 30 31  1  0  0  0  0
 30 32  1  0  0  0  0
 30 33  1  0  0  0  0
M  END
$$$$

  -OEChem-03222214063D

 33 32  0     1  0  0  0  0  0999 V2000
   -3.6064   -4.0636    1.6047 H   0  0  0  0  0  0  0  0  0  0  0  0
   -3.6564   -3.0532    1.1893 C   0  0  0  0  0  0  0  0  0  0  0  0
   -4.3244   -2.4505    1.8094 H   0  0  0  0  0  0  0  0  0  0  0  0
   -4.0616   -3.1084    0.1762 H   0  0  0  0  0  0  0  0  0  0  0  0
   -2.2734   -2.4302    1.1607 C   0  0  0  0  0  0  0  0  0  0  0  0
   -1.3093   -3.0653    1.5581 O   0  0  0  0  0  0  0  0  0  0  0  0
   -2.1149   -1.1398    0.7010 N   0  0  0  0  0  0  0  0  0  0  0  0
   -2.9580   -0.6145    0.4740 H   0  0  0  0  0  0  0  0  0  0  0  0
   -0.8542   -0.3848    0.7411 C   0  0  1  0  0  0  0  0  0  0  0  0
   -0.1790   -0.8354    1.4761 H   0  0  0  0  0  0  0  0  0  0  0  0
   -0.1593   -0.4819   -0.6446 C   0  0  0  0  0  0  0  0  0  0  0  0
    0.6198   -1.2503   -0.6007 H   0  0  0  0  0  0  0  0  0  0  0  0
   -0.9026   -0.8370   -1.3667 H   0  0  0  0  0  0  0  0  0  0  0  0
    0.4183    0.8229   -1.2324 C   0  0  0  0  0  0  0  0  0  0  0  0
    0.4119    0.7312   -2.3237 H   0  0  0  0  0  0  0  0  0  0  0  0
   -0.1948    1.6962   -0.9954 H   0  0  0  0  0  0  0  0  0  0  0  0
    1.8722    1.0285   -0.7917 C   0  0  0  0  0  0  0  0  0  0  0  0
    1.9249    1.0521    0.3010 H   0  0  0  0  0  0  0  0  0  0  0  0
    2.4881    0.1934   -1.1419 H   0  0  0  0  0  0  0  0  0  0  0  0
    2.4253    2.3355   -1.3511 C   0  0  0  0  0  0  0  0  0  0  0  0
    2.3836    2.3227   -2.4459 H   0  0  0  0  0  0  0  0  0  0  0  0
    1.8228    3.1798   -0.9977 H   0  0  0  0  0  0  0  0  0  0  0  0
    3.8139    2.4841   -0.9048 N   0  0  0  0  0  0  0  0  0  0  0  0
    4.2313    3.3381   -1.2750 H   0  0  0  0  0  0  0  0  0  0  0  0
    3.8778    2.4593    0.1124 H   0  0  0  0  0  0  0  0  0  0  0  0
   -1.1369    1.0451    1.2505 C   0  0  0  0  0  0  0  0  0  0  0  0
   -2.1396    1.6447    0.8762 O   0  0  0  0  0  0  0  0  0  0  0  0
   -0.3159    1.6239    2.2007 N   0  0  0  0  0  0  0  0  0  0  0  0
    0.4777    1.0806    2.5288 H   0  0  0  0  0  0  0  0  0  0  0  0
   -0.5530    2.9443    2.7700 C   0  0  0  0  0  0  0  0  0  0  0  0
   -1.5320    2.9810    3.2595 H   0  0  0  0  0  0  0  0  0  0  0  0
    0.2141    3.1779    3.5145 H   0  0  0  0  0  0  0  0  0  0  0  0
   -0.5207    3.7095    1.9874 H   0  0  0  0  0  0  0  0  0  0  0  0
  1  2  1  0  0  0  0
  2  3  1  0  0  0  0
  2  4  1  0  0  0  0
  2  5  1  0  0  0  0
  5  6  2  0  0  0  0
  5  7  1  0  0  0  0
  7  8  1  0  0  0  0
  7  9  1  0  0  0  0
  9 10  1  0  0  0  0
  9 11  1  0  0  0  0
  9 26  1  0  0  0  0
 11 12  1  0  0  0  0
 11 13  1  0  0  0  0
 11 14  1  0  0  0  0
 14 15  1  0  0  0  0
 14 16  1  0  0  0  0
 14 17  1  0  0  0  0
 17 18  1  0  0  0  0
 17 19  1  0  0  0  0
 17 20  1  0  0  0  0
 20 21  1  0  0  0  0
 20 22  1  0  0  0  0
 20 23  1  0  0  0  0
 23 24  1  0  0  0  0
 23 25  1  0  0  0  0
 26 27  2  0  0  0  0
 26 28  1  0  0  0  0
 28 29  1  0  0  0  0
 28 30  1  0  0  0  0
 30 31  1  0  0  0  0
 30 32  1  0  0  0  0
 30 33  1  0  0  0  0
M  END
$$$$

  -OEChem-03222214063D

 33 32  0     1  0  0  0  0  0999 V2000
   -3.5834   -4.0706    1.5783 H   0  0  0  0  0  0  0  0  0  0  0  0
   -3.6376   -3.0571    1.1712 C   0  0  0  0  0  0  0  0  0  0  0  0
   -4.3138   -2.4636    1.7912 H   0  0  0  0  0  0  0  0  0  0  0  0
   -4.0348   -3.1062    0.1545 H   0  0  0  0  0  0  0  0  0  0  0  0
   -2.2591   -2.4242    1.1580 C   0  0  0  0  0  0  0  0  0  0  0  0
   -1.2929   -3.0550    1.5572 O   0  0  0  0  0  0  0  0  0  0  0  0
   -2.1077   -1.1289    0.7098 N   0  0  0  0  0  0  0  0  0  0  0  0
   -2.9532   -0.6083    0.4802 H   0  0  0  0  0  0  0  0  0  0  0  0
   -0.8509   -0.3677    0.7549 C   0  0  1  0  0  0  0  0  0  0  0  0
   -0.1713   -0.8200    1.4847 H   0  0  0  0  0  0  0  0  0  0  0  0
   -0.1605   -0.4521   -0.6347 C   0  0  0  0  0  0  0  0  0  0  0  0
    0.6145   -1.2246   -0.5923 H   0  0  0  0  0  0  0  0  0  0  0  0
   -0.9055   -0.8094   -1.3538 H   0  0  0  0  0  0  0  0  0  0  0  0
    0.4189    0.8508   -1.2366 C   0  0  0  0  0  0  0  0  0  0  0  0
    0.1594    0.8755   -2.3004 H   0  0  0  0  0  0  0  0  0  0  0  0
   -0.0059    1.7563   -0.7989 H   0  0  0  0  0  0  0  0  0  0  0  0
    1.9475    0.8713   -1.1258 C   0  0  0  0  0  0  0  0  0  0  0  0
    2.2377    0.7925   -0.0732 H   0  0  0  0  0  0  0  0  0  0  0  0
    2.3695    0.0132   -1.6595 H   0  0  0  0  0  0  0  0  0  0  0  0
    2.5159    2.1602   -1.7128 C   0  0  0  0  0  0  0  0  0  0  0  0
    2.2350    2.2482   -2.7684 H   0  0  0  0  0  0  0  0  0  0  0  0
    2.1096    3.0270   -1.1795 H   0  0  0  0  0  0  0  0  0  0  0  0
    3.9760    2.1279   -1.5846 N   0  0  0  0  0  0  0  0  0  0  0  0
    4.4002    2.9695   -1.9752 H   0  0  0  0  0  0  0  0  0  0  0  0
    4.2568    1.9951   -0.6134 H   0  0  0  0  0  0  0  0  0  0  0  0
   -1.1488    1.0529    1.2783 C   0  0  0  0  0  0  0  0  0  0  0  0
   -2.1508    1.6508    0.8998 O   0  0  0  0  0  0  0  0  0  0  0  0
   -0.3336    1.6298    2.2346 N   0  0  0  0  0  0  0  0  0  0  0  0
    0.4585    1.0865    2.5664 H   0  0  0  0  0  0  0  0  0  0  0  0
   -0.5885    2.9395    2.8204 C   0  0  0  0  0  0  0  0  0  0  0  0
   -1.5738    2.9605    3.2980 H   0  0  0  0  0  0  0  0  0  0  0  0
    0.1673    3.1680    3.5779 H   0  0  0  0  0  0  0  0  0  0  0  0
   -0.5529    3.7168    2.0499 H   0  0  0  0  0  0  0  0  0  0  0  0
  1  2  1  0  0  0  0
  2  3  1  0  0  0  0
  2  4  1  0  0  0  0
  2  5  1  0  0  0  0
  5  6  2  0  0  0  0
  5  7  1  0  0  0  0
  7  8  1  0  0  0  0
  7  9  1  0  0  0  0
  9 10  1  0  0  0  0
  9 11  1  0  0  0  0
  9 26  1  0  0  0  0
 11 12  1  0  0  0  0
 11 13  1  0  0  0  0
 11 14  1  0  0  0  0
 14 15  1  0  0  0  0
 14 16  1  0  0  0  0
 14 17  1  0  0  0  0
 17 18  1  0  0  0  0
 17 19  1  0  0  0  0
 17 20  1  0  0  0  0
 20 21  1  0  0  0  0
 20 22  1  0  0  0  0
 20 23  1  0  0  0  0
 23 24  1  0  0  0  0
 23 25  1  0  0  0  0
 26 27  2  0  0  0  0
 26 28  1  0  0  0  0
 28 29  1  0  0  0  0
 28 30  1  0  0  0  0
 30 31  1  0  0  0  0
 30 32  1  0  0  0  0
 30 33  1  0  0  0  0
M  END
$$$$

  -OEChem-03222214063D

 33 32  0     1  0  0  0  0  0999 V2000
   -3.5734   -4.0680    1.5370 H   0  0  0  0  0  0  0  0  0  0  0  0
   -3.6245   -3.0494    1.1422 C   0  0  0  0  0  0  0  0  0  0  0  0
   -4.3070   -2.4646    1.7637 H   0  0  0  0  0  0  0  0  0  0  0  0
   -4.0125   -3.0858    0.1214 H   0  0  0  0  0  0  0  0  0  0  0  0
   -2.2462   -2.4158    1.1488 C   0  0  0  0  0  0  0  0  0  0  0  0
   -1.2832   -3.0501    1.5504 O   0  0  0  0  0  0  0  0  0  0  0  0
   -2.0899   -1.1176    0.7113 N   0  0  0  0  0  0  0  0  0  0  0  0
   -2.9324   -0.5947    0.4758 H   0  0  0  0  0  0  0  0  0  0  0  0
   -0.8329   -0.3580    0.7726 C   0  0  1  0  0  0  0  0  0  0  0  0
   -0.1524   -0.8143    1.4991 H   0  0  0  0  0  0  0  0  0  0  0  0
   -0.1541   -0.4267   -0.6245 C   0  0  0  0  0  0  0  0  0  0  0  0
    0.6265   -1.1932   -0.5732 H   0  0  0  0  0  0  0  0  0  0  0  0
   -0.8890   -0.7936   -1.3490 H   0  0  0  0  0  0  0  0  0  0  0  0
    0.4300    0.8781   -1.2228 C   0  0  0  0  0  0  0  0  0  0  0  0
   -0.0757    1.0824   -2.1727 H   0  0  0  0  0  0  0  0  0  0  0  0
    0.2674    1.7493   -0.5862 H   0  0  0  0  0  0  0  0  0  0  0  0
    1.9361    0.7380   -1.4747 C   0  0  0  0  0  0  0  0  0  0  0  0
    2.4482    0.5293   -0.5300 H   0  0  0  0  0  0  0  0  0  0  0  0
    2.1195   -0.1020   -2.1531 H   0  0  0  0  0  0  0  0  0  0  0  0
    2.5039    2.0136   -2.0904 C   0  0  0  0  0  0  0  0  0  0  0  0
    1.9948    2.2318   -3.0357 H   0  0  0  0  0  0  0  0  0  0  0  0
    2.3443    2.8611   -1.4145 H   0  0  0  0  0  0  0  0  0  0  0  0
    3.9374    1.8208   -2.3289 N   0  0  0  0  0  0  0  0  0  0  0  0
    4.3579    2.6515   -2.7457 H   0  0  0  0  0  0  0  0  0  0  0  0
    4.4213    1.5589   -1.4703 H   0  0  0  0  0  0  0  0  0  0  0  0
   -1.1500    1.0558    1.3049 C   0  0  0  0  0  0  0  0  0  0  0  0
   -2.1448    1.6542    0.9086 O   0  0  0  0  0  0  0  0  0  0  0  0
   -0.3528    1.6332    2.2762 N   0  0  0  0  0  0  0  0  0  0  0  0
    0.4322    1.0898    2.6243 H   0  0  0  0  0  0  0  0  0  0  0  0
   -0.6294    2.9355    2.8695 C   0  0  0  0  0  0  0  0  0  0  0  0
   -1.6153    2.9381    3.3462 H   0  0  0  0  0  0  0  0  0  0  0  0
    0.1218    3.1722    3.6289 H   0  0  0  0  0  0  0  0  0  0  0  0
   -0.6055    3.7176    2.1034 H   0  0  0  0  0  0  0  0  0  0  0  0
  1  2  1  0  0  0  0
  2  3  1  0  0  0  0
  2  4  1  0  0  0  0
  2  5  1  0  0  0  0
  5  6  2  0  0  0  0
  5  7  1  0  0  0  0
  7  8  1  0  0  0  0
  7  9  1  0  0  0  0
  9 10  1  0  0  0  0
  9 11  1  0  0  0  0
  9 26  1  0  0  0  0
 11 12  1  0  0  0  0
 11 13  1  0  0  0  0
 11 14  1  0  0  0  0
 14 15  1  0  0  0  0
 14 16  1  0  0  0  0
 14 17  1  0  0  0  0
 17 18  1  0  0  0  0
 17 19  1  0  0  0  0
 17 20  1  0  0  0  0
 20 21  1  0  0  0  0
 20 22  1  0  0  0  0
 20 23  1  0  0  0  0
 23 24  1  0  0  0  0
 23 25  1  0  0  0  0
 26 27  2  0  0  0  0
 26 28  1  0  0  0  0
 28 29  1  0  0  0  0
 28 30  1  0  0  0  0
 30 31  1  0  0  0  0
 30 32  1  0  0  0  0
 30 33  1  0  0  0  0
M  END
$$$$

  -OEChem-03222214063D

 33 32  0     1  0  0  0  0  0999 V2000
   -3.5884   -4.0572    1.5288 H   0  0  0  0  0  0  0  0  0  0  0  0
   -3.6291   -3.0405    1.1277 C   0  0  0  0  0  0  0  0  0  0  0  0
   -4.3177   -2.4491    1.7361 H   0  0  0  0  0  0  0  0  0  0  0  0
   -4.0027   -3.0812    0.1017 H   0  0  0  0  0  0  0  0  0  0  0  0
   -2.2481   -2.4129    1.1504 C   0  0  0  0  0  0  0  0  0  0  0  0
   -1.2937   -3.0504    1.5670 O   0  0  0  0  0  0  0  0  0  0  0  0
   -2.0791   -1.1173    0.7096 N   0  0  0  0  0  0  0  0  0  0  0  0
   -2.9151   -0.5900    0.4607 H   0  0  0  0  0  0  0  0  0  0  0  0
   -0.8149   -0.3699    0.7740 C   0  0  1  0  0  0  0  0  0  0  0  0
   -0.1323   -0.8317    1.4950 H   0  0  0  0  0  0  0  0  0  0  0  0
   -0.1524   -0.4284   -0.6304 C   0  0  0  0  0  0  0  0  0  0  0  0
    0.6355   -1.1873   -0.5767 H   0  0  0  0  0  0  0  0  0  0  0  0
   -0.8809   -0.7948   -1.3617 H   0  0  0  0  0  0  0  0  0  0  0  0
    0.4337    0.8847   -1.2023 C   0  0  0  0  0  0  0  0  0  0  0  0
   -0.2537    1.2926   -1.9514 H   0  0  0  0  0  0  0  0  0  0  0  0
    0.5619    1.6429   -0.4269 H   0  0  0  0  0  0  0  0  0  0  0  0
    1.8184    0.6425   -1.8162 C   0  0  0  0  0  0  0  0  0  0  0  0
    2.5043    0.2725   -1.0471 H   0  0  0  0  0  0  0  0  0  0  0  0
    1.7438   -0.1197   -2.5991 H   0  0  0  0  0  0  0  0  0  0  0  0
    2.3764    1.9286   -2.4193 C   0  0  0  0  0  0  0  0  0  0  0  0
    1.6995    2.3020   -3.1957 H   0  0  0  0  0  0  0  0  0  0  0  0
    2.4643    2.6994   -1.6456 H   0  0  0  0  0  0  0  0  0  0  0  0
    3.6918    1.6425   -3.0000 N   0  0  0  0  0  0  0  0  0  0  0  0
    4.0997    2.4769   -3.4217 H   0  0  0  0  0  0  0  0  0  0  0  0
    4.3212    1.2402   -2.3057 H   0  0  0  0  0  0  0  0  0  0  0  0
   -1.1291    1.0474    1.3022 C   0  0  0  0  0  0  0  0  0  0  0  0
   -2.1119    1.6546    0.8900 O   0  0  0  0  0  0  0  0  0  0  0  0
   -0.3361    1.6243    2.2776 N   0  0  0  0  0  0  0  0  0  0  0  0
    0.4380    1.0749    2.6401 H   0  0  0  0  0  0  0  0  0  0  0  0
   -0.6062    2.9337    2.8590 C   0  0  0  0  0  0  0  0  0  0  0  0
   -1.5993    2.9512    3.3202 H   0  0  0  0  0  0  0  0  0  0  0  0
    0.1358    3.1661    3.6289 H   0  0  0  0  0  0  0  0  0  0  0  0
   -0.5611    3.7114    2.0895 H   0  0  0  0  0  0  0  0  0  0  0  0
  1  2  1  0  0  0  0
  2  3  1  0  0  0  0
  2  4  1  0  0  0  0
  2  5  1  0  0  0  0
  5  6  2  0  0  0  0
  5  7  1  0  0  0  0
  7  8  1  0  0  0  0
  7  9  1  0  0  0  0
  9 10  1  0  0  0  0
  9 11  1  0  0  0  0
  9 26  1  0  0  0  0
 11 12  1  0  0  0  0
 11 13  1  0  0  0  0
 11 14  1  0  0  0  0
 14 15  1  0  0  0  0
 14 16  1  0  0  0  0
 14 17  1  0  0  0  0
 17 18  1  0  0  0  0
 17 19  1  0  0  0  0
 17 20  1  0  0  0  0
 20 21  1  0  0  0  0
 20 22  1  0  0  0  0
 20 23  1  0  0  0  0
 23 24  1  0  0  0  0
 23 25  1  0  0  0  0
 26 27  2  0  0  0  0
 26 28  1  0  0  0  0
 28 29  1  0  0  0  0
 28 30  1  0  0  0  0
 30 31  1  0  0  0  0
 30 32  1  0  0  0  0
 30 33  1  0  0  0  0
M  END
$$$$

  -OEChem-03222214063D

 33 32  0     1  0  0  0  0  0999 V2000
   -3.6187   -4.0433    1.5301 H   0  0  0  0  0  0  0  0  0  0  0  0
   -3.6501   -3.0259    1.1300 C   0  0  0  0  0  0  0  0  0  0  0  0
   -4.3331   -2.4287    1.7390 H   0  0  0  0  0  0  0  0  0  0  0  0
   -4.0242   -3.0621    0.1040 H   0  0  0  0  0  0  0  0  0  0  0  0
   -2.2631   -2.4118    1.1533 C   0  0  0  0  0  0  0  0  0  0  0  0
   -1.3173   -3.0546    1.5815 O   0  0  0  0  0  0  0  0  0  0  0  0
   -2.0781   -1.1224    0.7011 N   0  0  0  0  0  0  0  0  0  0  0  0
   -2.9064   -0.5893    0.4397 H   0  0  0  0  0  0  0  0  0  0  0  0
   -0.8065   -0.3881    0.7613 C   0  0  1  0  0  0  0  0  0  0  0  0
   -0.1272   -0.8535    1.4833 H   0  0  0  0  0  0  0  0  0  0  0  0
   -0.1485   -0.4516   -0.6429 C   0  0  0  0  0  0  0  0  0  0  0  0
    0.6448   -1.2048   -0.5885 H   0  0  0  0  0  0  0  0  0  0  0  0
   -0.8738   -0.8135   -1.3798 H   0  0  0  0  0  0  0  0  0  0  0  0
    0.4371    0.8695   -1.1836 C   0  0  0  0  0  0  0  0  0  0  0  0
   -0.3456    1.4324   -1.7035 H   0  0  0  0  0  0  0  0  0  0  0  0
    0.8127    1.4895   -0.3647 H   0  0  0  0  0  0  0  0  0  0  0  0
    1.6245    0.5977   -2.1139 C   0  0  0  0  0  0  0  0  0  0  0  0
    2.4199    0.0886   -1.5600 H   0  0  0  0  0  0  0  0  0  0  0  0
    1.3064   -0.0588   -2.9307 H   0  0  0  0  0  0  0  0  0  0  0  0
    2.1637    1.9007   -2.6972 C   0  0  0  0  0  0  0  0  0  0  0  0
    1.3755    2.4143   -3.2592 H   0  0  0  0  0  0  0  0  0  0  0  0
    2.4946    2.5651   -1.8913 H   0  0  0  0  0  0  0  0  0  0  0  0
    3.2869    1.5863   -3.5854 N   0  0  0  0  0  0  0  0  0  0  0  0
    3.6757    2.4315   -4.0037 H   0  0  0  0  0  0  0  0  0  0  0  0
    4.0075    1.0583   -3.0935 H   0  0  0  0  0  0  0  0  0  0  0  0
   -1.1006    1.0386    1.2754 C   0  0  0  0  0  0  0  0  0  0  0  0
   -2.0755    1.6549    0.8579 O   0  0  0  0  0  0  0  0  0  0  0  0
   -0.2996    1.6126    2.2457 N   0  0  0  0  0  0  0  0  0  0  0  0
    0.4587    1.0506    2.6222 H   0  0  0  0  0  0  0  0  0  0  0  0
   -0.5567    2.9271    2.8203 C   0  0  0  0  0  0  0  0  0  0  0  0
   -1.5336    2.9446    3.3149 H   0  0  0  0  0  0  0  0  0  0  0  0
    0.2104    3.1730    3.5609 H   0  0  0  0  0  0  0  0  0  0  0  0
   -0.5424    3.6955    2.0402 H   0  0  0  0  0  0  0  0  0  0  0  0
  1  2  1  0  0  0  0
  2  3  1  0  0  0  0
  2  4  1  0  0  0  0
  2  5  1  0  0  0  0
  5  6  2  0  0  0  0
  5  7  1  0  0  0  0
  7  8  1  0  0  0  0
  7  9  1  0  0  0  0
  9 10  1  0  0  0  0
  9 11  1  0  0  0  0
  9 26  1  0  0  0  0
 11 12  1  0  0  0  0
 11 13  1  0  0  0  0
 11 14  1  0  0  0  0
 14 15  1  0  0  0  0
 14 16  1  0  0  0  0
 14 17  1  0  0  0  0
 17 18  1  0  0  0  0
 17 19  1  0  0  0  0
 17 20  1  0  0  0  0
 20 21  1  0  0  0  0
 20 22  1  0  0  0  0
 20 23  1  0  0  0  0
 23 24  1  0  0  0  0
 23 25  1  0  0  0  0
 26 27  2  0  0  0  0
 26 28  1  0  0  0  0
 28 29  1  0  0  0  0
 28 30  1  0  0  0  0
 30 31  1  0  0  0  0
 30 32  1  0  0  0  0
 30 33  1  0  0  0  0
M  END
$$$$

  -OEChem-03222214063D

 33 32  0     1  0  0  0  0  0999 V2000
   -3.6281   -4.0336    1.5670 H   0  0  0  0  0  0  0  0  0  0  0  0
   -3.6573   -3.0254    1.1445 C   0  0  0  0  0  0  0  0  0  0  0  0
   -4.3377   -2.4128    1.7409 H   0  0  0  0  0  0  0  0  0  0  0  0
   -4.0332   -3.0830    0.1202 H   0  0  0  0  0  0  0  0  0  0  0  0
   -2.2686   -2.4147    1.1514 C   0  0  0  0  0  0  0  0  0  0  0  0
   -1.3187   -3.0609    1.5654 O   0  0  0  0  0  0  0  0  0  0  0  0
   -2.0863   -1.1262    0.6953 N   0  0  0  0  0  0  0  0  0  0  0  0
   -2.9175   -0.5913    0.4474 H   0  0  0  0  0  0  0  0  0  0  0  0
   -0.8133   -0.3933    0.7440 C   0  0  1  0  0  0  0  0  0  0  0  0
   -0.1344   -0.8604    1.4648 H   0  0  0  0  0  0  0  0  0  0  0  0
   -0.1553   -0.4653   -0.6579 C   0  0  0  0  0  0  0  0  0  0  0  0
    0.6418   -1.2143   -0.6099 H   0  0  0  0  0  0  0  0  0  0  0  0
   -0.8853   -0.8237   -1.3917 H   0  0  0  0  0  0  0  0  0  0  0  0
    0.4221    0.8593   -1.1874 C   0  0  0  0  0  0  0  0  0  0  0  0
   -0.3941    1.5278   -1.4834 H   0  0  0  0  0  0  0  0  0  0  0  0
    1.0034    1.3543   -0.4029 H   0  0  0  0  0  0  0  0  0  0  0  0
    1.3518    0.6011   -2.3782 C   0  0  0  0  0  0  0  0  0  0  0  0
    2.1833   -0.0386   -2.0652 H   0  0  0  0  0  0  0  0  0  0  0  0
    0.8010    0.0787   -3.1677 H   0  0  0  0  0  0  0  0  0  0  0  0
    1.8997    1.9129   -2.9322 C   0  0  0  0  0  0  0  0  0  0  0  0
    1.0742    2.5536   -3.2621 H   0  0  0  0  0  0  0  0  0  0  0  0
    2.4549    2.4476   -2.1535 H   0  0  0  0  0  0  0  0  0  0  0  0
    2.7820    1.6113   -4.0635 N   0  0  0  0  0  0  0  0  0  0  0  0
    3.1656    2.4641   -4.4711 H   0  0  0  0  0  0  0  0  0  0  0  0
    3.5271    0.9718   -3.7878 H   0  0  0  0  0  0  0  0  0  0  0  0
   -1.0852    1.0390    1.2564 C   0  0  0  0  0  0  0  0  0  0  0  0
   -2.0683    1.6576    0.8624 O   0  0  0  0  0  0  0  0  0  0  0  0
   -0.2669    1.6081    2.2155 N   0  0  0  0  0  0  0  0  0  0  0  0
    0.5019    1.0466    2.5710 H   0  0  0  0  0  0  0  0  0  0  0  0
   -0.5092    2.9232    2.7963 C   0  0  0  0  0  0  0  0  0  0  0  0
   -1.5006    2.9608    3.2601 H   0  0  0  0  0  0  0  0  0  0  0  0
    0.2391    3.1415    3.5642 H   0  0  0  0  0  0  0  0  0  0  0  0
   -0.4507    3.6987    2.0254 H   0  0  0  0  0  0  0  0  0  0  0  0
  1  2  1  0  0  0  0
  2  3  1  0  0  0  0
  2  4  1  0  0  0  0
  2  5  1  0  0  0  0
  5  6  2  0  0  0  0
  5  7  1  0  0  0  0
  7  8  1  0  0  0  0
  7  9  1  0  0  0  0
  9 10  1  0  0  0  0
  9 11  1  0  0  0  0
  9 26  1  0  0  0  0
 11 12  1  0  0  0  0
 11 13  1  0  0  0  0
 11 14  1  0  0  0  0
 14 15  1  0  0  0  0
 14 16  1  0  0  0  0
 14 17  1  0  0  0  0
 17 18  1  0  0  0  0
 17 19  1  0  0  0  0
 17 20  1  0  0  0  0
 20 21  1  0  0  0  0
 20 22  1  0  0  0  0
 20 23  1  0  0  0  0
 23 24  1  0  0  0  0
 23 25  1  0  0  0  0
 26 27  2  0  0  0  0
 26 28  1  0  0  0  0
 28 29  1  0  0  0  0
 28 30  1  0  0  0  0
 30 31  1  0  0  0  0
 30 32  1  0  0  0  0
 30 33  1  0  0  0  0
M  END
$$$$

  -OEChem-03222214063D

 33 32  0     1  0  0  0  0  0999 V2000
   -3.6498   -4.0248    1.5701 H   0  0  0  0  0  0  0  0  0  0  0  0
   -3.6680   -3.0194    1.1404 C   0  0  0  0  0  0  0  0  0  0  0  0
   -4.3518   -2.3991    1.7248 H   0  0  0  0  0  0  0  0  0  0  0  0
   -4.0325   -3.0823    0.1122 H   0  0  0  0  0  0  0  0  0  0  0  0
   -2.2758   -2.4167    1.1595 C   0  0  0  0  0  0  0  0  0  0  0  0
   -1.3353   -3.0631    1.5942 O   0  0  0  0  0  0  0  0  0  0  0  0
   -2.0795   -1.1349    0.6909 N   0  0  0  0  0  0  0  0  0  0  0  0
   -2.9039   -0.5986    0.4239 H   0  0  0  0  0  0  0  0  0  0  0  0
   -0.8036   -0.4087    0.7461 C   0  0  1  0  0  0  0  0  0  0  0  0
   -0.1285   -0.8714    1.4731 H   0  0  0  0  0  0  0  0  0  0  0  0
   -0.1434   -0.4878   -0.6502 C   0  0  0  0  0  0  0  0  0  0  0  0
    0.4424   -1.4113   -0.7065 H   0  0  0  0  0  0  0  0  0  0  0  0
   -0.9311   -0.5542   -1.4086 H   0  0  0  0  0  0  0  0  0  0  0  0
    0.7454    0.7135   -1.0147 C   0  0  0  0  0  0  0  0  0  0  0  0
    0.1546    1.6355   -1.0111 H   0  0  0  0  0  0  0  0  0  0  0  0
    1.5475    0.8163   -0.2766 H   0  0  0  0  0  0  0  0  0  0  0  0
    1.3457    0.5281   -2.4122 C   0  0  0  0  0  0  0  0  0  0  0  0
    1.9510   -0.3838   -2.4345 H   0  0  0  0  0  0  0  0  0  0  0  0
    0.5413    0.4186   -3.1473 H   0  0  0  0  0  0  0  0  0  0  0  0
    2.2122    1.7250   -2.7927 C   0  0  0  0  0  0  0  0  0  0  0  0
    1.6094    2.6401   -2.7883 H   0  0  0  0  0  0  0  0  0  0  0  0
    3.0235    1.8479   -2.0665 H   0  0  0  0  0  0  0  0  0  0  0  0
    2.7637    1.4972   -4.1316 N   0  0  0  0  0  0  0  0  0  0  0  0
    3.3435    2.2811   -4.4313 H   0  0  0  0  0  0  0  0  0  0  0  0
    3.2857    0.6218   -4.1697 H   0  0  0  0  0  0  0  0  0  0  0  0
   -1.0714    1.0304    1.2379 C   0  0  0  0  0  0  0  0  0  0  0  0
   -2.0409    1.6528    0.8178 O   0  0  0  0  0  0  0  0  0  0  0  0
   -0.2606    1.6057    2.1994 N   0  0  0  0  0  0  0  0  0  0  0  0
    0.4973    1.0424    2.5744 H   0  0  0  0  0  0  0  0  0  0  0  0
   -0.4924    2.9352    2.7505 C   0  0  0  0  0  0  0  0  0  0  0  0
   -1.4869    2.9942    3.2052 H   0  0  0  0  0  0  0  0  0  0  0  0
    0.2526    3.1609    3.5196 H   0  0  0  0  0  0  0  0  0  0  0  0
   -0.4186    3.6936    1.9641 H   0  0  0  0  0  0  0  0  0  0  0  0
  1  2  1  0  0  0  0
  2  3  1  0  0  0  0
  2  4  1  0  0  0  0
  2  5  1  0  0  0  0
  5  6  2  0  0  0  0
  5  7  1  0  0  0  0
  7  8  1  0  0  0  0
  7  9  1  0  0  0  0
  9 10  1  0  0  0  0
  9 11  1  0  0  0  0
  9 26  1  0  0  0  0
 11 12  1  0  0  0  0
 11 13  1  0  0  0  0
 11 14  1  0  0  0  0
 14 15  1  0  0  0  0
 14 16  1  0  0  0  0
 14 17  1  0  0  0  0
 17 18  1  0  0  0  0
 17 19  1  0  0  0  0
 17 20  1  0  0  0  0
 20 21  1  0  0  0  0
 20 22  1  0  0  0  0
 20 23  1  0  0  0  0
 23 24  1  0  0  0  0
 23 25  1  0  0  0  0
 26 27  2  0  0  0  0
 26 28  1  0  0  0  0
 28 29  1  0  0  0  0
 28 30  1  0  0  0  0
 30 31  1  0  0  0  0
 30 32  1  0  0  0  0
 30 33  1  0  0  0  0
M  END
$$$$

  -OEChem-03222214063D

 33 32  0     1  0  0  0  0  0999 V2000
   -3.6390   -4.0248    1.5535 H   0  0  0  0  0  0  0  0  0  0  0  0
   -3.6611   -3.0167    1.1300 C   0  0  0  0  0  0  0  0  0  0  0  0
   -4.3438   -2.4011    1.7208 H   0  0  0  0  0  0  0  0  0  0  0  0
   -4.0289   -3.0738    0.1027 H   0  0  0  0  0  0  0  0  0  0  0  0
   -2.2702   -2.4114    1.1483 C   0  0  0  0  0  0  0  0  0  0  0  0
   -1.3263   -3.0606    1.5712 O   0  0  0  0  0  0  0  0  0  0  0  0
   -2.0795   -1.1233    0.6947 N   0  0  0  0  0  0  0  0  0  0  0  0
   -2.9066   -0.5856    0.4391 H   0  0  0  0  0  0  0  0  0  0  0  0
   -0.8045   -0.3949    0.7531 C   0  0  1  0  0  0  0  0  0  0  0  0
   -0.1284   -0.8633    1.4758 H   0  0  0  0  0  0  0  0  0  0  0  0
   -0.1435   -0.4707   -0.6455 C   0  0  0  0  0  0  0  0  0  0  0  0
    0.4326   -1.3991   -0.7174 H   0  0  0  0  0  0  0  0  0  0  0  0
   -0.9448   -0.5298   -1.3905 H   0  0  0  0  0  0  0  0  0  0  0  0
    0.7512    0.7232   -1.0334 C   0  0  0  0  0  0  0  0  0  0  0  0
    0.2553    1.6716   -0.8070 H   0  0  0  0  0  0  0  0  0  0  0  0
    1.6855    0.6825   -0.4637 H   0  0  0  0  0  0  0  0  0  0  0  0
    1.0387    0.7098   -2.5394 C   0  0  0  0  0  0  0  0  0  0  0  0
    1.5355   -0.2278   -2.8093 H   0  0  0  0  0  0  0  0  0  0  0  0
    0.0978    0.7670   -3.0968 H   0  0  0  0  0  0  0  0  0  0  0  0
    1.9252    1.8876   -2.9330 C   0  0  0  0  0  0  0  0  0  0  0  0
    1.4263    2.8312   -2.6845 H   0  0  0  0  0  0  0  0  0  0  0  0
    2.8708    1.8467   -2.3811 H   0  0  0  0  0  0  0  0  0  0  0  0
    2.1793    1.8217   -4.3752 N   0  0  0  0  0  0  0  0  0  0  0  0
    2.7645    2.5981   -4.6837 H   0  0  0  0  0  0  0  0  0  0  0  0
    2.5943    0.9267   -4.6343 H   0  0  0  0  0  0  0  0  0  0  0  0
   -1.0765    1.0364    1.2643 C   0  0  0  0  0  0  0  0  0  0  0  0
   -2.0502    1.6600    0.8561 O   0  0  0  0  0  0  0  0  0  0  0  0
   -0.2646    1.6032    2.2300 N   0  0  0  0  0  0  0  0  0  0  0  0
    0.4986    1.0397    2.5937 H   0  0  0  0  0  0  0  0  0  0  0  0
   -0.5028    2.9230    2.8017 C   0  0  0  0  0  0  0  0  0  0  0  0
   -1.5021    2.9741    3.2472 H   0  0  0  0  0  0  0  0  0  0  0  0
    0.2335    3.1360    3.5828 H   0  0  0  0  0  0  0  0  0  0  0  0
   -0.4214    3.6946    2.0290 H   0  0  0  0  0  0  0  0  0  0  0  0
  1  2  1  0  0  0  0
  2  3  1  0  0  0  0
  2  4  1  0  0  0  0
  2  5  1  0  0  0  0
  5  6  2  0  0  0  0
  5  7  1  0  0  0  0
  7  8  1  0  0  0  0
  7  9  1  0  0  0  0
  9 10  1  0  0  0  0
  9 11  1  0  0  0  0
  9 26  1  0  0  0  0
 11 12  1  0  0  0  0
 11 13  1  0  0  0  0
 11 14  1  0  0  0  0
 14 15  1  0  0  0  0
 14 16  1  0  0  0  0
 14 17  1  0  0  0  0
 17 18  1  0  0  0  0
 17 19  1  0  0  0  0
 17 20  1  0  0  0  0
 20 21  1  0  0  0  0
 20 22  1  0  0  0  0
 20 23  1  0  0  0  0
 23 24  1  0  0  0  0
 23 25  1  0  0  0  0
 26 27  2  0  0  0  0
 26 28  1  0  0  0  0
 28 29  1  0  0  0  0
 28 30  1  0  0  0  0
 30 31  1  0  0  0  0
 30 32  1  0  0  0  0
 30 33  1  0  0  0  0
M  END
$$$$

  -OEChem-03222214063D

 33 32  0     1  0  0  0  0  0999 V2000
   -3.6309   -4.0308    1.5304 H   0  0  0  0  0  0  0  0  0  0  0  0
   -3.6574   -3.0142    1.1281 C   0  0  0  0  0  0  0  0  0  0  0  0
   -4.3366   -2.4125    1.7369 H   0  0  0  0  0  0  0  0  0  0  0  0
   -4.0333   -3.0507    0.1027 H   0  0  0  0  0  0  0  0  0  0  0  0
   -2.2669   -2.4076    1.1470 C   0  0  0  0  0  0  0  0  0  0  0  0
   -1.3212   -3.0600    1.5610 O   0  0  0  0  0  0  0  0  0  0  0  0
   -2.0773   -1.1158    0.7036 N   0  0  0  0  0  0  0  0  0  0  0  0
   -2.9047   -0.5744    0.4561 H   0  0  0  0  0  0  0  0  0  0  0  0
   -0.8011   -0.3894    0.7621 C   0  0  1  0  0  0  0  0  0  0  0  0
   -0.1200   -0.8612    1.4778 H   0  0  0  0  0  0  0  0  0  0  0  0
   -0.1483   -0.4539   -0.6426 C   0  0  0  0  0  0  0  0  0  0  0  0
    0.4152   -1.3880   -0.7351 H   0  0  0  0  0  0  0  0  0  0  0  0
   -0.9646   -0.5025   -1.3717 H   0  0  0  0  0  0  0  0  0  0  0  0
    0.7543    0.7324   -1.0517 C   0  0  0  0  0  0  0  0  0  0  0  0
    0.4227    1.6696   -0.5985 H   0  0  0  0  0  0  0  0  0  0  0  0
    1.7767    0.5424   -0.7091 H   0  0  0  0  0  0  0  0  0  0  0  0
    0.7242    0.9378   -2.5717 C   0  0  0  0  0  0  0  0  0  0  0  0
    1.0347    0.0145   -3.0715 H   0  0  0  0  0  0  0  0  0  0  0  0
   -0.2964    1.1710   -2.8939 H   0  0  0  0  0  0  0  0  0  0  0  0
    1.6517    2.0767   -2.9852 C   0  0  0  0  0  0  0  0  0  0  0  0
    1.3325    3.0109   -2.5098 H   0  0  0  0  0  0  0  0  0  0  0  0
    2.6764    1.8627   -2.6618 H   0  0  0  0  0  0  0  0  0  0  0  0
    1.6021    2.2155   -4.4437 N   0  0  0  0  0  0  0  0  0  0  0  0
    2.1989    2.9781   -4.7639 H   0  0  0  0  0  0  0  0  0  0  0  0
    1.8496    1.3402   -4.9048 H   0  0  0  0  0  0  0  0  0  0  0  0
   -1.0851    1.0339    1.2884 C   0  0  0  0  0  0  0  0  0  0  0  0
   -2.0651    1.6538    0.8895 O   0  0  0  0  0  0  0  0  0  0  0  0
   -0.2753    1.5957    2.2586 N   0  0  0  0  0  0  0  0  0  0  0  0
    0.4924    1.0331    2.6143 H   0  0  0  0  0  0  0  0  0  0  0  0
   -0.5197    2.9080    2.8438 C   0  0  0  0  0  0  0  0  0  0  0  0
   -1.5037    2.9376    3.3235 H   0  0  0  0  0  0  0  0  0  0  0  0
    0.2398    3.1321    3.5990 H   0  0  0  0  0  0  0  0  0  0  0  0
   -0.4802    3.6839    2.0722 H   0  0  0  0  0  0  0  0  0  0  0  0
  1  2  1  0  0  0  0
  2  3  1  0  0  0  0
  2  4  1  0  0  0  0
  2  5  1  0  0  0  0
  5  6  2  0  0  0  0
  5  7  1  0  0  0  0
  7  8  1  0  0  0  0
  7  9  1  0  0  0  0
  9 10  1  0  0  0  0
  9 11  1  0  0  0  0
  9 26  1  0  0  0  0
 11 12  1  0  0  0  0
 11 13  1  0  0  0  0
 11 14  1  0  0  0  0
 14 15  1  0  0  0  0
 14 16  1  0  0  0  0
 14 17  1  0  0  0  0
 17 18  1  0  0  0  0
 17 19  1  0  0  0  0
 17 20  1  0  0  0  0
 20 21  1  0  0  0  0
 20 22  1  0  0  0  0
 20 23  1  0  0  0  0
 23 24  1  0  0  0  0
 23 25  1  0  0  0  0
 26 27  2  0  0  0  0
 26 28  1  0  0  0  0
 28 29  1  0  0  0  0
 28 30  1  0  0  0  0
 30 31  1  0  0  0  0
 30 32  1  0  0  0  0
 30 33  1  0  0  0  0
M  END
$$$$

  -OEChem-03222214063D

 33 32  0     1  0  0  0  0  0999 V2000
   -3.6496   -4.0188    1.5590 H   0  0  0  0  0  0  0  0  0  0  0  0
   -3.6693   -3.0064    1.1462 C   0  0  0  0  0  0  0  0  0  0  0  0
   -4.3419   -2.3926    1.7504 H   0  0  0  0  0  0  0  0  0  0  0  0
   -4.0482   -3.0510    0.1222 H   0  0  0  0  0  0  0  0  0  0  0  0
   -2.2743   -2.4100    1.1565 C   0  0  0  0  0  0  0  0  0  0  0  0
   -1.3310   -3.0685    1.5663 O   0  0  0  0  0  0  0  0  0  0  0  0
   -2.0776   -1.1204    0.7101 N   0  0  0  0  0  0  0  0  0  0  0  0
   -2.9027   -0.5724    0.4688 H   0  0  0  0  0  0  0  0  0  0  0  0
   -0.7960   -0.4023    0.7651 C   0  0  1  0  0  0  0  0  0  0  0  0
   -0.1128   -0.8769    1.4770 H   0  0  0  0  0  0  0  0  0  0  0  0
   -0.1559   -0.4658   -0.6467 C   0  0  0  0  0  0  0  0  0  0  0  0
    0.4037   -1.4026   -0.7377 H   0  0  0  0  0  0  0  0  0  0  0  0
   -0.9759   -0.5219   -1.3714 H   0  0  0  0  0  0  0  0  0  0  0  0
    0.7559    0.7132   -1.0685 C   0  0  0  0  0  0  0  0  0  0  0  0
    0.6476    1.5779   -0.4110 H   0  0  0  0  0  0  0  0  0  0  0  0
    1.7999    0.3902   -1.0008 H   0  0  0  0  0  0  0  0  0  0  0  0
    0.4452    1.1713   -2.4993 C   0  0  0  0  0  0  0  0  0  0  0  0
    0.5620    0.3279   -3.1874 H   0  0  0  0  0  0  0  0  0  0  0  0
   -0.5929    1.5162   -2.5579 H   0  0  0  0  0  0  0  0  0  0  0  0
    1.3742    2.3060   -2.9225 C   0  0  0  0  0  0  0  0  0  0  0  0
    1.2430    3.1660   -2.2562 H   0  0  0  0  0  0  0  0  0  0  0  0
    2.4185    1.9810   -2.8574 H   0  0  0  0  0  0  0  0  0  0  0  0
    1.0514    2.6869   -4.3008 N   0  0  0  0  0  0  0  0  0  0  0  0
    1.6414    3.4546   -4.6215 H   0  0  0  0  0  0  0  0  0  0  0  0
    1.1203    1.8863   -4.9287 H   0  0  0  0  0  0  0  0  0  0  0  0
   -1.0816    1.0219    1.2903 C   0  0  0  0  0  0  0  0  0  0  0  0
   -2.0608    1.6414    0.8886 O   0  0  0  0  0  0  0  0  0  0  0  0
   -0.2741    1.5867    2.2611 N   0  0  0  0  0  0  0  0  0  0  0  0
    0.4954    1.0272    2.6178 H   0  0  0  0  0  0  0  0  0  0  0  0
   -0.5200    2.9016    2.8406 C   0  0  0  0  0  0  0  0  0  0  0  0
   -1.5127    2.9375    3.3015 H   0  0  0  0  0  0  0  0  0  0  0  0
    0.2265    3.1220    3.6097 H   0  0  0  0  0  0  0  0  0  0  0  0
   -0.4612    3.6770    2.0697 H   0  0  0  0  0  0  0  0  0  0  0  0
  1  2  1  0  0  0  0
  2  3  1  0  0  0  0
  2  4  1  0  0  0  0
  2  5  1  0  0  0  0
  5  6  2  0  0  0  0
  5  7  1  0  0  0  0
  7  8  1  0  0  0  0
  7  9  1  0  0  0  0
  9 10  1  0  0  0  0
  9 11  1  0  0  0  0
  9 26  1  0  0  0  0
 11 12  1  0  0  0  0
 11 13  1  0  0  0  0
 11 14  1  0  0  0  0
 14 15  1  0  0  0  0
 14 16  1  0  0  0  0
 14 17  1  0  0  0  0
 17 18  1  0  0  0  0
 17 19  1  0  0  0  0
 17 20  1  0  0  0  0
 20 21  1  0  0  0  0
 20 22  1  0  0  0  0
 20 23  1  0  0  0  0
 23 24  1  0  0  0  0
 23 25  1  0  0  0  0
 26 27  2  0  0  0  0
 26 28  1  0  0  0  0
 28 29  1  0  0  0  0
 28 30  1  0  0  0  0
 30 31  1  0  0  0  0
 30 32  1  0  0  0  0
 30 33  1  0  0  0  0
M  END
$$$$

  -OEChem-03222214063D

 33 32  0     1  0  0  0  0  0999 V2000
   -3.6660   -4.0110    1.6021 H   0  0  0  0  0  0  0  0  0  0  0  0
   -3.6819   -3.0006    1.1839 C   0  0  0  0  0  0  0  0  0  0  0  0
   -4.3405   -2.3774    1.7938 H   0  0  0  0  0  0  0  0  0  0  0  0
   -4.0751   -3.0468    0.1655 H   0  0  0  0  0  0  0  0  0  0  0  0
   -2.2814   -2.4173    1.1708 C   0  0  0  0  0  0  0  0  0  0  0  0
   -1.3393   -3.0795    1.5773 O   0  0  0  0  0  0  0  0  0  0  0  0
   -2.0783   -1.1346    0.7081 N   0  0  0  0  0  0  0  0  0  0  0  0
   -2.9015   -0.5803    0.4745 H   0  0  0  0  0  0  0  0  0  0  0  0
   -0.7929   -0.4238    0.7536 C   0  0  1  0  0  0  0  0  0  0  0  0
   -0.1064   -0.8930    1.4661 H   0  0  0  0  0  0  0  0  0  0  0  0
   -0.1668   -0.4917   -0.6621 C   0  0  0  0  0  0  0  0  0  0  0  0
    0.4025   -1.4238   -0.7373 H   0  0  0  0  0  0  0  0  0  0  0  0
   -0.9802   -0.5661   -1.3922 H   0  0  0  0  0  0  0  0  0  0  0  0
    0.7455    0.6873   -1.0787 C   0  0  0  0  0  0  0  0  0  0  0  0
    0.8831    1.4117   -0.2730 H   0  0  0  0  0  0  0  0  0  0  0  0
    1.7385    0.2860   -1.3074 H   0  0  0  0  0  0  0  0  0  0  0  0
    0.2072    1.4026   -2.3246 C   0  0  0  0  0  0  0  0  0  0  0  0
    0.1199    0.6882   -3.1496 H   0  0  0  0  0  0  0  0  0  0  0  0
   -0.7906    1.8031   -2.1147 H   0  0  0  0  0  0  0  0  0  0  0  0
    1.1303    2.5452   -2.7382 C   0  0  0  0  0  0  0  0  0  0  0  0
    1.1987    3.2825   -1.9306 H   0  0  0  0  0  0  0  0  0  0  0  0
    2.1373    2.1615   -2.9351 H   0  0  0  0  0  0  0  0  0  0  0  0
    0.5872    3.1747   -3.9455 N   0  0  0  0  0  0  0  0  0  0  0  0
    1.1732    3.9494   -4.2559 H   0  0  0  0  0  0  0  0  0  0  0  0
    0.4601    2.4909   -4.6914 H   0  0  0  0  0  0  0  0  0  0  0  0
   -1.0779    1.0074    1.2619 C   0  0  0  0  0  0  0  0  0  0  0  0
   -2.0625    1.6190    0.8610 O   0  0  0  0  0  0  0  0  0  0  0  0
   -0.2710    1.5825    2.2269 N   0  0  0  0  0  0  0  0  0  0  0  0
    0.5016    1.0290    2.5858 H   0  0  0  0  0  0  0  0  0  0  0  0
   -0.5184    2.9027    2.7928 C   0  0  0  0  0  0  0  0  0  0  0  0
   -1.5002    2.9346    3.2769 H   0  0  0  0  0  0  0  0  0  0  0  0
    0.2435    3.1423    3.5407 H   0  0  0  0  0  0  0  0  0  0  0  0
   -0.4865    3.6667    2.0090 H   0  0  0  0  0  0  0  0  0  0  0  0
  1  2  1  0  0  0  0
  2  3  1  0  0  0  0
  2  4  1  0  0  0  0
  2  5  1  0  0  0  0
  5  6  2  0  0  0  0
  5  7  1  0  0  0  0
  7  8  1  0  0  0  0
  7  9  1  0  0  0  0
  9 10  1  0  0  0  0
  9 11  1  0  0  0  0
  9 26  1  0  0  0  0
 11 12  1  0  0  0  0
 11 13  1  0  0  0  0
 11 14  1  0  0  0  0
 14 15  1  0  0  0  0
 14 16  1  0  0  0  0
 14 17  1  0  0  0  0
 17 18  1  0  0  0  0
 17 19  1  0  0  0  0
 17 20  1  0  0  0  0
 20 21  1  0  0  0  0
 20 22  1  0  0  0  0
 20 23  1  0  0  0  0
 23 24  1  0  0  0  0
 23 25  1  0  0  0  0
 26 27  2  0  0  0  0
 26 28  1  0  0  0  0
 28 29  1  0  0  0  0
 28 30  1  0  0  0  0
 30 31  1  0  0  0  0
 30 32  1  0  0  0  0
 30 33  1  0  0  0  0
M  END
$$$$

  -OEChem-03222214063D

 33 32  0     1  0  0  0  0  0999 V2000
   -3.6600   -4.0215    1.6413 H   0  0  0  0  0  0  0  0  0  0  0  0
   -3.6855   -3.0128    1.2196 C   0  0  0  0  0  0  0  0  0  0  0  0
   -4.3343   -2.3884    1.8386 H   0  0  0  0  0  0  0  0  0  0  0  0
   -4.0968   -3.0640    0.2085 H   0  0  0  0  0  0  0  0  0  0  0  0
   -2.2864   -2.4272    1.1803 C   0  0  0  0  0  0  0  0  0  0  0  0
   -1.3368   -3.0871    1.5730 O   0  0  0  0  0  0  0  0  0  0  0  0
   -2.0921   -1.1475    0.7050 N   0  0  0  0  0  0  0  0  0  0  0  0
   -2.9202   -0.5929    0.4896 H   0  0  0  0  0  0  0  0  0  0  0  0
   -0.8085   -0.4327    0.7365 C   0  0  1  0  0  0  0  0  0  0  0  0
   -0.1206   -0.8959    1.4514 H   0  0  0  0  0  0  0  0  0  0  0  0
   -0.1822   -0.5128   -0.6774 C   0  0  0  0  0  0  0  0  0  0  0  0
    0.4058   -1.4353   -0.7251 H   0  0  0  0  0  0  0  0  0  0  0  0
   -0.9811   -0.6126   -1.4205 H   0  0  0  0  0  0  0  0  0  0  0  0
    0.7202    0.6717   -1.0873 C   0  0  0  0  0  0  0  0  0  0  0  0
    1.0715    1.2300   -0.2152 H   0  0  0  0  0  0  0  0  0  0  0  0
    1.6112    0.2629   -1.5754 H   0  0  0  0  0  0  0  0  0  0  0  0
    0.0246    1.6081   -2.0845 C   0  0  0  0  0  0  0  0  0  0  0  0
   -0.2522    1.0486   -2.9839 H   0  0  0  0  0  0  0  0  0  0  0  0
   -0.8928    2.0077   -1.6402 H   0  0  0  0  0  0  0  0  0  0  0  0
    0.9422    2.7657   -2.4688 C   0  0  0  0  0  0  0  0  0  0  0  0
    1.2015    3.3492   -1.5783 H   0  0  0  0  0  0  0  0  0  0  0  0
    1.8703    2.3801   -2.9052 H   0  0  0  0  0  0  0  0  0  0  0  0
    0.2475    3.6172   -3.4390 N   0  0  0  0  0  0  0  0  0  0  0  0
    0.8290    4.4038   -3.7271 H   0  0  0  0  0  0  0  0  0  0  0  0
   -0.0630    3.0769   -4.2462 H   0  0  0  0  0  0  0  0  0  0  0  0
   -1.0831    1.0049    1.2337 C   0  0  0  0  0  0  0  0  0  0  0  0
   -2.0878    1.6024    0.8629 O   0  0  0  0  0  0  0  0  0  0  0  0
   -0.2658    1.5870    2.1860 N   0  0  0  0  0  0  0  0  0  0  0  0
    0.5192    1.0420    2.5305 H   0  0  0  0  0  0  0  0  0  0  0  0
   -0.5079    2.9109    2.7459 C   0  0  0  0  0  0  0  0  0  0  0  0
   -1.4725    2.9374    3.2636 H   0  0  0  0  0  0  0  0  0  0  0  0
    0.2771    3.1679    3.4635 H   0  0  0  0  0  0  0  0  0  0  0  0
   -0.5123    3.6665    1.9532 H   0  0  0  0  0  0  0  0  0  0  0  0
  1  2  1  0  0  0  0
  2  3  1  0  0  0  0
  2  4  1  0  0  0  0
  2  5  1  0  0  0  0
  5  6  2  0  0  0  0
  5  7  1  0  0  0  0
  7  8  1  0  0  0  0
  7  9  1  0  0  0  0
  9 10  1  0  0  0  0
  9 11  1  0  0  0  0
  9 26  1  0  0  0  0
 11 12  1  0  0  0  0
 11 13  1  0  0  0  0
 11 14  1  0  0  0  0
 14 15  1  0  0  0  0
 14 16  1  0  0  0  0
 14 17  1  0  0  0  0
 17 18  1  0  0  0  0
 17 19  1  0  0  0  0
 17 20  1  0  0  0  0
 20 21  1  0  0  0  0
 20 22  1  0  0  0  0
 20 23  1  0  0  0  0
 23 24  1  0  0  0  0
 23 25  1  0  0  0  0
 26 27  2  0  0  0  0
 26 28  1  0  0  0  0
 28 29  1  0  0  0  0
 28 30  1  0  0  0  0
 30 31  1  0  0  0  0
 30 32  1  0  0  0  0
 30 33  1  0  0  0  0
M  END
$$$$

  -OEChem-03222214063D

 33 32  0     1  0  0  0  0  0999 V2000
   -3.6249   -4.0496    1.6351 H   0  0  0  0  0  0  0  0  0  0  0  0
   -3.6720   -3.0301    1.2425 C   0  0  0  0  0  0  0  0  0  0  0  0
   -4.2933   -2.4251    1.9073 H   0  0  0  0  0  0  0  0  0  0  0  0
   -4.1291   -3.0550    0.2504 H   0  0  0  0  0  0  0  0  0  0  0  0
   -2.2779   -2.4377    1.1554 C   0  0  0  0  0  0  0  0  0  0  0  0
   -1.3099   -3.0994    1.4972 O   0  0  0  0  0  0  0  0  0  0  0  0
   -2.1107   -1.1465    0.7021 N   0  0  0  0  0  0  0  0  0  0  0  0
   -2.9515   -0.5941    0.5362 H   0  0  0  0  0  0  0  0  0  0  0  0
   -0.8389   -0.4109    0.7301 C   0  0  1  0  0  0  0  0  0  0  0  0
   -0.1509   -0.8735    1.4453 H   0  0  0  0  0  0  0  0  0  0  0  0
   -0.1890   -0.4890   -0.6739 C   0  0  0  0  0  0  0  0  0  0  0  0
    0.4173   -1.4005   -0.7024 H   0  0  0  0  0  0  0  0  0  0  0  0
   -0.9732   -0.6087   -1.4293 H   0  0  0  0  0  0  0  0  0  0  0  0
    0.6972    0.7028   -1.0905 C   0  0  0  0  0  0  0  0  0  0  0  0
    1.2226    1.1074   -0.2196 H   0  0  0  0  0  0  0  0  0  0  0  0
    1.4608    0.3265   -1.7792 H   0  0  0  0  0  0  0  0  0  0  0  0
   -0.0787    1.8161   -1.8120 C   0  0  0  0  0  0  0  0  0  0  0  0
   -0.5827    1.4015   -2.6909 H   0  0  0  0  0  0  0  0  0  0  0  0
   -0.8444    2.2398   -1.1584 H   0  0  0  0  0  0  0  0  0  0  0  0
    0.8673    2.9302   -2.2517 C   0  0  0  0  0  0  0  0  0  0  0  0
    1.3760    3.3566   -1.3799 H   0  0  0  0  0  0  0  0  0  0  0  0
    1.6297    2.5287   -2.9286 H   0  0  0  0  0  0  0  0  0  0  0  0
    0.0885    3.9694   -2.9316 N   0  0  0  0  0  0  0  0  0  0  0  0
    0.6885    4.7184   -3.2761 H   0  0  0  0  0  0  0  0  0  0  0  0
   -0.4730    3.5741   -3.6858 H   0  0  0  0  0  0  0  0  0  0  0  0
   -1.1161    1.0149    1.2564 C   0  0  0  0  0  0  0  0  0  0  0  0
   -2.1702    1.5771    0.9767 O   0  0  0  0  0  0  0  0  0  0  0  0
   -0.2847    1.5842    2.2041 N   0  0  0  0  0  0  0  0  0  0  0  0
    0.5347    1.0567    2.4905 H   0  0  0  0  0  0  0  0  0  0  0  0
   -0.5508    2.8728    2.8314 C   0  0  0  0  0  0  0  0  0  0  0  0
   -1.4811    2.8334    3.4077 H   0  0  0  0  0  0  0  0  0  0  0  0
    0.2654    3.1396    3.5095 H   0  0  0  0  0  0  0  0  0  0  0  0
   -0.6395    3.6572    2.0722 H   0  0  0  0  0  0  0  0  0  0  0  0
  1  2  1  0  0  0  0
  2  3  1  0  0  0  0
  2  4  1  0  0  0  0
  2  5  1  0  0  0  0
  5  6  2  0  0  0  0
  5  7  1  0  0  0  0
  7  8  1  0  0  0  0
  7  9  1  0  0  0  0
  9 10  1  0  0  0  0
  9 11  1  0  0  0  0
  9 26  1  0  0  0  0
 11 12  1  0  0  0  0
 11 13  1  0  0  0  0
 11 14  1  0  0  0  0
 14 15  1  0  0  0  0
 14 16  1  0  0  0  0
 14 17  1  0  0  0  0
 17 18  1  0  0  0  0
 17 19  1  0  0  0  0
 17 20  1  0  0  0  0
 20 21  1  0  0  0  0
 20 22  1  0  0  0  0
 20 23  1  0  0  0  0
 23 24  1  0  0  0  0
 23 25  1  0  0  0  0
 26 27  2  0  0  0  0
 26 28  1  0  0  0  0
 28 29  1  0  0  0  0
 28 30  1  0  0  0  0
 30 31  1  0  0  0  0
 30 32  1  0  0  0  0
 30 33  1  0  0  0  0
M  END
$$$$

  -OEChem-03222214063D

 33 32  0     1  0  0  0  0  0999 V2000
   -3.5943   -4.1160    1.4623 H   0  0  0  0  0  0  0  0  0  0  0  0
   -3.6541   -3.0719    1.1428 C   0  0  0  0  0  0  0  0  0  0  0  0
   -4.2909   -2.5253    1.8425 H   0  0  0  0  0  0  0  0  0  0  0  0
   -4.1017   -3.0330    0.1469 H   0  0  0  0  0  0  0  0  0  0  0  0
   -2.2690   -2.4537    1.1116 C   0  0  0  0  0  0  0  0  0  0  0  0
   -1.2964   -3.1151    1.4402 O   0  0  0  0  0  0  0  0  0  0  0  0
   -2.1152   -1.1422    0.7154 N   0  0  0  0  0  0  0  0  0  0  0  0
   -2.9624   -0.5951    0.5651 H   0  0  0  0  0  0  0  0  0  0  0  0
   -0.8552   -0.3894    0.7913 C   0  0  1  0  0  0  0  0  0  0  0  0
   -0.1744   -0.8688    1.5021 H   0  0  0  0  0  0  0  0  0  0  0  0
   -0.1766   -0.4189   -0.6018 C   0  0  0  0  0  0  0  0  0  0  0  0
    0.4320   -1.3282   -0.6469 H   0  0  0  0  0  0  0  0  0  0  0  0
   -0.9525   -0.5215   -1.3681 H   0  0  0  0  0  0  0  0  0  0  0  0
    0.7108    0.7768   -1.0114 C   0  0  0  0  0  0  0  0  0  0  0  0
    1.4144    1.0060   -0.2044 H   0  0  0  0  0  0  0  0  0  0  0  0
    1.3025    0.4530   -1.8743 H   0  0  0  0  0  0  0  0  0  0  0  0
   -0.0490    2.0557   -1.4064 C   0  0  0  0  0  0  0  0  0  0  0  0
   -0.9218    1.7973   -2.0141 H   0  0  0  0  0  0  0  0  0  0  0  0
   -0.3987    2.5878   -0.5196 H   0  0  0  0  0  0  0  0  0  0  0  0
    0.8555    2.9949   -2.1999 C   0  0  0  0  0  0  0  0  0  0  0  0
    1.7634    3.2161   -1.6278 H   0  0  0  0  0  0  0  0  0  0  0  0
    1.1528    2.5208   -3.1418 H   0  0  0  0  0  0  0  0  0  0  0  0
    0.1230    4.2354   -2.4688 N   0  0  0  0  0  0  0  0  0  0  0  0
    0.6659    4.8688   -3.0551 H   0  0  0  0  0  0  0  0  0  0  0  0
   -0.7877    4.0410   -2.8855 H   0  0  0  0  0  0  0  0  0  0  0  0
   -1.1634    1.0060    1.3722 C   0  0  0  0  0  0  0  0  0  0  0  0
   -2.2208    1.5636    1.0934 O   0  0  0  0  0  0  0  0  0  0  0  0
   -0.3554    1.5492    2.3545 N   0  0  0  0  0  0  0  0  0  0  0  0
    0.4817    1.0361    2.6145 H   0  0  0  0  0  0  0  0  0  0  0  0
   -0.6368    2.8208    3.0090 C   0  0  0  0  0  0  0  0  0  0  0  0
   -1.5697    2.7593    3.5790 H   0  0  0  0  0  0  0  0  0  0  0  0
    0.1735    3.0800    3.6973 H   0  0  0  0  0  0  0  0  0  0  0  0
   -0.7284    3.6216    2.2673 H   0  0  0  0  0  0  0  0  0  0  0  0
  1  2  1  0  0  0  0
  2  3  1  0  0  0  0
  2  4  1  0  0  0  0
  2  5  1  0  0  0  0
  5  6  2  0  0  0  0
  5  7  1  0  0  0  0
  7  8  1  0  0  0  0
  7  9  1  0  0  0  0
  9 10  1  0  0  0  0
  9 11  1  0  0  0  0
  9 26  1  0  0  0  0
 11 12  1  0  0  0  0
 11 13  1  0  0  0  0
 11 14  1  0  0  0  0
 14 15  1  0  0  0  0
 14 16  1  0  0  0  0
 14 17  1  0  0  0  0
 17 18  1  0  0  0  0
 17 19  1  0  0  0  0
 17 20  1  0  0  0  0
 20 21  1  0  0  0  0
 20 22  1  0  0  0  0
 20 23  1  0  0  0  0
 23 24  1  0  0  0  0
 23 25  1  0  0  0  0
 26 27  2  0  0  0  0
 26 28  1  0  0  0  0
 28 29  1  0  0  0  0
 28 30  1  0  0  0  0
 30 31  1  0  0  0  0
 30 32  1  0  0  0  0
 30 33  1  0  0  0  0
M  END
$$$$

  -OEChem-03222214063D

 33 32  0     1  0  0  0  0  0999 V2000
   -3.5995   -4.1304    1.4094 H   0  0  0  0  0  0  0  0  0  0  0  0
   -3.6565   -3.0886    1.0811 C   0  0  0  0  0  0  0  0  0  0  0  0
   -4.3119   -2.5401    1.7621 H   0  0  0  0  0  0  0  0  0  0  0  0
   -4.0810   -3.0585    0.0747 H   0  0  0  0  0  0  0  0  0  0  0  0
   -2.2734   -2.4648    1.0781 C   0  0  0  0  0  0  0  0  0  0  0  0
   -1.3016   -3.1325    1.3964 O   0  0  0  0  0  0  0  0  0  0  0  0
   -2.1195   -1.1418    0.7214 N   0  0  0  0  0  0  0  0  0  0  0  0
   -2.9667   -0.5929    0.5774 H   0  0  0  0  0  0  0  0  0  0  0  0
   -0.8626   -0.3882    0.8394 C   0  0  1  0  0  0  0  0  0  0  0  0
   -0.1912   -0.8824    1.5492 H   0  0  0  0  0  0  0  0  0  0  0  0
   -0.1650   -0.3933   -0.5475 C   0  0  0  0  0  0  0  0  0  0  0  0
    0.4226   -1.3149   -0.6150 H   0  0  0  0  0  0  0  0  0  0  0  0
   -0.9467   -0.4614   -1.3119 H   0  0  0  0  0  0  0  0  0  0  0  0
    0.7397    0.7869   -0.9732 C   0  0  0  0  0  0  0  0  0  0  0  0
    1.5947    0.8419   -0.2918 H   0  0  0  0  0  0  0  0  0  0  0  0
    1.1332    0.5392   -1.9648 H   0  0  0  0  0  0  0  0  0  0  0  0
    0.0834    2.1764   -1.0440 C   0  0  0  0  0  0  0  0  0  0  0  0
   -0.9502    2.0835   -1.3924 H   0  0  0  0  0  0  0  0  0  0  0  0
    0.0746    2.6424   -0.0558 H   0  0  0  0  0  0  0  0  0  0  0  0
    0.8516    3.0929   -1.9928 C   0  0  0  0  0  0  0  0  0  0  0  0
    1.9067    3.1391   -1.7012 H   0  0  0  0  0  0  0  0  0  0  0  0
    0.7966    2.7032   -3.0152 H   0  0  0  0  0  0  0  0  0  0  0  0
    0.2598    4.4321   -1.9297 N   0  0  0  0  0  0  0  0  0  0  0  0
    0.6919    5.0616   -2.6056 H   0  0  0  0  0  0  0  0  0  0  0  0
   -0.7513    4.3918   -2.0622 H   0  0  0  0  0  0  0  0  0  0  0  0
   -1.1947    0.9859    1.4552 C   0  0  0  0  0  0  0  0  0  0  0  0
   -2.2379    1.5577    1.1519 O   0  0  0  0  0  0  0  0  0  0  0  0
   -0.4102    1.5057    2.4687 N   0  0  0  0  0  0  0  0  0  0  0  0
    0.4304    0.9952    2.7228 H   0  0  0  0  0  0  0  0  0  0  0  0
   -0.6858    2.7811    3.1179 C   0  0  0  0  0  0  0  0  0  0  0  0
   -1.6572    2.7524    3.6225 H   0  0  0  0  0  0  0  0  0  0  0  0
    0.0845    3.0002    3.8633 H   0  0  0  0  0  0  0  0  0  0  0  0
   -0.6944    3.5914    2.3812 H   0  0  0  0  0  0  0  0  0  0  0  0
  1  2  1  0  0  0  0
  2  3  1  0  0  0  0
  2  4  1  0  0  0  0
  2  5  1  0  0  0  0
  5  6  2  0  0  0  0
  5  7  1  0  0  0  0
  7  8  1  0  0  0  0
  7  9  1  0  0  0  0
  9 10  1  0  0  0  0
  9 11  1  0  0  0  0
  9 26  1  0  0  0  0
 11 12  1  0  0  0  0
 11 13  1  0  0  0  0
 11 14  1  0  0  0  0
 14 15  1  0  0  0  0
 14 16  1  0  0  0  0
 14 17  1  0  0  0  0
 17 18  1  0  0  0  0
 17 19  1  0  0  0  0
 17 20  1  0  0  0  0
 20 21  1  0  0  0  0
 20 22  1  0  0  0  0
 20 23  1  0  0  0  0
 23 24  1  0  0  0  0
 23 25  1  0  0  0  0
 26 27  2  0  0  0  0
 26 28  1  0  0  0  0
 28 29  1  0  0  0  0
 28 30  1  0  0  0  0
 30 31  1  0  0  0  0
 30 32  1  0  0  0  0
 30 33  1  0  0  0  0
M  END
$$$$

  -OEChem-03222214063D

 33 32  0     1  0  0  0  0  0999 V2000
   -3.5822   -4.1580    1.4159 H   0  0  0  0  0  0  0  0  0  0  0  0
   -3.6437   -3.1211    1.0742 C   0  0  0  0  0  0  0  0  0  0  0  0
   -4.3151   -2.5709    1.7378 H   0  0  0  0  0  0  0  0  0  0  0  0
   -4.0518   -3.1070    0.0608 H   0  0  0  0  0  0  0  0  0  0  0  0
   -2.2669   -2.4841    1.0853 C   0  0  0  0  0  0  0  0  0  0  0  0
   -1.2890   -3.1477    1.3934 O   0  0  0  0  0  0  0  0  0  0  0  0
   -2.1255   -1.1536    0.7521 N   0  0  0  0  0  0  0  0  0  0  0  0
   -2.9775   -0.6102    0.6154 H   0  0  0  0  0  0  0  0  0  0  0  0
   -0.8735   -0.3919    0.8773 C   0  0  1  0  0  0  0  0  0  0  0  0
   -0.1919   -0.8894    1.5751 H   0  0  0  0  0  0  0  0  0  0  0  0
   -0.1938   -0.3868   -0.5226 C   0  0  0  0  0  0  0  0  0  0  0  0
    0.3724   -1.3193   -0.6170 H   0  0  0  0  0  0  0  0  0  0  0  0
   -1.0004   -0.4347   -1.2623 H   0  0  0  0  0  0  0  0  0  0  0  0
    0.7114    0.7744   -1.0059 C   0  0  0  0  0  0  0  0  0  0  0  0
    1.6861    0.6686   -0.5183 H   0  0  0  0  0  0  0  0  0  0  0  0
    0.8711    0.6253   -2.0793 H   0  0  0  0  0  0  0  0  0  0  0  0
    0.2375    2.2174   -0.7798 C   0  0  0  0  0  0  0  0  0  0  0  0
   -0.8353    2.2935   -0.9834 H   0  0  0  0  0  0  0  0  0  0  0  0
    0.4238    2.5163    0.2539 H   0  0  0  0  0  0  0  0  0  0  0  0
    0.9842    3.1852   -1.6933 C   0  0  0  0  0  0  0  0  0  0  0  0
    2.0660    3.0751   -1.5589 H   0  0  0  0  0  0  0  0  0  0  0  0
    0.7471    2.9698   -2.7412 H   0  0  0  0  0  0  0  0  0  0  0  0
    0.5765    4.5511   -1.3523 N   0  0  0  0  0  0  0  0  0  0  0  0
    0.9947    5.2316   -1.9863 H   0  0  0  0  0  0  0  0  0  0  0  0
   -0.4406    4.6368   -1.3446 H   0  0  0  0  0  0  0  0  0  0  0  0
   -1.2303    0.9643    1.5213 C   0  0  0  0  0  0  0  0  0  0  0  0
   -2.2769    1.5315    1.2201 O   0  0  0  0  0  0  0  0  0  0  0  0
   -0.4550    1.4780    2.5455 N   0  0  0  0  0  0  0  0  0  0  0  0
    0.3993    0.9823    2.7829 H   0  0  0  0  0  0  0  0  0  0  0  0
   -0.7437    2.7436    3.2090 C   0  0  0  0  0  0  0  0  0  0  0  0
   -1.7352    2.7160    3.6732 H   0  0  0  0  0  0  0  0  0  0  0  0
   -0.0028    2.9389    3.9901 H   0  0  0  0  0  0  0  0  0  0  0  0
   -0.7135    3.5686    2.4894 H   0  0  0  0  0  0  0  0  0  0  0  0
  1  2  1  0  0  0  0
  2  3  1  0  0  0  0
  2  4  1  0  0  0  0
  2  5  1  0  0  0  0
  5  6  2  0  0  0  0
  5  7  1  0  0  0  0
  7  8  1  0  0  0  0
  7  9  1  0  0  0  0
  9 10  1  0  0  0  0
  9 11  1  0  0  0  0
  9 26  1  0  0  0  0
 11 12  1  0  0  0  0
 11 13  1  0  0  0  0
 11 14  1  0  0  0  0
 14 15  1  0  0  0  0
 14 16  1  0  0  0  0
 14 17  1  0  0  0  0
 17 18  1  0  0  0  0
 17 19  1  0  0  0  0
 17 20  1  0  0  0  0
 20 21  1  0  0  0  0
 20 22  1  0  0  0  0
 20 23  1  0  0  0  0
 23 24  1  0  0  0  0
 23 25  1  0  0  0  0
 26 27  2  0  0  0  0
 26 28  1  0  0  0  0
 28 29  1  0  0  0  0
 28 30  1  0  0  0  0
 30 31  1  0  0  0  0
 30 32  1  0  0  0  0
 30 33  1  0  0  0  0
M  END
$$$$

  -OEChem-03222214063D

 33 32  0     1  0  0  0  0  0999 V2000
   -3.1721   -4.2089    1.8424 H   0  0  0  0  0  0  0  0  0  0  0  0
   -3.3585   -3.2037    1.4541 C   0  0  0  0  0  0  0  0  0  0  0  0
   -3.9862   -2.6618    2.1657 H   0  0  0  0  0  0  0  0  0  0  0  0
   -3.8874   -3.2862    0.5015 H   0  0  0  0  0  0  0  0  0  0  0  0
   -2.0468   -2.4679    1.2552 C   0  0  0  0  0  0  0  0  0  0  0  0
   -0.9883   -3.0280    1.4951 O   0  0  0  0  0  0  0  0  0  0  0  0
   -2.0547   -1.1643    0.8072 N   0  0  0  0  0  0  0  0  0  0  0  0
   -2.9581   -0.6948    0.7404 H   0  0  0  0  0  0  0  0  0  0  0  0
   -0.8637   -0.3034    0.7288 C   0  0  1  0  0  0  0  0  0  0  0  0
   -0.0582   -0.6778    1.3690 H   0  0  0  0  0  0  0  0  0  0  0  0
   -0.3857   -0.3708   -0.7549 C   0  0  0  0  0  0  0  0  0  0  0  0
    0.2073   -1.2854   -0.8601 H   0  0  0  0  0  0  0  0  0  0  0  0
   -1.2936   -0.5229   -1.3495 H   0  0  0  0  0  0  0  0  0  0  0  0
    0.3589    0.7620   -1.5178 C   0  0  0  0  0  0  0  0  0  0  0  0
    1.4307    0.5572   -1.4261 H   0  0  0  0  0  0  0  0  0  0  0  0
    0.1165    0.6293   -2.5778 H   0  0  0  0  0  0  0  0  0  0  0  0
    0.1389    2.2508   -1.1931 C   0  0  0  0  0  0  0  0  0  0  0  0
   -0.8379    2.4265   -0.7429 H   0  0  0  0  0  0  0  0  0  0  0  0
    0.1380    2.8076   -2.1357 H   0  0  0  0  0  0  0  0  0  0  0  0
    1.2740    2.8136   -0.3348 C   0  0  0  0  0  0  0  0  0  0  0  0
    1.4268    2.2004    0.5573 H   0  0  0  0  0  0  0  0  0  0  0  0
    2.2067    2.7976   -0.9095 H   0  0  0  0  0  0  0  0  0  0  0  0
    0.9498    4.1906    0.0481 N   0  0  0  0  0  0  0  0  0  0  0  0
    1.7295    4.6357    0.5315 H   0  0  0  0  0  0  0  0  0  0  0  0
    0.6639    4.7388   -0.7636 H   0  0  0  0  0  0  0  0  0  0  0  0
   -1.3107    1.0550    1.3137 C   0  0  0  0  0  0  0  0  0  0  0  0
   -2.4454    1.4719    1.0929 O   0  0  0  0  0  0  0  0  0  0  0  0
   -0.5137    1.7344    2.2156 N   0  0  0  0  0  0  0  0  0  0  0  0
    0.4191    1.3730    2.3866 H   0  0  0  0  0  0  0  0  0  0  0  0
   -0.8870    3.0187    2.7954 C   0  0  0  0  0  0  0  0  0  0  0  0
   -1.7915    2.9155    3.4037 H   0  0  0  0  0  0  0  0  0  0  0  0
   -0.0813    3.3943    3.4331 H   0  0  0  0  0  0  0  0  0  0  0  0
   -1.0745    3.7549    2.0066 H   0  0  0  0  0  0  0  0  0  0  0  0
  1  2  1  0  0  0  0
  2  3  1  0  0  0  0
  2  4  1  0  0  0  0
  2  5  1  0  0  0  0
  5  6  2  0  0  0  0
  5  7  1  0  0  0  0
  7  8  1  0  0  0  0
  7  9  1  0  0  0  0
  9 10  1  0  0  0  0
  9 11  1  0  0  0  0
  9 26  1  0  0  0  0
 11 12  1  0  0  0  0
 11 13  1  0  0  0  0
 11 14  1  0  0  0  0
 14 15  1  0  0  0  0
 14 16  1  0  0  0  0
 14 17  1  0  0  0  0
 17 18  1  0  0  0  0
 17 19  1  0  0  0  0
 17 20  1  0  0  0  0
 20 21  1  0  0  0  0
 20 22  1  0  0  0  0
 20 23  1  0  0  0  0
 23 24  1  0  0  0  0
 23 25  1  0  0  0  0
 26 27  2  0  0  0  0
 26 28  1  0  0  0  0
 28 29  1  0  0  0  0
 28 30  1  0  0  0  0
 30 31  1  0  0  0  0
 30 32  1  0  0  0  0
 30 33  1  0  0  0  0
M  END
$$$$

  -OEChem-03222214063D

 33 32  0     1  0  0  0  0  0999 V2000
   -3.5687   -4.2092    1.4236 H   0  0  0  0  0  0  0  0  0  0  0  0
   -3.6315   -3.1812    1.0559 C   0  0  0  0  0  0  0  0  0  0  0  0
   -4.3386   -2.6276    1.6783 H   0  0  0  0  0  0  0  0  0  0  0  0
   -3.9971   -3.1965    0.0264 H   0  0  0  0  0  0  0  0  0  0  0  0
   -2.2662   -2.5220    1.1095 C   0  0  0  0  0  0  0  0  0  0  0  0
   -1.2866   -3.1701    1.4433 O   0  0  0  0  0  0  0  0  0  0  0  0
   -2.1367   -1.1890    0.7823 N   0  0  0  0  0  0  0  0  0  0  0  0
   -2.9917   -0.6576    0.6202 H   0  0  0  0  0  0  0  0  0  0  0  0
   -0.8953   -0.4123    0.9250 C   0  0  1  0  0  0  0  0  0  0  0  0
   -0.1979   -0.8968    1.6160 H   0  0  0  0  0  0  0  0  0  0  0  0
   -0.2436   -0.3799   -0.4924 C   0  0  0  0  0  0  0  0  0  0  0  0
    0.3119   -1.3155   -0.6149 H   0  0  0  0  0  0  0  0  0  0  0  0
   -1.0735   -0.4210   -1.2068 H   0  0  0  0  0  0  0  0  0  0  0  0
    0.6513    0.7758   -1.0233 C   0  0  0  0  0  0  0  0  0  0  0  0
    1.6809    0.4025   -1.0255 H   0  0  0  0  0  0  0  0  0  0  0  0
    0.3763    0.9513   -2.0689 H   0  0  0  0  0  0  0  0  0  0  0  0
    0.6758    2.1281   -0.3044 C   0  0  0  0  0  0  0  0  0  0  0  0
   -0.3333    2.5482   -0.2605 H   0  0  0  0  0  0  0  0  0  0  0  0
    1.0614    1.9983    0.7096 H   0  0  0  0  0  0  0  0  0  0  0  0
    1.5787    3.1163   -1.0359 C   0  0  0  0  0  0  0  0  0  0  0  0
    2.5952    2.7146   -1.1137 H   0  0  0  0  0  0  0  0  0  0  0  0
    1.2022    3.2908   -2.0500 H   0  0  0  0  0  0  0  0  0  0  0  0
    1.5926    4.3708   -0.2781 N   0  0  0  0  0  0  0  0  0  0  0  0
    2.1676    5.0748   -0.7411 H   0  0  0  0  0  0  0  0  0  0  0  0
    0.6436    4.7164   -0.1311 H   0  0  0  0  0  0  0  0  0  0  0  0
   -1.3183    0.9262    1.5710 C   0  0  0  0  0  0  0  0  0  0  0  0
   -2.3524    1.4836    1.2124 O   0  0  0  0  0  0  0  0  0  0  0  0
   -0.5918    1.4648    2.6179 N   0  0  0  0  0  0  0  0  0  0  0  0
    0.2747    1.0002    2.8740 H   0  0  0  0  0  0  0  0  0  0  0  0
   -0.9120    2.7437    3.2387 C   0  0  0  0  0  0  0  0  0  0  0  0
   -1.9146    2.7161    3.6779 H   0  0  0  0  0  0  0  0  0  0  0  0
   -0.1932    2.9680    4.0324 H   0  0  0  0  0  0  0  0  0  0  0  0
   -0.8720    3.5491    2.4978 H   0  0  0  0  0  0  0  0  0  0  0  0
  1  2  1  0  0  0  0
  2  3  1  0  0  0  0
  2  4  1  0  0  0  0
  2  5  1  0  0  0  0
  5  6  2  0  0  0  0
  5  7  1  0  0  0  0
  7  8  1  0  0  0  0
  7  9  1  0  0  0  0
  9 10  1  0  0  0  0
  9 11  1  0  0  0  0
  9 26  1  0  0  0  0
 11 12  1  0  0  0  0
 11 13  1  0  0  0  0
 11 14  1  0  0  0  0
 14 15  1  0  0  0  0
 14 16  1  0  0  0  0
 14 17  1  0  0  0  0
 17 18  1  0  0  0  0
 17 19  1  0  0  0  0
 17 20  1  0  0  0  0
 20 21  1  0  0  0  0
 20 22  1  0  0  0  0
 20 23  1  0  0  0  0
 23 24  1  0  0  0  0
 23 25  1  0  0  0  0
 26 27  2  0  0  0  0
 26 28  1  0  0  0  0
 28 29  1  0  0  0  0
 28 30  1  0  0  0  0
 30 31  1  0  0  0  0
 30 32  1  0  0  0  0
 30 33  1  0  0  0  0
M  END
$$$$

  -OEChem-03222214063D

 33 32  0     1  0  0  0  0  0999 V2000
   -3.5512   -4.2184    1.4027 H   0  0  0  0  0  0  0  0  0  0  0  0
   -3.6196   -3.1859    1.0491 C   0  0  0  0  0  0  0  0  0  0  0  0
   -4.3331   -2.6456    1.6760 H   0  0  0  0  0  0  0  0  0  0  0  0
   -3.9802   -3.1889    0.0177 H   0  0  0  0  0  0  0  0  0  0  0  0
   -2.2591   -2.5188    1.1190 C   0  0  0  0  0  0  0  0  0  0  0  0
   -1.2843   -3.1550    1.4875 O   0  0  0  0  0  0  0  0  0  0  0  0
   -2.1295   -1.1913    0.7703 N   0  0  0  0  0  0  0  0  0  0  0  0
   -2.9833   -0.6686    0.5752 H   0  0  0  0  0  0  0  0  0  0  0  0
   -0.8949   -0.4059    0.9236 C   0  0  1  0  0  0  0  0  0  0  0  0
   -0.2016   -0.8735    1.6304 H   0  0  0  0  0  0  0  0  0  0  0  0
   -0.2348   -0.3796   -0.4890 C   0  0  0  0  0  0  0  0  0  0  0  0
    0.3435   -1.3054   -0.5792 H   0  0  0  0  0  0  0  0  0  0  0  0
   -1.0465   -0.4548   -1.2210 H   0  0  0  0  0  0  0  0  0  0  0  0
    0.6564    0.7822   -1.0127 C   0  0  0  0  0  0  0  0  0  0  0  0
    1.6241    0.3434   -1.2780 H   0  0  0  0  0  0  0  0  0  0  0  0
    0.2111    1.1513   -1.9430 H   0  0  0  0  0  0  0  0  0  0  0  0
    0.9316    1.9958   -0.1186 C   0  0  0  0  0  0  0  0  0  0  0  0
    0.0085    2.5590    0.0424 H   0  0  0  0  0  0  0  0  0  0  0  0
    1.3274    1.6608    0.8444 H   0  0  0  0  0  0  0  0  0  0  0  0
    1.9515    2.9285   -0.7649 C   0  0  0  0  0  0  0  0  0  0  0  0
    2.8921    2.3959   -0.9441 H   0  0  0  0  0  0  0  0  0  0  0  0
    1.5742    3.2882   -1.7286 H   0  0  0  0  0  0  0  0  0  0  0  0
    2.1814    4.0575    0.1414 N   0  0  0  0  0  0  0  0  0  0  0  0
    2.8592    4.7122   -0.2495 H   0  0  0  0  0  0  0  0  0  0  0  0
    1.3048    4.5313    0.3607 H   0  0  0  0  0  0  0  0  0  0  0  0
   -1.3451    0.9395    1.5368 C   0  0  0  0  0  0  0  0  0  0  0  0
   -2.3670    1.4886    1.1338 O   0  0  0  0  0  0  0  0  0  0  0  0
   -0.6493    1.5055    2.5902 N   0  0  0  0  0  0  0  0  0  0  0  0
    0.2085    1.0478    2.8852 H   0  0  0  0  0  0  0  0  0  0  0  0
   -1.0172    2.7734    3.2065 C   0  0  0  0  0  0  0  0  0  0  0  0
   -2.0177    2.7086    3.6467 H   0  0  0  0  0  0  0  0  0  0  0  0
   -0.3068    3.0276    3.9990 H   0  0  0  0  0  0  0  0  0  0  0  0
   -1.0090    3.5772    2.4630 H   0  0  0  0  0  0  0  0  0  0  0  0
  1  2  1  0  0  0  0
  2  3  1  0  0  0  0
  2  4  1  0  0  0  0
  2  5  1  0  0  0  0
  5  6  2  0  0  0  0
  5  7  1  0  0  0  0
  7  8  1  0  0  0  0
  7  9  1  0  0  0  0
  9 10  1  0  0  0  0
  9 11  1  0  0  0  0
  9 26  1  0  0  0  0
 11 12  1  0  0  0  0
 11 13  1  0  0  0  0
 11 14  1  0  0  0  0
 14 15  1  0  0  0  0
 14 16  1  0  0  0  0
 14 17  1  0  0  0  0
 17 18  1  0  0  0  0
 17 19  1  0  0  0  0
 17 20  1  0  0  0  0
 20 21  1  0  0  0  0
 20 22  1  0  0  0  0
 20 23  1  0  0  0  0
 23 24  1  0  0  0  0
 23 25  1  0  0  0  0
 26 27  2  0  0  0  0
 26 28  1  0  0  0  0
 28 29  1  0  0  0  0
 28 30  1  0  0  0  0
 30 31  1  0  0  0  0
 30 32  1  0  0  0  0
 30 33  1  0  0  0  0
M  END
$$$$

  -OEChem-03222214063D

 33 32  0     1  0  0  0  0  0999 V2000
   -3.5406   -4.2068    1.4324 H   0  0  0  0  0  0  0  0  0  0  0  0
   -3.6060   -3.1853    1.0476 C   0  0  0  0  0  0  0  0  0  0  0  0
   -4.3377   -2.6320    1.6413 H   0  0  0  0  0  0  0  0  0  0  0  0
   -3.9414   -3.2203    0.0084 H   0  0  0  0  0  0  0  0  0  0  0  0
   -2.2510   -2.5078    1.1300 C   0  0  0  0  0  0  0  0  0  0  0  0
   -1.2779   -3.1325    1.5219 O   0  0  0  0  0  0  0  0  0  0  0  0
   -2.1240   -1.1853    0.7617 N   0  0  0  0  0  0  0  0  0  0  0  0
   -2.9774   -0.6715    0.5438 H   0  0  0  0  0  0  0  0  0  0  0  0
   -0.8950   -0.3911    0.9125 C   0  0  1  0  0  0  0  0  0  0  0  0
   -0.1998   -0.8474    1.6253 H   0  0  0  0  0  0  0  0  0  0  0  0
   -0.2379   -0.3684   -0.4990 C   0  0  0  0  0  0  0  0  0  0  0  0
    0.3695   -1.2776   -0.5624 H   0  0  0  0  0  0  0  0  0  0  0  0
   -1.0331   -0.4776   -1.2448 H   0  0  0  0  0  0  0  0  0  0  0  0
    0.6397    0.8074   -1.0051 C   0  0  0  0  0  0  0  0  0  0  0  0
    1.4924    0.3671   -1.5331 H   0  0  0  0  0  0  0  0  0  0  0  0
    0.0600    1.3662   -1.7478 H   0  0  0  0  0  0  0  0  0  0  0  0
    1.1678    1.8246    0.0139 C   0  0  0  0  0  0  0  0  0  0  0  0
    0.3674    2.5119    0.2985 H   0  0  0  0  0  0  0  0  0  0  0  0
    1.5323    1.3036    0.9044 H   0  0  0  0  0  0  0  0  0  0  0  0
    2.3107    2.6470   -0.5733 C   0  0  0  0  0  0  0  0  0  0  0  0
    3.1479    1.9925   -0.8414 H   0  0  0  0  0  0  0  0  0  0  0  0
    1.9760    3.1625   -1.4805 H   0  0  0  0  0  0  0  0  0  0  0  0
    2.7402    3.6216    0.4342 N   0  0  0  0  0  0  0  0  0  0  0  0
    3.5189    4.1854    0.0928 H   0  0  0  0  0  0  0  0  0  0  0  0
    1.9616    4.2151    0.7210 H   0  0  0  0  0  0  0  0  0  0  0  0
   -1.3486    0.9645    1.5006 C   0  0  0  0  0  0  0  0  0  0  0  0
   -2.3602    1.5138    1.0734 O   0  0  0  0  0  0  0  0  0  0  0  0
   -0.6585    1.5470    2.5493 N   0  0  0  0  0  0  0  0  0  0  0  0
    0.1944    1.0899    2.8604 H   0  0  0  0  0  0  0  0  0  0  0  0
   -1.0289    2.8245    3.1443 C   0  0  0  0  0  0  0  0  0  0  0  0
   -2.0234    2.7613    3.5980 H   0  0  0  0  0  0  0  0  0  0  0  0
   -0.3107    3.1007    3.9224 H   0  0  0  0  0  0  0  0  0  0  0  0
   -1.0362    3.6138    2.3853 H   0  0  0  0  0  0  0  0  0  0  0  0
  1  2  1  0  0  0  0
  2  3  1  0  0  0  0
  2  4  1  0  0  0  0
  2  5  1  0  0  0  0
  5  6  2  0  0  0  0
  5  7  1  0  0  0  0
  7  8  1  0  0  0  0
  7  9  1  0  0  0  0
  9 10  1  0  0  0  0
  9 11  1  0  0  0  0
  9 26  1  0  0  0  0
 11 12  1  0  0  0  0
 11 13  1  0  0  0  0
 11 14  1  0  0  0  0
 14 15  1  0  0  0  0
 14 16  1  0  0  0  0
 14 17  1  0  0  0  0
 17 18  1  0  0  0  0
 17 19  1  0  0  0  0
 17 20  1  0  0  0  0
 20 21  1  0  0  0  0
 20 22  1  0  0  0  0
 20 23  1  0  0  0  0
 23 24  1  0  0  0  0
 23 25  1  0  0  0  0
 26 27  2  0  0  0  0
 26 28  1  0  0  0  0
 28 29  1  0  0  0  0
 28 30  1  0  0  0  0
 30 31  1  0  0  0  0
 30 32  1  0  0  0  0
 30 33  1  0  0  0  0
M  END
$$$$

  -OEChem-03222214063D

 33 32  0     1  0  0  0  0  0999 V2000
   -3.8643   -3.8053    1.5395 H   0  0  0  0  0  0  0  0  0  0  0  0
   -3.7893   -2.7978    1.1210 C   0  0  0  0  0  0  0  0  0  0  0  0
   -4.4410   -2.1301    1.6896 H   0  0  0  0  0  0  0  0  0  0  0  0
   -4.1224   -2.8228    0.0806 H   0  0  0  0  0  0  0  0  0  0  0  0
   -2.3557   -2.3072    1.1928 C   0  0  0  0  0  0  0  0  0  0  0  0
   -1.4874   -3.0212    1.6691 O   0  0  0  0  0  0  0  0  0  0  0  0
   -2.0390   -1.0497    0.7253 N   0  0  0  0  0  0  0  0  0  0  0  0
   -2.8060   -0.4469    0.4294 H   0  0  0  0  0  0  0  0  0  0  0  0
   -0.7085   -0.4316    0.8277 C   0  0  1  0  0  0  0  0  0  0  0  0
   -0.0712   -0.9324    1.5639 H   0  0  0  0  0  0  0  0  0  0  0  0
   -0.0928   -0.5796   -0.5933 C   0  0  0  0  0  0  0  0  0  0  0  0
    0.3895   -1.5627   -0.6118 H   0  0  0  0  0  0  0  0  0  0  0  0
   -0.9060   -0.6177   -1.3267 H   0  0  0  0  0  0  0  0  0  0  0  0
    0.9270    0.4409   -1.1540 C   0  0  0  0  0  0  0  0  0  0  0  0
    1.5459   -0.0715   -1.8982 H   0  0  0  0  0  0  0  0  0  0  0  0
    0.3537    1.1993   -1.6985 H   0  0  0  0  0  0  0  0  0  0  0  0
    1.8563    1.1616   -0.1592 C   0  0  0  0  0  0  0  0  0  0  0  0
    2.8926    0.9445   -0.4381 H   0  0  0  0  0  0  0  0  0  0  0  0
    1.7302    0.7723    0.8513 H   0  0  0  0  0  0  0  0  0  0  0  0
    1.6691    2.6795   -0.1935 C   0  0  0  0  0  0  0  0  0  0  0  0
    1.9512    3.0643   -1.1798 H   0  0  0  0  0  0  0  0  0  0  0  0
    0.6209    2.9442   -0.0200 H   0  0  0  0  0  0  0  0  0  0  0  0
    2.5186    3.2788    0.8400 N   0  0  0  0  0  0  0  0  0  0  0  0
    2.4723    4.2972    0.8068 H   0  0  0  0  0  0  0  0  0  0  0  0
    2.2617    2.9349    1.7641 H   0  0  0  0  0  0  0  0  0  0  0  0
   -0.9630    1.0181    1.3053 C   0  0  0  0  0  0  0  0  0  0  0  0
   -1.8693    1.6787    0.8066 O   0  0  0  0  0  0  0  0  0  0  0  0
   -0.2023    1.5831    2.3145 N   0  0  0  0  0  0  0  0  0  0  0  0
    0.4858    0.9855    2.7643 H   0  0  0  0  0  0  0  0  0  0  0  0
   -0.4846    2.8912    2.8939 C   0  0  0  0  0  0  0  0  0  0  0  0
   -1.4722    2.8952    3.3669 H   0  0  0  0  0  0  0  0  0  0  0  0
    0.2640    3.1375    3.6531 H   0  0  0  0  0  0  0  0  0  0  0  0
   -0.4612    3.6679    2.1224 H   0  0  0  0  0  0  0  0  0  0  0  0
  1  2  1  0  0  0  0
  2  3  1  0  0  0  0
  2  4  1  0  0  0  0
  2  5  1  0  0  0  0
  5  6  2  0  0  0  0
  5  7  1  0  0  0  0
  7  8  1  0  0  0  0
  7  9  1  0  0  0  0
  9 10  1  0  0  0  0
  9 11  1  0  0  0  0
  9 26  1  0  0  0  0
 11 12  1  0  0  0  0
 11 13  1  0  0  0  0
 11 14  1  0  0  0  0
 14 15  1  0  0  0  0
 14 16  1  0  0  0  0
 14 17  1  0  0  0  0
 17 18  1  0  0  0  0
 17 19  1  0  0  0  0
 17 20  1  0  0  0  0
 20 21  1  0  0  0  0
 20 22  1  0  0  0  0
 20 23  1  0  0  0  0
 23 24  1  0  0  0  0
 23 25  1  0  0  0  0
 26 27  2  0  0  0  0
 26 28  1  0  0  0  0
 28 29  1  0  0  0  0
 28 30  1  0  0  0  0
 30 31  1  0  0  0  0
 30 32  1  0  0  0  0
 30 33  1  0  0  0  0
M  END
$$$$

  -OEChem-03222214063D

 33 32  0     1  0  0  0  0  0999 V2000
   -3.5258   -4.1652    1.3954 H   0  0  0  0  0  0  0  0  0  0  0  0
   -3.5918   -3.1351    1.0345 C   0  0  0  0  0  0  0  0  0  0  0  0
   -4.3137   -2.5919    1.6491 H   0  0  0  0  0  0  0  0  0  0  0  0
   -3.9405   -3.1462   -0.0009 H   0  0  0  0  0  0  0  0  0  0  0  0
   -2.2333   -2.4646    1.1160 C   0  0  0  0  0  0  0  0  0  0  0  0
   -1.2715   -3.0833    1.5437 O   0  0  0  0  0  0  0  0  0  0  0  0
   -2.0918   -1.1537    0.7130 N   0  0  0  0  0  0  0  0  0  0  0  0
   -2.9382   -0.6420    0.4662 H   0  0  0  0  0  0  0  0  0  0  0  0
   -0.8615   -0.3628    0.8658 C   0  0  1  0  0  0  0  0  0  0  0  0
   -0.1736   -0.8103    1.5906 H   0  0  0  0  0  0  0  0  0  0  0  0
   -0.1984   -0.3424   -0.5368 C   0  0  0  0  0  0  0  0  0  0  0  0
    0.4207   -1.2426   -0.6099 H   0  0  0  0  0  0  0  0  0  0  0  0
   -0.9813   -0.4336   -1.2979 H   0  0  0  0  0  0  0  0  0  0  0  0
    0.6638    0.8656   -0.9569 C   0  0  0  0  0  0  0  0  0  0  0  0
    1.2072    0.5792   -1.8635 H   0  0  0  0  0  0  0  0  0  0  0  0
    0.0058    1.6998   -1.2236 H   0  0  0  0  0  0  0  0  0  0  0  0
    1.6607    1.3581    0.1041 C   0  0  0  0  0  0  0  0  0  0  0  0
    1.1790    2.0826    0.7612 H   0  0  0  0  0  0  0  0  0  0  0  0
    2.0128    0.5157    0.7085 H   0  0  0  0  0  0  0  0  0  0  0  0
    2.8615    2.0354   -0.5490 C   0  0  0  0  0  0  0  0  0  0  0  0
    3.4098    1.3142   -1.1655 H   0  0  0  0  0  0  0  0  0  0  0  0
    2.5266    2.8530   -1.1969 H   0  0  0  0  0  0  0  0  0  0  0  0
    3.7332    2.5536    0.5097 N   0  0  0  0  0  0  0  0  0  0  0  0
    4.5777    2.9725    0.1196 H   0  0  0  0  0  0  0  0  0  0  0  0
    3.2361    3.2220    1.0981 H   0  0  0  0  0  0  0  0  0  0  0  0
   -1.2962    1.0186    1.4066 C   0  0  0  0  0  0  0  0  0  0  0  0
   -2.2875    1.5742    0.9429 O   0  0  0  0  0  0  0  0  0  0  0  0
   -0.6134    1.6217    2.4473 N   0  0  0  0  0  0  0  0  0  0  0  0
    0.2029    1.1395    2.8140 H   0  0  0  0  0  0  0  0  0  0  0  0
   -0.9881    2.9101    3.0162 C   0  0  0  0  0  0  0  0  0  0  0  0
   -1.9841    2.8543    3.4677 H   0  0  0  0  0  0  0  0  0  0  0  0
   -0.2729    3.2032    3.7906 H   0  0  0  0  0  0  0  0  0  0  0  0
   -0.9947    3.6840    2.2415 H   0  0  0  0  0  0  0  0  0  0  0  0
  1  2  1  0  0  0  0
  2  3  1  0  0  0  0
  2  4  1  0  0  0  0
  2  5  1  0  0  0  0
  5  6  2  0  0  0  0
  5  7  1  0  0  0  0
  7  8  1  0  0  0  0
  7  9  1  0  0  0  0
  9 10  1  0  0  0  0
  9 11  1  0  0  0  0
  9 26  1  0  0  0  0
 11 12  1  0  0  0  0
 11 13  1  0  0  0  0
 11 14  1  0  0  0  0
 14 15  1  0  0  0  0
 14 16  1  0  0  0  0
 14 17  1  0  0  0  0
 17 18  1  0  0  0  0
 17 19  1  0  0  0  0
 17 20  1  0  0  0  0
 20 21  1  0  0  0  0
 20 22  1  0  0  0  0
 20 23  1  0  0  0  0
 23 24  1  0  0  0  0
 23 25  1  0  0  0  0
 26 27  2  0  0  0  0
 26 28  1  0  0  0  0
 28 29  1  0  0  0  0
 28 30  1  0  0  0  0
 30 31  1  0  0  0  0
 30 32  1  0  0  0  0
 30 33  1  0  0  0  0
M  END
$$$$

  -OEChem-03222214063D

 33 32  0     1  0  0  0  0  0999 V2000
   -3.6660   -4.0370    1.5552 H   0  0  0  0  0  0  0  0  0  0  0  0
   -3.6785   -3.0239    1.1435 C   0  0  0  0  0  0  0  0  0  0  0  0
   -4.3698   -2.4137    1.7297 H   0  0  0  0  0  0  0  0  0  0  0  0
   -4.0288   -3.0682    0.1095 H   0  0  0  0  0  0  0  0  0  0  0  0
   -2.2868   -2.4217    1.1928 C   0  0  0  0  0  0  0  0  0  0  0  0
   -1.3607   -3.0614    1.6657 O   0  0  0  0  0  0  0  0  0  0  0  0
   -2.0747   -1.1467    0.7128 N   0  0  0  0  0  0  0  0  0  0  0  0
   -2.8912   -0.6078    0.4263 H   0  0  0  0  0  0  0  0  0  0  0  0
   -0.8001   -0.4203    0.8080 C   0  0  1  0  0  0  0  0  0  0  0  0
   -0.1271   -0.8675    1.5468 H   0  0  0  0  0  0  0  0  0  0  0  0
   -0.1495   -0.4868   -0.5981 C   0  0  0  0  0  0  0  0  0  0  0  0
    0.4179   -1.4210   -0.6666 H   0  0  0  0  0  0  0  0  0  0  0  0
   -0.9455   -0.5393   -1.3487 H   0  0  0  0  0  0  0  0  0  0  0  0
    0.7607    0.6832   -1.0156 C   0  0  0  0  0  0  0  0  0  0  0  0
    1.1217    0.4981   -2.0329 H   0  0  0  0  0  0  0  0  0  0  0  0
    0.1749    1.6083   -1.0437 H   0  0  0  0  0  0  0  0  0  0  0  0
    1.9690    0.8675   -0.0842 C   0  0  0  0  0  0  0  0  0  0  0  0
    1.6557    1.0014    0.9503 H   0  0  0  0  0  0  0  0  0  0  0  0
    2.5928   -0.0314   -0.1243 H   0  0  0  0  0  0  0  0  0  0  0  0
    2.7965    2.0747   -0.5143 C   0  0  0  0  0  0  0  0  0  0  0  0
    3.1474    1.9403   -1.5437 H   0  0  0  0  0  0  0  0  0  0  0  0
    2.1837    2.9824   -0.4789 H   0  0  0  0  0  0  0  0  0  0  0  0
    3.9417    2.2044    0.3918 N   0  0  0  0  0  0  0  0  0  0  0  0
    4.5471    2.9767    0.1129 H   0  0  0  0  0  0  0  0  0  0  0  0
    3.6356    2.3135    1.3580 H   0  0  0  0  0  0  0  0  0  0  0  0
   -1.1464    1.0152    1.2713 C   0  0  0  0  0  0  0  0  0  0  0  0
   -2.1028    1.6025    0.7749 O   0  0  0  0  0  0  0  0  0  0  0  0
   -0.4207    1.6442    2.2666 N   0  0  0  0  0  0  0  0  0  0  0  0
    0.3372    1.1207    2.6957 H   0  0  0  0  0  0  0  0  0  0  0  0
   -0.7305    2.9780    2.7659 C   0  0  0  0  0  0  0  0  0  0  0  0
   -1.7326    2.9986    3.2070 H   0  0  0  0  0  0  0  0  0  0  0  0
   -0.0084    3.2719    3.5338 H   0  0  0  0  0  0  0  0  0  0  0  0
   -0.6876    3.7106    1.9531 H   0  0  0  0  0  0  0  0  0  0  0  0
  1  2  1  0  0  0  0
  2  3  1  0  0  0  0
  2  4  1  0  0  0  0
  2  5  1  0  0  0  0
  5  6  2  0  0  0  0
  5  7  1  0  0  0  0
  7  8  1  0  0  0  0
  7  9  1  0  0  0  0
  9 10  1  0  0  0  0
  9 11  1  0  0  0  0
  9 26  1  0  0  0  0
 11 12  1  0  0  0  0
 11 13  1  0  0  0  0
 11 14  1  0  0  0  0
 14 15  1  0  0  0  0
 14 16  1  0  0  0  0
 14 17  1  0  0  0  0
 17 18  1  0  0  0  0
 17 19  1  0  0  0  0
 17 20  1  0  0  0  0
 20 21  1  0  0  0  0
 20 22  1  0  0  0  0
 20 23  1  0  0  0  0
 23 24  1  0  0  0  0
 23 25  1  0  0  0  0
 26 27  2  0  0  0  0
 26 28  1  0  0  0  0
 28 29  1  0  0  0  0
 28 30  1  0  0  0  0
 30 31  1  0  0  0  0
 30 32  1  0  0  0  0
 30 33  1  0  0  0  0
M  END
$$$$

  -OEChem-03222214063D

 33 32  0     1  0  0  0  0  0999 V2000
   -3.6327   -4.0469    1.6011 H   0  0  0  0  0  0  0  0  0  0  0  0
   -3.6630   -3.0385    1.1789 C   0  0  0  0  0  0  0  0  0  0  0  0
   -4.3421   -2.4266    1.7776 H   0  0  0  0  0  0  0  0  0  0  0  0
   -4.0411   -3.0963    0.1553 H   0  0  0  0  0  0  0  0  0  0  0  0
   -2.2745   -2.4269    1.1841 C   0  0  0  0  0  0  0  0  0  0  0  0
   -1.3303   -3.0596    1.6301 O   0  0  0  0  0  0  0  0  0  0  0  0
   -2.0886   -1.1492    0.6999 N   0  0  0  0  0  0  0  0  0  0  0  0
   -2.9181   -0.6229    0.4287 H   0  0  0  0  0  0  0  0  0  0  0  0
   -0.8212   -0.4074    0.7596 C   0  0  1  0  0  0  0  0  0  0  0  0
   -0.1456   -0.8512    1.4980 H   0  0  0  0  0  0  0  0  0  0  0  0
   -0.1499   -0.4941   -0.6337 C   0  0  0  0  0  0  0  0  0  0  0  0
    0.4258   -1.4237   -0.6952 H   0  0  0  0  0  0  0  0  0  0  0  0
   -0.9419   -0.5577   -1.3876 H   0  0  0  0  0  0  0  0  0  0  0  0
    0.7374    0.6992   -1.0369 C   0  0  0  0  0  0  0  0  0  0  0  0
    0.9395    0.6264   -2.1108 H   0  0  0  0  0  0  0  0  0  0  0  0
    0.2213    1.6509   -0.8780 H   0  0  0  0  0  0  0  0  0  0  0  0
    2.0788    0.6768   -0.2928 C   0  0  0  0  0  0  0  0  0  0  0  0
    1.9098    0.6962    0.7874 H   0  0  0  0  0  0  0  0  0  0  0  0
    2.6156   -0.2473   -0.5321 H   0  0  0  0  0  0  0  0  0  0  0  0
    2.9333    1.8767   -0.6912 C   0  0  0  0  0  0  0  0  0  0  0  0
    3.1143    1.8654   -1.7718 H   0  0  0  0  0  0  0  0  0  0  0  0
    2.4113    2.8078   -0.4437 H   0  0  0  0  0  0  0  0  0  0  0  0
    4.2085    1.8058    0.0288 N   0  0  0  0  0  0  0  0  0  0  0  0
    4.8214    2.5802   -0.2274 H   0  0  0  0  0  0  0  0  0  0  0  0
    4.0617    1.7762    1.0371 H   0  0  0  0  0  0  0  0  0  0  0  0
   -1.1241    1.0320    1.2297 C   0  0  0  0  0  0  0  0  0  0  0  0
   -2.0954    1.6324    0.7816 O   0  0  0  0  0  0  0  0  0  0  0  0
   -0.3404    1.6373    2.1950 N   0  0  0  0  0  0  0  0  0  0  0  0
    0.4270    1.0962    2.5835 H   0  0  0  0  0  0  0  0  0  0  0  0
   -0.5981    2.9742    2.7147 C   0  0  0  0  0  0  0  0  0  0  0  0
   -1.5883    3.0199    3.1799 H   0  0  0  0  0  0  0  0  0  0  0  0
    0.1505    3.2381    3.4679 H   0  0  0  0  0  0  0  0  0  0  0  0
   -0.5526    3.7133    1.9081 H   0  0  0  0  0  0  0  0  0  0  0  0
  1  2  1  0  0  0  0
  2  3  1  0  0  0  0
  2  4  1  0  0  0  0
  2  5  1  0  0  0  0
  5  6  2  0  0  0  0
  5  7  1  0  0  0  0
  7  8  1  0  0  0  0
  7  9  1  0  0  0  0
  9 10  1  0  0  0  0
  9 11  1  0  0  0  0
  9 26  1  0  0  0  0
 11 12  1  0  0  0  0
 11 13  1  0  0  0  0
 11 14  1  0  0  0  0
 14 15  1  0  0  0  0
 14 16  1  0  0  0  0
 14 17  1  0  0  0  0
 17 18  1  0  0  0  0
 17 19  1  0  0  0  0
 17 20  1  0  0  0  0
 20 21  1  0  0  0  0
 20 22  1  0  0  0  0
 20 23  1  0  0  0  0
 23 24  1  0  0  0  0
 23 25  1  0  0  0  0
 26 27  2  0  0  0  0
 26 28  1  0  0  0  0
 28 29  1  0  0  0  0
 28 30  1  0  0  0  0
 30 31  1  0  0  0  0
 30 32  1  0  0  0  0
 30 33  1  0  0  0  0
M  END
$$$$

  -OEChem-03222214063D

 33 32  0     1  0  0  0  0  0999 V2000
   -3.6065   -4.0527    1.6000 H   0  0  0  0  0  0  0  0  0  0  0  0
   -3.6449   -3.0463    1.1739 C   0  0  0  0  0  0  0  0  0  0  0  0
   -4.3313   -2.4379    1.7678 H   0  0  0  0  0  0  0  0  0  0  0  0
   -4.0189   -3.1108    0.1493 H   0  0  0  0  0  0  0  0  0  0  0  0
   -2.2621   -2.4227    1.1807 C   0  0  0  0  0  0  0  0  0  0  0  0
   -1.3110   -3.0500    1.6196 O   0  0  0  0  0  0  0  0  0  0  0  0
   -2.0894   -1.1407    0.7035 N   0  0  0  0  0  0  0  0  0  0  0  0
   -2.9243   -0.6191    0.4401 H   0  0  0  0  0  0  0  0  0  0  0  0
   -0.8265   -0.3914    0.7576 C   0  0  1  0  0  0  0  0  0  0  0  0
   -0.1489   -0.8340    1.4950 H   0  0  0  0  0  0  0  0  0  0  0  0
   -0.1489   -0.4834   -0.6328 C   0  0  0  0  0  0  0  0  0  0  0  0
    0.4187   -1.4178   -0.6959 H   0  0  0  0  0  0  0  0  0  0  0  0
   -0.9446   -0.5479   -1.3828 H   0  0  0  0  0  0  0  0  0  0  0  0
    0.7353    0.7108   -1.0505 C   0  0  0  0  0  0  0  0  0  0  0  0
    0.7317    0.7666   -2.1442 H   0  0  0  0  0  0  0  0  0  0  0  0
    0.3477    1.6675   -0.6916 H   0  0  0  0  0  0  0  0  0  0  0  0
    2.1843    0.5020   -0.5967 C   0  0  0  0  0  0  0  0  0  0  0  0
    2.2141    0.3753    0.4900 H   0  0  0  0  0  0  0  0  0  0  0  0
    2.5886   -0.4073   -1.0541 H   0  0  0  0  0  0  0  0  0  0  0  0
    3.0503    1.6944   -0.9923 C   0  0  0  0  0  0  0  0  0  0  0  0
    3.0282    1.8308   -2.0793 H   0  0  0  0  0  0  0  0  0  0  0  0
    2.6652    2.6088   -0.5274 H   0  0  0  0  0  0  0  0  0  0  0  0
    4.4248    1.4431   -0.5491 N   0  0  0  0  0  0  0  0  0  0  0  0
    5.0433    2.2125   -0.8065 H   0  0  0  0  0  0  0  0  0  0  0  0
    4.4625    1.2649    0.4541 H   0  0  0  0  0  0  0  0  0  0  0  0
   -1.1297    1.0428    1.2393 C   0  0  0  0  0  0  0  0  0  0  0  0
   -2.1062    1.6447    0.8053 O   0  0  0  0  0  0  0  0  0  0  0  0
   -0.3351    1.6394    2.2010 N   0  0  0  0  0  0  0  0  0  0  0  0
    0.4379    1.0959    2.5747 H   0  0  0  0  0  0  0  0  0  0  0  0
   -0.5837    2.9738    2.7313 C   0  0  0  0  0  0  0  0  0  0  0  0
   -1.5796    3.0277    3.1837 H   0  0  0  0  0  0  0  0  0  0  0  0
    0.1572    3.2200    3.4980 H   0  0  0  0  0  0  0  0  0  0  0  0
   -0.5176    3.7202    1.9329 H   0  0  0  0  0  0  0  0  0  0  0  0
  1  2  1  0  0  0  0
  2  3  1  0  0  0  0
  2  4  1  0  0  0  0
  2  5  1  0  0  0  0
  5  6  2  0  0  0  0
  5  7  1  0  0  0  0
  7  8  1  0  0  0  0
  7  9  1  0  0  0  0
  9 10  1  0  0  0  0
  9 11  1  0  0  0  0
  9 26  1  0  0  0  0
 11 12  1  0  0  0  0
 11 13  1  0  0  0  0
 11 14  1  0  0  0  0
 14 15  1  0  0  0  0
 14 16  1  0  0  0  0
 14 17  1  0  0  0  0
 17 18  1  0  0  0  0
 17 19  1  0  0  0  0
 17 20  1  0  0  0  0
 20 21  1  0  0  0  0
 20 22  1  0  0  0  0
 20 23  1  0  0  0  0
 23 24  1  0  0  0  0
 23 25  1  0  0  0  0
 26 27  2  0  0  0  0
 26 28  1  0  0  0  0
 28 29  1  0  0  0  0
 28 30  1  0  0  0  0
 30 31  1  0  0  0  0
 30 32  1  0  0  0  0
 30 33  1  0  0  0  0
M  END
$$$$

  -OEChem-03222214063D

 33 32  0     1  0  0  0  0  0999 V2000
   -3.5938   -4.0522    1.5676 H   0  0  0  0  0  0  0  0  0  0  0  0
   -3.6308   -3.0405    1.1541 C   0  0  0  0  0  0  0  0  0  0  0  0
   -4.3234   -2.4414    1.7503 H   0  0  0  0  0  0  0  0  0  0  0  0
   -3.9968   -3.0931    0.1260 H   0  0  0  0  0  0  0  0  0  0  0  0
   -2.2492   -2.4138    1.1791 C   0  0  0  0  0  0  0  0  0  0  0  0
   -1.3012   -3.0405    1.6256 O   0  0  0  0  0  0  0  0  0  0  0  0
   -2.0726   -1.1300    0.7079 N   0  0  0  0  0  0  0  0  0  0  0  0
   -2.9050   -0.6079    0.4374 H   0  0  0  0  0  0  0  0  0  0  0  0
   -0.8109   -0.3790    0.7760 C   0  0  1  0  0  0  0  0  0  0  0  0
   -0.1335   -0.8214    1.5139 H   0  0  0  0  0  0  0  0  0  0  0  0
   -0.1360   -0.4605   -0.6172 C   0  0  0  0  0  0  0  0  0  0  0  0
    0.4231   -1.3998   -0.6846 H   0  0  0  0  0  0  0  0  0  0  0  0
   -0.9346   -0.5203   -1.3646 H   0  0  0  0  0  0  0  0  0  0  0  0
    0.7542    0.7302   -1.0441 C   0  0  0  0  0  0  0  0  0  0  0  0
    0.5297    0.9670   -2.0899 H   0  0  0  0  0  0  0  0  0  0  0  0
    0.5566    1.6374   -0.4697 H   0  0  0  0  0  0  0  0  0  0  0  0
    2.2393    0.3639   -0.9445 C   0  0  0  0  0  0  0  0  0  0  0  0
    2.4792    0.0829    0.0860 H   0  0  0  0  0  0  0  0  0  0  0  0
    2.4521   -0.4959   -1.5888 H   0  0  0  0  0  0  0  0  0  0  0  0
    3.1155    1.5389   -1.3685 C   0  0  0  0  0  0  0  0  0  0  0  0
    2.8780    1.8321   -2.3972 H   0  0  0  0  0  0  0  0  0  0  0  0
    2.9290    2.4004   -0.7178 H   0  0  0  0  0  0  0  0  0  0  0  0
    4.5204    1.1311   -1.2776 N   0  0  0  0  0  0  0  0  0  0  0  0
    5.1448    1.8901   -1.5510 H   0  0  0  0  0  0  0  0  0  0  0  0
    4.7459    0.7914   -0.3428 H   0  0  0  0  0  0  0  0  0  0  0  0
   -1.1357    1.0500    1.2605 C   0  0  0  0  0  0  0  0  0  0  0  0
   -2.1094    1.6456    0.8115 O   0  0  0  0  0  0  0  0  0  0  0  0
   -0.3605    1.6519    2.2348 N   0  0  0  0  0  0  0  0  0  0  0  0
    0.4048    1.1105    2.6270 H   0  0  0  0  0  0  0  0  0  0  0  0
   -0.6443    2.9731    2.7804 C   0  0  0  0  0  0  0  0  0  0  0  0
   -1.6409    2.9945    3.2337 H   0  0  0  0  0  0  0  0  0  0  0  0
    0.0904    3.2303    3.5492 H   0  0  0  0  0  0  0  0  0  0  0  0
   -0.5990    3.7308    1.9913 H   0  0  0  0  0  0  0  0  0  0  0  0
  1  2  1  0  0  0  0
  2  3  1  0  0  0  0
  2  4  1  0  0  0  0
  2  5  1  0  0  0  0
  5  6  2  0  0  0  0
  5  7  1  0  0  0  0
  7  8  1  0  0  0  0
  7  9  1  0  0  0  0
  9 10  1  0  0  0  0
  9 11  1  0  0  0  0
  9 26  1  0  0  0  0
 11 12  1  0  0  0  0
 11 13  1  0  0  0  0
 11 14  1  0  0  0  0
 14 15  1  0  0  0  0
 14 16  1  0  0  0  0
 14 17  1  0  0  0  0
 17 18  1  0  0  0  0
 17 19  1  0  0  0  0
 17 20  1  0  0  0  0
 20 21  1  0  0  0  0
 20 22  1  0  0  0  0
 20 23  1  0  0  0  0
 23 24  1  0  0  0  0
 23 25  1  0  0  0  0
 26 27  2  0  0  0  0
 26 28  1  0  0  0  0
 28 29  1  0  0  0  0
 28 30  1  0  0  0  0
 30 31  1  0  0  0  0
 30 32  1  0  0  0  0
 30 33  1  0  0  0  0
M  END
$$$$

  -OEChem-03222214063D

 33 32  0     1  0  0  0  0  0999 V2000
   -3.5942   -4.0492    1.5546 H   0  0  0  0  0  0  0  0  0  0  0  0
   -3.6251   -3.0393    1.1359 C   0  0  0  0  0  0  0  0  0  0  0  0
   -4.3251   -2.4368    1.7200 H   0  0  0  0  0  0  0  0  0  0  0  0
   -3.9778   -3.0967    0.1033 H   0  0  0  0  0  0  0  0  0  0  0  0
   -2.2437   -2.4133    1.1769 C   0  0  0  0  0  0  0  0  0  0  0  0
   -1.3010   -3.0419    1.6318 O   0  0  0  0  0  0  0  0  0  0  0  0
   -2.0611   -1.1288    0.7104 N   0  0  0  0  0  0  0  0  0  0  0  0
   -2.8894   -0.6055    0.4300 H   0  0  0  0  0  0  0  0  0  0  0  0
   -0.7967   -0.3833    0.7853 C   0  0  1  0  0  0  0  0  0  0  0  0
   -0.1163   -0.8303    1.5176 H   0  0  0  0  0  0  0  0  0  0  0  0
   -0.1341   -0.4493   -0.6144 C   0  0  0  0  0  0  0  0  0  0  0  0
    0.4306   -1.3859   -0.6767 H   0  0  0  0  0  0  0  0  0  0  0  0
   -0.9281   -0.5157   -1.3664 H   0  0  0  0  0  0  0  0  0  0  0  0
    0.7589    0.7452   -1.0292 C   0  0  0  0  0  0  0  0  0  0  0  0
    0.3415    1.2043   -1.9318 H   0  0  0  0  0  0  0  0  0  0  0  0
    0.7967    1.5208   -0.2618 H   0  0  0  0  0  0  0  0  0  0  0  0
    2.1930    0.2809   -1.3106 C   0  0  0  0  0  0  0  0  0  0  0  0
    2.6109   -0.1847   -0.4121 H   0  0  0  0  0  0  0  0  0  0  0  0
    2.1867   -0.4686   -2.1093 H   0  0  0  0  0  0  0  0  0  0  0  0
    3.0732    1.4550   -1.7305 C   0  0  0  0  0  0  0  0  0  0  0  0
    2.6649    1.9272   -2.6312 H   0  0  0  0  0  0  0  0  0  0  0  0
    3.1003    2.2077   -0.9348 H   0  0  0  0  0  0  0  0  0  0  0  0
    4.4250    0.9538   -1.9974 N   0  0  0  0  0  0  0  0  0  0  0  0
    5.0506    1.7077   -2.2820 H   0  0  0  0  0  0  0  0  0  0  0  0
    4.7985    0.4549   -1.1900 H   0  0  0  0  0  0  0  0  0  0  0  0
   -1.1273    1.0437    1.2742 C   0  0  0  0  0  0  0  0  0  0  0  0
   -2.0940    1.6427    0.8148 O   0  0  0  0  0  0  0  0  0  0  0  0
   -0.3603    1.6455    2.2553 N   0  0  0  0  0  0  0  0  0  0  0  0
    0.3997    1.1037    2.6572 H   0  0  0  0  0  0  0  0  0  0  0  0
   -0.6418    2.9727    2.7884 C   0  0  0  0  0  0  0  0  0  0  0  0
   -1.6495    3.0081    3.2158 H   0  0  0  0  0  0  0  0  0  0  0  0
    0.0761    3.2255    3.5747 H   0  0  0  0  0  0  0  0  0  0  0  0
   -0.5678    3.7262    1.9972 H   0  0  0  0  0  0  0  0  0  0  0  0
  1  2  1  0  0  0  0
  2  3  1  0  0  0  0
  2  4  1  0  0  0  0
  2  5  1  0  0  0  0
  5  6  2  0  0  0  0
  5  7  1  0  0  0  0
  7  8  1  0  0  0  0
  7  9  1  0  0  0  0
  9 10  1  0  0  0  0
  9 11  1  0  0  0  0
  9 26  1  0  0  0  0
 11 12  1  0  0  0  0
 11 13  1  0  0  0  0
 11 14  1  0  0  0  0
 14 15  1  0  0  0  0
 14 16  1  0  0  0  0
 14 17  1  0  0  0  0
 17 18  1  0  0  0  0
 17 19  1  0  0  0  0
 17 20  1  0  0  0  0
 20 21  1  0  0  0  0
 20 22  1  0  0  0  0
 20 23  1  0  0  0  0
 23 24  1  0  0  0  0
 23 25  1  0  0  0  0
 26 27  2  0  0  0  0
 26 28  1  0  0  0  0
 28 29  1  0  0  0  0
 28 30  1  0  0  0  0
 30 31  1  0  0  0  0
 30 32  1  0  0  0  0
 30 33  1  0  0  0  0
M  END
$$$$

  -OEChem-03222214063D

 33 32  0     1  0  0  0  0  0999 V2000
   -3.6206   -4.0385    1.5531 H   0  0  0  0  0  0  0  0  0  0  0  0
   -3.6413   -3.0301    1.1303 C   0  0  0  0  0  0  0  0  0  0  0  0
   -4.3395   -2.4195    1.7080 H   0  0  0  0  0  0  0  0  0  0  0  0
   -3.9888   -3.0894    0.0960 H   0  0  0  0  0  0  0  0  0  0  0  0
   -2.2553   -2.4150    1.1755 C   0  0  0  0  0  0  0  0  0  0  0  0
   -1.3196   -3.0503    1.6356 O   0  0  0  0  0  0  0  0  0  0  0  0
   -2.0594   -1.1341    0.7041 N   0  0  0  0  0  0  0  0  0  0  0  0
   -2.8818   -0.6045    0.4176 H   0  0  0  0  0  0  0  0  0  0  0  0
   -0.7881   -0.4008    0.7793 C   0  0  1  0  0  0  0  0  0  0  0  0
   -0.1093   -0.8537    1.5097 H   0  0  0  0  0  0  0  0  0  0  0  0
   -0.1339   -0.4604   -0.6229 C   0  0  0  0  0  0  0  0  0  0  0  0
    0.4414   -1.3908   -0.6743 H   0  0  0  0  0  0  0  0  0  0  0  0
   -0.9174   -0.5320   -1.3851 H   0  0  0  0  0  0  0  0  0  0  0  0
    0.7616    0.7385   -1.0074 C   0  0  0  0  0  0  0  0  0  0  0  0
    0.2151    1.3986   -1.6897 H   0  0  0  0  0  0  0  0  0  0  0  0
    1.0346    1.3236   -0.1255 H   0  0  0  0  0  0  0  0  0  0  0  0
    2.0688    0.2605   -1.6509 C   0  0  0  0  0  0  0  0  0  0  0  0
    2.6195   -0.3684   -0.9438 H   0  0  0  0  0  0  0  0  0  0  0  0
    1.8418   -0.3431   -2.5361 H   0  0  0  0  0  0  0  0  0  0  0  0
    2.9384    1.4456   -2.0610 C   0  0  0  0  0  0  0  0  0  0  0  0
    2.3993    2.0772   -2.7759 H   0  0  0  0  0  0  0  0  0  0  0  0
    3.1808    2.0555   -1.1838 H   0  0  0  0  0  0  0  0  0  0  0  0
    4.1673    0.9338   -2.6744 N   0  0  0  0  0  0  0  0  0  0  0  0
    4.7798    1.6950   -2.9675 H   0  0  0  0  0  0  0  0  0  0  0  0
    4.6542    0.2959   -2.0450 H   0  0  0  0  0  0  0  0  0  0  0  0
   -1.1040    1.0324    1.2616 C   0  0  0  0  0  0  0  0  0  0  0  0
   -2.0626    1.6401    0.7966 O   0  0  0  0  0  0  0  0  0  0  0  0
   -0.3329    1.6302    2.2420 N   0  0  0  0  0  0  0  0  0  0  0  0
    0.4175    1.0802    2.6505 H   0  0  0  0  0  0  0  0  0  0  0  0
   -0.6004    2.9628    2.7683 C   0  0  0  0  0  0  0  0  0  0  0  0
   -1.6057    3.0101    3.2002 H   0  0  0  0  0  0  0  0  0  0  0  0
    0.1232    3.2131    3.5499 H   0  0  0  0  0  0  0  0  0  0  0  0
   -0.5227    3.7106    1.9722 H   0  0  0  0  0  0  0  0  0  0  0  0
  1  2  1  0  0  0  0
  2  3  1  0  0  0  0
  2  4  1  0  0  0  0
  2  5  1  0  0  0  0
  5  6  2  0  0  0  0
  5  7  1  0  0  0  0
  7  8  1  0  0  0  0
  7  9  1  0  0  0  0
  9 10  1  0  0  0  0
  9 11  1  0  0  0  0
  9 26  1  0  0  0  0
 11 12  1  0  0  0  0
 11 13  1  0  0  0  0
 11 14  1  0  0  0  0
 14 15  1  0  0  0  0
 14 16  1  0  0  0  0
 14 17  1  0  0  0  0
 17 18  1  0  0  0  0
 17 19  1  0  0  0  0
 17 20  1  0  0  0  0
 20 21  1  0  0  0  0
 20 22  1  0  0  0  0
 20 23  1  0  0  0  0
 23 24  1  0  0  0  0
 23 25  1  0  0  0  0
 26 27  2  0  0  0  0
 26 28  1  0  0  0  0
 28 29  1  0  0  0  0
 28 30  1  0  0  0  0
 30 31  1  0  0  0  0
 30 32  1  0  0  0  0
 30 33  1  0  0  0  0
M  END
$$$$

  -OEChem-03222214063D

 33 32  0     1  0  0  0  0  0999 V2000
   -3.6473   -4.0292    1.5763 H   0  0  0  0  0  0  0  0  0  0  0  0
   -3.6610   -3.0271    1.1388 C   0  0  0  0  0  0  0  0  0  0  0  0
   -4.3528   -2.4030    1.7097 H   0  0  0  0  0  0  0  0  0  0  0  0
   -4.0118   -3.0980    0.1065 H   0  0  0  0  0  0  0  0  0  0  0  0
   -2.2699   -2.4226    1.1715 C   0  0  0  0  0  0  0  0  0  0  0  0
   -1.3353   -3.0626    1.6275 O   0  0  0  0  0  0  0  0  0  0  0  0
   -2.0689   -1.1447    0.6946 N   0  0  0  0  0  0  0  0  0  0  0  0
   -2.8897   -0.6124    0.4093 H   0  0  0  0  0  0  0  0  0  0  0  0
   -0.7942   -0.4175    0.7615 C   0  0  1  0  0  0  0  0  0  0  0  0
   -0.1169   -0.8745    1.4904 H   0  0  0  0  0  0  0  0  0  0  0  0
   -0.1413   -0.4842   -0.6385 C   0  0  0  0  0  0  0  0  0  0  0  0
    0.4454   -1.4079   -0.6813 H   0  0  0  0  0  0  0  0  0  0  0  0
   -0.9178   -0.5608   -1.4075 H   0  0  0  0  0  0  0  0  0  0  0  0
    0.7493    0.7206   -0.9979 C   0  0  0  0  0  0  0  0  0  0  0  0
    0.1374    1.5123   -1.4443 H   0  0  0  0  0  0  0  0  0  0  0  0
    1.2199    1.1236   -0.0958 H   0  0  0  0  0  0  0  0  0  0  0  0
    1.8723    0.3017   -1.9526 C   0  0  0  0  0  0  0  0  0  0  0  0
    2.5004   -0.4572   -1.4749 H   0  0  0  0  0  0  0  0  0  0  0  0
    1.4384   -0.1381   -2.8569 H   0  0  0  0  0  0  0  0  0  0  0  0
    2.7309    1.5028   -2.3374 C   0  0  0  0  0  0  0  0  0  0  0  0
    2.1137    2.2665   -2.8240 H   0  0  0  0  0  0  0  0  0  0  0  0
    3.1779    1.9472   -1.4412 H   0  0  0  0  0  0  0  0  0  0  0  0
    3.7810    1.0497   -3.2538 N   0  0  0  0  0  0  0  0  0  0  0  0
    4.3787    1.8238   -3.5435 H   0  0  0  0  0  0  0  0  0  0  0  0
    4.3321    0.2987   -2.8382 H   0  0  0  0  0  0  0  0  0  0  0  0
   -1.0831    1.0234    1.2385 C   0  0  0  0  0  0  0  0  0  0  0  0
   -2.0378    1.6428    0.7814 O   0  0  0  0  0  0  0  0  0  0  0  0
   -0.2940    1.6129    2.2096 N   0  0  0  0  0  0  0  0  0  0  0  0
    0.4551    1.0547    2.6092 H   0  0  0  0  0  0  0  0  0  0  0  0
   -0.5281    2.9553    2.7271 C   0  0  0  0  0  0  0  0  0  0  0  0
   -1.5336    3.0323    3.1540 H   0  0  0  0  0  0  0  0  0  0  0  0
    0.1985    3.1899    3.5108 H   0  0  0  0  0  0  0  0  0  0  0  0
   -0.4265    3.6969    1.9278 H   0  0  0  0  0  0  0  0  0  0  0  0
  1  2  1  0  0  0  0
  2  3  1  0  0  0  0
  2  4  1  0  0  0  0
  2  5  1  0  0  0  0
  5  6  2  0  0  0  0
  5  7  1  0  0  0  0
  7  8  1  0  0  0  0
  7  9  1  0  0  0  0
  9 10  1  0  0  0  0
  9 11  1  0  0  0  0
  9 26  1  0  0  0  0
 11 12  1  0  0  0  0
 11 13  1  0  0  0  0
 11 14  1  0  0  0  0
 14 15  1  0  0  0  0
 14 16  1  0  0  0  0
 14 17  1  0  0  0  0
 17 18  1  0  0  0  0
 17 19  1  0  0  0  0
 17 20  1  0  0  0  0
 20 21  1  0  0  0  0
 20 22  1  0  0  0  0
 20 23  1  0  0  0  0
 23 24  1  0  0  0  0
 23 25  1  0  0  0  0
 26 27  2  0  0  0  0
 26 28  1  0  0  0  0
 28 29  1  0  0  0  0
 28 30  1  0  0  0  0
 30 31  1  0  0  0  0
 30 32  1  0  0  0  0
 30 33  1  0  0  0  0
M  END
$$$$

  -OEChem-03222214063D

 33 32  0     1  0  0  0  0  0999 V2000
   -3.6562   -4.0244    1.5803 H   0  0  0  0  0  0  0  0  0  0  0  0
   -3.6707   -3.0215    1.1447 C   0  0  0  0  0  0  0  0  0  0  0  0
   -4.3567   -2.3966    1.7215 H   0  0  0  0  0  0  0  0  0  0  0  0
   -4.0295   -3.0896    0.1149 H   0  0  0  0  0  0  0  0  0  0  0  0
   -2.2780   -2.4205    1.1683 C   0  0  0  0  0  0  0  0  0  0  0  0
   -1.3420   -3.0636    1.6172 O   0  0  0  0  0  0  0  0  0  0  0  0
   -2.0765   -1.1428    0.6907 N   0  0  0  0  0  0  0  0  0  0  0  0
   -2.8981   -0.6069    0.4142 H   0  0  0  0  0  0  0  0  0  0  0  0
   -0.7990   -0.4197    0.7489 C   0  0  1  0  0  0  0  0  0  0  0  0
   -0.1235   -0.8803    1.4773 H   0  0  0  0  0  0  0  0  0  0  0  0
   -0.1437   -0.4952   -0.6493 C   0  0  0  0  0  0  0  0  0  0  0  0
    0.4443   -1.4179   -0.6961 H   0  0  0  0  0  0  0  0  0  0  0  0
   -0.9225   -0.5666   -1.4163 H   0  0  0  0  0  0  0  0  0  0  0  0
    0.7456    0.7092   -1.0015 C   0  0  0  0  0  0  0  0  0  0  0  0
    0.1201    1.5824   -1.2179 H   0  0  0  0  0  0  0  0  0  0  0  0
    1.3917    0.9523   -0.1516 H   0  0  0  0  0  0  0  0  0  0  0  0
    1.6299    0.3910   -2.2117 C   0  0  0  0  0  0  0  0  0  0  0  0
    2.2785   -0.4606   -1.9817 H   0  0  0  0  0  0  0  0  0  0  0  0
    0.9995    0.1162   -3.0641 H   0  0  0  0  0  0  0  0  0  0  0  0
    2.4862    1.5964   -2.5884 C   0  0  0  0  0  0  0  0  0  0  0  0
    1.8443    2.4506   -2.8314 H   0  0  0  0  0  0  0  0  0  0  0  0
    3.1268    1.8810   -1.7463 H   0  0  0  0  0  0  0  0  0  0  0  0
    3.3078    1.2418   -3.7493 N   0  0  0  0  0  0  0  0  0  0  0  0
    3.8924    2.0245   -4.0425 H   0  0  0  0  0  0  0  0  0  0  0  0
    3.8736    0.4146   -3.5599 H   0  0  0  0  0  0  0  0  0  0  0  0
   -1.0706    1.0236    1.2282 C   0  0  0  0  0  0  0  0  0  0  0  0
   -2.0321    1.6456    0.7891 O   0  0  0  0  0  0  0  0  0  0  0  0
   -0.2680    1.6071    2.1917 N   0  0  0  0  0  0  0  0  0  0  0  0
    0.4843    1.0456    2.5807 H   0  0  0  0  0  0  0  0  0  0  0  0
   -0.4986    2.9451    2.7223 C   0  0  0  0  0  0  0  0  0  0  0  0
   -1.4955    3.0139    3.1705 H   0  0  0  0  0  0  0  0  0  0  0  0
    0.2428    3.1799    3.4920 H   0  0  0  0  0  0  0  0  0  0  0  0
   -0.4182    3.6915    1.9251 H   0  0  0  0  0  0  0  0  0  0  0  0
  1  2  1  0  0  0  0
  2  3  1  0  0  0  0
  2  4  1  0  0  0  0
  2  5  1  0  0  0  0
  5  6  2  0  0  0  0
  5  7  1  0  0  0  0
  7  8  1  0  0  0  0
  7  9  1  0  0  0  0
  9 10  1  0  0  0  0
  9 11  1  0  0  0  0
  9 26  1  0  0  0  0
 11 12  1  0  0  0  0
 11 13  1  0  0  0  0
 11 14  1  0  0  0  0
 14 15  1  0  0  0  0
 14 16  1  0  0  0  0
 14 17  1  0  0  0  0
 17 18  1  0  0  0  0
 17 19  1  0  0  0  0
 17 20  1  0  0  0  0
 20 21  1  0  0  0  0
 20 22  1  0  0  0  0
 20 23  1  0  0  0  0
 23 24  1  0  0  0  0
 23 25  1  0  0  0  0
 26 27  2  0  0  0  0
 26 28  1  0  0  0  0
 28 29  1  0  0  0  0
 28 30  1  0  0  0  0
 30 31  1  0  0  0  0
 30 32  1  0  0  0  0
 30 33  1  0  0  0  0
M  END
$$$$

  -OEChem-03222214063D

 33 32  0     1  0  0  0  0  0999 V2000
   -3.6668   -4.0220    1.5792 H   0  0  0  0  0  0  0  0  0  0  0  0
   -3.6766   -3.0197    1.1416 C   0  0  0  0  0  0  0  0  0  0  0  0
   -4.3633   -2.3916    1.7142 H   0  0  0  0  0  0  0  0  0  0  0  0
   -4.0308   -3.0888    0.1102 H   0  0  0  0  0  0  0  0  0  0  0  0
   -2.2826   -2.4224    1.1709 C   0  0  0  0  0  0  0  0  0  0  0  0
   -1.3518   -3.0646    1.6318 O   0  0  0  0  0  0  0  0  0  0  0  0
   -2.0748   -1.1488    0.6851 N   0  0  0  0  0  0  0  0  0  0  0  0
   -2.8931   -0.6148    0.3959 H   0  0  0  0  0  0  0  0  0  0  0  0
   -0.7973   -0.4269    0.7487 C   0  0  1  0  0  0  0  0  0  0  0  0
   -0.1274   -0.8884    1.4815 H   0  0  0  0  0  0  0  0  0  0  0  0
   -0.1411   -0.5099   -0.6441 C   0  0  0  0  0  0  0  0  0  0  0  0
    0.2205   -1.5316   -0.8013 H   0  0  0  0  0  0  0  0  0  0  0  0
   -0.9032   -0.3078   -1.4047 H   0  0  0  0  0  0  0  0  0  0  0  0
    1.0133    0.4846   -0.8501 C   0  0  0  0  0  0  0  0  0  0  0  0
    0.6547    1.5126   -0.7332 H   0  0  0  0  0  0  0  0  0  0  0  0
    1.7901    0.3056   -0.0994 H   0  0  0  0  0  0  0  0  0  0  0  0
    1.6039    0.3305   -2.2557 C   0  0  0  0  0  0  0  0  0  0  0  0
    1.9781   -0.6900   -2.3878 H   0  0  0  0  0  0  0  0  0  0  0  0
    0.8234    0.5039   -3.0042 H   0  0  0  0  0  0  0  0  0  0  0  0
    2.7421    1.3220   -2.4777 C   0  0  0  0  0  0  0  0  0  0  0  0
    2.3752    2.3475   -2.3575 H   0  0  0  0  0  0  0  0  0  0  0  0
    3.5349    1.1555   -1.7401 H   0  0  0  0  0  0  0  0  0  0  0  0
    3.2667    1.1349   -3.8337 N   0  0  0  0  0  0  0  0  0  0  0  0
    4.0269    1.7858   -4.0305 H   0  0  0  0  0  0  0  0  0  0  0  0
    3.5644    0.1707   -3.9826 H   0  0  0  0  0  0  0  0  0  0  0  0
   -1.0592    1.0216    1.2131 C   0  0  0  0  0  0  0  0  0  0  0  0
   -2.0116    1.6477    0.7612 O   0  0  0  0  0  0  0  0  0  0  0  0
   -0.2574    1.6065    2.1765 N   0  0  0  0  0  0  0  0  0  0  0  0
    0.4896    1.0431    2.5727 H   0  0  0  0  0  0  0  0  0  0  0  0
   -0.4764    2.9534    2.6897 C   0  0  0  0  0  0  0  0  0  0  0  0
   -1.4694    3.0334    3.1444 H   0  0  0  0  0  0  0  0  0  0  0  0
    0.2727    3.1955    3.4497 H   0  0  0  0  0  0  0  0  0  0  0  0
   -0.3988    3.6882    1.8814 H   0  0  0  0  0  0  0  0  0  0  0  0
  1  2  1  0  0  0  0
  2  3  1  0  0  0  0
  2  4  1  0  0  0  0
  2  5  1  0  0  0  0
  5  6  2  0  0  0  0
  5  7  1  0  0  0  0
  7  8  1  0  0  0  0
  7  9  1  0  0  0  0
  9 10  1  0  0  0  0
  9 11  1  0  0  0  0
  9 26  1  0  0  0  0
 11 12  1  0  0  0  0
 11 13  1  0  0  0  0
 11 14  1  0  0  0  0
 14 15  1  0  0  0  0
 14 16  1  0  0  0  0
 14 17  1  0  0  0  0
 17 18  1  0  0  0  0
 17 19  1  0  0  0  0
 17 20  1  0  0  0  0
 20 21  1  0  0  0  0
 20 22  1  0  0  0  0
 20 23  1  0  0  0  0
 23 24  1  0  0  0  0
 23 25  1  0  0  0  0
 26 27  2  0  0  0  0
 26 28  1  0  0  0  0
 28 29  1  0  0  0  0
 28 30  1  0  0  0  0
 30 31  1  0  0  0  0
 30 32  1  0  0  0  0
 30 33  1  0  0  0  0
M  END
$$$$

  -OEChem-03222214063D

 33 32  0     1  0  0  0  0  0999 V2000
   -3.6609   -4.0191    1.5656 H   0  0  0  0  0  0  0  0  0  0  0  0
   -3.6711   -3.0147    1.1329 C   0  0  0  0  0  0  0  0  0  0  0  0
   -4.3568   -2.3892    1.7096 H   0  0  0  0  0  0  0  0  0  0  0  0
   -4.0266   -3.0785    0.1016 H   0  0  0  0  0  0  0  0  0  0  0  0
   -2.2768   -2.4182    1.1636 C   0  0  0  0  0  0  0  0  0  0  0  0
   -1.3453   -3.0636    1.6184 O   0  0  0  0  0  0  0  0  0  0  0  0
   -2.0698   -1.1409    0.6877 N   0  0  0  0  0  0  0  0  0  0  0  0
   -2.8882   -0.6052    0.4014 H   0  0  0  0  0  0  0  0  0  0  0  0
   -0.7928   -0.4185    0.7572 C   0  0  1  0  0  0  0  0  0  0  0  0
   -0.1227   -0.8831    1.4881 H   0  0  0  0  0  0  0  0  0  0  0  0
   -0.1362   -0.4982   -0.6375 C   0  0  0  0  0  0  0  0  0  0  0  0
    0.2161   -1.5202   -0.8115 H   0  0  0  0  0  0  0  0  0  0  0  0
   -0.9098   -0.2865   -1.3838 H   0  0  0  0  0  0  0  0  0  0  0  0
    1.0235    0.4895   -0.8643 C   0  0  0  0  0  0  0  0  0  0  0  0
    0.7572    1.4913   -0.5153 H   0  0  0  0  0  0  0  0  0  0  0  0
    1.9013    0.1572   -0.3005 H   0  0  0  0  0  0  0  0  0  0  0  0
    1.3538    0.5906   -2.3579 C   0  0  0  0  0  0  0  0  0  0  0  0
    1.6204   -0.3992   -2.7425 H   0  0  0  0  0  0  0  0  0  0  0  0
    0.4743    0.9417   -2.9080 H   0  0  0  0  0  0  0  0  0  0  0  0
    2.5113    1.5565   -2.5943 C   0  0  0  0  0  0  0  0  0  0  0  0
    2.2499    2.5538   -2.2224 H   0  0  0  0  0  0  0  0  0  0  0  0
    3.4017    1.2142   -2.0552 H   0  0  0  0  0  0  0  0  0  0  0  0
    2.7848    1.6165   -4.0333 N   0  0  0  0  0  0  0  0  0  0  0  0
    3.5486    2.2607   -4.2387 H   0  0  0  0  0  0  0  0  0  0  0  0
    2.9789    0.6885   -4.4095 H   0  0  0  0  0  0  0  0  0  0  0  0
   -1.0662    1.0241    1.2332 C   0  0  0  0  0  0  0  0  0  0  0  0
   -2.0227    1.6477    0.7862 O   0  0  0  0  0  0  0  0  0  0  0  0
   -0.2700    1.6050    2.2035 N   0  0  0  0  0  0  0  0  0  0  0  0
    0.4813    1.0437    2.5945 H   0  0  0  0  0  0  0  0  0  0  0  0
   -0.4971    2.9458    2.7280 C   0  0  0  0  0  0  0  0  0  0  0  0
   -1.4954    3.0202    3.1721 H   0  0  0  0  0  0  0  0  0  0  0  0
    0.2424    3.1803    3.4996 H   0  0  0  0  0  0  0  0  0  0  0  0
   -0.4105    3.6891    1.9286 H   0  0  0  0  0  0  0  0  0  0  0  0
  1  2  1  0  0  0  0
  2  3  1  0  0  0  0
  2  4  1  0  0  0  0
  2  5  1  0  0  0  0
  5  6  2  0  0  0  0
  5  7  1  0  0  0  0
  7  8  1  0  0  0  0
  7  9  1  0  0  0  0
  9 10  1  0  0  0  0
  9 11  1  0  0  0  0
  9 26  1  0  0  0  0
 11 12  1  0  0  0  0
 11 13  1  0  0  0  0
 11 14  1  0  0  0  0
 14 15  1  0  0  0  0
 14 16  1  0  0  0  0
 14 17  1  0  0  0  0
 17 18  1  0  0  0  0
 17 19  1  0  0  0  0
 17 20  1  0  0  0  0
 20 21  1  0  0  0  0
 20 22  1  0  0  0  0
 20 23  1  0  0  0  0
 23 24  1  0  0  0  0
 23 25  1  0  0  0  0
 26 27  2  0  0  0  0
 26 28  1  0  0  0  0
 28 29  1  0  0  0  0
 28 30  1  0  0  0  0
 30 31  1  0  0  0  0
 30 32  1  0  0  0  0
 30 33  1  0  0  0  0
M  END
$$$$

  -OEChem-03222214063D

 33 32  0     1  0  0  0  0  0999 V2000
   -3.6676   -4.0112    1.5698 H   0  0  0  0  0  0  0  0  0  0  0  0
   -3.6734   -3.0070    1.1366 C   0  0  0  0  0  0  0  0  0  0  0  0
   -4.3551   -2.3781    1.7146 H   0  0  0  0  0  0  0  0  0  0  0  0
   -4.0317   -3.0690    0.1062 H   0  0  0  0  0  0  0  0  0  0  0  0
   -2.2759   -2.4172    1.1630 C   0  0  0  0  0  0  0  0  0  0  0  0
   -1.3452   -3.0690    1.6103 O   0  0  0  0  0  0  0  0  0  0  0  0
   -2.0653   -1.1388    0.6918 N   0  0  0  0  0  0  0  0  0  0  0  0
   -2.8827   -0.5982    0.4120 H   0  0  0  0  0  0  0  0  0  0  0  0
   -0.7864   -0.4195    0.7640 C   0  0  1  0  0  0  0  0  0  0  0  0
   -0.1143   -0.8863    1.4914 H   0  0  0  0  0  0  0  0  0  0  0  0
   -0.1364   -0.4953   -0.6353 C   0  0  0  0  0  0  0  0  0  0  0  0
    0.2038   -1.5191   -0.8232 H   0  0  0  0  0  0  0  0  0  0  0  0
   -0.9214   -0.2761   -1.3676 H   0  0  0  0  0  0  0  0  0  0  0  0
    1.0307    0.4844   -0.8822 C   0  0  0  0  0  0  0  0  0  0  0  0
    0.9061    1.4068   -0.3099 H   0  0  0  0  0  0  0  0  0  0  0  0
    1.9671    0.0189   -0.5575 H   0  0  0  0  0  0  0  0  0  0  0  0
    1.1109    0.8719   -2.3639 C   0  0  0  0  0  0  0  0  0  0  0  0
    1.2304   -0.0302   -2.9726 H   0  0  0  0  0  0  0  0  0  0  0  0
    0.1812    1.3652   -2.6672 H   0  0  0  0  0  0  0  0  0  0  0  0
    2.2833    1.8157   -2.6151 C   0  0  0  0  0  0  0  0  0  0  0  0
    2.1677    2.7244   -2.0137 H   0  0  0  0  0  0  0  0  0  0  0  0
    3.2229    1.3325   -2.3256 H   0  0  0  0  0  0  0  0  0  0  0  0
    2.3123    2.1610   -4.0393 N   0  0  0  0  0  0  0  0  0  0  0  0
    3.0834    2.7939   -4.2515 H   0  0  0  0  0  0  0  0  0  0  0  0
    2.3570    1.3237   -4.6200 H   0  0  0  0  0  0  0  0  0  0  0  0
   -1.0679    1.0204    1.2460 C   0  0  0  0  0  0  0  0  0  0  0  0
   -2.0264    1.6413    0.7996 O   0  0  0  0  0  0  0  0  0  0  0  0
   -0.2774    1.6017    2.2210 N   0  0  0  0  0  0  0  0  0  0  0  0
    0.4754    1.0427    2.6123 H   0  0  0  0  0  0  0  0  0  0  0  0
   -0.5147    2.9384    2.7524 C   0  0  0  0  0  0  0  0  0  0  0  0
   -1.5199    3.0088    3.1811 H   0  0  0  0  0  0  0  0  0  0  0  0
    0.2115    3.1675    3.5381 H   0  0  0  0  0  0  0  0  0  0  0  0
   -0.4157    3.6879    1.9602 H   0  0  0  0  0  0  0  0  0  0  0  0
  1  2  1  0  0  0  0
  2  3  1  0  0  0  0
  2  4  1  0  0  0  0
  2  5  1  0  0  0  0
  5  6  2  0  0  0  0
  5  7  1  0  0  0  0
  7  8  1  0  0  0  0
  7  9  1  0  0  0  0
  9 10  1  0  0  0  0
  9 11  1  0  0  0  0
  9 26  1  0  0  0  0
 11 12  1  0  0  0  0
 11 13  1  0  0  0  0
 11 14  1  0  0  0  0
 14 15  1  0  0  0  0
 14 16  1  0  0  0  0
 14 17  1  0  0  0  0
 17 18  1  0  0  0  0
 17 19  1  0  0  0  0
 17 20  1  0  0  0  0
 20 21  1  0  0  0  0
 20 22  1  0  0  0  0
 20 23  1  0  0  0  0
 23 24  1  0  0  0  0
 23 25  1  0  0  0  0
 26 27  2  0  0  0  0
 26 28  1  0  0  0  0
 28 29  1  0  0  0  0
 28 30  1  0  0  0  0
 30 31  1  0  0  0  0
 30 32  1  0  0  0  0
 30 33  1  0  0  0  0
M  END
$$$$

  -OEChem-03222214063D

 33 32  0     1  0  0  0  0  0999 V2000
   -3.6758   -4.0068    1.6001 H   0  0  0  0  0  0  0  0  0  0  0  0
   -3.6816   -3.0057    1.1602 C   0  0  0  0  0  0  0  0  0  0  0  0
   -4.3556   -2.3699    1.7393 H   0  0  0  0  0  0  0  0  0  0  0  0
   -4.0484   -3.0739    0.1332 H   0  0  0  0  0  0  0  0  0  0  0  0
   -2.2819   -2.4213    1.1720 C   0  0  0  0  0  0  0  0  0  0  0  0
   -1.3503   -3.0751    1.6148 O   0  0  0  0  0  0  0  0  0  0  0  0
   -2.0694   -1.1455    0.6942 N   0  0  0  0  0  0  0  0  0  0  0  0
   -2.8868   -0.5989    0.4257 H   0  0  0  0  0  0  0  0  0  0  0  0
   -0.7865   -0.4325    0.7602 C   0  0  1  0  0  0  0  0  0  0  0  0
   -0.1111   -0.8993    1.4845 H   0  0  0  0  0  0  0  0  0  0  0  0
   -0.1493   -0.5053   -0.6450 C   0  0  0  0  0  0  0  0  0  0  0  0
    0.1877   -1.5299   -0.8328 H   0  0  0  0  0  0  0  0  0  0  0  0
   -0.9399   -0.2905   -1.3728 H   0  0  0  0  0  0  0  0  0  0  0  0
    1.0224    0.4693   -0.8996 C   0  0  0  0  0  0  0  0  0  0  0  0
    1.0796    1.2433   -0.1312 H   0  0  0  0  0  0  0  0  0  0  0  0
    1.9617   -0.0921   -0.8585 H   0  0  0  0  0  0  0  0  0  0  0  0
    0.8878    1.1568   -2.2637 C   0  0  0  0  0  0  0  0  0  0  0  0
    0.8446    0.4007   -3.0544 H   0  0  0  0  0  0  0  0  0  0  0  0
   -0.0427    1.7339   -2.2938 H   0  0  0  0  0  0  0  0  0  0  0  0
    2.0665    2.0920   -2.5173 C   0  0  0  0  0  0  0  0  0  0  0  0
    2.1152    2.8548   -1.7323 H   0  0  0  0  0  0  0  0  0  0  0  0
    3.0043    1.5258   -2.5010 H   0  0  0  0  0  0  0  0  0  0  0  0
    1.8868    2.7328   -3.8233 N   0  0  0  0  0  0  0  0  0  0  0  0
    2.6581    3.3656   -4.0350 H   0  0  0  0  0  0  0  0  0  0  0  0
    1.7712    2.0382   -4.5610 H   0  0  0  0  0  0  0  0  0  0  0  0
   -1.0680    1.0095    1.2380 C   0  0  0  0  0  0  0  0  0  0  0  0
   -2.0295    1.6269    0.7931 O   0  0  0  0  0  0  0  0  0  0  0  0
   -0.2773    1.5951    2.2102 N   0  0  0  0  0  0  0  0  0  0  0  0
    0.4778    1.0392    2.6013 H   0  0  0  0  0  0  0  0  0  0  0  0
   -0.5109    2.9364    2.7309 C   0  0  0  0  0  0  0  0  0  0  0  0
   -1.5146    3.0116    3.1623 H   0  0  0  0  0  0  0  0  0  0  0  0
    0.2186    3.1711    3.5118 H   0  0  0  0  0  0  0  0  0  0  0  0
   -0.4137    3.6789    1.9318 H   0  0  0  0  0  0  0  0  0  0  0  0
  1  2  1  0  0  0  0
  2  3  1  0  0  0  0
  2  4  1  0  0  0  0
  2  5  1  0  0  0  0
  5  6  2  0  0  0  0
  5  7  1  0  0  0  0
  7  8  1  0  0  0  0
  7  9  1  0  0  0  0
  9 10  1  0  0  0  0
  9 11  1  0  0  0  0
  9 26  1  0  0  0  0
 11 12  1  0  0  0  0
 11 13  1  0  0  0  0
 11 14  1  0  0  0  0
 14 15  1  0  0  0  0
 14 16  1  0  0  0  0
 14 17  1  0  0  0  0
 17 18  1  0  0  0  0
 17 19  1  0  0  0  0
 17 20  1  0  0  0  0
 20 21  1  0  0  0  0
 20 22  1  0  0  0  0
 20 23  1  0  0  0  0
 23 24  1  0  0  0  0
 23 25  1  0  0  0  0
 26 27  2  0  0  0  0
 26 28  1  0  0  0  0
 28 29  1  0  0  0  0
 28 30  1  0  0  0  0
 30 31  1  0  0  0  0
 30 32  1  0  0  0  0
 30 33  1  0  0  0  0
M  END
$$$$

  -OEChem-03222214063D

 33 32  0     1  0  0  0  0  0999 V2000
   -3.6908   -4.0032    1.6482 H   0  0  0  0  0  0  0  0  0  0  0  0
   -3.6941   -3.0080    1.1949 C   0  0  0  0  0  0  0  0  0  0  0  0
   -4.3579   -2.3600    1.7724 H   0  0  0  0  0  0  0  0  0  0  0  0
   -4.0718   -3.0873    0.1727 H   0  0  0  0  0  0  0  0  0  0  0  0
   -2.2903   -2.4334    1.1845 C   0  0  0  0  0  0  0  0  0  0  0  0
   -1.3573   -3.0901    1.6200 O   0  0  0  0  0  0  0  0  0  0  0  0
   -2.0756   -1.1634    0.6930 N   0  0  0  0  0  0  0  0  0  0  0  0
   -2.8932   -0.6140    0.4306 H   0  0  0  0  0  0  0  0  0  0  0  0
   -0.7905   -0.4539    0.7456 C   0  0  1  0  0  0  0  0  0  0  0  0
   -0.1100   -0.9171    1.4674 H   0  0  0  0  0  0  0  0  0  0  0  0
   -0.1659   -0.5266   -0.6636 C   0  0  0  0  0  0  0  0  0  0  0  0
    0.1843   -1.5501   -0.8338 H   0  0  0  0  0  0  0  0  0  0  0  0
   -0.9531   -0.3327   -1.4009 H   0  0  0  0  0  0  0  0  0  0  0  0
    1.0036    0.4519   -0.9090 C   0  0  0  0  0  0  0  0  0  0  0  0
    1.2503    1.0197   -0.0084 H   0  0  0  0  0  0  0  0  0  0  0  0
    1.8937   -0.1321   -1.1657 H   0  0  0  0  0  0  0  0  0  0  0  0
    0.6976    1.4168   -2.0607 C   0  0  0  0  0  0  0  0  0  0  0  0
    0.4987    0.8489   -2.9753 H   0  0  0  0  0  0  0  0  0  0  0  0
   -0.1986    1.9996   -1.8213 H   0  0  0  0  0  0  0  0  0  0  0  0
    1.8681    2.3668   -2.2967 C   0  0  0  0  0  0  0  0  0  0  0  0
    2.0726    2.9433   -1.3875 H   0  0  0  0  0  0  0  0  0  0  0  0
    2.7687    1.7958   -2.5481 H   0  0  0  0  0  0  0  0  0  0  0  0
    1.5240    3.2739   -3.3952 N   0  0  0  0  0  0  0  0  0  0  0  0
    2.2869    3.9202   -3.5961 H   0  0  0  0  0  0  0  0  0  0  0  0
    1.2555    2.7544   -4.2308 H   0  0  0  0  0  0  0  0  0  0  0  0
   -1.0642    0.9945    1.2100 C   0  0  0  0  0  0  0  0  0  0  0  0
   -2.0302    1.6069    0.7676 O   0  0  0  0  0  0  0  0  0  0  0  0
   -0.2684    1.5900    2.1720 N   0  0  0  0  0  0  0  0  0  0  0  0
    0.4938    1.0413    2.5594 H   0  0  0  0  0  0  0  0  0  0  0  0
   -0.4856    2.9453    2.6625 C   0  0  0  0  0  0  0  0  0  0  0  0
   -1.4840    3.0392    3.1026 H   0  0  0  0  0  0  0  0  0  0  0  0
    0.2542    3.1931    3.4295 H   0  0  0  0  0  0  0  0  0  0  0  0
   -0.3914    3.6671    1.8444 H   0  0  0  0  0  0  0  0  0  0  0  0
  1  2  1  0  0  0  0
  2  3  1  0  0  0  0
  2  4  1  0  0  0  0
  2  5  1  0  0  0  0
  5  6  2  0  0  0  0
  5  7  1  0  0  0  0
  7  8  1  0  0  0  0
  7  9  1  0  0  0  0
  9 10  1  0  0  0  0
  9 11  1  0  0  0  0
  9 26  1  0  0  0  0
 11 12  1  0  0  0  0
 11 13  1  0  0  0  0
 11 14  1  0  0  0  0
 14 15  1  0  0  0  0
 14 16  1  0  0  0  0
 14 17  1  0  0  0  0
 17 18  1  0  0  0  0
 17 19  1  0  0  0  0
 17 20  1  0  0  0  0
 20 21  1  0  0  0  0
 20 22  1  0  0  0  0
 20 23  1  0  0  0  0
 23 24  1  0  0  0  0
 23 25  1  0  0  0  0
 26 27  2  0  0  0  0
 26 28  1  0  0  0  0
 28 29  1  0  0  0  0
 28 30  1  0  0  0  0
 30 31  1  0  0  0  0
 30 32  1  0  0  0  0
 30 33  1  0  0  0  0
M  END
$$$$

  -OEChem-03222214063D

 33 32  0     1  0  0  0  0  0999 V2000
   -3.6811   -4.0123    1.6907 H   0  0  0  0  0  0  0  0  0  0  0  0
   -3.6950   -3.0207    1.2298 C   0  0  0  0  0  0  0  0  0  0  0  0
   -4.3489   -2.3695    1.8148 H   0  0  0  0  0  0  0  0  0  0  0  0
   -4.0919   -3.1085    0.2157 H   0  0  0  0  0  0  0  0  0  0  0  0
   -2.2926   -2.4438    1.1883 C   0  0  0  0  0  0  0  0  0  0  0  0
   -1.3502   -3.0977    1.6075 O   0  0  0  0  0  0  0  0  0  0  0  0
   -2.0896   -1.1745    0.6897 N   0  0  0  0  0  0  0  0  0  0  0  0
   -2.9139   -0.6257    0.4474 H   0  0  0  0  0  0  0  0  0  0  0  0
   -0.8074   -0.4586    0.7255 C   0  0  1  0  0  0  0  0  0  0  0  0
   -0.1230   -0.9167    1.4470 H   0  0  0  0  0  0  0  0  0  0  0  0
   -0.1806   -0.5347   -0.6821 C   0  0  0  0  0  0  0  0  0  0  0  0
    0.1911   -1.5541   -0.8290 H   0  0  0  0  0  0  0  0  0  0  0  0
   -0.9575   -0.3653   -1.4356 H   0  0  0  0  0  0  0  0  0  0  0  0
    0.9788    0.4552   -0.9170 C   0  0  0  0  0  0  0  0  0  0  0  0
    1.3900    0.8087    0.0335 H   0  0  0  0  0  0  0  0  0  0  0  0
    1.7841   -0.0790   -1.4322 H   0  0  0  0  0  0  0  0  0  0  0  0
    0.5574    1.6415   -1.7949 C   0  0  0  0  0  0  0  0  0  0  0  0
    0.1973    1.2756   -2.7618 H   0  0  0  0  0  0  0  0  0  0  0  0
   -0.2614    2.1873   -1.3152 H   0  0  0  0  0  0  0  0  0  0  0  0
    1.7308    2.5916   -2.0169 C   0  0  0  0  0  0  0  0  0  0  0  0
    2.1022    2.9613   -1.0547 H   0  0  0  0  0  0  0  0  0  0  0  0
    2.5498    2.0640   -2.5180 H   0  0  0  0  0  0  0  0  0  0  0  0
    1.2773    3.7159   -2.8403 N   0  0  0  0  0  0  0  0  0  0  0  0
    2.0394    4.3646   -3.0361 H   0  0  0  0  0  0  0  0  0  0  0  0
    0.8452    3.3878   -3.7039 H   0  0  0  0  0  0  0  0  0  0  0  0
   -1.0758    0.9910    1.1870 C   0  0  0  0  0  0  0  0  0  0  0  0
   -2.0639    1.5901    0.7756 O   0  0  0  0  0  0  0  0  0  0  0  0
   -0.2673    1.5903    2.1357 N   0  0  0  0  0  0  0  0  0  0  0  0
    0.5167    1.0537    2.4951 H   0  0  0  0  0  0  0  0  0  0  0  0
   -0.4777    2.9480    2.6223 C   0  0  0  0  0  0  0  0  0  0  0  0
   -1.4702    3.0443    3.0749 H   0  0  0  0  0  0  0  0  0  0  0  0
    0.2722    3.1994    3.3784 H   0  0  0  0  0  0  0  0  0  0  0  0
   -0.3938    3.6655    1.7991 H   0  0  0  0  0  0  0  0  0  0  0  0
  1  2  1  0  0  0  0
  2  3  1  0  0  0  0
  2  4  1  0  0  0  0
  2  5  1  0  0  0  0
  5  6  2  0  0  0  0
  5  7  1  0  0  0  0
  7  8  1  0  0  0  0
  7  9  1  0  0  0  0
  9 10  1  0  0  0  0
  9 11  1  0  0  0  0
  9 26  1  0  0  0  0
 11 12  1  0  0  0  0
 11 13  1  0  0  0  0
 11 14  1  0  0  0  0
 14 15  1  0  0  0  0
 14 16  1  0  0  0  0
 14 17  1  0  0  0  0
 17 18  1  0  0  0  0
 17 19  1  0  0  0  0
 17 20  1  0  0  0  0
 20 21  1  0  0  0  0
 20 22  1  0  0  0  0
 20 23  1  0  0  0  0
 23 24  1  0  0  0  0
 23 25  1  0  0  0  0
 26 27  2  0  0  0  0
 26 28  1  0  0  0  0
 28 29  1  0  0  0  0
 28 30  1  0  0  0  0
 30 31  1  0  0  0  0
 30 32  1  0  0  0  0
 30 33  1  0  0  0  0
M  END
$$$$

  -OEChem-03222214063D

 33 32  0     1  0  0  0  0  0999 V2000
   -3.6425   -4.0585    1.6312 H   0  0  0  0  0  0  0  0  0  0  0  0
   -3.6772   -3.0477    1.2154 C   0  0  0  0  0  0  0  0  0  0  0  0
   -4.3234   -2.4301    1.8438 H   0  0  0  0  0  0  0  0  0  0  0  0
   -4.0973   -3.0952    0.2079 H   0  0  0  0  0  0  0  0  0  0  0  0
   -2.2823   -2.4535    1.1662 C   0  0  0  0  0  0  0  0  0  0  0  0
   -1.3250   -3.1066    1.5515 O   0  0  0  0  0  0  0  0  0  0  0  0
   -2.1033   -1.1702    0.6953 N   0  0  0  0  0  0  0  0  0  0  0  0
   -2.9395   -0.6248    0.4884 H   0  0  0  0  0  0  0  0  0  0  0  0
   -0.8336   -0.4331    0.7410 C   0  0  1  0  0  0  0  0  0  0  0  0
   -0.1505   -0.8901    1.4644 H   0  0  0  0  0  0  0  0  0  0  0  0
   -0.1834   -0.5046   -0.6580 C   0  0  0  0  0  0  0  0  0  0  0  0
    0.2042   -1.5206   -0.7886 H   0  0  0  0  0  0  0  0  0  0  0  0
   -0.9518   -0.3529   -1.4237 H   0  0  0  0  0  0  0  0  0  0  0  0
    0.9650    0.4940   -0.9085 C   0  0  0  0  0  0  0  0  0  0  0  0
    1.5260    0.6564    0.0175 H   0  0  0  0  0  0  0  0  0  0  0  0
    1.6526    0.0375   -1.6280 H   0  0  0  0  0  0  0  0  0  0  0  0
    0.5003    1.8405   -1.4885 C   0  0  0  0  0  0  0  0  0  0  0  0
   -0.0798    1.6669   -2.4005 H   0  0  0  0  0  0  0  0  0  0  0  0
   -0.1425    2.3673   -0.7798 H   0  0  0  0  0  0  0  0  0  0  0  0
    1.6992    2.7273   -1.8141 C   0  0  0  0  0  0  0  0  0  0  0  0
    2.3145    2.8724   -0.9193 H   0  0  0  0  0  0  0  0  0  0  0  0
    2.3203    2.2510   -2.5807 H   0  0  0  0  0  0  0  0  0  0  0  0
    1.2081    4.0224   -2.2932 N   0  0  0  0  0  0  0  0  0  0  0  0
    1.9763    4.6301   -2.5769 H   0  0  0  0  0  0  0  0  0  0  0  0
    0.5368    3.9032   -3.0519 H   0  0  0  0  0  0  0  0  0  0  0  0
   -1.1227    0.9991    1.2348 C   0  0  0  0  0  0  0  0  0  0  0  0
   -2.1408    1.5774    0.8679 O   0  0  0  0  0  0  0  0  0  0  0  0
   -0.3167    1.5876    2.1918 N   0  0  0  0  0  0  0  0  0  0  0  0
    0.4992    1.0701    2.5046 H   0  0  0  0  0  0  0  0  0  0  0  0
   -0.5428    2.9311    2.7090 C   0  0  0  0  0  0  0  0  0  0  0  0
   -1.5250    2.9969    3.1888 H   0  0  0  0  0  0  0  0  0  0  0  0
    0.2213    3.1848    3.4500 H   0  0  0  0  0  0  0  0  0  0  0  0
   -0.4958    3.6655    1.8977 H   0  0  0  0  0  0  0  0  0  0  0  0
  1  2  1  0  0  0  0
  2  3  1  0  0  0  0
  2  4  1  0  0  0  0
  2  5  1  0  0  0  0
  5  6  2  0  0  0  0
  5  7  1  0  0  0  0
  7  8  1  0  0  0  0
  7  9  1  0  0  0  0
  9 10  1  0  0  0  0
  9 11  1  0  0  0  0
  9 26  1  0  0  0  0
 11 12  1  0  0  0  0
 11 13  1  0  0  0  0
 11 14  1  0  0  0  0
 14 15  1  0  0  0  0
 14 16  1  0  0  0  0
 14 17  1  0  0  0  0
 17 18  1  0  0  0  0
 17 19  1  0  0  0  0
 17 20  1  0  0  0  0
 20 21  1  0  0  0  0
 20 22  1  0  0  0  0
 20 23  1  0  0  0  0
 23 24  1  0  0  0  0
 23 25  1  0  0  0  0
 26 27  2  0  0  0  0
 26 28  1  0  0  0  0
 28 29  1  0  0  0  0
 28 30  1  0  0  0  0
 30 31  1  0  0  0  0
 30 32  1  0  0  0  0
 30 33  1  0  0  0  0
M  END
$$$$

  -OEChem-03222214063D

 33 32  0     1  0  0  0  0  0999 V2000
   -3.6205   -4.1060    1.4878 H   0  0  0  0  0  0  0  0  0  0  0  0
   -3.6616   -3.0778    1.1174 C   0  0  0  0  0  0  0  0  0  0  0  0
   -4.3330   -2.4995    1.7568 H   0  0  0  0  0  0  0  0  0  0  0  0
   -4.0569   -3.0858    0.0987 H   0  0  0  0  0  0  0  0  0  0  0  0
   -2.2758   -2.4607    1.1299 C   0  0  0  0  0  0  0  0  0  0  0  0
   -1.3197   -3.1133    1.5189 O   0  0  0  0  0  0  0  0  0  0  0  0
   -2.1030   -1.1599    0.7069 N   0  0  0  0  0  0  0  0  0  0  0  0
   -2.9411   -0.6187    0.4969 H   0  0  0  0  0  0  0  0  0  0  0  0
   -0.8442   -0.4091    0.8105 C   0  0  1  0  0  0  0  0  0  0  0  0
   -0.1725   -0.8777    1.5374 H   0  0  0  0  0  0  0  0  0  0  0  0
   -0.1658   -0.4498   -0.5786 C   0  0  0  0  0  0  0  0  0  0  0  0
    0.2174   -1.4650   -0.7251 H   0  0  0  0  0  0  0  0  0  0  0  0
   -0.9293   -0.2810   -1.3456 H   0  0  0  0  0  0  0  0  0  0  0  0
    0.9872    0.5418   -0.8446 C   0  0  0  0  0  0  0  0  0  0  0  0
    1.6998    0.5022   -0.0143 H   0  0  0  0  0  0  0  0  0  0  0  0
    1.5112    0.1892   -1.7394 H   0  0  0  0  0  0  0  0  0  0  0  0
    0.5655    2.0019   -1.0858 C   0  0  0  0  0  0  0  0  0  0  0  0
   -0.3044    2.0330   -1.7495 H   0  0  0  0  0  0  0  0  0  0  0  0
    0.2935    2.4873   -0.1472 H   0  0  0  0  0  0  0  0  0  0  0  0
    1.7091    2.7928   -1.7155 C   0  0  0  0  0  0  0  0  0  0  0  0
    2.6069    2.7183   -1.0919 H   0  0  0  0  0  0  0  0  0  0  0  0
    1.9466    2.3852   -2.7044 H   0  0  0  0  0  0  0  0  0  0  0  0
    1.3003    4.1954   -1.8313 N   0  0  0  0  0  0  0  0  0  0  0  0
    2.0173    4.7540   -2.2939 H   0  0  0  0  0  0  0  0  0  0  0  0
    0.4053    4.2774   -2.3145 H   0  0  0  0  0  0  0  0  0  0  0  0
   -1.1758    0.9984    1.3448 C   0  0  0  0  0  0  0  0  0  0  0  0
   -2.1814    1.5808    0.9502 O   0  0  0  0  0  0  0  0  0  0  0  0
   -0.4094    1.5686    2.3451 N   0  0  0  0  0  0  0  0  0  0  0  0
    0.4115    1.0588    2.6581 H   0  0  0  0  0  0  0  0  0  0  0  0
   -0.6640    2.8980    2.8860 C   0  0  0  0  0  0  0  0  0  0  0  0
   -1.6613    2.9443    3.3360 H   0  0  0  0  0  0  0  0  0  0  0  0
    0.0740    3.1406    3.6564 H   0  0  0  0  0  0  0  0  0  0  0  0
   -0.5984    3.6522    2.0945 H   0  0  0  0  0  0  0  0  0  0  0  0
  1  2  1  0  0  0  0
  2  3  1  0  0  0  0
  2  4  1  0  0  0  0
  2  5  1  0  0  0  0
  5  6  2  0  0  0  0
  5  7  1  0  0  0  0
  7  8  1  0  0  0  0
  7  9  1  0  0  0  0
  9 10  1  0  0  0  0
  9 11  1  0  0  0  0
  9 26  1  0  0  0  0
 11 12  1  0  0  0  0
 11 13  1  0  0  0  0
 11 14  1  0  0  0  0
 14 15  1  0  0  0  0
 14 16  1  0  0  0  0
 14 17  1  0  0  0  0
 17 18  1  0  0  0  0
 17 19  1  0  0  0  0
 17 20  1  0  0  0  0
 20 21  1  0  0  0  0
 20 22  1  0  0  0  0
 20 23  1  0  0  0  0
 23 24  1  0  0  0  0
 23 25  1  0  0  0  0
 26 27  2  0  0  0  0
 26 28  1  0  0  0  0
 28 29  1  0  0  0  0
 28 30  1  0  0  0  0
 30 31  1  0  0  0  0
 30 32  1  0  0  0  0
 30 33  1  0  0  0  0
M  END
$$$$

  -OEChem-03222214063D

 33 32  0     1  0  0  0  0  0999 V2000
   -3.6376   -4.0999    1.4167 H   0  0  0  0  0  0  0  0  0  0  0  0
   -3.6663   -3.0697    1.0510 C   0  0  0  0  0  0  0  0  0  0  0  0
   -4.3520   -2.4928    1.6763 H   0  0  0  0  0  0  0  0  0  0  0  0
   -4.0350   -3.0708    0.0226 H   0  0  0  0  0  0  0  0  0  0  0  0
   -2.2793   -2.4575    1.1025 C   0  0  0  0  0  0  0  0  0  0  0  0
   -1.3327   -3.1194    1.4990 O   0  0  0  0  0  0  0  0  0  0  0  0
   -2.0952   -1.1485    0.7107 N   0  0  0  0  0  0  0  0  0  0  0  0
   -2.9274   -0.6021    0.4906 H   0  0  0  0  0  0  0  0  0  0  0  0
   -0.8395   -0.4002    0.8658 C   0  0  1  0  0  0  0  0  0  0  0  0
   -0.1838   -0.8795    1.6000 H   0  0  0  0  0  0  0  0  0  0  0  0
   -0.1404   -0.4328   -0.5167 C   0  0  0  0  0  0  0  0  0  0  0  0
    0.2192   -1.4543   -0.6794 H   0  0  0  0  0  0  0  0  0  0  0  0
   -0.9028   -0.2359   -1.2782 H   0  0  0  0  0  0  0  0  0  0  0  0
    1.0283    0.5345   -0.8101 C   0  0  0  0  0  0  0  0  0  0  0  0
    1.8544    0.3083   -0.1283 H   0  0  0  0  0  0  0  0  0  0  0  0
    1.3752    0.3113   -1.8246 H   0  0  0  0  0  0  0  0  0  0  0  0
    0.7214    2.0376   -0.7229 C   0  0  0  0  0  0  0  0  0  0  0  0
   -0.2790    2.2379   -1.1201 H   0  0  0  0  0  0  0  0  0  0  0  0
    0.7554    2.3693    0.3163 H   0  0  0  0  0  0  0  0  0  0  0  0
    1.7453    2.8480   -1.5129 C   0  0  0  0  0  0  0  0  0  0  0  0
    2.7593    2.6093   -1.1732 H   0  0  0  0  0  0  0  0  0  0  0  0
    1.6755    2.6015   -2.5783 H   0  0  0  0  0  0  0  0  0  0  0  0
    1.4727    4.2728   -1.3038 N   0  0  0  0  0  0  0  0  0  0  0  0
    2.1034    4.8550   -1.8547 H   0  0  0  0  0  0  0  0  0  0  0  0
    0.4981    4.4926   -1.5126 H   0  0  0  0  0  0  0  0  0  0  0  0
   -1.2061    0.9925    1.4191 C   0  0  0  0  0  0  0  0  0  0  0  0
   -2.1987    1.5778    0.9960 O   0  0  0  0  0  0  0  0  0  0  0  0
   -0.4819    1.5498    2.4575 N   0  0  0  0  0  0  0  0  0  0  0  0
    0.3356    1.0443    2.7860 H   0  0  0  0  0  0  0  0  0  0  0  0
   -0.7756    2.8609    3.0225 C   0  0  0  0  0  0  0  0  0  0  0  0
   -1.7893    2.8816    3.4362 H   0  0  0  0  0  0  0  0  0  0  0  0
   -0.0699    3.0931    3.8257 H   0  0  0  0  0  0  0  0  0  0  0  0
   -0.6922    3.6365    2.2538 H   0  0  0  0  0  0  0  0  0  0  0  0
  1  2  1  0  0  0  0
  2  3  1  0  0  0  0
  2  4  1  0  0  0  0
  2  5  1  0  0  0  0
  5  6  2  0  0  0  0
  5  7  1  0  0  0  0
  7  8  1  0  0  0  0
  7  9  1  0  0  0  0
  9 10  1  0  0  0  0
  9 11  1  0  0  0  0
  9 26  1  0  0  0  0
 11 12  1  0  0  0  0
 11 13  1  0  0  0  0
 11 14  1  0  0  0  0
 14 15  1  0  0  0  0
 14 16  1  0  0  0  0
 14 17  1  0  0  0  0
 17 18  1  0  0  0  0
 17 19  1  0  0  0  0
 17 20  1  0  0  0  0
 20 21  1  0  0  0  0
 20 22  1  0  0  0  0
 20 23  1  0  0  0  0
 23 24  1  0  0  0  0
 23 25  1  0  0  0  0
 26 27  2  0  0  0  0
 26 28  1  0  0  0  0
 28 29  1  0  0  0  0
 28 30  1  0  0  0  0
 30 31  1  0  0  0  0
 30 32  1  0  0  0  0
 30 33  1  0  0  0  0
M  END
$$$$

  -OEChem-03222214063D

 33 32  0     1  0  0  0  0  0999 V2000
   -3.6364   -4.1234    1.4171 H   0  0  0  0  0  0  0  0  0  0  0  0
   -3.6627   -3.1007    1.0306 C   0  0  0  0  0  0  0  0  0  0  0  0
   -4.3728   -2.5185    1.6229 H   0  0  0  0  0  0  0  0  0  0  0  0
   -3.9985   -3.1244   -0.0088 H   0  0  0  0  0  0  0  0  0  0  0  0
   -2.2836   -2.4746    1.1132 C   0  0  0  0  0  0  0  0  0  0  0  0
   -1.3367   -3.1321    1.5158 O   0  0  0  0  0  0  0  0  0  0  0  0
   -2.1064   -1.1596    0.7389 N   0  0  0  0  0  0  0  0  0  0  0  0
   -2.9401   -0.6167    0.5157 H   0  0  0  0  0  0  0  0  0  0  0  0
   -0.8538   -0.4076    0.9048 C   0  0  1  0  0  0  0  0  0  0  0  0
   -0.1899   -0.8896    1.6297 H   0  0  0  0  0  0  0  0  0  0  0  0
   -0.1726   -0.4259   -0.4912 C   0  0  0  0  0  0  0  0  0  0  0  0
    0.1637   -1.4502   -0.6840 H   0  0  0  0  0  0  0  0  0  0  0  0
   -0.9557   -0.2042   -1.2248 H   0  0  0  0  0  0  0  0  0  0  0  0
    0.9969    0.5279   -0.8367 C   0  0  0  0  0  0  0  0  0  0  0  0
    1.9048    0.1345   -0.3678 H   0  0  0  0  0  0  0  0  0  0  0  0
    1.1446    0.4722   -1.9205 H   0  0  0  0  0  0  0  0  0  0  0  0
    0.8705    2.0031   -0.4377 C   0  0  0  0  0  0  0  0  0  0  0  0
   -0.1358    2.3681   -0.6669 H   0  0  0  0  0  0  0  0  0  0  0  0
    1.0545    2.1135    0.6323 H   0  0  0  0  0  0  0  0  0  0  0  0
    1.8900    2.8596   -1.1821 C   0  0  0  0  0  0  0  0  0  0  0  0
    2.9025    2.4770   -1.0114 H   0  0  0  0  0  0  0  0  0  0  0  0
    1.6909    2.8299   -2.2591 H   0  0  0  0  0  0  0  0  0  0  0  0
    1.7855    4.2345   -0.6851 N   0  0  0  0  0  0  0  0  0  0  0  0
    2.4214    4.8570   -1.1837 H   0  0  0  0  0  0  0  0  0  0  0  0
    0.8241    4.5716   -0.7464 H   0  0  0  0  0  0  0  0  0  0  0  0
   -1.2489    0.9715    1.4774 C   0  0  0  0  0  0  0  0  0  0  0  0
   -2.2370    1.5557    1.0417 O   0  0  0  0  0  0  0  0  0  0  0  0
   -0.5438    1.5294    2.5286 N   0  0  0  0  0  0  0  0  0  0  0  0
    0.2868    1.0391    2.8477 H   0  0  0  0  0  0  0  0  0  0  0  0
   -0.8308    2.8523    3.0692 C   0  0  0  0  0  0  0  0  0  0  0  0
   -1.8603    2.9010    3.4388 H   0  0  0  0  0  0  0  0  0  0  0  0
   -0.1552    3.0758    3.9003 H   0  0  0  0  0  0  0  0  0  0  0  0
   -0.6957    3.6177    2.2976 H   0  0  0  0  0  0  0  0  0  0  0  0
  1  2  1  0  0  0  0
  2  3  1  0  0  0  0
  2  4  1  0  0  0  0
  2  5  1  0  0  0  0
  5  6  2  0  0  0  0
  5  7  1  0  0  0  0
  7  8  1  0  0  0  0
  7  9  1  0  0  0  0
  9 10  1  0  0  0  0
  9 11  1  0  0  0  0
  9 26  1  0  0  0  0
 11 12  1  0  0  0  0
 11 13  1  0  0  0  0
 11 14  1  0  0  0  0
 14 15  1  0  0  0  0
 14 16  1  0  0  0  0
 14 17  1  0  0  0  0
 17 18  1  0  0  0  0
 17 19  1  0  0  0  0
 17 20  1  0  0  0  0
 20 21  1  0  0  0  0
 20 22  1  0  0  0  0
 20 23  1  0  0  0  0
 23 24  1  0  0  0  0
 23 25  1  0  0  0  0
 26 27  2  0  0  0  0
 26 28  1  0  0  0  0
 28 29  1  0  0  0  0
 28 30  1  0  0  0  0
 30 31  1  0  0  0  0
 30 32  1  0  0  0  0
 30 33  1  0  0  0  0
M  END
$$$$

  -OEChem-03222214063D

 33 32  0     1  0  0  0  0  0999 V2000
   -3.6281   -4.1491    1.4084 H   0  0  0  0  0  0  0  0  0  0  0  0
   -3.6582   -3.1261    1.0231 C   0  0  0  0  0  0  0  0  0  0  0  0
   -4.3815   -2.5512    1.6065 H   0  0  0  0  0  0  0  0  0  0  0  0
   -3.9799   -3.1514   -0.0207 H   0  0  0  0  0  0  0  0  0  0  0  0
   -2.2857   -2.4882    1.1246 C   0  0  0  0  0  0  0  0  0  0  0  0
   -1.3385   -3.1380    1.5386 O   0  0  0  0  0  0  0  0  0  0  0  0
   -2.1139   -1.1723    0.7509 N   0  0  0  0  0  0  0  0  0  0  0  0
   -2.9485   -0.6356    0.5163 H   0  0  0  0  0  0  0  0  0  0  0  0
   -0.8668   -0.4120    0.9228 C   0  0  1  0  0  0  0  0  0  0  0  0
   -0.1967   -0.8864    1.6469 H   0  0  0  0  0  0  0  0  0  0  0  0
   -0.1945   -0.4201   -0.4794 C   0  0  0  0  0  0  0  0  0  0  0  0
    0.1338   -1.4442   -0.6862 H   0  0  0  0  0  0  0  0  0  0  0  0
   -0.9889   -0.1914   -1.1985 H   0  0  0  0  0  0  0  0  0  0  0  0
    0.9706    0.5332   -0.8515 C   0  0  0  0  0  0  0  0  0  0  0  0
    1.9049    0.0120   -0.6172 H   0  0  0  0  0  0  0  0  0  0  0  0
    0.9450    0.6727   -1.9376 H   0  0  0  0  0  0  0  0  0  0  0  0
    1.0481    1.9090   -0.1838 C   0  0  0  0  0  0  0  0  0  0  0  0
    0.0893    2.4271   -0.2821 H   0  0  0  0  0  0  0  0  0  0  0  0
    1.2882    1.7878    0.8745 H   0  0  0  0  0  0  0  0  0  0  0  0
    2.1357    2.7665   -0.8223 C   0  0  0  0  0  0  0  0  0  0  0  0
    3.1035    2.2558   -0.7638 H   0  0  0  0  0  0  0  0  0  0  0  0
    1.9053    2.9418   -1.8791 H   0  0  0  0  0  0  0  0  0  0  0  0
    2.1972    4.0400   -0.0993 N   0  0  0  0  0  0  0  0  0  0  0  0
    2.9037    4.6577   -0.4992 H   0  0  0  0  0  0  0  0  0  0  0  0
    1.2836    4.4945   -0.0860 H   0  0  0  0  0  0  0  0  0  0  0  0
   -1.2925    0.9606    1.4929 C   0  0  0  0  0  0  0  0  0  0  0  0
   -2.2789    1.5336    1.0385 O   0  0  0  0  0  0  0  0  0  0  0  0
   -0.6109    1.5339    2.5514 N   0  0  0  0  0  0  0  0  0  0  0  0
    0.2270    1.0614    2.8785 H   0  0  0  0  0  0  0  0  0  0  0  0
   -0.9243    2.8540    3.0835 C   0  0  0  0  0  0  0  0  0  0  0  0
   -1.9510    2.8805    3.4635 H   0  0  0  0  0  0  0  0  0  0  0  0
   -0.2453    3.1006    3.9053 H   0  0  0  0  0  0  0  0  0  0  0  0
   -0.8153    3.6156    2.3042 H   0  0  0  0  0  0  0  0  0  0  0  0
  1  2  1  0  0  0  0
  2  3  1  0  0  0  0
  2  4  1  0  0  0  0
  2  5  1  0  0  0  0
  5  6  2  0  0  0  0
  5  7  1  0  0  0  0
  7  8  1  0  0  0  0
  7  9  1  0  0  0  0
  9 10  1  0  0  0  0
  9 11  1  0  0  0  0
  9 26  1  0  0  0  0
 11 12  1  0  0  0  0
 11 13  1  0  0  0  0
 11 14  1  0  0  0  0
 14 15  1  0  0  0  0
 14 16  1  0  0  0  0
 14 17  1  0  0  0  0
 17 18  1  0  0  0  0
 17 19  1  0  0  0  0
 17 20  1  0  0  0  0
 20 21  1  0  0  0  0
 20 22  1  0  0  0  0
 20 23  1  0  0  0  0
 23 24  1  0  0  0  0
 23 25  1  0  0  0  0
 26 27  2  0  0  0  0
 26 28  1  0  0  0  0
 28 29  1  0  0  0  0
 28 30  1  0  0  0  0
 30 31  1  0  0  0  0
 30 32  1  0  0  0  0
 30 33  1  0  0  0  0
M  END
$$$$

  -OEChem-03222214063D

 33 32  0     1  0  0  0  0  0999 V2000
   -3.6129   -4.1603    1.4149 H   0  0  0  0  0  0  0  0  0  0  0  0
   -3.6512   -3.1356    1.0351 C   0  0  0  0  0  0  0  0  0  0  0  0
   -4.3771   -2.5687    1.6229 H   0  0  0  0  0  0  0  0  0  0  0  0
   -3.9749   -3.1580   -0.0082 H   0  0  0  0  0  0  0  0  0  0  0  0
   -2.2831   -2.4885    1.1378 C   0  0  0  0  0  0  0  0  0  0  0  0
   -1.3357   -3.1269    1.5685 O   0  0  0  0  0  0  0  0  0  0  0  0
   -2.1157   -1.1769    0.7476 N   0  0  0  0  0  0  0  0  0  0  0  0
   -2.9515   -0.6477    0.5005 H   0  0  0  0  0  0  0  0  0  0  0  0
   -0.8753   -0.4065    0.9228 C   0  0  1  0  0  0  0  0  0  0  0  0
   -0.2051   -0.8657    1.6569 H   0  0  0  0  0  0  0  0  0  0  0  0
   -0.1981   -0.4191   -0.4768 C   0  0  0  0  0  0  0  0  0  0  0  0
    0.1371   -1.4431   -0.6731 H   0  0  0  0  0  0  0  0  0  0  0  0
   -0.9912   -0.2048   -1.2022 H   0  0  0  0  0  0  0  0  0  0  0  0
    0.9634    0.5392   -0.8528 C   0  0  0  0  0  0  0  0  0  0  0  0
    1.8791   -0.0618   -0.8672 H   0  0  0  0  0  0  0  0  0  0  0  0
    0.7951    0.8869   -1.8777 H   0  0  0  0  0  0  0  0  0  0  0  0
    1.2419    1.7561    0.0336 C   0  0  0  0  0  0  0  0  0  0  0  0
    0.3658    2.4108    0.0529 H   0  0  0  0  0  0  0  0  0  0  0  0
    1.4712    1.4236    1.0495 H   0  0  0  0  0  0  0  0  0  0  0  0
    2.4309    2.5548   -0.4908 C   0  0  0  0  0  0  0  0  0  0  0  0
    3.3249    1.9223   -0.5265 H   0  0  0  0  0  0  0  0  0  0  0  0
    2.2261    2.9135   -1.5057 H   0  0  0  0  0  0  0  0  0  0  0  0
    2.6558    3.6879    0.4117 N   0  0  0  0  0  0  0  0  0  0  0  0
    3.4522    4.2485    0.1078 H   0  0  0  0  0  0  0  0  0  0  0  0
    1.8165    4.2629    0.4890 H   0  0  0  0  0  0  0  0  0  0  0  0
   -1.3244    0.9697    1.4689 C   0  0  0  0  0  0  0  0  0  0  0  0
   -2.3076    1.5275    0.9895 O   0  0  0  0  0  0  0  0  0  0  0  0
   -0.6660    1.5681    2.5286 N   0  0  0  0  0  0  0  0  0  0  0  0
    0.1684    1.1077    2.8813 H   0  0  0  0  0  0  0  0  0  0  0  0
   -1.0230    2.8772    3.0600 C   0  0  0  0  0  0  0  0  0  0  0  0
   -2.0482    2.8682    3.4447 H   0  0  0  0  0  0  0  0  0  0  0  0
   -0.3493    3.1485    3.8783 H   0  0  0  0  0  0  0  0  0  0  0  0
   -0.9449    3.6416    2.2799 H   0  0  0  0  0  0  0  0  0  0  0  0
  1  2  1  0  0  0  0
  2  3  1  0  0  0  0
  2  4  1  0  0  0  0
  2  5  1  0  0  0  0
  5  6  2  0  0  0  0
  5  7  1  0  0  0  0
  7  8  1  0  0  0  0
  7  9  1  0  0  0  0
  9 10  1  0  0  0  0
  9 11  1  0  0  0  0
  9 26  1  0  0  0  0
 11 12  1  0  0  0  0
 11 13  1  0  0  0  0
 11 14  1  0  0  0  0
 14 15  1  0  0  0  0
 14 16  1  0  0  0  0
 14 17  1  0  0  0  0
 17 18  1  0  0  0  0
 17 19  1  0  0  0  0
 17 20  1  0  0  0  0
 20 21  1  0  0  0  0
 20 22  1  0  0  0  0
 20 23  1  0  0  0  0
 23 24  1  0  0  0  0
 23 25  1  0  0  0  0
 26 27  2  0  0  0  0
 26 28  1  0  0  0  0
 28 29  1  0  0  0  0
 28 30  1  0  0  0  0
 30 31  1  0  0  0  0
 30 32  1  0  0  0  0
 30 33  1  0  0  0  0
M  END
$$$$

  -OEChem-03222214063D

 33 32  0     1  0  0  0  0  0999 V2000
   -3.5874   -4.1672    1.4342 H   0  0  0  0  0  0  0  0  0  0  0  0
   -3.6317   -3.1489    1.0377 C   0  0  0  0  0  0  0  0  0  0  0  0
   -4.3712   -2.5810    1.6074 H   0  0  0  0  0  0  0  0  0  0  0  0
   -3.9418   -3.1911   -0.0092 H   0  0  0  0  0  0  0  0  0  0  0  0
   -2.2719   -2.4854    1.1473 C   0  0  0  0  0  0  0  0  0  0  0  0
   -1.3216   -3.1096    1.5922 O   0  0  0  0  0  0  0  0  0  0  0  0
   -2.1147   -1.1766    0.7434 N   0  0  0  0  0  0  0  0  0  0  0  0
   -2.9532   -0.6603    0.4791 H   0  0  0  0  0  0  0  0  0  0  0  0
   -0.8824   -0.3927    0.9164 C   0  0  1  0  0  0  0  0  0  0  0  0
   -0.2094   -0.8409    1.6548 H   0  0  0  0  0  0  0  0  0  0  0  0
   -0.2058   -0.4053   -0.4815 C   0  0  0  0  0  0  0  0  0  0  0  0
    0.1578   -1.4247   -0.6505 H   0  0  0  0  0  0  0  0  0  0  0  0
   -0.9937   -0.2276   -1.2218 H   0  0  0  0  0  0  0  0  0  0  0  0
    0.9448    0.5676   -0.8508 C   0  0  0  0  0  0  0  0  0  0  0  0
    1.8026   -0.0490   -1.1402 H   0  0  0  0  0  0  0  0  0  0  0  0
    0.6441    1.1319   -1.7402 H   0  0  0  0  0  0  0  0  0  0  0  0
    1.4242    1.5692    0.2042 C   0  0  0  0  0  0  0  0  0  0  0  0
    0.6636    2.3409    0.3492 H   0  0  0  0  0  0  0  0  0  0  0  0
    1.6043    1.0533    1.1521 H   0  0  0  0  0  0  0  0  0  0  0  0
    2.7182    2.2475   -0.2329 C   0  0  0  0  0  0  0  0  0  0  0  0
    3.5108    1.5014   -0.3595 H   0  0  0  0  0  0  0  0  0  0  0  0
    2.5724    2.7564   -1.1923 H   0  0  0  0  0  0  0  0  0  0  0  0
    3.1001    3.2138    0.8013 N   0  0  0  0  0  0  0  0  0  0  0  0
    3.9776    3.6779    0.5654 H   0  0  0  0  0  0  0  0  0  0  0  0
    2.3582    3.8976    0.9523 H   0  0  0  0  0  0  0  0  0  0  0  0
   -1.3355    0.9886    1.4454 C   0  0  0  0  0  0  0  0  0  0  0  0
   -2.3177    1.5394    0.9566 O   0  0  0  0  0  0  0  0  0  0  0  0
   -0.6801    1.5996    2.4999 N   0  0  0  0  0  0  0  0  0  0  0  0
    0.1565    1.1459    2.8570 H   0  0  0  0  0  0  0  0  0  0  0  0
   -1.0494    2.9073    3.0263 C   0  0  0  0  0  0  0  0  0  0  0  0
   -2.0731    2.8888    3.4145 H   0  0  0  0  0  0  0  0  0  0  0  0
   -0.3760    3.1899    3.8412 H   0  0  0  0  0  0  0  0  0  0  0  0
   -0.9826    3.6688    2.2424 H   0  0  0  0  0  0  0  0  0  0  0  0
  1  2  1  0  0  0  0
  2  3  1  0  0  0  0
  2  4  1  0  0  0  0
  2  5  1  0  0  0  0
  5  6  2  0  0  0  0
  5  7  1  0  0  0  0
  7  8  1  0  0  0  0
  7  9  1  0  0  0  0
  9 10  1  0  0  0  0
  9 11  1  0  0  0  0
  9 26  1  0  0  0  0
 11 12  1  0  0  0  0
 11 13  1  0  0  0  0
 11 14  1  0  0  0  0
 14 15  1  0  0  0  0
 14 16  1  0  0  0  0
 14 17  1  0  0  0  0
 17 18  1  0  0  0  0
 17 19  1  0  0  0  0
 17 20  1  0  0  0  0
 20 21  1  0  0  0  0
 20 22  1  0  0  0  0
 20 23  1  0  0  0  0
 23 24  1  0  0  0  0
 23 25  1  0  0  0  0
 26 27  2  0  0  0  0
 26 28  1  0  0  0  0
 28 29  1  0  0  0  0
 28 30  1  0  0  0  0
 30 31  1  0  0  0  0
 30 32  1  0  0  0  0
 30 33  1  0  0  0  0
M  END
$$$$

  -OEChem-03222214063D

 33 32  0     1  0  0  0  0  0999 V2000
   -3.5641   -4.1652    1.4355 H   0  0  0  0  0  0  0  0  0  0  0  0
   -3.6134   -3.1464    1.0408 C   0  0  0  0  0  0  0  0  0  0  0  0
   -4.3567   -2.5835    1.6104 H   0  0  0  0  0  0  0  0  0  0  0  0
   -3.9218   -3.1883   -0.0065 H   0  0  0  0  0  0  0  0  0  0  0  0
   -2.2576   -2.4754    1.1537 C   0  0  0  0  0  0  0  0  0  0  0  0
   -1.3099   -3.0870    1.6210 O   0  0  0  0  0  0  0  0  0  0  0  0
   -2.1030   -1.1721    0.7318 N   0  0  0  0  0  0  0  0  0  0  0  0
   -2.9414   -0.6654    0.4499 H   0  0  0  0  0  0  0  0  0  0  0  0
   -0.8776   -0.3782    0.9050 C   0  0  1  0  0  0  0  0  0  0  0  0
   -0.2068   -0.8161    1.6517 H   0  0  0  0  0  0  0  0  0  0  0  0
   -0.1961   -0.3912   -0.4879 C   0  0  0  0  0  0  0  0  0  0  0  0
    0.1976   -1.4035   -0.6296 H   0  0  0  0  0  0  0  0  0  0  0  0
   -0.9721   -0.2457   -1.2480 H   0  0  0  0  0  0  0  0  0  0  0  0
    0.9440    0.5985   -0.8339 C   0  0  0  0  0  0  0  0  0  0  0  0
    1.7048    0.0360   -1.3856 H   0  0  0  0  0  0  0  0  0  0  0  0
    0.5459    1.3541   -1.5197 H   0  0  0  0  0  0  0  0  0  0  0  0
    1.6197    1.3405    0.3263 C   0  0  0  0  0  0  0  0  0  0  0  0
    0.9962    2.1841    0.6298 H   0  0  0  0  0  0  0  0  0  0  0  0
    1.7549    0.6671    1.1785 H   0  0  0  0  0  0  0  0  0  0  0  0
    2.9828    1.8838   -0.0901 C   0  0  0  0  0  0  0  0  0  0  0  0
    3.6511    1.0579   -0.3578 H   0  0  0  0  0  0  0  0  0  0  0  0
    2.8784    2.5354   -0.9647 H   0  0  0  0  0  0  0  0  0  0  0  0
    3.5417    2.6359    1.0376 N   0  0  0  0  0  0  0  0  0  0  0  0
    4.4751    2.9860    0.8198 H   0  0  0  0  0  0  0  0  0  0  0  0
    2.9231    3.4002    1.3089 H   0  0  0  0  0  0  0  0  0  0  0  0
   -1.3303    1.0120    1.4083 C   0  0  0  0  0  0  0  0  0  0  0  0
   -2.3073    1.5570    0.9032 O   0  0  0  0  0  0  0  0  0  0  0  0
   -0.6808    1.6376    2.4577 N   0  0  0  0  0  0  0  0  0  0  0  0
    0.1403    1.1769    2.8417 H   0  0  0  0  0  0  0  0  0  0  0  0
   -1.0602    2.9470    2.9728 C   0  0  0  0  0  0  0  0  0  0  0  0
   -2.0955    2.9336    3.3291 H   0  0  0  0  0  0  0  0  0  0  0  0
   -0.4114    3.2261    3.8086 H   0  0  0  0  0  0  0  0  0  0  0  0
   -0.9655    3.7082    2.1914 H   0  0  0  0  0  0  0  0  0  0  0  0
  1  2  1  0  0  0  0
  2  3  1  0  0  0  0
  2  4  1  0  0  0  0
  2  5  1  0  0  0  0
  5  6  2  0  0  0  0
  5  7  1  0  0  0  0
  7  8  1  0  0  0  0
  7  9  1  0  0  0  0
  9 10  1  0  0  0  0
  9 11  1  0  0  0  0
  9 26  1  0  0  0  0
 11 12  1  0  0  0  0
 11 13  1  0  0  0  0
 11 14  1  0  0  0  0
 14 15  1  0  0  0  0
 14 16  1  0  0  0  0
 14 17  1  0  0  0  0
 17 18  1  0  0  0  0
 17 19  1  0  0  0  0
 17 20  1  0  0  0  0
 20 21  1  0  0  0  0
 20 22  1  0  0  0  0
 20 23  1  0  0  0  0
 23 24  1  0  0  0  0
 23 25  1  0  0  0  0
 26 27  2  0  0  0  0
 26 28  1  0  0  0  0
 28 29  1  0  0  0  0
 28 30  1  0  0  0  0
 30 31  1  0  0  0  0
 30 32  1  0  0  0  0
 30 33  1  0  0  0  0
M  END
$$$$

  -OEChem-03222214063D

 33 32  0     1  0  0  0  0  0999 V2000
   -3.5645   -4.1372    1.4340 H   0  0  0  0  0  0  0  0  0  0  0  0
   -3.6069   -3.1221    1.0292 C   0  0  0  0  0  0  0  0  0  0  0  0
   -4.3477   -2.5488    1.5917 H   0  0  0  0  0  0  0  0  0  0  0  0
   -3.9134   -3.1729   -0.0184 H   0  0  0  0  0  0  0  0  0  0  0  0
   -2.2475   -2.4581    1.1383 C   0  0  0  0  0  0  0  0  0  0  0  0
   -1.3037   -3.0719    1.6106 O   0  0  0  0  0  0  0  0  0  0  0  0
   -2.0865   -1.1579    0.7091 N   0  0  0  0  0  0  0  0  0  0  0  0
   -2.9221   -0.6496    0.4218 H   0  0  0  0  0  0  0  0  0  0  0  0
   -0.8587   -0.3686    0.8825 C   0  0  1  0  0  0  0  0  0  0  0  0
   -0.1892   -0.8091    1.6283 H   0  0  0  0  0  0  0  0  0  0  0  0
   -0.1790   -0.3679   -0.5086 C   0  0  0  0  0  0  0  0  0  0  0  0
    0.2253   -1.3747   -0.6583 H   0  0  0  0  0  0  0  0  0  0  0  0
   -0.9478   -0.2156   -1.2744 H   0  0  0  0  0  0  0  0  0  0  0  0
    0.9562    0.6355   -0.8105 C   0  0  0  0  0  0  0  0  0  0  0  0
    1.5922    0.1885   -1.5821 H   0  0  0  0  0  0  0  0  0  0  0  0
    0.5161    1.5416   -1.2410 H   0  0  0  0  0  0  0  0  0  0  0  0
    1.8223    1.0600    0.3849 C   0  0  0  0  0  0  0  0  0  0  0  0
    1.3383    1.8765    0.9214 H   0  0  0  0  0  0  0  0  0  0  0  0
    1.9592    0.2170    1.0697 H   0  0  0  0  0  0  0  0  0  0  0  0
    3.1932    1.5430   -0.0789 C   0  0  0  0  0  0  0  0  0  0  0  0
    3.7324    0.7247   -0.5696 H   0  0  0  0  0  0  0  0  0  0  0  0
    3.0820    2.3598   -0.8010 H   0  0  0  0  0  0  0  0  0  0  0  0
    3.9426    2.0040    1.0940 N   0  0  0  0  0  0  0  0  0  0  0  0
    4.8930    2.2750    0.8405 H   0  0  0  0  0  0  0  0  0  0  0  0
    3.4586    2.7720    1.5587 H   0  0  0  0  0  0  0  0  0  0  0  0
   -1.2992    1.0284    1.3762 C   0  0  0  0  0  0  0  0  0  0  0  0
   -2.2700    1.5783    0.8650 O   0  0  0  0  0  0  0  0  0  0  0  0
   -0.6480    1.6561    2.4224 N   0  0  0  0  0  0  0  0  0  0  0  0
    0.1498    1.1774    2.8321 H   0  0  0  0  0  0  0  0  0  0  0  0
   -1.0339    2.9607    2.9445 C   0  0  0  0  0  0  0  0  0  0  0  0
   -2.0655    2.9365    3.3112 H   0  0  0  0  0  0  0  0  0  0  0  0
   -0.3792    3.2445    3.7742 H   0  0  0  0  0  0  0  0  0  0  0  0
   -0.9544    3.7242    2.1636 H   0  0  0  0  0  0  0  0  0  0  0  0
  1  2  1  0  0  0  0
  2  3  1  0  0  0  0
  2  4  1  0  0  0  0
  2  5  1  0  0  0  0
  5  6  2  0  0  0  0
  5  7  1  0  0  0  0
  7  8  1  0  0  0  0
  7  9  1  0  0  0  0
  9 10  1  0  0  0  0
  9 11  1  0  0  0  0
  9 26  1  0  0  0  0
 11 12  1  0  0  0  0
 11 13  1  0  0  0  0
 11 14  1  0  0  0  0
 14 15  1  0  0  0  0
 14 16  1  0  0  0  0
 14 17  1  0  0  0  0
 17 18  1  0  0  0  0
 17 19  1  0  0  0  0
 17 20  1  0  0  0  0
 20 21  1  0  0  0  0
 20 22  1  0  0  0  0
 20 23  1  0  0  0  0
 23 24  1  0  0  0  0
 23 25  1  0  0  0  0
 26 27  2  0  0  0  0
 26 28  1  0  0  0  0
 28 29  1  0  0  0  0
 28 30  1  0  0  0  0
 30 31  1  0  0  0  0
 30 32  1  0  0  0  0
 30 33  1  0  0  0  0
M  END
$$$$

  -OEChem-03222214063D

 33 32  0     1  0  0  0  0  0999 V2000
   -3.6772   -4.0489    1.5068 H   0  0  0  0  0  0  0  0  0  0  0  0
   -3.6798   -3.0408    1.0829 C   0  0  0  0  0  0  0  0  0  0  0  0
   -4.3982   -2.4282    1.6329 H   0  0  0  0  0  0  0  0  0  0  0  0
   -3.9872   -3.0999    0.0360 H   0  0  0  0  0  0  0  0  0  0  0  0
   -2.2958   -2.4281    1.1830 C   0  0  0  0  0  0  0  0  0  0  0  0
   -1.3845   -3.0582    1.6958 O   0  0  0  0  0  0  0  0  0  0  0  0
   -2.0763   -1.1534    0.7059 N   0  0  0  0  0  0  0  0  0  0  0  0
   -2.8844   -0.6257    0.3782 H   0  0  0  0  0  0  0  0  0  0  0  0
   -0.8151   -0.4133    0.8538 C   0  0  1  0  0  0  0  0  0  0  0  0
   -0.1597   -0.8583    1.6096 H   0  0  0  0  0  0  0  0  0  0  0  0
   -0.1410   -0.4564   -0.5367 C   0  0  0  0  0  0  0  0  0  0  0  0
    0.2250   -1.4770   -0.6900 H   0  0  0  0  0  0  0  0  0  0  0  0
   -0.9003   -0.2668   -1.3034 H   0  0  0  0  0  0  0  0  0  0  0  0
    1.0252    0.5141   -0.8050 C   0  0  0  0  0  0  0  0  0  0  0  0
    1.5218    0.2038   -1.7304 H   0  0  0  0  0  0  0  0  0  0  0  0
    0.6163    1.5162   -0.9732 H   0  0  0  0  0  0  0  0  0  0  0  0
    2.0617    0.5948    0.3272 C   0  0  0  0  0  0  0  0  0  0  0  0
    1.6328    1.0341    1.2253 H   0  0  0  0  0  0  0  0  0  0  0  0
    2.4055   -0.4144    0.5775 H   0  0  0  0  0  0  0  0  0  0  0  0
    3.2571    1.4385   -0.1056 C   0  0  0  0  0  0  0  0  0  0  0  0
    3.7368    0.9855   -0.9804 H   0  0  0  0  0  0  0  0  0  0  0  0
    2.9268    2.4462   -0.3821 H   0  0  0  0  0  0  0  0  0  0  0  0
    4.2102    1.5073    1.0065 N   0  0  0  0  0  0  0  0  0  0  0  0
    5.0580    2.0061    0.7354 H   0  0  0  0  0  0  0  0  0  0  0  0
    3.7855    1.9339    1.8293 H   0  0  0  0  0  0  0  0  0  0  0  0
   -1.1938    1.0214    1.2935 C   0  0  0  0  0  0  0  0  0  0  0  0
   -2.1285    1.5982    0.7459 O   0  0  0  0  0  0  0  0  0  0  0  0
   -0.5220    1.6660    2.3161 N   0  0  0  0  0  0  0  0  0  0  0  0
    0.2185    1.1519    2.7854 H   0  0  0  0  0  0  0  0  0  0  0  0
   -0.8636    3.0023    2.7875 C   0  0  0  0  0  0  0  0  0  0  0  0
   -1.8848    3.0195    3.1823 H   0  0  0  0  0  0  0  0  0  0  0  0
   -0.1791    3.3084    3.5844 H   0  0  0  0  0  0  0  0  0  0  0  0
   -0.7889    3.7278    1.9705 H   0  0  0  0  0  0  0  0  0  0  0  0
  1  2  1  0  0  0  0
  2  3  1  0  0  0  0
  2  4  1  0  0  0  0
  2  5  1  0  0  0  0
  5  6  2  0  0  0  0
  5  7  1  0  0  0  0
  7  8  1  0  0  0  0
  7  9  1  0  0  0  0
  9 10  1  0  0  0  0
  9 11  1  0  0  0  0
  9 26  1  0  0  0  0
 11 12  1  0  0  0  0
 11 13  1  0  0  0  0
 11 14  1  0  0  0  0
 14 15  1  0  0  0  0
 14 16  1  0  0  0  0
 14 17  1  0  0  0  0
 17 18  1  0  0  0  0
 17 19  1  0  0  0  0
 17 20  1  0  0  0  0
 20 21  1  0  0  0  0
 20 22  1  0  0  0  0
 20 23  1  0  0  0  0
 23 24  1  0  0  0  0
 23 25  1  0  0  0  0
 26 27  2  0  0  0  0
 26 28  1  0  0  0  0
 28 29  1  0  0  0  0
 28 30  1  0  0  0  0
 30 31  1  0  0  0  0
 30 32  1  0  0  0  0
 30 33  1  0  0  0  0
M  END
$$$$

  -OEChem-03222214063D

 33 32  0     1  0  0  0  0  0999 V2000
   -3.6641   -4.0444    1.5792 H   0  0  0  0  0  0  0  0  0  0  0  0
   -3.6782   -3.0398    1.1474 C   0  0  0  0  0  0  0  0  0  0  0  0
   -4.3804   -2.4229    1.7132 H   0  0  0  0  0  0  0  0  0  0  0  0
   -4.0160   -3.1070    0.1105 H   0  0  0  0  0  0  0  0  0  0  0  0
   -2.2912   -2.4278    1.2004 C   0  0  0  0  0  0  0  0  0  0  0  0
   -1.3656   -3.0547    1.6912 O   0  0  0  0  0  0  0  0  0  0  0  0
   -2.0850   -1.1594    0.7004 N   0  0  0  0  0  0  0  0  0  0  0  0
   -2.9028   -0.6356    0.3919 H   0  0  0  0  0  0  0  0  0  0  0  0
   -0.8166   -0.4227    0.7847 C   0  0  1  0  0  0  0  0  0  0  0  0
   -0.1521   -0.8699    1.5310 H   0  0  0  0  0  0  0  0  0  0  0  0
   -0.1495   -0.4965   -0.6055 C   0  0  0  0  0  0  0  0  0  0  0  0
    0.2164   -1.5167   -0.7621 H   0  0  0  0  0  0  0  0  0  0  0  0
   -0.9109   -0.3025   -1.3687 H   0  0  0  0  0  0  0  0  0  0  0  0
    1.0041    0.4946   -0.8439 C   0  0  0  0  0  0  0  0  0  0  0  0
    1.3786    0.3468   -1.8623 H   0  0  0  0  0  0  0  0  0  0  0  0
    0.6314    1.5224   -0.7821 H   0  0  0  0  0  0  0  0  0  0  0  0
    2.1628    0.3027    0.1465 C   0  0  0  0  0  0  0  0  0  0  0  0
    1.8251    0.4668    1.1719 H   0  0  0  0  0  0  0  0  0  0  0  0
    2.5346   -0.7249    0.0765 H   0  0  0  0  0  0  0  0  0  0  0  0
    3.2991    1.2724   -0.1638 C   0  0  0  0  0  0  0  0  0  0  0  0
    3.6676    1.1025   -1.1816 H   0  0  0  0  0  0  0  0  0  0  0  0
    2.9399    2.3057   -0.1001 H   0  0  0  0  0  0  0  0  0  0  0  0
    4.3806    1.0537    0.8016 N   0  0  0  0  0  0  0  0  0  0  0  0
    5.1830    1.6505    0.5996 H   0  0  0  0  0  0  0  0  0  0  0  0
    4.0561    1.1914    1.7580 H   0  0  0  0  0  0  0  0  0  0  0  0
   -1.1193    1.0274    1.2212 C   0  0  0  0  0  0  0  0  0  0  0  0
   -2.0647    1.6307    0.7247 O   0  0  0  0  0  0  0  0  0  0  0  0
   -0.3607    1.6469    2.1973 N   0  0  0  0  0  0  0  0  0  0  0  0
    0.3828    1.1038    2.6271 H   0  0  0  0  0  0  0  0  0  0  0  0
   -0.6191    2.9979    2.6788 C   0  0  0  0  0  0  0  0  0  0  0  0
   -1.6203    3.0625    3.1178 H   0  0  0  0  0  0  0  0  0  0  0  0
    0.1130    3.2725    3.4443 H   0  0  0  0  0  0  0  0  0  0  0  0
   -0.5465    3.7183    1.8572 H   0  0  0  0  0  0  0  0  0  0  0  0
  1  2  1  0  0  0  0
  2  3  1  0  0  0  0
  2  4  1  0  0  0  0
  2  5  1  0  0  0  0
  5  6  2  0  0  0  0
  5  7  1  0  0  0  0
  7  8  1  0  0  0  0
  7  9  1  0  0  0  0
  9 10  1  0  0  0  0
  9 11  1  0  0  0  0
  9 26  1  0  0  0  0
 11 12  1  0  0  0  0
 11 13  1  0  0  0  0
 11 14  1  0  0  0  0
 14 15  1  0  0  0  0
 14 16  1  0  0  0  0
 14 17  1  0  0  0  0
 17 18  1  0  0  0  0
 17 19  1  0  0  0  0
 17 20  1  0  0  0  0
 20 21  1  0  0  0  0
 20 22  1  0  0  0  0
 20 23  1  0  0  0  0
 23 24  1  0  0  0  0
 23 25  1  0  0  0  0
 26 27  2  0  0  0  0
 26 28  1  0  0  0  0
 28 29  1  0  0  0  0
 28 30  1  0  0  0  0
 30 31  1  0  0  0  0
 30 32  1  0  0  0  0
 30 33  1  0  0  0  0
M  END
$$$$

  -OEChem-03222214063D

 33 32  0     1  0  0  0  0  0999 V2000
   -3.6331   -4.0428    1.6086 H   0  0  0  0  0  0  0  0  0  0  0  0
   -3.6586   -3.0402    1.1725 C   0  0  0  0  0  0  0  0  0  0  0  0
   -4.3500   -2.4223    1.7505 H   0  0  0  0  0  0  0  0  0  0  0  0
   -4.0179   -3.1130    0.1432 H   0  0  0  0  0  0  0  0  0  0  0  0
   -2.2722   -2.4247    1.1949 C   0  0  0  0  0  0  0  0  0  0  0  0
   -1.3348   -3.0484    1.6671 O   0  0  0  0  0  0  0  0  0  0  0  0
   -2.0812   -1.1538    0.6952 N   0  0  0  0  0  0  0  0  0  0  0  0
   -2.9068   -0.6346    0.4001 H   0  0  0  0  0  0  0  0  0  0  0  0
   -0.8156   -0.4108    0.7576 C   0  0  1  0  0  0  0  0  0  0  0  0
   -0.1454   -0.8548    1.5008 H   0  0  0  0  0  0  0  0  0  0  0  0
   -0.1465   -0.5014   -0.6305 C   0  0  0  0  0  0  0  0  0  0  0  0
    0.2147   -1.5227   -0.7909 H   0  0  0  0  0  0  0  0  0  0  0  0
   -0.9114   -0.3051   -1.3896 H   0  0  0  0  0  0  0  0  0  0  0  0
    0.9987    0.5004   -0.8685 C   0  0  0  0  0  0  0  0  0  0  0  0
    1.2219    0.5127   -1.9406 H   0  0  0  0  0  0  0  0  0  0  0  0
    0.7031    1.5178   -0.5949 H   0  0  0  0  0  0  0  0  0  0  0  0
    2.2690    0.0851   -0.1156 C   0  0  0  0  0  0  0  0  0  0  0  0
    2.0700    0.0460    0.9594 H   0  0  0  0  0  0  0  0  0  0  0  0
    2.5767   -0.9153   -0.4380 H   0  0  0  0  0  0  0  0  0  0  0  0
    3.4010    1.0728   -0.3827 C   0  0  0  0  0  0  0  0  0  0  0  0
    3.6064    1.1257   -1.4577 H   0  0  0  0  0  0  0  0  0  0  0  0
    3.1143    2.0737   -0.0414 H   0  0  0  0  0  0  0  0  0  0  0  0
    4.5978    0.6189    0.3319 N   0  0  0  0  0  0  0  0  0  0  0  0
    5.3862    1.2460    0.1711 H   0  0  0  0  0  0  0  0  0  0  0  0
    4.4149    0.5109    1.3291 H   0  0  0  0  0  0  0  0  0  0  0  0
   -1.1043    1.0377    1.2031 C   0  0  0  0  0  0  0  0  0  0  0  0
   -2.0605    1.6451    0.7335 O   0  0  0  0  0  0  0  0  0  0  0  0
   -0.3176    1.6453    2.1644 N   0  0  0  0  0  0  0  0  0  0  0  0
    0.4334    1.0954    2.5718 H   0  0  0  0  0  0  0  0  0  0  0  0
   -0.5616    2.9917    2.6660 C   0  0  0  0  0  0  0  0  0  0  0  0
   -1.5567    3.0578    3.1183 H   0  0  0  0  0  0  0  0  0  0  0  0
    0.1816    3.2525    3.4256 H   0  0  0  0  0  0  0  0  0  0  0  0
   -0.4951    3.7213    1.8522 H   0  0  0  0  0  0  0  0  0  0  0  0
  1  2  1  0  0  0  0
  2  3  1  0  0  0  0
  2  4  1  0  0  0  0
  2  5  1  0  0  0  0
  5  6  2  0  0  0  0
  5  7  1  0  0  0  0
  7  8  1  0  0  0  0
  7  9  1  0  0  0  0
  9 10  1  0  0  0  0
  9 11  1  0  0  0  0
  9 26  1  0  0  0  0
 11 12  1  0  0  0  0
 11 13  1  0  0  0  0
 11 14  1  0  0  0  0
 14 15  1  0  0  0  0
 14 16  1  0  0  0  0
 14 17  1  0  0  0  0
 17 18  1  0  0  0  0
 17 19  1  0  0  0  0
 17 20  1  0  0  0  0
 20 21  1  0  0  0  0
 20 22  1  0  0  0  0
 20 23  1  0  0  0  0
 23 24  1  0  0  0  0
 23 25  1  0  0  0  0
 26 27  2  0  0  0  0
 26 28  1  0  0  0  0
 28 29  1  0  0  0  0
 28 30  1  0  0  0  0
 30 31  1  0  0  0  0
 30 32  1  0  0  0  0
 30 33  1  0  0  0  0
M  END
$$$$

  -OEChem-03222214063D

 33 32  0     1  0  0  0  0  0999 V2000
   -3.6109   -4.0409    1.6031 H   0  0  0  0  0  0  0  0  0  0  0  0
   -3.6384   -3.0378    1.1683 C   0  0  0  0  0  0  0  0  0  0  0  0
   -4.3361   -2.4235    1.7426 H   0  0  0  0  0  0  0  0  0  0  0  0
   -3.9911   -3.1104    0.1368 H   0  0  0  0  0  0  0  0  0  0  0  0
   -2.2551   -2.4161    1.1993 C   0  0  0  0  0  0  0  0  0  0  0  0
   -1.3168   -3.0365    1.6742 O   0  0  0  0  0  0  0  0  0  0  0  0
   -2.0674   -1.1438    0.7019 N   0  0  0  0  0  0  0  0  0  0  0  0
   -2.8933   -0.6276    0.4021 H   0  0  0  0  0  0  0  0  0  0  0  0
   -0.8027   -0.3989    0.7650 C   0  0  1  0  0  0  0  0  0  0  0  0
   -0.1280   -0.8398    1.5059 H   0  0  0  0  0  0  0  0  0  0  0  0
   -0.1399   -0.4935   -0.6267 C   0  0  0  0  0  0  0  0  0  0  0  0
    0.2046   -1.5190   -0.7970 H   0  0  0  0  0  0  0  0  0  0  0  0
   -0.9128   -0.2872   -1.3750 H   0  0  0  0  0  0  0  0  0  0  0  0
    1.0077    0.5039   -0.8824 C   0  0  0  0  0  0  0  0  0  0  0  0
    1.0514    0.7041   -1.9584 H   0  0  0  0  0  0  0  0  0  0  0  0
    0.8386    1.4650   -0.3900 H   0  0  0  0  0  0  0  0  0  0  0  0
    2.3533   -0.0931   -0.4556 C   0  0  0  0  0  0  0  0  0  0  0  0
    2.3193   -0.3552    0.6066 H   0  0  0  0  0  0  0  0  0  0  0  0
    2.5473   -1.0092   -1.0235 H   0  0  0  0  0  0  0  0  0  0  0  0
    3.4872    0.8988   -0.6974 C   0  0  0  0  0  0  0  0  0  0  0  0
    3.5244    1.1762   -1.7569 H   0  0  0  0  0  0  0  0  0  0  0  0
    3.3199    1.8104   -0.1129 H   0  0  0  0  0  0  0  0  0  0  0  0
    4.7503    0.2687   -0.3020 N   0  0  0  0  0  0  0  0  0  0  0  0
    5.5399    0.8992   -0.4427 H   0  0  0  0  0  0  0  0  0  0  0  0
    4.7128   -0.0605    0.6625 H   0  0  0  0  0  0  0  0  0  0  0  0
   -1.1040    1.0463    1.2146 C   0  0  0  0  0  0  0  0  0  0  0  0
   -2.0624    1.6489    0.7434 O   0  0  0  0  0  0  0  0  0  0  0  0
   -0.3239    1.6582    2.1790 N   0  0  0  0  0  0  0  0  0  0  0  0
    0.4271    1.1119    2.5914 H   0  0  0  0  0  0  0  0  0  0  0  0
   -0.5847    2.9991    2.6877 C   0  0  0  0  0  0  0  0  0  0  0  0
   -1.5847    3.0526    3.1309 H   0  0  0  0  0  0  0  0  0  0  0  0
    0.1486    3.2615    3.4564 H   0  0  0  0  0  0  0  0  0  0  0  0
   -0.5169    3.7354    1.8799 H   0  0  0  0  0  0  0  0  0  0  0  0
  1  2  1  0  0  0  0
  2  3  1  0  0  0  0
  2  4  1  0  0  0  0
  2  5  1  0  0  0  0
  5  6  2  0  0  0  0
  5  7  1  0  0  0  0
  7  8  1  0  0  0  0
  7  9  1  0  0  0  0
  9 10  1  0  0  0  0
  9 11  1  0  0  0  0
  9 26  1  0  0  0  0
 11 12  1  0  0  0  0
 11 13  1  0  0  0  0
 11 14  1  0  0  0  0
 14 15  1  0  0  0  0
 14 16  1  0  0  0  0
 14 17  1  0  0  0  0
 17 18  1  0  0  0  0
 17 19  1  0  0  0  0
 17 20  1  0  0  0  0
 20 21  1  0  0  0  0
 20 22  1  0  0  0  0
 20 23  1  0  0  0  0
 23 24  1  0  0  0  0
 23 25  1  0  0  0  0
 26 27  2  0  0  0  0
 26 28  1  0  0  0  0
 28 29  1  0  0  0  0
 28 30  1  0  0  0  0
 30 31  1  0  0  0  0
 30 32  1  0  0  0  0
 30 33  1  0  0  0  0
M  END
$$$$

  -OEChem-03222214063D

 33 32  0     1  0  0  0  0  0999 V2000
   -3.6081   -4.0378    1.5846 H   0  0  0  0  0  0  0  0  0  0  0  0
   -3.6314   -3.0333    1.1529 C   0  0  0  0  0  0  0  0  0  0  0  0
   -4.3353   -2.4210    1.7217 H   0  0  0  0  0  0  0  0  0  0  0  0
   -3.9733   -3.1024    0.1174 H   0  0  0  0  0  0  0  0  0  0  0  0
   -2.2484   -2.4117    1.2006 C   0  0  0  0  0  0  0  0  0  0  0  0
   -1.3158   -3.0323    1.6861 O   0  0  0  0  0  0  0  0  0  0  0  0
   -2.0540   -1.1395    0.7059 N   0  0  0  0  0  0  0  0  0  0  0  0
   -2.8759   -0.6226    0.3969 H   0  0  0  0  0  0  0  0  0  0  0  0
   -0.7887   -0.3965    0.7791 C   0  0  1  0  0  0  0  0  0  0  0  0
   -0.1134   -0.8382    1.5191 H   0  0  0  0  0  0  0  0  0  0  0  0
   -0.1298   -0.4828   -0.6151 C   0  0  0  0  0  0  0  0  0  0  0  0
    0.2066   -1.5105   -0.7894 H   0  0  0  0  0  0  0  0  0  0  0  0
   -0.9047   -0.2727   -1.3604 H   0  0  0  0  0  0  0  0  0  0  0  0
    1.0227    0.5117   -0.8746 C   0  0  0  0  0  0  0  0  0  0  0  0
    0.8960    0.9363   -1.8763 H   0  0  0  0  0  0  0  0  0  0  0  0
    1.0150    1.3473   -0.1713 H   0  0  0  0  0  0  0  0  0  0  0  0
    2.3792   -0.2000   -0.8187 C   0  0  0  0  0  0  0  0  0  0  0  0
    2.5071   -0.6687    0.1624 H   0  0  0  0  0  0  0  0  0  0  0  0
    2.4136   -0.9890   -1.5777 H   0  0  0  0  0  0  0  0  0  0  0  0
    3.5192    0.7839   -1.0644 C   0  0  0  0  0  0  0  0  0  0  0  0
    3.3961    1.2662   -2.0407 H   0  0  0  0  0  0  0  0  0  0  0  0
    3.5128    1.5649   -0.2961 H   0  0  0  0  0  0  0  0  0  0  0  0
    4.7866    0.0487   -1.0263 N   0  0  0  0  0  0  0  0  0  0  0  0
    5.5810    0.6709   -1.1753 H   0  0  0  0  0  0  0  0  0  0  0  0
    4.8866   -0.4682   -0.1528 H   0  0  0  0  0  0  0  0  0  0  0  0
   -1.1027    1.0468    1.2280 C   0  0  0  0  0  0  0  0  0  0  0  0
   -2.0578    1.6457    0.7453 O   0  0  0  0  0  0  0  0  0  0  0  0
   -0.3366    1.6628    2.2009 N   0  0  0  0  0  0  0  0  0  0  0  0
    0.4066    1.1174    2.6284 H   0  0  0  0  0  0  0  0  0  0  0  0
   -0.6143    3.0001    2.7103 C   0  0  0  0  0  0  0  0  0  0  0  0
   -1.6185    3.0435    3.1451 H   0  0  0  0  0  0  0  0  0  0  0  0
    0.1099    3.2678    3.4858 H   0  0  0  0  0  0  0  0  0  0  0  0
   -0.5468    3.7387    1.9046 H   0  0  0  0  0  0  0  0  0  0  0  0
  1  2  1  0  0  0  0
  2  3  1  0  0  0  0
  2  4  1  0  0  0  0
  2  5  1  0  0  0  0
  5  6  2  0  0  0  0
  5  7  1  0  0  0  0
  7  8  1  0  0  0  0
  7  9  1  0  0  0  0
  9 10  1  0  0  0  0
  9 11  1  0  0  0  0
  9 26  1  0  0  0  0
 11 12  1  0  0  0  0
 11 13  1  0  0  0  0
 11 14  1  0  0  0  0
 14 15  1  0  0  0  0
 14 16  1  0  0  0  0
 14 17  1  0  0  0  0
 17 18  1  0  0  0  0
 17 19  1  0  0  0  0
 17 20  1  0  0  0  0
 20 21  1  0  0  0  0
 20 22  1  0  0  0  0
 20 23  1  0  0  0  0
 23 24  1  0  0  0  0
 23 25  1  0  0  0  0
 26 27  2  0  0  0  0
 26 28  1  0  0  0  0
 28 29  1  0  0  0  0
 28 30  1  0  0  0  0
 30 31  1  0  0  0  0
 30 32  1  0  0  0  0
 30 33  1  0  0  0  0
M  END
$$$$

  -OEChem-03222214063D

 33 32  0     1  0  0  0  0  0999 V2000
   -3.6221   -4.0359    1.5773 H   0  0  0  0  0  0  0  0  0  0  0  0
   -3.6381   -3.0334    1.1408 C   0  0  0  0  0  0  0  0  0  0  0  0
   -4.3429   -2.4156    1.7024 H   0  0  0  0  0  0  0  0  0  0  0  0
   -3.9737   -3.1059    0.1034 H   0  0  0  0  0  0  0  0  0  0  0  0
   -2.2529   -2.4175    1.1945 C   0  0  0  0  0  0  0  0  0  0  0  0
   -1.3241   -3.0430    1.6813 O   0  0  0  0  0  0  0  0  0  0  0  0
   -2.0519   -1.1452    0.7028 N   0  0  0  0  0  0  0  0  0  0  0  0
   -2.8705   -0.6242    0.3914 H   0  0  0  0  0  0  0  0  0  0  0  0
   -0.7835   -0.4084    0.7820 C   0  0  1  0  0  0  0  0  0  0  0  0
   -0.1089   -0.8561    1.5190 H   0  0  0  0  0  0  0  0  0  0  0  0
   -0.1298   -0.4809   -0.6144 C   0  0  0  0  0  0  0  0  0  0  0  0
    0.2127   -1.5079   -0.7804 H   0  0  0  0  0  0  0  0  0  0  0  0
   -0.8986   -0.2777   -1.3678 H   0  0  0  0  0  0  0  0  0  0  0  0
    1.0259    0.5155   -0.8551 C   0  0  0  0  0  0  0  0  0  0  0  0
    0.7608    1.1767   -1.6873 H   0  0  0  0  0  0  0  0  0  0  0  0
    1.2002    1.1458    0.0201 H   0  0  0  0  0  0  0  0  0  0  0  0
    2.3280   -0.2251   -1.1824 C   0  0  0  0  0  0  0  0  0  0  0  0
    2.5904   -0.8905   -0.3534 H   0  0  0  0  0  0  0  0  0  0  0  0
    2.1854   -0.8394   -2.0779 H   0  0  0  0  0  0  0  0  0  0  0  0
    3.4683    0.7593   -1.4249 C   0  0  0  0  0  0  0  0  0  0  0  0
    3.2166    1.4286   -2.2552 H   0  0  0  0  0  0  0  0  0  0  0  0
    3.6321    1.3719   -0.5314 H   0  0  0  0  0  0  0  0  0  0  0  0
    4.6801   -0.0006   -1.7449 N   0  0  0  0  0  0  0  0  0  0  0  0
    5.4738    0.6186   -1.9093 H   0  0  0  0  0  0  0  0  0  0  0  0
    4.8924   -0.6798   -1.0141 H   0  0  0  0  0  0  0  0  0  0  0  0
   -1.0927    1.0360    1.2330 C   0  0  0  0  0  0  0  0  0  0  0  0
   -2.0407    1.6412    0.7442 O   0  0  0  0  0  0  0  0  0  0  0  0
   -0.3286    1.6485    2.2099 N   0  0  0  0  0  0  0  0  0  0  0  0
    0.4102    1.1005    2.6416 H   0  0  0  0  0  0  0  0  0  0  0  0
   -0.5914    2.9944    2.7042 C   0  0  0  0  0  0  0  0  0  0  0  0
   -1.5997    3.0573    3.1269 H   0  0  0  0  0  0  0  0  0  0  0  0
    0.1281    3.2582    3.4853 H   0  0  0  0  0  0  0  0  0  0  0  0
   -0.5032    3.7244    1.8927 H   0  0  0  0  0  0  0  0  0  0  0  0
  1  2  1  0  0  0  0
  2  3  1  0  0  0  0
  2  4  1  0  0  0  0
  2  5  1  0  0  0  0
  5  6  2  0  0  0  0
  5  7  1  0  0  0  0
  7  8  1  0  0  0  0
  7  9  1  0  0  0  0
  9 10  1  0  0  0  0
  9 11  1  0  0  0  0
  9 26  1  0  0  0  0
 11 12  1  0  0  0  0
 11 13  1  0  0  0  0
 11 14  1  0  0  0  0
 14 15  1  0  0  0  0
 14 16  1  0  0  0  0
 14 17  1  0  0  0  0
 17 18  1  0  0  0  0
 17 19  1  0  0  0  0
 17 20  1  0  0  0  0
 20 21  1  0  0  0  0
 20 22  1  0  0  0  0
 20 23  1  0  0  0  0
 23 24  1  0  0  0  0
 23 25  1  0  0  0  0
 26 27  2  0  0  0  0
 26 28  1  0  0  0  0
 28 29  1  0  0  0  0
 28 30  1  0  0  0  0
 30 31  1  0  0  0  0
 30 32  1  0  0  0  0
 30 33  1  0  0  0  0
M  END
$$$$

  -OEChem-03222214063D

 33 32  0     1  0  0  0  0  0999 V2000
   -3.6497   -4.0302    1.5829 H   0  0  0  0  0  0  0  0  0  0  0  0
   -3.6596   -3.0299    1.1411 C   0  0  0  0  0  0  0  0  0  0  0  0
   -4.3614   -2.4050    1.6988 H   0  0  0  0  0  0  0  0  0  0  0  0
   -3.9948   -3.1062    0.1038 H   0  0  0  0  0  0  0  0  0  0  0  0
   -2.2706   -2.4218    1.1917 C   0  0  0  0  0  0  0  0  0  0  0  0
   -1.3443   -3.0529    1.6763 O   0  0  0  0  0  0  0  0  0  0  0  0
   -2.0615   -1.1523    0.6957 N   0  0  0  0  0  0  0  0  0  0  0  0
   -2.8771   -0.6261    0.3855 H   0  0  0  0  0  0  0  0  0  0  0  0
   -0.7877   -0.4248    0.7701 C   0  0  1  0  0  0  0  0  0  0  0  0
   -0.1148   -0.8776    1.5057 H   0  0  0  0  0  0  0  0  0  0  0  0
   -0.1364   -0.4968   -0.6257 C   0  0  0  0  0  0  0  0  0  0  0  0
    0.2188   -1.5224   -0.7735 H   0  0  0  0  0  0  0  0  0  0  0  0
   -0.8947   -0.3056   -1.3930 H   0  0  0  0  0  0  0  0  0  0  0  0
    1.0197    0.5015   -0.8396 C   0  0  0  0  0  0  0  0  0  0  0  0
    0.6666    1.3461   -1.4412 H   0  0  0  0  0  0  0  0  0  0  0  0
    1.3671    0.8970    0.1193 H   0  0  0  0  0  0  0  0  0  0  0  0
    2.2144   -0.1771   -1.5189 C   0  0  0  0  0  0  0  0  0  0  0  0
    2.5770   -0.9993   -0.8935 H   0  0  0  0  0  0  0  0  0  0  0  0
    1.8994   -0.5964   -2.4804 H   0  0  0  0  0  0  0  0  0  0  0  0
    3.3451    0.8210   -1.7504 C   0  0  0  0  0  0  0  0  0  0  0  0
    2.9931    1.6492   -2.3757 H   0  0  0  0  0  0  0  0  0  0  0  0
    3.6816    1.2362   -0.7940 H   0  0  0  0  0  0  0  0  0  0  0  0
    4.4513    0.1270   -2.4160 N   0  0  0  0  0  0  0  0  0  0  0  0
    5.2334    0.7580   -2.5910 H   0  0  0  0  0  0  0  0  0  0  0  0
    4.7519   -0.6860   -1.8783 H   0  0  0  0  0  0  0  0  0  0  0  0
   -1.0740    1.0257    1.2169 C   0  0  0  0  0  0  0  0  0  0  0  0
   -2.0165    1.6421    0.7319 O   0  0  0  0  0  0  0  0  0  0  0  0
   -0.2965    1.6298    2.1884 N   0  0  0  0  0  0  0  0  0  0  0  0
    0.4377    1.0728    2.6161 H   0  0  0  0  0  0  0  0  0  0  0  0
   -0.5361    2.9805    2.6814 C   0  0  0  0  0  0  0  0  0  0  0  0
   -1.5434    3.0619    3.1033 H   0  0  0  0  0  0  0  0  0  0  0  0
    0.1871    3.2312    3.4633 H   0  0  0  0  0  0  0  0  0  0  0  0
   -0.4337    3.7081    1.8695 H   0  0  0  0  0  0  0  0  0  0  0  0
  1  2  1  0  0  0  0
  2  3  1  0  0  0  0
  2  4  1  0  0  0  0
  2  5  1  0  0  0  0
  5  6  2  0  0  0  0
  5  7  1  0  0  0  0
  7  8  1  0  0  0  0
  7  9  1  0  0  0  0
  9 10  1  0  0  0  0
  9 11  1  0  0  0  0
  9 26  1  0  0  0  0
 11 12  1  0  0  0  0
 11 13  1  0  0  0  0
 11 14  1  0  0  0  0
 14 15  1  0  0  0  0
 14 16  1  0  0  0  0
 14 17  1  0  0  0  0
 17 18  1  0  0  0  0
 17 19  1  0  0  0  0
 17 20  1  0  0  0  0
 20 21  1  0  0  0  0
 20 22  1  0  0  0  0
 20 23  1  0  0  0  0
 23 24  1  0  0  0  0
 23 25  1  0  0  0  0
 26 27  2  0  0  0  0
 26 28  1  0  0  0  0
 28 29  1  0  0  0  0
 28 30  1  0  0  0  0
 30 31  1  0  0  0  0
 30 32  1  0  0  0  0
 30 33  1  0  0  0  0
M  END
$$$$

  -OEChem-03222214063D

 33 32  0     1  0  0  0  0  0999 V2000
   -3.6729   -4.0237    1.5954 H   0  0  0  0  0  0  0  0  0  0  0  0
   -3.6797   -3.0253    1.1495 C   0  0  0  0  0  0  0  0  0  0  0  0
   -4.3746   -2.3944    1.7086 H   0  0  0  0  0  0  0  0  0  0  0  0
   -4.0214   -3.1040    0.1147 H   0  0  0  0  0  0  0  0  0  0  0  0
   -2.2870   -2.4249    1.1900 C   0  0  0  0  0  0  0  0  0  0  0  0
   -1.3618   -3.0597    1.6720 O   0  0  0  0  0  0  0  0  0  0  0  0
   -2.0738   -1.1577    0.6896 N   0  0  0  0  0  0  0  0  0  0  0  0
   -2.8884   -0.6276    0.3836 H   0  0  0  0  0  0  0  0  0  0  0  0
   -0.7956   -0.4367    0.7539 C   0  0  1  0  0  0  0  0  0  0  0  0
   -0.1250   -0.8935    1.4891 H   0  0  0  0  0  0  0  0  0  0  0  0
   -0.1438   -0.5143   -0.6401 C   0  0  0  0  0  0  0  0  0  0  0  0
    0.2210   -1.5376   -0.7793 H   0  0  0  0  0  0  0  0  0  0  0  0
   -0.8956   -0.3263   -1.4142 H   0  0  0  0  0  0  0  0  0  0  0  0
    1.0101    0.4850   -0.8348 C   0  0  0  0  0  0  0  0  0  0  0  0
    0.6113    1.4408   -1.1921 H   0  0  0  0  0  0  0  0  0  0  0  0
    1.5128    0.6644    0.1210 H   0  0  0  0  0  0  0  0  0  0  0  0
    2.0498   -0.0630   -1.8181 C   0  0  0  0  0  0  0  0  0  0  0  0
    2.4712   -0.9961   -1.4301 H   0  0  0  0  0  0  0  0  0  0  0  0
    1.5672   -0.2819   -2.7765 H   0  0  0  0  0  0  0  0  0  0  0  0
    3.1711    0.9481   -2.0375 C   0  0  0  0  0  0  0  0  0  0  0  0
    2.7598    1.8868   -2.4255 H   0  0  0  0  0  0  0  0  0  0  0  0
    3.6736    1.1632   -1.0879 H   0  0  0  0  0  0  0  0  0  0  0  0
    4.1255    0.3868   -2.9979 N   0  0  0  0  0  0  0  0  0  0  0  0
    4.8932    1.0336   -3.1788 H   0  0  0  0  0  0  0  0  0  0  0  0
    4.4769   -0.5171   -2.6816 H   0  0  0  0  0  0  0  0  0  0  0  0
   -1.0576    1.0185    1.1980 C   0  0  0  0  0  0  0  0  0  0  0  0
   -1.9976    1.6451    0.7214 O   0  0  0  0  0  0  0  0  0  0  0  0
   -0.2618    1.6133    2.1601 N   0  0  0  0  0  0  0  0  0  0  0  0
    0.4679    1.0462    2.5826 H   0  0  0  0  0  0  0  0  0  0  0  0
   -0.4832    2.9651    2.6581 C   0  0  0  0  0  0  0  0  0  0  0  0
   -1.4836    3.0538    3.0946 H   0  0  0  0  0  0  0  0  0  0  0  0
    0.2535    3.2087    3.4296 H   0  0  0  0  0  0  0  0  0  0  0  0
   -0.3871    3.6933    1.8459 H   0  0  0  0  0  0  0  0  0  0  0  0
  1  2  1  0  0  0  0
  2  3  1  0  0  0  0
  2  4  1  0  0  0  0
  2  5  1  0  0  0  0
  5  6  2  0  0  0  0
  5  7  1  0  0  0  0
  7  8  1  0  0  0  0
  7  9  1  0  0  0  0
  9 10  1  0  0  0  0
  9 11  1  0  0  0  0
  9 26  1  0  0  0  0
 11 12  1  0  0  0  0
 11 13  1  0  0  0  0
 11 14  1  0  0  0  0
 14 15  1  0  0  0  0
 14 16  1  0  0  0  0
 14 17  1  0  0  0  0
 17 18  1  0  0  0  0
 17 19  1  0  0  0  0
 17 20  1  0  0  0  0
 20 21  1  0  0  0  0
 20 22  1  0  0  0  0
 20 23  1  0  0  0  0
 23 24  1  0  0  0  0
 23 25  1  0  0  0  0
 26 27  2  0  0  0  0
 26 28  1  0  0  0  0
 28 29  1  0  0  0  0
 28 30  1  0  0  0  0
 30 31  1  0  0  0  0
 30 32  1  0  0  0  0
 30 33  1  0  0  0  0
M  END
$$$$

  -OEChem-03222214063D

 33 32  0     1  0  0  0  0  0999 V2000
   -3.6781   -4.0180    1.5976 H   0  0  0  0  0  0  0  0  0  0  0  0
   -3.6841   -3.0194    1.1521 C   0  0  0  0  0  0  0  0  0  0  0  0
   -4.3709   -2.3854    1.7181 H   0  0  0  0  0  0  0  0  0  0  0  0
   -4.0358   -3.0960    0.1204 H   0  0  0  0  0  0  0  0  0  0  0  0
   -2.2884   -2.4254    1.1800 C   0  0  0  0  0  0  0  0  0  0  0  0
   -1.3609   -3.0658    1.6498 O   0  0  0  0  0  0  0  0  0  0  0  0
   -2.0756   -1.1565    0.6840 N   0  0  0  0  0  0  0  0  0  0  0  0
   -2.8919   -0.6226    0.3889 H   0  0  0  0  0  0  0  0  0  0  0  0
   -0.7967   -0.4369    0.7465 C   0  0  1  0  0  0  0  0  0  0  0  0
   -0.1273   -0.8965    1.4812 H   0  0  0  0  0  0  0  0  0  0  0  0
   -0.1418   -0.5176   -0.6458 C   0  0  0  0  0  0  0  0  0  0  0  0
    0.2247   -1.5394   -0.7904 H   0  0  0  0  0  0  0  0  0  0  0  0
   -0.8948   -0.3240   -1.4172 H   0  0  0  0  0  0  0  0  0  0  0  0
    1.0111    0.4805   -0.8372 C   0  0  0  0  0  0  0  0  0  0  0  0
    0.6104    1.4935   -0.9539 H   0  0  0  0  0  0  0  0  0  0  0  0
    1.6584    0.4689    0.0458 H   0  0  0  0  0  0  0  0  0  0  0  0
    1.8450    0.1090   -2.0677 C   0  0  0  0  0  0  0  0  0  0  0  0
    2.2734   -0.8900   -1.9362 H   0  0  0  0  0  0  0  0  0  0  0  0
    1.2012    0.0874   -2.9533 H   0  0  0  0  0  0  0  0  0  0  0  0
    2.9683    1.1177   -2.2875 C   0  0  0  0  0  0  0  0  0  0  0  0
    2.5511    2.1221   -2.4210 H   0  0  0  0  0  0  0  0  0  0  0  0
    3.6309    1.1374   -1.4150 H   0  0  0  0  0  0  0  0  0  0  0  0
    3.7190    0.7268   -3.4843 N   0  0  0  0  0  0  0  0  0  0  0  0
    4.4822    1.3770   -3.6718 H   0  0  0  0  0  0  0  0  0  0  0  0
    4.0653   -0.2292   -3.4047 H   0  0  0  0  0  0  0  0  0  0  0  0
   -1.0536    1.0168    1.1968 C   0  0  0  0  0  0  0  0  0  0  0  0
   -1.9974    1.6454    0.7303 O   0  0  0  0  0  0  0  0  0  0  0  0
   -0.2529    1.6066    2.1577 N   0  0  0  0  0  0  0  0  0  0  0  0
    0.4780    1.0374    2.5750 H   0  0  0  0  0  0  0  0  0  0  0  0
   -0.4715    2.9567    2.6617 C   0  0  0  0  0  0  0  0  0  0  0  0
   -1.4677    3.0429    3.1083 H   0  0  0  0  0  0  0  0  0  0  0  0
    0.2722    3.1997    3.4266 H   0  0  0  0  0  0  0  0  0  0  0  0
   -0.3844    3.6866    1.8501 H   0  0  0  0  0  0  0  0  0  0  0  0
  1  2  1  0  0  0  0
  2  3  1  0  0  0  0
  2  4  1  0  0  0  0
  2  5  1  0  0  0  0
  5  6  2  0  0  0  0
  5  7  1  0  0  0  0
  7  8  1  0  0  0  0
  7  9  1  0  0  0  0
  9 10  1  0  0  0  0
  9 11  1  0  0  0  0
  9 26  1  0  0  0  0
 11 12  1  0  0  0  0
 11 13  1  0  0  0  0
 11 14  1  0  0  0  0
 14 15  1  0  0  0  0
 14 16  1  0  0  0  0
 14 17  1  0  0  0  0
 17 18  1  0  0  0  0
 17 19  1  0  0  0  0
 17 20  1  0  0  0  0
 20 21  1  0  0  0  0
 20 22  1  0  0  0  0
 20 23  1  0  0  0  0
 23 24  1  0  0  0  0
 23 25  1  0  0  0  0
 26 27  2  0  0  0  0
 26 28  1  0  0  0  0
 28 29  1  0  0  0  0
 28 30  1  0  0  0  0
 30 31  1  0  0  0  0
 30 32  1  0  0  0  0
 30 33  1  0  0  0  0
M  END
$$$$
