
  -OEChem-05262214473D

 48 47  0     1  0  0  0  0  0999 V2000
   -5.5827   -1.3473    1.4591 C   0  0  0  0  0  0  0  0  0  0  0  0
   -5.7053   -2.4696    0.9825 O   0  0  0  0  0  0  0  0  0  0  0  0
   -6.7879   -0.6277    1.9670 C   0  0  0  0  0  0  0  0  0  0  0  0
   -7.2718   -0.0164    1.1885 H   0  0  0  0  0  0  0  0  0  0  0  0
   -7.5699   -1.3171    2.3239 H   0  0  0  0  0  0  0  0  0  0  0  0
   -6.6057    0.0628    2.8060 H   0  0  0  0  0  0  0  0  0  0  0  0
   -4.4001   -0.6377    1.5884 N   0  0  0  0  0  0  0  0  0  0  0  0
   -3.1220   -1.1455    1.1644 C   0  0  2  0  0  0  0  0  0  0  0  0
   -2.2017    0.0428    0.9187 C   0  0  0  0  0  0  0  0  0  0  0  0
   -2.6171    1.1750    0.6807 O   0  0  0  0  0  0  0  0  0  0  0  0
   -3.2533   -1.9992   -0.0873 C   0  0  0  0  0  0  0  0  0  0  0  0
   -4.4370    0.2910    2.0047 H   0  0  0  0  0  0  0  0  0  0  0  0
   -2.7302   -1.7467    1.9921 H   0  0  0  0  0  0  0  0  0  0  0  0
   -3.6446   -1.4140   -0.9275 H   0  0  0  0  0  0  0  0  0  0  0  0
   -2.2844   -2.4081   -0.3922 H   0  0  0  0  0  0  0  0  0  0  0  0
   -3.9388   -2.8365    0.0822 H   0  0  0  0  0  0  0  0  0  0  0  0
   -0.8768   -0.3314    0.9568 N   0  0  0  0  0  0  0  0  0  0  0  0
    0.2067    0.6285    0.7375 C   0  0  2  0  0  0  0  0  0  0  0  0
    1.5091   -0.1570    0.8575 C   0  0  0  0  0  0  0  0  0  0  0  0
    1.5333   -1.3673    1.0720 O   0  0  0  0  0  0  0  0  0  0  0  0
    0.1062    1.7536    1.7784 C   0  0  0  0  0  0  0  0  0  0  0  0
   -1.1324    2.6335    1.6106 C   0  0  0  0  0  0  0  0  0  0  0  0
   -1.2070    3.7097    2.6648 C   0  0  0  0  0  0  0  0  0  0  0  0
   -0.4429    3.7834    3.6187 O   0  0  0  0  0  0  0  0  0  0  0  0
   -2.2289    4.5773    2.4613 O   0  0  0  0  0  0  0  0  0  0  0  0
   -0.6087   -1.2764    1.1771 H   0  0  0  0  0  0  0  0  0  0  0  0
    0.1018    1.0442   -0.2700 H   0  0  0  0  0  0  0  0  0  0  0  0
    0.0978    1.3148    2.7851 H   0  0  0  0  0  0  0  0  0  0  0  0
    0.9933    2.3984    1.7252 H   0  0  0  0  0  0  0  0  0  0  0  0
   -1.0946    3.1424    0.6396 H   0  0  0  0  0  0  0  0  0  0  0  0
   -2.0549    2.0439    1.5968 H   0  0  0  0  0  0  0  0  0  0  0  0
   -2.3242    5.2829    3.1358 H   0  0  0  0  0  0  0  0  0  0  0  0
    2.6274    0.6417    0.6692 N   0  0  0  0  0  0  0  0  0  0  0  0
    3.9803    0.1373    0.7310 C   0  0  2  0  0  0  0  0  0  0  0  0
    4.4950    0.3442    2.1494 C   0  0  0  0  0  0  0  0  0  0  0  0
    4.0259    1.1812    2.9178 O   0  0  0  0  0  0  0  0  0  0  0  0
    4.8775    0.8344   -0.2799 C   0  0  0  0  0  0  0  0  0  0  0  0
    2.4886    1.6294    0.4785 H   0  0  0  0  0  0  0  0  0  0  0  0
    3.9283   -0.9351    0.5135 H   0  0  0  0  0  0  0  0  0  0  0  0
    4.9418    1.9099   -0.0781 H   0  0  0  0  0  0  0  0  0  0  0  0
    5.8952    0.4314   -0.2515 H   0  0  0  0  0  0  0  0  0  0  0  0
    4.4894    0.7097   -1.2966 H   0  0  0  0  0  0  0  0  0  0  0  0
    5.5680   -0.4862    2.4415 N   0  0  0  0  0  0  0  0  0  0  0  0
    6.2404   -0.4707    3.7196 C   0  0  0  0  0  0  0  0  0  0  0  0
    5.8786   -1.1631    1.7508 H   0  0  0  0  0  0  0  0  0  0  0  0
    7.0942    0.2215    3.6770 H   0  0  0  0  0  0  0  0  0  0  0  0
    5.5385   -0.1394    4.4991 H   0  0  0  0  0  0  0  0  0  0  0  0
    6.6005   -1.4827    3.9566 H   0  0  0  0  0  0  0  0  0  0  0  0
  1  3  1  0  0  0  0
  1  7  1  0  0  0  0
  1  2  2  0  0  0  0
 34 35  1  0  0  0  0
 35 43  1  0  0  0  0
 35 36  2  0  0  0  0
  8  9  1  0  0  0  0
  9 17  1  0  0  0  0
  9 10  2  0  0  0  0
 18 19  1  0  0  0  0
 19 33  1  0  0  0  0
 19 20  2  0  0  0  0
 22 23  1  0  0  0  0
 23 24  2  0  0  0  0
 23 25  1  0  0  0  0
 34 37  1  0  0  0  0
  8 11  1  0  0  0  0
 43 44  1  0  0  0  0
 21 22  1  0  0  0  0
 18 21  1  0  0  0  0
 33 34  1  0  0  0  0
  7  8  1  0  0  0  0
 17 18  1  0  0  0  0
  3  4  1  0  0  0  0
  3  5  1  0  0  0  0
  3  6  1  0  0  0  0
 37 40  1  0  0  0  0
 37 41  1  0  0  0  0
 37 42  1  0  0  0  0
 11 14  1  0  0  0  0
 11 15  1  0  0  0  0
 11 16  1  0  0  0  0
 44 46  1  0  0  0  0
 44 47  1  0  0  0  0
 44 48  1  0  0  0  0
 22 30  1  0  0  0  0
 22 31  1  0  0  0  0
 21 28  1  0  0  0  0
 21 29  1  0  0  0  0
 34 39  1  0  0  0  0
  8 13  1  0  0  0  0
 18 27  1  0  0  0  0
 43 45  1  0  0  0  0
  7 12  1  0  0  0  0
 33 38  1  0  0  0  0
 17 26  1  0  0  0  0
 25 32  1  0  0  0  0
M  END
$$$$

  -OEChem-05262214473D

 48 47  0     1  0  0  0  0  0999 V2000
   -5.5827   -1.3473    1.4591 C   0  0  0  0  0  0  0  0  0  0  0  0
   -5.7053   -2.4696    0.9825 O   0  0  0  0  0  0  0  0  0  0  0  0
   -6.7879   -0.6277    1.9670 C   0  0  0  0  0  0  0  0  0  0  0  0
   -7.2718   -0.0164    1.1885 H   0  0  0  0  0  0  0  0  0  0  0  0
   -7.5699   -1.3171    2.3239 H   0  0  0  0  0  0  0  0  0  0  0  0
   -6.6057    0.0628    2.8060 H   0  0  0  0  0  0  0  0  0  0  0  0
   -4.4001   -0.6377    1.5884 N   0  0  0  0  0  0  0  0  0  0  0  0
   -3.1220   -1.1455    1.1644 C   0  0  2  0  0  0  0  0  0  0  0  0
   -2.2017    0.0428    0.9187 C   0  0  0  0  0  0  0  0  0  0  0  0
   -2.6171    1.1750    0.6807 O   0  0  0  0  0  0  0  0  0  0  0  0
   -3.2533   -1.9992   -0.0873 C   0  0  0  0  0  0  0  0  0  0  0  0
   -4.4370    0.2910    2.0047 H   0  0  0  0  0  0  0  0  0  0  0  0
   -2.7302   -1.7467    1.9921 H   0  0  0  0  0  0  0  0  0  0  0  0
   -3.6446   -1.4140   -0.9275 H   0  0  0  0  0  0  0  0  0  0  0  0
   -2.2844   -2.4081   -0.3922 H   0  0  0  0  0  0  0  0  0  0  0  0
   -3.9388   -2.8365    0.0822 H   0  0  0  0  0  0  0  0  0  0  0  0
   -0.8768   -0.3314    0.9568 N   0  0  0  0  0  0  0  0  0  0  0  0
    0.2067    0.6285    0.7375 C   0  0  2  0  0  0  0  0  0  0  0  0
    1.5091   -0.1570    0.8575 C   0  0  0  0  0  0  0  0  0  0  0  0
    1.5478   -1.3846    0.8023 O   0  0  0  0  0  0  0  0  0  0  0  0
    0.1062    1.7536    1.7784 C   0  0  0  0  0  0  0  0  0  0  0  0
   -1.1324    2.6335    1.6106 C   0  0  0  0  0  0  0  0  0  0  0  0
   -1.2070    3.7097    2.6648 C   0  0  0  0  0  0  0  0  0  0  0  0
   -0.4429    3.7834    3.6187 O   0  0  0  0  0  0  0  0  0  0  0  0
   -2.2289    4.5773    2.4613 O   0  0  0  0  0  0  0  0  0  0  0  0
   -0.6087   -1.2764    1.1771 H   0  0  0  0  0  0  0  0  0  0  0  0
    0.1018    1.0442   -0.2700 H   0  0  0  0  0  0  0  0  0  0  0  0
    0.0978    1.3148    2.7851 H   0  0  0  0  0  0  0  0  0  0  0  0
    0.9933    2.3984    1.7252 H   0  0  0  0  0  0  0  0  0  0  0  0
   -1.0946    3.1424    0.6396 H   0  0  0  0  0  0  0  0  0  0  0  0
   -2.0549    2.0439    1.5968 H   0  0  0  0  0  0  0  0  0  0  0  0
   -2.3242    5.2829    3.1358 H   0  0  0  0  0  0  0  0  0  0  0  0
    2.6135    0.6695    1.0025 N   0  0  0  0  0  0  0  0  0  0  0  0
    3.9636    0.1713    1.1349 C   0  0  2  0  0  0  0  0  0  0  0  0
    4.2805    0.0605    2.6204 C   0  0  0  0  0  0  0  0  0  0  0  0
    3.6855    0.7032    3.4830 O   0  0  0  0  0  0  0  0  0  0  0  0
    4.9602    1.0806    0.4329 C   0  0  0  0  0  0  0  0  0  0  0  0
    2.4661    1.6742    1.0163 H   0  0  0  0  0  0  0  0  0  0  0  0
    3.9785   -0.8261    0.6823 H   0  0  0  0  0  0  0  0  0  0  0  0
    4.9596    2.0846    0.8727 H   0  0  0  0  0  0  0  0  0  0  0  0
    5.9791    0.6868    0.5097 H   0  0  0  0  0  0  0  0  0  0  0  0
    4.7134    1.1829   -0.6293 H   0  0  0  0  0  0  0  0  0  0  0  0
    5.3347   -0.8082    2.8658 N   0  0  0  0  0  0  0  0  0  0  0  0
    5.8329   -1.0737    4.1952 C   0  0  0  0  0  0  0  0  0  0  0  0
    5.7567   -1.3129    2.0919 H   0  0  0  0  0  0  0  0  0  0  0  0
    6.6599   -0.3847    4.4217 H   0  0  0  0  0  0  0  0  0  0  0  0
    5.0237   -0.9278    4.9258 H   0  0  0  0  0  0  0  0  0  0  0  0
    6.1944   -2.1111    4.2507 H   0  0  0  0  0  0  0  0  0  0  0  0
  1  3  1  0  0  0  0
  1  7  1  0  0  0  0
  1  2  2  0  0  0  0
 34 35  1  0  0  0  0
 35 43  1  0  0  0  0
 35 36  2  0  0  0  0
  8  9  1  0  0  0  0
  9 17  1  0  0  0  0
  9 10  2  0  0  0  0
 18 19  1  0  0  0  0
 19 33  1  0  0  0  0
 19 20  2  0  0  0  0
 22 23  1  0  0  0  0
 23 24  2  0  0  0  0
 23 25  1  0  0  0  0
 34 37  1  0  0  0  0
  8 11  1  0  0  0  0
 43 44  1  0  0  0  0
 21 22  1  0  0  0  0
 18 21  1  0  0  0  0
 33 34  1  0  0  0  0
  7  8  1  0  0  0  0
 17 18  1  0  0  0  0
  3  4  1  0  0  0  0
  3  5  1  0  0  0  0
  3  6  1  0  0  0  0
 37 40  1  0  0  0  0
 37 41  1  0  0  0  0
 37 42  1  0  0  0  0
 11 14  1  0  0  0  0
 11 15  1  0  0  0  0
 11 16  1  0  0  0  0
 44 46  1  0  0  0  0
 44 47  1  0  0  0  0
 44 48  1  0  0  0  0
 22 30  1  0  0  0  0
 22 31  1  0  0  0  0
 21 28  1  0  0  0  0
 21 29  1  0  0  0  0
 34 39  1  0  0  0  0
  8 13  1  0  0  0  0
 18 27  1  0  0  0  0
 43 45  1  0  0  0  0
  7 12  1  0  0  0  0
 33 38  1  0  0  0  0
 17 26  1  0  0  0  0
 25 32  1  0  0  0  0
M  END
$$$$

  -OEChem-05262214473D

 48 47  0     1  0  0  0  0  0999 V2000
   -5.5827   -1.3473    1.4591 C   0  0  0  0  0  0  0  0  0  0  0  0
   -5.7053   -2.4696    0.9825 O   0  0  0  0  0  0  0  0  0  0  0  0
   -6.7879   -0.6277    1.9670 C   0  0  0  0  0  0  0  0  0  0  0  0
   -7.2718   -0.0164    1.1885 H   0  0  0  0  0  0  0  0  0  0  0  0
   -7.5699   -1.3171    2.3239 H   0  0  0  0  0  0  0  0  0  0  0  0
   -6.6057    0.0628    2.8060 H   0  0  0  0  0  0  0  0  0  0  0  0
   -4.4001   -0.6377    1.5884 N   0  0  0  0  0  0  0  0  0  0  0  0
   -3.1220   -1.1455    1.1644 C   0  0  2  0  0  0  0  0  0  0  0  0
   -2.2017    0.0428    0.9187 C   0  0  0  0  0  0  0  0  0  0  0  0
   -2.6171    1.1750    0.6807 O   0  0  0  0  0  0  0  0  0  0  0  0
   -3.2533   -1.9992   -0.0873 C   0  0  0  0  0  0  0  0  0  0  0  0
   -4.4370    0.2910    2.0047 H   0  0  0  0  0  0  0  0  0  0  0  0
   -2.7302   -1.7467    1.9921 H   0  0  0  0  0  0  0  0  0  0  0  0
   -3.6446   -1.4140   -0.9275 H   0  0  0  0  0  0  0  0  0  0  0  0
   -2.2844   -2.4081   -0.3922 H   0  0  0  0  0  0  0  0  0  0  0  0
   -3.9388   -2.8365    0.0822 H   0  0  0  0  0  0  0  0  0  0  0  0
   -0.8768   -0.3314    0.9568 N   0  0  0  0  0  0  0  0  0  0  0  0
    0.2067    0.6285    0.7375 C   0  0  2  0  0  0  0  0  0  0  0  0
    1.5091   -0.1570    0.8575 C   0  0  0  0  0  0  0  0  0  0  0  0
    1.5980   -1.3413    0.5399 O   0  0  0  0  0  0  0  0  0  0  0  0
    0.1062    1.7536    1.7784 C   0  0  0  0  0  0  0  0  0  0  0  0
   -1.1324    2.6335    1.6106 C   0  0  0  0  0  0  0  0  0  0  0  0
   -1.2070    3.7097    2.6648 C   0  0  0  0  0  0  0  0  0  0  0  0
   -0.4429    3.7834    3.6187 O   0  0  0  0  0  0  0  0  0  0  0  0
   -2.2289    4.5773    2.4613 O   0  0  0  0  0  0  0  0  0  0  0  0
   -0.6087   -1.2764    1.1771 H   0  0  0  0  0  0  0  0  0  0  0  0
    0.1018    1.0442   -0.2700 H   0  0  0  0  0  0  0  0  0  0  0  0
    0.0978    1.3148    2.7851 H   0  0  0  0  0  0  0  0  0  0  0  0
    0.9933    2.3984    1.7252 H   0  0  0  0  0  0  0  0  0  0  0  0
   -1.0946    3.1424    0.6396 H   0  0  0  0  0  0  0  0  0  0  0  0
   -2.0549    2.0439    1.5968 H   0  0  0  0  0  0  0  0  0  0  0  0
   -2.3242    5.2829    3.1358 H   0  0  0  0  0  0  0  0  0  0  0  0
    2.5551    0.6226    1.3288 N   0  0  0  0  0  0  0  0  0  0  0  0
    3.8930    0.1147    1.5303 C   0  0  2  0  0  0  0  0  0  0  0  0
    4.0163   -0.3220    2.9841 C   0  0  0  0  0  0  0  0  0  0  0  0
    3.2912    0.1097    3.8779 O   0  0  0  0  0  0  0  0  0  0  0  0
    4.9402    1.1626    1.1868 C   0  0  0  0  0  0  0  0  0  0  0  0
    2.3717    1.5982    1.5427 H   0  0  0  0  0  0  0  0  0  0  0  0
    4.0023   -0.7571    0.8760 H   0  0  0  0  0  0  0  0  0  0  0  0
    4.8465    2.0437    1.8321 H   0  0  0  0  0  0  0  0  0  0  0  0
    5.9535    0.7670    1.3127 H   0  0  0  0  0  0  0  0  0  0  0  0
    4.8312    1.4972    0.1495 H   0  0  0  0  0  0  0  0  0  0  0  0
    5.0593   -1.2178    3.1733 N   0  0  0  0  0  0  0  0  0  0  0  0
    5.3882   -1.7695    4.4670 C   0  0  0  0  0  0  0  0  0  0  0  0
    5.5966   -1.5356    2.3720 H   0  0  0  0  0  0  0  0  0  0  0  0
    6.1536   -1.1437    4.9492 H   0  0  0  0  0  0  0  0  0  0  0  0
    4.4856   -1.7940    5.0952 H   0  0  0  0  0  0  0  0  0  0  0  0
    5.7758   -2.7913    4.3419 H   0  0  0  0  0  0  0  0  0  0  0  0
  1  3  1  0  0  0  0
  1  7  1  0  0  0  0
  1  2  2  0  0  0  0
 34 35  1  0  0  0  0
 35 43  1  0  0  0  0
 35 36  2  0  0  0  0
  8  9  1  0  0  0  0
  9 17  1  0  0  0  0
  9 10  2  0  0  0  0
 18 19  1  0  0  0  0
 19 33  1  0  0  0  0
 19 20  2  0  0  0  0
 22 23  1  0  0  0  0
 23 24  2  0  0  0  0
 23 25  1  0  0  0  0
 34 37  1  0  0  0  0
  8 11  1  0  0  0  0
 43 44  1  0  0  0  0
 21 22  1  0  0  0  0
 18 21  1  0  0  0  0
 33 34  1  0  0  0  0
  7  8  1  0  0  0  0
 17 18  1  0  0  0  0
  3  4  1  0  0  0  0
  3  5  1  0  0  0  0
  3  6  1  0  0  0  0
 37 40  1  0  0  0  0
 37 41  1  0  0  0  0
 37 42  1  0  0  0  0
 11 14  1  0  0  0  0
 11 15  1  0  0  0  0
 11 16  1  0  0  0  0
 44 46  1  0  0  0  0
 44 47  1  0  0  0  0
 44 48  1  0  0  0  0
 22 30  1  0  0  0  0
 22 31  1  0  0  0  0
 21 28  1  0  0  0  0
 21 29  1  0  0  0  0
 34 39  1  0  0  0  0
  8 13  1  0  0  0  0
 18 27  1  0  0  0  0
 43 45  1  0  0  0  0
  7 12  1  0  0  0  0
 33 38  1  0  0  0  0
 17 26  1  0  0  0  0
 25 32  1  0  0  0  0
M  END
$$$$

  -OEChem-05262214473D

 48 47  0     1  0  0  0  0  0999 V2000
   -5.5827   -1.3473    1.4591 C   0  0  0  0  0  0  0  0  0  0  0  0
   -5.7053   -2.4696    0.9825 O   0  0  0  0  0  0  0  0  0  0  0  0
   -6.7879   -0.6277    1.9670 C   0  0  0  0  0  0  0  0  0  0  0  0
   -7.2718   -0.0164    1.1885 H   0  0  0  0  0  0  0  0  0  0  0  0
   -7.5699   -1.3171    2.3239 H   0  0  0  0  0  0  0  0  0  0  0  0
   -6.6057    0.0628    2.8060 H   0  0  0  0  0  0  0  0  0  0  0  0
   -4.4001   -0.6377    1.5884 N   0  0  0  0  0  0  0  0  0  0  0  0
   -3.1220   -1.1455    1.1644 C   0  0  2  0  0  0  0  0  0  0  0  0
   -2.2017    0.0428    0.9187 C   0  0  0  0  0  0  0  0  0  0  0  0
   -2.6171    1.1750    0.6807 O   0  0  0  0  0  0  0  0  0  0  0  0
   -3.2533   -1.9992   -0.0873 C   0  0  0  0  0  0  0  0  0  0  0  0
   -4.4370    0.2910    2.0047 H   0  0  0  0  0  0  0  0  0  0  0  0
   -2.7302   -1.7467    1.9921 H   0  0  0  0  0  0  0  0  0  0  0  0
   -3.6446   -1.4140   -0.9275 H   0  0  0  0  0  0  0  0  0  0  0  0
   -2.2844   -2.4081   -0.3922 H   0  0  0  0  0  0  0  0  0  0  0  0
   -3.9388   -2.8365    0.0822 H   0  0  0  0  0  0  0  0  0  0  0  0
   -0.8768   -0.3314    0.9568 N   0  0  0  0  0  0  0  0  0  0  0  0
    0.2067    0.6285    0.7375 C   0  0  2  0  0  0  0  0  0  0  0  0
    1.5091   -0.1570    0.8575 C   0  0  0  0  0  0  0  0  0  0  0  0
    1.6806   -1.2406    0.3027 O   0  0  0  0  0  0  0  0  0  0  0  0
    0.1062    1.7536    1.7784 C   0  0  0  0  0  0  0  0  0  0  0  0
   -1.1324    2.6335    1.6106 C   0  0  0  0  0  0  0  0  0  0  0  0
   -1.2070    3.7097    2.6648 C   0  0  0  0  0  0  0  0  0  0  0  0
   -0.4429    3.7834    3.6187 O   0  0  0  0  0  0  0  0  0  0  0  0
   -2.2289    4.5773    2.4613 O   0  0  0  0  0  0  0  0  0  0  0  0
   -0.6087   -1.2764    1.1771 H   0  0  0  0  0  0  0  0  0  0  0  0
    0.1018    1.0442   -0.2700 H   0  0  0  0  0  0  0  0  0  0  0  0
    0.0978    1.3148    2.7851 H   0  0  0  0  0  0  0  0  0  0  0  0
    0.9933    2.3984    1.7252 H   0  0  0  0  0  0  0  0  0  0  0  0
   -1.0946    3.1424    0.6396 H   0  0  0  0  0  0  0  0  0  0  0  0
   -2.0549    2.0439    1.5968 H   0  0  0  0  0  0  0  0  0  0  0  0
   -2.3242    5.2829    3.1358 H   0  0  0  0  0  0  0  0  0  0  0  0
    2.4561    0.5039    1.6257 N   0  0  0  0  0  0  0  0  0  0  0  0
    3.7733   -0.0289    1.8903 C   0  0  2  0  0  0  0  0  0  0  0  0
    3.7204   -0.7771    3.2157 C   0  0  0  0  0  0  0  0  0  0  0  0
    2.8697   -0.5589    4.0758 O   0  0  0  0  0  0  0  0  0  0  0  0
    4.8187    1.0748    1.9305 C   0  0  0  0  0  0  0  0  0  0  0  0
    2.2120    1.4066    2.0218 H   0  0  0  0  0  0  0  0  0  0  0  0
    3.9980   -0.7328    1.0816 H   0  0  0  0  0  0  0  0  0  0  0  0
    4.6102    1.7899    2.7346 H   0  0  0  0  0  0  0  0  0  0  0  0
    5.8202    0.6666    2.1026 H   0  0  0  0  0  0  0  0  0  0  0  0
    4.8347    1.6310    0.9870 H   0  0  0  0  0  0  0  0  0  0  0  0
    4.7607   -1.6870    3.3432 N   0  0  0  0  0  0  0  0  0  0  0  0
    4.9366   -2.5107    4.5165 C   0  0  0  0  0  0  0  0  0  0  0  0
    5.4092   -1.8157    2.5721 H   0  0  0  0  0  0  0  0  0  0  0  0
    5.6096   -2.0036    5.2236 H   0  0  0  0  0  0  0  0  0  0  0  0
    3.9609   -2.6791    4.9957 H   0  0  0  0  0  0  0  0  0  0  0  0
    5.3730   -3.4770    4.2238 H   0  0  0  0  0  0  0  0  0  0  0  0
  1  3  1  0  0  0  0
  1  7  1  0  0  0  0
  1  2  2  0  0  0  0
 34 35  1  0  0  0  0
 35 43  1  0  0  0  0
 35 36  2  0  0  0  0
  8  9  1  0  0  0  0
  9 17  1  0  0  0  0
  9 10  2  0  0  0  0
 18 19  1  0  0  0  0
 19 33  1  0  0  0  0
 19 20  2  0  0  0  0
 22 23  1  0  0  0  0
 23 24  2  0  0  0  0
 23 25  1  0  0  0  0
 34 37  1  0  0  0  0
  8 11  1  0  0  0  0
 43 44  1  0  0  0  0
 21 22  1  0  0  0  0
 18 21  1  0  0  0  0
 33 34  1  0  0  0  0
  7  8  1  0  0  0  0
 17 18  1  0  0  0  0
  3  4  1  0  0  0  0
  3  5  1  0  0  0  0
  3  6  1  0  0  0  0
 37 40  1  0  0  0  0
 37 41  1  0  0  0  0
 37 42  1  0  0  0  0
 11 14  1  0  0  0  0
 11 15  1  0  0  0  0
 11 16  1  0  0  0  0
 44 46  1  0  0  0  0
 44 47  1  0  0  0  0
 44 48  1  0  0  0  0
 22 30  1  0  0  0  0
 22 31  1  0  0  0  0
 21 28  1  0  0  0  0
 21 29  1  0  0  0  0
 34 39  1  0  0  0  0
  8 13  1  0  0  0  0
 18 27  1  0  0  0  0
 43 45  1  0  0  0  0
  7 12  1  0  0  0  0
 33 38  1  0  0  0  0
 17 26  1  0  0  0  0
 25 32  1  0  0  0  0
M  END
$$$$

  -OEChem-05262214473D

 48 47  0     1  0  0  0  0  0999 V2000
   -5.5827   -1.3473    1.4591 C   0  0  0  0  0  0  0  0  0  0  0  0
   -5.7053   -2.4696    0.9825 O   0  0  0  0  0  0  0  0  0  0  0  0
   -6.7879   -0.6277    1.9670 C   0  0  0  0  0  0  0  0  0  0  0  0
   -7.2718   -0.0164    1.1885 H   0  0  0  0  0  0  0  0  0  0  0  0
   -7.5699   -1.3171    2.3239 H   0  0  0  0  0  0  0  0  0  0  0  0
   -6.6057    0.0628    2.8060 H   0  0  0  0  0  0  0  0  0  0  0  0
   -4.4001   -0.6377    1.5884 N   0  0  0  0  0  0  0  0  0  0  0  0
   -3.1220   -1.1455    1.1644 C   0  0  2  0  0  0  0  0  0  0  0  0
   -2.2017    0.0428    0.9187 C   0  0  0  0  0  0  0  0  0  0  0  0
   -2.6171    1.1750    0.6807 O   0  0  0  0  0  0  0  0  0  0  0  0
   -3.2533   -1.9992   -0.0873 C   0  0  0  0  0  0  0  0  0  0  0  0
   -4.4370    0.2910    2.0047 H   0  0  0  0  0  0  0  0  0  0  0  0
   -2.7302   -1.7467    1.9921 H   0  0  0  0  0  0  0  0  0  0  0  0
   -3.6446   -1.4140   -0.9275 H   0  0  0  0  0  0  0  0  0  0  0  0
   -2.2844   -2.4081   -0.3922 H   0  0  0  0  0  0  0  0  0  0  0  0
   -3.9388   -2.8365    0.0822 H   0  0  0  0  0  0  0  0  0  0  0  0
   -0.8768   -0.3314    0.9568 N   0  0  0  0  0  0  0  0  0  0  0  0
    0.2067    0.6285    0.7375 C   0  0  2  0  0  0  0  0  0  0  0  0
    1.5091   -0.1570    0.8575 C   0  0  0  0  0  0  0  0  0  0  0  0
    1.7900   -1.0892    0.1068 O   0  0  0  0  0  0  0  0  0  0  0  0
    0.1062    1.7536    1.7784 C   0  0  0  0  0  0  0  0  0  0  0  0
   -1.1324    2.6335    1.6106 C   0  0  0  0  0  0  0  0  0  0  0  0
   -1.2070    3.7097    2.6648 C   0  0  0  0  0  0  0  0  0  0  0  0
   -0.4429    3.7834    3.6187 O   0  0  0  0  0  0  0  0  0  0  0  0
   -2.2289    4.5773    2.4613 O   0  0  0  0  0  0  0  0  0  0  0  0
   -0.6087   -1.2764    1.1771 H   0  0  0  0  0  0  0  0  0  0  0  0
    0.1018    1.0442   -0.2700 H   0  0  0  0  0  0  0  0  0  0  0  0
    0.0978    1.3148    2.7851 H   0  0  0  0  0  0  0  0  0  0  0  0
    0.9933    2.3984    1.7252 H   0  0  0  0  0  0  0  0  0  0  0  0
   -1.0946    3.1424    0.6396 H   0  0  0  0  0  0  0  0  0  0  0  0
   -2.0549    2.0439    1.5968 H   0  0  0  0  0  0  0  0  0  0  0  0
   -2.3242    5.2829    3.1358 H   0  0  0  0  0  0  0  0  0  0  0  0
    2.3234    0.3216    1.8732 N   0  0  0  0  0  0  0  0  0  0  0  0
    3.6126   -0.2495    2.1903 C   0  0  2  0  0  0  0  0  0  0  0  0
    3.4130   -1.2740    3.2995 C   0  0  0  0  0  0  0  0  0  0  0  0
    2.4498   -1.2570    4.0630 O   0  0  0  0  0  0  0  0  0  0  0  0
    4.6041    0.8232    2.6132 C   0  0  0  0  0  0  0  0  0  0  0  0
    1.9977    1.1124    2.4210 H   0  0  0  0  0  0  0  0  0  0  0  0
    3.9660   -0.7548    1.2849 H   0  0  0  0  0  0  0  0  0  0  0  0
    4.2669    1.3405    3.5189 H   0  0  0  0  0  0  0  0  0  0  0  0
    5.5881    0.3924    2.8256 H   0  0  0  0  0  0  0  0  0  0  0  0
    4.7238    1.5754    1.8260 H   0  0  0  0  0  0  0  0  0  0  0  0
    4.4591   -2.1838    3.3639 N   0  0  0  0  0  0  0  0  0  0  0  0
    4.5089   -3.2468    4.3404 C   0  0  0  0  0  0  0  0  0  0  0  0
    5.2072   -2.1344    2.6785 H   0  0  0  0  0  0  0  0  0  0  0  0
    5.0651   -2.9060    5.2261 H   0  0  0  0  0  0  0  0  0  0  0  0
    3.4854   -3.5228    4.6342 H   0  0  0  0  0  0  0  0  0  0  0  0
    5.0138   -4.1215    3.9046 H   0  0  0  0  0  0  0  0  0  0  0  0
  1  3  1  0  0  0  0
  1  7  1  0  0  0  0
  1  2  2  0  0  0  0
 34 35  1  0  0  0  0
 35 43  1  0  0  0  0
 35 36  2  0  0  0  0
  8  9  1  0  0  0  0
  9 17  1  0  0  0  0
  9 10  2  0  0  0  0
 18 19  1  0  0  0  0
 19 33  1  0  0  0  0
 19 20  2  0  0  0  0
 22 23  1  0  0  0  0
 23 24  2  0  0  0  0
 23 25  1  0  0  0  0
 34 37  1  0  0  0  0
  8 11  1  0  0  0  0
 43 44  1  0  0  0  0
 21 22  1  0  0  0  0
 18 21  1  0  0  0  0
 33 34  1  0  0  0  0
  7  8  1  0  0  0  0
 17 18  1  0  0  0  0
  3  4  1  0  0  0  0
  3  5  1  0  0  0  0
  3  6  1  0  0  0  0
 37 40  1  0  0  0  0
 37 41  1  0  0  0  0
 37 42  1  0  0  0  0
 11 14  1  0  0  0  0
 11 15  1  0  0  0  0
 11 16  1  0  0  0  0
 44 46  1  0  0  0  0
 44 47  1  0  0  0  0
 44 48  1  0  0  0  0
 22 30  1  0  0  0  0
 22 31  1  0  0  0  0
 21 28  1  0  0  0  0
 21 29  1  0  0  0  0
 34 39  1  0  0  0  0
  8 13  1  0  0  0  0
 18 27  1  0  0  0  0
 43 45  1  0  0  0  0
  7 12  1  0  0  0  0
 33 38  1  0  0  0  0
 17 26  1  0  0  0  0
 25 32  1  0  0  0  0
M  END
$$$$

  -OEChem-05262214473D

 48 47  0     1  0  0  0  0  0999 V2000
   -5.5827   -1.3473    1.4591 C   0  0  0  0  0  0  0  0  0  0  0  0
   -5.7053   -2.4696    0.9825 O   0  0  0  0  0  0  0  0  0  0  0  0
   -6.7879   -0.6277    1.9670 C   0  0  0  0  0  0  0  0  0  0  0  0
   -7.2718   -0.0164    1.1885 H   0  0  0  0  0  0  0  0  0  0  0  0
   -7.5699   -1.3171    2.3239 H   0  0  0  0  0  0  0  0  0  0  0  0
   -6.6057    0.0628    2.8060 H   0  0  0  0  0  0  0  0  0  0  0  0
   -4.4001   -0.6377    1.5884 N   0  0  0  0  0  0  0  0  0  0  0  0
   -3.1220   -1.1455    1.1644 C   0  0  2  0  0  0  0  0  0  0  0  0
   -2.2017    0.0428    0.9187 C   0  0  0  0  0  0  0  0  0  0  0  0
   -2.6171    1.1750    0.6807 O   0  0  0  0  0  0  0  0  0  0  0  0
   -3.2533   -1.9992   -0.0873 C   0  0  0  0  0  0  0  0  0  0  0  0
   -4.4370    0.2910    2.0047 H   0  0  0  0  0  0  0  0  0  0  0  0
   -2.7302   -1.7467    1.9921 H   0  0  0  0  0  0  0  0  0  0  0  0
   -3.6446   -1.4140   -0.9275 H   0  0  0  0  0  0  0  0  0  0  0  0
   -2.2844   -2.4081   -0.3922 H   0  0  0  0  0  0  0  0  0  0  0  0
   -3.9388   -2.8365    0.0822 H   0  0  0  0  0  0  0  0  0  0  0  0
   -0.8768   -0.3314    0.9568 N   0  0  0  0  0  0  0  0  0  0  0  0
    0.2067    0.6285    0.7375 C   0  0  2  0  0  0  0  0  0  0  0  0
    1.5091   -0.1570    0.8575 C   0  0  0  0  0  0  0  0  0  0  0  0
    1.9187   -0.8974   -0.0344 O   0  0  0  0  0  0  0  0  0  0  0  0
    0.1062    1.7536    1.7784 C   0  0  0  0  0  0  0  0  0  0  0  0
   -1.1324    2.6335    1.6106 C   0  0  0  0  0  0  0  0  0  0  0  0
   -1.2070    3.7097    2.6648 C   0  0  0  0  0  0  0  0  0  0  0  0
   -0.4429    3.7834    3.6187 O   0  0  0  0  0  0  0  0  0  0  0  0
   -2.2289    4.5773    2.4613 O   0  0  0  0  0  0  0  0  0  0  0  0
   -0.6087   -1.2764    1.1771 H   0  0  0  0  0  0  0  0  0  0  0  0
    0.1018    1.0442   -0.2700 H   0  0  0  0  0  0  0  0  0  0  0  0
    0.0978    1.3148    2.7851 H   0  0  0  0  0  0  0  0  0  0  0  0
    0.9933    2.3984    1.7252 H   0  0  0  0  0  0  0  0  0  0  0  0
   -1.0946    3.1424    0.6396 H   0  0  0  0  0  0  0  0  0  0  0  0
   -2.0549    2.0439    1.5968 H   0  0  0  0  0  0  0  0  0  0  0  0
   -2.3242    5.2829    3.1358 H   0  0  0  0  0  0  0  0  0  0  0  0
    2.1659    0.0882    2.0543 N   0  0  0  0  0  0  0  0  0  0  0  0
    3.4218   -0.5322    2.4100 C   0  0  2  0  0  0  0  0  0  0  0  0
    3.1151   -1.7787    3.2296 C   0  0  0  0  0  0  0  0  0  0  0  0
    2.0602   -1.9370    3.8404 O   0  0  0  0  0  0  0  0  0  0  0  0
    4.3109    0.4250    3.1885 C   0  0  0  0  0  0  0  0  0  0  0  0
    1.7436    0.7356    2.7130 H   0  0  0  0  0  0  0  0  0  0  0  0
    3.9084   -0.8216    1.4722 H   0  0  0  0  0  0  0  0  0  0  0  0
    3.8400    0.7261    4.1314 H   0  0  0  0  0  0  0  0  0  0  0  0
    5.2733   -0.0369    3.4325 H   0  0  0  0  0  0  0  0  0  0  0  0
    4.5061    1.3340    2.6093 H   0  0  0  0  0  0  0  0  0  0  0  0
    4.1752   -2.6744    3.2339 N   0  0  0  0  0  0  0  0  0  0  0  0
    4.1341   -3.9276    3.9507 C   0  0  0  0  0  0  0  0  0  0  0  0
    5.0044   -2.4698    2.6840 H   0  0  0  0  0  0  0  0  0  0  0  0
    4.5572   -3.7892    4.9566 H   0  0  0  0  0  0  0  0  0  0  0  0
    3.0914   -4.2675    4.0352 H   0  0  0  0  0  0  0  0  0  0  0  0
    4.7224   -4.6808    3.4060 H   0  0  0  0  0  0  0  0  0  0  0  0
  1  3  1  0  0  0  0
  1  7  1  0  0  0  0
  1  2  2  0  0  0  0
 34 35  1  0  0  0  0
 35 43  1  0  0  0  0
 35 36  2  0  0  0  0
  8  9  1  0  0  0  0
  9 17  1  0  0  0  0
  9 10  2  0  0  0  0
 18 19  1  0  0  0  0
 19 33  1  0  0  0  0
 19 20  2  0  0  0  0
 22 23  1  0  0  0  0
 23 24  2  0  0  0  0
 23 25  1  0  0  0  0
 34 37  1  0  0  0  0
  8 11  1  0  0  0  0
 43 44  1  0  0  0  0
 21 22  1  0  0  0  0
 18 21  1  0  0  0  0
 33 34  1  0  0  0  0
  7  8  1  0  0  0  0
 17 18  1  0  0  0  0
  3  4  1  0  0  0  0
  3  5  1  0  0  0  0
  3  6  1  0  0  0  0
 37 40  1  0  0  0  0
 37 41  1  0  0  0  0
 37 42  1  0  0  0  0
 11 14  1  0  0  0  0
 11 15  1  0  0  0  0
 11 16  1  0  0  0  0
 44 46  1  0  0  0  0
 44 47  1  0  0  0  0
 44 48  1  0  0  0  0
 22 30  1  0  0  0  0
 22 31  1  0  0  0  0
 21 28  1  0  0  0  0
 21 29  1  0  0  0  0
 34 39  1  0  0  0  0
  8 13  1  0  0  0  0
 18 27  1  0  0  0  0
 43 45  1  0  0  0  0
  7 12  1  0  0  0  0
 33 38  1  0  0  0  0
 17 26  1  0  0  0  0
 25 32  1  0  0  0  0
M  END
$$$$

  -OEChem-05262214473D

 48 47  0     1  0  0  0  0  0999 V2000
   -5.5827   -1.3473    1.4591 C   0  0  0  0  0  0  0  0  0  0  0  0
   -5.7053   -2.4696    0.9825 O   0  0  0  0  0  0  0  0  0  0  0  0
   -6.7879   -0.6277    1.9670 C   0  0  0  0  0  0  0  0  0  0  0  0
   -7.2718   -0.0164    1.1885 H   0  0  0  0  0  0  0  0  0  0  0  0
   -7.5699   -1.3171    2.3239 H   0  0  0  0  0  0  0  0  0  0  0  0
   -6.6057    0.0628    2.8060 H   0  0  0  0  0  0  0  0  0  0  0  0
   -4.4001   -0.6377    1.5884 N   0  0  0  0  0  0  0  0  0  0  0  0
   -3.1220   -1.1455    1.1644 C   0  0  2  0  0  0  0  0  0  0  0  0
   -2.2017    0.0428    0.9187 C   0  0  0  0  0  0  0  0  0  0  0  0
   -2.6171    1.1750    0.6807 O   0  0  0  0  0  0  0  0  0  0  0  0
   -3.2533   -1.9992   -0.0873 C   0  0  0  0  0  0  0  0  0  0  0  0
   -4.4370    0.2910    2.0047 H   0  0  0  0  0  0  0  0  0  0  0  0
   -2.7302   -1.7467    1.9921 H   0  0  0  0  0  0  0  0  0  0  0  0
   -3.6446   -1.4140   -0.9275 H   0  0  0  0  0  0  0  0  0  0  0  0
   -2.2844   -2.4081   -0.3922 H   0  0  0  0  0  0  0  0  0  0  0  0
   -3.9388   -2.8365    0.0822 H   0  0  0  0  0  0  0  0  0  0  0  0
   -0.8768   -0.3314    0.9568 N   0  0  0  0  0  0  0  0  0  0  0  0
    0.2067    0.6285    0.7375 C   0  0  2  0  0  0  0  0  0  0  0  0
    1.5091   -0.1570    0.8575 C   0  0  0  0  0  0  0  0  0  0  0  0
    2.0579   -0.6784   -0.1112 O   0  0  0  0  0  0  0  0  0  0  0  0
    0.1062    1.7536    1.7784 C   0  0  0  0  0  0  0  0  0  0  0  0
   -1.1324    2.6335    1.6106 C   0  0  0  0  0  0  0  0  0  0  0  0
   -1.2070    3.7097    2.6648 C   0  0  0  0  0  0  0  0  0  0  0  0
   -0.4429    3.7834    3.6187 O   0  0  0  0  0  0  0  0  0  0  0  0
   -2.2289    4.5773    2.4613 O   0  0  0  0  0  0  0  0  0  0  0  0
   -0.6087   -1.2764    1.1771 H   0  0  0  0  0  0  0  0  0  0  0  0
    0.1018    1.0442   -0.2700 H   0  0  0  0  0  0  0  0  0  0  0  0
    0.0978    1.3148    2.7851 H   0  0  0  0  0  0  0  0  0  0  0  0
    0.9933    2.3984    1.7252 H   0  0  0  0  0  0  0  0  0  0  0  0
   -1.0946    3.1424    0.6396 H   0  0  0  0  0  0  0  0  0  0  0  0
   -2.0549    2.0439    1.5968 H   0  0  0  0  0  0  0  0  0  0  0  0
   -2.3242    5.2829    3.1358 H   0  0  0  0  0  0  0  0  0  0  0  0
    1.9945   -0.1804    2.1566 N   0  0  0  0  0  0  0  0  0  0  0  0
    3.2141   -0.8576    2.5343 C   0  0  2  0  0  0  0  0  0  0  0  0
    2.8469   -2.2568    3.0109 C   0  0  0  0  0  0  0  0  0  0  0  0
    1.7273   -2.5527    3.4233 O   0  0  0  0  0  0  0  0  0  0  0  0
    3.9592   -0.0927    3.6171 C   0  0  0  0  0  0  0  0  0  0  0  0
    1.4669    0.3020    2.8779 H   0  0  0  0  0  0  0  0  0  0  0  0
    3.8292   -0.9287    1.6307 H   0  0  0  0  0  0  0  0  0  0  0  0
    3.3584   -0.0113    4.5303 H   0  0  0  0  0  0  0  0  0  0  0  0
    4.8970   -0.5922    3.8819 H   0  0  0  0  0  0  0  0  0  0  0  0
    4.1962    0.9233    3.2836 H   0  0  0  0  0  0  0  0  0  0  0  0
    3.9283   -3.1253    2.9621 N   0  0  0  0  0  0  0  0  0  0  0  0
    3.8380   -4.5067    3.3739 C   0  0  0  0  0  0  0  0  0  0  0  0
    4.8146   -2.7992    2.5881 H   0  0  0  0  0  0  0  0  0  0  0  0
    4.1205   -4.5932    4.4335 H   0  0  0  0  0  0  0  0  0  0  0  0
    2.8058   -4.8625    3.2396 H   0  0  0  0  0  0  0  0  0  0  0  0
    4.5187   -5.1168    2.7620 H   0  0  0  0  0  0  0  0  0  0  0  0
  1  3  1  0  0  0  0
  1  7  1  0  0  0  0
  1  2  2  0  0  0  0
 34 35  1  0  0  0  0
 35 43  1  0  0  0  0
 35 36  2  0  0  0  0
  8  9  1  0  0  0  0
  9 17  1  0  0  0  0
  9 10  2  0  0  0  0
 18 19  1  0  0  0  0
 19 33  1  0  0  0  0
 19 20  2  0  0  0  0
 22 23  1  0  0  0  0
 23 24  2  0  0  0  0
 23 25  1  0  0  0  0
 34 37  1  0  0  0  0
  8 11  1  0  0  0  0
 43 44  1  0  0  0  0
 21 22  1  0  0  0  0
 18 21  1  0  0  0  0
 33 34  1  0  0  0  0
  7  8  1  0  0  0  0
 17 18  1  0  0  0  0
  3  4  1  0  0  0  0
  3  5  1  0  0  0  0
  3  6  1  0  0  0  0
 37 40  1  0  0  0  0
 37 41  1  0  0  0  0
 37 42  1  0  0  0  0
 11 14  1  0  0  0  0
 11 15  1  0  0  0  0
 11 16  1  0  0  0  0
 44 46  1  0  0  0  0
 44 47  1  0  0  0  0
 44 48  1  0  0  0  0
 22 30  1  0  0  0  0
 22 31  1  0  0  0  0
 21 28  1  0  0  0  0
 21 29  1  0  0  0  0
 34 39  1  0  0  0  0
  8 13  1  0  0  0  0
 18 27  1  0  0  0  0
 43 45  1  0  0  0  0
  7 12  1  0  0  0  0
 33 38  1  0  0  0  0
 17 26  1  0  0  0  0
 25 32  1  0  0  0  0
M  END
$$$$

  -OEChem-05262214473D

 48 47  0     1  0  0  0  0  0999 V2000
   -5.5827   -1.3473    1.4591 C   0  0  0  0  0  0  0  0  0  0  0  0
   -5.7053   -2.4696    0.9825 O   0  0  0  0  0  0  0  0  0  0  0  0
   -6.7879   -0.6277    1.9670 C   0  0  0  0  0  0  0  0  0  0  0  0
   -7.2718   -0.0164    1.1885 H   0  0  0  0  0  0  0  0  0  0  0  0
   -7.5699   -1.3171    2.3239 H   0  0  0  0  0  0  0  0  0  0  0  0
   -6.6057    0.0628    2.8060 H   0  0  0  0  0  0  0  0  0  0  0  0
   -4.4001   -0.6377    1.5884 N   0  0  0  0  0  0  0  0  0  0  0  0
   -3.1220   -1.1455    1.1644 C   0  0  2  0  0  0  0  0  0  0  0  0
   -2.2017    0.0428    0.9187 C   0  0  0  0  0  0  0  0  0  0  0  0
   -2.6171    1.1750    0.6807 O   0  0  0  0  0  0  0  0  0  0  0  0
   -3.2533   -1.9992   -0.0873 C   0  0  0  0  0  0  0  0  0  0  0  0
   -4.4370    0.2910    2.0047 H   0  0  0  0  0  0  0  0  0  0  0  0
   -2.7302   -1.7467    1.9921 H   0  0  0  0  0  0  0  0  0  0  0  0
   -3.6446   -1.4140   -0.9275 H   0  0  0  0  0  0  0  0  0  0  0  0
   -2.2844   -2.4081   -0.3922 H   0  0  0  0  0  0  0  0  0  0  0  0
   -3.9388   -2.8365    0.0822 H   0  0  0  0  0  0  0  0  0  0  0  0
   -0.8768   -0.3314    0.9568 N   0  0  0  0  0  0  0  0  0  0  0  0
    0.2067    0.6285    0.7375 C   0  0  2  0  0  0  0  0  0  0  0  0
    1.5091   -0.1570    0.8575 C   0  0  0  0  0  0  0  0  0  0  0  0
    2.1981   -0.4470   -0.1185 O   0  0  0  0  0  0  0  0  0  0  0  0
    0.1062    1.7536    1.7784 C   0  0  0  0  0  0  0  0  0  0  0  0
   -1.1324    2.6335    1.6106 C   0  0  0  0  0  0  0  0  0  0  0  0
   -1.2070    3.7097    2.6648 C   0  0  0  0  0  0  0  0  0  0  0  0
   -0.4429    3.7834    3.6187 O   0  0  0  0  0  0  0  0  0  0  0  0
   -2.2289    4.5773    2.4613 O   0  0  0  0  0  0  0  0  0  0  0  0
   -0.6087   -1.2764    1.1771 H   0  0  0  0  0  0  0  0  0  0  0  0
    0.1018    1.0442   -0.2700 H   0  0  0  0  0  0  0  0  0  0  0  0
    0.0978    1.3148    2.7851 H   0  0  0  0  0  0  0  0  0  0  0  0
    0.9933    2.3984    1.7252 H   0  0  0  0  0  0  0  0  0  0  0  0
   -1.0946    3.1424    0.6396 H   0  0  0  0  0  0  0  0  0  0  0  0
   -2.0549    2.0439    1.5968 H   0  0  0  0  0  0  0  0  0  0  0  0
   -2.3242    5.2829    3.1358 H   0  0  0  0  0  0  0  0  0  0  0  0
    1.8206   -0.4661    2.1733 N   0  0  0  0  0  0  0  0  0  0  0  0
    3.0034   -1.2037    2.5548 C   0  0  2  0  0  0  0  0  0  0  0  0
    2.6267   -2.6757    2.6583 C   0  0  0  0  0  0  0  0  0  0  0  0
    1.4739   -3.0619    2.8400 O   0  0  0  0  0  0  0  0  0  0  0  0
    3.5728   -0.6947    3.8699 C   0  0  0  0  0  0  0  0  0  0  0  0
    1.1864   -0.1589    2.9046 H   0  0  0  0  0  0  0  0  0  0  0  0
    3.7338   -1.0688    1.7496 H   0  0  0  0  0  0  0  0  0  0  0  0
    2.8552   -0.8215    4.6886 H   0  0  0  0  0  0  0  0  0  0  0  0
    4.4849   -1.2354    4.1431 H   0  0  0  0  0  0  0  0  0  0  0  0
    3.8155    0.3714    3.8029 H   0  0  0  0  0  0  0  0  0  0  0  0
    3.7352   -3.5058    2.5670 N   0  0  0  0  0  0  0  0  0  0  0  0
    3.6406   -4.9447    2.6493 C   0  0  0  0  0  0  0  0  0  0  0  0
    4.6507   -3.1000    2.3974 H   0  0  0  0  0  0  0  0  0  0  0  0
    3.7848   -5.2630    3.6923 H   0  0  0  0  0  0  0  0  0  0  0  0
    2.6482   -5.2673    2.3015 H   0  0  0  0  0  0  0  0  0  0  0  0
    4.4167   -5.3998    2.0165 H   0  0  0  0  0  0  0  0  0  0  0  0
  1  3  1  0  0  0  0
  1  7  1  0  0  0  0
  1  2  2  0  0  0  0
 34 35  1  0  0  0  0
 35 43  1  0  0  0  0
 35 36  2  0  0  0  0
  8  9  1  0  0  0  0
  9 17  1  0  0  0  0
  9 10  2  0  0  0  0
 18 19  1  0  0  0  0
 19 33  1  0  0  0  0
 19 20  2  0  0  0  0
 22 23  1  0  0  0  0
 23 24  2  0  0  0  0
 23 25  1  0  0  0  0
 34 37  1  0  0  0  0
  8 11  1  0  0  0  0
 43 44  1  0  0  0  0
 21 22  1  0  0  0  0
 18 21  1  0  0  0  0
 33 34  1  0  0  0  0
  7  8  1  0  0  0  0
 17 18  1  0  0  0  0
  3  4  1  0  0  0  0
  3  5  1  0  0  0  0
  3  6  1  0  0  0  0
 37 40  1  0  0  0  0
 37 41  1  0  0  0  0
 37 42  1  0  0  0  0
 11 14  1  0  0  0  0
 11 15  1  0  0  0  0
 11 16  1  0  0  0  0
 44 46  1  0  0  0  0
 44 47  1  0  0  0  0
 44 48  1  0  0  0  0
 22 30  1  0  0  0  0
 22 31  1  0  0  0  0
 21 28  1  0  0  0  0
 21 29  1  0  0  0  0
 34 39  1  0  0  0  0
  8 13  1  0  0  0  0
 18 27  1  0  0  0  0
 43 45  1  0  0  0  0
  7 12  1  0  0  0  0
 33 38  1  0  0  0  0
 17 26  1  0  0  0  0
 25 32  1  0  0  0  0
M  END
$$$$

  -OEChem-05262214473D

 48 47  0     1  0  0  0  0  0999 V2000
   -5.5827   -1.3473    1.4591 C   0  0  0  0  0  0  0  0  0  0  0  0
   -5.7053   -2.4696    0.9825 O   0  0  0  0  0  0  0  0  0  0  0  0
   -6.7879   -0.6277    1.9670 C   0  0  0  0  0  0  0  0  0  0  0  0
   -7.2718   -0.0164    1.1885 H   0  0  0  0  0  0  0  0  0  0  0  0
   -7.5699   -1.3171    2.3239 H   0  0  0  0  0  0  0  0  0  0  0  0
   -6.6057    0.0628    2.8060 H   0  0  0  0  0  0  0  0  0  0  0  0
   -4.4001   -0.6377    1.5884 N   0  0  0  0  0  0  0  0  0  0  0  0
   -3.1220   -1.1455    1.1644 C   0  0  2  0  0  0  0  0  0  0  0  0
   -2.2017    0.0428    0.9187 C   0  0  0  0  0  0  0  0  0  0  0  0
   -2.6171    1.1750    0.6807 O   0  0  0  0  0  0  0  0  0  0  0  0
   -3.2533   -1.9992   -0.0873 C   0  0  0  0  0  0  0  0  0  0  0  0
   -4.4370    0.2910    2.0047 H   0  0  0  0  0  0  0  0  0  0  0  0
   -2.7302   -1.7467    1.9921 H   0  0  0  0  0  0  0  0  0  0  0  0
   -3.6446   -1.4140   -0.9275 H   0  0  0  0  0  0  0  0  0  0  0  0
   -2.2844   -2.4081   -0.3922 H   0  0  0  0  0  0  0  0  0  0  0  0
   -3.9388   -2.8365    0.0822 H   0  0  0  0  0  0  0  0  0  0  0  0
   -0.8768   -0.3314    0.9568 N   0  0  0  0  0  0  0  0  0  0  0  0
    0.2067    0.6285    0.7375 C   0  0  2  0  0  0  0  0  0  0  0  0
    1.5091   -0.1570    0.8575 C   0  0  0  0  0  0  0  0  0  0  0  0
    2.3298   -0.2191   -0.0557 O   0  0  0  0  0  0  0  0  0  0  0  0
    0.1062    1.7536    1.7784 C   0  0  0  0  0  0  0  0  0  0  0  0
   -1.1324    2.6335    1.6106 C   0  0  0  0  0  0  0  0  0  0  0  0
   -1.2070    3.7097    2.6648 C   0  0  0  0  0  0  0  0  0  0  0  0
   -0.4429    3.7834    3.6187 O   0  0  0  0  0  0  0  0  0  0  0  0
   -2.2289    4.5773    2.4613 O   0  0  0  0  0  0  0  0  0  0  0  0
   -0.6087   -1.2764    1.1771 H   0  0  0  0  0  0  0  0  0  0  0  0
    0.1018    1.0442   -0.2700 H   0  0  0  0  0  0  0  0  0  0  0  0
    0.0978    1.3148    2.7851 H   0  0  0  0  0  0  0  0  0  0  0  0
    0.9933    2.3984    1.7252 H   0  0  0  0  0  0  0  0  0  0  0  0
   -1.0946    3.1424    0.6396 H   0  0  0  0  0  0  0  0  0  0  0  0
   -2.0549    2.0439    1.5968 H   0  0  0  0  0  0  0  0  0  0  0  0
   -2.3242    5.2829    3.1358 H   0  0  0  0  0  0  0  0  0  0  0  0
    1.6564   -0.7492    2.1031 N   0  0  0  0  0  0  0  0  0  0  0  0
    2.8043   -1.5468    2.4701 C   0  0  2  0  0  0  0  0  0  0  0  0
    2.4695   -3.0070    2.1958 C   0  0  0  0  0  0  0  0  0  0  0  0
    1.3172   -3.4301    2.1303 O   0  0  0  0  0  0  0  0  0  0  0  0
    3.1782   -1.3398    3.9296 C   0  0  0  0  0  0  0  0  0  0  0  0
    0.9214   -0.6157    2.7911 H   0  0  0  0  0  0  0  0  0  0  0  0
    3.6286   -1.2323    1.8207 H   0  0  0  0  0  0  0  0  0  0  0  0
    2.3644   -1.6494    4.5955 H   0  0  0  0  0  0  0  0  0  0  0  0
    4.0652   -1.9228    4.1985 H   0  0  0  0  0  0  0  0  0  0  0  0
    3.3897   -0.2843    4.1318 H   0  0  0  0  0  0  0  0  0  0  0  0
    3.6090   -3.7900    2.0756 N   0  0  0  0  0  0  0  0  0  0  0  0
    3.5554   -5.2117    1.8264 C   0  0  0  0  0  0  0  0  0  0  0  0
    4.5240   -3.3517    2.1250 H   0  0  0  0  0  0  0  0  0  0  0  0
    3.5729   -5.7532    2.7837 H   0  0  0  0  0  0  0  0  0  0  0  0
    2.6291   -5.4542    1.2850 H   0  0  0  0  0  0  0  0  0  0  0  0
    4.4233   -5.5106    1.2203 H   0  0  0  0  0  0  0  0  0  0  0  0
  1  3  1  0  0  0  0
  1  7  1  0  0  0  0
  1  2  2  0  0  0  0
 34 35  1  0  0  0  0
 35 43  1  0  0  0  0
 35 36  2  0  0  0  0
  8  9  1  0  0  0  0
  9 17  1  0  0  0  0
  9 10  2  0  0  0  0
 18 19  1  0  0  0  0
 19 33  1  0  0  0  0
 19 20  2  0  0  0  0
 22 23  1  0  0  0  0
 23 24  2  0  0  0  0
 23 25  1  0  0  0  0
 34 37  1  0  0  0  0
  8 11  1  0  0  0  0
 43 44  1  0  0  0  0
 21 22  1  0  0  0  0
 18 21  1  0  0  0  0
 33 34  1  0  0  0  0
  7  8  1  0  0  0  0
 17 18  1  0  0  0  0
  3  4  1  0  0  0  0
  3  5  1  0  0  0  0
  3  6  1  0  0  0  0
 37 40  1  0  0  0  0
 37 41  1  0  0  0  0
 37 42  1  0  0  0  0
 11 14  1  0  0  0  0
 11 15  1  0  0  0  0
 11 16  1  0  0  0  0
 44 46  1  0  0  0  0
 44 47  1  0  0  0  0
 44 48  1  0  0  0  0
 22 30  1  0  0  0  0
 22 31  1  0  0  0  0
 21 28  1  0  0  0  0
 21 29  1  0  0  0  0
 34 39  1  0  0  0  0
  8 13  1  0  0  0  0
 18 27  1  0  0  0  0
 43 45  1  0  0  0  0
  7 12  1  0  0  0  0
 33 38  1  0  0  0  0
 17 26  1  0  0  0  0
 25 32  1  0  0  0  0
M  END
$$$$

  -OEChem-05262214473D

 48 47  0     1  0  0  0  0  0999 V2000
   -5.5827   -1.3473    1.4591 C   0  0  0  0  0  0  0  0  0  0  0  0
   -5.7053   -2.4696    0.9825 O   0  0  0  0  0  0  0  0  0  0  0  0
   -6.7879   -0.6277    1.9670 C   0  0  0  0  0  0  0  0  0  0  0  0
   -7.2718   -0.0164    1.1885 H   0  0  0  0  0  0  0  0  0  0  0  0
   -7.5699   -1.3171    2.3239 H   0  0  0  0  0  0  0  0  0  0  0  0
   -6.6057    0.0628    2.8060 H   0  0  0  0  0  0  0  0  0  0  0  0
   -4.4001   -0.6377    1.5884 N   0  0  0  0  0  0  0  0  0  0  0  0
   -3.1220   -1.1455    1.1644 C   0  0  2  0  0  0  0  0  0  0  0  0
   -2.2017    0.0428    0.9187 C   0  0  0  0  0  0  0  0  0  0  0  0
   -2.6171    1.1750    0.6807 O   0  0  0  0  0  0  0  0  0  0  0  0
   -3.2533   -1.9992   -0.0873 C   0  0  0  0  0  0  0  0  0  0  0  0
   -4.4370    0.2910    2.0047 H   0  0  0  0  0  0  0  0  0  0  0  0
   -2.7302   -1.7467    1.9921 H   0  0  0  0  0  0  0  0  0  0  0  0
   -3.6446   -1.4140   -0.9275 H   0  0  0  0  0  0  0  0  0  0  0  0
   -2.2844   -2.4081   -0.3922 H   0  0  0  0  0  0  0  0  0  0  0  0
   -3.9388   -2.8365    0.0822 H   0  0  0  0  0  0  0  0  0  0  0  0
   -0.8768   -0.3314    0.9568 N   0  0  0  0  0  0  0  0  0  0  0  0
    0.2067    0.6285    0.7375 C   0  0  2  0  0  0  0  0  0  0  0  0
    1.5091   -0.1570    0.8575 C   0  0  0  0  0  0  0  0  0  0  0  0
    2.4440   -0.0101    0.0728 O   0  0  0  0  0  0  0  0  0  0  0  0
    0.1062    1.7536    1.7784 C   0  0  0  0  0  0  0  0  0  0  0  0
   -1.1324    2.6335    1.6106 C   0  0  0  0  0  0  0  0  0  0  0  0
   -1.2070    3.7097    2.6648 C   0  0  0  0  0  0  0  0  0  0  0  0
   -0.4429    3.7834    3.6187 O   0  0  0  0  0  0  0  0  0  0  0  0
   -2.2289    4.5773    2.4613 O   0  0  0  0  0  0  0  0  0  0  0  0
   -0.6087   -1.2764    1.1771 H   0  0  0  0  0  0  0  0  0  0  0  0
    0.1018    1.0442   -0.2700 H   0  0  0  0  0  0  0  0  0  0  0  0
    0.0978    1.3148    2.7851 H   0  0  0  0  0  0  0  0  0  0  0  0
    0.9933    2.3984    1.7252 H   0  0  0  0  0  0  0  0  0  0  0  0
   -1.0946    3.1424    0.6396 H   0  0  0  0  0  0  0  0  0  0  0  0
   -2.0549    2.0439    1.5968 H   0  0  0  0  0  0  0  0  0  0  0  0
   -2.3242    5.2829    3.1358 H   0  0  0  0  0  0  0  0  0  0  0  0
    1.5128   -1.0105    1.9509 N   0  0  0  0  0  0  0  0  0  0  0  0
    2.6302   -1.8636    2.2859 C   0  0  2  0  0  0  0  0  0  0  0  0
    2.3860   -3.2280    1.6549 C   0  0  0  0  0  0  0  0  0  0  0  0
    1.2679   -3.6321    1.3425 O   0  0  0  0  0  0  0  0  0  0  0  0
    2.8022   -1.9842    3.7921 C   0  0  0  0  0  0  0  0  0  0  0  0
    0.6898   -1.0372    2.5452 H   0  0  0  0  0  0  0  0  0  0  0  0
    3.5208   -1.4081    1.8393 H   0  0  0  0  0  0  0  0  0  0  0  0
    1.9197   -2.4384    4.2572 H   0  0  0  0  0  0  0  0  0  0  0  0
    3.6664   -2.6076    4.0441 H   0  0  0  0  0  0  0  0  0  0  0  0
    2.9480   -0.9989    4.2479 H   0  0  0  0  0  0  0  0  0  0  0  0
    3.5585   -3.9586    1.5213 N   0  0  0  0  0  0  0  0  0  0  0  0
    3.5882   -5.2895    0.9612 C   0  0  0  0  0  0  0  0  0  0  0  0
    4.4430   -3.5373    1.7893 H   0  0  0  0  0  0  0  0  0  0  0  0
    3.4993   -6.0302    1.7695 H   0  0  0  0  0  0  0  0  0  0  0  0
    2.7499   -5.4106    0.2593 H   0  0  0  0  0  0  0  0  0  0  0  0
    4.5380   -5.4415    0.4276 H   0  0  0  0  0  0  0  0  0  0  0  0
  1  3  1  0  0  0  0
  1  7  1  0  0  0  0
  1  2  2  0  0  0  0
 34 35  1  0  0  0  0
 35 43  1  0  0  0  0
 35 36  2  0  0  0  0
  8  9  1  0  0  0  0
  9 17  1  0  0  0  0
  9 10  2  0  0  0  0
 18 19  1  0  0  0  0
 19 33  1  0  0  0  0
 19 20  2  0  0  0  0
 22 23  1  0  0  0  0
 23 24  2  0  0  0  0
 23 25  1  0  0  0  0
 34 37  1  0  0  0  0
  8 11  1  0  0  0  0
 43 44  1  0  0  0  0
 21 22  1  0  0  0  0
 18 21  1  0  0  0  0
 33 34  1  0  0  0  0
  7  8  1  0  0  0  0
 17 18  1  0  0  0  0
  3  4  1  0  0  0  0
  3  5  1  0  0  0  0
  3  6  1  0  0  0  0
 37 40  1  0  0  0  0
 37 41  1  0  0  0  0
 37 42  1  0  0  0  0
 11 14  1  0  0  0  0
 11 15  1  0  0  0  0
 11 16  1  0  0  0  0
 44 46  1  0  0  0  0
 44 47  1  0  0  0  0
 44 48  1  0  0  0  0
 22 30  1  0  0  0  0
 22 31  1  0  0  0  0
 21 28  1  0  0  0  0
 21 29  1  0  0  0  0
 34 39  1  0  0  0  0
  8 13  1  0  0  0  0
 18 27  1  0  0  0  0
 43 45  1  0  0  0  0
  7 12  1  0  0  0  0
 33 38  1  0  0  0  0
 17 26  1  0  0  0  0
 25 32  1  0  0  0  0
M  END
$$$$

  -OEChem-05262214473D

 48 47  0     1  0  0  0  0  0999 V2000
   -5.5827   -1.3473    1.4591 C   0  0  0  0  0  0  0  0  0  0  0  0
   -5.7053   -2.4696    0.9825 O   0  0  0  0  0  0  0  0  0  0  0  0
   -6.7879   -0.6277    1.9670 C   0  0  0  0  0  0  0  0  0  0  0  0
   -7.2718   -0.0164    1.1885 H   0  0  0  0  0  0  0  0  0  0  0  0
   -7.5699   -1.3171    2.3239 H   0  0  0  0  0  0  0  0  0  0  0  0
   -6.6057    0.0628    2.8060 H   0  0  0  0  0  0  0  0  0  0  0  0
   -4.4001   -0.6377    1.5884 N   0  0  0  0  0  0  0  0  0  0  0  0
   -3.1220   -1.1455    1.1644 C   0  0  2  0  0  0  0  0  0  0  0  0
   -2.2017    0.0428    0.9187 C   0  0  0  0  0  0  0  0  0  0  0  0
   -2.6171    1.1750    0.6807 O   0  0  0  0  0  0  0  0  0  0  0  0
   -3.2533   -1.9992   -0.0873 C   0  0  0  0  0  0  0  0  0  0  0  0
   -4.4370    0.2910    2.0047 H   0  0  0  0  0  0  0  0  0  0  0  0
   -2.7302   -1.7467    1.9921 H   0  0  0  0  0  0  0  0  0  0  0  0
   -3.6446   -1.4140   -0.9275 H   0  0  0  0  0  0  0  0  0  0  0  0
   -2.2844   -2.4081   -0.3922 H   0  0  0  0  0  0  0  0  0  0  0  0
   -3.9388   -2.8365    0.0822 H   0  0  0  0  0  0  0  0  0  0  0  0
   -0.8768   -0.3314    0.9568 N   0  0  0  0  0  0  0  0  0  0  0  0
    0.2067    0.6285    0.7375 C   0  0  2  0  0  0  0  0  0  0  0  0
    1.5091   -0.1570    0.8575 C   0  0  0  0  0  0  0  0  0  0  0  0
    2.5329    0.1657    0.2584 O   0  0  0  0  0  0  0  0  0  0  0  0
    0.1062    1.7536    1.7784 C   0  0  0  0  0  0  0  0  0  0  0  0
   -1.1324    2.6335    1.6106 C   0  0  0  0  0  0  0  0  0  0  0  0
   -1.2070    3.7097    2.6648 C   0  0  0  0  0  0  0  0  0  0  0  0
   -0.4429    3.7834    3.6187 O   0  0  0  0  0  0  0  0  0  0  0  0
   -2.2289    4.5773    2.4613 O   0  0  0  0  0  0  0  0  0  0  0  0
   -0.6087   -1.2764    1.1771 H   0  0  0  0  0  0  0  0  0  0  0  0
    0.1018    1.0442   -0.2700 H   0  0  0  0  0  0  0  0  0  0  0  0
    0.0978    1.3148    2.7851 H   0  0  0  0  0  0  0  0  0  0  0  0
    0.9933    2.3984    1.7252 H   0  0  0  0  0  0  0  0  0  0  0  0
   -1.0946    3.1424    0.6396 H   0  0  0  0  0  0  0  0  0  0  0  0
   -2.0549    2.0439    1.5968 H   0  0  0  0  0  0  0  0  0  0  0  0
   -2.3242    5.2829    3.1358 H   0  0  0  0  0  0  0  0  0  0  0  0
    1.3997   -1.2322    1.7270 N   0  0  0  0  0  0  0  0  0  0  0  0
    2.4931   -2.1323    2.0148 C   0  0  2  0  0  0  0  0  0  0  0  0
    2.3820   -3.3236    1.0725 C   0  0  0  0  0  0  0  0  0  0  0  0
    1.3294   -3.6542    0.5304 O   0  0  0  0  0  0  0  0  0  0  0  0
    2.4705   -2.5839    3.4668 C   0  0  0  0  0  0  0  0  0  0  0  0
    0.5074   -1.3948    2.1838 H   0  0  0  0  0  0  0  0  0  0  0  0
    3.4179   -1.5842    1.8041 H   0  0  0  0  0  0  0  0  0  0  0  0
    1.5513   -3.1349    3.6968 H   0  0  0  0  0  0  0  0  0  0  0  0
    3.3157   -3.2431    3.6905 H   0  0  0  0  0  0  0  0  0  0  0  0
    2.5204   -1.7238    4.1432 H   0  0  0  0  0  0  0  0  0  0  0  0
    3.5869   -3.9999    0.9419 N   0  0  0  0  0  0  0  0  0  0  0  0
    3.7368   -5.1728    0.1126 C   0  0  0  0  0  0  0  0  0  0  0  0
    4.4133   -3.6440    1.4132 H   0  0  0  0  0  0  0  0  0  0  0  0
    3.5690   -6.0751    0.7189 H   0  0  0  0  0  0  0  0  0  0  0  0
    3.0024   -5.1393   -0.7057 H   0  0  0  0  0  0  0  0  0  0  0  0
    4.7531   -5.1972   -0.3076 H   0  0  0  0  0  0  0  0  0  0  0  0
  1  3  1  0  0  0  0
  1  7  1  0  0  0  0
  1  2  2  0  0  0  0
 34 35  1  0  0  0  0
 35 43  1  0  0  0  0
 35 36  2  0  0  0  0
  8  9  1  0  0  0  0
  9 17  1  0  0  0  0
  9 10  2  0  0  0  0
 18 19  1  0  0  0  0
 19 33  1  0  0  0  0
 19 20  2  0  0  0  0
 22 23  1  0  0  0  0
 23 24  2  0  0  0  0
 23 25  1  0  0  0  0
 34 37  1  0  0  0  0
  8 11  1  0  0  0  0
 43 44  1  0  0  0  0
 21 22  1  0  0  0  0
 18 21  1  0  0  0  0
 33 34  1  0  0  0  0
  7  8  1  0  0  0  0
 17 18  1  0  0  0  0
  3  4  1  0  0  0  0
  3  5  1  0  0  0  0
  3  6  1  0  0  0  0
 37 40  1  0  0  0  0
 37 41  1  0  0  0  0
 37 42  1  0  0  0  0
 11 14  1  0  0  0  0
 11 15  1  0  0  0  0
 11 16  1  0  0  0  0
 44 46  1  0  0  0  0
 44 47  1  0  0  0  0
 44 48  1  0  0  0  0
 22 30  1  0  0  0  0
 22 31  1  0  0  0  0
 21 28  1  0  0  0  0
 21 29  1  0  0  0  0
 34 39  1  0  0  0  0
  8 13  1  0  0  0  0
 18 27  1  0  0  0  0
 43 45  1  0  0  0  0
  7 12  1  0  0  0  0
 33 38  1  0  0  0  0
 17 26  1  0  0  0  0
 25 32  1  0  0  0  0
M  END
$$$$

  -OEChem-05262214473D

 48 47  0     1  0  0  0  0  0999 V2000
   -5.5827   -1.3473    1.4591 C   0  0  0  0  0  0  0  0  0  0  0  0
   -5.7053   -2.4696    0.9825 O   0  0  0  0  0  0  0  0  0  0  0  0
   -6.7879   -0.6277    1.9670 C   0  0  0  0  0  0  0  0  0  0  0  0
   -7.2718   -0.0164    1.1885 H   0  0  0  0  0  0  0  0  0  0  0  0
   -7.5699   -1.3171    2.3239 H   0  0  0  0  0  0  0  0  0  0  0  0
   -6.6057    0.0628    2.8060 H   0  0  0  0  0  0  0  0  0  0  0  0
   -4.4001   -0.6377    1.5884 N   0  0  0  0  0  0  0  0  0  0  0  0
   -3.1220   -1.1455    1.1644 C   0  0  2  0  0  0  0  0  0  0  0  0
   -2.2017    0.0428    0.9187 C   0  0  0  0  0  0  0  0  0  0  0  0
   -2.6171    1.1750    0.6807 O   0  0  0  0  0  0  0  0  0  0  0  0
   -3.2533   -1.9992   -0.0873 C   0  0  0  0  0  0  0  0  0  0  0  0
   -4.4370    0.2910    2.0047 H   0  0  0  0  0  0  0  0  0  0  0  0
   -2.7302   -1.7467    1.9921 H   0  0  0  0  0  0  0  0  0  0  0  0
   -3.6446   -1.4140   -0.9275 H   0  0  0  0  0  0  0  0  0  0  0  0
   -2.2844   -2.4081   -0.3922 H   0  0  0  0  0  0  0  0  0  0  0  0
   -3.9388   -2.8365    0.0822 H   0  0  0  0  0  0  0  0  0  0  0  0
   -0.8768   -0.3314    0.9568 N   0  0  0  0  0  0  0  0  0  0  0  0
    0.2067    0.6285    0.7375 C   0  0  2  0  0  0  0  0  0  0  0  0
    1.5091   -0.1570    0.8575 C   0  0  0  0  0  0  0  0  0  0  0  0
    2.5905    0.2964    0.4883 O   0  0  0  0  0  0  0  0  0  0  0  0
    0.1062    1.7536    1.7784 C   0  0  0  0  0  0  0  0  0  0  0  0
   -1.1324    2.6335    1.6106 C   0  0  0  0  0  0  0  0  0  0  0  0
   -1.2070    3.7097    2.6648 C   0  0  0  0  0  0  0  0  0  0  0  0
   -0.4429    3.7834    3.6187 O   0  0  0  0  0  0  0  0  0  0  0  0
   -2.2289    4.5773    2.4613 O   0  0  0  0  0  0  0  0  0  0  0  0
   -0.6087   -1.2764    1.1771 H   0  0  0  0  0  0  0  0  0  0  0  0
    0.1018    1.0442   -0.2700 H   0  0  0  0  0  0  0  0  0  0  0  0
    0.0978    1.3148    2.7851 H   0  0  0  0  0  0  0  0  0  0  0  0
    0.9933    2.3984    1.7252 H   0  0  0  0  0  0  0  0  0  0  0  0
   -1.0946    3.1424    0.6396 H   0  0  0  0  0  0  0  0  0  0  0  0
   -2.0549    2.0439    1.5968 H   0  0  0  0  0  0  0  0  0  0  0  0
   -2.3242    5.2829    3.1358 H   0  0  0  0  0  0  0  0  0  0  0  0
    1.3248   -1.3991    1.4466 N   0  0  0  0  0  0  0  0  0  0  0  0
    2.4022   -2.3349    1.6753 C   0  0  2  0  0  0  0  0  0  0  0  0
    2.4577   -3.2874    0.4883 C   0  0  0  0  0  0  0  0  0  0  0  0
    1.4975   -3.4949   -0.2507 O   0  0  0  0  0  0  0  0  0  0  0  0
    2.2056   -3.0980    2.9759 C   0  0  0  0  0  0  0  0  0  0  0  0
    0.3867   -1.6641    1.7313 H   0  0  0  0  0  0  0  0  0  0  0  0
    3.3267   -1.7487    1.7174 H   0  0  0  0  0  0  0  0  0  0  0  0
    1.2842   -3.6913    2.9525 H   0  0  0  0  0  0  0  0  0  0  0  0
    3.0370   -3.7859    3.1619 H   0  0  0  0  0  0  0  0  0  0  0  0
    2.1361   -2.4096    3.8251 H   0  0  0  0  0  0  0  0  0  0  0  0
    3.6924   -3.9113    0.3770 N   0  0  0  0  0  0  0  0  0  0  0  0
    3.9910   -4.8696   -0.6615 C   0  0  0  0  0  0  0  0  0  0  0  0
    4.4369   -3.6646    1.0225 H   0  0  0  0  0  0  0  0  0  0  0  0
    3.7772   -5.8850   -0.2966 H   0  0  0  0  0  0  0  0  0  0  0  0
    3.3694   -4.6590   -1.5443 H   0  0  0  0  0  0  0  0  0  0  0  0
    5.0538   -4.7945   -0.9350 H   0  0  0  0  0  0  0  0  0  0  0  0
  1  3  1  0  0  0  0
  1  7  1  0  0  0  0
  1  2  2  0  0  0  0
 34 35  1  0  0  0  0
 35 43  1  0  0  0  0
 35 36  2  0  0  0  0
  8  9  1  0  0  0  0
  9 17  1  0  0  0  0
  9 10  2  0  0  0  0
 18 19  1  0  0  0  0
 19 33  1  0  0  0  0
 19 20  2  0  0  0  0
 22 23  1  0  0  0  0
 23 24  2  0  0  0  0
 23 25  1  0  0  0  0
 34 37  1  0  0  0  0
  8 11  1  0  0  0  0
 43 44  1  0  0  0  0
 21 22  1  0  0  0  0
 18 21  1  0  0  0  0
 33 34  1  0  0  0  0
  7  8  1  0  0  0  0
 17 18  1  0  0  0  0
  3  4  1  0  0  0  0
  3  5  1  0  0  0  0
  3  6  1  0  0  0  0
 37 40  1  0  0  0  0
 37 41  1  0  0  0  0
 37 42  1  0  0  0  0
 11 14  1  0  0  0  0
 11 15  1  0  0  0  0
 11 16  1  0  0  0  0
 44 46  1  0  0  0  0
 44 47  1  0  0  0  0
 44 48  1  0  0  0  0
 22 30  1  0  0  0  0
 22 31  1  0  0  0  0
 21 28  1  0  0  0  0
 21 29  1  0  0  0  0
 34 39  1  0  0  0  0
  8 13  1  0  0  0  0
 18 27  1  0  0  0  0
 43 45  1  0  0  0  0
  7 12  1  0  0  0  0
 33 38  1  0  0  0  0
 17 26  1  0  0  0  0
 25 32  1  0  0  0  0
M  END
$$$$

  -OEChem-05262214473D

 48 47  0     1  0  0  0  0  0999 V2000
   -5.5827   -1.3473    1.4591 C   0  0  0  0  0  0  0  0  0  0  0  0
   -5.7053   -2.4696    0.9825 O   0  0  0  0  0  0  0  0  0  0  0  0
   -6.7879   -0.6277    1.9670 C   0  0  0  0  0  0  0  0  0  0  0  0
   -7.2718   -0.0164    1.1885 H   0  0  0  0  0  0  0  0  0  0  0  0
   -7.5699   -1.3171    2.3239 H   0  0  0  0  0  0  0  0  0  0  0  0
   -6.6057    0.0628    2.8060 H   0  0  0  0  0  0  0  0  0  0  0  0
   -4.4001   -0.6377    1.5884 N   0  0  0  0  0  0  0  0  0  0  0  0
   -3.1220   -1.1455    1.1644 C   0  0  2  0  0  0  0  0  0  0  0  0
   -2.2017    0.0428    0.9187 C   0  0  0  0  0  0  0  0  0  0  0  0
   -2.6171    1.1750    0.6807 O   0  0  0  0  0  0  0  0  0  0  0  0
   -3.2533   -1.9992   -0.0873 C   0  0  0  0  0  0  0  0  0  0  0  0
   -4.4370    0.2910    2.0047 H   0  0  0  0  0  0  0  0  0  0  0  0
   -2.7302   -1.7467    1.9921 H   0  0  0  0  0  0  0  0  0  0  0  0
   -3.6446   -1.4140   -0.9275 H   0  0  0  0  0  0  0  0  0  0  0  0
   -2.2844   -2.4081   -0.3922 H   0  0  0  0  0  0  0  0  0  0  0  0
   -3.9388   -2.8365    0.0822 H   0  0  0  0  0  0  0  0  0  0  0  0
   -0.8768   -0.3314    0.9568 N   0  0  0  0  0  0  0  0  0  0  0  0
    0.2067    0.6285    0.7375 C   0  0  2  0  0  0  0  0  0  0  0  0
    1.5091   -0.1570    0.8575 C   0  0  0  0  0  0  0  0  0  0  0  0
    2.6129    0.3729    0.7469 O   0  0  0  0  0  0  0  0  0  0  0  0
    0.1062    1.7536    1.7784 C   0  0  0  0  0  0  0  0  0  0  0  0
   -1.1324    2.6335    1.6106 C   0  0  0  0  0  0  0  0  0  0  0  0
   -1.2070    3.7097    2.6648 C   0  0  0  0  0  0  0  0  0  0  0  0
   -0.4429    3.7834    3.6187 O   0  0  0  0  0  0  0  0  0  0  0  0
   -2.2289    4.5773    2.4613 O   0  0  0  0  0  0  0  0  0  0  0  0
   -0.6087   -1.2764    1.1771 H   0  0  0  0  0  0  0  0  0  0  0  0
    0.1018    1.0442   -0.2700 H   0  0  0  0  0  0  0  0  0  0  0  0
    0.0978    1.3148    2.7851 H   0  0  0  0  0  0  0  0  0  0  0  0
    0.9933    2.3984    1.7252 H   0  0  0  0  0  0  0  0  0  0  0  0
   -1.0946    3.1424    0.6396 H   0  0  0  0  0  0  0  0  0  0  0  0
   -2.0549    2.0439    1.5968 H   0  0  0  0  0  0  0  0  0  0  0  0
   -2.3242    5.2829    3.1358 H   0  0  0  0  0  0  0  0  0  0  0  0
    1.2933   -1.5000    1.1290 N   0  0  0  0  0  0  0  0  0  0  0  0
    2.3638   -2.4573    1.2905 C   0  0  2  0  0  0  0  0  0  0  0  0
    2.6079   -3.1219   -0.0580 C   0  0  0  0  0  0  0  0  0  0  0  0
    1.7607   -3.1650   -0.9476 O   0  0  0  0  0  0  0  0  0  0  0  0
    2.0256   -3.4916    2.3529 C   0  0  0  0  0  0  0  0  0  0  0  0
    0.3359   -1.8266    1.2187 H   0  0  0  0  0  0  0  0  0  0  0  0
    3.2535   -1.8902    1.5852 H   0  0  0  0  0  0  0  0  0  0  0  0
    1.1368   -4.0698    2.0751 H   0  0  0  0  0  0  0  0  0  0  0  0
    2.8493   -4.1992    2.4942 H   0  0  0  0  0  0  0  0  0  0  0  0
    1.8212   -3.0096    3.3150 H   0  0  0  0  0  0  0  0  0  0  0  0
    3.8679   -3.6987   -0.1351 N   0  0  0  0  0  0  0  0  0  0  0  0
    4.3335   -4.4005   -1.3084 C   0  0  0  0  0  0  0  0  0  0  0  0
    4.5122   -3.5977    0.6436 H   0  0  0  0  0  0  0  0  0  0  0  0
    4.1098   -5.4728   -1.2077 H   0  0  0  0  0  0  0  0  0  0  0  0
    3.8259   -4.0023   -2.1993 H   0  0  0  0  0  0  0  0  0  0  0  0
    5.4197   -4.2608   -1.4121 H   0  0  0  0  0  0  0  0  0  0  0  0
  1  3  1  0  0  0  0
  1  7  1  0  0  0  0
  1  2  2  0  0  0  0
 34 35  1  0  0  0  0
 35 43  1  0  0  0  0
 35 36  2  0  0  0  0
  8  9  1  0  0  0  0
  9 17  1  0  0  0  0
  9 10  2  0  0  0  0
 18 19  1  0  0  0  0
 19 33  1  0  0  0  0
 19 20  2  0  0  0  0
 22 23  1  0  0  0  0
 23 24  2  0  0  0  0
 23 25  1  0  0  0  0
 34 37  1  0  0  0  0
  8 11  1  0  0  0  0
 43 44  1  0  0  0  0
 21 22  1  0  0  0  0
 18 21  1  0  0  0  0
 33 34  1  0  0  0  0
  7  8  1  0  0  0  0
 17 18  1  0  0  0  0
  3  4  1  0  0  0  0
  3  5  1  0  0  0  0
  3  6  1  0  0  0  0
 37 40  1  0  0  0  0
 37 41  1  0  0  0  0
 37 42  1  0  0  0  0
 11 14  1  0  0  0  0
 11 15  1  0  0  0  0
 11 16  1  0  0  0  0
 44 46  1  0  0  0  0
 44 47  1  0  0  0  0
 44 48  1  0  0  0  0
 22 30  1  0  0  0  0
 22 31  1  0  0  0  0
 21 28  1  0  0  0  0
 21 29  1  0  0  0  0
 34 39  1  0  0  0  0
  8 13  1  0  0  0  0
 18 27  1  0  0  0  0
 43 45  1  0  0  0  0
  7 12  1  0  0  0  0
 33 38  1  0  0  0  0
 17 26  1  0  0  0  0
 25 32  1  0  0  0  0
M  END
$$$$

  -OEChem-05262214473D

 48 47  0     1  0  0  0  0  0999 V2000
   -5.5827   -1.3473    1.4591 C   0  0  0  0  0  0  0  0  0  0  0  0
   -5.7053   -2.4696    0.9825 O   0  0  0  0  0  0  0  0  0  0  0  0
   -6.7879   -0.6277    1.9670 C   0  0  0  0  0  0  0  0  0  0  0  0
   -7.2718   -0.0164    1.1885 H   0  0  0  0  0  0  0  0  0  0  0  0
   -7.5699   -1.3171    2.3239 H   0  0  0  0  0  0  0  0  0  0  0  0
   -6.6057    0.0628    2.8060 H   0  0  0  0  0  0  0  0  0  0  0  0
   -4.4001   -0.6377    1.5884 N   0  0  0  0  0  0  0  0  0  0  0  0
   -3.1220   -1.1455    1.1644 C   0  0  2  0  0  0  0  0  0  0  0  0
   -2.2017    0.0428    0.9187 C   0  0  0  0  0  0  0  0  0  0  0  0
   -2.6171    1.1750    0.6807 O   0  0  0  0  0  0  0  0  0  0  0  0
   -3.2533   -1.9992   -0.0873 C   0  0  0  0  0  0  0  0  0  0  0  0
   -4.4370    0.2910    2.0047 H   0  0  0  0  0  0  0  0  0  0  0  0
   -2.7302   -1.7467    1.9921 H   0  0  0  0  0  0  0  0  0  0  0  0
   -3.6446   -1.4140   -0.9275 H   0  0  0  0  0  0  0  0  0  0  0  0
   -2.2844   -2.4081   -0.3922 H   0  0  0  0  0  0  0  0  0  0  0  0
   -3.9388   -2.8365    0.0822 H   0  0  0  0  0  0  0  0  0  0  0  0
   -0.8768   -0.3314    0.9568 N   0  0  0  0  0  0  0  0  0  0  0  0
    0.2067    0.6285    0.7375 C   0  0  2  0  0  0  0  0  0  0  0  0
    1.5091   -0.1570    0.8575 C   0  0  0  0  0  0  0  0  0  0  0  0
    2.5984    0.3902    1.0166 O   0  0  0  0  0  0  0  0  0  0  0  0
    0.1062    1.7536    1.7784 C   0  0  0  0  0  0  0  0  0  0  0  0
   -1.1324    2.6335    1.6106 C   0  0  0  0  0  0  0  0  0  0  0  0
   -1.2070    3.7097    2.6648 C   0  0  0  0  0  0  0  0  0  0  0  0
   -0.4429    3.7834    3.6187 O   0  0  0  0  0  0  0  0  0  0  0  0
   -2.2289    4.5773    2.4613 O   0  0  0  0  0  0  0  0  0  0  0  0
   -0.6087   -1.2764    1.1771 H   0  0  0  0  0  0  0  0  0  0  0  0
    0.1018    1.0442   -0.2700 H   0  0  0  0  0  0  0  0  0  0  0  0
    0.0978    1.3148    2.7851 H   0  0  0  0  0  0  0  0  0  0  0  0
    0.9933    2.3984    1.7252 H   0  0  0  0  0  0  0  0  0  0  0  0
   -1.0946    3.1424    0.6396 H   0  0  0  0  0  0  0  0  0  0  0  0
   -2.0549    2.0439    1.5968 H   0  0  0  0  0  0  0  0  0  0  0  0
   -2.3242    5.2829    3.1358 H   0  0  0  0  0  0  0  0  0  0  0  0
    1.3072   -1.5279    0.7957 N   0  0  0  0  0  0  0  0  0  0  0  0
    2.3805   -2.4914    0.8866 C   0  0  2  0  0  0  0  0  0  0  0  0
    2.8224   -2.8382   -0.5290 C   0  0  0  0  0  0  0  0  0  0  0  0
    2.1011   -2.6870   -1.5128 O   0  0  0  0  0  0  0  0  0  0  0  0
    1.9428   -3.7378    1.6401 C   0  0  0  0  0  0  0  0  0  0  0  0
    0.3584   -1.8714    0.6808 H   0  0  0  0  0  0  0  0  0  0  0  0
    3.2033   -1.9992    1.4164 H   0  0  0  0  0  0  0  0  0  0  0  0
    1.1190   -4.2445    1.1243 H   0  0  0  0  0  0  0  0  0  0  0  0
    2.7654   -4.4546    1.7329 H   0  0  0  0  0  0  0  0  0  0  0  0
    1.5973   -3.4828    2.6478 H   0  0  0  0  0  0  0  0  0  0  0  0
    4.1012   -3.3766   -0.5594 N   0  0  0  0  0  0  0  0  0  0  0  0
    4.7410   -3.7975   -1.7839 C   0  0  0  0  0  0  0  0  0  0  0  0
    4.6340   -3.4478    0.3025 H   0  0  0  0  0  0  0  0  0  0  0  0
    4.5441   -4.8666   -1.9524 H   0  0  0  0  0  0  0  0  0  0  0  0
    4.3407   -3.2139   -2.6260 H   0  0  0  0  0  0  0  0  0  0  0  0
    5.8258   -3.6324   -1.7062 H   0  0  0  0  0  0  0  0  0  0  0  0
  1  3  1  0  0  0  0
  1  7  1  0  0  0  0
  1  2  2  0  0  0  0
 34 35  1  0  0  0  0
 35 43  1  0  0  0  0
 35 36  2  0  0  0  0
  8  9  1  0  0  0  0
  9 17  1  0  0  0  0
  9 10  2  0  0  0  0
 18 19  1  0  0  0  0
 19 33  1  0  0  0  0
 19 20  2  0  0  0  0
 22 23  1  0  0  0  0
 23 24  2  0  0  0  0
 23 25  1  0  0  0  0
 34 37  1  0  0  0  0
  8 11  1  0  0  0  0
 43 44  1  0  0  0  0
 21 22  1  0  0  0  0
 18 21  1  0  0  0  0
 33 34  1  0  0  0  0
  7  8  1  0  0  0  0
 17 18  1  0  0  0  0
  3  4  1  0  0  0  0
  3  5  1  0  0  0  0
  3  6  1  0  0  0  0
 37 40  1  0  0  0  0
 37 41  1  0  0  0  0
 37 42  1  0  0  0  0
 11 14  1  0  0  0  0
 11 15  1  0  0  0  0
 11 16  1  0  0  0  0
 44 46  1  0  0  0  0
 44 47  1  0  0  0  0
 44 48  1  0  0  0  0
 22 30  1  0  0  0  0
 22 31  1  0  0  0  0
 21 28  1  0  0  0  0
 21 29  1  0  0  0  0
 34 39  1  0  0  0  0
  8 13  1  0  0  0  0
 18 27  1  0  0  0  0
 43 45  1  0  0  0  0
  7 12  1  0  0  0  0
 33 38  1  0  0  0  0
 17 26  1  0  0  0  0
 25 32  1  0  0  0  0
M  END
$$$$

  -OEChem-05262214473D

 48 47  0     1  0  0  0  0  0999 V2000
   -5.5827   -1.3473    1.4591 C   0  0  0  0  0  0  0  0  0  0  0  0
   -5.7053   -2.4696    0.9825 O   0  0  0  0  0  0  0  0  0  0  0  0
   -6.7879   -0.6277    1.9670 C   0  0  0  0  0  0  0  0  0  0  0  0
   -7.2718   -0.0164    1.1885 H   0  0  0  0  0  0  0  0  0  0  0  0
   -7.5699   -1.3171    2.3239 H   0  0  0  0  0  0  0  0  0  0  0  0
   -6.6057    0.0628    2.8060 H   0  0  0  0  0  0  0  0  0  0  0  0
   -4.4001   -0.6377    1.5884 N   0  0  0  0  0  0  0  0  0  0  0  0
   -3.1220   -1.1455    1.1644 C   0  0  2  0  0  0  0  0  0  0  0  0
   -2.2017    0.0428    0.9187 C   0  0  0  0  0  0  0  0  0  0  0  0
   -2.6171    1.1750    0.6807 O   0  0  0  0  0  0  0  0  0  0  0  0
   -3.2533   -1.9992   -0.0873 C   0  0  0  0  0  0  0  0  0  0  0  0
   -4.4370    0.2910    2.0047 H   0  0  0  0  0  0  0  0  0  0  0  0
   -2.7302   -1.7467    1.9921 H   0  0  0  0  0  0  0  0  0  0  0  0
   -3.6446   -1.4140   -0.9275 H   0  0  0  0  0  0  0  0  0  0  0  0
   -2.2844   -2.4081   -0.3922 H   0  0  0  0  0  0  0  0  0  0  0  0
   -3.9388   -2.8365    0.0822 H   0  0  0  0  0  0  0  0  0  0  0  0
   -0.8768   -0.3314    0.9568 N   0  0  0  0  0  0  0  0  0  0  0  0
    0.2067    0.6285    0.7375 C   0  0  2  0  0  0  0  0  0  0  0  0
    1.5091   -0.1570    0.8575 C   0  0  0  0  0  0  0  0  0  0  0  0
    2.5482    0.3470    1.2791 O   0  0  0  0  0  0  0  0  0  0  0  0
    0.1062    1.7536    1.7784 C   0  0  0  0  0  0  0  0  0  0  0  0
   -1.1324    2.6335    1.6106 C   0  0  0  0  0  0  0  0  0  0  0  0
   -1.2070    3.7097    2.6648 C   0  0  0  0  0  0  0  0  0  0  0  0
   -0.4429    3.7834    3.6187 O   0  0  0  0  0  0  0  0  0  0  0  0
   -2.2289    4.5773    2.4613 O   0  0  0  0  0  0  0  0  0  0  0  0
   -0.6087   -1.2764    1.1771 H   0  0  0  0  0  0  0  0  0  0  0  0
    0.1018    1.0442   -0.2700 H   0  0  0  0  0  0  0  0  0  0  0  0
    0.0978    1.3148    2.7851 H   0  0  0  0  0  0  0  0  0  0  0  0
    0.9933    2.3984    1.7252 H   0  0  0  0  0  0  0  0  0  0  0  0
   -1.0946    3.1424    0.6396 H   0  0  0  0  0  0  0  0  0  0  0  0
   -2.0549    2.0439    1.5968 H   0  0  0  0  0  0  0  0  0  0  0  0
   -2.3242    5.2829    3.1358 H   0  0  0  0  0  0  0  0  0  0  0  0
    1.3656   -1.4809    0.4694 N   0  0  0  0  0  0  0  0  0  0  0  0
    2.4511   -2.4347    0.4912 C   0  0  2  0  0  0  0  0  0  0  0  0
    3.0866   -2.4557   -0.8927 C   0  0  0  0  0  0  0  0  0  0  0  0
    2.4955   -2.0935   -1.9078 O   0  0  0  0  0  0  0  0  0  0  0  0
    1.9629   -3.8198    0.8862 C   0  0  0  0  0  0  0  0  0  0  0  0
    0.4528   -1.7954    0.1544 H   0  0  0  0  0  0  0  0  0  0  0  0
    3.1796   -2.0682    1.2227 H   0  0  0  0  0  0  0  0  0  0  0  0
    1.2321   -4.2036    0.1649 H   0  0  0  0  0  0  0  0  0  0  0  0
    2.7910   -4.5348    0.9300 H   0  0  0  0  0  0  0  0  0  0  0  0
    1.4795   -3.7971    1.8689 H   0  0  0  0  0  0  0  0  0  0  0  0
    4.3766   -2.9670   -0.8669 N   0  0  0  0  0  0  0  0  0  0  0  0
    5.1857   -3.1017   -2.0557 C   0  0  0  0  0  0  0  0  0  0  0  0
    4.7941   -3.2252    0.0223 H   0  0  0  0  0  0  0  0  0  0  0  0
    5.0505   -4.1076   -2.4799 H   0  0  0  0  0  0  0  0  0  0  0  0
    4.8788   -2.3477   -2.7954 H   0  0  0  0  0  0  0  0  0  0  0  0
    6.2444   -2.9522   -1.7973 H   0  0  0  0  0  0  0  0  0  0  0  0
  1  3  1  0  0  0  0
  1  7  1  0  0  0  0
  1  2  2  0  0  0  0
 34 35  1  0  0  0  0
 35 43  1  0  0  0  0
 35 36  2  0  0  0  0
  8  9  1  0  0  0  0
  9 17  1  0  0  0  0
  9 10  2  0  0  0  0
 18 19  1  0  0  0  0
 19 33  1  0  0  0  0
 19 20  2  0  0  0  0
 22 23  1  0  0  0  0
 23 24  2  0  0  0  0
 23 25  1  0  0  0  0
 34 37  1  0  0  0  0
  8 11  1  0  0  0  0
 43 44  1  0  0  0  0
 21 22  1  0  0  0  0
 18 21  1  0  0  0  0
 33 34  1  0  0  0  0
  7  8  1  0  0  0  0
 17 18  1  0  0  0  0
  3  4  1  0  0  0  0
  3  5  1  0  0  0  0
  3  6  1  0  0  0  0
 37 40  1  0  0  0  0
 37 41  1  0  0  0  0
 37 42  1  0  0  0  0
 11 14  1  0  0  0  0
 11 15  1  0  0  0  0
 11 16  1  0  0  0  0
 44 46  1  0  0  0  0
 44 47  1  0  0  0  0
 44 48  1  0  0  0  0
 22 30  1  0  0  0  0
 22 31  1  0  0  0  0
 21 28  1  0  0  0  0
 21 29  1  0  0  0  0
 34 39  1  0  0  0  0
  8 13  1  0  0  0  0
 18 27  1  0  0  0  0
 43 45  1  0  0  0  0
  7 12  1  0  0  0  0
 33 38  1  0  0  0  0
 17 26  1  0  0  0  0
 25 32  1  0  0  0  0
M  END
$$$$

  -OEChem-05262214473D

 48 47  0     1  0  0  0  0  0999 V2000
   -5.5827   -1.3473    1.4591 C   0  0  0  0  0  0  0  0  0  0  0  0
   -5.7053   -2.4696    0.9825 O   0  0  0  0  0  0  0  0  0  0  0  0
   -6.7879   -0.6277    1.9670 C   0  0  0  0  0  0  0  0  0  0  0  0
   -7.2718   -0.0164    1.1885 H   0  0  0  0  0  0  0  0  0  0  0  0
   -7.5699   -1.3171    2.3239 H   0  0  0  0  0  0  0  0  0  0  0  0
   -6.6057    0.0628    2.8060 H   0  0  0  0  0  0  0  0  0  0  0  0
   -4.4001   -0.6377    1.5884 N   0  0  0  0  0  0  0  0  0  0  0  0
   -3.1220   -1.1455    1.1644 C   0  0  2  0  0  0  0  0  0  0  0  0
   -2.2017    0.0428    0.9187 C   0  0  0  0  0  0  0  0  0  0  0  0
   -2.6171    1.1750    0.6807 O   0  0  0  0  0  0  0  0  0  0  0  0
   -3.2533   -1.9992   -0.0873 C   0  0  0  0  0  0  0  0  0  0  0  0
   -4.4370    0.2910    2.0047 H   0  0  0  0  0  0  0  0  0  0  0  0
   -2.7302   -1.7467    1.9921 H   0  0  0  0  0  0  0  0  0  0  0  0
   -3.6446   -1.4140   -0.9275 H   0  0  0  0  0  0  0  0  0  0  0  0
   -2.2844   -2.4081   -0.3922 H   0  0  0  0  0  0  0  0  0  0  0  0
   -3.9388   -2.8365    0.0822 H   0  0  0  0  0  0  0  0  0  0  0  0
   -0.8768   -0.3314    0.9568 N   0  0  0  0  0  0  0  0  0  0  0  0
    0.2067    0.6285    0.7375 C   0  0  2  0  0  0  0  0  0  0  0  0
    1.5091   -0.1570    0.8575 C   0  0  0  0  0  0  0  0  0  0  0  0
    2.4656    0.2462    1.5163 O   0  0  0  0  0  0  0  0  0  0  0  0
    0.1062    1.7536    1.7784 C   0  0  0  0  0  0  0  0  0  0  0  0
   -1.1324    2.6335    1.6106 C   0  0  0  0  0  0  0  0  0  0  0  0
   -1.2070    3.7097    2.6648 C   0  0  0  0  0  0  0  0  0  0  0  0
   -0.4429    3.7834    3.6187 O   0  0  0  0  0  0  0  0  0  0  0  0
   -2.2289    4.5773    2.4613 O   0  0  0  0  0  0  0  0  0  0  0  0
   -0.6087   -1.2764    1.1771 H   0  0  0  0  0  0  0  0  0  0  0  0
    0.1018    1.0442   -0.2700 H   0  0  0  0  0  0  0  0  0  0  0  0
    0.0978    1.3148    2.7851 H   0  0  0  0  0  0  0  0  0  0  0  0
    0.9933    2.3984    1.7252 H   0  0  0  0  0  0  0  0  0  0  0  0
   -1.0946    3.1424    0.6396 H   0  0  0  0  0  0  0  0  0  0  0  0
   -2.0549    2.0439    1.5968 H   0  0  0  0  0  0  0  0  0  0  0  0
   -2.3242    5.2829    3.1358 H   0  0  0  0  0  0  0  0  0  0  0  0
    1.4645   -1.3622    0.1724 N   0  0  0  0  0  0  0  0  0  0  0  0
    2.5709   -2.2912    0.1312 C   0  0  2  0  0  0  0  0  0  0  0  0
    3.3825   -2.0005   -1.1243 C   0  0  0  0  0  0  0  0  0  0  0  0
    2.9170   -1.4249   -2.1056 O   0  0  0  0  0  0  0  0  0  0  0  0
    2.0843   -3.7320    0.1425 C   0  0  0  0  0  0  0  0  0  0  0  0
    0.6125   -1.6038   -0.3247 H   0  0  0  0  0  0  0  0  0  0  0  0
    3.1838   -2.0925    1.0171 H   0  0  0  0  0  0  0  0  0  0  0  0
    1.4684   -3.9498   -0.7376 H   0  0  0  0  0  0  0  0  0  0  0  0
    2.9243   -4.4344    0.1401 H   0  0  0  0  0  0  0  0  0  0  0  0
    1.4760   -3.9309    1.0314 H   0  0  0  0  0  0  0  0  0  0  0  0
    4.6752   -2.4978   -1.0368 N   0  0  0  0  0  0  0  0  0  0  0  0
    5.6373   -2.3605   -2.1052 C   0  0  0  0  0  0  0  0  0  0  0  0
    4.9815   -2.9450   -0.1778 H   0  0  0  0  0  0  0  0  0  0  0  0
    5.5944   -3.2476   -2.7542 H   0  0  0  0  0  0  0  0  0  0  0  0
    5.4035   -1.4626   -2.6959 H   0  0  0  0  0  0  0  0  0  0  0  0
    6.6471   -2.2665   -1.6793 H   0  0  0  0  0  0  0  0  0  0  0  0
  1  3  1  0  0  0  0
  1  7  1  0  0  0  0
  1  2  2  0  0  0  0
 34 35  1  0  0  0  0
 35 43  1  0  0  0  0
 35 36  2  0  0  0  0
  8  9  1  0  0  0  0
  9 17  1  0  0  0  0
  9 10  2  0  0  0  0
 18 19  1  0  0  0  0
 19 33  1  0  0  0  0
 19 20  2  0  0  0  0
 22 23  1  0  0  0  0
 23 24  2  0  0  0  0
 23 25  1  0  0  0  0
 34 37  1  0  0  0  0
  8 11  1  0  0  0  0
 43 44  1  0  0  0  0
 21 22  1  0  0  0  0
 18 21  1  0  0  0  0
 33 34  1  0  0  0  0
  7  8  1  0  0  0  0
 17 18  1  0  0  0  0
  3  4  1  0  0  0  0
  3  5  1  0  0  0  0
  3  6  1  0  0  0  0
 37 40  1  0  0  0  0
 37 41  1  0  0  0  0
 37 42  1  0  0  0  0
 11 14  1  0  0  0  0
 11 15  1  0  0  0  0
 11 16  1  0  0  0  0
 44 46  1  0  0  0  0
 44 47  1  0  0  0  0
 44 48  1  0  0  0  0
 22 30  1  0  0  0  0
 22 31  1  0  0  0  0
 21 28  1  0  0  0  0
 21 29  1  0  0  0  0
 34 39  1  0  0  0  0
  8 13  1  0  0  0  0
 18 27  1  0  0  0  0
 43 45  1  0  0  0  0
  7 12  1  0  0  0  0
 33 38  1  0  0  0  0
 17 26  1  0  0  0  0
 25 32  1  0  0  0  0
M  END
$$$$

  -OEChem-05262214473D

 48 47  0     1  0  0  0  0  0999 V2000
   -5.5827   -1.3473    1.4591 C   0  0  0  0  0  0  0  0  0  0  0  0
   -5.7053   -2.4696    0.9825 O   0  0  0  0  0  0  0  0  0  0  0  0
   -6.7879   -0.6277    1.9670 C   0  0  0  0  0  0  0  0  0  0  0  0
   -7.2718   -0.0164    1.1885 H   0  0  0  0  0  0  0  0  0  0  0  0
   -7.5699   -1.3171    2.3239 H   0  0  0  0  0  0  0  0  0  0  0  0
   -6.6057    0.0628    2.8060 H   0  0  0  0  0  0  0  0  0  0  0  0
   -4.4001   -0.6377    1.5884 N   0  0  0  0  0  0  0  0  0  0  0  0
   -3.1220   -1.1455    1.1644 C   0  0  2  0  0  0  0  0  0  0  0  0
   -2.2017    0.0428    0.9187 C   0  0  0  0  0  0  0  0  0  0  0  0
   -2.6171    1.1750    0.6807 O   0  0  0  0  0  0  0  0  0  0  0  0
   -3.2533   -1.9992   -0.0873 C   0  0  0  0  0  0  0  0  0  0  0  0
   -4.4370    0.2910    2.0047 H   0  0  0  0  0  0  0  0  0  0  0  0
   -2.7302   -1.7467    1.9921 H   0  0  0  0  0  0  0  0  0  0  0  0
   -3.6446   -1.4140   -0.9275 H   0  0  0  0  0  0  0  0  0  0  0  0
   -2.2844   -2.4081   -0.3922 H   0  0  0  0  0  0  0  0  0  0  0  0
   -3.9388   -2.8365    0.0822 H   0  0  0  0  0  0  0  0  0  0  0  0
   -0.8768   -0.3314    0.9568 N   0  0  0  0  0  0  0  0  0  0  0  0
    0.2067    0.6285    0.7375 C   0  0  2  0  0  0  0  0  0  0  0  0
    1.5091   -0.1570    0.8575 C   0  0  0  0  0  0  0  0  0  0  0  0
    2.3562    0.0948    1.7121 O   0  0  0  0  0  0  0  0  0  0  0  0
    0.1062    1.7536    1.7784 C   0  0  0  0  0  0  0  0  0  0  0  0
   -1.1324    2.6335    1.6106 C   0  0  0  0  0  0  0  0  0  0  0  0
   -1.2070    3.7097    2.6648 C   0  0  0  0  0  0  0  0  0  0  0  0
   -0.4429    3.7834    3.6187 O   0  0  0  0  0  0  0  0  0  0  0  0
   -2.2289    4.5773    2.4613 O   0  0  0  0  0  0  0  0  0  0  0  0
   -0.6087   -1.2764    1.1771 H   0  0  0  0  0  0  0  0  0  0  0  0
    0.1018    1.0442   -0.2700 H   0  0  0  0  0  0  0  0  0  0  0  0
    0.0978    1.3148    2.7851 H   0  0  0  0  0  0  0  0  0  0  0  0
    0.9933    2.3984    1.7252 H   0  0  0  0  0  0  0  0  0  0  0  0
   -1.0946    3.1424    0.6396 H   0  0  0  0  0  0  0  0  0  0  0  0
   -2.0549    2.0439    1.5968 H   0  0  0  0  0  0  0  0  0  0  0  0
   -2.3242    5.2829    3.1358 H   0  0  0  0  0  0  0  0  0  0  0  0
    1.5972   -1.1800   -0.0750 N   0  0  0  0  0  0  0  0  0  0  0  0
    2.7316   -2.0706   -0.1689 C   0  0  2  0  0  0  0  0  0  0  0  0
    3.6899   -1.5037   -1.2080 C   0  0  0  0  0  0  0  0  0  0  0  0
    3.3368   -0.7268   -2.0928 O   0  0  0  0  0  0  0  0  0  0  0  0
    2.2990   -3.4804   -0.5402 C   0  0  0  0  0  0  0  0  0  0  0  0
    0.8268   -1.3096   -0.7238 H   0  0  0  0  0  0  0  0  0  0  0  0
    3.2158   -2.0705    0.8138 H   0  0  0  0  0  0  0  0  0  0  0  0
    1.8117   -3.5004   -1.5219 H   0  0  0  0  0  0  0  0  0  0  0  0
    3.1563   -4.1602   -0.5829 H   0  0  0  0  0  0  0  0  0  0  0  0
    1.5869   -3.8752    0.1924 H   0  0  0  0  0  0  0  0  0  0  0  0
    4.9768   -2.0010   -1.0575 N   0  0  0  0  0  0  0  0  0  0  0  0
    6.0651   -1.6245   -1.9291 C   0  0  0  0  0  0  0  0  0  0  0  0
    5.1835   -2.6263   -0.2842 H   0  0  0  0  0  0  0  0  0  0  0  0
    6.1389   -2.3453   -2.7568 H   0  0  0  0  0  0  0  0  0  0  0  0
    5.8790   -0.6189   -2.3344 H   0  0  0  0  0  0  0  0  0  0  0  0
    7.0064   -1.6220   -1.3601 H   0  0  0  0  0  0  0  0  0  0  0  0
  1  3  1  0  0  0  0
  1  7  1  0  0  0  0
  1  2  2  0  0  0  0
 34 35  1  0  0  0  0
 35 43  1  0  0  0  0
 35 36  2  0  0  0  0
  8  9  1  0  0  0  0
  9 17  1  0  0  0  0
  9 10  2  0  0  0  0
 18 19  1  0  0  0  0
 19 33  1  0  0  0  0
 19 20  2  0  0  0  0
 22 23  1  0  0  0  0
 23 24  2  0  0  0  0
 23 25  1  0  0  0  0
 34 37  1  0  0  0  0
  8 11  1  0  0  0  0
 43 44  1  0  0  0  0
 21 22  1  0  0  0  0
 18 21  1  0  0  0  0
 33 34  1  0  0  0  0
  7  8  1  0  0  0  0
 17 18  1  0  0  0  0
  3  4  1  0  0  0  0
  3  5  1  0  0  0  0
  3  6  1  0  0  0  0
 37 40  1  0  0  0  0
 37 41  1  0  0  0  0
 37 42  1  0  0  0  0
 11 14  1  0  0  0  0
 11 15  1  0  0  0  0
 11 16  1  0  0  0  0
 44 46  1  0  0  0  0
 44 47  1  0  0  0  0
 44 48  1  0  0  0  0
 22 30  1  0  0  0  0
 22 31  1  0  0  0  0
 21 28  1  0  0  0  0
 21 29  1  0  0  0  0
 34 39  1  0  0  0  0
  8 13  1  0  0  0  0
 18 27  1  0  0  0  0
 43 45  1  0  0  0  0
  7 12  1  0  0  0  0
 33 38  1  0  0  0  0
 17 26  1  0  0  0  0
 25 32  1  0  0  0  0
M  END
$$$$

  -OEChem-05262214473D

 48 47  0     1  0  0  0  0  0999 V2000
   -5.5827   -1.3473    1.4591 C   0  0  0  0  0  0  0  0  0  0  0  0
   -5.7053   -2.4696    0.9825 O   0  0  0  0  0  0  0  0  0  0  0  0
   -6.7879   -0.6277    1.9670 C   0  0  0  0  0  0  0  0  0  0  0  0
   -7.2718   -0.0164    1.1885 H   0  0  0  0  0  0  0  0  0  0  0  0
   -7.5699   -1.3171    2.3239 H   0  0  0  0  0  0  0  0  0  0  0  0
   -6.6057    0.0628    2.8060 H   0  0  0  0  0  0  0  0  0  0  0  0
   -4.4001   -0.6377    1.5884 N   0  0  0  0  0  0  0  0  0  0  0  0
   -3.1220   -1.1455    1.1644 C   0  0  2  0  0  0  0  0  0  0  0  0
   -2.2017    0.0428    0.9187 C   0  0  0  0  0  0  0  0  0  0  0  0
   -2.6171    1.1750    0.6807 O   0  0  0  0  0  0  0  0  0  0  0  0
   -3.2533   -1.9992   -0.0873 C   0  0  0  0  0  0  0  0  0  0  0  0
   -4.4370    0.2910    2.0047 H   0  0  0  0  0  0  0  0  0  0  0  0
   -2.7302   -1.7467    1.9921 H   0  0  0  0  0  0  0  0  0  0  0  0
   -3.6446   -1.4140   -0.9275 H   0  0  0  0  0  0  0  0  0  0  0  0
   -2.2844   -2.4081   -0.3922 H   0  0  0  0  0  0  0  0  0  0  0  0
   -3.9388   -2.8365    0.0822 H   0  0  0  0  0  0  0  0  0  0  0  0
   -0.8768   -0.3314    0.9568 N   0  0  0  0  0  0  0  0  0  0  0  0
    0.2067    0.6285    0.7375 C   0  0  2  0  0  0  0  0  0  0  0  0
    1.5091   -0.1570    0.8575 C   0  0  0  0  0  0  0  0  0  0  0  0
    2.2275   -0.0969    1.8533 O   0  0  0  0  0  0  0  0  0  0  0  0
    0.1062    1.7536    1.7784 C   0  0  0  0  0  0  0  0  0  0  0  0
   -1.1324    2.6335    1.6106 C   0  0  0  0  0  0  0  0  0  0  0  0
   -1.2070    3.7097    2.6648 C   0  0  0  0  0  0  0  0  0  0  0  0
   -0.4429    3.7834    3.6187 O   0  0  0  0  0  0  0  0  0  0  0  0
   -2.2289    4.5773    2.4613 O   0  0  0  0  0  0  0  0  0  0  0  0
   -0.6087   -1.2764    1.1771 H   0  0  0  0  0  0  0  0  0  0  0  0
    0.1018    1.0442   -0.2700 H   0  0  0  0  0  0  0  0  0  0  0  0
    0.0978    1.3148    2.7851 H   0  0  0  0  0  0  0  0  0  0  0  0
    0.9933    2.3984    1.7252 H   0  0  0  0  0  0  0  0  0  0  0  0
   -1.0946    3.1424    0.6396 H   0  0  0  0  0  0  0  0  0  0  0  0
   -2.0549    2.0439    1.5968 H   0  0  0  0  0  0  0  0  0  0  0  0
   -2.3242    5.2829    3.1358 H   0  0  0  0  0  0  0  0  0  0  0  0
    1.7547   -0.9466   -0.2561 N   0  0  0  0  0  0  0  0  0  0  0  0
    2.9223   -1.7879   -0.3885 C   0  0  2  0  0  0  0  0  0  0  0  0
    3.9878   -0.9990   -1.1382 C   0  0  0  0  0  0  0  0  0  0  0  0
    3.7265   -0.0468   -1.8703 O   0  0  0  0  0  0  0  0  0  0  0  0
    2.5922   -3.0822   -1.1155 C   0  0  0  0  0  0  0  0  0  0  0  0
    1.0809   -0.9328   -1.0158 H   0  0  0  0  0  0  0  0  0  0  0  0
    3.2734   -2.0037    0.6265 H   0  0  0  0  0  0  0  0  0  0  0  0
    2.2387   -2.8861   -2.1343 H   0  0  0  0  0  0  0  0  0  0  0  0
    3.4712   -3.7309   -1.1898 H   0  0  0  0  0  0  0  0  0  0  0  0
    1.8046   -3.6339   -0.5909 H   0  0  0  0  0  0  0  0  0  0  0  0
    5.2607   -1.5104   -0.9275 N   0  0  0  0  0  0  0  0  0  0  0  0
    6.4398   -0.9437   -1.5394 C   0  0  0  0  0  0  0  0  0  0  0  0
    5.3863   -2.2909   -0.2896 H   0  0  0  0  0  0  0  0  0  0  0  0
    6.6468   -1.4620   -2.4873 H   0  0  0  0  0  0  0  0  0  0  0  0
    6.2730    0.1258   -1.7354 H   0  0  0  0  0  0  0  0  0  0  0  0
    7.2978   -1.0627   -0.8615 H   0  0  0  0  0  0  0  0  0  0  0  0
  1  3  1  0  0  0  0
  1  7  1  0  0  0  0
  1  2  2  0  0  0  0
 34 35  1  0  0  0  0
 35 43  1  0  0  0  0
 35 36  2  0  0  0  0
  8  9  1  0  0  0  0
  9 17  1  0  0  0  0
  9 10  2  0  0  0  0
 18 19  1  0  0  0  0
 19 33  1  0  0  0  0
 19 20  2  0  0  0  0
 22 23  1  0  0  0  0
 23 24  2  0  0  0  0
 23 25  1  0  0  0  0
 34 37  1  0  0  0  0
  8 11  1  0  0  0  0
 43 44  1  0  0  0  0
 21 22  1  0  0  0  0
 18 21  1  0  0  0  0
 33 34  1  0  0  0  0
  7  8  1  0  0  0  0
 17 18  1  0  0  0  0
  3  4  1  0  0  0  0
  3  5  1  0  0  0  0
  3  6  1  0  0  0  0
 37 40  1  0  0  0  0
 37 41  1  0  0  0  0
 37 42  1  0  0  0  0
 11 14  1  0  0  0  0
 11 15  1  0  0  0  0
 11 16  1  0  0  0  0
 44 46  1  0  0  0  0
 44 47  1  0  0  0  0
 44 48  1  0  0  0  0
 22 30  1  0  0  0  0
 22 31  1  0  0  0  0
 21 28  1  0  0  0  0
 21 29  1  0  0  0  0
 34 39  1  0  0  0  0
  8 13  1  0  0  0  0
 18 27  1  0  0  0  0
 43 45  1  0  0  0  0
  7 12  1  0  0  0  0
 33 38  1  0  0  0  0
 17 26  1  0  0  0  0
 25 32  1  0  0  0  0
M  END
$$$$

  -OEChem-05262214473D

 48 47  0     1  0  0  0  0  0999 V2000
   -5.5827   -1.3473    1.4591 C   0  0  0  0  0  0  0  0  0  0  0  0
   -5.7053   -2.4696    0.9825 O   0  0  0  0  0  0  0  0  0  0  0  0
   -6.7879   -0.6277    1.9670 C   0  0  0  0  0  0  0  0  0  0  0  0
   -7.2718   -0.0164    1.1885 H   0  0  0  0  0  0  0  0  0  0  0  0
   -7.5699   -1.3171    2.3239 H   0  0  0  0  0  0  0  0  0  0  0  0
   -6.6057    0.0628    2.8060 H   0  0  0  0  0  0  0  0  0  0  0  0
   -4.4001   -0.6377    1.5884 N   0  0  0  0  0  0  0  0  0  0  0  0
   -3.1220   -1.1455    1.1644 C   0  0  2  0  0  0  0  0  0  0  0  0
   -2.2017    0.0428    0.9187 C   0  0  0  0  0  0  0  0  0  0  0  0
   -2.6171    1.1750    0.6807 O   0  0  0  0  0  0  0  0  0  0  0  0
   -3.2533   -1.9992   -0.0873 C   0  0  0  0  0  0  0  0  0  0  0  0
   -4.4370    0.2910    2.0047 H   0  0  0  0  0  0  0  0  0  0  0  0
   -2.7302   -1.7467    1.9921 H   0  0  0  0  0  0  0  0  0  0  0  0
   -3.6446   -1.4140   -0.9275 H   0  0  0  0  0  0  0  0  0  0  0  0
   -2.2844   -2.4081   -0.3922 H   0  0  0  0  0  0  0  0  0  0  0  0
   -3.9388   -2.8365    0.0822 H   0  0  0  0  0  0  0  0  0  0  0  0
   -0.8768   -0.3314    0.9568 N   0  0  0  0  0  0  0  0  0  0  0  0
    0.2067    0.6285    0.7375 C   0  0  2  0  0  0  0  0  0  0  0  0
    1.5091   -0.1570    0.8575 C   0  0  0  0  0  0  0  0  0  0  0  0
    2.0883   -0.3160    1.9302 O   0  0  0  0  0  0  0  0  0  0  0  0
    0.1062    1.7536    1.7784 C   0  0  0  0  0  0  0  0  0  0  0  0
   -1.1324    2.6335    1.6106 C   0  0  0  0  0  0  0  0  0  0  0  0
   -1.2070    3.7097    2.6648 C   0  0  0  0  0  0  0  0  0  0  0  0
   -0.4429    3.7834    3.6187 O   0  0  0  0  0  0  0  0  0  0  0  0
   -2.2289    4.5773    2.4613 O   0  0  0  0  0  0  0  0  0  0  0  0
   -0.6087   -1.2764    1.1771 H   0  0  0  0  0  0  0  0  0  0  0  0
    0.1018    1.0442   -0.2700 H   0  0  0  0  0  0  0  0  0  0  0  0
    0.0978    1.3148    2.7851 H   0  0  0  0  0  0  0  0  0  0  0  0
    0.9933    2.3984    1.7252 H   0  0  0  0  0  0  0  0  0  0  0  0
   -1.0946    3.1424    0.6396 H   0  0  0  0  0  0  0  0  0  0  0  0
   -2.0549    2.0439    1.5968 H   0  0  0  0  0  0  0  0  0  0  0  0
   -2.3242    5.2829    3.1358 H   0  0  0  0  0  0  0  0  0  0  0  0
    1.9262   -0.6779   -0.3585 N   0  0  0  0  0  0  0  0  0  0  0  0
    3.1301   -1.4624   -0.5128 C   0  0  2  0  0  0  0  0  0  0  0  0
    4.2560   -0.5209   -0.9195 C   0  0  0  0  0  0  0  0  0  0  0  0
    4.0594    0.5689   -1.4532 O   0  0  0  0  0  0  0  0  0  0  0  0
    2.9439   -2.5645   -1.5441 C   0  0  0  0  0  0  0  0  0  0  0  0
    1.3576   -0.4992   -1.1807 H   0  0  0  0  0  0  0  0  0  0  0  0
    3.3526   -1.8966    0.4680 H   0  0  0  0  0  0  0  0  0  0  0  0
    2.7202   -2.1486   -2.5333 H   0  0  0  0  0  0  0  0  0  0  0  0
    3.8475   -3.1756   -1.6392 H   0  0  0  0  0  0  0  0  0  0  0  0
    2.1144   -3.2232   -1.2652 H   0  0  0  0  0  0  0  0  0  0  0  0
    5.5076   -1.0595   -0.6557 N   0  0  0  0  0  0  0  0  0  0  0  0
    6.7359   -0.3645   -0.9626 C   0  0  0  0  0  0  0  0  0  0  0  0
    5.5761   -1.9616   -0.1937 H   0  0  0  0  0  0  0  0  0  0  0  0
    7.0835   -0.6581   -1.9641 H   0  0  0  0  0  0  0  0  0  0  0  0
    6.5585    0.7208   -0.9397 H   0  0  0  0  0  0  0  0  0  0  0  0
    7.5015   -0.6267   -0.2175 H   0  0  0  0  0  0  0  0  0  0  0  0
  1  3  1  0  0  0  0
  1  7  1  0  0  0  0
  1  2  2  0  0  0  0
 34 35  1  0  0  0  0
 35 43  1  0  0  0  0
 35 36  2  0  0  0  0
  8  9  1  0  0  0  0
  9 17  1  0  0  0  0
  9 10  2  0  0  0  0
 18 19  1  0  0  0  0
 19 33  1  0  0  0  0
 19 20  2  0  0  0  0
 22 23  1  0  0  0  0
 23 24  2  0  0  0  0
 23 25  1  0  0  0  0
 34 37  1  0  0  0  0
  8 11  1  0  0  0  0
 43 44  1  0  0  0  0
 21 22  1  0  0  0  0
 18 21  1  0  0  0  0
 33 34  1  0  0  0  0
  7  8  1  0  0  0  0
 17 18  1  0  0  0  0
  3  4  1  0  0  0  0
  3  5  1  0  0  0  0
  3  6  1  0  0  0  0
 37 40  1  0  0  0  0
 37 41  1  0  0  0  0
 37 42  1  0  0  0  0
 11 14  1  0  0  0  0
 11 15  1  0  0  0  0
 11 16  1  0  0  0  0
 44 46  1  0  0  0  0
 44 47  1  0  0  0  0
 44 48  1  0  0  0  0
 22 30  1  0  0  0  0
 22 31  1  0  0  0  0
 21 28  1  0  0  0  0
 21 29  1  0  0  0  0
 34 39  1  0  0  0  0
  8 13  1  0  0  0  0
 18 27  1  0  0  0  0
 43 45  1  0  0  0  0
  7 12  1  0  0  0  0
 33 38  1  0  0  0  0
 17 26  1  0  0  0  0
 25 32  1  0  0  0  0
M  END
$$$$

  -OEChem-05262214473D

 48 47  0     1  0  0  0  0  0999 V2000
   -5.5827   -1.3473    1.4591 C   0  0  0  0  0  0  0  0  0  0  0  0
   -5.7053   -2.4696    0.9825 O   0  0  0  0  0  0  0  0  0  0  0  0
   -6.7879   -0.6277    1.9670 C   0  0  0  0  0  0  0  0  0  0  0  0
   -7.2718   -0.0164    1.1885 H   0  0  0  0  0  0  0  0  0  0  0  0
   -7.5699   -1.3171    2.3239 H   0  0  0  0  0  0  0  0  0  0  0  0
   -6.6057    0.0628    2.8060 H   0  0  0  0  0  0  0  0  0  0  0  0
   -4.4001   -0.6377    1.5884 N   0  0  0  0  0  0  0  0  0  0  0  0
   -3.1220   -1.1455    1.1644 C   0  0  2  0  0  0  0  0  0  0  0  0
   -2.2017    0.0428    0.9187 C   0  0  0  0  0  0  0  0  0  0  0  0
   -2.6171    1.1750    0.6807 O   0  0  0  0  0  0  0  0  0  0  0  0
   -3.2533   -1.9992   -0.0873 C   0  0  0  0  0  0  0  0  0  0  0  0
   -4.4370    0.2910    2.0047 H   0  0  0  0  0  0  0  0  0  0  0  0
   -2.7302   -1.7467    1.9921 H   0  0  0  0  0  0  0  0  0  0  0  0
   -3.6446   -1.4140   -0.9275 H   0  0  0  0  0  0  0  0  0  0  0  0
   -2.2844   -2.4081   -0.3922 H   0  0  0  0  0  0  0  0  0  0  0  0
   -3.9388   -2.8365    0.0822 H   0  0  0  0  0  0  0  0  0  0  0  0
   -0.8768   -0.3314    0.9568 N   0  0  0  0  0  0  0  0  0  0  0  0
    0.2067    0.6285    0.7375 C   0  0  2  0  0  0  0  0  0  0  0  0
    1.5091   -0.1570    0.8575 C   0  0  0  0  0  0  0  0  0  0  0  0
    1.9481   -0.5473    1.9375 O   0  0  0  0  0  0  0  0  0  0  0  0
    0.1062    1.7536    1.7784 C   0  0  0  0  0  0  0  0  0  0  0  0
   -1.1324    2.6335    1.6106 C   0  0  0  0  0  0  0  0  0  0  0  0
   -1.2070    3.7097    2.6648 C   0  0  0  0  0  0  0  0  0  0  0  0
   -0.4429    3.7834    3.6187 O   0  0  0  0  0  0  0  0  0  0  0  0
   -2.2289    4.5773    2.4613 O   0  0  0  0  0  0  0  0  0  0  0  0
   -0.6087   -1.2764    1.1771 H   0  0  0  0  0  0  0  0  0  0  0  0
    0.1018    1.0442   -0.2700 H   0  0  0  0  0  0  0  0  0  0  0  0
    0.0978    1.3148    2.7851 H   0  0  0  0  0  0  0  0  0  0  0  0
    0.9933    2.3984    1.7252 H   0  0  0  0  0  0  0  0  0  0  0  0
   -1.0946    3.1424    0.6396 H   0  0  0  0  0  0  0  0  0  0  0  0
   -2.0549    2.0439    1.5968 H   0  0  0  0  0  0  0  0  0  0  0  0
   -2.3242    5.2829    3.1358 H   0  0  0  0  0  0  0  0  0  0  0  0
    2.1000   -0.3923   -0.3751 N   0  0  0  0  0  0  0  0  0  0  0  0
    3.3407   -1.1163   -0.5333 C   0  0  2  0  0  0  0  0  0  0  0  0
    4.4762   -0.1020   -0.5669 C   0  0  0  0  0  0  0  0  0  0  0  0
    4.3128    1.0781   -0.8699 O   0  0  0  0  0  0  0  0  0  0  0  0
    3.3303   -1.9625   -1.7969 C   0  0  0  0  0  0  0  0  0  0  0  0
    1.6381   -0.0383   -1.2074 H   0  0  0  0  0  0  0  0  0  0  0  0
    3.4480   -1.7565    0.3491 H   0  0  0  0  0  0  0  0  0  0  0  0
    3.2235   -1.3384   -2.6916 H   0  0  0  0  0  0  0  0  0  0  0  0
    4.2596   -2.5324   -1.9005 H   0  0  0  0  0  0  0  0  0  0  0  0
    2.4952   -2.6712   -1.7844 H   0  0  0  0  0  0  0  0  0  0  0  0
    5.7007   -0.6790   -0.2606 N   0  0  0  0  0  0  0  0  0  0  0  0
    6.9333    0.0735   -0.2381 C   0  0  0  0  0  0  0  0  0  0  0  0
    5.7400   -1.6608   -0.0030 H   0  0  0  0  0  0  0  0  0  0  0  0
    7.4192    0.0118   -1.2230 H   0  0  0  0  0  0  0  0  0  0  0  0
    6.7162    1.1256   -0.0017 H   0  0  0  0  0  0  0  0  0  0  0  0
    7.6035   -0.3437    0.5280 H   0  0  0  0  0  0  0  0  0  0  0  0
  1  3  1  0  0  0  0
  1  7  1  0  0  0  0
  1  2  2  0  0  0  0
 34 35  1  0  0  0  0
 35 43  1  0  0  0  0
 35 36  2  0  0  0  0
  8  9  1  0  0  0  0
  9 17  1  0  0  0  0
  9 10  2  0  0  0  0
 18 19  1  0  0  0  0
 19 33  1  0  0  0  0
 19 20  2  0  0  0  0
 22 23  1  0  0  0  0
 23 24  2  0  0  0  0
 23 25  1  0  0  0  0
 34 37  1  0  0  0  0
  8 11  1  0  0  0  0
 43 44  1  0  0  0  0
 21 22  1  0  0  0  0
 18 21  1  0  0  0  0
 33 34  1  0  0  0  0
  7  8  1  0  0  0  0
 17 18  1  0  0  0  0
  3  4  1  0  0  0  0
  3  5  1  0  0  0  0
  3  6  1  0  0  0  0
 37 40  1  0  0  0  0
 37 41  1  0  0  0  0
 37 42  1  0  0  0  0
 11 14  1  0  0  0  0
 11 15  1  0  0  0  0
 11 16  1  0  0  0  0
 44 46  1  0  0  0  0
 44 47  1  0  0  0  0
 44 48  1  0  0  0  0
 22 30  1  0  0  0  0
 22 31  1  0  0  0  0
 21 28  1  0  0  0  0
 21 29  1  0  0  0  0
 34 39  1  0  0  0  0
  8 13  1  0  0  0  0
 18 27  1  0  0  0  0
 43 45  1  0  0  0  0
  7 12  1  0  0  0  0
 33 38  1  0  0  0  0
 17 26  1  0  0  0  0
 25 32  1  0  0  0  0
M  END
$$$$

  -OEChem-05262214473D

 48 47  0     1  0  0  0  0  0999 V2000
   -5.5827   -1.3473    1.4591 C   0  0  0  0  0  0  0  0  0  0  0  0
   -5.7053   -2.4696    0.9825 O   0  0  0  0  0  0  0  0  0  0  0  0
   -6.7879   -0.6277    1.9670 C   0  0  0  0  0  0  0  0  0  0  0  0
   -7.2718   -0.0164    1.1885 H   0  0  0  0  0  0  0  0  0  0  0  0
   -7.5699   -1.3171    2.3239 H   0  0  0  0  0  0  0  0  0  0  0  0
   -6.6057    0.0628    2.8060 H   0  0  0  0  0  0  0  0  0  0  0  0
   -4.4001   -0.6377    1.5884 N   0  0  0  0  0  0  0  0  0  0  0  0
   -3.1220   -1.1455    1.1644 C   0  0  2  0  0  0  0  0  0  0  0  0
   -2.2017    0.0428    0.9187 C   0  0  0  0  0  0  0  0  0  0  0  0
   -2.6171    1.1750    0.6807 O   0  0  0  0  0  0  0  0  0  0  0  0
   -3.2533   -1.9992   -0.0873 C   0  0  0  0  0  0  0  0  0  0  0  0
   -4.4370    0.2910    2.0047 H   0  0  0  0  0  0  0  0  0  0  0  0
   -2.7302   -1.7467    1.9921 H   0  0  0  0  0  0  0  0  0  0  0  0
   -3.6446   -1.4140   -0.9275 H   0  0  0  0  0  0  0  0  0  0  0  0
   -2.2844   -2.4081   -0.3922 H   0  0  0  0  0  0  0  0  0  0  0  0
   -3.9388   -2.8365    0.0822 H   0  0  0  0  0  0  0  0  0  0  0  0
   -0.8768   -0.3314    0.9568 N   0  0  0  0  0  0  0  0  0  0  0  0
    0.2067    0.6285    0.7375 C   0  0  2  0  0  0  0  0  0  0  0  0
    1.5091   -0.1570    0.8575 C   0  0  0  0  0  0  0  0  0  0  0  0
    1.8164   -0.7753    1.8747 O   0  0  0  0  0  0  0  0  0  0  0  0
    0.1062    1.7536    1.7784 C   0  0  0  0  0  0  0  0  0  0  0  0
   -1.1324    2.6335    1.6106 C   0  0  0  0  0  0  0  0  0  0  0  0
   -1.2070    3.7097    2.6648 C   0  0  0  0  0  0  0  0  0  0  0  0
   -0.4429    3.7834    3.6187 O   0  0  0  0  0  0  0  0  0  0  0  0
   -2.2289    4.5773    2.4613 O   0  0  0  0  0  0  0  0  0  0  0  0
   -0.6087   -1.2764    1.1771 H   0  0  0  0  0  0  0  0  0  0  0  0
    0.1018    1.0442   -0.2700 H   0  0  0  0  0  0  0  0  0  0  0  0
    0.0978    1.3148    2.7851 H   0  0  0  0  0  0  0  0  0  0  0  0
    0.9933    2.3984    1.7252 H   0  0  0  0  0  0  0  0  0  0  0  0
   -1.0946    3.1424    0.6396 H   0  0  0  0  0  0  0  0  0  0  0  0
   -2.0549    2.0439    1.5968 H   0  0  0  0  0  0  0  0  0  0  0  0
   -2.3242    5.2829    3.1358 H   0  0  0  0  0  0  0  0  0  0  0  0
    2.2643   -0.1092   -0.3049 N   0  0  0  0  0  0  0  0  0  0  0  0
    3.5398   -0.7732   -0.4486 C   0  0  2  0  0  0  0  0  0  0  0  0
    4.6334    0.2293   -0.1044 C   0  0  0  0  0  0  0  0  0  0  0  0
    4.4694    1.4463   -0.1601 O   0  0  0  0  0  0  0  0  0  0  0  0
    3.7249   -1.3174   -1.8566 C   0  0  0  0  0  0  0  0  0  0  0  0
    1.9031    0.4185   -1.0939 H   0  0  0  0  0  0  0  0  0  0  0  0
    3.5532   -1.5930    0.2779 H   0  0  0  0  0  0  0  0  0  0  0  0
    3.7142   -0.5105   -2.5984 H   0  0  0  0  0  0  0  0  0  0  0  0
    4.6793   -1.8450   -1.9558 H   0  0  0  0  0  0  0  0  0  0  0  0
    2.9210   -2.0156   -2.1133 H   0  0  0  0  0  0  0  0  0  0  0  0
    5.8269   -0.3948    0.2308 N   0  0  0  0  0  0  0  0  0  0  0  0
    7.0185    0.3405    0.5849 C   0  0  0  0  0  0  0  0  0  0  0  0
    5.8667   -1.4090    0.2694 H   0  0  0  0  0  0  0  0  0  0  0  0
    7.6311    0.5019   -0.3144 H   0  0  0  0  0  0  0  0  0  0  0  0
    6.7353    1.3125    1.0148 H   0  0  0  0  0  0  0  0  0  0  0  0
    7.5969   -0.2330    1.3243 H   0  0  0  0  0  0  0  0  0  0  0  0
  1  3  1  0  0  0  0
  1  7  1  0  0  0  0
  1  2  2  0  0  0  0
 34 35  1  0  0  0  0
 35 43  1  0  0  0  0
 35 36  2  0  0  0  0
  8  9  1  0  0  0  0
  9 17  1  0  0  0  0
  9 10  2  0  0  0  0
 18 19  1  0  0  0  0
 19 33  1  0  0  0  0
 19 20  2  0  0  0  0
 22 23  1  0  0  0  0
 23 24  2  0  0  0  0
 23 25  1  0  0  0  0
 34 37  1  0  0  0  0
  8 11  1  0  0  0  0
 43 44  1  0  0  0  0
 21 22  1  0  0  0  0
 18 21  1  0  0  0  0
 33 34  1  0  0  0  0
  7  8  1  0  0  0  0
 17 18  1  0  0  0  0
  3  4  1  0  0  0  0
  3  5  1  0  0  0  0
  3  6  1  0  0  0  0
 37 40  1  0  0  0  0
 37 41  1  0  0  0  0
 37 42  1  0  0  0  0
 11 14  1  0  0  0  0
 11 15  1  0  0  0  0
 11 16  1  0  0  0  0
 44 46  1  0  0  0  0
 44 47  1  0  0  0  0
 44 48  1  0  0  0  0
 22 30  1  0  0  0  0
 22 31  1  0  0  0  0
 21 28  1  0  0  0  0
 21 29  1  0  0  0  0
 34 39  1  0  0  0  0
  8 13  1  0  0  0  0
 18 27  1  0  0  0  0
 43 45  1  0  0  0  0
  7 12  1  0  0  0  0
 33 38  1  0  0  0  0
 17 26  1  0  0  0  0
 25 32  1  0  0  0  0
M  END
$$$$

  -OEChem-05262214473D

 48 47  0     1  0  0  0  0  0999 V2000
   -5.5827   -1.3473    1.4591 C   0  0  0  0  0  0  0  0  0  0  0  0
   -5.7053   -2.4696    0.9825 O   0  0  0  0  0  0  0  0  0  0  0  0
   -6.7879   -0.6277    1.9670 C   0  0  0  0  0  0  0  0  0  0  0  0
   -7.2718   -0.0164    1.1885 H   0  0  0  0  0  0  0  0  0  0  0  0
   -7.5699   -1.3171    2.3239 H   0  0  0  0  0  0  0  0  0  0  0  0
   -6.6057    0.0628    2.8060 H   0  0  0  0  0  0  0  0  0  0  0  0
   -4.4001   -0.6377    1.5884 N   0  0  0  0  0  0  0  0  0  0  0  0
   -3.1220   -1.1455    1.1644 C   0  0  2  0  0  0  0  0  0  0  0  0
   -2.2017    0.0428    0.9187 C   0  0  0  0  0  0  0  0  0  0  0  0
   -2.6171    1.1750    0.6807 O   0  0  0  0  0  0  0  0  0  0  0  0
   -3.2533   -1.9992   -0.0873 C   0  0  0  0  0  0  0  0  0  0  0  0
   -4.4370    0.2910    2.0047 H   0  0  0  0  0  0  0  0  0  0  0  0
   -2.7302   -1.7467    1.9921 H   0  0  0  0  0  0  0  0  0  0  0  0
   -3.6446   -1.4140   -0.9275 H   0  0  0  0  0  0  0  0  0  0  0  0
   -2.2844   -2.4081   -0.3922 H   0  0  0  0  0  0  0  0  0  0  0  0
   -3.9388   -2.8365    0.0822 H   0  0  0  0  0  0  0  0  0  0  0  0
   -0.8768   -0.3314    0.9568 N   0  0  0  0  0  0  0  0  0  0  0  0
    0.2067    0.6285    0.7375 C   0  0  2  0  0  0  0  0  0  0  0  0
    1.5091   -0.1570    0.8575 C   0  0  0  0  0  0  0  0  0  0  0  0
    1.7022   -0.9843    1.7462 O   0  0  0  0  0  0  0  0  0  0  0  0
    0.1062    1.7536    1.7784 C   0  0  0  0  0  0  0  0  0  0  0  0
   -1.1324    2.6335    1.6106 C   0  0  0  0  0  0  0  0  0  0  0  0
   -1.2070    3.7097    2.6648 C   0  0  0  0  0  0  0  0  0  0  0  0
   -0.4429    3.7834    3.6187 O   0  0  0  0  0  0  0  0  0  0  0  0
   -2.2289    4.5773    2.4613 O   0  0  0  0  0  0  0  0  0  0  0  0
   -0.6087   -1.2764    1.1771 H   0  0  0  0  0  0  0  0  0  0  0  0
    0.1018    1.0442   -0.2700 H   0  0  0  0  0  0  0  0  0  0  0  0
    0.0978    1.3148    2.7851 H   0  0  0  0  0  0  0  0  0  0  0  0
    0.9933    2.3984    1.7252 H   0  0  0  0  0  0  0  0  0  0  0  0
   -1.0946    3.1424    0.6396 H   0  0  0  0  0  0  0  0  0  0  0  0
   -2.0549    2.0439    1.5968 H   0  0  0  0  0  0  0  0  0  0  0  0
   -2.3242    5.2829    3.1358 H   0  0  0  0  0  0  0  0  0  0  0  0
    2.4079    0.1521   -0.1527 N   0  0  0  0  0  0  0  0  0  0  0  0
    3.7139   -0.4565   -0.2644 C   0  0  2  0  0  0  0  0  0  0  0  0
    4.7169    0.4503    0.4365 C   0  0  0  0  0  0  0  0  0  0  0  0
    4.5187    1.6483    0.6276 O   0  0  0  0  0  0  0  0  0  0  0  0
    4.1009   -0.6730   -1.7191 C   0  0  0  0  0  0  0  0  0  0  0  0
    2.1347    0.8400   -0.8481 H   0  0  0  0  0  0  0  0  0  0  0  0
    3.6610   -1.4172    0.2594 H   0  0  0  0  0  0  0  0  0  0  0  0
    4.1590    0.2785   -2.2601 H   0  0  0  0  0  0  0  0  0  0  0  0
    5.0781   -1.1602   -1.8014 H   0  0  0  0  0  0  0  0  0  0  0  0
    3.3627   -1.3010   -2.2294 H   0  0  0  0  0  0  0  0  0  0  0  0
    5.8774   -0.2263    0.7851 N   0  0  0  0  0  0  0  0  0  0  0  0
    6.9857    0.4183    1.4501 C   0  0  0  0  0  0  0  0  0  0  0  0
    5.9477   -1.2235    0.6051 H   0  0  0  0  0  0  0  0  0  0  0  0
    7.7047    0.7789    0.6998 H   0  0  0  0  0  0  0  0  0  0  0  0
    6.6144    1.2689    2.0405 H   0  0  0  0  0  0  0  0  0  0  0  0
    7.4822   -0.3021    2.1170 H   0  0  0  0  0  0  0  0  0  0  0  0
  1  3  1  0  0  0  0
  1  7  1  0  0  0  0
  1  2  2  0  0  0  0
 34 35  1  0  0  0  0
 35 43  1  0  0  0  0
 35 36  2  0  0  0  0
  8  9  1  0  0  0  0
  9 17  1  0  0  0  0
  9 10  2  0  0  0  0
 18 19  1  0  0  0  0
 19 33  1  0  0  0  0
 19 20  2  0  0  0  0
 22 23  1  0  0  0  0
 23 24  2  0  0  0  0
 23 25  1  0  0  0  0
 34 37  1  0  0  0  0
  8 11  1  0  0  0  0
 43 44  1  0  0  0  0
 21 22  1  0  0  0  0
 18 21  1  0  0  0  0
 33 34  1  0  0  0  0
  7  8  1  0  0  0  0
 17 18  1  0  0  0  0
  3  4  1  0  0  0  0
  3  5  1  0  0  0  0
  3  6  1  0  0  0  0
 37 40  1  0  0  0  0
 37 41  1  0  0  0  0
 37 42  1  0  0  0  0
 11 14  1  0  0  0  0
 11 15  1  0  0  0  0
 11 16  1  0  0  0  0
 44 46  1  0  0  0  0
 44 47  1  0  0  0  0
 44 48  1  0  0  0  0
 22 30  1  0  0  0  0
 22 31  1  0  0  0  0
 21 28  1  0  0  0  0
 21 29  1  0  0  0  0
 34 39  1  0  0  0  0
  8 13  1  0  0  0  0
 18 27  1  0  0  0  0
 43 45  1  0  0  0  0
  7 12  1  0  0  0  0
 33 38  1  0  0  0  0
 17 26  1  0  0  0  0
 25 32  1  0  0  0  0
M  END
$$$$

  -OEChem-05262214473D

 48 47  0     1  0  0  0  0  0999 V2000
   -5.5827   -1.3473    1.4591 C   0  0  0  0  0  0  0  0  0  0  0  0
   -5.7053   -2.4696    0.9825 O   0  0  0  0  0  0  0  0  0  0  0  0
   -6.7879   -0.6277    1.9670 C   0  0  0  0  0  0  0  0  0  0  0  0
   -7.2718   -0.0164    1.1885 H   0  0  0  0  0  0  0  0  0  0  0  0
   -7.5699   -1.3171    2.3239 H   0  0  0  0  0  0  0  0  0  0  0  0
   -6.6057    0.0628    2.8060 H   0  0  0  0  0  0  0  0  0  0  0  0
   -4.4001   -0.6377    1.5884 N   0  0  0  0  0  0  0  0  0  0  0  0
   -3.1220   -1.1455    1.1644 C   0  0  2  0  0  0  0  0  0  0  0  0
   -2.2017    0.0428    0.9187 C   0  0  0  0  0  0  0  0  0  0  0  0
   -2.6171    1.1750    0.6807 O   0  0  0  0  0  0  0  0  0  0  0  0
   -3.2533   -1.9992   -0.0873 C   0  0  0  0  0  0  0  0  0  0  0  0
   -4.4370    0.2910    2.0047 H   0  0  0  0  0  0  0  0  0  0  0  0
   -2.7302   -1.7467    1.9921 H   0  0  0  0  0  0  0  0  0  0  0  0
   -3.6446   -1.4140   -0.9275 H   0  0  0  0  0  0  0  0  0  0  0  0
   -2.2844   -2.4081   -0.3922 H   0  0  0  0  0  0  0  0  0  0  0  0
   -3.9388   -2.8365    0.0822 H   0  0  0  0  0  0  0  0  0  0  0  0
   -0.8768   -0.3314    0.9568 N   0  0  0  0  0  0  0  0  0  0  0  0
    0.2067    0.6285    0.7375 C   0  0  2  0  0  0  0  0  0  0  0  0
    1.5091   -0.1570    0.8575 C   0  0  0  0  0  0  0  0  0  0  0  0
    1.6133   -1.1601    1.5606 O   0  0  0  0  0  0  0  0  0  0  0  0
    0.1062    1.7536    1.7784 C   0  0  0  0  0  0  0  0  0  0  0  0
   -1.1324    2.6335    1.6106 C   0  0  0  0  0  0  0  0  0  0  0  0
   -1.2070    3.7097    2.6648 C   0  0  0  0  0  0  0  0  0  0  0  0
   -0.4429    3.7834    3.6187 O   0  0  0  0  0  0  0  0  0  0  0  0
   -2.2289    4.5773    2.4613 O   0  0  0  0  0  0  0  0  0  0  0  0
   -0.6087   -1.2764    1.1771 H   0  0  0  0  0  0  0  0  0  0  0  0
    0.1018    1.0442   -0.2700 H   0  0  0  0  0  0  0  0  0  0  0  0
    0.0978    1.3148    2.7851 H   0  0  0  0  0  0  0  0  0  0  0  0
    0.9933    2.3984    1.7252 H   0  0  0  0  0  0  0  0  0  0  0  0
   -1.0946    3.1424    0.6396 H   0  0  0  0  0  0  0  0  0  0  0  0
   -2.0549    2.0439    1.5968 H   0  0  0  0  0  0  0  0  0  0  0  0
   -2.3242    5.2829    3.1358 H   0  0  0  0  0  0  0  0  0  0  0  0
    2.5209    0.3738    0.0712 N   0  0  0  0  0  0  0  0  0  0  0  0
    3.8510   -0.1877    0.0067 C   0  0  2  0  0  0  0  0  0  0  0  0
    4.7209    0.5459    1.0189 C   0  0  0  0  0  0  0  0  0  0  0  0
    4.4572    1.6704    1.4397 O   0  0  0  0  0  0  0  0  0  0  0  0
    4.4326   -0.0733   -1.3938 C   0  0  0  0  0  0  0  0  0  0  0  0
    2.3171    1.1976   -0.4866 H   0  0  0  0  0  0  0  0  0  0  0  0
    3.7640   -1.2411    0.2946 H   0  0  0  0  0  0  0  0  0  0  0  0
    4.5274    0.9750   -1.6997 H   0  0  0  0  0  0  0  0  0  0  0  0
    5.4288   -0.5247   -1.4479 H   0  0  0  0  0  0  0  0  0  0  0  0
    3.7903   -0.5761   -2.1248 H   0  0  0  0  0  0  0  0  0  0  0  0
    5.8490   -0.1849    1.3645 N   0  0  0  0  0  0  0  0  0  0  0  0
    6.8372    0.3016    2.2987 C   0  0  0  0  0  0  0  0  0  0  0  0
    5.9774   -1.1167    0.9811 H   0  0  0  0  0  0  0  0  0  0  0  0
    7.6350    0.8239    1.7504 H   0  0  0  0  0  0  0  0  0  0  0  0
    6.3619    0.9977    3.0056 H   0  0  0  0  0  0  0  0  0  0  0  0
    7.2671   -0.5463    2.8521 H   0  0  0  0  0  0  0  0  0  0  0  0
  1  3  1  0  0  0  0
  1  7  1  0  0  0  0
  1  2  2  0  0  0  0
 34 35  1  0  0  0  0
 35 43  1  0  0  0  0
 35 36  2  0  0  0  0
  8  9  1  0  0  0  0
  9 17  1  0  0  0  0
  9 10  2  0  0  0  0
 18 19  1  0  0  0  0
 19 33  1  0  0  0  0
 19 20  2  0  0  0  0
 22 23  1  0  0  0  0
 23 24  2  0  0  0  0
 23 25  1  0  0  0  0
 34 37  1  0  0  0  0
  8 11  1  0  0  0  0
 43 44  1  0  0  0  0
 21 22  1  0  0  0  0
 18 21  1  0  0  0  0
 33 34  1  0  0  0  0
  7  8  1  0  0  0  0
 17 18  1  0  0  0  0
  3  4  1  0  0  0  0
  3  5  1  0  0  0  0
  3  6  1  0  0  0  0
 37 40  1  0  0  0  0
 37 41  1  0  0  0  0
 37 42  1  0  0  0  0
 11 14  1  0  0  0  0
 11 15  1  0  0  0  0
 11 16  1  0  0  0  0
 44 46  1  0  0  0  0
 44 47  1  0  0  0  0
 44 48  1  0  0  0  0
 22 30  1  0  0  0  0
 22 31  1  0  0  0  0
 21 28  1  0  0  0  0
 21 29  1  0  0  0  0
 34 39  1  0  0  0  0
  8 13  1  0  0  0  0
 18 27  1  0  0  0  0
 43 45  1  0  0  0  0
  7 12  1  0  0  0  0
 33 38  1  0  0  0  0
 17 26  1  0  0  0  0
 25 32  1  0  0  0  0
M  END
$$$$

  -OEChem-05262214473D

 48 47  0     1  0  0  0  0  0999 V2000
   -5.5827   -1.3473    1.4591 C   0  0  0  0  0  0  0  0  0  0  0  0
   -5.7053   -2.4696    0.9825 O   0  0  0  0  0  0  0  0  0  0  0  0
   -6.7879   -0.6277    1.9670 C   0  0  0  0  0  0  0  0  0  0  0  0
   -7.2718   -0.0164    1.1885 H   0  0  0  0  0  0  0  0  0  0  0  0
   -7.5699   -1.3171    2.3239 H   0  0  0  0  0  0  0  0  0  0  0  0
   -6.6057    0.0628    2.8060 H   0  0  0  0  0  0  0  0  0  0  0  0
   -4.4001   -0.6377    1.5884 N   0  0  0  0  0  0  0  0  0  0  0  0
   -3.1220   -1.1455    1.1644 C   0  0  2  0  0  0  0  0  0  0  0  0
   -2.2017    0.0428    0.9187 C   0  0  0  0  0  0  0  0  0  0  0  0
   -2.6171    1.1750    0.6807 O   0  0  0  0  0  0  0  0  0  0  0  0
   -3.2533   -1.9992   -0.0873 C   0  0  0  0  0  0  0  0  0  0  0  0
   -4.4370    0.2910    2.0047 H   0  0  0  0  0  0  0  0  0  0  0  0
   -2.7302   -1.7467    1.9921 H   0  0  0  0  0  0  0  0  0  0  0  0
   -3.6446   -1.4140   -0.9275 H   0  0  0  0  0  0  0  0  0  0  0  0
   -2.2844   -2.4081   -0.3922 H   0  0  0  0  0  0  0  0  0  0  0  0
   -3.9388   -2.8365    0.0822 H   0  0  0  0  0  0  0  0  0  0  0  0
   -0.8768   -0.3314    0.9568 N   0  0  0  0  0  0  0  0  0  0  0  0
    0.2067    0.6285    0.7375 C   0  0  2  0  0  0  0  0  0  0  0  0
    1.5091   -0.1570    0.8575 C   0  0  0  0  0  0  0  0  0  0  0  0
    1.5557   -1.2907    1.3307 O   0  0  0  0  0  0  0  0  0  0  0  0
    0.1062    1.7536    1.7784 C   0  0  0  0  0  0  0  0  0  0  0  0
   -1.1324    2.6335    1.6106 C   0  0  0  0  0  0  0  0  0  0  0  0
   -1.2070    3.7097    2.6648 C   0  0  0  0  0  0  0  0  0  0  0  0
   -0.4429    3.7834    3.6187 O   0  0  0  0  0  0  0  0  0  0  0  0
   -2.2289    4.5773    2.4613 O   0  0  0  0  0  0  0  0  0  0  0  0
   -0.6087   -1.2764    1.1771 H   0  0  0  0  0  0  0  0  0  0  0  0
    0.1018    1.0442   -0.2700 H   0  0  0  0  0  0  0  0  0  0  0  0
    0.0978    1.3148    2.7851 H   0  0  0  0  0  0  0  0  0  0  0  0
    0.9933    2.3984    1.7252 H   0  0  0  0  0  0  0  0  0  0  0  0
   -1.0946    3.1424    0.6396 H   0  0  0  0  0  0  0  0  0  0  0  0
   -2.0549    2.0439    1.5968 H   0  0  0  0  0  0  0  0  0  0  0  0
   -2.3242    5.2829    3.1358 H   0  0  0  0  0  0  0  0  0  0  0  0
    2.5958    0.5408    0.3515 N   0  0  0  0  0  0  0  0  0  0  0  0
    3.9419    0.0148    0.3462 C   0  0  2  0  0  0  0  0  0  0  0  0
    4.6452    0.5097    1.6031 C   0  0  0  0  0  0  0  0  0  0  0  0
    4.2891    1.5111    2.2209 O   0  0  0  0  0  0  0  0  0  0  0  0
    4.6975    0.4409   -0.9029 C   0  0  0  0  0  0  0  0  0  0  0  0
    2.4378    1.4669   -0.0341 H   0  0  0  0  0  0  0  0  0  0  0  0
    3.8551   -1.0766    0.3813 H   0  0  0  0  0  0  0  0  0  0  0  0
    4.7944    1.5314   -0.9555 H   0  0  0  0  0  0  0  0  0  0  0  0
    5.7075    0.0181   -0.9192 H   0  0  0  0  0  0  0  0  0  0  0  0
    4.1746    0.1097   -1.8066 H   0  0  0  0  0  0  0  0  0  0  0  0
    5.7434   -0.2736    1.9294 N   0  0  0  0  0  0  0  0  0  0  0  0
    6.5830   -0.0016    3.0728 C   0  0  0  0  0  0  0  0  0  0  0  0
    5.9538   -1.0961    1.3719 H   0  0  0  0  0  0  0  0  0  0  0  0
    7.4268    0.6338    2.7659 H   0  0  0  0  0  0  0  0  0  0  0  0
    5.9949    0.5173    3.8441 H   0  0  0  0  0  0  0  0  0  0  0  0
    6.9664   -0.9490    3.4796 H   0  0  0  0  0  0  0  0  0  0  0  0
  1  3  1  0  0  0  0
  1  7  1  0  0  0  0
  1  2  2  0  0  0  0
 34 35  1  0  0  0  0
 35 43  1  0  0  0  0
 35 36  2  0  0  0  0
  8  9  1  0  0  0  0
  9 17  1  0  0  0  0
  9 10  2  0  0  0  0
 18 19  1  0  0  0  0
 19 33  1  0  0  0  0
 19 20  2  0  0  0  0
 22 23  1  0  0  0  0
 23 24  2  0  0  0  0
 23 25  1  0  0  0  0
 34 37  1  0  0  0  0
  8 11  1  0  0  0  0
 43 44  1  0  0  0  0
 21 22  1  0  0  0  0
 18 21  1  0  0  0  0
 33 34  1  0  0  0  0
  7  8  1  0  0  0  0
 17 18  1  0  0  0  0
  3  4  1  0  0  0  0
  3  5  1  0  0  0  0
  3  6  1  0  0  0  0
 37 40  1  0  0  0  0
 37 41  1  0  0  0  0
 37 42  1  0  0  0  0
 11 14  1  0  0  0  0
 11 15  1  0  0  0  0
 11 16  1  0  0  0  0
 44 46  1  0  0  0  0
 44 47  1  0  0  0  0
 44 48  1  0  0  0  0
 22 30  1  0  0  0  0
 22 31  1  0  0  0  0
 21 28  1  0  0  0  0
 21 29  1  0  0  0  0
 34 39  1  0  0  0  0
  8 13  1  0  0  0  0
 18 27  1  0  0  0  0
 43 45  1  0  0  0  0
  7 12  1  0  0  0  0
 33 38  1  0  0  0  0
 17 26  1  0  0  0  0
 25 32  1  0  0  0  0
M  END
$$$$

  -OEChem-05262214473D

 48 47  0     1  0  0  0  0  0999 V2000
   -5.5827   -1.3473    1.4591 C   0  0  0  0  0  0  0  0  0  0  0  0
   -5.7053   -2.4696    0.9825 O   0  0  0  0  0  0  0  0  0  0  0  0
   -6.7879   -0.6277    1.9670 C   0  0  0  0  0  0  0  0  0  0  0  0
   -7.2718   -0.0164    1.1885 H   0  0  0  0  0  0  0  0  0  0  0  0
   -7.5699   -1.3171    2.3239 H   0  0  0  0  0  0  0  0  0  0  0  0
   -6.6057    0.0628    2.8060 H   0  0  0  0  0  0  0  0  0  0  0  0
   -4.4001   -0.6377    1.5884 N   0  0  0  0  0  0  0  0  0  0  0  0
   -3.1220   -1.1455    1.1644 C   0  0  2  0  0  0  0  0  0  0  0  0
   -2.2017    0.0428    0.9187 C   0  0  0  0  0  0  0  0  0  0  0  0
   -2.6171    1.1750    0.6807 O   0  0  0  0  0  0  0  0  0  0  0  0
   -3.2533   -1.9992   -0.0873 C   0  0  0  0  0  0  0  0  0  0  0  0
   -4.4370    0.2910    2.0047 H   0  0  0  0  0  0  0  0  0  0  0  0
   -2.7302   -1.7467    1.9921 H   0  0  0  0  0  0  0  0  0  0  0  0
   -3.6446   -1.4140   -0.9275 H   0  0  0  0  0  0  0  0  0  0  0  0
   -2.2844   -2.4081   -0.3922 H   0  0  0  0  0  0  0  0  0  0  0  0
   -3.9388   -2.8365    0.0822 H   0  0  0  0  0  0  0  0  0  0  0  0
   -0.8768   -0.3314    0.9568 N   0  0  0  0  0  0  0  0  0  0  0  0
    0.2067    0.6285    0.7375 C   0  0  2  0  0  0  0  0  0  0  0  0
    1.4655   -0.1941    0.4797 C   0  0  0  0  0  0  0  0  0  0  0  0
    1.4580   -1.4232    0.4551 O   0  0  0  0  0  0  0  0  0  0  0  0
    0.3427    1.5311    1.9729 C   0  0  0  0  0  0  0  0  0  0  0  0
   -0.8560    2.4542    2.1911 C   0  0  0  0  0  0  0  0  0  0  0  0
   -0.6950    3.3057    3.4257 C   0  0  0  0  0  0  0  0  0  0  0  0
    0.2197    3.1751    4.2291 O   0  0  0  0  0  0  0  0  0  0  0  0
   -1.6870    4.2188    3.5695 O   0  0  0  0  0  0  0  0  0  0  0  0
   -0.6087   -1.2764    1.1771 H   0  0  0  0  0  0  0  0  0  0  0  0
   -0.0407    1.2349   -0.1401 H   0  0  0  0  0  0  0  0  0  0  0  0
    0.4772    0.9048    2.8649 H   0  0  0  0  0  0  0  0  0  0  0  0
    1.2429    2.1541    1.8889 H   0  0  0  0  0  0  0  0  0  0  0  0
   -0.9517    3.1415    1.3417 H   0  0  0  0  0  0  0  0  0  0  0  0
   -1.7992    1.8992    2.2269 H   0  0  0  0  0  0  0  0  0  0  0  0
   -1.6298    4.7814    4.3709 H   0  0  0  0  0  0  0  0  0  0  0  0
    2.5794    0.6009    0.2540 N   0  0  0  0  0  0  0  0  0  0  0  0
    3.8939    0.0642   -0.0159 C   0  0  2  0  0  0  0  0  0  0  0  0
    4.6474   -0.0208    1.3049 C   0  0  0  0  0  0  0  0  0  0  0  0
    4.3594    0.6607    2.2866 O   0  0  0  0  0  0  0  0  0  0  0  0
    4.6480    0.9249   -1.0175 C   0  0  0  0  0  0  0  0  0  0  0  0
    2.4658    1.6097    0.2796 H   0  0  0  0  0  0  0  0  0  0  0  0
    3.7473   -0.9438   -0.4189 H   0  0  0  0  0  0  0  0  0  0  0  0
    4.8044    1.9387   -0.6312 H   0  0  0  0  0  0  0  0  0  0  0  0
    5.6325    0.5015   -1.2425 H   0  0  0  0  0  0  0  0  0  0  0  0
    4.0904    1.0093   -1.9565 H   0  0  0  0  0  0  0  0  0  0  0  0
    5.7065   -0.9158    1.2449 N   0  0  0  0  0  0  0  0  0  0  0  0
    6.5815   -1.1646    2.3667 C   0  0  0  0  0  0  0  0  0  0  0  0
    5.8602   -1.4518    0.3959 H   0  0  0  0  0  0  0  0  0  0  0  0
    7.4533   -0.4965    2.3077 H   0  0  0  0  0  0  0  0  0  0  0  0
    6.0380   -0.9761    3.3043 H   0  0  0  0  0  0  0  0  0  0  0  0
    6.9194   -2.2112    2.3429 H   0  0  0  0  0  0  0  0  0  0  0  0
  1  3  1  0  0  0  0
  1  7  1  0  0  0  0
  1  2  2  0  0  0  0
 34 35  1  0  0  0  0
 35 43  1  0  0  0  0
 35 36  2  0  0  0  0
  8  9  1  0  0  0  0
  9 17  1  0  0  0  0
  9 10  2  0  0  0  0
 18 19  1  0  0  0  0
 19 33  1  0  0  0  0
 19 20  2  0  0  0  0
 22 23  1  0  0  0  0
 23 24  2  0  0  0  0
 23 25  1  0  0  0  0
 34 37  1  0  0  0  0
  8 11  1  0  0  0  0
 43 44  1  0  0  0  0
 21 22  1  0  0  0  0
 18 21  1  0  0  0  0
 33 34  1  0  0  0  0
  7  8  1  0  0  0  0
 17 18  1  0  0  0  0
  3  4  1  0  0  0  0
  3  5  1  0  0  0  0
  3  6  1  0  0  0  0
 37 40  1  0  0  0  0
 37 41  1  0  0  0  0
 37 42  1  0  0  0  0
 11 14  1  0  0  0  0
 11 15  1  0  0  0  0
 11 16  1  0  0  0  0
 44 46  1  0  0  0  0
 44 47  1  0  0  0  0
 44 48  1  0  0  0  0
 22 30  1  0  0  0  0
 22 31  1  0  0  0  0
 21 28  1  0  0  0  0
 21 29  1  0  0  0  0
 34 39  1  0  0  0  0
  8 13  1  0  0  0  0
 18 27  1  0  0  0  0
 43 45  1  0  0  0  0
  7 12  1  0  0  0  0
 33 38  1  0  0  0  0
 17 26  1  0  0  0  0
 25 32  1  0  0  0  0
M  END
$$$$

  -OEChem-05262214473D

 48 47  0     1  0  0  0  0  0999 V2000
   -5.5827   -1.3473    1.4591 C   0  0  0  0  0  0  0  0  0  0  0  0
   -5.7053   -2.4696    0.9825 O   0  0  0  0  0  0  0  0  0  0  0  0
   -6.7879   -0.6277    1.9670 C   0  0  0  0  0  0  0  0  0  0  0  0
   -7.2718   -0.0164    1.1885 H   0  0  0  0  0  0  0  0  0  0  0  0
   -7.5699   -1.3171    2.3239 H   0  0  0  0  0  0  0  0  0  0  0  0
   -6.6057    0.0628    2.8060 H   0  0  0  0  0  0  0  0  0  0  0  0
   -4.4001   -0.6377    1.5884 N   0  0  0  0  0  0  0  0  0  0  0  0
   -3.1220   -1.1455    1.1644 C   0  0  2  0  0  0  0  0  0  0  0  0
   -2.2017    0.0428    0.9187 C   0  0  0  0  0  0  0  0  0  0  0  0
   -2.6171    1.1750    0.6807 O   0  0  0  0  0  0  0  0  0  0  0  0
   -3.2533   -1.9992   -0.0873 C   0  0  0  0  0  0  0  0  0  0  0  0
   -4.4370    0.2910    2.0047 H   0  0  0  0  0  0  0  0  0  0  0  0
   -2.7302   -1.7467    1.9921 H   0  0  0  0  0  0  0  0  0  0  0  0
   -3.6446   -1.4140   -0.9275 H   0  0  0  0  0  0  0  0  0  0  0  0
   -2.2844   -2.4081   -0.3922 H   0  0  0  0  0  0  0  0  0  0  0  0
   -3.9388   -2.8365    0.0822 H   0  0  0  0  0  0  0  0  0  0  0  0
   -0.8768   -0.3314    0.9568 N   0  0  0  0  0  0  0  0  0  0  0  0
    0.2067    0.6285    0.7375 C   0  0  2  0  0  0  0  0  0  0  0  0
    1.4655   -0.1941    0.4797 C   0  0  0  0  0  0  0  0  0  0  0  0
    1.4265   -1.3879    0.1887 O   0  0  0  0  0  0  0  0  0  0  0  0
    0.3427    1.5311    1.9729 C   0  0  0  0  0  0  0  0  0  0  0  0
   -0.8560    2.4542    2.1911 C   0  0  0  0  0  0  0  0  0  0  0  0
   -0.6950    3.3057    3.4257 C   0  0  0  0  0  0  0  0  0  0  0  0
    0.2197    3.1751    4.2291 O   0  0  0  0  0  0  0  0  0  0  0  0
   -1.6870    4.2188    3.5695 O   0  0  0  0  0  0  0  0  0  0  0  0
   -0.6087   -1.2764    1.1771 H   0  0  0  0  0  0  0  0  0  0  0  0
   -0.0407    1.2349   -0.1401 H   0  0  0  0  0  0  0  0  0  0  0  0
    0.4772    0.9048    2.8649 H   0  0  0  0  0  0  0  0  0  0  0  0
    1.2429    2.1541    1.8889 H   0  0  0  0  0  0  0  0  0  0  0  0
   -0.9517    3.1415    1.3417 H   0  0  0  0  0  0  0  0  0  0  0  0
   -1.7992    1.8992    2.2269 H   0  0  0  0  0  0  0  0  0  0  0  0
   -1.6298    4.7814    4.3709 H   0  0  0  0  0  0  0  0  0  0  0  0
    2.6226    0.5636    0.5839 N   0  0  0  0  0  0  0  0  0  0  0  0
    3.9464    0.0193    0.3838 C   0  0  2  0  0  0  0  0  0  0  0  0
    4.4987   -0.3860    1.7441 C   0  0  0  0  0  0  0  0  0  0  0  0
    4.0916    0.0894    2.8021 O   0  0  0  0  0  0  0  0  0  0  0  0
    4.8614    1.0255   -0.2965 C   0  0  0  0  0  0  0  0  0  0  0  0
    2.5353    1.5494    0.8119 H   0  0  0  0  0  0  0  0  0  0  0  0
    3.8308   -0.8709   -0.2440 H   0  0  0  0  0  0  0  0  0  0  0  0
    4.9893    1.9243    0.3177 H   0  0  0  0  0  0  0  0  0  0  0  0
    5.8556    0.6017   -0.4731 H   0  0  0  0  0  0  0  0  0  0  0  0
    4.4478    1.3383   -1.2613 H   0  0  0  0  0  0  0  0  0  0  0  0
    5.5293   -1.3091    1.6349 N   0  0  0  0  0  0  0  0  0  0  0  0
    6.2258   -1.8395    2.7836 C   0  0  0  0  0  0  0  0  0  0  0  0
    5.7886   -1.6626    0.7186 H   0  0  0  0  0  0  0  0  0  0  0  0
    7.1158   -1.2265    2.9888 H   0  0  0  0  0  0  0  0  0  0  0  0
    5.5583   -1.8208    3.6578 H   0  0  0  0  0  0  0  0  0  0  0  0
    6.5336   -2.8757    2.5794 H   0  0  0  0  0  0  0  0  0  0  0  0
  1  3  1  0  0  0  0
  1  7  1  0  0  0  0
  1  2  2  0  0  0  0
 34 35  1  0  0  0  0
 35 43  1  0  0  0  0
 35 36  2  0  0  0  0
  8  9  1  0  0  0  0
  9 17  1  0  0  0  0
  9 10  2  0  0  0  0
 18 19  1  0  0  0  0
 19 33  1  0  0  0  0
 19 20  2  0  0  0  0
 22 23  1  0  0  0  0
 23 24  2  0  0  0  0
 23 25  1  0  0  0  0
 34 37  1  0  0  0  0
  8 11  1  0  0  0  0
 43 44  1  0  0  0  0
 21 22  1  0  0  0  0
 18 21  1  0  0  0  0
 33 34  1  0  0  0  0
  7  8  1  0  0  0  0
 17 18  1  0  0  0  0
  3  4  1  0  0  0  0
  3  5  1  0  0  0  0
  3  6  1  0  0  0  0
 37 40  1  0  0  0  0
 37 41  1  0  0  0  0
 37 42  1  0  0  0  0
 11 14  1  0  0  0  0
 11 15  1  0  0  0  0
 11 16  1  0  0  0  0
 44 46  1  0  0  0  0
 44 47  1  0  0  0  0
 44 48  1  0  0  0  0
 22 30  1  0  0  0  0
 22 31  1  0  0  0  0
 21 28  1  0  0  0  0
 21 29  1  0  0  0  0
 34 39  1  0  0  0  0
  8 13  1  0  0  0  0
 18 27  1  0  0  0  0
 43 45  1  0  0  0  0
  7 12  1  0  0  0  0
 33 38  1  0  0  0  0
 17 26  1  0  0  0  0
 25 32  1  0  0  0  0
M  END
$$$$

  -OEChem-05262214473D

 48 47  0     1  0  0  0  0  0999 V2000
   -5.5827   -1.3473    1.4591 C   0  0  0  0  0  0  0  0  0  0  0  0
   -5.7053   -2.4696    0.9825 O   0  0  0  0  0  0  0  0  0  0  0  0
   -6.7879   -0.6277    1.9670 C   0  0  0  0  0  0  0  0  0  0  0  0
   -7.2718   -0.0164    1.1885 H   0  0  0  0  0  0  0  0  0  0  0  0
   -7.5699   -1.3171    2.3239 H   0  0  0  0  0  0  0  0  0  0  0  0
   -6.6057    0.0628    2.8060 H   0  0  0  0  0  0  0  0  0  0  0  0
   -4.4001   -0.6377    1.5884 N   0  0  0  0  0  0  0  0  0  0  0  0
   -3.1220   -1.1455    1.1644 C   0  0  2  0  0  0  0  0  0  0  0  0
   -2.2017    0.0428    0.9187 C   0  0  0  0  0  0  0  0  0  0  0  0
   -2.6171    1.1750    0.6807 O   0  0  0  0  0  0  0  0  0  0  0  0
   -3.2533   -1.9992   -0.0873 C   0  0  0  0  0  0  0  0  0  0  0  0
   -4.4370    0.2910    2.0047 H   0  0  0  0  0  0  0  0  0  0  0  0
   -2.7302   -1.7467    1.9921 H   0  0  0  0  0  0  0  0  0  0  0  0
   -3.6446   -1.4140   -0.9275 H   0  0  0  0  0  0  0  0  0  0  0  0
   -2.2844   -2.4081   -0.3922 H   0  0  0  0  0  0  0  0  0  0  0  0
   -3.9388   -2.8365    0.0822 H   0  0  0  0  0  0  0  0  0  0  0  0
   -0.8768   -0.3314    0.9568 N   0  0  0  0  0  0  0  0  0  0  0  0
    0.2067    0.6285    0.7375 C   0  0  2  0  0  0  0  0  0  0  0  0
    1.4655   -0.1941    0.4797 C   0  0  0  0  0  0  0  0  0  0  0  0
    1.4349   -1.2955   -0.0656 O   0  0  0  0  0  0  0  0  0  0  0  0
    0.3427    1.5311    1.9729 C   0  0  0  0  0  0  0  0  0  0  0  0
   -0.8560    2.4542    2.1911 C   0  0  0  0  0  0  0  0  0  0  0  0
   -0.6950    3.3057    3.4257 C   0  0  0  0  0  0  0  0  0  0  0  0
    0.2197    3.1751    4.2291 O   0  0  0  0  0  0  0  0  0  0  0  0
   -1.6870    4.2188    3.5695 O   0  0  0  0  0  0  0  0  0  0  0  0
   -0.6087   -1.2764    1.1771 H   0  0  0  0  0  0  0  0  0  0  0  0
   -0.0407    1.2349   -0.1401 H   0  0  0  0  0  0  0  0  0  0  0  0
    0.4772    0.9048    2.8649 H   0  0  0  0  0  0  0  0  0  0  0  0
    1.2429    2.1541    1.8889 H   0  0  0  0  0  0  0  0  0  0  0  0
   -0.9517    3.1415    1.3417 H   0  0  0  0  0  0  0  0  0  0  0  0
   -1.7992    1.8992    2.2269 H   0  0  0  0  0  0  0  0  0  0  0  0
   -1.6298    4.7814    4.3709 H   0  0  0  0  0  0  0  0  0  0  0  0
    2.6166    0.4552    0.9005 N   0  0  0  0  0  0  0  0  0  0  0  0
    3.9393   -0.1118    0.7677 C   0  0  2  0  0  0  0  0  0  0  0  0
    4.2778   -0.8260    2.0695 C   0  0  0  0  0  0  0  0  0  0  0  0
    3.7360   -0.5608    3.1406 O   0  0  0  0  0  0  0  0  0  0  0  0
    4.9714    0.9594    0.4512 C   0  0  0  0  0  0  0  0  0  0  0  0
    2.5256    1.3743    1.3228 H   0  0  0  0  0  0  0  0  0  0  0  0
    3.8901   -0.8416   -0.0478 H   0  0  0  0  0  0  0  0  0  0  0  0
    5.0349    1.6997    1.2570 H   0  0  0  0  0  0  0  0  0  0  0  0
    5.9680    0.5245    0.3226 H   0  0  0  0  0  0  0  0  0  0  0  0
    4.7104    1.4921   -0.4697 H   0  0  0  0  0  0  0  0  0  0  0  0
    5.2866   -1.7645    1.9029 N   0  0  0  0  0  0  0  0  0  0  0  0
    5.7945   -2.5649    2.9926 C   0  0  0  0  0  0  0  0  0  0  0  0
    5.6651   -1.9319    0.9753 H   0  0  0  0  0  0  0  0  0  0  0  0
    6.6627   -2.0622    3.4437 H   0  0  0  0  0  0  0  0  0  0  0  0
    5.0087   -2.6913    3.7518 H   0  0  0  0  0  0  0  0  0  0  0  0
    6.0989   -3.5511    2.6121 H   0  0  0  0  0  0  0  0  0  0  0  0
  1  3  1  0  0  0  0
  1  7  1  0  0  0  0
  1  2  2  0  0  0  0
 34 35  1  0  0  0  0
 35 43  1  0  0  0  0
 35 36  2  0  0  0  0
  8  9  1  0  0  0  0
  9 17  1  0  0  0  0
  9 10  2  0  0  0  0
 18 19  1  0  0  0  0
 19 33  1  0  0  0  0
 19 20  2  0  0  0  0
 22 23  1  0  0  0  0
 23 24  2  0  0  0  0
 23 25  1  0  0  0  0
 34 37  1  0  0  0  0
  8 11  1  0  0  0  0
 43 44  1  0  0  0  0
 21 22  1  0  0  0  0
 18 21  1  0  0  0  0
 33 34  1  0  0  0  0
  7  8  1  0  0  0  0
 17 18  1  0  0  0  0
  3  4  1  0  0  0  0
  3  5  1  0  0  0  0
  3  6  1  0  0  0  0
 37 40  1  0  0  0  0
 37 41  1  0  0  0  0
 37 42  1  0  0  0  0
 11 14  1  0  0  0  0
 11 15  1  0  0  0  0
 11 16  1  0  0  0  0
 44 46  1  0  0  0  0
 44 47  1  0  0  0  0
 44 48  1  0  0  0  0
 22 30  1  0  0  0  0
 22 31  1  0  0  0  0
 21 28  1  0  0  0  0
 21 29  1  0  0  0  0
 34 39  1  0  0  0  0
  8 13  1  0  0  0  0
 18 27  1  0  0  0  0
 43 45  1  0  0  0  0
  7 12  1  0  0  0  0
 33 38  1  0  0  0  0
 17 26  1  0  0  0  0
 25 32  1  0  0  0  0
M  END
$$$$

  -OEChem-05262214473D

 48 47  0     1  0  0  0  0  0999 V2000
   -5.5827   -1.3473    1.4591 C   0  0  0  0  0  0  0  0  0  0  0  0
   -5.7053   -2.4696    0.9825 O   0  0  0  0  0  0  0  0  0  0  0  0
   -6.7879   -0.6277    1.9670 C   0  0  0  0  0  0  0  0  0  0  0  0
   -7.2718   -0.0164    1.1885 H   0  0  0  0  0  0  0  0  0  0  0  0
   -7.5699   -1.3171    2.3239 H   0  0  0  0  0  0  0  0  0  0  0  0
   -6.6057    0.0628    2.8060 H   0  0  0  0  0  0  0  0  0  0  0  0
   -4.4001   -0.6377    1.5884 N   0  0  0  0  0  0  0  0  0  0  0  0
   -3.1220   -1.1455    1.1644 C   0  0  2  0  0  0  0  0  0  0  0  0
   -2.2017    0.0428    0.9187 C   0  0  0  0  0  0  0  0  0  0  0  0
   -2.6171    1.1750    0.6807 O   0  0  0  0  0  0  0  0  0  0  0  0
   -3.2533   -1.9992   -0.0873 C   0  0  0  0  0  0  0  0  0  0  0  0
   -4.4370    0.2910    2.0047 H   0  0  0  0  0  0  0  0  0  0  0  0
   -2.7302   -1.7467    1.9921 H   0  0  0  0  0  0  0  0  0  0  0  0
   -3.6446   -1.4140   -0.9275 H   0  0  0  0  0  0  0  0  0  0  0  0
   -2.2844   -2.4081   -0.3922 H   0  0  0  0  0  0  0  0  0  0  0  0
   -3.9388   -2.8365    0.0822 H   0  0  0  0  0  0  0  0  0  0  0  0
   -0.8768   -0.3314    0.9568 N   0  0  0  0  0  0  0  0  0  0  0  0
    0.2067    0.6285    0.7375 C   0  0  2  0  0  0  0  0  0  0  0  0
    1.4655   -0.1941    0.4797 C   0  0  0  0  0  0  0  0  0  0  0  0
    1.4824   -1.1523   -0.2903 O   0  0  0  0  0  0  0  0  0  0  0  0
    0.3427    1.5311    1.9729 C   0  0  0  0  0  0  0  0  0  0  0  0
   -0.8560    2.4542    2.1911 C   0  0  0  0  0  0  0  0  0  0  0  0
   -0.6950    3.3057    3.4257 C   0  0  0  0  0  0  0  0  0  0  0  0
    0.2197    3.1751    4.2291 O   0  0  0  0  0  0  0  0  0  0  0  0
   -1.6870    4.2188    3.5695 O   0  0  0  0  0  0  0  0  0  0  0  0
   -0.6087   -1.2764    1.1771 H   0  0  0  0  0  0  0  0  0  0  0  0
   -0.0407    1.2349   -0.1401 H   0  0  0  0  0  0  0  0  0  0  0  0
    0.4772    0.9048    2.8649 H   0  0  0  0  0  0  0  0  0  0  0  0
    1.2429    2.1541    1.8889 H   0  0  0  0  0  0  0  0  0  0  0  0
   -0.9517    3.1415    1.3417 H   0  0  0  0  0  0  0  0  0  0  0  0
   -1.7992    1.8992    2.2269 H   0  0  0  0  0  0  0  0  0  0  0  0
   -1.6298    4.7814    4.3709 H   0  0  0  0  0  0  0  0  0  0  0  0
    2.5619    0.2832    1.1825 N   0  0  0  0  0  0  0  0  0  0  0  0
    3.8732   -0.3200    1.1094 C   0  0  2  0  0  0  0  0  0  0  0  0
    3.9997   -1.3109    2.2591 C   0  0  0  0  0  0  0  0  0  0  0  0
    3.3169   -1.2456    3.2791 O   0  0  0  0  0  0  0  0  0  0  0  0
    4.9703    0.7311    1.1746 C   0  0  0  0  0  0  0  0  0  0  0  0
    2.4372    1.0966    1.7776 H   0  0  0  0  0  0  0  0  0  0  0  0
    3.9214   -0.8577    0.1562 H   0  0  0  0  0  0  0  0  0  0  0  0
    4.9380    1.2802    2.1227 H   0  0  0  0  0  0  0  0  0  0  0  0
    5.9622    0.2751    1.0904 H   0  0  0  0  0  0  0  0  0  0  0  0
    4.8602    1.4601    0.3645 H   0  0  0  0  0  0  0  0  0  0  0  0
    4.9948   -2.2510    2.0306 N   0  0  0  0  0  0  0  0  0  0  0  0
    5.3171   -3.2913    2.9793 C   0  0  0  0  0  0  0  0  0  0  0  0
    5.4983   -2.2415    1.1485 H   0  0  0  0  0  0  0  0  0  0  0  0
    6.1251   -2.9469    3.6415 H   0  0  0  0  0  0  0  0  0  0  0  0
    4.4267   -3.5282    3.5801 H   0  0  0  0  0  0  0  0  0  0  0  0
    5.6449   -4.1916    2.4388 H   0  0  0  0  0  0  0  0  0  0  0  0
  1  3  1  0  0  0  0
  1  7  1  0  0  0  0
  1  2  2  0  0  0  0
 34 35  1  0  0  0  0
 35 43  1  0  0  0  0
 35 36  2  0  0  0  0
  8  9  1  0  0  0  0
  9 17  1  0  0  0  0
  9 10  2  0  0  0  0
 18 19  1  0  0  0  0
 19 33  1  0  0  0  0
 19 20  2  0  0  0  0
 22 23  1  0  0  0  0
 23 24  2  0  0  0  0
 23 25  1  0  0  0  0
 34 37  1  0  0  0  0
  8 11  1  0  0  0  0
 43 44  1  0  0  0  0
 21 22  1  0  0  0  0
 18 21  1  0  0  0  0
 33 34  1  0  0  0  0
  7  8  1  0  0  0  0
 17 18  1  0  0  0  0
  3  4  1  0  0  0  0
  3  5  1  0  0  0  0
  3  6  1  0  0  0  0
 37 40  1  0  0  0  0
 37 41  1  0  0  0  0
 37 42  1  0  0  0  0
 11 14  1  0  0  0  0
 11 15  1  0  0  0  0
 11 16  1  0  0  0  0
 44 46  1  0  0  0  0
 44 47  1  0  0  0  0
 44 48  1  0  0  0  0
 22 30  1  0  0  0  0
 22 31  1  0  0  0  0
 21 28  1  0  0  0  0
 21 29  1  0  0  0  0
 34 39  1  0  0  0  0
  8 13  1  0  0  0  0
 18 27  1  0  0  0  0
 43 45  1  0  0  0  0
  7 12  1  0  0  0  0
 33 38  1  0  0  0  0
 17 26  1  0  0  0  0
 25 32  1  0  0  0  0
M  END
$$$$

  -OEChem-05262214473D

 48 47  0     1  0  0  0  0  0999 V2000
   -5.5827   -1.3473    1.4591 C   0  0  0  0  0  0  0  0  0  0  0  0
   -5.7053   -2.4696    0.9825 O   0  0  0  0  0  0  0  0  0  0  0  0
   -6.7879   -0.6277    1.9670 C   0  0  0  0  0  0  0  0  0  0  0  0
   -7.2718   -0.0164    1.1885 H   0  0  0  0  0  0  0  0  0  0  0  0
   -7.5699   -1.3171    2.3239 H   0  0  0  0  0  0  0  0  0  0  0  0
   -6.6057    0.0628    2.8060 H   0  0  0  0  0  0  0  0  0  0  0  0
   -4.4001   -0.6377    1.5884 N   0  0  0  0  0  0  0  0  0  0  0  0
   -3.1220   -1.1455    1.1644 C   0  0  2  0  0  0  0  0  0  0  0  0
   -2.2017    0.0428    0.9187 C   0  0  0  0  0  0  0  0  0  0  0  0
   -2.6171    1.1750    0.6807 O   0  0  0  0  0  0  0  0  0  0  0  0
   -3.2533   -1.9992   -0.0873 C   0  0  0  0  0  0  0  0  0  0  0  0
   -4.4370    0.2910    2.0047 H   0  0  0  0  0  0  0  0  0  0  0  0
   -2.7302   -1.7467    1.9921 H   0  0  0  0  0  0  0  0  0  0  0  0
   -3.6446   -1.4140   -0.9275 H   0  0  0  0  0  0  0  0  0  0  0  0
   -2.2844   -2.4081   -0.3922 H   0  0  0  0  0  0  0  0  0  0  0  0
   -3.9388   -2.8365    0.0822 H   0  0  0  0  0  0  0  0  0  0  0  0
   -0.8768   -0.3314    0.9568 N   0  0  0  0  0  0  0  0  0  0  0  0
    0.2067    0.6285    0.7375 C   0  0  2  0  0  0  0  0  0  0  0  0
    1.4655   -0.1941    0.4797 C   0  0  0  0  0  0  0  0  0  0  0  0
    1.5660   -0.9681   -0.4701 O   0  0  0  0  0  0  0  0  0  0  0  0
    0.3427    1.5311    1.9729 C   0  0  0  0  0  0  0  0  0  0  0  0
   -0.8560    2.4542    2.1911 C   0  0  0  0  0  0  0  0  0  0  0  0
   -0.6950    3.3057    3.4257 C   0  0  0  0  0  0  0  0  0  0  0  0
    0.2197    3.1751    4.2291 O   0  0  0  0  0  0  0  0  0  0  0  0
   -1.6870    4.2188    3.5695 O   0  0  0  0  0  0  0  0  0  0  0  0
   -0.6087   -1.2764    1.1771 H   0  0  0  0  0  0  0  0  0  0  0  0
   -0.0407    1.2349   -0.1401 H   0  0  0  0  0  0  0  0  0  0  0  0
    0.4772    0.9048    2.8649 H   0  0  0  0  0  0  0  0  0  0  0  0
    1.2429    2.1541    1.8889 H   0  0  0  0  0  0  0  0  0  0  0  0
   -0.9517    3.1415    1.3417 H   0  0  0  0  0  0  0  0  0  0  0  0
   -1.7992    1.8992    2.2269 H   0  0  0  0  0  0  0  0  0  0  0  0
   -1.6298    4.7814    4.3709 H   0  0  0  0  0  0  0  0  0  0  0  0
    2.4623    0.0592    1.4104 N   0  0  0  0  0  0  0  0  0  0  0  0
    3.7526   -0.5913    1.3859 C   0  0  2  0  0  0  0  0  0  0  0  0
    3.6835   -1.8076    2.2998 C   0  0  0  0  0  0  0  0  0  0  0  0
    2.8628   -1.9183    3.2082 O   0  0  0  0  0  0  0  0  0  0  0  0
    4.8583    0.3561    1.8245 C   0  0  0  0  0  0  0  0  0  0  0  0
    2.2762    0.7351    2.1452 H   0  0  0  0  0  0  0  0  0  0  0  0
    3.9224   -0.9182    0.3542 H   0  0  0  0  0  0  0  0  0  0  0  0
    4.7052    0.6943    2.8558 H   0  0  0  0  0  0  0  0  0  0  0  0
    5.8386   -0.1296    1.7780 H   0  0  0  0  0  0  0  0  0  0  0  0
    4.8872    1.2444    1.1843 H   0  0  0  0  0  0  0  0  0  0  0  0
    4.6738   -2.7355    2.0094 N   0  0  0  0  0  0  0  0  0  0  0  0
    4.8261   -3.9693    2.7448 C   0  0  0  0  0  0  0  0  0  0  0  0
    5.2994   -2.5702    1.2264 H   0  0  0  0  0  0  0  0  0  0  0  0
    5.5396   -3.8201    3.5686 H   0  0  0  0  0  0  0  0  0  0  0  0
    3.8518   -4.2744    3.1544 H   0  0  0  0  0  0  0  0  0  0  0  0
    5.2025   -4.7533    2.0713 H   0  0  0  0  0  0  0  0  0  0  0  0
  1  3  1  0  0  0  0
  1  7  1  0  0  0  0
  1  2  2  0  0  0  0
 34 35  1  0  0  0  0
 35 43  1  0  0  0  0
 35 36  2  0  0  0  0
  8  9  1  0  0  0  0
  9 17  1  0  0  0  0
  9 10  2  0  0  0  0
 18 19  1  0  0  0  0
 19 33  1  0  0  0  0
 19 20  2  0  0  0  0
 22 23  1  0  0  0  0
 23 24  2  0  0  0  0
 23 25  1  0  0  0  0
 34 37  1  0  0  0  0
  8 11  1  0  0  0  0
 43 44  1  0  0  0  0
 21 22  1  0  0  0  0
 18 21  1  0  0  0  0
 33 34  1  0  0  0  0
  7  8  1  0  0  0  0
 17 18  1  0  0  0  0
  3  4  1  0  0  0  0
  3  5  1  0  0  0  0
  3  6  1  0  0  0  0
 37 40  1  0  0  0  0
 37 41  1  0  0  0  0
 37 42  1  0  0  0  0
 11 14  1  0  0  0  0
 11 15  1  0  0  0  0
 11 16  1  0  0  0  0
 44 46  1  0  0  0  0
 44 47  1  0  0  0  0
 44 48  1  0  0  0  0
 22 30  1  0  0  0  0
 22 31  1  0  0  0  0
 21 28  1  0  0  0  0
 21 29  1  0  0  0  0
 34 39  1  0  0  0  0
  8 13  1  0  0  0  0
 18 27  1  0  0  0  0
 43 45  1  0  0  0  0
  7 12  1  0  0  0  0
 33 38  1  0  0  0  0
 17 26  1  0  0  0  0
 25 32  1  0  0  0  0
M  END
$$$$

  -OEChem-05262214473D

 48 47  0     1  0  0  0  0  0999 V2000
   -5.5827   -1.3473    1.4591 C   0  0  0  0  0  0  0  0  0  0  0  0
   -5.7053   -2.4696    0.9825 O   0  0  0  0  0  0  0  0  0  0  0  0
   -6.7879   -0.6277    1.9670 C   0  0  0  0  0  0  0  0  0  0  0  0
   -7.2718   -0.0164    1.1885 H   0  0  0  0  0  0  0  0  0  0  0  0
   -7.5699   -1.3171    2.3239 H   0  0  0  0  0  0  0  0  0  0  0  0
   -6.6057    0.0628    2.8060 H   0  0  0  0  0  0  0  0  0  0  0  0
   -4.4001   -0.6377    1.5884 N   0  0  0  0  0  0  0  0  0  0  0  0
   -3.1220   -1.1455    1.1644 C   0  0  2  0  0  0  0  0  0  0  0  0
   -2.2017    0.0428    0.9187 C   0  0  0  0  0  0  0  0  0  0  0  0
   -2.6171    1.1750    0.6807 O   0  0  0  0  0  0  0  0  0  0  0  0
   -3.2533   -1.9992   -0.0873 C   0  0  0  0  0  0  0  0  0  0  0  0
   -4.4370    0.2910    2.0047 H   0  0  0  0  0  0  0  0  0  0  0  0
   -2.7302   -1.7467    1.9921 H   0  0  0  0  0  0  0  0  0  0  0  0
   -3.6446   -1.4140   -0.9275 H   0  0  0  0  0  0  0  0  0  0  0  0
   -2.2844   -2.4081   -0.3922 H   0  0  0  0  0  0  0  0  0  0  0  0
   -3.9388   -2.8365    0.0822 H   0  0  0  0  0  0  0  0  0  0  0  0
   -0.8768   -0.3314    0.9568 N   0  0  0  0  0  0  0  0  0  0  0  0
    0.2067    0.6285    0.7375 C   0  0  2  0  0  0  0  0  0  0  0  0
    1.4655   -0.1941    0.4797 C   0  0  0  0  0  0  0  0  0  0  0  0
    1.6798   -0.7554   -0.5928 O   0  0  0  0  0  0  0  0  0  0  0  0
    0.3427    1.5311    1.9729 C   0  0  0  0  0  0  0  0  0  0  0  0
   -0.8560    2.4542    2.1911 C   0  0  0  0  0  0  0  0  0  0  0  0
   -0.6950    3.3057    3.4257 C   0  0  0  0  0  0  0  0  0  0  0  0
    0.2197    3.1751    4.2291 O   0  0  0  0  0  0  0  0  0  0  0  0
   -1.6870    4.2188    3.5695 O   0  0  0  0  0  0  0  0  0  0  0  0
   -0.6087   -1.2764    1.1771 H   0  0  0  0  0  0  0  0  0  0  0  0
   -0.0407    1.2349   -0.1401 H   0  0  0  0  0  0  0  0  0  0  0  0
    0.4772    0.9048    2.8649 H   0  0  0  0  0  0  0  0  0  0  0  0
    1.2429    2.1541    1.8889 H   0  0  0  0  0  0  0  0  0  0  0  0
   -0.9517    3.1415    1.3417 H   0  0  0  0  0  0  0  0  0  0  0  0
   -1.7992    1.8992    2.2269 H   0  0  0  0  0  0  0  0  0  0  0  0
   -1.6298    4.7814    4.3709 H   0  0  0  0  0  0  0  0  0  0  0  0
    2.3243   -0.2014    1.5688 N   0  0  0  0  0  0  0  0  0  0  0  0
    3.5856   -0.9071    1.5781 C   0  0  2  0  0  0  0  0  0  0  0  0
    3.3507   -2.2822    2.1890 C   0  0  0  0  0  0  0  0  0  0  0  0
    2.4046   -2.5331    2.9327 O   0  0  0  0  0  0  0  0  0  0  0  0
    4.6431   -0.1399    2.3565 C   0  0  0  0  0  0  0  0  0  0  0  0
    2.0536    0.3144    2.4007 H   0  0  0  0  0  0  0  0  0  0  0  0
    3.8931   -1.0189    0.5327 H   0  0  0  0  0  0  0  0  0  0  0  0
    4.3525   -0.0179    3.4064 H   0  0  0  0  0  0  0  0  0  0  0  0
    5.6055   -0.6619    2.3385 H   0  0  0  0  0  0  0  0  0  0  0  0
    4.7894    0.8599    1.9339 H   0  0  0  0  0  0  0  0  0  0  0  0
    4.3456   -3.1849    1.8407 N   0  0  0  0  0  0  0  0  0  0  0  0
    4.3548   -4.5526    2.3049 C   0  0  0  0  0  0  0  0  0  0  0  0
    5.0821   -2.8956    1.2038 H   0  0  0  0  0  0  0  0  0  0  0  0
    4.9459   -4.6224    3.2299 H   0  0  0  0  0  0  0  0  0  0  0  0
    3.3234   -4.8792    2.5035 H   0  0  0  0  0  0  0  0  0  0  0  0
    4.8020   -5.1981    1.5346 H   0  0  0  0  0  0  0  0  0  0  0  0
  1  3  1  0  0  0  0
  1  7  1  0  0  0  0
  1  2  2  0  0  0  0
 34 35  1  0  0  0  0
 35 43  1  0  0  0  0
 35 36  2  0  0  0  0
  8  9  1  0  0  0  0
  9 17  1  0  0  0  0
  9 10  2  0  0  0  0
 18 19  1  0  0  0  0
 19 33  1  0  0  0  0
 19 20  2  0  0  0  0
 22 23  1  0  0  0  0
 23 24  2  0  0  0  0
 23 25  1  0  0  0  0
 34 37  1  0  0  0  0
  8 11  1  0  0  0  0
 43 44  1  0  0  0  0
 21 22  1  0  0  0  0
 18 21  1  0  0  0  0
 33 34  1  0  0  0  0
  7  8  1  0  0  0  0
 17 18  1  0  0  0  0
  3  4  1  0  0  0  0
  3  5  1  0  0  0  0
  3  6  1  0  0  0  0
 37 40  1  0  0  0  0
 37 41  1  0  0  0  0
 37 42  1  0  0  0  0
 11 14  1  0  0  0  0
 11 15  1  0  0  0  0
 11 16  1  0  0  0  0
 44 46  1  0  0  0  0
 44 47  1  0  0  0  0
 44 48  1  0  0  0  0
 22 30  1  0  0  0  0
 22 31  1  0  0  0  0
 21 28  1  0  0  0  0
 21 29  1  0  0  0  0
 34 39  1  0  0  0  0
  8 13  1  0  0  0  0
 18 27  1  0  0  0  0
 43 45  1  0  0  0  0
  7 12  1  0  0  0  0
 33 38  1  0  0  0  0
 17 26  1  0  0  0  0
 25 32  1  0  0  0  0
M  END
$$$$

  -OEChem-05262214473D

 48 47  0     1  0  0  0  0  0999 V2000
   -5.5827   -1.3473    1.4591 C   0  0  0  0  0  0  0  0  0  0  0  0
   -5.7053   -2.4696    0.9825 O   0  0  0  0  0  0  0  0  0  0  0  0
   -6.7879   -0.6277    1.9670 C   0  0  0  0  0  0  0  0  0  0  0  0
   -7.2718   -0.0164    1.1885 H   0  0  0  0  0  0  0  0  0  0  0  0
   -7.5699   -1.3171    2.3239 H   0  0  0  0  0  0  0  0  0  0  0  0
   -6.6057    0.0628    2.8060 H   0  0  0  0  0  0  0  0  0  0  0  0
   -4.4001   -0.6377    1.5884 N   0  0  0  0  0  0  0  0  0  0  0  0
   -3.1220   -1.1455    1.1644 C   0  0  2  0  0  0  0  0  0  0  0  0
   -2.2017    0.0428    0.9187 C   0  0  0  0  0  0  0  0  0  0  0  0
   -2.6171    1.1750    0.6807 O   0  0  0  0  0  0  0  0  0  0  0  0
   -3.2533   -1.9992   -0.0873 C   0  0  0  0  0  0  0  0  0  0  0  0
   -4.4370    0.2910    2.0047 H   0  0  0  0  0  0  0  0  0  0  0  0
   -2.7302   -1.7467    1.9921 H   0  0  0  0  0  0  0  0  0  0  0  0
   -3.6446   -1.4140   -0.9275 H   0  0  0  0  0  0  0  0  0  0  0  0
   -2.2844   -2.4081   -0.3922 H   0  0  0  0  0  0  0  0  0  0  0  0
   -3.9388   -2.8365    0.0822 H   0  0  0  0  0  0  0  0  0  0  0  0
   -0.8768   -0.3314    0.9568 N   0  0  0  0  0  0  0  0  0  0  0  0
    0.2067    0.6285    0.7375 C   0  0  2  0  0  0  0  0  0  0  0  0
    1.4655   -0.1941    0.4797 C   0  0  0  0  0  0  0  0  0  0  0  0
    1.8162   -0.5288   -0.6500 O   0  0  0  0  0  0  0  0  0  0  0  0
    0.3427    1.5311    1.9729 C   0  0  0  0  0  0  0  0  0  0  0  0
   -0.8560    2.4542    2.1911 C   0  0  0  0  0  0  0  0  0  0  0  0
   -0.6950    3.3057    3.4257 C   0  0  0  0  0  0  0  0  0  0  0  0
    0.2197    3.1751    4.2291 O   0  0  0  0  0  0  0  0  0  0  0  0
   -1.6870    4.2188    3.5695 O   0  0  0  0  0  0  0  0  0  0  0  0
   -0.6087   -1.2764    1.1771 H   0  0  0  0  0  0  0  0  0  0  0  0
   -0.0407    1.2349   -0.1401 H   0  0  0  0  0  0  0  0  0  0  0  0
    0.4772    0.9048    2.8649 H   0  0  0  0  0  0  0  0  0  0  0  0
    1.2429    2.1541    1.8889 H   0  0  0  0  0  0  0  0  0  0  0  0
   -0.9517    3.1415    1.3417 H   0  0  0  0  0  0  0  0  0  0  0  0
   -1.7992    1.8992    2.2269 H   0  0  0  0  0  0  0  0  0  0  0  0
   -1.6298    4.7814    4.3709 H   0  0  0  0  0  0  0  0  0  0  0  0
    2.1576   -0.4810    1.6470 N   0  0  0  0  0  0  0  0  0  0  0  0
    3.3837   -1.2458    1.6731 C   0  0  2  0  0  0  0  0  0  0  0  0
    3.0238   -2.7025    1.9342 C   0  0  0  0  0  0  0  0  0  0  0  0
    1.9736   -3.0481    2.4714 O   0  0  0  0  0  0  0  0  0  0  0  0
    4.3392   -0.7233    2.7345 C   0  0  0  0  0  0  0  0  0  0  0  0
    1.7845   -0.1368    2.5265 H   0  0  0  0  0  0  0  0  0  0  0  0
    3.8355   -1.1531    0.6795 H   0  0  0  0  0  0  0  0  0  0  0  0
    3.9038   -0.8081    3.7368 H   0  0  0  0  0  0  0  0  0  0  0  0
    5.2789   -1.2855    2.7337 H   0  0  0  0  0  0  0  0  0  0  0  0
    4.5735    0.3327    2.5621 H   0  0  0  0  0  0  0  0  0  0  0  0
    4.0325   -3.5686    1.5359 N   0  0  0  0  0  0  0  0  0  0  0  0
    3.9355   -5.0014    1.6897 C   0  0  0  0  0  0  0  0  0  0  0  0
    4.8611   -3.1957    1.0820 H   0  0  0  0  0  0  0  0  0  0  0  0
    4.3847   -5.2990    2.6487 H   0  0  0  0  0  0  0  0  0  0  0  0
    2.8773   -5.3012    1.6720 H   0  0  0  0  0  0  0  0  0  0  0  0
    4.4705   -5.4956    0.8653 H   0  0  0  0  0  0  0  0  0  0  0  0
  1  3  1  0  0  0  0
  1  7  1  0  0  0  0
  1  2  2  0  0  0  0
 34 35  1  0  0  0  0
 35 43  1  0  0  0  0
 35 36  2  0  0  0  0
  8  9  1  0  0  0  0
  9 17  1  0  0  0  0
  9 10  2  0  0  0  0
 18 19  1  0  0  0  0
 19 33  1  0  0  0  0
 19 20  2  0  0  0  0
 22 23  1  0  0  0  0
 23 24  2  0  0  0  0
 23 25  1  0  0  0  0
 34 37  1  0  0  0  0
  8 11  1  0  0  0  0
 43 44  1  0  0  0  0
 21 22  1  0  0  0  0
 18 21  1  0  0  0  0
 33 34  1  0  0  0  0
  7  8  1  0  0  0  0
 17 18  1  0  0  0  0
  3  4  1  0  0  0  0
  3  5  1  0  0  0  0
  3  6  1  0  0  0  0
 37 40  1  0  0  0  0
 37 41  1  0  0  0  0
 37 42  1  0  0  0  0
 11 14  1  0  0  0  0
 11 15  1  0  0  0  0
 11 16  1  0  0  0  0
 44 46  1  0  0  0  0
 44 47  1  0  0  0  0
 44 48  1  0  0  0  0
 22 30  1  0  0  0  0
 22 31  1  0  0  0  0
 21 28  1  0  0  0  0
 21 29  1  0  0  0  0
 34 39  1  0  0  0  0
  8 13  1  0  0  0  0
 18 27  1  0  0  0  0
 43 45  1  0  0  0  0
  7 12  1  0  0  0  0
 33 38  1  0  0  0  0
 17 26  1  0  0  0  0
 25 32  1  0  0  0  0
M  END
$$$$

  -OEChem-05262214473D

 48 47  0     1  0  0  0  0  0999 V2000
   -5.5827   -1.3473    1.4591 C   0  0  0  0  0  0  0  0  0  0  0  0
   -5.7053   -2.4696    0.9825 O   0  0  0  0  0  0  0  0  0  0  0  0
   -6.7879   -0.6277    1.9670 C   0  0  0  0  0  0  0  0  0  0  0  0
   -7.2718   -0.0164    1.1885 H   0  0  0  0  0  0  0  0  0  0  0  0
   -7.5699   -1.3171    2.3239 H   0  0  0  0  0  0  0  0  0  0  0  0
   -6.6057    0.0628    2.8060 H   0  0  0  0  0  0  0  0  0  0  0  0
   -4.4001   -0.6377    1.5884 N   0  0  0  0  0  0  0  0  0  0  0  0
   -3.1220   -1.1455    1.1644 C   0  0  2  0  0  0  0  0  0  0  0  0
   -2.2017    0.0428    0.9187 C   0  0  0  0  0  0  0  0  0  0  0  0
   -2.6171    1.1750    0.6807 O   0  0  0  0  0  0  0  0  0  0  0  0
   -3.2533   -1.9992   -0.0873 C   0  0  0  0  0  0  0  0  0  0  0  0
   -4.4370    0.2910    2.0047 H   0  0  0  0  0  0  0  0  0  0  0  0
   -2.7302   -1.7467    1.9921 H   0  0  0  0  0  0  0  0  0  0  0  0
   -3.6446   -1.4140   -0.9275 H   0  0  0  0  0  0  0  0  0  0  0  0
   -2.2844   -2.4081   -0.3922 H   0  0  0  0  0  0  0  0  0  0  0  0
   -3.9388   -2.8365    0.0822 H   0  0  0  0  0  0  0  0  0  0  0  0
   -0.8768   -0.3314    0.9568 N   0  0  0  0  0  0  0  0  0  0  0  0
    0.2067    0.6285    0.7375 C   0  0  2  0  0  0  0  0  0  0  0  0
    1.4655   -0.1941    0.4797 C   0  0  0  0  0  0  0  0  0  0  0  0
    1.9659   -0.3036   -0.6379 O   0  0  0  0  0  0  0  0  0  0  0  0
    0.3427    1.5311    1.9729 C   0  0  0  0  0  0  0  0  0  0  0  0
   -0.8560    2.4542    2.1911 C   0  0  0  0  0  0  0  0  0  0  0  0
   -0.6950    3.3057    3.4257 C   0  0  0  0  0  0  0  0  0  0  0  0
    0.2197    3.1751    4.2291 O   0  0  0  0  0  0  0  0  0  0  0  0
   -1.6870    4.2188    3.5695 O   0  0  0  0  0  0  0  0  0  0  0  0
   -0.6087   -1.2764    1.1771 H   0  0  0  0  0  0  0  0  0  0  0  0
   -0.0407    1.2349   -0.1401 H   0  0  0  0  0  0  0  0  0  0  0  0
    0.4772    0.9048    2.8649 H   0  0  0  0  0  0  0  0  0  0  0  0
    1.2429    2.1541    1.8889 H   0  0  0  0  0  0  0  0  0  0  0  0
   -0.9517    3.1415    1.3417 H   0  0  0  0  0  0  0  0  0  0  0  0
   -1.7992    1.8992    2.2269 H   0  0  0  0  0  0  0  0  0  0  0  0
   -1.6298    4.7814    4.3709 H   0  0  0  0  0  0  0  0  0  0  0  0
    1.9735   -0.7605    1.6395 N   0  0  0  0  0  0  0  0  0  0  0  0
    3.1606   -1.5845    1.6643 C   0  0  2  0  0  0  0  0  0  0  0  0
    2.7254   -3.0397    1.5527 C   0  0  0  0  0  0  0  0  0  0  0  0
    1.5991   -3.4281    1.8556 O   0  0  0  0  0  0  0  0  0  0  0  0
    3.9675   -1.3542    2.9326 C   0  0  0  0  0  0  0  0  0  0  0  0
    1.4874   -0.5877    2.5142 H   0  0  0  0  0  0  0  0  0  0  0  0
    3.7535   -1.3115    0.7846 H   0  0  0  0  0  0  0  0  0  0  0  0
    3.3897   -1.6222    3.8247 H   0  0  0  0  0  0  0  0  0  0  0  0
    4.8810   -1.9580    2.9367 H   0  0  0  0  0  0  0  0  0  0  0  0
    4.2543   -0.3012    3.0263 H   0  0  0  0  0  0  0  0  0  0  0  0
    3.7557   -3.8605    1.1159 N   0  0  0  0  0  0  0  0  0  0  0  0
    3.5967   -5.2853    0.9411 C   0  0  0  0  0  0  0  0  0  0  0  0
    4.6515   -3.4498    0.8695 H   0  0  0  0  0  0  0  0  0  0  0  0
    3.8942   -5.8040    1.8644 H   0  0  0  0  0  0  0  0  0  0  0  0
    2.5440   -5.5118    0.7164 H   0  0  0  0  0  0  0  0  0  0  0  0
    4.2307   -5.6256    0.1091 H   0  0  0  0  0  0  0  0  0  0  0  0
  1  3  1  0  0  0  0
  1  7  1  0  0  0  0
  1  2  2  0  0  0  0
 34 35  1  0  0  0  0
 35 43  1  0  0  0  0
 35 36  2  0  0  0  0
  8  9  1  0  0  0  0
  9 17  1  0  0  0  0
  9 10  2  0  0  0  0
 18 19  1  0  0  0  0
 19 33  1  0  0  0  0
 19 20  2  0  0  0  0
 22 23  1  0  0  0  0
 23 24  2  0  0  0  0
 23 25  1  0  0  0  0
 34 37  1  0  0  0  0
  8 11  1  0  0  0  0
 43 44  1  0  0  0  0
 21 22  1  0  0  0  0
 18 21  1  0  0  0  0
 33 34  1  0  0  0  0
  7  8  1  0  0  0  0
 17 18  1  0  0  0  0
  3  4  1  0  0  0  0
  3  5  1  0  0  0  0
  3  6  1  0  0  0  0
 37 40  1  0  0  0  0
 37 41  1  0  0  0  0
 37 42  1  0  0  0  0
 11 14  1  0  0  0  0
 11 15  1  0  0  0  0
 11 16  1  0  0  0  0
 44 46  1  0  0  0  0
 44 47  1  0  0  0  0
 44 48  1  0  0  0  0
 22 30  1  0  0  0  0
 22 31  1  0  0  0  0
 21 28  1  0  0  0  0
 21 29  1  0  0  0  0
 34 39  1  0  0  0  0
  8 13  1  0  0  0  0
 18 27  1  0  0  0  0
 43 45  1  0  0  0  0
  7 12  1  0  0  0  0
 33 38  1  0  0  0  0
 17 26  1  0  0  0  0
 25 32  1  0  0  0  0
M  END
$$$$

  -OEChem-05262214473D

 48 47  0     1  0  0  0  0  0999 V2000
   -5.5827   -1.3473    1.4591 C   0  0  0  0  0  0  0  0  0  0  0  0
   -5.7053   -2.4696    0.9825 O   0  0  0  0  0  0  0  0  0  0  0  0
   -6.7879   -0.6277    1.9670 C   0  0  0  0  0  0  0  0  0  0  0  0
   -7.2718   -0.0164    1.1885 H   0  0  0  0  0  0  0  0  0  0  0  0
   -7.5699   -1.3171    2.3239 H   0  0  0  0  0  0  0  0  0  0  0  0
   -6.6057    0.0628    2.8060 H   0  0  0  0  0  0  0  0  0  0  0  0
   -4.4001   -0.6377    1.5884 N   0  0  0  0  0  0  0  0  0  0  0  0
   -3.1220   -1.1455    1.1644 C   0  0  2  0  0  0  0  0  0  0  0  0
   -2.2017    0.0428    0.9187 C   0  0  0  0  0  0  0  0  0  0  0  0
   -2.6171    1.1750    0.6807 O   0  0  0  0  0  0  0  0  0  0  0  0
   -3.2533   -1.9992   -0.0873 C   0  0  0  0  0  0  0  0  0  0  0  0
   -4.4370    0.2910    2.0047 H   0  0  0  0  0  0  0  0  0  0  0  0
   -2.7302   -1.7467    1.9921 H   0  0  0  0  0  0  0  0  0  0  0  0
   -3.6446   -1.4140   -0.9275 H   0  0  0  0  0  0  0  0  0  0  0  0
   -2.2844   -2.4081   -0.3922 H   0  0  0  0  0  0  0  0  0  0  0  0
   -3.9388   -2.8365    0.0822 H   0  0  0  0  0  0  0  0  0  0  0  0
   -0.8768   -0.3314    0.9568 N   0  0  0  0  0  0  0  0  0  0  0  0
    0.2067    0.6285    0.7375 C   0  0  2  0  0  0  0  0  0  0  0  0
    1.4655   -0.1941    0.4797 C   0  0  0  0  0  0  0  0  0  0  0  0
    2.1186   -0.0952   -0.5571 O   0  0  0  0  0  0  0  0  0  0  0  0
    0.3427    1.5311    1.9729 C   0  0  0  0  0  0  0  0  0  0  0  0
   -0.8560    2.4542    2.1911 C   0  0  0  0  0  0  0  0  0  0  0  0
   -0.6950    3.3057    3.4257 C   0  0  0  0  0  0  0  0  0  0  0  0
    0.2197    3.1751    4.2291 O   0  0  0  0  0  0  0  0  0  0  0  0
   -1.6870    4.2188    3.5695 O   0  0  0  0  0  0  0  0  0  0  0  0
   -0.6087   -1.2764    1.1771 H   0  0  0  0  0  0  0  0  0  0  0  0
   -0.0407    1.2349   -0.1401 H   0  0  0  0  0  0  0  0  0  0  0  0
    0.4772    0.9048    2.8649 H   0  0  0  0  0  0  0  0  0  0  0  0
    1.2429    2.1541    1.8889 H   0  0  0  0  0  0  0  0  0  0  0  0
   -0.9517    3.1415    1.3417 H   0  0  0  0  0  0  0  0  0  0  0  0
   -1.7992    1.8992    2.2269 H   0  0  0  0  0  0  0  0  0  0  0  0
   -1.6298    4.7814    4.3709 H   0  0  0  0  0  0  0  0  0  0  0  0
    1.7844   -1.0208    1.5469 N   0  0  0  0  0  0  0  0  0  0  0  0
    2.9315   -1.9000    1.5524 C   0  0  2  0  0  0  0  0  0  0  0  0
    2.4755   -3.2709    1.0705 C   0  0  0  0  0  0  0  0  0  0  0  0
    1.3068   -3.6474    1.1274 O   0  0  0  0  0  0  0  0  0  0  0  0
    3.5532   -1.9897    2.9373 C   0  0  0  0  0  0  0  0  0  0  0  0
    1.1823   -1.0076    2.3645 H   0  0  0  0  0  0  0  0  0  0  0  0
    3.6527   -1.4833    0.8408 H   0  0  0  0  0  0  0  0  0  0  0  0
    2.8453   -2.4049    3.6640 H   0  0  0  0  0  0  0  0  0  0  0  0
    4.4389   -2.6335    2.9337 H   0  0  0  0  0  0  0  0  0  0  0  0
    3.8534   -0.9988    3.2947 H   0  0  0  0  0  0  0  0  0  0  0  0
    3.5343   -4.0406    0.6092 N   0  0  0  0  0  0  0  0  0  0  0  0
    3.3615   -5.3849    0.1101 C   0  0  0  0  0  0  0  0  0  0  0  0
    4.4676   -3.6408    0.5807 H   0  0  0  0  0  0  0  0  0  0  0  0
    3.5077   -6.1028    0.9306 H   0  0  0  0  0  0  0  0  0  0  0  0
    2.3462   -5.4966   -0.2982 H   0  0  0  0  0  0  0  0  0  0  0  0
    4.0990   -5.5791   -0.6826 H   0  0  0  0  0  0  0  0  0  0  0  0
  1  3  1  0  0  0  0
  1  7  1  0  0  0  0
  1  2  2  0  0  0  0
 34 35  1  0  0  0  0
 35 43  1  0  0  0  0
 35 36  2  0  0  0  0
  8  9  1  0  0  0  0
  9 17  1  0  0  0  0
  9 10  2  0  0  0  0
 18 19  1  0  0  0  0
 19 33  1  0  0  0  0
 19 20  2  0  0  0  0
 22 23  1  0  0  0  0
 23 24  2  0  0  0  0
 23 25  1  0  0  0  0
 34 37  1  0  0  0  0
  8 11  1  0  0  0  0
 43 44  1  0  0  0  0
 21 22  1  0  0  0  0
 18 21  1  0  0  0  0
 33 34  1  0  0  0  0
  7  8  1  0  0  0  0
 17 18  1  0  0  0  0
  3  4  1  0  0  0  0
  3  5  1  0  0  0  0
  3  6  1  0  0  0  0
 37 40  1  0  0  0  0
 37 41  1  0  0  0  0
 37 42  1  0  0  0  0
 11 14  1  0  0  0  0
 11 15  1  0  0  0  0
 11 16  1  0  0  0  0
 44 46  1  0  0  0  0
 44 47  1  0  0  0  0
 44 48  1  0  0  0  0
 22 30  1  0  0  0  0
 22 31  1  0  0  0  0
 21 28  1  0  0  0  0
 21 29  1  0  0  0  0
 34 39  1  0  0  0  0
  8 13  1  0  0  0  0
 18 27  1  0  0  0  0
 43 45  1  0  0  0  0
  7 12  1  0  0  0  0
 33 38  1  0  0  0  0
 17 26  1  0  0  0  0
 25 32  1  0  0  0  0
M  END
$$$$

  -OEChem-05262214473D

 48 47  0     1  0  0  0  0  0999 V2000
   -5.5827   -1.3473    1.4591 C   0  0  0  0  0  0  0  0  0  0  0  0
   -5.7053   -2.4696    0.9825 O   0  0  0  0  0  0  0  0  0  0  0  0
   -6.7879   -0.6277    1.9670 C   0  0  0  0  0  0  0  0  0  0  0  0
   -7.2718   -0.0164    1.1885 H   0  0  0  0  0  0  0  0  0  0  0  0
   -7.5699   -1.3171    2.3239 H   0  0  0  0  0  0  0  0  0  0  0  0
   -6.6057    0.0628    2.8060 H   0  0  0  0  0  0  0  0  0  0  0  0
   -4.4001   -0.6377    1.5884 N   0  0  0  0  0  0  0  0  0  0  0  0
   -3.1220   -1.1455    1.1644 C   0  0  2  0  0  0  0  0  0  0  0  0
   -2.2017    0.0428    0.9187 C   0  0  0  0  0  0  0  0  0  0  0  0
   -2.6171    1.1750    0.6807 O   0  0  0  0  0  0  0  0  0  0  0  0
   -3.2533   -1.9992   -0.0873 C   0  0  0  0  0  0  0  0  0  0  0  0
   -4.4370    0.2910    2.0047 H   0  0  0  0  0  0  0  0  0  0  0  0
   -2.7302   -1.7467    1.9921 H   0  0  0  0  0  0  0  0  0  0  0  0
   -3.6446   -1.4140   -0.9275 H   0  0  0  0  0  0  0  0  0  0  0  0
   -2.2844   -2.4081   -0.3922 H   0  0  0  0  0  0  0  0  0  0  0  0
   -3.9388   -2.8365    0.0822 H   0  0  0  0  0  0  0  0  0  0  0  0
   -0.8768   -0.3314    0.9568 N   0  0  0  0  0  0  0  0  0  0  0  0
    0.2067    0.6285    0.7375 C   0  0  2  0  0  0  0  0  0  0  0  0
    1.4655   -0.1941    0.4797 C   0  0  0  0  0  0  0  0  0  0  0  0
    2.2639    0.0821   -0.4134 O   0  0  0  0  0  0  0  0  0  0  0  0
    0.3427    1.5311    1.9729 C   0  0  0  0  0  0  0  0  0  0  0  0
   -0.8560    2.4542    2.1911 C   0  0  0  0  0  0  0  0  0  0  0  0
   -0.6950    3.3057    3.4257 C   0  0  0  0  0  0  0  0  0  0  0  0
    0.2197    3.1751    4.2291 O   0  0  0  0  0  0  0  0  0  0  0  0
   -1.6870    4.2188    3.5695 O   0  0  0  0  0  0  0  0  0  0  0  0
   -0.6087   -1.2764    1.1771 H   0  0  0  0  0  0  0  0  0  0  0  0
   -0.0407    1.2349   -0.1401 H   0  0  0  0  0  0  0  0  0  0  0  0
    0.4772    0.9048    2.8649 H   0  0  0  0  0  0  0  0  0  0  0  0
    1.2429    2.1541    1.8889 H   0  0  0  0  0  0  0  0  0  0  0  0
   -0.9517    3.1415    1.3417 H   0  0  0  0  0  0  0  0  0  0  0  0
   -1.7992    1.8992    2.2269 H   0  0  0  0  0  0  0  0  0  0  0  0
   -1.6298    4.7814    4.3709 H   0  0  0  0  0  0  0  0  0  0  0  0
    1.6034   -1.2441    1.3754 N   0  0  0  0  0  0  0  0  0  0  0  0
    2.7120   -2.1708    1.3449 C   0  0  2  0  0  0  0  0  0  0  0  0
    2.2914   -3.3803    0.5205 C   0  0  0  0  0  0  0  0  0  0  0  0
    1.1164   -3.6909    0.3364 O   0  0  0  0  0  0  0  0  0  0  0  0
    3.1246   -2.5864    2.7484 C   0  0  0  0  0  0  0  0  0  0  0  0
    0.8902   -1.3679    2.0877 H   0  0  0  0  0  0  0  0  0  0  0  0
    3.5400   -1.6570    0.8444 H   0  0  0  0  0  0  0  0  0  0  0  0
    2.3077   -3.1028    3.2656 H   0  0  0  0  0  0  0  0  0  0  0  0
    3.9828   -3.2661    2.7248 H   0  0  0  0  0  0  0  0  0  0  0  0
    3.3982   -1.7123    3.3491 H   0  0  0  0  0  0  0  0  0  0  0  0
    3.3832   -4.0967    0.0505 N   0  0  0  0  0  0  0  0  0  0  0  0
    3.2459   -5.2933   -0.7466 C   0  0  0  0  0  0  0  0  0  0  0  0
    4.3219   -3.7555    0.2354 H   0  0  0  0  0  0  0  0  0  0  0  0
    3.2516   -6.1751   -0.0891 H   0  0  0  0  0  0  0  0  0  0  0  0
    2.2974   -5.2566   -1.3025 H   0  0  0  0  0  0  0  0  0  0  0  0
    4.0842   -5.3594   -1.4558 H   0  0  0  0  0  0  0  0  0  0  0  0
  1  3  1  0  0  0  0
  1  7  1  0  0  0  0
  1  2  2  0  0  0  0
 34 35  1  0  0  0  0
 35 43  1  0  0  0  0
 35 36  2  0  0  0  0
  8  9  1  0  0  0  0
  9 17  1  0  0  0  0
  9 10  2  0  0  0  0
 18 19  1  0  0  0  0
 19 33  1  0  0  0  0
 19 20  2  0  0  0  0
 22 23  1  0  0  0  0
 23 24  2  0  0  0  0
 23 25  1  0  0  0  0
 34 37  1  0  0  0  0
  8 11  1  0  0  0  0
 43 44  1  0  0  0  0
 21 22  1  0  0  0  0
 18 21  1  0  0  0  0
 33 34  1  0  0  0  0
  7  8  1  0  0  0  0
 17 18  1  0  0  0  0
  3  4  1  0  0  0  0
  3  5  1  0  0  0  0
  3  6  1  0  0  0  0
 37 40  1  0  0  0  0
 37 41  1  0  0  0  0
 37 42  1  0  0  0  0
 11 14  1  0  0  0  0
 11 15  1  0  0  0  0
 11 16  1  0  0  0  0
 44 46  1  0  0  0  0
 44 47  1  0  0  0  0
 44 48  1  0  0  0  0
 22 30  1  0  0  0  0
 22 31  1  0  0  0  0
 21 28  1  0  0  0  0
 21 29  1  0  0  0  0
 34 39  1  0  0  0  0
  8 13  1  0  0  0  0
 18 27  1  0  0  0  0
 43 45  1  0  0  0  0
  7 12  1  0  0  0  0
 33 38  1  0  0  0  0
 17 26  1  0  0  0  0
 25 32  1  0  0  0  0
M  END
$$$$

  -OEChem-05262214473D

 48 47  0     1  0  0  0  0  0999 V2000
   -5.5827   -1.3473    1.4591 C   0  0  0  0  0  0  0  0  0  0  0  0
   -5.7053   -2.4696    0.9825 O   0  0  0  0  0  0  0  0  0  0  0  0
   -6.7879   -0.6277    1.9670 C   0  0  0  0  0  0  0  0  0  0  0  0
   -7.2718   -0.0164    1.1885 H   0  0  0  0  0  0  0  0  0  0  0  0
   -7.5699   -1.3171    2.3239 H   0  0  0  0  0  0  0  0  0  0  0  0
   -6.6057    0.0628    2.8060 H   0  0  0  0  0  0  0  0  0  0  0  0
   -4.4001   -0.6377    1.5884 N   0  0  0  0  0  0  0  0  0  0  0  0
   -3.1220   -1.1455    1.1644 C   0  0  2  0  0  0  0  0  0  0  0  0
   -2.2017    0.0428    0.9187 C   0  0  0  0  0  0  0  0  0  0  0  0
   -2.6171    1.1750    0.6807 O   0  0  0  0  0  0  0  0  0  0  0  0
   -3.2533   -1.9992   -0.0873 C   0  0  0  0  0  0  0  0  0  0  0  0
   -4.4370    0.2910    2.0047 H   0  0  0  0  0  0  0  0  0  0  0  0
   -2.7302   -1.7467    1.9921 H   0  0  0  0  0  0  0  0  0  0  0  0
   -3.6446   -1.4140   -0.9275 H   0  0  0  0  0  0  0  0  0  0  0  0
   -2.2844   -2.4081   -0.3922 H   0  0  0  0  0  0  0  0  0  0  0  0
   -3.9388   -2.8365    0.0822 H   0  0  0  0  0  0  0  0  0  0  0  0
   -0.8768   -0.3314    0.9568 N   0  0  0  0  0  0  0  0  0  0  0  0
    0.2067    0.6285    0.7375 C   0  0  2  0  0  0  0  0  0  0  0  0
    1.4655   -0.1941    0.4797 C   0  0  0  0  0  0  0  0  0  0  0  0
    2.3920    0.2164   -0.2163 O   0  0  0  0  0  0  0  0  0  0  0  0
    0.3427    1.5311    1.9729 C   0  0  0  0  0  0  0  0  0  0  0  0
   -0.8560    2.4542    2.1911 C   0  0  0  0  0  0  0  0  0  0  0  0
   -0.6950    3.3057    3.4257 C   0  0  0  0  0  0  0  0  0  0  0  0
    0.2197    3.1751    4.2291 O   0  0  0  0  0  0  0  0  0  0  0  0
   -1.6870    4.2188    3.5695 O   0  0  0  0  0  0  0  0  0  0  0  0
   -0.6087   -1.2764    1.1771 H   0  0  0  0  0  0  0  0  0  0  0  0
   -0.0407    1.2349   -0.1401 H   0  0  0  0  0  0  0  0  0  0  0  0
    0.4772    0.9048    2.8649 H   0  0  0  0  0  0  0  0  0  0  0  0
    1.2429    2.1541    1.8889 H   0  0  0  0  0  0  0  0  0  0  0  0
   -0.9517    3.1415    1.3417 H   0  0  0  0  0  0  0  0  0  0  0  0
   -1.7992    1.8992    2.2269 H   0  0  0  0  0  0  0  0  0  0  0  0
   -1.6298    4.7814    4.3709 H   0  0  0  0  0  0  0  0  0  0  0  0
    1.4426   -1.4154    1.1369 N   0  0  0  0  0  0  0  0  0  0  0  0
    2.5171   -2.3785    1.0560 C   0  0  2  0  0  0  0  0  0  0  0  0
    2.1855   -3.3605   -0.0598 C   0  0  0  0  0  0  0  0  0  0  0  0
    1.0409   -3.5557   -0.4634 O   0  0  0  0  0  0  0  0  0  0  0  0
    2.7108   -3.1037    2.3786 C   0  0  0  0  0  0  0  0  0  0  0  0
    0.6309   -1.6441    1.7027 H   0  0  0  0  0  0  0  0  0  0  0  0
    3.4230   -1.8205    0.7950 H   0  0  0  0  0  0  0  0  0  0  0  0
    1.8134   -3.6684    2.6567 H   0  0  0  0  0  0  0  0  0  0  0  0
    3.5437   -3.8125    2.3242 H   0  0  0  0  0  0  0  0  0  0  0  0
    2.9198   -2.3933    3.1857 H   0  0  0  0  0  0  0  0  0  0  0  0
    3.3128   -4.0250   -0.5223 N   0  0  0  0  0  0  0  0  0  0  0  0
    3.2579   -5.0168   -1.5708 C   0  0  0  0  0  0  0  0  0  0  0  0
    4.2243   -3.7862   -0.1431 H   0  0  0  0  0  0  0  0  0  0  0  0
    3.1434   -6.0160   -1.1253 H   0  0  0  0  0  0  0  0  0  0  0  0
    2.4009   -4.8082   -2.2281 H   0  0  0  0  0  0  0  0  0  0  0  0
    4.1874   -4.9815   -2.1578 H   0  0  0  0  0  0  0  0  0  0  0  0
  1  3  1  0  0  0  0
  1  7  1  0  0  0  0
  1  2  2  0  0  0  0
 34 35  1  0  0  0  0
 35 43  1  0  0  0  0
 35 36  2  0  0  0  0
  8  9  1  0  0  0  0
  9 17  1  0  0  0  0
  9 10  2  0  0  0  0
 18 19  1  0  0  0  0
 19 33  1  0  0  0  0
 19 20  2  0  0  0  0
 22 23  1  0  0  0  0
 23 24  2  0  0  0  0
 23 25  1  0  0  0  0
 34 37  1  0  0  0  0
  8 11  1  0  0  0  0
 43 44  1  0  0  0  0
 21 22  1  0  0  0  0
 18 21  1  0  0  0  0
 33 34  1  0  0  0  0
  7  8  1  0  0  0  0
 17 18  1  0  0  0  0
  3  4  1  0  0  0  0
  3  5  1  0  0  0  0
  3  6  1  0  0  0  0
 37 40  1  0  0  0  0
 37 41  1  0  0  0  0
 37 42  1  0  0  0  0
 11 14  1  0  0  0  0
 11 15  1  0  0  0  0
 11 16  1  0  0  0  0
 44 46  1  0  0  0  0
 44 47  1  0  0  0  0
 44 48  1  0  0  0  0
 22 30  1  0  0  0  0
 22 31  1  0  0  0  0
 21 28  1  0  0  0  0
 21 29  1  0  0  0  0
 34 39  1  0  0  0  0
  8 13  1  0  0  0  0
 18 27  1  0  0  0  0
 43 45  1  0  0  0  0
  7 12  1  0  0  0  0
 33 38  1  0  0  0  0
 17 26  1  0  0  0  0
 25 32  1  0  0  0  0
M  END
$$$$

  -OEChem-05262214473D

 48 47  0     1  0  0  0  0  0999 V2000
   -5.5827   -1.3473    1.4591 C   0  0  0  0  0  0  0  0  0  0  0  0
   -5.7053   -2.4696    0.9825 O   0  0  0  0  0  0  0  0  0  0  0  0
   -6.7879   -0.6277    1.9670 C   0  0  0  0  0  0  0  0  0  0  0  0
   -7.2718   -0.0164    1.1885 H   0  0  0  0  0  0  0  0  0  0  0  0
   -7.5699   -1.3171    2.3239 H   0  0  0  0  0  0  0  0  0  0  0  0
   -6.6057    0.0628    2.8060 H   0  0  0  0  0  0  0  0  0  0  0  0
   -4.4001   -0.6377    1.5884 N   0  0  0  0  0  0  0  0  0  0  0  0
   -3.1220   -1.1455    1.1644 C   0  0  2  0  0  0  0  0  0  0  0  0
   -2.2017    0.0428    0.9187 C   0  0  0  0  0  0  0  0  0  0  0  0
   -2.6171    1.1750    0.6807 O   0  0  0  0  0  0  0  0  0  0  0  0
   -3.2533   -1.9992   -0.0873 C   0  0  0  0  0  0  0  0  0  0  0  0
   -4.4370    0.2910    2.0047 H   0  0  0  0  0  0  0  0  0  0  0  0
   -2.7302   -1.7467    1.9921 H   0  0  0  0  0  0  0  0  0  0  0  0
   -3.6446   -1.4140   -0.9275 H   0  0  0  0  0  0  0  0  0  0  0  0
   -2.2844   -2.4081   -0.3922 H   0  0  0  0  0  0  0  0  0  0  0  0
   -3.9388   -2.8365    0.0822 H   0  0  0  0  0  0  0  0  0  0  0  0
   -0.8768   -0.3314    0.9568 N   0  0  0  0  0  0  0  0  0  0  0  0
    0.2067    0.6285    0.7375 C   0  0  2  0  0  0  0  0  0  0  0  0
    1.4655   -0.1941    0.4797 C   0  0  0  0  0  0  0  0  0  0  0  0
    2.4941    0.2984    0.0205 O   0  0  0  0  0  0  0  0  0  0  0  0
    0.3427    1.5311    1.9729 C   0  0  0  0  0  0  0  0  0  0  0  0
   -0.8560    2.4542    2.1911 C   0  0  0  0  0  0  0  0  0  0  0  0
   -0.6950    3.3057    3.4257 C   0  0  0  0  0  0  0  0  0  0  0  0
    0.2197    3.1751    4.2291 O   0  0  0  0  0  0  0  0  0  0  0  0
   -1.6870    4.2188    3.5695 O   0  0  0  0  0  0  0  0  0  0  0  0
   -0.6087   -1.2764    1.1771 H   0  0  0  0  0  0  0  0  0  0  0  0
   -0.0407    1.2349   -0.1401 H   0  0  0  0  0  0  0  0  0  0  0  0
    0.4772    0.9048    2.8649 H   0  0  0  0  0  0  0  0  0  0  0  0
    1.2429    2.1541    1.8889 H   0  0  0  0  0  0  0  0  0  0  0  0
   -0.9517    3.1415    1.3417 H   0  0  0  0  0  0  0  0  0  0  0  0
   -1.7992    1.8992    2.2269 H   0  0  0  0  0  0  0  0  0  0  0  0
   -1.6298    4.7814    4.3709 H   0  0  0  0  0  0  0  0  0  0  0  0
    1.3131   -1.5228    0.8474 N   0  0  0  0  0  0  0  0  0  0  0  0
    2.3601   -2.5089    0.7055 C   0  0  2  0  0  0  0  0  0  0  0  0
    2.1651   -3.2128   -0.6309 C   0  0  0  0  0  0  0  0  0  0  0  0
    1.0856   -3.2509   -1.2177 O   0  0  0  0  0  0  0  0  0  0  0  0
    2.3401   -3.5063    1.8533 C   0  0  0  0  0  0  0  0  0  0  0  0
    0.4220   -1.8172    1.2355 H   0  0  0  0  0  0  0  0  0  0  0  0
    3.3097   -1.9628    0.6961 H   0  0  0  0  0  0  0  0  0  0  0  0
    1.3963   -4.0630    1.8789 H   0  0  0  0  0  0  0  0  0  0  0  0
    3.1515   -4.2356    1.7594 H   0  0  0  0  0  0  0  0  0  0  0  0
    2.4507   -2.9952    2.8157 H   0  0  0  0  0  0  0  0  0  0  0  0
    3.3279   -3.8303   -1.0701 N   0  0  0  0  0  0  0  0  0  0  0  0
    3.3965   -4.5743   -2.3061 C   0  0  0  0  0  0  0  0  0  0  0  0
    4.1816   -3.7308   -0.5288 H   0  0  0  0  0  0  0  0  0  0  0  0
    3.1904   -5.6364   -2.1073 H   0  0  0  0  0  0  0  0  0  0  0  0
    2.6497   -4.1819   -3.0120 H   0  0  0  0  0  0  0  0  0  0  0  0
    4.4017   -4.4710   -2.7408 H   0  0  0  0  0  0  0  0  0  0  0  0
  1  3  1  0  0  0  0
  1  7  1  0  0  0  0
  1  2  2  0  0  0  0
 34 35  1  0  0  0  0
 35 43  1  0  0  0  0
 35 36  2  0  0  0  0
  8  9  1  0  0  0  0
  9 17  1  0  0  0  0
  9 10  2  0  0  0  0
 18 19  1  0  0  0  0
 19 33  1  0  0  0  0
 19 20  2  0  0  0  0
 22 23  1  0  0  0  0
 23 24  2  0  0  0  0
 23 25  1  0  0  0  0
 34 37  1  0  0  0  0
  8 11  1  0  0  0  0
 43 44  1  0  0  0  0
 21 22  1  0  0  0  0
 18 21  1  0  0  0  0
 33 34  1  0  0  0  0
  7  8  1  0  0  0  0
 17 18  1  0  0  0  0
  3  4  1  0  0  0  0
  3  5  1  0  0  0  0
  3  6  1  0  0  0  0
 37 40  1  0  0  0  0
 37 41  1  0  0  0  0
 37 42  1  0  0  0  0
 11 14  1  0  0  0  0
 11 15  1  0  0  0  0
 11 16  1  0  0  0  0
 44 46  1  0  0  0  0
 44 47  1  0  0  0  0
 44 48  1  0  0  0  0
 22 30  1  0  0  0  0
 22 31  1  0  0  0  0
 21 28  1  0  0  0  0
 21 29  1  0  0  0  0
 34 39  1  0  0  0  0
  8 13  1  0  0  0  0
 18 27  1  0  0  0  0
 43 45  1  0  0  0  0
  7 12  1  0  0  0  0
 33 38  1  0  0  0  0
 17 26  1  0  0  0  0
 25 32  1  0  0  0  0
M  END
$$$$

  -OEChem-05262214473D

 48 47  0     1  0  0  0  0  0999 V2000
   -5.5827   -1.3473    1.4591 C   0  0  0  0  0  0  0  0  0  0  0  0
   -5.7053   -2.4696    0.9825 O   0  0  0  0  0  0  0  0  0  0  0  0
   -6.7879   -0.6277    1.9670 C   0  0  0  0  0  0  0  0  0  0  0  0
   -7.2718   -0.0164    1.1885 H   0  0  0  0  0  0  0  0  0  0  0  0
   -7.5699   -1.3171    2.3239 H   0  0  0  0  0  0  0  0  0  0  0  0
   -6.6057    0.0628    2.8060 H   0  0  0  0  0  0  0  0  0  0  0  0
   -4.4001   -0.6377    1.5884 N   0  0  0  0  0  0  0  0  0  0  0  0
   -3.1220   -1.1455    1.1644 C   0  0  2  0  0  0  0  0  0  0  0  0
   -2.2017    0.0428    0.9187 C   0  0  0  0  0  0  0  0  0  0  0  0
   -2.6171    1.1750    0.6807 O   0  0  0  0  0  0  0  0  0  0  0  0
   -3.2533   -1.9992   -0.0873 C   0  0  0  0  0  0  0  0  0  0  0  0
   -4.4370    0.2910    2.0047 H   0  0  0  0  0  0  0  0  0  0  0  0
   -2.7302   -1.7467    1.9921 H   0  0  0  0  0  0  0  0  0  0  0  0
   -3.6446   -1.4140   -0.9275 H   0  0  0  0  0  0  0  0  0  0  0  0
   -2.2844   -2.4081   -0.3922 H   0  0  0  0  0  0  0  0  0  0  0  0
   -3.9388   -2.8365    0.0822 H   0  0  0  0  0  0  0  0  0  0  0  0
   -0.8768   -0.3314    0.9568 N   0  0  0  0  0  0  0  0  0  0  0  0
    0.2067    0.6285    0.7375 C   0  0  2  0  0  0  0  0  0  0  0  0
    1.4655   -0.1941    0.4797 C   0  0  0  0  0  0  0  0  0  0  0  0
    2.5632    0.3226    0.2811 O   0  0  0  0  0  0  0  0  0  0  0  0
    0.3427    1.5311    1.9729 C   0  0  0  0  0  0  0  0  0  0  0  0
   -0.8560    2.4542    2.1911 C   0  0  0  0  0  0  0  0  0  0  0  0
   -0.6950    3.3057    3.4257 C   0  0  0  0  0  0  0  0  0  0  0  0
    0.2197    3.1751    4.2291 O   0  0  0  0  0  0  0  0  0  0  0  0
   -1.6870    4.2188    3.5695 O   0  0  0  0  0  0  0  0  0  0  0  0
   -0.6087   -1.2764    1.1771 H   0  0  0  0  0  0  0  0  0  0  0  0
   -0.0407    1.2349   -0.1401 H   0  0  0  0  0  0  0  0  0  0  0  0
    0.4772    0.9048    2.8649 H   0  0  0  0  0  0  0  0  0  0  0  0
    1.2429    2.1541    1.8889 H   0  0  0  0  0  0  0  0  0  0  0  0
   -0.9517    3.1415    1.3417 H   0  0  0  0  0  0  0  0  0  0  0  0
   -1.7992    1.8992    2.2269 H   0  0  0  0  0  0  0  0  0  0  0  0
   -1.6298    4.7814    4.3709 H   0  0  0  0  0  0  0  0  0  0  0  0
    1.2238   -1.5591    0.5269 N   0  0  0  0  0  0  0  0  0  0  0  0
    2.2517   -2.5531    0.3171 C   0  0  2  0  0  0  0  0  0  0  0  0
    2.2315   -2.9474   -1.1538 C   0  0  0  0  0  0  0  0  0  0  0  0
    1.2474   -2.7975   -1.8750 O   0  0  0  0  0  0  0  0  0  0  0  0
    2.0378   -3.7668    1.2081 C   0  0  0  0  0  0  0  0  0  0  0  0
    0.2780   -1.8756    0.7182 H   0  0  0  0  0  0  0  0  0  0  0  0
    3.2079   -2.0742    0.5544 H   0  0  0  0  0  0  0  0  0  0  0  0
    1.0846   -4.2599    0.9850 H   0  0  0  0  0  0  0  0  0  0  0  0
    2.8331   -4.5065    1.0687 H   0  0  0  0  0  0  0  0  0  0  0  0
    2.0229   -3.4771    2.2644 H   0  0  0  0  0  0  0  0  0  0  0  0
    3.4274   -3.5259   -1.5555 N   0  0  0  0  0  0  0  0  0  0  0  0
    3.6523   -3.9959   -2.9026 C   0  0  0  0  0  0  0  0  0  0  0  0
    4.1965   -3.5930   -0.8955 H   0  0  0  0  0  0  0  0  0  0  0  0
    3.3895   -5.0620   -2.9682 H   0  0  0  0  0  0  0  0  0  0  0  0
    3.0267   -3.4204   -3.6008 H   0  0  0  0  0  0  0  0  0  0  0  0
    4.7123   -3.8628   -3.1649 H   0  0  0  0  0  0  0  0  0  0  0  0
  1  3  1  0  0  0  0
  1  7  1  0  0  0  0
  1  2  2  0  0  0  0
 34 35  1  0  0  0  0
 35 43  1  0  0  0  0
 35 36  2  0  0  0  0
  8  9  1  0  0  0  0
  9 17  1  0  0  0  0
  9 10  2  0  0  0  0
 18 19  1  0  0  0  0
 19 33  1  0  0  0  0
 19 20  2  0  0  0  0
 22 23  1  0  0  0  0
 23 24  2  0  0  0  0
 23 25  1  0  0  0  0
 34 37  1  0  0  0  0
  8 11  1  0  0  0  0
 43 44  1  0  0  0  0
 21 22  1  0  0  0  0
 18 21  1  0  0  0  0
 33 34  1  0  0  0  0
  7  8  1  0  0  0  0
 17 18  1  0  0  0  0
  3  4  1  0  0  0  0
  3  5  1  0  0  0  0
  3  6  1  0  0  0  0
 37 40  1  0  0  0  0
 37 41  1  0  0  0  0
 37 42  1  0  0  0  0
 11 14  1  0  0  0  0
 11 15  1  0  0  0  0
 11 16  1  0  0  0  0
 44 46  1  0  0  0  0
 44 47  1  0  0  0  0
 44 48  1  0  0  0  0
 22 30  1  0  0  0  0
 22 31  1  0  0  0  0
 21 28  1  0  0  0  0
 21 29  1  0  0  0  0
 34 39  1  0  0  0  0
  8 13  1  0  0  0  0
 18 27  1  0  0  0  0
 43 45  1  0  0  0  0
  7 12  1  0  0  0  0
 33 38  1  0  0  0  0
 17 26  1  0  0  0  0
 25 32  1  0  0  0  0
M  END
$$$$

  -OEChem-05262214473D

 48 47  0     1  0  0  0  0  0999 V2000
   -5.5827   -1.3473    1.4591 C   0  0  0  0  0  0  0  0  0  0  0  0
   -5.7053   -2.4696    0.9825 O   0  0  0  0  0  0  0  0  0  0  0  0
   -6.7879   -0.6277    1.9670 C   0  0  0  0  0  0  0  0  0  0  0  0
   -7.2718   -0.0164    1.1885 H   0  0  0  0  0  0  0  0  0  0  0  0
   -7.5699   -1.3171    2.3239 H   0  0  0  0  0  0  0  0  0  0  0  0
   -6.6057    0.0628    2.8060 H   0  0  0  0  0  0  0  0  0  0  0  0
   -4.4001   -0.6377    1.5884 N   0  0  0  0  0  0  0  0  0  0  0  0
   -3.1220   -1.1455    1.1644 C   0  0  2  0  0  0  0  0  0  0  0  0
   -2.2017    0.0428    0.9187 C   0  0  0  0  0  0  0  0  0  0  0  0
   -2.6171    1.1750    0.6807 O   0  0  0  0  0  0  0  0  0  0  0  0
   -3.2533   -1.9992   -0.0873 C   0  0  0  0  0  0  0  0  0  0  0  0
   -4.4370    0.2910    2.0047 H   0  0  0  0  0  0  0  0  0  0  0  0
   -2.7302   -1.7467    1.9921 H   0  0  0  0  0  0  0  0  0  0  0  0
   -3.6446   -1.4140   -0.9275 H   0  0  0  0  0  0  0  0  0  0  0  0
   -2.2844   -2.4081   -0.3922 H   0  0  0  0  0  0  0  0  0  0  0  0
   -3.9388   -2.8365    0.0822 H   0  0  0  0  0  0  0  0  0  0  0  0
   -0.8768   -0.3314    0.9568 N   0  0  0  0  0  0  0  0  0  0  0  0
    0.2067    0.6285    0.7375 C   0  0  2  0  0  0  0  0  0  0  0  0
    1.4655   -0.1941    0.4797 C   0  0  0  0  0  0  0  0  0  0  0  0
    2.5947    0.2872    0.5476 O   0  0  0  0  0  0  0  0  0  0  0  0
    0.3427    1.5311    1.9729 C   0  0  0  0  0  0  0  0  0  0  0  0
   -0.8560    2.4542    2.1911 C   0  0  0  0  0  0  0  0  0  0  0  0
   -0.6950    3.3057    3.4257 C   0  0  0  0  0  0  0  0  0  0  0  0
    0.2197    3.1751    4.2291 O   0  0  0  0  0  0  0  0  0  0  0  0
   -1.6870    4.2188    3.5695 O   0  0  0  0  0  0  0  0  0  0  0  0
   -0.6087   -1.2764    1.1771 H   0  0  0  0  0  0  0  0  0  0  0  0
   -0.0407    1.2349   -0.1401 H   0  0  0  0  0  0  0  0  0  0  0  0
    0.4772    0.9048    2.8649 H   0  0  0  0  0  0  0  0  0  0  0  0
    1.2429    2.1541    1.8889 H   0  0  0  0  0  0  0  0  0  0  0  0
   -0.9517    3.1415    1.3417 H   0  0  0  0  0  0  0  0  0  0  0  0
   -1.7992    1.8992    2.2269 H   0  0  0  0  0  0  0  0  0  0  0  0
   -1.6298    4.7814    4.3709 H   0  0  0  0  0  0  0  0  0  0  0  0
    1.1806   -1.5218    0.1970 N   0  0  0  0  0  0  0  0  0  0  0  0
    2.1992   -2.5082   -0.0826 C   0  0  2  0  0  0  0  0  0  0  0  0
    2.3802   -2.5822   -1.5930 C   0  0  0  0  0  0  0  0  0  0  0  0
    1.5152   -2.2262   -2.3905 O   0  0  0  0  0  0  0  0  0  0  0  0
    1.8244   -3.8675    0.4871 C   0  0  0  0  0  0  0  0  0  0  0  0
    0.2084   -1.8152    0.1859 H   0  0  0  0  0  0  0  0  0  0  0  0
    3.1245   -2.1471    0.3795 H   0  0  0  0  0  0  0  0  0  0  0  0
    0.8997   -4.2455    0.0361 H   0  0  0  0  0  0  0  0  0  0  0  0
    2.6100   -4.6067    0.2993 H   0  0  0  0  0  0  0  0  0  0  0  0
    1.6655   -3.8061    1.5692 H   0  0  0  0  0  0  0  0  0  0  0  0
    3.6045   -3.1326   -1.9455 N   0  0  0  0  0  0  0  0  0  0  0  0
    4.0080   -3.3210   -3.3195 C   0  0  0  0  0  0  0  0  0  0  0  0
    4.2682   -3.3823   -1.2182 H   0  0  0  0  0  0  0  0  0  0  0  0
    3.7271   -4.3320   -3.6494 H   0  0  0  0  0  0  0  0  0  0  0  0
    3.5064   -2.5757   -3.9542 H   0  0  0  0  0  0  0  0  0  0  0  0
    5.0981   -3.1983   -3.4015 H   0  0  0  0  0  0  0  0  0  0  0  0
  1  3  1  0  0  0  0
  1  7  1  0  0  0  0
  1  2  2  0  0  0  0
 34 35  1  0  0  0  0
 35 43  1  0  0  0  0
 35 36  2  0  0  0  0
  8  9  1  0  0  0  0
  9 17  1  0  0  0  0
  9 10  2  0  0  0  0
 18 19  1  0  0  0  0
 19 33  1  0  0  0  0
 19 20  2  0  0  0  0
 22 23  1  0  0  0  0
 23 24  2  0  0  0  0
 23 25  1  0  0  0  0
 34 37  1  0  0  0  0
  8 11  1  0  0  0  0
 43 44  1  0  0  0  0
 21 22  1  0  0  0  0
 18 21  1  0  0  0  0
 33 34  1  0  0  0  0
  7  8  1  0  0  0  0
 17 18  1  0  0  0  0
  3  4  1  0  0  0  0
  3  5  1  0  0  0  0
  3  6  1  0  0  0  0
 37 40  1  0  0  0  0
 37 41  1  0  0  0  0
 37 42  1  0  0  0  0
 11 14  1  0  0  0  0
 11 15  1  0  0  0  0
 11 16  1  0  0  0  0
 44 46  1  0  0  0  0
 44 47  1  0  0  0  0
 44 48  1  0  0  0  0
 22 30  1  0  0  0  0
 22 31  1  0  0  0  0
 21 28  1  0  0  0  0
 21 29  1  0  0  0  0
 34 39  1  0  0  0  0
  8 13  1  0  0  0  0
 18 27  1  0  0  0  0
 43 45  1  0  0  0  0
  7 12  1  0  0  0  0
 33 38  1  0  0  0  0
 17 26  1  0  0  0  0
 25 32  1  0  0  0  0
M  END
$$$$

  -OEChem-05262214473D

 48 47  0     1  0  0  0  0  0999 V2000
   -5.5827   -1.3473    1.4591 C   0  0  0  0  0  0  0  0  0  0  0  0
   -5.7053   -2.4696    0.9825 O   0  0  0  0  0  0  0  0  0  0  0  0
   -6.7879   -0.6277    1.9670 C   0  0  0  0  0  0  0  0  0  0  0  0
   -7.2718   -0.0164    1.1885 H   0  0  0  0  0  0  0  0  0  0  0  0
   -7.5699   -1.3171    2.3239 H   0  0  0  0  0  0  0  0  0  0  0  0
   -6.6057    0.0628    2.8060 H   0  0  0  0  0  0  0  0  0  0  0  0
   -4.4001   -0.6377    1.5884 N   0  0  0  0  0  0  0  0  0  0  0  0
   -3.1220   -1.1455    1.1644 C   0  0  2  0  0  0  0  0  0  0  0  0
   -2.2017    0.0428    0.9187 C   0  0  0  0  0  0  0  0  0  0  0  0
   -2.6171    1.1750    0.6807 O   0  0  0  0  0  0  0  0  0  0  0  0
   -3.2533   -1.9992   -0.0873 C   0  0  0  0  0  0  0  0  0  0  0  0
   -4.4370    0.2910    2.0047 H   0  0  0  0  0  0  0  0  0  0  0  0
   -2.7302   -1.7467    1.9921 H   0  0  0  0  0  0  0  0  0  0  0  0
   -3.6446   -1.4140   -0.9275 H   0  0  0  0  0  0  0  0  0  0  0  0
   -2.2844   -2.4081   -0.3922 H   0  0  0  0  0  0  0  0  0  0  0  0
   -3.9388   -2.8365    0.0822 H   0  0  0  0  0  0  0  0  0  0  0  0
   -0.8768   -0.3314    0.9568 N   0  0  0  0  0  0  0  0  0  0  0  0
    0.2067    0.6285    0.7375 C   0  0  2  0  0  0  0  0  0  0  0  0
    1.4655   -0.1941    0.4797 C   0  0  0  0  0  0  0  0  0  0  0  0
    2.5864    0.1948    0.8018 O   0  0  0  0  0  0  0  0  0  0  0  0
    0.3427    1.5311    1.9729 C   0  0  0  0  0  0  0  0  0  0  0  0
   -0.8560    2.4542    2.1911 C   0  0  0  0  0  0  0  0  0  0  0  0
   -0.6950    3.3057    3.4257 C   0  0  0  0  0  0  0  0  0  0  0  0
    0.2197    3.1751    4.2291 O   0  0  0  0  0  0  0  0  0  0  0  0
   -1.6870    4.2188    3.5695 O   0  0  0  0  0  0  0  0  0  0  0  0
   -0.6087   -1.2764    1.1771 H   0  0  0  0  0  0  0  0  0  0  0  0
   -0.0407    1.2349   -0.1401 H   0  0  0  0  0  0  0  0  0  0  0  0
    0.4772    0.9048    2.8649 H   0  0  0  0  0  0  0  0  0  0  0  0
    1.2429    2.1541    1.8889 H   0  0  0  0  0  0  0  0  0  0  0  0
   -0.9517    3.1415    1.3417 H   0  0  0  0  0  0  0  0  0  0  0  0
   -1.7992    1.8992    2.2269 H   0  0  0  0  0  0  0  0  0  0  0  0
   -1.6298    4.7814    4.3709 H   0  0  0  0  0  0  0  0  0  0  0  0
    1.1866   -1.4134   -0.1197 N   0  0  0  0  0  0  0  0  0  0  0  0
    2.2063   -2.3771   -0.4664 C   0  0  2  0  0  0  0  0  0  0  0  0
    2.6012   -2.1421   -1.9184 C   0  0  0  0  0  0  0  0  0  0  0  0
    1.8708   -1.5760   -2.7290 O   0  0  0  0  0  0  0  0  0  0  0  0
    1.7145   -3.8014   -0.2605 C   0  0  0  0  0  0  0  0  0  0  0  0
    0.2182   -1.6402   -0.3250 H   0  0  0  0  0  0  0  0  0  0  0  0
    3.0651   -2.1764    0.1833 H   0  0  0  0  0  0  0  0  0  0  0  0
    0.8541   -4.0209   -0.9032 H   0  0  0  0  0  0  0  0  0  0  0  0
    2.4976   -4.5295   -0.4964 H   0  0  0  0  0  0  0  0  0  0  0  0
    1.4029   -3.9599    0.7775 H   0  0  0  0  0  0  0  0  0  0  0  0
    3.8473   -2.6772   -2.2135 N   0  0  0  0  0  0  0  0  0  0  0  0
    4.4392   -2.5956   -3.5284 C   0  0  0  0  0  0  0  0  0  0  0  0
    4.3916   -3.1129   -1.4749 H   0  0  0  0  0  0  0  0  0  0  0  0
    4.1801   -3.4963   -4.1043 H   0  0  0  0  0  0  0  0  0  0  0  0
    4.0560   -1.7052   -4.0483 H   0  0  0  0  0  0  0  0  0  0  0  0
    5.5328   -2.5229   -3.4342 H   0  0  0  0  0  0  0  0  0  0  0  0
  1  3  1  0  0  0  0
  1  7  1  0  0  0  0
  1  2  2  0  0  0  0
 34 35  1  0  0  0  0
 35 43  1  0  0  0  0
 35 36  2  0  0  0  0
  8  9  1  0  0  0  0
  9 17  1  0  0  0  0
  9 10  2  0  0  0  0
 18 19  1  0  0  0  0
 19 33  1  0  0  0  0
 19 20  2  0  0  0  0
 22 23  1  0  0  0  0
 23 24  2  0  0  0  0
 23 25  1  0  0  0  0
 34 37  1  0  0  0  0
  8 11  1  0  0  0  0
 43 44  1  0  0  0  0
 21 22  1  0  0  0  0
 18 21  1  0  0  0  0
 33 34  1  0  0  0  0
  7  8  1  0  0  0  0
 17 18  1  0  0  0  0
  3  4  1  0  0  0  0
  3  5  1  0  0  0  0
  3  6  1  0  0  0  0
 37 40  1  0  0  0  0
 37 41  1  0  0  0  0
 37 42  1  0  0  0  0
 11 14  1  0  0  0  0
 11 15  1  0  0  0  0
 11 16  1  0  0  0  0
 44 46  1  0  0  0  0
 44 47  1  0  0  0  0
 44 48  1  0  0  0  0
 22 30  1  0  0  0  0
 22 31  1  0  0  0  0
 21 28  1  0  0  0  0
 21 29  1  0  0  0  0
 34 39  1  0  0  0  0
  8 13  1  0  0  0  0
 18 27  1  0  0  0  0
 43 45  1  0  0  0  0
  7 12  1  0  0  0  0
 33 38  1  0  0  0  0
 17 26  1  0  0  0  0
 25 32  1  0  0  0  0
M  END
$$$$

  -OEChem-05262214473D

 48 47  0     1  0  0  0  0  0999 V2000
   -5.5827   -1.3473    1.4591 C   0  0  0  0  0  0  0  0  0  0  0  0
   -5.7053   -2.4696    0.9825 O   0  0  0  0  0  0  0  0  0  0  0  0
   -6.7879   -0.6277    1.9670 C   0  0  0  0  0  0  0  0  0  0  0  0
   -7.2718   -0.0164    1.1885 H   0  0  0  0  0  0  0  0  0  0  0  0
   -7.5699   -1.3171    2.3239 H   0  0  0  0  0  0  0  0  0  0  0  0
   -6.6057    0.0628    2.8060 H   0  0  0  0  0  0  0  0  0  0  0  0
   -4.4001   -0.6377    1.5884 N   0  0  0  0  0  0  0  0  0  0  0  0
   -3.1220   -1.1455    1.1644 C   0  0  2  0  0  0  0  0  0  0  0  0
   -2.2017    0.0428    0.9187 C   0  0  0  0  0  0  0  0  0  0  0  0
   -2.6171    1.1750    0.6807 O   0  0  0  0  0  0  0  0  0  0  0  0
   -3.2533   -1.9992   -0.0873 C   0  0  0  0  0  0  0  0  0  0  0  0
   -4.4370    0.2910    2.0047 H   0  0  0  0  0  0  0  0  0  0  0  0
   -2.7302   -1.7467    1.9921 H   0  0  0  0  0  0  0  0  0  0  0  0
   -3.6446   -1.4140   -0.9275 H   0  0  0  0  0  0  0  0  0  0  0  0
   -2.2844   -2.4081   -0.3922 H   0  0  0  0  0  0  0  0  0  0  0  0
   -3.9388   -2.8365    0.0822 H   0  0  0  0  0  0  0  0  0  0  0  0
   -0.8768   -0.3314    0.9568 N   0  0  0  0  0  0  0  0  0  0  0  0
    0.2067    0.6285    0.7375 C   0  0  2  0  0  0  0  0  0  0  0  0
    1.4655   -0.1941    0.4797 C   0  0  0  0  0  0  0  0  0  0  0  0
    2.5388    0.0517    1.0265 O   0  0  0  0  0  0  0  0  0  0  0  0
    0.3427    1.5311    1.9729 C   0  0  0  0  0  0  0  0  0  0  0  0
   -0.8560    2.4542    2.1911 C   0  0  0  0  0  0  0  0  0  0  0  0
   -0.6950    3.3057    3.4257 C   0  0  0  0  0  0  0  0  0  0  0  0
    0.2197    3.1751    4.2291 O   0  0  0  0  0  0  0  0  0  0  0  0
   -1.6870    4.2188    3.5695 O   0  0  0  0  0  0  0  0  0  0  0  0
   -0.6087   -1.2764    1.1771 H   0  0  0  0  0  0  0  0  0  0  0  0
   -0.0407    1.2349   -0.1401 H   0  0  0  0  0  0  0  0  0  0  0  0
    0.4772    0.9048    2.8649 H   0  0  0  0  0  0  0  0  0  0  0  0
    1.2429    2.1541    1.8889 H   0  0  0  0  0  0  0  0  0  0  0  0
   -0.9517    3.1415    1.3417 H   0  0  0  0  0  0  0  0  0  0  0  0
   -1.7992    1.8992    2.2269 H   0  0  0  0  0  0  0  0  0  0  0  0
   -1.6298    4.7814    4.3709 H   0  0  0  0  0  0  0  0  0  0  0  0
    1.2413   -1.2414   -0.4016 N   0  0  0  0  0  0  0  0  0  0  0  0
    2.2724   -2.1689   -0.8082 C   0  0  2  0  0  0  0  0  0  0  0  0
    2.8792   -1.6572   -2.1080 C   0  0  0  0  0  0  0  0  0  0  0  0
    2.2899   -0.8912   -2.8676 O   0  0  0  0  0  0  0  0  0  0  0  0
    1.7156   -3.5731   -0.9840 C   0  0  0  0  0  0  0  0  0  0  0  0
    0.3066   -1.3624   -0.7798 H   0  0  0  0  0  0  0  0  0  0  0  0
    3.0339   -2.1603   -0.0207 H   0  0  0  0  0  0  0  0  0  0  0  0
    0.9510   -3.6014   -1.7689 H   0  0  0  0  0  0  0  0  0  0  0  0
    2.5033   -4.2801   -1.2642 H   0  0  0  0  0  0  0  0  0  0  0  0
    1.2530   -3.9278   -0.0566 H   0  0  0  0  0  0  0  0  0  0  0  0
    4.1391   -2.1907   -2.3413 N   0  0  0  0  0  0  0  0  0  0  0  0
    4.9167   -1.8692   -3.5152 C   0  0  0  0  0  0  0  0  0  0  0  0
    4.5585   -2.8033   -1.6481 H   0  0  0  0  0  0  0  0  0  0  0  0
    4.7177   -2.6116   -4.3020 H   0  0  0  0  0  0  0  0  0  0  0  0
    4.6380   -0.8684   -3.8766 H   0  0  0  0  0  0  0  0  0  0  0  0
    5.9868   -1.8824   -3.2609 H   0  0  0  0  0  0  0  0  0  0  0  0
  1  3  1  0  0  0  0
  1  7  1  0  0  0  0
  1  2  2  0  0  0  0
 34 35  1  0  0  0  0
 35 43  1  0  0  0  0
 35 36  2  0  0  0  0
  8  9  1  0  0  0  0
  9 17  1  0  0  0  0
  9 10  2  0  0  0  0
 18 19  1  0  0  0  0
 19 33  1  0  0  0  0
 19 20  2  0  0  0  0
 22 23  1  0  0  0  0
 23 24  2  0  0  0  0
 23 25  1  0  0  0  0
 34 37  1  0  0  0  0
  8 11  1  0  0  0  0
 43 44  1  0  0  0  0
 21 22  1  0  0  0  0
 18 21  1  0  0  0  0
 33 34  1  0  0  0  0
  7  8  1  0  0  0  0
 17 18  1  0  0  0  0
  3  4  1  0  0  0  0
  3  5  1  0  0  0  0
  3  6  1  0  0  0  0
 37 40  1  0  0  0  0
 37 41  1  0  0  0  0
 37 42  1  0  0  0  0
 11 14  1  0  0  0  0
 11 15  1  0  0  0  0
 11 16  1  0  0  0  0
 44 46  1  0  0  0  0
 44 47  1  0  0  0  0
 44 48  1  0  0  0  0
 22 30  1  0  0  0  0
 22 31  1  0  0  0  0
 21 28  1  0  0  0  0
 21 29  1  0  0  0  0
 34 39  1  0  0  0  0
  8 13  1  0  0  0  0
 18 27  1  0  0  0  0
 43 45  1  0  0  0  0
  7 12  1  0  0  0  0
 33 38  1  0  0  0  0
 17 26  1  0  0  0  0
 25 32  1  0  0  0  0
M  END
$$$$

  -OEChem-05262214473D

 48 47  0     1  0  0  0  0  0999 V2000
   -5.5827   -1.3473    1.4591 C   0  0  0  0  0  0  0  0  0  0  0  0
   -5.7053   -2.4696    0.9825 O   0  0  0  0  0  0  0  0  0  0  0  0
   -6.7879   -0.6277    1.9670 C   0  0  0  0  0  0  0  0  0  0  0  0
   -7.2718   -0.0164    1.1885 H   0  0  0  0  0  0  0  0  0  0  0  0
   -7.5699   -1.3171    2.3239 H   0  0  0  0  0  0  0  0  0  0  0  0
   -6.6057    0.0628    2.8060 H   0  0  0  0  0  0  0  0  0  0  0  0
   -4.4001   -0.6377    1.5884 N   0  0  0  0  0  0  0  0  0  0  0  0
   -3.1220   -1.1455    1.1644 C   0  0  2  0  0  0  0  0  0  0  0  0
   -2.2017    0.0428    0.9187 C   0  0  0  0  0  0  0  0  0  0  0  0
   -2.6171    1.1750    0.6807 O   0  0  0  0  0  0  0  0  0  0  0  0
   -3.2533   -1.9992   -0.0873 C   0  0  0  0  0  0  0  0  0  0  0  0
   -4.4370    0.2910    2.0047 H   0  0  0  0  0  0  0  0  0  0  0  0
   -2.7302   -1.7467    1.9921 H   0  0  0  0  0  0  0  0  0  0  0  0
   -3.6446   -1.4140   -0.9275 H   0  0  0  0  0  0  0  0  0  0  0  0
   -2.2844   -2.4081   -0.3922 H   0  0  0  0  0  0  0  0  0  0  0  0
   -3.9388   -2.8365    0.0822 H   0  0  0  0  0  0  0  0  0  0  0  0
   -0.8768   -0.3314    0.9568 N   0  0  0  0  0  0  0  0  0  0  0  0
    0.2067    0.6285    0.7375 C   0  0  2  0  0  0  0  0  0  0  0  0
    1.4655   -0.1941    0.4797 C   0  0  0  0  0  0  0  0  0  0  0  0
    2.4553   -0.1326    1.2063 O   0  0  0  0  0  0  0  0  0  0  0  0
    0.3427    1.5311    1.9729 C   0  0  0  0  0  0  0  0  0  0  0  0
   -0.8560    2.4542    2.1911 C   0  0  0  0  0  0  0  0  0  0  0  0
   -0.6950    3.3057    3.4257 C   0  0  0  0  0  0  0  0  0  0  0  0
    0.2197    3.1751    4.2291 O   0  0  0  0  0  0  0  0  0  0  0  0
   -1.6870    4.2188    3.5695 O   0  0  0  0  0  0  0  0  0  0  0  0
   -0.6087   -1.2764    1.1771 H   0  0  0  0  0  0  0  0  0  0  0  0
   -0.0407    1.2349   -0.1401 H   0  0  0  0  0  0  0  0  0  0  0  0
    0.4772    0.9048    2.8649 H   0  0  0  0  0  0  0  0  0  0  0  0
    1.2429    2.1541    1.8889 H   0  0  0  0  0  0  0  0  0  0  0  0
   -0.9517    3.1415    1.3417 H   0  0  0  0  0  0  0  0  0  0  0  0
   -1.7992    1.8992    2.2269 H   0  0  0  0  0  0  0  0  0  0  0  0
   -1.6298    4.7814    4.3709 H   0  0  0  0  0  0  0  0  0  0  0  0
    1.3410   -1.0174   -0.6295 N   0  0  0  0  0  0  0  0  0  0  0  0
    2.3930   -1.8976   -1.0846 C   0  0  2  0  0  0  0  0  0  0  0  0
    3.1954   -1.1606   -2.1488 C   0  0  0  0  0  0  0  0  0  0  0  0
    2.7440   -0.2185   -2.7966 O   0  0  0  0  0  0  0  0  0  0  0  0
    1.8275   -3.1981   -1.6339 C   0  0  0  0  0  0  0  0  0  0  0  0
    0.4676   -1.0009   -1.1474 H   0  0  0  0  0  0  0  0  0  0  0  0
    3.0328   -2.0999   -0.2187 H   0  0  0  0  0  0  0  0  0  0  0  0
    1.1838   -3.0156   -2.5020 H   0  0  0  0  0  0  0  0  0  0  0  0
    2.6270   -3.8754   -1.9518 H   0  0  0  0  0  0  0  0  0  0  0  0
    1.2261   -3.7122   -0.8764 H   0  0  0  0  0  0  0  0  0  0  0  0
    4.4600   -1.7062   -2.3201 N   0  0  0  0  0  0  0  0  0  0  0  0
    5.4077   -1.1913   -3.2806 C   0  0  0  0  0  0  0  0  0  0  0  0
    4.7573   -2.4746   -1.7260 H   0  0  0  0  0  0  0  0  0  0  0  0
    5.3032   -1.7384   -4.2291 H   0  0  0  0  0  0  0  0  0  0  0  0
    5.2129   -0.1221   -3.4508 H   0  0  0  0  0  0  0  0  0  0  0  0
    6.4291   -1.3207   -2.8934 H   0  0  0  0  0  0  0  0  0  0  0  0
  1  3  1  0  0  0  0
  1  7  1  0  0  0  0
  1  2  2  0  0  0  0
 34 35  1  0  0  0  0
 35 43  1  0  0  0  0
 35 36  2  0  0  0  0
  8  9  1  0  0  0  0
  9 17  1  0  0  0  0
  9 10  2  0  0  0  0
 18 19  1  0  0  0  0
 19 33  1  0  0  0  0
 19 20  2  0  0  0  0
 22 23  1  0  0  0  0
 23 24  2  0  0  0  0
 23 25  1  0  0  0  0
 34 37  1  0  0  0  0
  8 11  1  0  0  0  0
 43 44  1  0  0  0  0
 21 22  1  0  0  0  0
 18 21  1  0  0  0  0
 33 34  1  0  0  0  0
  7  8  1  0  0  0  0
 17 18  1  0  0  0  0
  3  4  1  0  0  0  0
  3  5  1  0  0  0  0
  3  6  1  0  0  0  0
 37 40  1  0  0  0  0
 37 41  1  0  0  0  0
 37 42  1  0  0  0  0
 11 14  1  0  0  0  0
 11 15  1  0  0  0  0
 11 16  1  0  0  0  0
 44 46  1  0  0  0  0
 44 47  1  0  0  0  0
 44 48  1  0  0  0  0
 22 30  1  0  0  0  0
 22 31  1  0  0  0  0
 21 28  1  0  0  0  0
 21 29  1  0  0  0  0
 34 39  1  0  0  0  0
  8 13  1  0  0  0  0
 18 27  1  0  0  0  0
 43 45  1  0  0  0  0
  7 12  1  0  0  0  0
 33 38  1  0  0  0  0
 17 26  1  0  0  0  0
 25 32  1  0  0  0  0
M  END
$$$$

  -OEChem-05262214473D

 48 47  0     1  0  0  0  0  0999 V2000
   -5.5827   -1.3473    1.4591 C   0  0  0  0  0  0  0  0  0  0  0  0
   -5.7053   -2.4696    0.9825 O   0  0  0  0  0  0  0  0  0  0  0  0
   -6.7879   -0.6277    1.9670 C   0  0  0  0  0  0  0  0  0  0  0  0
   -7.2718   -0.0164    1.1885 H   0  0  0  0  0  0  0  0  0  0  0  0
   -7.5699   -1.3171    2.3239 H   0  0  0  0  0  0  0  0  0  0  0  0
   -6.6057    0.0628    2.8060 H   0  0  0  0  0  0  0  0  0  0  0  0
   -4.4001   -0.6377    1.5884 N   0  0  0  0  0  0  0  0  0  0  0  0
   -3.1220   -1.1455    1.1644 C   0  0  2  0  0  0  0  0  0  0  0  0
   -2.2017    0.0428    0.9187 C   0  0  0  0  0  0  0  0  0  0  0  0
   -2.6171    1.1750    0.6807 O   0  0  0  0  0  0  0  0  0  0  0  0
   -3.2533   -1.9992   -0.0873 C   0  0  0  0  0  0  0  0  0  0  0  0
   -4.4370    0.2910    2.0047 H   0  0  0  0  0  0  0  0  0  0  0  0
   -2.7302   -1.7467    1.9921 H   0  0  0  0  0  0  0  0  0  0  0  0
   -3.6446   -1.4140   -0.9275 H   0  0  0  0  0  0  0  0  0  0  0  0
   -2.2844   -2.4081   -0.3922 H   0  0  0  0  0  0  0  0  0  0  0  0
   -3.9388   -2.8365    0.0822 H   0  0  0  0  0  0  0  0  0  0  0  0
   -0.8768   -0.3314    0.9568 N   0  0  0  0  0  0  0  0  0  0  0  0
    0.2067    0.6285    0.7375 C   0  0  2  0  0  0  0  0  0  0  0  0
    1.4655   -0.1941    0.4797 C   0  0  0  0  0  0  0  0  0  0  0  0
    2.3414   -0.3452    1.3290 O   0  0  0  0  0  0  0  0  0  0  0  0
    0.3427    1.5311    1.9729 C   0  0  0  0  0  0  0  0  0  0  0  0
   -0.8560    2.4542    2.1911 C   0  0  0  0  0  0  0  0  0  0  0  0
   -0.6950    3.3057    3.4257 C   0  0  0  0  0  0  0  0  0  0  0  0
    0.2197    3.1751    4.2291 O   0  0  0  0  0  0  0  0  0  0  0  0
   -1.6870    4.2188    3.5695 O   0  0  0  0  0  0  0  0  0  0  0  0
   -0.6087   -1.2764    1.1771 H   0  0  0  0  0  0  0  0  0  0  0  0
   -0.0407    1.2349   -0.1401 H   0  0  0  0  0  0  0  0  0  0  0  0
    0.4772    0.9048    2.8649 H   0  0  0  0  0  0  0  0  0  0  0  0
    1.2429    2.1541    1.8889 H   0  0  0  0  0  0  0  0  0  0  0  0
   -0.9517    3.1415    1.3417 H   0  0  0  0  0  0  0  0  0  0  0  0
   -1.7992    1.8992    2.2269 H   0  0  0  0  0  0  0  0  0  0  0  0
   -1.6298    4.7814    4.3709 H   0  0  0  0  0  0  0  0  0  0  0  0
    1.4789   -0.7567   -0.7880 N   0  0  0  0  0  0  0  0  0  0  0  0
    2.5600   -1.5819   -1.2769 C   0  0  2  0  0  0  0  0  0  0  0  0
    3.5283   -0.6859   -2.0379 C   0  0  0  0  0  0  0  0  0  0  0  0
    3.2022    0.3963   -2.5211 O   0  0  0  0  0  0  0  0  0  0  0  0
    2.0428   -2.7020   -2.1659 C   0  0  0  0  0  0  0  0  0  0  0  0
    0.6902   -0.5802   -1.4029 H   0  0  0  0  0  0  0  0  0  0  0  0
    3.0621   -1.9991   -0.3972 H   0  0  0  0  0  0  0  0  0  0  0  0
    1.5365   -2.3033   -3.0526 H   0  0  0  0  0  0  0  0  0  0  0  0
    2.8601   -3.3432   -2.5123 H   0  0  0  0  0  0  0  0  0  0  0  0
    1.3239   -3.3277   -1.6260 H   0  0  0  0  0  0  0  0  0  0  0  0
    4.7882   -1.2568   -2.1513 N   0  0  0  0  0  0  0  0  0  0  0  0
    5.8790   -0.6080   -2.8408 C   0  0  0  0  0  0  0  0  0  0  0  0
    4.9746   -2.1492   -1.7034 H   0  0  0  0  0  0  0  0  0  0  0  0
    5.8969   -0.9362   -3.8905 H   0  0  0  0  0  0  0  0  0  0  0  0
    5.7413    0.4826   -2.8000 H   0  0  0  0  0  0  0  0  0  0  0  0
    6.8297   -0.8759   -2.3567 H   0  0  0  0  0  0  0  0  0  0  0  0
  1  3  1  0  0  0  0
  1  7  1  0  0  0  0
  1  2  2  0  0  0  0
 34 35  1  0  0  0  0
 35 43  1  0  0  0  0
 35 36  2  0  0  0  0
  8  9  1  0  0  0  0
  9 17  1  0  0  0  0
  9 10  2  0  0  0  0
 18 19  1  0  0  0  0
 19 33  1  0  0  0  0
 19 20  2  0  0  0  0
 22 23  1  0  0  0  0
 23 24  2  0  0  0  0
 23 25  1  0  0  0  0
 34 37  1  0  0  0  0
  8 11  1  0  0  0  0
 43 44  1  0  0  0  0
 21 22  1  0  0  0  0
 18 21  1  0  0  0  0
 33 34  1  0  0  0  0
  7  8  1  0  0  0  0
 17 18  1  0  0  0  0
  3  4  1  0  0  0  0
  3  5  1  0  0  0  0
  3  6  1  0  0  0  0
 37 40  1  0  0  0  0
 37 41  1  0  0  0  0
 37 42  1  0  0  0  0
 11 14  1  0  0  0  0
 11 15  1  0  0  0  0
 11 16  1  0  0  0  0
 44 46  1  0  0  0  0
 44 47  1  0  0  0  0
 44 48  1  0  0  0  0
 22 30  1  0  0  0  0
 22 31  1  0  0  0  0
 21 28  1  0  0  0  0
 21 29  1  0  0  0  0
 34 39  1  0  0  0  0
  8 13  1  0  0  0  0
 18 27  1  0  0  0  0
 43 45  1  0  0  0  0
  7 12  1  0  0  0  0
 33 38  1  0  0  0  0
 17 26  1  0  0  0  0
 25 32  1  0  0  0  0
M  END
$$$$

  -OEChem-05262214473D

 48 47  0     1  0  0  0  0  0999 V2000
   -5.5827   -1.3473    1.4591 C   0  0  0  0  0  0  0  0  0  0  0  0
   -5.7053   -2.4696    0.9825 O   0  0  0  0  0  0  0  0  0  0  0  0
   -6.7879   -0.6277    1.9670 C   0  0  0  0  0  0  0  0  0  0  0  0
   -7.2718   -0.0164    1.1885 H   0  0  0  0  0  0  0  0  0  0  0  0
   -7.5699   -1.3171    2.3239 H   0  0  0  0  0  0  0  0  0  0  0  0
   -6.6057    0.0628    2.8060 H   0  0  0  0  0  0  0  0  0  0  0  0
   -4.4001   -0.6377    1.5884 N   0  0  0  0  0  0  0  0  0  0  0  0
   -3.1220   -1.1455    1.1644 C   0  0  2  0  0  0  0  0  0  0  0  0
   -2.2017    0.0428    0.9187 C   0  0  0  0  0  0  0  0  0  0  0  0
   -2.6171    1.1750    0.6807 O   0  0  0  0  0  0  0  0  0  0  0  0
   -3.2533   -1.9992   -0.0873 C   0  0  0  0  0  0  0  0  0  0  0  0
   -4.4370    0.2910    2.0047 H   0  0  0  0  0  0  0  0  0  0  0  0
   -2.7302   -1.7467    1.9921 H   0  0  0  0  0  0  0  0  0  0  0  0
   -3.6446   -1.4140   -0.9275 H   0  0  0  0  0  0  0  0  0  0  0  0
   -2.2844   -2.4081   -0.3922 H   0  0  0  0  0  0  0  0  0  0  0  0
   -3.9388   -2.8365    0.0822 H   0  0  0  0  0  0  0  0  0  0  0  0
   -0.8768   -0.3314    0.9568 N   0  0  0  0  0  0  0  0  0  0  0  0
    0.2067    0.6285    0.7375 C   0  0  2  0  0  0  0  0  0  0  0  0
    1.4655   -0.1941    0.4797 C   0  0  0  0  0  0  0  0  0  0  0  0
    2.2050   -0.5719    1.3863 O   0  0  0  0  0  0  0  0  0  0  0  0
    0.3427    1.5311    1.9729 C   0  0  0  0  0  0  0  0  0  0  0  0
   -0.8560    2.4542    2.1911 C   0  0  0  0  0  0  0  0  0  0  0  0
   -0.6950    3.3057    3.4257 C   0  0  0  0  0  0  0  0  0  0  0  0
    0.2197    3.1751    4.2291 O   0  0  0  0  0  0  0  0  0  0  0  0
   -1.6870    4.2188    3.5695 O   0  0  0  0  0  0  0  0  0  0  0  0
   -0.6087   -1.2764    1.1771 H   0  0  0  0  0  0  0  0  0  0  0  0
   -0.0407    1.2349   -0.1401 H   0  0  0  0  0  0  0  0  0  0  0  0
    0.4772    0.9048    2.8649 H   0  0  0  0  0  0  0  0  0  0  0  0
    1.2429    2.1541    1.8889 H   0  0  0  0  0  0  0  0  0  0  0  0
   -0.9517    3.1415    1.3417 H   0  0  0  0  0  0  0  0  0  0  0  0
   -1.7992    1.8992    2.2269 H   0  0  0  0  0  0  0  0  0  0  0  0
   -1.6298    4.7814    4.3709 H   0  0  0  0  0  0  0  0  0  0  0  0
    1.6456   -0.4772   -0.8661 N   0  0  0  0  0  0  0  0  0  0  0  0
    2.7619   -1.2431   -1.3718 C   0  0  2  0  0  0  0  0  0  0  0  0
    3.8551   -0.2657   -1.7831 C   0  0  0  0  0  0  0  0  0  0  0  0
    3.6332    0.9113   -2.0598 O   0  0  0  0  0  0  0  0  0  0  0  0
    2.3466   -2.1186   -2.5439 C   0  0  0  0  0  0  0  0  0  0  0  0
    0.9592   -0.1291   -1.5287 H   0  0  0  0  0  0  0  0  0  0  0  0
    3.1198   -1.8650   -0.5440 H   0  0  0  0  0  0  0  0  0  0  0  0
    1.9852   -1.5132   -3.3830 H   0  0  0  0  0  0  0  0  0  0  0  0
    3.1867   -2.7195   -2.9075 H   0  0  0  0  0  0  0  0  0  0  0  0
    1.5398   -2.8005   -2.2543 H   0  0  0  0  0  0  0  0  0  0  0  0
    5.1014   -0.8731   -1.8465 N   0  0  0  0  0  0  0  0  0  0  0  0
    6.2983   -0.1591   -2.2256 C   0  0  0  0  0  0  0  0  0  0  0  0
    5.1956   -1.8491   -1.5816 H   0  0  0  0  0  0  0  0  0  0  0  0
    6.4581   -0.2595   -3.3093 H   0  0  0  0  0  0  0  0  0  0  0  0
    6.1874    0.9047   -1.9684 H   0  0  0  0  0  0  0  0  0  0  0  0
    7.1612   -0.5784   -1.6874 H   0  0  0  0  0  0  0  0  0  0  0  0
  1  3  1  0  0  0  0
  1  7  1  0  0  0  0
  1  2  2  0  0  0  0
 34 35  1  0  0  0  0
 35 43  1  0  0  0  0
 35 36  2  0  0  0  0
  8  9  1  0  0  0  0
  9 17  1  0  0  0  0
  9 10  2  0  0  0  0
 18 19  1  0  0  0  0
 19 33  1  0  0  0  0
 19 20  2  0  0  0  0
 22 23  1  0  0  0  0
 23 24  2  0  0  0  0
 23 25  1  0  0  0  0
 34 37  1  0  0  0  0
  8 11  1  0  0  0  0
 43 44  1  0  0  0  0
 21 22  1  0  0  0  0
 18 21  1  0  0  0  0
 33 34  1  0  0  0  0
  7  8  1  0  0  0  0
 17 18  1  0  0  0  0
  3  4  1  0  0  0  0
  3  5  1  0  0  0  0
  3  6  1  0  0  0  0
 37 40  1  0  0  0  0
 37 41  1  0  0  0  0
 37 42  1  0  0  0  0
 11 14  1  0  0  0  0
 11 15  1  0  0  0  0
 11 16  1  0  0  0  0
 44 46  1  0  0  0  0
 44 47  1  0  0  0  0
 44 48  1  0  0  0  0
 22 30  1  0  0  0  0
 22 31  1  0  0  0  0
 21 28  1  0  0  0  0
 21 29  1  0  0  0  0
 34 39  1  0  0  0  0
  8 13  1  0  0  0  0
 18 27  1  0  0  0  0
 43 45  1  0  0  0  0
  7 12  1  0  0  0  0
 33 38  1  0  0  0  0
 17 26  1  0  0  0  0
 25 32  1  0  0  0  0
M  END
$$$$

  -OEChem-05262214473D

 48 47  0     1  0  0  0  0  0999 V2000
   -5.5827   -1.3473    1.4591 C   0  0  0  0  0  0  0  0  0  0  0  0
   -5.7053   -2.4696    0.9825 O   0  0  0  0  0  0  0  0  0  0  0  0
   -6.7879   -0.6277    1.9670 C   0  0  0  0  0  0  0  0  0  0  0  0
   -7.2718   -0.0164    1.1885 H   0  0  0  0  0  0  0  0  0  0  0  0
   -7.5699   -1.3171    2.3239 H   0  0  0  0  0  0  0  0  0  0  0  0
   -6.6057    0.0628    2.8060 H   0  0  0  0  0  0  0  0  0  0  0  0
   -4.4001   -0.6377    1.5884 N   0  0  0  0  0  0  0  0  0  0  0  0
   -3.1220   -1.1455    1.1644 C   0  0  2  0  0  0  0  0  0  0  0  0
   -2.2017    0.0428    0.9187 C   0  0  0  0  0  0  0  0  0  0  0  0
   -2.6171    1.1750    0.6807 O   0  0  0  0  0  0  0  0  0  0  0  0
   -3.2533   -1.9992   -0.0873 C   0  0  0  0  0  0  0  0  0  0  0  0
   -4.4370    0.2910    2.0047 H   0  0  0  0  0  0  0  0  0  0  0  0
   -2.7302   -1.7467    1.9921 H   0  0  0  0  0  0  0  0  0  0  0  0
   -3.6446   -1.4140   -0.9275 H   0  0  0  0  0  0  0  0  0  0  0  0
   -2.2844   -2.4081   -0.3922 H   0  0  0  0  0  0  0  0  0  0  0  0
   -3.9388   -2.8365    0.0822 H   0  0  0  0  0  0  0  0  0  0  0  0
   -0.8768   -0.3314    0.9568 N   0  0  0  0  0  0  0  0  0  0  0  0
    0.2067    0.6285    0.7375 C   0  0  2  0  0  0  0  0  0  0  0  0
    1.4655   -0.1941    0.4797 C   0  0  0  0  0  0  0  0  0  0  0  0
    2.0554   -0.7971    1.3741 O   0  0  0  0  0  0  0  0  0  0  0  0
    0.3427    1.5311    1.9729 C   0  0  0  0  0  0  0  0  0  0  0  0
   -0.8560    2.4542    2.1911 C   0  0  0  0  0  0  0  0  0  0  0  0
   -0.6950    3.3057    3.4257 C   0  0  0  0  0  0  0  0  0  0  0  0
    0.2197    3.1751    4.2291 O   0  0  0  0  0  0  0  0  0  0  0  0
   -1.6870    4.2188    3.5695 O   0  0  0  0  0  0  0  0  0  0  0  0
   -0.6087   -1.2764    1.1771 H   0  0  0  0  0  0  0  0  0  0  0  0
   -0.0407    1.2349   -0.1401 H   0  0  0  0  0  0  0  0  0  0  0  0
    0.4772    0.9048    2.8649 H   0  0  0  0  0  0  0  0  0  0  0  0
    1.2429    2.1541    1.8889 H   0  0  0  0  0  0  0  0  0  0  0  0
   -0.9517    3.1415    1.3417 H   0  0  0  0  0  0  0  0  0  0  0  0
   -1.7992    1.8992    2.2269 H   0  0  0  0  0  0  0  0  0  0  0  0
   -1.6298    4.7814    4.3709 H   0  0  0  0  0  0  0  0  0  0  0  0
    1.8297   -0.1977   -0.8586 N   0  0  0  0  0  0  0  0  0  0  0  0
    2.9851   -0.9045   -1.3631 C   0  0  2  0  0  0  0  0  0  0  0  0
    4.1536    0.0715   -1.4016 C   0  0  0  0  0  0  0  0  0  0  0  0
    4.0076    1.2913   -1.4440 O   0  0  0  0  0  0  0  0  0  0  0  0
    2.7183   -1.4877   -2.7420 C   0  0  0  0  0  0  0  0  0  0  0  0
    1.2564    0.3218   -1.5164 H   0  0  0  0  0  0  0  0  0  0  0  0
    3.2018   -1.7065   -0.6491 H   0  0  0  0  0  0  0  0  0  0  0  0
    2.4992   -0.6990   -3.4709 H   0  0  0  0  0  0  0  0  0  0  0  0
    3.5846   -2.0470   -3.1105 H   0  0  0  0  0  0  0  0  0  0  0  0
    1.8590   -2.1665   -2.7184 H   0  0  0  0  0  0  0  0  0  0  0  0
    5.3781   -0.5812   -1.4265 N   0  0  0  0  0  0  0  0  0  0  0  0
    6.6371    0.1248   -1.4770 C   0  0  0  0  0  0  0  0  0  0  0  0
    5.4052   -1.5950   -1.3691 H   0  0  0  0  0  0  0  0  0  0  0  0
    6.9487    0.2455   -2.5250 H   0  0  0  0  0  0  0  0  0  0  0  0
    6.5207    1.1153   -1.0128 H   0  0  0  0  0  0  0  0  0  0  0  0
    7.4009   -0.4484   -0.9312 H   0  0  0  0  0  0  0  0  0  0  0  0
  1  3  1  0  0  0  0
  1  7  1  0  0  0  0
  1  2  2  0  0  0  0
 34 35  1  0  0  0  0
 35 43  1  0  0  0  0
 35 36  2  0  0  0  0
  8  9  1  0  0  0  0
  9 17  1  0  0  0  0
  9 10  2  0  0  0  0
 18 19  1  0  0  0  0
 19 33  1  0  0  0  0
 19 20  2  0  0  0  0
 22 23  1  0  0  0  0
 23 24  2  0  0  0  0
 23 25  1  0  0  0  0
 34 37  1  0  0  0  0
  8 11  1  0  0  0  0
 43 44  1  0  0  0  0
 21 22  1  0  0  0  0
 18 21  1  0  0  0  0
 33 34  1  0  0  0  0
  7  8  1  0  0  0  0
 17 18  1  0  0  0  0
  3  4  1  0  0  0  0
  3  5  1  0  0  0  0
  3  6  1  0  0  0  0
 37 40  1  0  0  0  0
 37 41  1  0  0  0  0
 37 42  1  0  0  0  0
 11 14  1  0  0  0  0
 11 15  1  0  0  0  0
 11 16  1  0  0  0  0
 44 46  1  0  0  0  0
 44 47  1  0  0  0  0
 44 48  1  0  0  0  0
 22 30  1  0  0  0  0
 22 31  1  0  0  0  0
 21 28  1  0  0  0  0
 21 29  1  0  0  0  0
 34 39  1  0  0  0  0
  8 13  1  0  0  0  0
 18 27  1  0  0  0  0
 43 45  1  0  0  0  0
  7 12  1  0  0  0  0
 33 38  1  0  0  0  0
 17 26  1  0  0  0  0
 25 32  1  0  0  0  0
M  END
$$$$

  -OEChem-05262214473D

 48 47  0     1  0  0  0  0  0999 V2000
   -5.5827   -1.3473    1.4591 C   0  0  0  0  0  0  0  0  0  0  0  0
   -5.7053   -2.4696    0.9825 O   0  0  0  0  0  0  0  0  0  0  0  0
   -6.7879   -0.6277    1.9670 C   0  0  0  0  0  0  0  0  0  0  0  0
   -7.2718   -0.0164    1.1885 H   0  0  0  0  0  0  0  0  0  0  0  0
   -7.5699   -1.3171    2.3239 H   0  0  0  0  0  0  0  0  0  0  0  0
   -6.6057    0.0628    2.8060 H   0  0  0  0  0  0  0  0  0  0  0  0
   -4.4001   -0.6377    1.5884 N   0  0  0  0  0  0  0  0  0  0  0  0
   -3.1220   -1.1455    1.1644 C   0  0  2  0  0  0  0  0  0  0  0  0
   -2.2017    0.0428    0.9187 C   0  0  0  0  0  0  0  0  0  0  0  0
   -2.6171    1.1750    0.6807 O   0  0  0  0  0  0  0  0  0  0  0  0
   -3.2533   -1.9992   -0.0873 C   0  0  0  0  0  0  0  0  0  0  0  0
   -4.4370    0.2910    2.0047 H   0  0  0  0  0  0  0  0  0  0  0  0
   -2.7302   -1.7467    1.9921 H   0  0  0  0  0  0  0  0  0  0  0  0
   -3.6446   -1.4140   -0.9275 H   0  0  0  0  0  0  0  0  0  0  0  0
   -2.2844   -2.4081   -0.3922 H   0  0  0  0  0  0  0  0  0  0  0  0
   -3.9388   -2.8365    0.0822 H   0  0  0  0  0  0  0  0  0  0  0  0
   -0.8768   -0.3314    0.9568 N   0  0  0  0  0  0  0  0  0  0  0  0
    0.2067    0.6285    0.7375 C   0  0  2  0  0  0  0  0  0  0  0  0
    1.4655   -0.1941    0.4797 C   0  0  0  0  0  0  0  0  0  0  0  0
    1.9027   -1.0054    1.2934 O   0  0  0  0  0  0  0  0  0  0  0  0
    0.3427    1.5311    1.9729 C   0  0  0  0  0  0  0  0  0  0  0  0
   -0.8560    2.4542    2.1911 C   0  0  0  0  0  0  0  0  0  0  0  0
   -0.6950    3.3057    3.4257 C   0  0  0  0  0  0  0  0  0  0  0  0
    0.2197    3.1751    4.2291 O   0  0  0  0  0  0  0  0  0  0  0  0
   -1.6870    4.2188    3.5695 O   0  0  0  0  0  0  0  0  0  0  0  0
   -0.6087   -1.2764    1.1771 H   0  0  0  0  0  0  0  0  0  0  0  0
   -0.0407    1.2349   -0.1401 H   0  0  0  0  0  0  0  0  0  0  0  0
    0.4772    0.9048    2.8649 H   0  0  0  0  0  0  0  0  0  0  0  0
    1.2429    2.1541    1.8889 H   0  0  0  0  0  0  0  0  0  0  0  0
   -0.9517    3.1415    1.3417 H   0  0  0  0  0  0  0  0  0  0  0  0
   -1.7992    1.8992    2.2269 H   0  0  0  0  0  0  0  0  0  0  0  0
   -1.6298    4.7814    4.3709 H   0  0  0  0  0  0  0  0  0  0  0  0
    2.0188    0.0626   -0.7660 N   0  0  0  0  0  0  0  0  0  0  0  0
    3.2141   -0.5890   -1.2511 C   0  0  2  0  0  0  0  0  0  0  0  0
    4.4034    0.3027   -0.9194 C   0  0  0  0  0  0  0  0  0  0  0  0
    4.3000    1.5106   -0.7159 O   0  0  0  0  0  0  0  0  0  0  0  0
    3.1326   -0.8523   -2.7467 C   0  0  0  0  0  0  0  0  0  0  0  0
    1.5615    0.7418   -1.3667 H   0  0  0  0  0  0  0  0  0  0  0  0
    3.3025   -1.5347   -0.7054 H   0  0  0  0  0  0  0  0  0  0  0  0
    3.0436    0.0837   -3.3102 H   0  0  0  0  0  0  0  0  0  0  0  0
    4.0267   -1.3715   -3.1075 H   0  0  0  0  0  0  0  0  0  0  0  0
    2.2599   -1.4690   -2.9868 H   0  0  0  0  0  0  0  0  0  0  0  0
    5.5996   -0.4011   -0.9199 N   0  0  0  0  0  0  0  0  0  0  0  0
    6.8723    0.2244   -0.6460 C   0  0  0  0  0  0  0  0  0  0  0  0
    5.5891   -1.4040   -1.0803 H   0  0  0  0  0  0  0  0  0  0  0  0
    7.3351    0.5443   -1.5912 H   0  0  0  0  0  0  0  0  0  0  0  0
    6.7185    1.1001    0.0017 H   0  0  0  0  0  0  0  0  0  0  0  0
    7.5327   -0.4949   -0.1395 H   0  0  0  0  0  0  0  0  0  0  0  0
  1  3  1  0  0  0  0
  1  7  1  0  0  0  0
  1  2  2  0  0  0  0
 34 35  1  0  0  0  0
 35 43  1  0  0  0  0
 35 36  2  0  0  0  0
  8  9  1  0  0  0  0
  9 17  1  0  0  0  0
  9 10  2  0  0  0  0
 18 19  1  0  0  0  0
 19 33  1  0  0  0  0
 19 20  2  0  0  0  0
 22 23  1  0  0  0  0
 23 24  2  0  0  0  0
 23 25  1  0  0  0  0
 34 37  1  0  0  0  0
  8 11  1  0  0  0  0
 43 44  1  0  0  0  0
 21 22  1  0  0  0  0
 18 21  1  0  0  0  0
 33 34  1  0  0  0  0
  7  8  1  0  0  0  0
 17 18  1  0  0  0  0
  3  4  1  0  0  0  0
  3  5  1  0  0  0  0
  3  6  1  0  0  0  0
 37 40  1  0  0  0  0
 37 41  1  0  0  0  0
 37 42  1  0  0  0  0
 11 14  1  0  0  0  0
 11 15  1  0  0  0  0
 11 16  1  0  0  0  0
 44 46  1  0  0  0  0
 44 47  1  0  0  0  0
 44 48  1  0  0  0  0
 22 30  1  0  0  0  0
 22 31  1  0  0  0  0
 21 28  1  0  0  0  0
 21 29  1  0  0  0  0
 34 39  1  0  0  0  0
  8 13  1  0  0  0  0
 18 27  1  0  0  0  0
 43 45  1  0  0  0  0
  7 12  1  0  0  0  0
 33 38  1  0  0  0  0
 17 26  1  0  0  0  0
 25 32  1  0  0  0  0
M  END
$$$$

  -OEChem-05262214473D

 48 47  0     1  0  0  0  0  0999 V2000
   -5.5827   -1.3473    1.4591 C   0  0  0  0  0  0  0  0  0  0  0  0
   -5.7053   -2.4696    0.9825 O   0  0  0  0  0  0  0  0  0  0  0  0
   -6.7879   -0.6277    1.9670 C   0  0  0  0  0  0  0  0  0  0  0  0
   -7.2718   -0.0164    1.1885 H   0  0  0  0  0  0  0  0  0  0  0  0
   -7.5699   -1.3171    2.3239 H   0  0  0  0  0  0  0  0  0  0  0  0
   -6.6057    0.0628    2.8060 H   0  0  0  0  0  0  0  0  0  0  0  0
   -4.4001   -0.6377    1.5884 N   0  0  0  0  0  0  0  0  0  0  0  0
   -3.1220   -1.1455    1.1644 C   0  0  2  0  0  0  0  0  0  0  0  0
   -2.2017    0.0428    0.9187 C   0  0  0  0  0  0  0  0  0  0  0  0
   -2.6171    1.1750    0.6807 O   0  0  0  0  0  0  0  0  0  0  0  0
   -3.2533   -1.9992   -0.0873 C   0  0  0  0  0  0  0  0  0  0  0  0
   -4.4370    0.2910    2.0047 H   0  0  0  0  0  0  0  0  0  0  0  0
   -2.7302   -1.7467    1.9921 H   0  0  0  0  0  0  0  0  0  0  0  0
   -3.6446   -1.4140   -0.9275 H   0  0  0  0  0  0  0  0  0  0  0  0
   -2.2844   -2.4081   -0.3922 H   0  0  0  0  0  0  0  0  0  0  0  0
   -3.9388   -2.8365    0.0822 H   0  0  0  0  0  0  0  0  0  0  0  0
   -0.8768   -0.3314    0.9568 N   0  0  0  0  0  0  0  0  0  0  0  0
    0.2067    0.6285    0.7375 C   0  0  2  0  0  0  0  0  0  0  0  0
    1.4655   -0.1941    0.4797 C   0  0  0  0  0  0  0  0  0  0  0  0
    1.7573   -1.1828    1.1496 O   0  0  0  0  0  0  0  0  0  0  0  0
    0.3427    1.5311    1.9729 C   0  0  0  0  0  0  0  0  0  0  0  0
   -0.8560    2.4542    2.1911 C   0  0  0  0  0  0  0  0  0  0  0  0
   -0.6950    3.3057    3.4257 C   0  0  0  0  0  0  0  0  0  0  0  0
    0.2197    3.1751    4.2291 O   0  0  0  0  0  0  0  0  0  0  0  0
   -1.6870    4.2188    3.5695 O   0  0  0  0  0  0  0  0  0  0  0  0
   -0.6087   -1.2764    1.1771 H   0  0  0  0  0  0  0  0  0  0  0  0
   -0.0407    1.2349   -0.1401 H   0  0  0  0  0  0  0  0  0  0  0  0
    0.4772    0.9048    2.8649 H   0  0  0  0  0  0  0  0  0  0  0  0
    1.2429    2.1541    1.8889 H   0  0  0  0  0  0  0  0  0  0  0  0
   -0.9517    3.1415    1.3417 H   0  0  0  0  0  0  0  0  0  0  0  0
   -1.7992    1.8992    2.2269 H   0  0  0  0  0  0  0  0  0  0  0  0
   -1.6298    4.7814    4.3709 H   0  0  0  0  0  0  0  0  0  0  0  0
    2.1999    0.2859   -0.5946 N   0  0  0  0  0  0  0  0  0  0  0  0
    3.4336   -0.3181   -1.0437 C   0  0  2  0  0  0  0  0  0  0  0  0
    4.5875    0.4121   -0.3694 C   0  0  0  0  0  0  0  0  0  0  0  0
    4.4904    1.5541    0.0751 O   0  0  0  0  0  0  0  0  0  0  0  0
    3.5613   -0.2555   -2.5578 C   0  0  0  0  0  0  0  0  0  0  0  0
    1.8536    1.1021   -1.0899 H   0  0  0  0  0  0  0  0  0  0  0  0
    3.4153   -1.3610   -0.7089 H   0  0  0  0  0  0  0  0  0  0  0  0
    3.5813    0.7816   -2.9118 H   0  0  0  0  0  0  0  0  0  0  0  0
    4.4828   -0.7389   -2.8985 H   0  0  0  0  0  0  0  0  0  0  0  0
    2.7150   -0.7555   -3.0412 H   0  0  0  0  0  0  0  0  0  0  0  0
    5.7506   -0.3450   -0.3611 N   0  0  0  0  0  0  0  0  0  0  0  0
    6.9879    0.1328    0.2108 C   0  0  0  0  0  0  0  0  0  0  0  0
    5.7348   -1.2893   -0.7350 H   0  0  0  0  0  0  0  0  0  0  0  0
    7.5912    0.6166   -0.5714 H   0  0  0  0  0  0  0  0  0  0  0  0
    6.7673    0.8601    1.0060 H   0  0  0  0  0  0  0  0  0  0  0  0
    7.5474   -0.7146    0.6337 H   0  0  0  0  0  0  0  0  0  0  0  0
  1  3  1  0  0  0  0
  1  7  1  0  0  0  0
  1  2  2  0  0  0  0
 34 35  1  0  0  0  0
 35 43  1  0  0  0  0
 35 36  2  0  0  0  0
  8  9  1  0  0  0  0
  9 17  1  0  0  0  0
  9 10  2  0  0  0  0
 18 19  1  0  0  0  0
 19 33  1  0  0  0  0
 19 20  2  0  0  0  0
 22 23  1  0  0  0  0
 23 24  2  0  0  0  0
 23 25  1  0  0  0  0
 34 37  1  0  0  0  0
  8 11  1  0  0  0  0
 43 44  1  0  0  0  0
 21 22  1  0  0  0  0
 18 21  1  0  0  0  0
 33 34  1  0  0  0  0
  7  8  1  0  0  0  0
 17 18  1  0  0  0  0
  3  4  1  0  0  0  0
  3  5  1  0  0  0  0
  3  6  1  0  0  0  0
 37 40  1  0  0  0  0
 37 41  1  0  0  0  0
 37 42  1  0  0  0  0
 11 14  1  0  0  0  0
 11 15  1  0  0  0  0
 11 16  1  0  0  0  0
 44 46  1  0  0  0  0
 44 47  1  0  0  0  0
 44 48  1  0  0  0  0
 22 30  1  0  0  0  0
 22 31  1  0  0  0  0
 21 28  1  0  0  0  0
 21 29  1  0  0  0  0
 34 39  1  0  0  0  0
  8 13  1  0  0  0  0
 18 27  1  0  0  0  0
 43 45  1  0  0  0  0
  7 12  1  0  0  0  0
 33 38  1  0  0  0  0
 17 26  1  0  0  0  0
 25 32  1  0  0  0  0
M  END
$$$$

  -OEChem-05262214473D

 48 47  0     1  0  0  0  0  0999 V2000
   -5.5827   -1.3473    1.4591 C   0  0  0  0  0  0  0  0  0  0  0  0
   -5.7053   -2.4696    0.9825 O   0  0  0  0  0  0  0  0  0  0  0  0
   -6.7879   -0.6277    1.9670 C   0  0  0  0  0  0  0  0  0  0  0  0
   -7.2718   -0.0164    1.1885 H   0  0  0  0  0  0  0  0  0  0  0  0
   -7.5699   -1.3171    2.3239 H   0  0  0  0  0  0  0  0  0  0  0  0
   -6.6057    0.0628    2.8060 H   0  0  0  0  0  0  0  0  0  0  0  0
   -4.4001   -0.6377    1.5884 N   0  0  0  0  0  0  0  0  0  0  0  0
   -3.1220   -1.1455    1.1644 C   0  0  2  0  0  0  0  0  0  0  0  0
   -2.2017    0.0428    0.9187 C   0  0  0  0  0  0  0  0  0  0  0  0
   -2.6171    1.1750    0.6807 O   0  0  0  0  0  0  0  0  0  0  0  0
   -3.2533   -1.9992   -0.0873 C   0  0  0  0  0  0  0  0  0  0  0  0
   -4.4370    0.2910    2.0047 H   0  0  0  0  0  0  0  0  0  0  0  0
   -2.7302   -1.7467    1.9921 H   0  0  0  0  0  0  0  0  0  0  0  0
   -3.6446   -1.4140   -0.9275 H   0  0  0  0  0  0  0  0  0  0  0  0
   -2.2844   -2.4081   -0.3922 H   0  0  0  0  0  0  0  0  0  0  0  0
   -3.9388   -2.8365    0.0822 H   0  0  0  0  0  0  0  0  0  0  0  0
   -0.8768   -0.3314    0.9568 N   0  0  0  0  0  0  0  0  0  0  0  0
    0.2067    0.6285    0.7375 C   0  0  2  0  0  0  0  0  0  0  0  0
    1.4655   -0.1941    0.4797 C   0  0  0  0  0  0  0  0  0  0  0  0
    1.6292   -1.3170    0.9526 O   0  0  0  0  0  0  0  0  0  0  0  0
    0.3427    1.5311    1.9729 C   0  0  0  0  0  0  0  0  0  0  0  0
   -0.8560    2.4542    2.1911 C   0  0  0  0  0  0  0  0  0  0  0  0
   -0.6950    3.3057    3.4257 C   0  0  0  0  0  0  0  0  0  0  0  0
    0.2197    3.1751    4.2291 O   0  0  0  0  0  0  0  0  0  0  0  0
   -1.6870    4.2188    3.5695 O   0  0  0  0  0  0  0  0  0  0  0  0
   -0.6087   -1.2764    1.1771 H   0  0  0  0  0  0  0  0  0  0  0  0
   -0.0407    1.2349   -0.1401 H   0  0  0  0  0  0  0  0  0  0  0  0
    0.4772    0.9048    2.8649 H   0  0  0  0  0  0  0  0  0  0  0  0
    1.2429    2.1541    1.8889 H   0  0  0  0  0  0  0  0  0  0  0  0
   -0.9517    3.1415    1.3417 H   0  0  0  0  0  0  0  0  0  0  0  0
   -1.7992    1.8992    2.2269 H   0  0  0  0  0  0  0  0  0  0  0  0
   -1.6298    4.7814    4.3709 H   0  0  0  0  0  0  0  0  0  0  0  0
    2.3606    0.4572   -0.3560 N   0  0  0  0  0  0  0  0  0  0  0  0
    3.6285   -0.1105   -0.7548 C   0  0  2  0  0  0  0  0  0  0  0  0
    4.6934    0.3924    0.2109 C   0  0  0  0  0  0  0  0  0  0  0  0
    4.5658    1.4189    0.8750 O   0  0  0  0  0  0  0  0  0  0  0  0
    3.9750    0.2617   -2.1880 C   0  0  0  0  0  0  0  0  0  0  0  0
    2.1129    1.3782   -0.7048 H   0  0  0  0  0  0  0  0  0  0  0  0
    3.5323   -1.1975   -0.6596 H   0  0  0  0  0  0  0  0  0  0  0  0
    4.0755    1.3472   -2.3029 H   0  0  0  0  0  0  0  0  0  0  0  0
    4.9219   -0.1925   -2.4980 H   0  0  0  0  0  0  0  0  0  0  0  0
    3.1935   -0.0745   -2.8779 H   0  0  0  0  0  0  0  0  0  0  0  0
    5.8211   -0.4167    0.2117 N   0  0  0  0  0  0  0  0  0  0  0  0
    6.9759   -0.1437    1.0349 C   0  0  0  0  0  0  0  0  0  0  0  0
    5.8324   -1.2586   -0.3565 H   0  0  0  0  0  0  0  0  0  0  0  0
    7.6994    0.4575    0.4648 H   0  0  0  0  0  0  0  0  0  0  0  0
    6.6638    0.4117    1.9317 H   0  0  0  0  0  0  0  0  0  0  0  0
    7.4442   -1.0925    1.3357 H   0  0  0  0  0  0  0  0  0  0  0  0
  1  3  1  0  0  0  0
  1  7  1  0  0  0  0
  1  2  2  0  0  0  0
 34 35  1  0  0  0  0
 35 43  1  0  0  0  0
 35 36  2  0  0  0  0
  8  9  1  0  0  0  0
  9 17  1  0  0  0  0
  9 10  2  0  0  0  0
 18 19  1  0  0  0  0
 19 33  1  0  0  0  0
 19 20  2  0  0  0  0
 22 23  1  0  0  0  0
 23 24  2  0  0  0  0
 23 25  1  0  0  0  0
 34 37  1  0  0  0  0
  8 11  1  0  0  0  0
 43 44  1  0  0  0  0
 21 22  1  0  0  0  0
 18 21  1  0  0  0  0
 33 34  1  0  0  0  0
  7  8  1  0  0  0  0
 17 18  1  0  0  0  0
  3  4  1  0  0  0  0
  3  5  1  0  0  0  0
  3  6  1  0  0  0  0
 37 40  1  0  0  0  0
 37 41  1  0  0  0  0
 37 42  1  0  0  0  0
 11 14  1  0  0  0  0
 11 15  1  0  0  0  0
 11 16  1  0  0  0  0
 44 46  1  0  0  0  0
 44 47  1  0  0  0  0
 44 48  1  0  0  0  0
 22 30  1  0  0  0  0
 22 31  1  0  0  0  0
 21 28  1  0  0  0  0
 21 29  1  0  0  0  0
 34 39  1  0  0  0  0
  8 13  1  0  0  0  0
 18 27  1  0  0  0  0
 43 45  1  0  0  0  0
  7 12  1  0  0  0  0
 33 38  1  0  0  0  0
 17 26  1  0  0  0  0
 25 32  1  0  0  0  0
M  END
$$$$

  -OEChem-05262214473D

 48 47  0     1  0  0  0  0  0999 V2000
   -5.5827   -1.3473    1.4591 C   0  0  0  0  0  0  0  0  0  0  0  0
   -5.7053   -2.4696    0.9825 O   0  0  0  0  0  0  0  0  0  0  0  0
   -6.7879   -0.6277    1.9670 C   0  0  0  0  0  0  0  0  0  0  0  0
   -7.2718   -0.0164    1.1885 H   0  0  0  0  0  0  0  0  0  0  0  0
   -7.5699   -1.3171    2.3239 H   0  0  0  0  0  0  0  0  0  0  0  0
   -6.6057    0.0628    2.8060 H   0  0  0  0  0  0  0  0  0  0  0  0
   -4.4001   -0.6377    1.5884 N   0  0  0  0  0  0  0  0  0  0  0  0
   -3.1220   -1.1455    1.1644 C   0  0  2  0  0  0  0  0  0  0  0  0
   -2.2017    0.0428    0.9187 C   0  0  0  0  0  0  0  0  0  0  0  0
   -2.6171    1.1750    0.6807 O   0  0  0  0  0  0  0  0  0  0  0  0
   -3.2533   -1.9992   -0.0873 C   0  0  0  0  0  0  0  0  0  0  0  0
   -4.4370    0.2910    2.0047 H   0  0  0  0  0  0  0  0  0  0  0  0
   -2.7302   -1.7467    1.9921 H   0  0  0  0  0  0  0  0  0  0  0  0
   -3.6446   -1.4140   -0.9275 H   0  0  0  0  0  0  0  0  0  0  0  0
   -2.2844   -2.4081   -0.3922 H   0  0  0  0  0  0  0  0  0  0  0  0
   -3.9388   -2.8365    0.0822 H   0  0  0  0  0  0  0  0  0  0  0  0
   -0.8768   -0.3314    0.9568 N   0  0  0  0  0  0  0  0  0  0  0  0
    0.2067    0.6285    0.7375 C   0  0  2  0  0  0  0  0  0  0  0  0
    1.4655   -0.1941    0.4797 C   0  0  0  0  0  0  0  0  0  0  0  0
    1.5272   -1.3991    0.7157 O   0  0  0  0  0  0  0  0  0  0  0  0
    0.3427    1.5311    1.9729 C   0  0  0  0  0  0  0  0  0  0  0  0
   -0.8560    2.4542    2.1911 C   0  0  0  0  0  0  0  0  0  0  0  0
   -0.6950    3.3057    3.4257 C   0  0  0  0  0  0  0  0  0  0  0  0
    0.2197    3.1751    4.2291 O   0  0  0  0  0  0  0  0  0  0  0  0
   -1.6870    4.2188    3.5695 O   0  0  0  0  0  0  0  0  0  0  0  0
   -0.6087   -1.2764    1.1771 H   0  0  0  0  0  0  0  0  0  0  0  0
   -0.0407    1.2349   -0.1401 H   0  0  0  0  0  0  0  0  0  0  0  0
    0.4772    0.9048    2.8649 H   0  0  0  0  0  0  0  0  0  0  0  0
    1.2429    2.1541    1.8889 H   0  0  0  0  0  0  0  0  0  0  0  0
   -0.9517    3.1415    1.3417 H   0  0  0  0  0  0  0  0  0  0  0  0
   -1.7992    1.8992    2.2269 H   0  0  0  0  0  0  0  0  0  0  0  0
   -1.6298    4.7814    4.3709 H   0  0  0  0  0  0  0  0  0  0  0  0
    2.4901    0.5646   -0.0666 N   0  0  0  0  0  0  0  0  0  0  0  0
    3.7855    0.0200   -0.4042 C   0  0  2  0  0  0  0  0  0  0  0  0
    4.7139    0.2447    0.7820 C   0  0  0  0  0  0  0  0  0  0  0  0
    4.5211    1.1141    1.6293 O   0  0  0  0  0  0  0  0  0  0  0  0
    4.3457    0.6644   -1.6627 C   0  0  0  0  0  0  0  0  0  0  0  0
    2.3217    1.5514   -0.2377 H   0  0  0  0  0  0  0  0  0  0  0  0
    3.6455   -1.0552   -0.5607 H   0  0  0  0  0  0  0  0  0  0  0  0
    4.4927    1.7418   -1.5251 H   0  0  0  0  0  0  0  0  0  0  0  0
    5.3140    0.2306   -1.9332 H   0  0  0  0  0  0  0  0  0  0  0  0
    3.6626    0.5274   -2.5079 H   0  0  0  0  0  0  0  0  0  0  0  0
    5.8060   -0.6114    0.7594 N   0  0  0  0  0  0  0  0  0  0  0  0
    6.8373   -0.5862    1.7703 C   0  0  0  0  0  0  0  0  0  0  0  0
    5.8751   -1.3140    0.0292 H   0  0  0  0  0  0  0  0  0  0  0  0
    7.6524    0.0779    1.4468 H   0  0  0  0  0  0  0  0  0  0  0  0
    6.4150   -0.2146    2.7156 H   0  0  0  0  0  0  0  0  0  0  0  0
    7.2300   -1.6030    1.9187 H   0  0  0  0  0  0  0  0  0  0  0  0
  1  3  1  0  0  0  0
  1  7  1  0  0  0  0
  1  2  2  0  0  0  0
 34 35  1  0  0  0  0
 35 43  1  0  0  0  0
 35 36  2  0  0  0  0
  8  9  1  0  0  0  0
  9 17  1  0  0  0  0
  9 10  2  0  0  0  0
 18 19  1  0  0  0  0
 19 33  1  0  0  0  0
 19 20  2  0  0  0  0
 22 23  1  0  0  0  0
 23 24  2  0  0  0  0
 23 25  1  0  0  0  0
 34 37  1  0  0  0  0
  8 11  1  0  0  0  0
 43 44  1  0  0  0  0
 21 22  1  0  0  0  0
 18 21  1  0  0  0  0
 33 34  1  0  0  0  0
  7  8  1  0  0  0  0
 17 18  1  0  0  0  0
  3  4  1  0  0  0  0
  3  5  1  0  0  0  0
  3  6  1  0  0  0  0
 37 40  1  0  0  0  0
 37 41  1  0  0  0  0
 37 42  1  0  0  0  0
 11 14  1  0  0  0  0
 11 15  1  0  0  0  0
 11 16  1  0  0  0  0
 44 46  1  0  0  0  0
 44 47  1  0  0  0  0
 44 48  1  0  0  0  0
 22 30  1  0  0  0  0
 22 31  1  0  0  0  0
 21 28  1  0  0  0  0
 21 29  1  0  0  0  0
 34 39  1  0  0  0  0
  8 13  1  0  0  0  0
 18 27  1  0  0  0  0
 43 45  1  0  0  0  0
  7 12  1  0  0  0  0
 33 38  1  0  0  0  0
 17 26  1  0  0  0  0
 25 32  1  0  0  0  0
M  END
$$$$

  -OEChem-05262214473D

 48 47  0     1  0  0  0  0  0999 V2000
   -5.5827   -1.3473    1.4591 C   0  0  0  0  0  0  0  0  0  0  0  0
   -5.7053   -2.4696    0.9825 O   0  0  0  0  0  0  0  0  0  0  0  0
   -6.7879   -0.6277    1.9670 C   0  0  0  0  0  0  0  0  0  0  0  0
   -7.2718   -0.0164    1.1885 H   0  0  0  0  0  0  0  0  0  0  0  0
   -7.5699   -1.3171    2.3239 H   0  0  0  0  0  0  0  0  0  0  0  0
   -6.6057    0.0628    2.8060 H   0  0  0  0  0  0  0  0  0  0  0  0
   -4.4001   -0.6377    1.5884 N   0  0  0  0  0  0  0  0  0  0  0  0
   -3.1220   -1.1455    1.1644 C   0  0  2  0  0  0  0  0  0  0  0  0
   -2.2017    0.0428    0.9187 C   0  0  0  0  0  0  0  0  0  0  0  0
   -2.6171    1.1750    0.6807 O   0  0  0  0  0  0  0  0  0  0  0  0
   -3.2533   -1.9992   -0.0873 C   0  0  0  0  0  0  0  0  0  0  0  0
   -4.4370    0.2910    2.0047 H   0  0  0  0  0  0  0  0  0  0  0  0
   -2.7302   -1.7467    1.9921 H   0  0  0  0  0  0  0  0  0  0  0  0
   -3.6446   -1.4140   -0.9275 H   0  0  0  0  0  0  0  0  0  0  0  0
   -2.2844   -2.4081   -0.3922 H   0  0  0  0  0  0  0  0  0  0  0  0
   -3.9388   -2.8365    0.0822 H   0  0  0  0  0  0  0  0  0  0  0  0
   -0.8768   -0.3314    0.9568 N   0  0  0  0  0  0  0  0  0  0  0  0
    0.2067    0.6285    0.7375 C   0  0  2  0  0  0  0  0  0  0  0  0
    1.3578   -0.1558    0.1151 C   0  0  0  0  0  0  0  0  0  0  0  0
    1.2784   -1.3562   -0.1387 O   0  0  0  0  0  0  0  0  0  0  0  0
    0.5955    1.2698    2.0780 C   0  0  0  0  0  0  0  0  0  0  0  0
   -0.4975    2.1591    2.6706 C   0  0  0  0  0  0  0  0  0  0  0  0
   -0.0870    2.7499    3.9964 C   0  0  0  0  0  0  0  0  0  0  0  0
    0.9396    2.4448    4.5898 O   0  0  0  0  0  0  0  0  0  0  0  0
   -0.9893    3.6393    4.4794 O   0  0  0  0  0  0  0  0  0  0  0  0
   -0.6087   -1.2764    1.1771 H   0  0  0  0  0  0  0  0  0  0  0  0
   -0.1490    1.3996    0.0462 H   0  0  0  0  0  0  0  0  0  0  0  0
    0.8413    0.4789    2.7991 H   0  0  0  0  0  0  0  0  0  0  0  0
    1.5024    1.8770    1.9579 H   0  0  0  0  0  0  0  0  0  0  0  0
   -0.6947    3.0007    1.9954 H   0  0  0  0  0  0  0  0  0  0  0  0
   -1.4509    1.6289    2.7644 H   0  0  0  0  0  0  0  0  0  0  0  0
   -0.7690    4.0335    5.3500 H   0  0  0  0  0  0  0  0  0  0  0  0
    2.4611    0.6429   -0.1467 N   0  0  0  0  0  0  0  0  0  0  0  0
    3.6809    0.1400   -0.7366 C   0  0  2  0  0  0  0  0  0  0  0  0
    4.6372   -0.2175    0.3934 C   0  0  0  0  0  0  0  0  0  0  0  0
    4.5542    0.2658    1.5206 O   0  0  0  0  0  0  0  0  0  0  0  0
    4.3048    1.1624   -1.6738 C   0  0  0  0  0  0  0  0  0  0  0  0
    2.4093    1.6297    0.0876 H   0  0  0  0  0  0  0  0  0  0  0  0
    3.4139   -0.7666   -1.2905 H   0  0  0  0  0  0  0  0  0  0  0  0
    4.5789    2.0777   -1.1367 H   0  0  0  0  0  0  0  0  0  0  0  0
    5.2133    0.7692   -2.1418 H   0  0  0  0  0  0  0  0  0  0  0  0
    3.6046    1.4406   -2.4689 H   0  0  0  0  0  0  0  0  0  0  0  0
    5.6205   -1.1069   -0.0168 N   0  0  0  0  0  0  0  0  0  0  0  0
    6.6544   -1.5890    0.8691 C   0  0  0  0  0  0  0  0  0  0  0  0
    5.6013   -1.4705   -0.9650 H   0  0  0  0  0  0  0  0  0  0  0  0
    7.5399   -0.9418    0.7865 H   0  0  0  0  0  0  0  0  0  0  0  0
    6.2853   -1.5748    1.9052 H   0  0  0  0  0  0  0  0  0  0  0  0
    6.9253   -2.6181    0.5905 H   0  0  0  0  0  0  0  0  0  0  0  0
  1  3  1  0  0  0  0
  1  7  1  0  0  0  0
  1  2  2  0  0  0  0
 34 35  1  0  0  0  0
 35 43  1  0  0  0  0
 35 36  2  0  0  0  0
  8  9  1  0  0  0  0
  9 17  1  0  0  0  0
  9 10  2  0  0  0  0
 18 19  1  0  0  0  0
 19 33  1  0  0  0  0
 19 20  2  0  0  0  0
 22 23  1  0  0  0  0
 23 24  2  0  0  0  0
 23 25  1  0  0  0  0
 34 37  1  0  0  0  0
  8 11  1  0  0  0  0
 43 44  1  0  0  0  0
 21 22  1  0  0  0  0
 18 21  1  0  0  0  0
 33 34  1  0  0  0  0
  7  8  1  0  0  0  0
 17 18  1  0  0  0  0
  3  4  1  0  0  0  0
  3  5  1  0  0  0  0
  3  6  1  0  0  0  0
 37 40  1  0  0  0  0
 37 41  1  0  0  0  0
 37 42  1  0  0  0  0
 11 14  1  0  0  0  0
 11 15  1  0  0  0  0
 11 16  1  0  0  0  0
 44 46  1  0  0  0  0
 44 47  1  0  0  0  0
 44 48  1  0  0  0  0
 22 30  1  0  0  0  0
 22 31  1  0  0  0  0
 21 28  1  0  0  0  0
 21 29  1  0  0  0  0
 34 39  1  0  0  0  0
  8 13  1  0  0  0  0
 18 27  1  0  0  0  0
 43 45  1  0  0  0  0
  7 12  1  0  0  0  0
 33 38  1  0  0  0  0
 17 26  1  0  0  0  0
 25 32  1  0  0  0  0
M  END
$$$$

  -OEChem-05262214473D

 48 47  0     1  0  0  0  0  0999 V2000
   -5.5827   -1.3473    1.4591 C   0  0  0  0  0  0  0  0  0  0  0  0
   -5.7053   -2.4696    0.9825 O   0  0  0  0  0  0  0  0  0  0  0  0
   -6.7879   -0.6277    1.9670 C   0  0  0  0  0  0  0  0  0  0  0  0
   -7.2718   -0.0164    1.1885 H   0  0  0  0  0  0  0  0  0  0  0  0
   -7.5699   -1.3171    2.3239 H   0  0  0  0  0  0  0  0  0  0  0  0
   -6.6057    0.0628    2.8060 H   0  0  0  0  0  0  0  0  0  0  0  0
   -4.4001   -0.6377    1.5884 N   0  0  0  0  0  0  0  0  0  0  0  0
   -3.1220   -1.1455    1.1644 C   0  0  2  0  0  0  0  0  0  0  0  0
   -2.2017    0.0428    0.9187 C   0  0  0  0  0  0  0  0  0  0  0  0
   -2.6171    1.1750    0.6807 O   0  0  0  0  0  0  0  0  0  0  0  0
   -3.2533   -1.9992   -0.0873 C   0  0  0  0  0  0  0  0  0  0  0  0
   -4.4370    0.2910    2.0047 H   0  0  0  0  0  0  0  0  0  0  0  0
   -2.7302   -1.7467    1.9921 H   0  0  0  0  0  0  0  0  0  0  0  0
   -3.6446   -1.4140   -0.9275 H   0  0  0  0  0  0  0  0  0  0  0  0
   -2.2844   -2.4081   -0.3922 H   0  0  0  0  0  0  0  0  0  0  0  0
   -3.9388   -2.8365    0.0822 H   0  0  0  0  0  0  0  0  0  0  0  0
   -0.8768   -0.3314    0.9568 N   0  0  0  0  0  0  0  0  0  0  0  0
    0.2067    0.6285    0.7375 C   0  0  2  0  0  0  0  0  0  0  0  0
    1.3578   -0.1558    0.1151 C   0  0  0  0  0  0  0  0  0  0  0  0
    1.2052   -1.2689   -0.3841 O   0  0  0  0  0  0  0  0  0  0  0  0
    0.5955    1.2698    2.0780 C   0  0  0  0  0  0  0  0  0  0  0  0
   -0.4975    2.1591    2.6706 C   0  0  0  0  0  0  0  0  0  0  0  0
   -0.0870    2.7499    3.9964 C   0  0  0  0  0  0  0  0  0  0  0  0
    0.9396    2.4448    4.5898 O   0  0  0  0  0  0  0  0  0  0  0  0
   -0.9893    3.6393    4.4794 O   0  0  0  0  0  0  0  0  0  0  0  0
   -0.6087   -1.2764    1.1771 H   0  0  0  0  0  0  0  0  0  0  0  0
   -0.1490    1.3996    0.0462 H   0  0  0  0  0  0  0  0  0  0  0  0
    0.8413    0.4789    2.7991 H   0  0  0  0  0  0  0  0  0  0  0  0
    1.5024    1.8770    1.9579 H   0  0  0  0  0  0  0  0  0  0  0  0
   -0.6947    3.0007    1.9954 H   0  0  0  0  0  0  0  0  0  0  0  0
   -1.4509    1.6289    2.7644 H   0  0  0  0  0  0  0  0  0  0  0  0
   -0.7690    4.0335    5.3500 H   0  0  0  0  0  0  0  0  0  0  0  0
    2.5563    0.5411    0.1576 N   0  0  0  0  0  0  0  0  0  0  0  0
    3.7964    0.0169   -0.3678 C   0  0  2  0  0  0  0  0  0  0  0  0
    4.5435   -0.6579    0.7750 C   0  0  0  0  0  0  0  0  0  0  0  0
    4.3445   -0.3889    1.9579 O   0  0  0  0  0  0  0  0  0  0  0  0
    4.6401    1.1158   -0.9949 C   0  0  0  0  0  0  0  0  0  0  0  0
    2.5627    1.4652    0.5787 H   0  0  0  0  0  0  0  0  0  0  0  0
    3.5291   -0.7311   -1.1222 H   0  0  0  0  0  0  0  0  0  0  0  0
    4.9176    1.8746   -0.2542 H   0  0  0  0  0  0  0  0  0  0  0  0
    5.5661    0.7126   -1.4178 H   0  0  0  0  0  0  0  0  0  0  0  0
    4.0900    1.6198   -1.7969 H   0  0  0  0  0  0  0  0  0  0  0  0
    5.4890   -1.5646    0.3170 N   0  0  0  0  0  0  0  0  0  0  0  0
    6.3360   -2.3241    1.2068 C   0  0  0  0  0  0  0  0  0  0  0  0
    5.5727   -1.7385   -0.6803 H   0  0  0  0  0  0  0  0  0  0  0  0
    7.2802   -1.7828    1.3661 H   0  0  0  0  0  0  0  0  0  0  0  0
    5.8249   -2.4613    2.1711 H   0  0  0  0  0  0  0  0  0  0  0  0
    6.5479   -3.3072    0.7610 H   0  0  0  0  0  0  0  0  0  0  0  0
  1  3  1  0  0  0  0
  1  7  1  0  0  0  0
  1  2  2  0  0  0  0
 34 35  1  0  0  0  0
 35 43  1  0  0  0  0
 35 36  2  0  0  0  0
  8  9  1  0  0  0  0
  9 17  1  0  0  0  0
  9 10  2  0  0  0  0
 18 19  1  0  0  0  0
 19 33  1  0  0  0  0
 19 20  2  0  0  0  0
 22 23  1  0  0  0  0
 23 24  2  0  0  0  0
 23 25  1  0  0  0  0
 34 37  1  0  0  0  0
  8 11  1  0  0  0  0
 43 44  1  0  0  0  0
 21 22  1  0  0  0  0
 18 21  1  0  0  0  0
 33 34  1  0  0  0  0
  7  8  1  0  0  0  0
 17 18  1  0  0  0  0
  3  4  1  0  0  0  0
  3  5  1  0  0  0  0
  3  6  1  0  0  0  0
 37 40  1  0  0  0  0
 37 41  1  0  0  0  0
 37 42  1  0  0  0  0
 11 14  1  0  0  0  0
 11 15  1  0  0  0  0
 11 16  1  0  0  0  0
 44 46  1  0  0  0  0
 44 47  1  0  0  0  0
 44 48  1  0  0  0  0
 22 30  1  0  0  0  0
 22 31  1  0  0  0  0
 21 28  1  0  0  0  0
 21 29  1  0  0  0  0
 34 39  1  0  0  0  0
  8 13  1  0  0  0  0
 18 27  1  0  0  0  0
 43 45  1  0  0  0  0
  7 12  1  0  0  0  0
 33 38  1  0  0  0  0
 17 26  1  0  0  0  0
 25 32  1  0  0  0  0
M  END
$$$$

  -OEChem-05262214473D

 48 47  0     1  0  0  0  0  0999 V2000
   -5.5827   -1.3473    1.4591 C   0  0  0  0  0  0  0  0  0  0  0  0
   -5.7053   -2.4696    0.9825 O   0  0  0  0  0  0  0  0  0  0  0  0
   -6.7879   -0.6277    1.9670 C   0  0  0  0  0  0  0  0  0  0  0  0
   -7.2718   -0.0164    1.1885 H   0  0  0  0  0  0  0  0  0  0  0  0
   -7.5699   -1.3171    2.3239 H   0  0  0  0  0  0  0  0  0  0  0  0
   -6.6057    0.0628    2.8060 H   0  0  0  0  0  0  0  0  0  0  0  0
   -4.4001   -0.6377    1.5884 N   0  0  0  0  0  0  0  0  0  0  0  0
   -3.1220   -1.1455    1.1644 C   0  0  2  0  0  0  0  0  0  0  0  0
   -2.2017    0.0428    0.9187 C   0  0  0  0  0  0  0  0  0  0  0  0
   -2.6171    1.1750    0.6807 O   0  0  0  0  0  0  0  0  0  0  0  0
   -3.2533   -1.9992   -0.0873 C   0  0  0  0  0  0  0  0  0  0  0  0
   -4.4370    0.2910    2.0047 H   0  0  0  0  0  0  0  0  0  0  0  0
   -2.7302   -1.7467    1.9921 H   0  0  0  0  0  0  0  0  0  0  0  0
   -3.6446   -1.4140   -0.9275 H   0  0  0  0  0  0  0  0  0  0  0  0
   -2.2844   -2.4081   -0.3922 H   0  0  0  0  0  0  0  0  0  0  0  0
   -3.9388   -2.8365    0.0822 H   0  0  0  0  0  0  0  0  0  0  0  0
   -0.8768   -0.3314    0.9568 N   0  0  0  0  0  0  0  0  0  0  0  0
    0.2067    0.6285    0.7375 C   0  0  2  0  0  0  0  0  0  0  0  0
    1.3578   -0.1558    0.1151 C   0  0  0  0  0  0  0  0  0  0  0  0
    1.1763   -1.1289   -0.6140 O   0  0  0  0  0  0  0  0  0  0  0  0
    0.5955    1.2698    2.0780 C   0  0  0  0  0  0  0  0  0  0  0  0
   -0.4975    2.1591    2.6706 C   0  0  0  0  0  0  0  0  0  0  0  0
   -0.0870    2.7499    3.9964 C   0  0  0  0  0  0  0  0  0  0  0  0
    0.9396    2.4448    4.5898 O   0  0  0  0  0  0  0  0  0  0  0  0
   -0.9893    3.6393    4.4794 O   0  0  0  0  0  0  0  0  0  0  0  0
   -0.6087   -1.2764    1.1771 H   0  0  0  0  0  0  0  0  0  0  0  0
   -0.1490    1.3996    0.0462 H   0  0  0  0  0  0  0  0  0  0  0  0
    0.8413    0.4789    2.7991 H   0  0  0  0  0  0  0  0  0  0  0  0
    1.5024    1.8770    1.9579 H   0  0  0  0  0  0  0  0  0  0  0  0
   -0.6947    3.0007    1.9954 H   0  0  0  0  0  0  0  0  0  0  0  0
   -1.4509    1.6289    2.7644 H   0  0  0  0  0  0  0  0  0  0  0  0
   -0.7690    4.0335    5.3500 H   0  0  0  0  0  0  0  0  0  0  0  0
    2.5970    0.3733    0.4444 N   0  0  0  0  0  0  0  0  0  0  0  0
    3.8459   -0.1863   -0.0202 C   0  0  2  0  0  0  0  0  0  0  0  0
    4.3556   -1.1479    1.0452 C   0  0  0  0  0  0  0  0  0  0  0  0
    4.0146   -1.0845    2.2245 O   0  0  0  0  0  0  0  0  0  0  0  0
    4.8687    0.9029   -0.3036 C   0  0  0  0  0  0  0  0  0  0  0  0
    2.6282    1.1942    1.0414 H   0  0  0  0  0  0  0  0  0  0  0  0
    3.6217   -0.7418   -0.9373 H   0  0  0  0  0  0  0  0  0  0  0  0
    5.1059    1.4703    0.6037 H   0  0  0  0  0  0  0  0  0  0  0  0
    5.8046    0.4793   -0.6826 H   0  0  0  0  0  0  0  0  0  0  0  0
    4.4884    1.6104   -1.0482 H   0  0  0  0  0  0  0  0  0  0  0  0
    5.2693   -2.0581    0.5325 N   0  0  0  0  0  0  0  0  0  0  0  0
    5.9060   -3.0666    1.3471 C   0  0  0  0  0  0  0  0  0  0  0  0
    5.4788   -2.0498   -0.4614 H   0  0  0  0  0  0  0  0  0  0  0  0
    6.8635   -2.6809    1.7272 H   0  0  0  0  0  0  0  0  0  0  0  0
    5.2513   -3.3210    2.1936 H   0  0  0  0  0  0  0  0  0  0  0  0
    6.0880   -3.9662    0.7409 H   0  0  0  0  0  0  0  0  0  0  0  0
  1  3  1  0  0  0  0
  1  7  1  0  0  0  0
  1  2  2  0  0  0  0
 34 35  1  0  0  0  0
 35 43  1  0  0  0  0
 35 36  2  0  0  0  0
  8  9  1  0  0  0  0
  9 17  1  0  0  0  0
  9 10  2  0  0  0  0
 18 19  1  0  0  0  0
 19 33  1  0  0  0  0
 19 20  2  0  0  0  0
 22 23  1  0  0  0  0
 23 24  2  0  0  0  0
 23 25  1  0  0  0  0
 34 37  1  0  0  0  0
  8 11  1  0  0  0  0
 43 44  1  0  0  0  0
 21 22  1  0  0  0  0
 18 21  1  0  0  0  0
 33 34  1  0  0  0  0
  7  8  1  0  0  0  0
 17 18  1  0  0  0  0
  3  4  1  0  0  0  0
  3  5  1  0  0  0  0
  3  6  1  0  0  0  0
 37 40  1  0  0  0  0
 37 41  1  0  0  0  0
 37 42  1  0  0  0  0
 11 14  1  0  0  0  0
 11 15  1  0  0  0  0
 11 16  1  0  0  0  0
 44 46  1  0  0  0  0
 44 47  1  0  0  0  0
 44 48  1  0  0  0  0
 22 30  1  0  0  0  0
 22 31  1  0  0  0  0
 21 28  1  0  0  0  0
 21 29  1  0  0  0  0
 34 39  1  0  0  0  0
  8 13  1  0  0  0  0
 18 27  1  0  0  0  0
 43 45  1  0  0  0  0
  7 12  1  0  0  0  0
 33 38  1  0  0  0  0
 17 26  1  0  0  0  0
 25 32  1  0  0  0  0
M  END
$$$$

  -OEChem-05262214473D

 48 47  0     1  0  0  0  0  0999 V2000
   -5.5827   -1.3473    1.4591 C   0  0  0  0  0  0  0  0  0  0  0  0
   -5.7053   -2.4696    0.9825 O   0  0  0  0  0  0  0  0  0  0  0  0
   -6.7879   -0.6277    1.9670 C   0  0  0  0  0  0  0  0  0  0  0  0
   -7.2718   -0.0164    1.1885 H   0  0  0  0  0  0  0  0  0  0  0  0
   -7.5699   -1.3171    2.3239 H   0  0  0  0  0  0  0  0  0  0  0  0
   -6.6057    0.0628    2.8060 H   0  0  0  0  0  0  0  0  0  0  0  0
   -4.4001   -0.6377    1.5884 N   0  0  0  0  0  0  0  0  0  0  0  0
   -3.1220   -1.1455    1.1644 C   0  0  2  0  0  0  0  0  0  0  0  0
   -2.2017    0.0428    0.9187 C   0  0  0  0  0  0  0  0  0  0  0  0
   -2.6171    1.1750    0.6807 O   0  0  0  0  0  0  0  0  0  0  0  0
   -3.2533   -1.9992   -0.0873 C   0  0  0  0  0  0  0  0  0  0  0  0
   -4.4370    0.2910    2.0047 H   0  0  0  0  0  0  0  0  0  0  0  0
   -2.7302   -1.7467    1.9921 H   0  0  0  0  0  0  0  0  0  0  0  0
   -3.6446   -1.4140   -0.9275 H   0  0  0  0  0  0  0  0  0  0  0  0
   -2.2844   -2.4081   -0.3922 H   0  0  0  0  0  0  0  0  0  0  0  0
   -3.9388   -2.8365    0.0822 H   0  0  0  0  0  0  0  0  0  0  0  0
   -0.8768   -0.3314    0.9568 N   0  0  0  0  0  0  0  0  0  0  0  0
    0.2067    0.6285    0.7375 C   0  0  2  0  0  0  0  0  0  0  0  0
    1.3578   -0.1558    0.1151 C   0  0  0  0  0  0  0  0  0  0  0  0
    1.1937   -0.9458   -0.8125 O   0  0  0  0  0  0  0  0  0  0  0  0
    0.5955    1.2698    2.0780 C   0  0  0  0  0  0  0  0  0  0  0  0
   -0.4975    2.1591    2.6706 C   0  0  0  0  0  0  0  0  0  0  0  0
   -0.0870    2.7499    3.9964 C   0  0  0  0  0  0  0  0  0  0  0  0
    0.9396    2.4448    4.5898 O   0  0  0  0  0  0  0  0  0  0  0  0
   -0.9893    3.6393    4.4794 O   0  0  0  0  0  0  0  0  0  0  0  0
   -0.6087   -1.2764    1.1771 H   0  0  0  0  0  0  0  0  0  0  0  0
   -0.1490    1.3996    0.0462 H   0  0  0  0  0  0  0  0  0  0  0  0
    0.8413    0.4789    2.7991 H   0  0  0  0  0  0  0  0  0  0  0  0
    1.5024    1.8770    1.9579 H   0  0  0  0  0  0  0  0  0  0  0  0
   -0.6947    3.0007    1.9954 H   0  0  0  0  0  0  0  0  0  0  0  0
   -1.4509    1.6289    2.7644 H   0  0  0  0  0  0  0  0  0  0  0  0
   -0.7690    4.0335    5.3500 H   0  0  0  0  0  0  0  0  0  0  0  0
    2.5804    0.1508    0.6941 N   0  0  0  0  0  0  0  0  0  0  0  0
    3.8260   -0.4556    0.2825 C   0  0  2  0  0  0  0  0  0  0  0  0
    4.0865   -1.6541    1.1854 C   0  0  0  0  0  0  0  0  0  0  0  0
    3.5870   -1.7737    2.3022 O   0  0  0  0  0  0  0  0  0  0  0  0
    4.9751    0.5380    0.3530 C   0  0  0  0  0  0  0  0  0  0  0  0
    2.6013    0.8352    1.4441 H   0  0  0  0  0  0  0  0  0  0  0  0
    3.6855   -0.7981   -0.7486 H   0  0  0  0  0  0  0  0  0  0  0  0
    5.1309    0.8924    1.3784 H   0  0  0  0  0  0  0  0  0  0  0  0
    5.9125    0.0852    0.0137 H   0  0  0  0  0  0  0  0  0  0  0  0
    4.7726    1.4131   -0.2739 H   0  0  0  0  0  0  0  0  0  0  0  0
    4.9763   -2.5536    0.6150 N   0  0  0  0  0  0  0  0  0  0  0  0
    5.3936   -3.7657    1.2804 C   0  0  0  0  0  0  0  0  0  0  0  0
    5.3262   -2.3834   -0.3233 H   0  0  0  0  0  0  0  0  0  0  0  0
    6.3180   -3.5749    1.8452 H   0  0  0  0  0  0  0  0  0  0  0  0
    4.6035   -4.0952    1.9711 H   0  0  0  0  0  0  0  0  0  0  0  0
    5.5768   -4.5504    0.5316 H   0  0  0  0  0  0  0  0  0  0  0  0
  1  3  1  0  0  0  0
  1  7  1  0  0  0  0
  1  2  2  0  0  0  0
 34 35  1  0  0  0  0
 35 43  1  0  0  0  0
 35 36  2  0  0  0  0
  8  9  1  0  0  0  0
  9 17  1  0  0  0  0
  9 10  2  0  0  0  0
 18 19  1  0  0  0  0
 19 33  1  0  0  0  0
 19 20  2  0  0  0  0
 22 23  1  0  0  0  0
 23 24  2  0  0  0  0
 23 25  1  0  0  0  0
 34 37  1  0  0  0  0
  8 11  1  0  0  0  0
 43 44  1  0  0  0  0
 21 22  1  0  0  0  0
 18 21  1  0  0  0  0
 33 34  1  0  0  0  0
  7  8  1  0  0  0  0
 17 18  1  0  0  0  0
  3  4  1  0  0  0  0
  3  5  1  0  0  0  0
  3  6  1  0  0  0  0
 37 40  1  0  0  0  0
 37 41  1  0  0  0  0
 37 42  1  0  0  0  0
 11 14  1  0  0  0  0
 11 15  1  0  0  0  0
 11 16  1  0  0  0  0
 44 46  1  0  0  0  0
 44 47  1  0  0  0  0
 44 48  1  0  0  0  0
 22 30  1  0  0  0  0
 22 31  1  0  0  0  0
 21 28  1  0  0  0  0
 21 29  1  0  0  0  0
 34 39  1  0  0  0  0
  8 13  1  0  0  0  0
 18 27  1  0  0  0  0
 43 45  1  0  0  0  0
  7 12  1  0  0  0  0
 33 38  1  0  0  0  0
 17 26  1  0  0  0  0
 25 32  1  0  0  0  0
M  END
$$$$

  -OEChem-05262214473D

 48 47  0     1  0  0  0  0  0999 V2000
   -5.5827   -1.3473    1.4591 C   0  0  0  0  0  0  0  0  0  0  0  0
   -5.7053   -2.4696    0.9825 O   0  0  0  0  0  0  0  0  0  0  0  0
   -6.7879   -0.6277    1.9670 C   0  0  0  0  0  0  0  0  0  0  0  0
   -7.2718   -0.0164    1.1885 H   0  0  0  0  0  0  0  0  0  0  0  0
   -7.5699   -1.3171    2.3239 H   0  0  0  0  0  0  0  0  0  0  0  0
   -6.6057    0.0628    2.8060 H   0  0  0  0  0  0  0  0  0  0  0  0
   -4.4001   -0.6377    1.5884 N   0  0  0  0  0  0  0  0  0  0  0  0
   -3.1220   -1.1455    1.1644 C   0  0  2  0  0  0  0  0  0  0  0  0
   -2.2017    0.0428    0.9187 C   0  0  0  0  0  0  0  0  0  0  0  0
   -2.6171    1.1750    0.6807 O   0  0  0  0  0  0  0  0  0  0  0  0
   -3.2533   -1.9992   -0.0873 C   0  0  0  0  0  0  0  0  0  0  0  0
   -4.4370    0.2910    2.0047 H   0  0  0  0  0  0  0  0  0  0  0  0
   -2.7302   -1.7467    1.9921 H   0  0  0  0  0  0  0  0  0  0  0  0
   -3.6446   -1.4140   -0.9275 H   0  0  0  0  0  0  0  0  0  0  0  0
   -2.2844   -2.4081   -0.3922 H   0  0  0  0  0  0  0  0  0  0  0  0
   -3.9388   -2.8365    0.0822 H   0  0  0  0  0  0  0  0  0  0  0  0
   -0.8768   -0.3314    0.9568 N   0  0  0  0  0  0  0  0  0  0  0  0
    0.2067    0.6285    0.7375 C   0  0  2  0  0  0  0  0  0  0  0  0
    1.3578   -0.1558    0.1151 C   0  0  0  0  0  0  0  0  0  0  0  0
    1.2564   -0.7320   -0.9662 O   0  0  0  0  0  0  0  0  0  0  0  0
    0.5955    1.2698    2.0780 C   0  0  0  0  0  0  0  0  0  0  0  0
   -0.4975    2.1591    2.6706 C   0  0  0  0  0  0  0  0  0  0  0  0
   -0.0870    2.7499    3.9964 C   0  0  0  0  0  0  0  0  0  0  0  0
    0.9396    2.4448    4.5898 O   0  0  0  0  0  0  0  0  0  0  0  0
   -0.9893    3.6393    4.4794 O   0  0  0  0  0  0  0  0  0  0  0  0
   -0.6087   -1.2764    1.1771 H   0  0  0  0  0  0  0  0  0  0  0  0
   -0.1490    1.3996    0.0462 H   0  0  0  0  0  0  0  0  0  0  0  0
    0.8413    0.4789    2.7991 H   0  0  0  0  0  0  0  0  0  0  0  0
    1.5024    1.8770    1.9579 H   0  0  0  0  0  0  0  0  0  0  0  0
   -0.6947    3.0007    1.9954 H   0  0  0  0  0  0  0  0  0  0  0  0
   -1.4509    1.6289    2.7644 H   0  0  0  0  0  0  0  0  0  0  0  0
   -0.7690    4.0335    5.3500 H   0  0  0  0  0  0  0  0  0  0  0  0
    2.5077   -0.1110    0.8896 N   0  0  0  0  0  0  0  0  0  0  0  0
    3.7380   -0.7728    0.5196 C   0  0  2  0  0  0  0  0  0  0  0  0
    3.7544   -2.1420    1.1862 C   0  0  0  0  0  0  0  0  0  0  0  0
    3.0909   -2.4094    2.1859 O   0  0  0  0  0  0  0  0  0  0  0  0
    4.9519    0.0462    0.9301 C   0  0  0  0  0  0  0  0  0  0  0  0
    2.4838    0.4126    1.7594 H   0  0  0  0  0  0  0  0  0  0  0  0
    3.7160   -0.8960   -0.5687 H   0  0  0  0  0  0  0  0  0  0  0  0
    4.9910    0.1802    2.0173 H   0  0  0  0  0  0  0  0  0  0  0  0
    5.8825   -0.4428    0.6237 H   0  0  0  0  0  0  0  0  0  0  0  0
    4.9232    1.0414    0.4733 H   0  0  0  0  0  0  0  0  0  0  0  0
    4.6300   -3.0174    0.5590 N   0  0  0  0  0  0  0  0  0  0  0  0
    4.8337   -4.3738    1.0113 C   0  0  0  0  0  0  0  0  0  0  0  0
    5.1252   -2.7165   -0.2753 H   0  0  0  0  0  0  0  0  0  0  0  0
    5.6811   -4.4039    1.7119 H   0  0  0  0  0  0  0  0  0  0  0  0
    3.9256   -4.7312    1.5188 H   0  0  0  0  0  0  0  0  0  0  0  0
    5.0492   -5.0198    0.1474 H   0  0  0  0  0  0  0  0  0  0  0  0
  1  3  1  0  0  0  0
  1  7  1  0  0  0  0
  1  2  2  0  0  0  0
 34 35  1  0  0  0  0
 35 43  1  0  0  0  0
 35 36  2  0  0  0  0
  8  9  1  0  0  0  0
  9 17  1  0  0  0  0
  9 10  2  0  0  0  0
 18 19  1  0  0  0  0
 19 33  1  0  0  0  0
 19 20  2  0  0  0  0
 22 23  1  0  0  0  0
 23 24  2  0  0  0  0
 23 25  1  0  0  0  0
 34 37  1  0  0  0  0
  8 11  1  0  0  0  0
 43 44  1  0  0  0  0
 21 22  1  0  0  0  0
 18 21  1  0  0  0  0
 33 34  1  0  0  0  0
  7  8  1  0  0  0  0
 17 18  1  0  0  0  0
  3  4  1  0  0  0  0
  3  5  1  0  0  0  0
  3  6  1  0  0  0  0
 37 40  1  0  0  0  0
 37 41  1  0  0  0  0
 37 42  1  0  0  0  0
 11 14  1  0  0  0  0
 11 15  1  0  0  0  0
 11 16  1  0  0  0  0
 44 46  1  0  0  0  0
 44 47  1  0  0  0  0
 44 48  1  0  0  0  0
 22 30  1  0  0  0  0
 22 31  1  0  0  0  0
 21 28  1  0  0  0  0
 21 29  1  0  0  0  0
 34 39  1  0  0  0  0
  8 13  1  0  0  0  0
 18 27  1  0  0  0  0
 43 45  1  0  0  0  0
  7 12  1  0  0  0  0
 33 38  1  0  0  0  0
 17 26  1  0  0  0  0
 25 32  1  0  0  0  0
M  END
$$$$

  -OEChem-05262214473D

 48 47  0     1  0  0  0  0  0999 V2000
   -5.5827   -1.3473    1.4591 C   0  0  0  0  0  0  0  0  0  0  0  0
   -5.7053   -2.4696    0.9825 O   0  0  0  0  0  0  0  0  0  0  0  0
   -6.7879   -0.6277    1.9670 C   0  0  0  0  0  0  0  0  0  0  0  0
   -7.2718   -0.0164    1.1885 H   0  0  0  0  0  0  0  0  0  0  0  0
   -7.5699   -1.3171    2.3239 H   0  0  0  0  0  0  0  0  0  0  0  0
   -6.6057    0.0628    2.8060 H   0  0  0  0  0  0  0  0  0  0  0  0
   -4.4001   -0.6377    1.5884 N   0  0  0  0  0  0  0  0  0  0  0  0
   -3.1220   -1.1455    1.1644 C   0  0  2  0  0  0  0  0  0  0  0  0
   -2.2017    0.0428    0.9187 C   0  0  0  0  0  0  0  0  0  0  0  0
   -2.6171    1.1750    0.6807 O   0  0  0  0  0  0  0  0  0  0  0  0
   -3.2533   -1.9992   -0.0873 C   0  0  0  0  0  0  0  0  0  0  0  0
   -4.4370    0.2910    2.0047 H   0  0  0  0  0  0  0  0  0  0  0  0
   -2.7302   -1.7467    1.9921 H   0  0  0  0  0  0  0  0  0  0  0  0
   -3.6446   -1.4140   -0.9275 H   0  0  0  0  0  0  0  0  0  0  0  0
   -2.2844   -2.4081   -0.3922 H   0  0  0  0  0  0  0  0  0  0  0  0
   -3.9388   -2.8365    0.0822 H   0  0  0  0  0  0  0  0  0  0  0  0
   -0.8768   -0.3314    0.9568 N   0  0  0  0  0  0  0  0  0  0  0  0
    0.2067    0.6285    0.7375 C   0  0  2  0  0  0  0  0  0  0  0  0
    1.3578   -0.1558    0.1151 C   0  0  0  0  0  0  0  0  0  0  0  0
    1.3599   -0.5020   -1.0645 O   0  0  0  0  0  0  0  0  0  0  0  0
    0.5955    1.2698    2.0780 C   0  0  0  0  0  0  0  0  0  0  0  0
   -0.4975    2.1591    2.6706 C   0  0  0  0  0  0  0  0  0  0  0  0
   -0.0870    2.7499    3.9964 C   0  0  0  0  0  0  0  0  0  0  0  0
    0.9396    2.4448    4.5898 O   0  0  0  0  0  0  0  0  0  0  0  0
   -0.9893    3.6393    4.4794 O   0  0  0  0  0  0  0  0  0  0  0  0
   -0.6087   -1.2764    1.1771 H   0  0  0  0  0  0  0  0  0  0  0  0
   -0.1490    1.3996    0.0462 H   0  0  0  0  0  0  0  0  0  0  0  0
    0.8413    0.4789    2.7991 H   0  0  0  0  0  0  0  0  0  0  0  0
    1.5024    1.8770    1.9579 H   0  0  0  0  0  0  0  0  0  0  0  0
   -0.6947    3.0007    1.9954 H   0  0  0  0  0  0  0  0  0  0  0  0
   -1.4509    1.6289    2.7644 H   0  0  0  0  0  0  0  0  0  0  0  0
   -0.7690    4.0335    5.3500 H   0  0  0  0  0  0  0  0  0  0  0  0
    2.3838   -0.3944    1.0176 N   0  0  0  0  0  0  0  0  0  0  0  0
    3.5881   -1.1162    0.6750 C   0  0  2  0  0  0  0  0  0  0  0  0
    3.3821   -2.5784    1.0475 C   0  0  0  0  0  0  0  0  0  0  0  0
    2.5601   -2.9484    1.8833 O   0  0  0  0  0  0  0  0  0  0  0  0
    4.8008   -0.5392    1.3884 C   0  0  0  0  0  0  0  0  0  0  0  0
    2.2837   -0.0447    1.9658 H   0  0  0  0  0  0  0  0  0  0  0  0
    3.7112   -1.0289   -0.4101 H   0  0  0  0  0  0  0  0  0  0  0  0
    4.6957   -0.6177    2.4766 H   0  0  0  0  0  0  0  0  0  0  0  0
    5.7166   -1.0688    1.1058 H   0  0  0  0  0  0  0  0  0  0  0  0
    4.9301    0.5204    1.1425 H   0  0  0  0  0  0  0  0  0  0  0  0
    4.2540   -3.4179    0.3683 N   0  0  0  0  0  0  0  0  0  0  0  0
    4.2645   -4.8496    0.5581 C   0  0  0  0  0  0  0  0  0  0  0  0
    4.8894   -3.0264   -0.3208 H   0  0  0  0  0  0  0  0  0  0  0  0
    4.9961   -5.1114    1.3366 H   0  0  0  0  0  0  0  0  0  0  0  0
    3.2638   -5.1856    0.8675 H   0  0  0  0  0  0  0  0  0  0  0  0
    4.5412   -5.3424   -0.3856 H   0  0  0  0  0  0  0  0  0  0  0  0
  1  3  1  0  0  0  0
  1  7  1  0  0  0  0
  1  2  2  0  0  0  0
 34 35  1  0  0  0  0
 35 43  1  0  0  0  0
 35 36  2  0  0  0  0
  8  9  1  0  0  0  0
  9 17  1  0  0  0  0
  9 10  2  0  0  0  0
 18 19  1  0  0  0  0
 19 33  1  0  0  0  0
 19 20  2  0  0  0  0
 22 23  1  0  0  0  0
 23 24  2  0  0  0  0
 23 25  1  0  0  0  0
 34 37  1  0  0  0  0
  8 11  1  0  0  0  0
 43 44  1  0  0  0  0
 21 22  1  0  0  0  0
 18 21  1  0  0  0  0
 33 34  1  0  0  0  0
  7  8  1  0  0  0  0
 17 18  1  0  0  0  0
  3  4  1  0  0  0  0
  3  5  1  0  0  0  0
  3  6  1  0  0  0  0
 37 40  1  0  0  0  0
 37 41  1  0  0  0  0
 37 42  1  0  0  0  0
 11 14  1  0  0  0  0
 11 15  1  0  0  0  0
 11 16  1  0  0  0  0
 44 46  1  0  0  0  0
 44 47  1  0  0  0  0
 44 48  1  0  0  0  0
 22 30  1  0  0  0  0
 22 31  1  0  0  0  0
 21 28  1  0  0  0  0
 21 29  1  0  0  0  0
 34 39  1  0  0  0  0
  8 13  1  0  0  0  0
 18 27  1  0  0  0  0
 43 45  1  0  0  0  0
  7 12  1  0  0  0  0
 33 38  1  0  0  0  0
 17 26  1  0  0  0  0
 25 32  1  0  0  0  0
M  END
$$$$

  -OEChem-05262214473D

 48 47  0     1  0  0  0  0  0999 V2000
   -5.5827   -1.3473    1.4591 C   0  0  0  0  0  0  0  0  0  0  0  0
   -5.7053   -2.4696    0.9825 O   0  0  0  0  0  0  0  0  0  0  0  0
   -6.7879   -0.6277    1.9670 C   0  0  0  0  0  0  0  0  0  0  0  0
   -7.2718   -0.0164    1.1885 H   0  0  0  0  0  0  0  0  0  0  0  0
   -7.5699   -1.3171    2.3239 H   0  0  0  0  0  0  0  0  0  0  0  0
   -6.6057    0.0628    2.8060 H   0  0  0  0  0  0  0  0  0  0  0  0
   -4.4001   -0.6377    1.5884 N   0  0  0  0  0  0  0  0  0  0  0  0
   -3.1220   -1.1455    1.1644 C   0  0  2  0  0  0  0  0  0  0  0  0
   -2.2017    0.0428    0.9187 C   0  0  0  0  0  0  0  0  0  0  0  0
   -2.6171    1.1750    0.6807 O   0  0  0  0  0  0  0  0  0  0  0  0
   -3.2533   -1.9992   -0.0873 C   0  0  0  0  0  0  0  0  0  0  0  0
   -4.4370    0.2910    2.0047 H   0  0  0  0  0  0  0  0  0  0  0  0
   -2.7302   -1.7467    1.9921 H   0  0  0  0  0  0  0  0  0  0  0  0
   -3.6446   -1.4140   -0.9275 H   0  0  0  0  0  0  0  0  0  0  0  0
   -2.2844   -2.4081   -0.3922 H   0  0  0  0  0  0  0  0  0  0  0  0
   -3.9388   -2.8365    0.0822 H   0  0  0  0  0  0  0  0  0  0  0  0
   -0.8768   -0.3314    0.9568 N   0  0  0  0  0  0  0  0  0  0  0  0
    0.2067    0.6285    0.7375 C   0  0  2  0  0  0  0  0  0  0  0  0
    1.3578   -0.1558    0.1151 C   0  0  0  0  0  0  0  0  0  0  0  0
    1.4972   -0.2717   -1.1008 O   0  0  0  0  0  0  0  0  0  0  0  0
    0.5955    1.2698    2.0780 C   0  0  0  0  0  0  0  0  0  0  0  0
   -0.4975    2.1591    2.6706 C   0  0  0  0  0  0  0  0  0  0  0  0
   -0.0870    2.7499    3.9964 C   0  0  0  0  0  0  0  0  0  0  0  0
    0.9396    2.4448    4.5898 O   0  0  0  0  0  0  0  0  0  0  0  0
   -0.9893    3.6393    4.4794 O   0  0  0  0  0  0  0  0  0  0  0  0
   -0.6087   -1.2764    1.1771 H   0  0  0  0  0  0  0  0  0  0  0  0
   -0.1490    1.3996    0.0462 H   0  0  0  0  0  0  0  0  0  0  0  0
    0.8413    0.4789    2.7991 H   0  0  0  0  0  0  0  0  0  0  0  0
    1.5024    1.8770    1.9579 H   0  0  0  0  0  0  0  0  0  0  0  0
   -0.6947    3.0007    1.9954 H   0  0  0  0  0  0  0  0  0  0  0  0
   -1.4509    1.6289    2.7644 H   0  0  0  0  0  0  0  0  0  0  0  0
   -0.7690    4.0335    5.3500 H   0  0  0  0  0  0  0  0  0  0  0  0
    2.2171   -0.6801    1.0694 N   0  0  0  0  0  0  0  0  0  0  0  0
    3.3863   -1.4624    0.7381 C   0  0  2  0  0  0  0  0  0  0  0  0
    2.9948   -2.9336    0.7787 C   0  0  0  0  0  0  0  0  0  0  0  0
    2.0307   -3.3538    1.4152 O   0  0  0  0  0  0  0  0  0  0  0  0
    4.5321   -1.1781    1.6967 C   0  0  0  0  0  0  0  0  0  0  0  0
    2.0148   -0.5057    2.0492 H   0  0  0  0  0  0  0  0  0  0  0  0
    3.6714   -1.1878   -0.2834 H   0  0  0  0  0  0  0  0  0  0  0  0
    4.2651   -1.4469    2.7252 H   0  0  0  0  0  0  0  0  0  0  0  0
    5.4261   -1.7501    1.4271 H   0  0  0  0  0  0  0  0  0  0  0  0
    4.7926   -0.1142    1.6881 H   0  0  0  0  0  0  0  0  0  0  0  0
    3.8739   -3.7278    0.0558 N   0  0  0  0  0  0  0  0  0  0  0  0
    3.7247   -5.1605   -0.0484 C   0  0  0  0  0  0  0  0  0  0  0  0
    4.6350   -3.2920   -0.4566 H   0  0  0  0  0  0  0  0  0  0  0  0
    4.3097   -5.6492    0.7447 H   0  0  0  0  0  0  0  0  0  0  0  0
    2.6633   -5.4275    0.0616 H   0  0  0  0  0  0  0  0  0  0  0  0
    4.0873   -5.4964   -1.0311 H   0  0  0  0  0  0  0  0  0  0  0  0
  1  3  1  0  0  0  0
  1  7  1  0  0  0  0
  1  2  2  0  0  0  0
 34 35  1  0  0  0  0
 35 43  1  0  0  0  0
 35 36  2  0  0  0  0
  8  9  1  0  0  0  0
  9 17  1  0  0  0  0
  9 10  2  0  0  0  0
 18 19  1  0  0  0  0
 19 33  1  0  0  0  0
 19 20  2  0  0  0  0
 22 23  1  0  0  0  0
 23 24  2  0  0  0  0
 23 25  1  0  0  0  0
 34 37  1  0  0  0  0
  8 11  1  0  0  0  0
 43 44  1  0  0  0  0
 21 22  1  0  0  0  0
 18 21  1  0  0  0  0
 33 34  1  0  0  0  0
  7  8  1  0  0  0  0
 17 18  1  0  0  0  0
  3  4  1  0  0  0  0
  3  5  1  0  0  0  0
  3  6  1  0  0  0  0
 37 40  1  0  0  0  0
 37 41  1  0  0  0  0
 37 42  1  0  0  0  0
 11 14  1  0  0  0  0
 11 15  1  0  0  0  0
 11 16  1  0  0  0  0
 44 46  1  0  0  0  0
 44 47  1  0  0  0  0
 44 48  1  0  0  0  0
 22 30  1  0  0  0  0
 22 31  1  0  0  0  0
 21 28  1  0  0  0  0
 21 29  1  0  0  0  0
 34 39  1  0  0  0  0
  8 13  1  0  0  0  0
 18 27  1  0  0  0  0
 43 45  1  0  0  0  0
  7 12  1  0  0  0  0
 33 38  1  0  0  0  0
 17 26  1  0  0  0  0
 25 32  1  0  0  0  0
M  END
$$$$

  -OEChem-05262214473D

 48 47  0     1  0  0  0  0  0999 V2000
   -5.5827   -1.3473    1.4591 C   0  0  0  0  0  0  0  0  0  0  0  0
   -5.7053   -2.4696    0.9825 O   0  0  0  0  0  0  0  0  0  0  0  0
   -6.7879   -0.6277    1.9670 C   0  0  0  0  0  0  0  0  0  0  0  0
   -7.2718   -0.0164    1.1885 H   0  0  0  0  0  0  0  0  0  0  0  0
   -7.5699   -1.3171    2.3239 H   0  0  0  0  0  0  0  0  0  0  0  0
   -6.6057    0.0628    2.8060 H   0  0  0  0  0  0  0  0  0  0  0  0
   -4.4001   -0.6377    1.5884 N   0  0  0  0  0  0  0  0  0  0  0  0
   -3.1220   -1.1455    1.1644 C   0  0  2  0  0  0  0  0  0  0  0  0
   -2.2017    0.0428    0.9187 C   0  0  0  0  0  0  0  0  0  0  0  0
   -2.6171    1.1750    0.6807 O   0  0  0  0  0  0  0  0  0  0  0  0
   -3.2533   -1.9992   -0.0873 C   0  0  0  0  0  0  0  0  0  0  0  0
   -4.4370    0.2910    2.0047 H   0  0  0  0  0  0  0  0  0  0  0  0
   -2.7302   -1.7467    1.9921 H   0  0  0  0  0  0  0  0  0  0  0  0
   -3.6446   -1.4140   -0.9275 H   0  0  0  0  0  0  0  0  0  0  0  0
   -2.2844   -2.4081   -0.3922 H   0  0  0  0  0  0  0  0  0  0  0  0
   -3.9388   -2.8365    0.0822 H   0  0  0  0  0  0  0  0  0  0  0  0
   -0.8768   -0.3314    0.9568 N   0  0  0  0  0  0  0  0  0  0  0  0
    0.2067    0.6285    0.7375 C   0  0  2  0  0  0  0  0  0  0  0  0
    1.3578   -0.1558    0.1151 C   0  0  0  0  0  0  0  0  0  0  0  0
    1.6590   -0.0566   -1.0727 O   0  0  0  0  0  0  0  0  0  0  0  0
    0.5955    1.2698    2.0780 C   0  0  0  0  0  0  0  0  0  0  0  0
   -0.4975    2.1591    2.6706 C   0  0  0  0  0  0  0  0  0  0  0  0
   -0.0870    2.7499    3.9964 C   0  0  0  0  0  0  0  0  0  0  0  0
    0.9396    2.4448    4.5898 O   0  0  0  0  0  0  0  0  0  0  0  0
   -0.9893    3.6393    4.4794 O   0  0  0  0  0  0  0  0  0  0  0  0
   -0.6087   -1.2764    1.1771 H   0  0  0  0  0  0  0  0  0  0  0  0
   -0.1490    1.3996    0.0462 H   0  0  0  0  0  0  0  0  0  0  0  0
    0.8413    0.4789    2.7991 H   0  0  0  0  0  0  0  0  0  0  0  0
    1.5024    1.8770    1.9579 H   0  0  0  0  0  0  0  0  0  0  0  0
   -0.6947    3.0007    1.9954 H   0  0  0  0  0  0  0  0  0  0  0  0
   -1.4509    1.6289    2.7644 H   0  0  0  0  0  0  0  0  0  0  0  0
   -0.7690    4.0335    5.3500 H   0  0  0  0  0  0  0  0  0  0  0  0
    2.0191   -0.9486    1.0415 N   0  0  0  0  0  0  0  0  0  0  0  0
    3.1464   -1.7878    0.7045 C   0  0  2  0  0  0  0  0  0  0  0  0
    2.6190   -3.1833    0.3982 C   0  0  0  0  0  0  0  0  0  0  0  0
    1.5389   -3.5982    0.8134 O   0  0  0  0  0  0  0  0  0  0  0  0
    4.1641   -1.8271    1.8339 C   0  0  0  0  0  0  0  0  0  0  0  0
    1.6952   -0.9388    2.0040 H   0  0  0  0  0  0  0  0  0  0  0  0
    3.5994   -1.3618   -0.1974 H   0  0  0  0  0  0  0  0  0  0  0  0
    3.7285   -2.2509    2.7461 H   0  0  0  0  0  0  0  0  0  0  0  0
    5.0308   -2.4403    1.5658 H   0  0  0  0  0  0  0  0  0  0  0  0
    4.5202   -0.8192    2.0729 H   0  0  0  0  0  0  0  0  0  0  0  0
    3.5156   -3.9259   -0.3572 N   0  0  0  0  0  0  0  0  0  0  0  0
    3.2512   -5.2855   -0.7667 C   0  0  0  0  0  0  0  0  0  0  0  0
    4.3794   -3.4951   -0.6735 H   0  0  0  0  0  0  0  0  0  0  0  0
    3.6686   -5.9806   -0.0233 H   0  0  0  0  0  0  0  0  0  0  0  0
    2.1649   -5.4404   -0.8440 H   0  0  0  0  0  0  0  0  0  0  0  0
    3.7186   -5.4711   -1.7450 H   0  0  0  0  0  0  0  0  0  0  0  0
  1  3  1  0  0  0  0
  1  7  1  0  0  0  0
  1  2  2  0  0  0  0
 34 35  1  0  0  0  0
 35 43  1  0  0  0  0
 35 36  2  0  0  0  0
  8  9  1  0  0  0  0
  9 17  1  0  0  0  0
  9 10  2  0  0  0  0
 18 19  1  0  0  0  0
 19 33  1  0  0  0  0
 19 20  2  0  0  0  0
 22 23  1  0  0  0  0
 23 24  2  0  0  0  0
 23 25  1  0  0  0  0
 34 37  1  0  0  0  0
  8 11  1  0  0  0  0
 43 44  1  0  0  0  0
 21 22  1  0  0  0  0
 18 21  1  0  0  0  0
 33 34  1  0  0  0  0
  7  8  1  0  0  0  0
 17 18  1  0  0  0  0
  3  4  1  0  0  0  0
  3  5  1  0  0  0  0
  3  6  1  0  0  0  0
 37 40  1  0  0  0  0
 37 41  1  0  0  0  0
 37 42  1  0  0  0  0
 11 14  1  0  0  0  0
 11 15  1  0  0  0  0
 11 16  1  0  0  0  0
 44 46  1  0  0  0  0
 44 47  1  0  0  0  0
 44 48  1  0  0  0  0
 22 30  1  0  0  0  0
 22 31  1  0  0  0  0
 21 28  1  0  0  0  0
 21 29  1  0  0  0  0
 34 39  1  0  0  0  0
  8 13  1  0  0  0  0
 18 27  1  0  0  0  0
 43 45  1  0  0  0  0
  7 12  1  0  0  0  0
 33 38  1  0  0  0  0
 17 26  1  0  0  0  0
 25 32  1  0  0  0  0
M  END
$$$$

  -OEChem-05262214473D

 48 47  0     1  0  0  0  0  0999 V2000
   -5.5827   -1.3473    1.4591 C   0  0  0  0  0  0  0  0  0  0  0  0
   -5.7053   -2.4696    0.9825 O   0  0  0  0  0  0  0  0  0  0  0  0
   -6.7879   -0.6277    1.9670 C   0  0  0  0  0  0  0  0  0  0  0  0
   -7.2718   -0.0164    1.1885 H   0  0  0  0  0  0  0  0  0  0  0  0
   -7.5699   -1.3171    2.3239 H   0  0  0  0  0  0  0  0  0  0  0  0
   -6.6057    0.0628    2.8060 H   0  0  0  0  0  0  0  0  0  0  0  0
   -4.4001   -0.6377    1.5884 N   0  0  0  0  0  0  0  0  0  0  0  0
   -3.1220   -1.1455    1.1644 C   0  0  2  0  0  0  0  0  0  0  0  0
   -2.2017    0.0428    0.9187 C   0  0  0  0  0  0  0  0  0  0  0  0
   -2.6171    1.1750    0.6807 O   0  0  0  0  0  0  0  0  0  0  0  0
   -3.2533   -1.9992   -0.0873 C   0  0  0  0  0  0  0  0  0  0  0  0
   -4.4370    0.2910    2.0047 H   0  0  0  0  0  0  0  0  0  0  0  0
   -2.7302   -1.7467    1.9921 H   0  0  0  0  0  0  0  0  0  0  0  0
   -3.6446   -1.4140   -0.9275 H   0  0  0  0  0  0  0  0  0  0  0  0
   -2.2844   -2.4081   -0.3922 H   0  0  0  0  0  0  0  0  0  0  0  0
   -3.9388   -2.8365    0.0822 H   0  0  0  0  0  0  0  0  0  0  0  0
   -0.8768   -0.3314    0.9568 N   0  0  0  0  0  0  0  0  0  0  0  0
    0.2067    0.6285    0.7375 C   0  0  2  0  0  0  0  0  0  0  0  0
    1.3578   -0.1558    0.1151 C   0  0  0  0  0  0  0  0  0  0  0  0
    1.8343    0.1286   -0.9819 O   0  0  0  0  0  0  0  0  0  0  0  0
    0.5955    1.2698    2.0780 C   0  0  0  0  0  0  0  0  0  0  0  0
   -0.4975    2.1591    2.6706 C   0  0  0  0  0  0  0  0  0  0  0  0
   -0.0870    2.7499    3.9964 C   0  0  0  0  0  0  0  0  0  0  0  0
    0.9396    2.4448    4.5898 O   0  0  0  0  0  0  0  0  0  0  0  0
   -0.9893    3.6393    4.4794 O   0  0  0  0  0  0  0  0  0  0  0  0
   -0.6087   -1.2764    1.1771 H   0  0  0  0  0  0  0  0  0  0  0  0
   -0.1490    1.3996    0.0462 H   0  0  0  0  0  0  0  0  0  0  0  0
    0.8413    0.4789    2.7991 H   0  0  0  0  0  0  0  0  0  0  0  0
    1.5024    1.8770    1.9579 H   0  0  0  0  0  0  0  0  0  0  0  0
   -0.6947    3.0007    1.9954 H   0  0  0  0  0  0  0  0  0  0  0  0
   -1.4509    1.6289    2.7644 H   0  0  0  0  0  0  0  0  0  0  0  0
   -0.7690    4.0335    5.3500 H   0  0  0  0  0  0  0  0  0  0  0  0
    1.8032   -1.1815    0.9358 N   0  0  0  0  0  0  0  0  0  0  0  0
    2.8849   -2.0702    0.5767 C   0  0  2  0  0  0  0  0  0  0  0  0
    2.2802   -3.3105   -0.0680 C   0  0  0  0  0  0  0  0  0  0  0  0
    1.1180   -3.6648    0.1189 O   0  0  0  0  0  0  0  0  0  0  0  0
    3.7218   -2.4419    1.7908 C   0  0  0  0  0  0  0  0  0  0  0  0
    1.3468   -1.3146    1.8332 H   0  0  0  0  0  0  0  0  0  0  0  0
    3.4999   -1.5391   -0.1579 H   0  0  0  0  0  0  0  0  0  0  0  0
    3.1225   -2.9750    2.5379 H   0  0  0  0  0  0  0  0  0  0  0  0
    4.5577   -3.0923    1.5124 H   0  0  0  0  0  0  0  0  0  0  0  0
    4.1315   -1.5466    2.2707 H   0  0  0  0  0  0  0  0  0  0  0  0
    3.2035   -3.9989   -0.8424 N   0  0  0  0  0  0  0  0  0  0  0  0
    2.8763   -5.2159   -1.5479 C   0  0  0  0  0  0  0  0  0  0  0  0
    4.1398   -3.6220   -0.9566 H   0  0  0  0  0  0  0  0  0  0  0  0
    3.1166   -6.0831   -0.9152 H   0  0  0  0  0  0  0  0  0  0  0  0
    1.8027   -5.2234   -1.7875 H   0  0  0  0  0  0  0  0  0  0  0  0
    3.4601   -5.2683   -2.4788 H   0  0  0  0  0  0  0  0  0  0  0  0
  1  3  1  0  0  0  0
  1  7  1  0  0  0  0
  1  2  2  0  0  0  0
 34 35  1  0  0  0  0
 35 43  1  0  0  0  0
 35 36  2  0  0  0  0
  8  9  1  0  0  0  0
  9 17  1  0  0  0  0
  9 10  2  0  0  0  0
 18 19  1  0  0  0  0
 19 33  1  0  0  0  0
 19 20  2  0  0  0  0
 22 23  1  0  0  0  0
 23 24  2  0  0  0  0
 23 25  1  0  0  0  0
 34 37  1  0  0  0  0
  8 11  1  0  0  0  0
 43 44  1  0  0  0  0
 21 22  1  0  0  0  0
 18 21  1  0  0  0  0
 33 34  1  0  0  0  0
  7  8  1  0  0  0  0
 17 18  1  0  0  0  0
  3  4  1  0  0  0  0
  3  5  1  0  0  0  0
  3  6  1  0  0  0  0
 37 40  1  0  0  0  0
 37 41  1  0  0  0  0
 37 42  1  0  0  0  0
 11 14  1  0  0  0  0
 11 15  1  0  0  0  0
 11 16  1  0  0  0  0
 44 46  1  0  0  0  0
 44 47  1  0  0  0  0
 44 48  1  0  0  0  0
 22 30  1  0  0  0  0
 22 31  1  0  0  0  0
 21 28  1  0  0  0  0
 21 29  1  0  0  0  0
 34 39  1  0  0  0  0
  8 13  1  0  0  0  0
 18 27  1  0  0  0  0
 43 45  1  0  0  0  0
  7 12  1  0  0  0  0
 33 38  1  0  0  0  0
 17 26  1  0  0  0  0
 25 32  1  0  0  0  0
M  END
$$$$

  -OEChem-05262214473D

 48 47  0     1  0  0  0  0  0999 V2000
   -5.5827   -1.3473    1.4591 C   0  0  0  0  0  0  0  0  0  0  0  0
   -5.7053   -2.4696    0.9825 O   0  0  0  0  0  0  0  0  0  0  0  0
   -6.7879   -0.6277    1.9670 C   0  0  0  0  0  0  0  0  0  0  0  0
   -7.2718   -0.0164    1.1885 H   0  0  0  0  0  0  0  0  0  0  0  0
   -7.5699   -1.3171    2.3239 H   0  0  0  0  0  0  0  0  0  0  0  0
   -6.6057    0.0628    2.8060 H   0  0  0  0  0  0  0  0  0  0  0  0
   -4.4001   -0.6377    1.5884 N   0  0  0  0  0  0  0  0  0  0  0  0
   -3.1220   -1.1455    1.1644 C   0  0  2  0  0  0  0  0  0  0  0  0
   -2.2017    0.0428    0.9187 C   0  0  0  0  0  0  0  0  0  0  0  0
   -2.6171    1.1750    0.6807 O   0  0  0  0  0  0  0  0  0  0  0  0
   -3.2533   -1.9992   -0.0873 C   0  0  0  0  0  0  0  0  0  0  0  0
   -4.4370    0.2910    2.0047 H   0  0  0  0  0  0  0  0  0  0  0  0
   -2.7302   -1.7467    1.9921 H   0  0  0  0  0  0  0  0  0  0  0  0
   -3.6446   -1.4140   -0.9275 H   0  0  0  0  0  0  0  0  0  0  0  0
   -2.2844   -2.4081   -0.3922 H   0  0  0  0  0  0  0  0  0  0  0  0
   -3.9388   -2.8365    0.0822 H   0  0  0  0  0  0  0  0  0  0  0  0
   -0.8768   -0.3314    0.9568 N   0  0  0  0  0  0  0  0  0  0  0  0
    0.2067    0.6285    0.7375 C   0  0  2  0  0  0  0  0  0  0  0  0
    1.3578   -0.1558    0.1151 C   0  0  0  0  0  0  0  0  0  0  0  0
    2.0110    0.2713   -0.8347 O   0  0  0  0  0  0  0  0  0  0  0  0
    0.5955    1.2698    2.0780 C   0  0  0  0  0  0  0  0  0  0  0  0
   -0.4975    2.1591    2.6706 C   0  0  0  0  0  0  0  0  0  0  0  0
   -0.0870    2.7499    3.9964 C   0  0  0  0  0  0  0  0  0  0  0  0
    0.9396    2.4448    4.5898 O   0  0  0  0  0  0  0  0  0  0  0  0
   -0.9893    3.6393    4.4794 O   0  0  0  0  0  0  0  0  0  0  0  0
   -0.6087   -1.2764    1.1771 H   0  0  0  0  0  0  0  0  0  0  0  0
   -0.1490    1.3996    0.0462 H   0  0  0  0  0  0  0  0  0  0  0  0
    0.8413    0.4789    2.7991 H   0  0  0  0  0  0  0  0  0  0  0  0
    1.5024    1.8770    1.9579 H   0  0  0  0  0  0  0  0  0  0  0  0
   -0.6947    3.0007    1.9954 H   0  0  0  0  0  0  0  0  0  0  0  0
   -1.4509    1.6289    2.7644 H   0  0  0  0  0  0  0  0  0  0  0  0
   -0.7690    4.0335    5.3500 H   0  0  0  0  0  0  0  0  0  0  0  0
    1.5841   -1.3631    0.7595 N   0  0  0  0  0  0  0  0  0  0  0  0
    2.6194   -2.2905    0.3632 C   0  0  2  0  0  0  0  0  0  0  0  0
    2.0016   -3.3065   -0.5883 C   0  0  0  0  0  0  0  0  0  0  0  0
    0.7969   -3.5490   -0.6209 O   0  0  0  0  0  0  0  0  0  0  0  0
    3.2355   -2.9807    1.5702 C   0  0  0  0  0  0  0  0  0  0  0  0
    0.9933   -1.6075    1.5485 H   0  0  0  0  0  0  0  0  0  0  0  0
    3.3799   -1.7075   -0.1675 H   0  0  0  0  0  0  0  0  0  0  0  0
    2.4884   -3.5697    2.1147 H   0  0  0  0  0  0  0  0  0  0  0  0
    4.0389   -3.6616    1.2706 H   0  0  0  0  0  0  0  0  0  0  0  0
    3.6529   -2.2467    2.2679 H   0  0  0  0  0  0  0  0  0  0  0  0
    2.9589   -3.9417   -1.3669 N   0  0  0  0  0  0  0  0  0  0  0  0
    2.6254   -4.9566   -2.3389 C   0  0  0  0  0  0  0  0  0  0  0  0
    3.9327   -3.6640   -1.2868 H   0  0  0  0  0  0  0  0  0  0  0  0
    2.6913   -5.9496   -1.8702 H   0  0  0  0  0  0  0  0  0  0  0  0
    1.6013   -4.7912   -2.7047 H   0  0  0  0  0  0  0  0  0  0  0  0
    3.3294   -4.9019   -3.1823 H   0  0  0  0  0  0  0  0  0  0  0  0
  1  3  1  0  0  0  0
  1  7  1  0  0  0  0
  1  2  2  0  0  0  0
 34 35  1  0  0  0  0
 35 43  1  0  0  0  0
 35 36  2  0  0  0  0
  8  9  1  0  0  0  0
  9 17  1  0  0  0  0
  9 10  2  0  0  0  0
 18 19  1  0  0  0  0
 19 33  1  0  0  0  0
 19 20  2  0  0  0  0
 22 23  1  0  0  0  0
 23 24  2  0  0  0  0
 23 25  1  0  0  0  0
 34 37  1  0  0  0  0
  8 11  1  0  0  0  0
 43 44  1  0  0  0  0
 21 22  1  0  0  0  0
 18 21  1  0  0  0  0
 33 34  1  0  0  0  0
  7  8  1  0  0  0  0
 17 18  1  0  0  0  0
  3  4  1  0  0  0  0
  3  5  1  0  0  0  0
  3  6  1  0  0  0  0
 37 40  1  0  0  0  0
 37 41  1  0  0  0  0
 37 42  1  0  0  0  0
 11 14  1  0  0  0  0
 11 15  1  0  0  0  0
 11 16  1  0  0  0  0
 44 46  1  0  0  0  0
 44 47  1  0  0  0  0
 44 48  1  0  0  0  0
 22 30  1  0  0  0  0
 22 31  1  0  0  0  0
 21 28  1  0  0  0  0
 21 29  1  0  0  0  0
 34 39  1  0  0  0  0
  8 13  1  0  0  0  0
 18 27  1  0  0  0  0
 43 45  1  0  0  0  0
  7 12  1  0  0  0  0
 33 38  1  0  0  0  0
 17 26  1  0  0  0  0
 25 32  1  0  0  0  0
M  END
$$$$

  -OEChem-05262214473D

 48 47  0     1  0  0  0  0  0999 V2000
   -5.5827   -1.3473    1.4591 C   0  0  0  0  0  0  0  0  0  0  0  0
   -5.7053   -2.4696    0.9825 O   0  0  0  0  0  0  0  0  0  0  0  0
   -6.7879   -0.6277    1.9670 C   0  0  0  0  0  0  0  0  0  0  0  0
   -7.2718   -0.0164    1.1885 H   0  0  0  0  0  0  0  0  0  0  0  0
   -7.5699   -1.3171    2.3239 H   0  0  0  0  0  0  0  0  0  0  0  0
   -6.6057    0.0628    2.8060 H   0  0  0  0  0  0  0  0  0  0  0  0
   -4.4001   -0.6377    1.5884 N   0  0  0  0  0  0  0  0  0  0  0  0
   -3.1220   -1.1455    1.1644 C   0  0  2  0  0  0  0  0  0  0  0  0
   -2.2017    0.0428    0.9187 C   0  0  0  0  0  0  0  0  0  0  0  0
   -2.6171    1.1750    0.6807 O   0  0  0  0  0  0  0  0  0  0  0  0
   -3.2533   -1.9992   -0.0873 C   0  0  0  0  0  0  0  0  0  0  0  0
   -4.4370    0.2910    2.0047 H   0  0  0  0  0  0  0  0  0  0  0  0
   -2.7302   -1.7467    1.9921 H   0  0  0  0  0  0  0  0  0  0  0  0
   -3.6446   -1.4140   -0.9275 H   0  0  0  0  0  0  0  0  0  0  0  0
   -2.2844   -2.4081   -0.3922 H   0  0  0  0  0  0  0  0  0  0  0  0
   -3.9388   -2.8365    0.0822 H   0  0  0  0  0  0  0  0  0  0  0  0
   -0.8768   -0.3314    0.9568 N   0  0  0  0  0  0  0  0  0  0  0  0
    0.2067    0.6285    0.7375 C   0  0  2  0  0  0  0  0  0  0  0  0
    1.3578   -0.1558    0.1151 C   0  0  0  0  0  0  0  0  0  0  0  0
    2.1773    0.3617   -0.6412 O   0  0  0  0  0  0  0  0  0  0  0  0
    0.5955    1.2698    2.0780 C   0  0  0  0  0  0  0  0  0  0  0  0
   -0.4975    2.1591    2.6706 C   0  0  0  0  0  0  0  0  0  0  0  0
   -0.0870    2.7499    3.9964 C   0  0  0  0  0  0  0  0  0  0  0  0
    0.9396    2.4448    4.5898 O   0  0  0  0  0  0  0  0  0  0  0  0
   -0.9893    3.6393    4.4794 O   0  0  0  0  0  0  0  0  0  0  0  0
   -0.6087   -1.2764    1.1771 H   0  0  0  0  0  0  0  0  0  0  0  0
   -0.1490    1.3996    0.0462 H   0  0  0  0  0  0  0  0  0  0  0  0
    0.8413    0.4789    2.7991 H   0  0  0  0  0  0  0  0  0  0  0  0
    1.5024    1.8770    1.9579 H   0  0  0  0  0  0  0  0  0  0  0  0
   -0.6947    3.0007    1.9954 H   0  0  0  0  0  0  0  0  0  0  0  0
   -1.4509    1.6289    2.7644 H   0  0  0  0  0  0  0  0  0  0  0  0
   -0.7690    4.0335    5.3500 H   0  0  0  0  0  0  0  0  0  0  0  0
    1.3768   -1.4810    0.5245 N   0  0  0  0  0  0  0  0  0  0  0  0
    2.3681   -2.4335    0.0787 C   0  0  2  0  0  0  0  0  0  0  0  0
    1.8022   -3.1716   -1.1272 C   0  0  0  0  0  0  0  0  0  0  0  0
    0.5974   -3.2589   -1.3556 O   0  0  0  0  0  0  0  0  0  0  0  0
    2.7381   -3.4067    1.1872 C   0  0  0  0  0  0  0  0  0  0  0  0
    0.6588   -1.7974    1.1692 H   0  0  0  0  0  0  0  0  0  0  0  0
    3.2475   -1.8556   -0.2257 H   0  0  0  0  0  0  0  0  0  0  0  0
    1.8695   -3.9947    1.5054 H   0  0  0  0  0  0  0  0  0  0  0  0
    3.5099   -4.1096    0.8567 H   0  0  0  0  0  0  0  0  0  0  0  0
    3.1171   -2.8720    2.0648 H   0  0  0  0  0  0  0  0  0  0  0  0
    2.7986   -3.7581   -1.8949 N   0  0  0  0  0  0  0  0  0  0  0  0
    2.5157   -4.5251   -3.0856 C   0  0  0  0  0  0  0  0  0  0  0  0
    3.7722   -3.6181   -1.6415 H   0  0  0  0  0  0  0  0  0  0  0  0
    2.4216   -5.5892   -2.8232 H   0  0  0  0  0  0  0  0  0  0  0  0
    1.5744   -4.1734   -3.5331 H   0  0  0  0  0  0  0  0  0  0  0  0
    3.3355   -4.3968   -3.8077 H   0  0  0  0  0  0  0  0  0  0  0  0
  1  3  1  0  0  0  0
  1  7  1  0  0  0  0
  1  2  2  0  0  0  0
 34 35  1  0  0  0  0
 35 43  1  0  0  0  0
 35 36  2  0  0  0  0
  8  9  1  0  0  0  0
  9 17  1  0  0  0  0
  9 10  2  0  0  0  0
 18 19  1  0  0  0  0
 19 33  1  0  0  0  0
 19 20  2  0  0  0  0
 22 23  1  0  0  0  0
 23 24  2  0  0  0  0
 23 25  1  0  0  0  0
 34 37  1  0  0  0  0
  8 11  1  0  0  0  0
 43 44  1  0  0  0  0
 21 22  1  0  0  0  0
 18 21  1  0  0  0  0
 33 34  1  0  0  0  0
  7  8  1  0  0  0  0
 17 18  1  0  0  0  0
  3  4  1  0  0  0  0
  3  5  1  0  0  0  0
  3  6  1  0  0  0  0
 37 40  1  0  0  0  0
 37 41  1  0  0  0  0
 37 42  1  0  0  0  0
 11 14  1  0  0  0  0
 11 15  1  0  0  0  0
 11 16  1  0  0  0  0
 44 46  1  0  0  0  0
 44 47  1  0  0  0  0
 44 48  1  0  0  0  0
 22 30  1  0  0  0  0
 22 31  1  0  0  0  0
 21 28  1  0  0  0  0
 21 29  1  0  0  0  0
 34 39  1  0  0  0  0
  8 13  1  0  0  0  0
 18 27  1  0  0  0  0
 43 45  1  0  0  0  0
  7 12  1  0  0  0  0
 33 38  1  0  0  0  0
 17 26  1  0  0  0  0
 25 32  1  0  0  0  0
M  END
$$$$

  -OEChem-05262214473D

 48 47  0     1  0  0  0  0  0999 V2000
   -5.5827   -1.3473    1.4591 C   0  0  0  0  0  0  0  0  0  0  0  0
   -5.7053   -2.4696    0.9825 O   0  0  0  0  0  0  0  0  0  0  0  0
   -6.7879   -0.6277    1.9670 C   0  0  0  0  0  0  0  0  0  0  0  0
   -7.2718   -0.0164    1.1885 H   0  0  0  0  0  0  0  0  0  0  0  0
   -7.5699   -1.3171    2.3239 H   0  0  0  0  0  0  0  0  0  0  0  0
   -6.6057    0.0628    2.8060 H   0  0  0  0  0  0  0  0  0  0  0  0
   -4.4001   -0.6377    1.5884 N   0  0  0  0  0  0  0  0  0  0  0  0
   -3.1220   -1.1455    1.1644 C   0  0  2  0  0  0  0  0  0  0  0  0
   -2.2017    0.0428    0.9187 C   0  0  0  0  0  0  0  0  0  0  0  0
   -2.6171    1.1750    0.6807 O   0  0  0  0  0  0  0  0  0  0  0  0
   -3.2533   -1.9992   -0.0873 C   0  0  0  0  0  0  0  0  0  0  0  0
   -4.4370    0.2910    2.0047 H   0  0  0  0  0  0  0  0  0  0  0  0
   -2.7302   -1.7467    1.9921 H   0  0  0  0  0  0  0  0  0  0  0  0
   -3.6446   -1.4140   -0.9275 H   0  0  0  0  0  0  0  0  0  0  0  0
   -2.2844   -2.4081   -0.3922 H   0  0  0  0  0  0  0  0  0  0  0  0
   -3.9388   -2.8365    0.0822 H   0  0  0  0  0  0  0  0  0  0  0  0
   -0.8768   -0.3314    0.9568 N   0  0  0  0  0  0  0  0  0  0  0  0
    0.2067    0.6285    0.7375 C   0  0  2  0  0  0  0  0  0  0  0  0
    1.3578   -0.1558    0.1151 C   0  0  0  0  0  0  0  0  0  0  0  0
    2.3216    0.3937   -0.4145 O   0  0  0  0  0  0  0  0  0  0  0  0
    0.5955    1.2698    2.0780 C   0  0  0  0  0  0  0  0  0  0  0  0
   -0.4975    2.1591    2.6706 C   0  0  0  0  0  0  0  0  0  0  0  0
   -0.0870    2.7499    3.9964 C   0  0  0  0  0  0  0  0  0  0  0  0
    0.9396    2.4448    4.5898 O   0  0  0  0  0  0  0  0  0  0  0  0
   -0.9893    3.6393    4.4794 O   0  0  0  0  0  0  0  0  0  0  0  0
   -0.6087   -1.2764    1.1771 H   0  0  0  0  0  0  0  0  0  0  0  0
   -0.1490    1.3996    0.0462 H   0  0  0  0  0  0  0  0  0  0  0  0
    0.8413    0.4789    2.7991 H   0  0  0  0  0  0  0  0  0  0  0  0
    1.5024    1.8770    1.9579 H   0  0  0  0  0  0  0  0  0  0  0  0
   -0.6947    3.0007    1.9954 H   0  0  0  0  0  0  0  0  0  0  0  0
   -1.4509    1.6289    2.7644 H   0  0  0  0  0  0  0  0  0  0  0  0
   -0.7690    4.0335    5.3500 H   0  0  0  0  0  0  0  0  0  0  0  0
    1.1954   -1.5270    0.2470 N   0  0  0  0  0  0  0  0  0  0  0  0
    2.1481   -2.4896   -0.2574 C   0  0  2  0  0  0  0  0  0  0  0  0
    1.6954   -2.9151   -1.6479 C   0  0  0  0  0  0  0  0  0  0  0  0
    0.5331   -2.8141   -2.0352 O   0  0  0  0  0  0  0  0  0  0  0  0
    2.2637   -3.6909    0.6679 C   0  0  0  0  0  0  0  0  0  0  0  0
    0.3661   -1.8716    0.7213 H   0  0  0  0  0  0  0  0  0  0  0  0
    3.1117   -1.9734   -0.3285 H   0  0  0  0  0  0  0  0  0  0  0  0
    1.3079   -4.2208    0.7516 H   0  0  0  0  0  0  0  0  0  0  0  0
    3.0067   -4.4057    0.2991 H   0  0  0  0  0  0  0  0  0  0  0  0
    2.5605   -3.3797    1.6753 H   0  0  0  0  0  0  0  0  0  0  0  0
    2.7333   -3.4608   -2.3904 N   0  0  0  0  0  0  0  0  0  0  0  0
    2.5546   -3.9510   -3.7372 C   0  0  0  0  0  0  0  0  0  0  0  0
    3.6691   -3.4877   -1.9965 H   0  0  0  0  0  0  0  0  0  0  0  0
    2.3260   -5.0266   -3.7092 H   0  0  0  0  0  0  0  0  0  0  0  0
    1.7239   -3.4121   -4.2162 H   0  0  0  0  0  0  0  0  0  0  0  0
    3.4779   -3.7874   -4.3123 H   0  0  0  0  0  0  0  0  0  0  0  0
  1  3  1  0  0  0  0
  1  7  1  0  0  0  0
  1  2  2  0  0  0  0
 34 35  1  0  0  0  0
 35 43  1  0  0  0  0
 35 36  2  0  0  0  0
  8  9  1  0  0  0  0
  9 17  1  0  0  0  0
  9 10  2  0  0  0  0
 18 19  1  0  0  0  0
 19 33  1  0  0  0  0
 19 20  2  0  0  0  0
 22 23  1  0  0  0  0
 23 24  2  0  0  0  0
 23 25  1  0  0  0  0
 34 37  1  0  0  0  0
  8 11  1  0  0  0  0
 43 44  1  0  0  0  0
 21 22  1  0  0  0  0
 18 21  1  0  0  0  0
 33 34  1  0  0  0  0
  7  8  1  0  0  0  0
 17 18  1  0  0  0  0
  3  4  1  0  0  0  0
  3  5  1  0  0  0  0
  3  6  1  0  0  0  0
 37 40  1  0  0  0  0
 37 41  1  0  0  0  0
 37 42  1  0  0  0  0
 11 14  1  0  0  0  0
 11 15  1  0  0  0  0
 11 16  1  0  0  0  0
 44 46  1  0  0  0  0
 44 47  1  0  0  0  0
 44 48  1  0  0  0  0
 22 30  1  0  0  0  0
 22 31  1  0  0  0  0
 21 28  1  0  0  0  0
 21 29  1  0  0  0  0
 34 39  1  0  0  0  0
  8 13  1  0  0  0  0
 18 27  1  0  0  0  0
 43 45  1  0  0  0  0
  7 12  1  0  0  0  0
 33 38  1  0  0  0  0
 17 26  1  0  0  0  0
 25 32  1  0  0  0  0
M  END
$$$$

  -OEChem-05262214473D

 48 47  0     1  0  0  0  0  0999 V2000
   -5.5827   -1.3473    1.4591 C   0  0  0  0  0  0  0  0  0  0  0  0
   -5.7053   -2.4696    0.9825 O   0  0  0  0  0  0  0  0  0  0  0  0
   -6.7879   -0.6277    1.9670 C   0  0  0  0  0  0  0  0  0  0  0  0
   -7.2718   -0.0164    1.1885 H   0  0  0  0  0  0  0  0  0  0  0  0
   -7.5699   -1.3171    2.3239 H   0  0  0  0  0  0  0  0  0  0  0  0
   -6.6057    0.0628    2.8060 H   0  0  0  0  0  0  0  0  0  0  0  0
   -4.4001   -0.6377    1.5884 N   0  0  0  0  0  0  0  0  0  0  0  0
   -3.1220   -1.1455    1.1644 C   0  0  2  0  0  0  0  0  0  0  0  0
   -2.2017    0.0428    0.9187 C   0  0  0  0  0  0  0  0  0  0  0  0
   -2.6171    1.1750    0.6807 O   0  0  0  0  0  0  0  0  0  0  0  0
   -3.2533   -1.9992   -0.0873 C   0  0  0  0  0  0  0  0  0  0  0  0
   -4.4370    0.2910    2.0047 H   0  0  0  0  0  0  0  0  0  0  0  0
   -2.7302   -1.7467    1.9921 H   0  0  0  0  0  0  0  0  0  0  0  0
   -3.6446   -1.4140   -0.9275 H   0  0  0  0  0  0  0  0  0  0  0  0
   -2.2844   -2.4081   -0.3922 H   0  0  0  0  0  0  0  0  0  0  0  0
   -3.9388   -2.8365    0.0822 H   0  0  0  0  0  0  0  0  0  0  0  0
   -0.8768   -0.3314    0.9568 N   0  0  0  0  0  0  0  0  0  0  0  0
    0.2067    0.6285    0.7375 C   0  0  2  0  0  0  0  0  0  0  0  0
    1.3578   -0.1558    0.1151 C   0  0  0  0  0  0  0  0  0  0  0  0
    2.4343    0.3651   -0.1701 O   0  0  0  0  0  0  0  0  0  0  0  0
    0.5955    1.2698    2.0780 C   0  0  0  0  0  0  0  0  0  0  0  0
   -0.4975    2.1591    2.6706 C   0  0  0  0  0  0  0  0  0  0  0  0
   -0.0870    2.7499    3.9964 C   0  0  0  0  0  0  0  0  0  0  0  0
    0.9396    2.4448    4.5898 O   0  0  0  0  0  0  0  0  0  0  0  0
   -0.9893    3.6393    4.4794 O   0  0  0  0  0  0  0  0  0  0  0  0
   -0.6087   -1.2764    1.1771 H   0  0  0  0  0  0  0  0  0  0  0  0
   -0.1490    1.3996    0.0462 H   0  0  0  0  0  0  0  0  0  0  0  0
    0.8413    0.4789    2.7991 H   0  0  0  0  0  0  0  0  0  0  0  0
    1.5024    1.8770    1.9579 H   0  0  0  0  0  0  0  0  0  0  0  0
   -0.6947    3.0007    1.9954 H   0  0  0  0  0  0  0  0  0  0  0  0
   -1.4509    1.6289    2.7644 H   0  0  0  0  0  0  0  0  0  0  0  0
   -0.7690    4.0335    5.3500 H   0  0  0  0  0  0  0  0  0  0  0  0
    1.0522   -1.4982   -0.0542 N   0  0  0  0  0  0  0  0  0  0  0  0
    1.9745   -2.4549   -0.6224 C   0  0  2  0  0  0  0  0  0  0  0  0
    1.6887   -2.5543   -2.1150 C   0  0  0  0  0  0  0  0  0  0  0  0
    0.6084   -2.2449   -2.6133 O   0  0  0  0  0  0  0  0  0  0  0  0
    1.8446   -3.8139    0.0476 C   0  0  0  0  0  0  0  0  0  0  0  0
    0.1352   -1.8248    0.2352 H   0  0  0  0  0  0  0  0  0  0  0  0
    2.9818   -2.0527   -0.4688 H   0  0  0  0  0  0  0  0  0  0  0  0
    0.8418   -4.2327   -0.0955 H   0  0  0  0  0  0  0  0  0  0  0  0
    2.5636   -4.5297   -0.3643 H   0  0  0  0  0  0  0  0  0  0  0  0
    2.0212   -3.7353    1.1258 H   0  0  0  0  0  0  0  0  0  0  0  0
    2.7675   -3.0700   -2.8197 N   0  0  0  0  0  0  0  0  0  0  0  0
    2.7395   -3.2733   -4.2493 C   0  0  0  0  0  0  0  0  0  0  0  0
    3.6306   -3.2814   -2.3277 H   0  0  0  0  0  0  0  0  0  0  0  0
    2.4109   -4.3000   -4.4678 H   0  0  0  0  0  0  0  0  0  0  0  0
    2.0395   -2.5590   -4.7075 H   0  0  0  0  0  0  0  0  0  0  0  0
    3.7469   -3.1152   -4.6618 H   0  0  0  0  0  0  0  0  0  0  0  0
  1  3  1  0  0  0  0
  1  7  1  0  0  0  0
  1  2  2  0  0  0  0
 34 35  1  0  0  0  0
 35 43  1  0  0  0  0
 35 36  2  0  0  0  0
  8  9  1  0  0  0  0
  9 17  1  0  0  0  0
  9 10  2  0  0  0  0
 18 19  1  0  0  0  0
 19 33  1  0  0  0  0
 19 20  2  0  0  0  0
 22 23  1  0  0  0  0
 23 24  2  0  0  0  0
 23 25  1  0  0  0  0
 34 37  1  0  0  0  0
  8 11  1  0  0  0  0
 43 44  1  0  0  0  0
 21 22  1  0  0  0  0
 18 21  1  0  0  0  0
 33 34  1  0  0  0  0
  7  8  1  0  0  0  0
 17 18  1  0  0  0  0
  3  4  1  0  0  0  0
  3  5  1  0  0  0  0
  3  6  1  0  0  0  0
 37 40  1  0  0  0  0
 37 41  1  0  0  0  0
 37 42  1  0  0  0  0
 11 14  1  0  0  0  0
 11 15  1  0  0  0  0
 11 16  1  0  0  0  0
 44 46  1  0  0  0  0
 44 47  1  0  0  0  0
 44 48  1  0  0  0  0
 22 30  1  0  0  0  0
 22 31  1  0  0  0  0
 21 28  1  0  0  0  0
 21 29  1  0  0  0  0
 34 39  1  0  0  0  0
  8 13  1  0  0  0  0
 18 27  1  0  0  0  0
 43 45  1  0  0  0  0
  7 12  1  0  0  0  0
 33 38  1  0  0  0  0
 17 26  1  0  0  0  0
 25 32  1  0  0  0  0
M  END
$$$$

  -OEChem-05262214473D

 48 47  0     1  0  0  0  0  0999 V2000
   -5.5827   -1.3473    1.4591 C   0  0  0  0  0  0  0  0  0  0  0  0
   -5.7053   -2.4696    0.9825 O   0  0  0  0  0  0  0  0  0  0  0  0
   -6.7879   -0.6277    1.9670 C   0  0  0  0  0  0  0  0  0  0  0  0
   -7.2718   -0.0164    1.1885 H   0  0  0  0  0  0  0  0  0  0  0  0
   -7.5699   -1.3171    2.3239 H   0  0  0  0  0  0  0  0  0  0  0  0
   -6.6057    0.0628    2.8060 H   0  0  0  0  0  0  0  0  0  0  0  0
   -4.4001   -0.6377    1.5884 N   0  0  0  0  0  0  0  0  0  0  0  0
   -3.1220   -1.1455    1.1644 C   0  0  2  0  0  0  0  0  0  0  0  0
   -2.2017    0.0428    0.9187 C   0  0  0  0  0  0  0  0  0  0  0  0
   -2.6171    1.1750    0.6807 O   0  0  0  0  0  0  0  0  0  0  0  0
   -3.2533   -1.9992   -0.0873 C   0  0  0  0  0  0  0  0  0  0  0  0
   -4.4370    0.2910    2.0047 H   0  0  0  0  0  0  0  0  0  0  0  0
   -2.7302   -1.7467    1.9921 H   0  0  0  0  0  0  0  0  0  0  0  0
   -3.6446   -1.4140   -0.9275 H   0  0  0  0  0  0  0  0  0  0  0  0
   -2.2844   -2.4081   -0.3922 H   0  0  0  0  0  0  0  0  0  0  0  0
   -3.9388   -2.8365    0.0822 H   0  0  0  0  0  0  0  0  0  0  0  0
   -0.8768   -0.3314    0.9568 N   0  0  0  0  0  0  0  0  0  0  0  0
    0.2067    0.6285    0.7375 C   0  0  2  0  0  0  0  0  0  0  0  0
    1.3578   -0.1558    0.1151 C   0  0  0  0  0  0  0  0  0  0  0  0
    2.5075    0.2778    0.0754 O   0  0  0  0  0  0  0  0  0  0  0  0
    0.5955    1.2698    2.0780 C   0  0  0  0  0  0  0  0  0  0  0  0
   -0.4975    2.1591    2.6706 C   0  0  0  0  0  0  0  0  0  0  0  0
   -0.0870    2.7499    3.9964 C   0  0  0  0  0  0  0  0  0  0  0  0
    0.9396    2.4448    4.5898 O   0  0  0  0  0  0  0  0  0  0  0  0
   -0.9893    3.6393    4.4794 O   0  0  0  0  0  0  0  0  0  0  0  0
   -0.6087   -1.2764    1.1771 H   0  0  0  0  0  0  0  0  0  0  0  0
   -0.1490    1.3996    0.0462 H   0  0  0  0  0  0  0  0  0  0  0  0
    0.8413    0.4789    2.7991 H   0  0  0  0  0  0  0  0  0  0  0  0
    1.5024    1.8770    1.9579 H   0  0  0  0  0  0  0  0  0  0  0  0
   -0.6947    3.0007    1.9954 H   0  0  0  0  0  0  0  0  0  0  0  0
   -1.4509    1.6289    2.7644 H   0  0  0  0  0  0  0  0  0  0  0  0
   -0.7690    4.0335    5.3500 H   0  0  0  0  0  0  0  0  0  0  0  0
    0.9570   -1.3963   -0.3586 N   0  0  0  0  0  0  0  0  0  0  0  0
    1.8590   -2.3317   -0.9912 C   0  0  2  0  0  0  0  0  0  0  0  0
    1.7825   -2.1139   -2.4966 C   0  0  0  0  0  0  0  0  0  0  0  0
    0.8181   -1.5902   -3.0505 O   0  0  0  0  0  0  0  0  0  0  0  0
    1.5093   -3.7673   -0.6313 C   0  0  0  0  0  0  0  0  0  0  0  0
   -0.0182   -1.6603   -0.2559 H   0  0  0  0  0  0  0  0  0  0  0  0
    2.8666   -2.0882   -0.6371 H   0  0  0  0  0  0  0  0  0  0  0  0
    0.5031   -4.0296   -0.9780 H   0  0  0  0  0  0  0  0  0  0  0  0
    2.2108   -4.4731   -1.0882 H   0  0  0  0  0  0  0  0  0  0  0  0
    1.5358   -3.9145    0.4538 H   0  0  0  0  0  0  0  0  0  0  0  0
    2.8990   -2.6123   -3.1534 N   0  0  0  0  0  0  0  0  0  0  0  0
    3.0579   -2.5381   -4.5870 C   0  0  0  0  0  0  0  0  0  0  0  0
    3.6593   -3.0135   -2.6124 H   0  0  0  0  0  0  0  0  0  0  0  0
    2.6706   -3.4590   -5.0475 H   0  0  0  0  0  0  0  0  0  0  0  0
    2.4999   -1.6725   -4.9734 H   0  0  0  0  0  0  0  0  0  0  0  0
    4.1243   -2.4261   -4.8323 H   0  0  0  0  0  0  0  0  0  0  0  0
  1  3  1  0  0  0  0
  1  7  1  0  0  0  0
  1  2  2  0  0  0  0
 34 35  1  0  0  0  0
 35 43  1  0  0  0  0
 35 36  2  0  0  0  0
  8  9  1  0  0  0  0
  9 17  1  0  0  0  0
  9 10  2  0  0  0  0
 18 19  1  0  0  0  0
 19 33  1  0  0  0  0
 19 20  2  0  0  0  0
 22 23  1  0  0  0  0
 23 24  2  0  0  0  0
 23 25  1  0  0  0  0
 34 37  1  0  0  0  0
  8 11  1  0  0  0  0
 43 44  1  0  0  0  0
 21 22  1  0  0  0  0
 18 21  1  0  0  0  0
 33 34  1  0  0  0  0
  7  8  1  0  0  0  0
 17 18  1  0  0  0  0
  3  4  1  0  0  0  0
  3  5  1  0  0  0  0
  3  6  1  0  0  0  0
 37 40  1  0  0  0  0
 37 41  1  0  0  0  0
 37 42  1  0  0  0  0
 11 14  1  0  0  0  0
 11 15  1  0  0  0  0
 11 16  1  0  0  0  0
 44 46  1  0  0  0  0
 44 47  1  0  0  0  0
 44 48  1  0  0  0  0
 22 30  1  0  0  0  0
 22 31  1  0  0  0  0
 21 28  1  0  0  0  0
 21 29  1  0  0  0  0
 34 39  1  0  0  0  0
  8 13  1  0  0  0  0
 18 27  1  0  0  0  0
 43 45  1  0  0  0  0
  7 12  1  0  0  0  0
 33 38  1  0  0  0  0
 17 26  1  0  0  0  0
 25 32  1  0  0  0  0
M  END
$$$$

  -OEChem-05262214473D

 48 47  0     1  0  0  0  0  0999 V2000
   -5.5827   -1.3473    1.4591 C   0  0  0  0  0  0  0  0  0  0  0  0
   -5.7053   -2.4696    0.9825 O   0  0  0  0  0  0  0  0  0  0  0  0
   -6.7879   -0.6277    1.9670 C   0  0  0  0  0  0  0  0  0  0  0  0
   -7.2718   -0.0164    1.1885 H   0  0  0  0  0  0  0  0  0  0  0  0
   -7.5699   -1.3171    2.3239 H   0  0  0  0  0  0  0  0  0  0  0  0
   -6.6057    0.0628    2.8060 H   0  0  0  0  0  0  0  0  0  0  0  0
   -4.4001   -0.6377    1.5884 N   0  0  0  0  0  0  0  0  0  0  0  0
   -3.1220   -1.1455    1.1644 C   0  0  2  0  0  0  0  0  0  0  0  0
   -2.2017    0.0428    0.9187 C   0  0  0  0  0  0  0  0  0  0  0  0
   -2.6171    1.1750    0.6807 O   0  0  0  0  0  0  0  0  0  0  0  0
   -3.2533   -1.9992   -0.0873 C   0  0  0  0  0  0  0  0  0  0  0  0
   -4.4370    0.2910    2.0047 H   0  0  0  0  0  0  0  0  0  0  0  0
   -2.7302   -1.7467    1.9921 H   0  0  0  0  0  0  0  0  0  0  0  0
   -3.6446   -1.4140   -0.9275 H   0  0  0  0  0  0  0  0  0  0  0  0
   -2.2844   -2.4081   -0.3922 H   0  0  0  0  0  0  0  0  0  0  0  0
   -3.9388   -2.8365    0.0822 H   0  0  0  0  0  0  0  0  0  0  0  0
   -0.8768   -0.3314    0.9568 N   0  0  0  0  0  0  0  0  0  0  0  0
    0.2067    0.6285    0.7375 C   0  0  2  0  0  0  0  0  0  0  0  0
    1.3578   -0.1558    0.1151 C   0  0  0  0  0  0  0  0  0  0  0  0
    2.5364    0.1378    0.3052 O   0  0  0  0  0  0  0  0  0  0  0  0
    0.5955    1.2698    2.0780 C   0  0  0  0  0  0  0  0  0  0  0  0
   -0.4975    2.1591    2.6706 C   0  0  0  0  0  0  0  0  0  0  0  0
   -0.0870    2.7499    3.9964 C   0  0  0  0  0  0  0  0  0  0  0  0
    0.9396    2.4448    4.5898 O   0  0  0  0  0  0  0  0  0  0  0  0
   -0.9893    3.6393    4.4794 O   0  0  0  0  0  0  0  0  0  0  0  0
   -0.6087   -1.2764    1.1771 H   0  0  0  0  0  0  0  0  0  0  0  0
   -0.1490    1.3996    0.0462 H   0  0  0  0  0  0  0  0  0  0  0  0
    0.8413    0.4789    2.7991 H   0  0  0  0  0  0  0  0  0  0  0  0
    1.5024    1.8770    1.9579 H   0  0  0  0  0  0  0  0  0  0  0  0
   -0.6947    3.0007    1.9954 H   0  0  0  0  0  0  0  0  0  0  0  0
   -1.4509    1.6289    2.7644 H   0  0  0  0  0  0  0  0  0  0  0  0
   -0.7690    4.0335    5.3500 H   0  0  0  0  0  0  0  0  0  0  0  0
    0.9163   -1.2285   -0.6454 N   0  0  0  0  0  0  0  0  0  0  0  0
    1.8095   -2.1286   -1.3388 C   0  0  2  0  0  0  0  0  0  0  0  0
    1.9704   -1.6239   -2.7668 C   0  0  0  0  0  0  0  0  0  0  0  0
    1.1480   -0.8946   -3.3171 O   0  0  0  0  0  0  0  0  0  0  0  0
    1.2807   -3.5543   -1.3225 C   0  0  0  0  0  0  0  0  0  0  0  0
   -0.0837   -1.3893   -0.7186 H   0  0  0  0  0  0  0  0  0  0  0  0
    2.7740   -2.0775   -0.8220 H   0  0  0  0  0  0  0  0  0  0  0  0
    0.3148   -3.6253   -1.8359 H   0  0  0  0  0  0  0  0  0  0  0  0
    1.9723   -4.2398   -1.8234 H   0  0  0  0  0  0  0  0  0  0  0  0
    1.1374   -3.9051   -0.2948 H   0  0  0  0  0  0  0  0  0  0  0  0
    3.1187   -2.1188   -3.3689 N   0  0  0  0  0  0  0  0  0  0  0  0
    3.4879   -1.7957   -4.7273 C   0  0  0  0  0  0  0  0  0  0  0  0
    3.7531   -2.7021   -2.8313 H   0  0  0  0  0  0  0  0  0  0  0  0
    3.0874   -2.5609   -5.4086 H   0  0  0  0  0  0  0  0  0  0  0  0
    3.0735   -0.8128   -4.9959 H   0  0  0  0  0  0  0  0  0  0  0  0
    4.5842   -1.7671   -4.8123 H   0  0  0  0  0  0  0  0  0  0  0  0
  1  3  1  0  0  0  0
  1  7  1  0  0  0  0
  1  2  2  0  0  0  0
 34 35  1  0  0  0  0
 35 43  1  0  0  0  0
 35 36  2  0  0  0  0
  8  9  1  0  0  0  0
  9 17  1  0  0  0  0
  9 10  2  0  0  0  0
 18 19  1  0  0  0  0
 19 33  1  0  0  0  0
 19 20  2  0  0  0  0
 22 23  1  0  0  0  0
 23 24  2  0  0  0  0
 23 25  1  0  0  0  0
 34 37  1  0  0  0  0
  8 11  1  0  0  0  0
 43 44  1  0  0  0  0
 21 22  1  0  0  0  0
 18 21  1  0  0  0  0
 33 34  1  0  0  0  0
  7  8  1  0  0  0  0
 17 18  1  0  0  0  0
  3  4  1  0  0  0  0
  3  5  1  0  0  0  0
  3  6  1  0  0  0  0
 37 40  1  0  0  0  0
 37 41  1  0  0  0  0
 37 42  1  0  0  0  0
 11 14  1  0  0  0  0
 11 15  1  0  0  0  0
 11 16  1  0  0  0  0
 44 46  1  0  0  0  0
 44 47  1  0  0  0  0
 44 48  1  0  0  0  0
 22 30  1  0  0  0  0
 22 31  1  0  0  0  0
 21 28  1  0  0  0  0
 21 29  1  0  0  0  0
 34 39  1  0  0  0  0
  8 13  1  0  0  0  0
 18 27  1  0  0  0  0
 43 45  1  0  0  0  0
  7 12  1  0  0  0  0
 33 38  1  0  0  0  0
 17 26  1  0  0  0  0
 25 32  1  0  0  0  0
M  END
$$$$

  -OEChem-05262214473D

 48 47  0     1  0  0  0  0  0999 V2000
   -5.5827   -1.3473    1.4591 C   0  0  0  0  0  0  0  0  0  0  0  0
   -5.7053   -2.4696    0.9825 O   0  0  0  0  0  0  0  0  0  0  0  0
   -6.7879   -0.6277    1.9670 C   0  0  0  0  0  0  0  0  0  0  0  0
   -7.2718   -0.0164    1.1885 H   0  0  0  0  0  0  0  0  0  0  0  0
   -7.5699   -1.3171    2.3239 H   0  0  0  0  0  0  0  0  0  0  0  0
   -6.6057    0.0628    2.8060 H   0  0  0  0  0  0  0  0  0  0  0  0
   -4.4001   -0.6377    1.5884 N   0  0  0  0  0  0  0  0  0  0  0  0
   -3.1220   -1.1455    1.1644 C   0  0  2  0  0  0  0  0  0  0  0  0
   -2.2017    0.0428    0.9187 C   0  0  0  0  0  0  0  0  0  0  0  0
   -2.6171    1.1750    0.6807 O   0  0  0  0  0  0  0  0  0  0  0  0
   -3.2533   -1.9992   -0.0873 C   0  0  0  0  0  0  0  0  0  0  0  0
   -4.4370    0.2910    2.0047 H   0  0  0  0  0  0  0  0  0  0  0  0
   -2.7302   -1.7467    1.9921 H   0  0  0  0  0  0  0  0  0  0  0  0
   -3.6446   -1.4140   -0.9275 H   0  0  0  0  0  0  0  0  0  0  0  0
   -2.2844   -2.4081   -0.3922 H   0  0  0  0  0  0  0  0  0  0  0  0
   -3.9388   -2.8365    0.0822 H   0  0  0  0  0  0  0  0  0  0  0  0
   -0.8768   -0.3314    0.9568 N   0  0  0  0  0  0  0  0  0  0  0  0
    0.2067    0.6285    0.7375 C   0  0  2  0  0  0  0  0  0  0  0  0
    1.3578   -0.1558    0.1151 C   0  0  0  0  0  0  0  0  0  0  0  0
    2.5189   -0.0453    0.5037 O   0  0  0  0  0  0  0  0  0  0  0  0
    0.5955    1.2698    2.0780 C   0  0  0  0  0  0  0  0  0  0  0  0
   -0.4975    2.1591    2.6706 C   0  0  0  0  0  0  0  0  0  0  0  0
   -0.0870    2.7499    3.9964 C   0  0  0  0  0  0  0  0  0  0  0  0
    0.9396    2.4448    4.5898 O   0  0  0  0  0  0  0  0  0  0  0  0
   -0.9893    3.6393    4.4794 O   0  0  0  0  0  0  0  0  0  0  0  0
   -0.6087   -1.2764    1.1771 H   0  0  0  0  0  0  0  0  0  0  0  0
   -0.1490    1.3996    0.0462 H   0  0  0  0  0  0  0  0  0  0  0  0
    0.8413    0.4789    2.7991 H   0  0  0  0  0  0  0  0  0  0  0  0
    1.5024    1.8770    1.9579 H   0  0  0  0  0  0  0  0  0  0  0  0
   -0.6947    3.0007    1.9954 H   0  0  0  0  0  0  0  0  0  0  0  0
   -1.4509    1.6289    2.7644 H   0  0  0  0  0  0  0  0  0  0  0  0
   -0.7690    4.0335    5.3500 H   0  0  0  0  0  0  0  0  0  0  0  0
    0.9329   -1.0061   -0.8950 N   0  0  0  0  0  0  0  0  0  0  0  0
    1.8294   -1.8592   -1.6415 C   0  0  2  0  0  0  0  0  0  0  0  0
    2.2395   -1.1177   -2.9070 C   0  0  0  0  0  0  0  0  0  0  0  0
    1.5756   -0.2054   -3.3949 O   0  0  0  0  0  0  0  0  0  0  0  0
    1.1743   -3.1895   -1.9791 C   0  0  0  0  0  0  0  0  0  0  0  0
   -0.0568   -1.0303   -1.1213 H   0  0  0  0  0  0  0  0  0  0  0  0
    2.7103   -2.0213   -1.0108 H   0  0  0  0  0  0  0  0  0  0  0  0
    0.2898   -3.0473   -2.6106 H   0  0  0  0  0  0  0  0  0  0  0  0
    1.8644   -3.8457   -2.5197 H   0  0  0  0  0  0  0  0  0  0  0  0
    0.8532   -3.7078   -1.0691 H   0  0  0  0  0  0  0  0  0  0  0  0
    3.4117   -1.6233   -3.4515 N   0  0  0  0  0  0  0  0  0  0  0  0
    4.0003   -1.0966   -4.6606 C   0  0  0  0  0  0  0  0  0  0  0  0
    3.9058   -2.3685   -2.9694 H   0  0  0  0  0  0  0  0  0  0  0  0
    3.6328   -1.6669   -5.5265 H   0  0  0  0  0  0  0  0  0  0  0  0
    3.7213   -0.0386   -4.7734 H   0  0  0  0  0  0  0  0  0  0  0  0
    5.0954   -1.1830   -4.6030 H   0  0  0  0  0  0  0  0  0  0  0  0
  1  3  1  0  0  0  0
  1  7  1  0  0  0  0
  1  2  2  0  0  0  0
 34 35  1  0  0  0  0
 35 43  1  0  0  0  0
 35 36  2  0  0  0  0
  8  9  1  0  0  0  0
  9 17  1  0  0  0  0
  9 10  2  0  0  0  0
 18 19  1  0  0  0  0
 19 33  1  0  0  0  0
 19 20  2  0  0  0  0
 22 23  1  0  0  0  0
 23 24  2  0  0  0  0
 23 25  1  0  0  0  0
 34 37  1  0  0  0  0
  8 11  1  0  0  0  0
 43 44  1  0  0  0  0
 21 22  1  0  0  0  0
 18 21  1  0  0  0  0
 33 34  1  0  0  0  0
  7  8  1  0  0  0  0
 17 18  1  0  0  0  0
  3  4  1  0  0  0  0
  3  5  1  0  0  0  0
  3  6  1  0  0  0  0
 37 40  1  0  0  0  0
 37 41  1  0  0  0  0
 37 42  1  0  0  0  0
 11 14  1  0  0  0  0
 11 15  1  0  0  0  0
 11 16  1  0  0  0  0
 44 46  1  0  0  0  0
 44 47  1  0  0  0  0
 44 48  1  0  0  0  0
 22 30  1  0  0  0  0
 22 31  1  0  0  0  0
 21 28  1  0  0  0  0
 21 29  1  0  0  0  0
 34 39  1  0  0  0  0
  8 13  1  0  0  0  0
 18 27  1  0  0  0  0
 43 45  1  0  0  0  0
  7 12  1  0  0  0  0
 33 38  1  0  0  0  0
 17 26  1  0  0  0  0
 25 32  1  0  0  0  0
M  END
$$$$

  -OEChem-05262214473D

 48 47  0     1  0  0  0  0  0999 V2000
   -5.5827   -1.3473    1.4591 C   0  0  0  0  0  0  0  0  0  0  0  0
   -5.7053   -2.4696    0.9825 O   0  0  0  0  0  0  0  0  0  0  0  0
   -6.7879   -0.6277    1.9670 C   0  0  0  0  0  0  0  0  0  0  0  0
   -7.2718   -0.0164    1.1885 H   0  0  0  0  0  0  0  0  0  0  0  0
   -7.5699   -1.3171    2.3239 H   0  0  0  0  0  0  0  0  0  0  0  0
   -6.6057    0.0628    2.8060 H   0  0  0  0  0  0  0  0  0  0  0  0
   -4.4001   -0.6377    1.5884 N   0  0  0  0  0  0  0  0  0  0  0  0
   -3.1220   -1.1455    1.1644 C   0  0  2  0  0  0  0  0  0  0  0  0
   -2.2017    0.0428    0.9187 C   0  0  0  0  0  0  0  0  0  0  0  0
   -2.6171    1.1750    0.6807 O   0  0  0  0  0  0  0  0  0  0  0  0
   -3.2533   -1.9992   -0.0873 C   0  0  0  0  0  0  0  0  0  0  0  0
   -4.4370    0.2910    2.0047 H   0  0  0  0  0  0  0  0  0  0  0  0
   -2.7302   -1.7467    1.9921 H   0  0  0  0  0  0  0  0  0  0  0  0
   -3.6446   -1.4140   -0.9275 H   0  0  0  0  0  0  0  0  0  0  0  0
   -2.2844   -2.4081   -0.3922 H   0  0  0  0  0  0  0  0  0  0  0  0
   -3.9388   -2.8365    0.0822 H   0  0  0  0  0  0  0  0  0  0  0  0
   -0.8768   -0.3314    0.9568 N   0  0  0  0  0  0  0  0  0  0  0  0
    0.2067    0.6285    0.7375 C   0  0  2  0  0  0  0  0  0  0  0  0
    1.3578   -0.1558    0.1151 C   0  0  0  0  0  0  0  0  0  0  0  0
    2.4563   -0.2591    0.6574 O   0  0  0  0  0  0  0  0  0  0  0  0
    0.5955    1.2698    2.0780 C   0  0  0  0  0  0  0  0  0  0  0  0
   -0.4975    2.1591    2.6706 C   0  0  0  0  0  0  0  0  0  0  0  0
   -0.0870    2.7499    3.9964 C   0  0  0  0  0  0  0  0  0  0  0  0
    0.9396    2.4448    4.5898 O   0  0  0  0  0  0  0  0  0  0  0  0
   -0.9893    3.6393    4.4794 O   0  0  0  0  0  0  0  0  0  0  0  0
   -0.6087   -1.2764    1.1771 H   0  0  0  0  0  0  0  0  0  0  0  0
   -0.1490    1.3996    0.0462 H   0  0  0  0  0  0  0  0  0  0  0  0
    0.8413    0.4789    2.7991 H   0  0  0  0  0  0  0  0  0  0  0  0
    1.5024    1.8770    1.9579 H   0  0  0  0  0  0  0  0  0  0  0  0
   -0.6947    3.0007    1.9954 H   0  0  0  0  0  0  0  0  0  0  0  0
   -1.4509    1.6289    2.7644 H   0  0  0  0  0  0  0  0  0  0  0  0
   -0.7690    4.0335    5.3500 H   0  0  0  0  0  0  0  0  0  0  0  0
    1.0056   -0.7443   -1.0905 N   0  0  0  0  0  0  0  0  0  0  0  0
    1.9173   -1.5421   -1.8786 C   0  0  2  0  0  0  0  0  0  0  0  0
    2.5715   -0.6298   -2.9078 C   0  0  0  0  0  0  0  0  0  0  0  0
    2.0717    0.4303   -3.2785 O   0  0  0  0  0  0  0  0  0  0  0  0
    1.1975   -2.6977   -2.5562 C   0  0  0  0  0  0  0  0  0  0  0  0
    0.0607   -0.6077   -1.4366 H   0  0  0  0  0  0  0  0  0  0  0  0
    2.6797   -1.9233   -1.1906 H   0  0  0  0  0  0  0  0  0  0  0  0
    0.4297   -2.3352   -3.2494 H   0  0  0  0  0  0  0  0  0  0  0  0
    1.8944   -3.3177   -3.1297 H   0  0  0  0  0  0  0  0  0  0  0  0
    0.7026   -3.3360   -1.8164 H   0  0  0  0  0  0  0  0  0  0  0  0
    3.7580   -1.1595   -3.3954 N   0  0  0  0  0  0  0  0  0  0  0  0
    4.5602   -0.4885   -4.3915 C   0  0  0  0  0  0  0  0  0  0  0  0
    4.1068   -2.0354   -3.0174 H   0  0  0  0  0  0  0  0  0  0  0  0
    4.2697   -0.8379   -5.3933 H   0  0  0  0  0  0  0  0  0  0  0  0
    4.3992    0.5974   -4.3211 H   0  0  0  0  0  0  0  0  0  0  0  0
    5.6230   -0.7136   -4.2187 H   0  0  0  0  0  0  0  0  0  0  0  0
  1  3  1  0  0  0  0
  1  7  1  0  0  0  0
  1  2  2  0  0  0  0
 34 35  1  0  0  0  0
 35 43  1  0  0  0  0
 35 36  2  0  0  0  0
  8  9  1  0  0  0  0
  9 17  1  0  0  0  0
  9 10  2  0  0  0  0
 18 19  1  0  0  0  0
 19 33  1  0  0  0  0
 19 20  2  0  0  0  0
 22 23  1  0  0  0  0
 23 24  2  0  0  0  0
 23 25  1  0  0  0  0
 34 37  1  0  0  0  0
  8 11  1  0  0  0  0
 43 44  1  0  0  0  0
 21 22  1  0  0  0  0
 18 21  1  0  0  0  0
 33 34  1  0  0  0  0
  7  8  1  0  0  0  0
 17 18  1  0  0  0  0
  3  4  1  0  0  0  0
  3  5  1  0  0  0  0
  3  6  1  0  0  0  0
 37 40  1  0  0  0  0
 37 41  1  0  0  0  0
 37 42  1  0  0  0  0
 11 14  1  0  0  0  0
 11 15  1  0  0  0  0
 11 16  1  0  0  0  0
 44 46  1  0  0  0  0
 44 47  1  0  0  0  0
 44 48  1  0  0  0  0
 22 30  1  0  0  0  0
 22 31  1  0  0  0  0
 21 28  1  0  0  0  0
 21 29  1  0  0  0  0
 34 39  1  0  0  0  0
  8 13  1  0  0  0  0
 18 27  1  0  0  0  0
 43 45  1  0  0  0  0
  7 12  1  0  0  0  0
 33 38  1  0  0  0  0
 17 26  1  0  0  0  0
 25 32  1  0  0  0  0
M  END
$$$$

  -OEChem-05262214473D

 48 47  0     1  0  0  0  0  0999 V2000
   -5.5827   -1.3473    1.4591 C   0  0  0  0  0  0  0  0  0  0  0  0
   -5.7053   -2.4696    0.9825 O   0  0  0  0  0  0  0  0  0  0  0  0
   -6.7879   -0.6277    1.9670 C   0  0  0  0  0  0  0  0  0  0  0  0
   -7.2718   -0.0164    1.1885 H   0  0  0  0  0  0  0  0  0  0  0  0
   -7.5699   -1.3171    2.3239 H   0  0  0  0  0  0  0  0  0  0  0  0
   -6.6057    0.0628    2.8060 H   0  0  0  0  0  0  0  0  0  0  0  0
   -4.4001   -0.6377    1.5884 N   0  0  0  0  0  0  0  0  0  0  0  0
   -3.1220   -1.1455    1.1644 C   0  0  2  0  0  0  0  0  0  0  0  0
   -2.2017    0.0428    0.9187 C   0  0  0  0  0  0  0  0  0  0  0  0
   -2.6171    1.1750    0.6807 O   0  0  0  0  0  0  0  0  0  0  0  0
   -3.2533   -1.9992   -0.0873 C   0  0  0  0  0  0  0  0  0  0  0  0
   -4.4370    0.2910    2.0047 H   0  0  0  0  0  0  0  0  0  0  0  0
   -2.7302   -1.7467    1.9921 H   0  0  0  0  0  0  0  0  0  0  0  0
   -3.6446   -1.4140   -0.9275 H   0  0  0  0  0  0  0  0  0  0  0  0
   -2.2844   -2.4081   -0.3922 H   0  0  0  0  0  0  0  0  0  0  0  0
   -3.9388   -2.8365    0.0822 H   0  0  0  0  0  0  0  0  0  0  0  0
   -0.8768   -0.3314    0.9568 N   0  0  0  0  0  0  0  0  0  0  0  0
    0.2067    0.6285    0.7375 C   0  0  2  0  0  0  0  0  0  0  0  0
    1.3578   -0.1558    0.1151 C   0  0  0  0  0  0  0  0  0  0  0  0
    2.3528   -0.4891    0.7558 O   0  0  0  0  0  0  0  0  0  0  0  0
    0.5955    1.2698    2.0780 C   0  0  0  0  0  0  0  0  0  0  0  0
   -0.4975    2.1591    2.6706 C   0  0  0  0  0  0  0  0  0  0  0  0
   -0.0870    2.7499    3.9964 C   0  0  0  0  0  0  0  0  0  0  0  0
    0.9396    2.4448    4.5898 O   0  0  0  0  0  0  0  0  0  0  0  0
   -0.9893    3.6393    4.4794 O   0  0  0  0  0  0  0  0  0  0  0  0
   -0.6087   -1.2764    1.1771 H   0  0  0  0  0  0  0  0  0  0  0  0
   -0.1490    1.3996    0.0462 H   0  0  0  0  0  0  0  0  0  0  0  0
    0.8413    0.4789    2.7991 H   0  0  0  0  0  0  0  0  0  0  0  0
    1.5024    1.8770    1.9579 H   0  0  0  0  0  0  0  0  0  0  0  0
   -0.6947    3.0007    1.9954 H   0  0  0  0  0  0  0  0  0  0  0  0
   -1.4509    1.6289    2.7644 H   0  0  0  0  0  0  0  0  0  0  0  0
   -0.7690    4.0335    5.3500 H   0  0  0  0  0  0  0  0  0  0  0  0
    1.1296   -0.4608   -1.2186 N   0  0  0  0  0  0  0  0  0  0  0  0
    2.0673   -1.1987   -2.0340 C   0  0  2  0  0  0  0  0  0  0  0  0
    2.9439   -0.1934   -2.7691 C   0  0  0  0  0  0  0  0  0  0  0  0
    2.6025    0.9693   -2.9760 O   0  0  0  0  0  0  0  0  0  0  0  0
    1.3485   -2.1123   -3.0145 C   0  0  0  0  0  0  0  0  0  0  0  0
    0.2607   -0.1504   -1.6429 H   0  0  0  0  0  0  0  0  0  0  0  0
    2.6845   -1.7904   -1.3493 H   0  0  0  0  0  0  0  0  0  0  0  0
    0.7250   -1.5373   -3.7088 H   0  0  0  0  0  0  0  0  0  0  0  0
    2.0603   -2.6917   -3.6118 H   0  0  0  0  0  0  0  0  0  0  0  0
    0.6957   -2.8151   -2.4856 H   0  0  0  0  0  0  0  0  0  0  0  0
    4.1340   -0.7590   -3.2047 N   0  0  0  0  0  0  0  0  0  0  0  0
    5.1294   -0.0127   -3.9383 C   0  0  0  0  0  0  0  0  0  0  0  0
    4.3426   -1.7255   -2.9719 H   0  0  0  0  0  0  0  0  0  0  0  0
    4.9547   -0.1304   -5.0179 H   0  0  0  0  0  0  0  0  0  0  0  0
    5.0610    1.0518   -3.6698 H   0  0  0  0  0  0  0  0  0  0  0  0
    6.1310   -0.3909   -3.6857 H   0  0  0  0  0  0  0  0  0  0  0  0
  1  3  1  0  0  0  0
  1  7  1  0  0  0  0
  1  2  2  0  0  0  0
 34 35  1  0  0  0  0
 35 43  1  0  0  0  0
 35 36  2  0  0  0  0
  8  9  1  0  0  0  0
  9 17  1  0  0  0  0
  9 10  2  0  0  0  0
 18 19  1  0  0  0  0
 19 33  1  0  0  0  0
 19 20  2  0  0  0  0
 22 23  1  0  0  0  0
 23 24  2  0  0  0  0
 23 25  1  0  0  0  0
 34 37  1  0  0  0  0
  8 11  1  0  0  0  0
 43 44  1  0  0  0  0
 21 22  1  0  0  0  0
 18 21  1  0  0  0  0
 33 34  1  0  0  0  0
  7  8  1  0  0  0  0
 17 18  1  0  0  0  0
  3  4  1  0  0  0  0
  3  5  1  0  0  0  0
  3  6  1  0  0  0  0
 37 40  1  0  0  0  0
 37 41  1  0  0  0  0
 37 42  1  0  0  0  0
 11 14  1  0  0  0  0
 11 15  1  0  0  0  0
 11 16  1  0  0  0  0
 44 46  1  0  0  0  0
 44 47  1  0  0  0  0
 44 48  1  0  0  0  0
 22 30  1  0  0  0  0
 22 31  1  0  0  0  0
 21 28  1  0  0  0  0
 21 29  1  0  0  0  0
 34 39  1  0  0  0  0
  8 13  1  0  0  0  0
 18 27  1  0  0  0  0
 43 45  1  0  0  0  0
  7 12  1  0  0  0  0
 33 38  1  0  0  0  0
 17 26  1  0  0  0  0
 25 32  1  0  0  0  0
M  END
$$$$

  -OEChem-05262214473D

 48 47  0     1  0  0  0  0  0999 V2000
   -5.5827   -1.3473    1.4591 C   0  0  0  0  0  0  0  0  0  0  0  0
   -5.7053   -2.4696    0.9825 O   0  0  0  0  0  0  0  0  0  0  0  0
   -6.7879   -0.6277    1.9670 C   0  0  0  0  0  0  0  0  0  0  0  0
   -7.2718   -0.0164    1.1885 H   0  0  0  0  0  0  0  0  0  0  0  0
   -7.5699   -1.3171    2.3239 H   0  0  0  0  0  0  0  0  0  0  0  0
   -6.6057    0.0628    2.8060 H   0  0  0  0  0  0  0  0  0  0  0  0
   -4.4001   -0.6377    1.5884 N   0  0  0  0  0  0  0  0  0  0  0  0
   -3.1220   -1.1455    1.1644 C   0  0  2  0  0  0  0  0  0  0  0  0
   -2.2017    0.0428    0.9187 C   0  0  0  0  0  0  0  0  0  0  0  0
   -2.6171    1.1750    0.6807 O   0  0  0  0  0  0  0  0  0  0  0  0
   -3.2533   -1.9992   -0.0873 C   0  0  0  0  0  0  0  0  0  0  0  0
   -4.4370    0.2910    2.0047 H   0  0  0  0  0  0  0  0  0  0  0  0
   -2.7302   -1.7467    1.9921 H   0  0  0  0  0  0  0  0  0  0  0  0
   -3.6446   -1.4140   -0.9275 H   0  0  0  0  0  0  0  0  0  0  0  0
   -2.2844   -2.4081   -0.3922 H   0  0  0  0  0  0  0  0  0  0  0  0
   -3.9388   -2.8365    0.0822 H   0  0  0  0  0  0  0  0  0  0  0  0
   -0.8768   -0.3314    0.9568 N   0  0  0  0  0  0  0  0  0  0  0  0
    0.2067    0.6285    0.7375 C   0  0  2  0  0  0  0  0  0  0  0  0
    1.3578   -0.1558    0.1151 C   0  0  0  0  0  0  0  0  0  0  0  0
    2.2155   -0.7194    0.7921 O   0  0  0  0  0  0  0  0  0  0  0  0
    0.5955    1.2698    2.0780 C   0  0  0  0  0  0  0  0  0  0  0  0
   -0.4975    2.1591    2.6706 C   0  0  0  0  0  0  0  0  0  0  0  0
   -0.0870    2.7499    3.9964 C   0  0  0  0  0  0  0  0  0  0  0  0
    0.9396    2.4448    4.5898 O   0  0  0  0  0  0  0  0  0  0  0  0
   -0.9893    3.6393    4.4794 O   0  0  0  0  0  0  0  0  0  0  0  0
   -0.6087   -1.2764    1.1771 H   0  0  0  0  0  0  0  0  0  0  0  0
   -0.1490    1.3996    0.0462 H   0  0  0  0  0  0  0  0  0  0  0  0
    0.8413    0.4789    2.7991 H   0  0  0  0  0  0  0  0  0  0  0  0
    1.5024    1.8770    1.9579 H   0  0  0  0  0  0  0  0  0  0  0  0
   -0.6947    3.0007    1.9954 H   0  0  0  0  0  0  0  0  0  0  0  0
   -1.4509    1.6289    2.7644 H   0  0  0  0  0  0  0  0  0  0  0  0
   -0.7690    4.0335    5.3500 H   0  0  0  0  0  0  0  0  0  0  0  0
    1.2962   -0.1752   -1.2704 N   0  0  0  0  0  0  0  0  0  0  0  0
    2.2691   -0.8525   -2.0971 C   0  0  2  0  0  0  0  0  0  0  0  0
    3.3312    0.1618   -2.5003 C   0  0  0  0  0  0  0  0  0  0  0  0
    3.1319    1.3747   -2.5078 O   0  0  0  0  0  0  0  0  0  0  0  0
    1.6172   -1.4734   -3.3228 C   0  0  0  0  0  0  0  0  0  0  0  0
    0.5297    0.3106   -1.7264 H   0  0  0  0  0  0  0  0  0  0  0  0
    2.7243   -1.6315   -1.4759 H   0  0  0  0  0  0  0  0  0  0  0  0
    1.1556   -0.7081   -3.9574 H   0  0  0  0  0  0  0  0  0  0  0  0
    2.3508   -2.0104   -3.9332 H   0  0  0  0  0  0  0  0  0  0  0  0
    0.8332   -2.1805   -3.0312 H   0  0  0  0  0  0  0  0  0  0  0  0
    4.5142   -0.4491   -2.8922 N   0  0  0  0  0  0  0  0  0  0  0  0
    5.6692    0.2983   -3.3319 C   0  0  0  0  0  0  0  0  0  0  0  0
    4.5969   -1.4600   -2.8361 H   0  0  0  0  0  0  0  0  0  0  0  0
    5.6412    0.4074   -4.4261 H   0  0  0  0  0  0  0  0  0  0  0  0
    5.6615    1.2937   -2.8639 H   0  0  0  0  0  0  0  0  0  0  0  0
    6.5849   -0.2370   -3.0402 H   0  0  0  0  0  0  0  0  0  0  0  0
  1  3  1  0  0  0  0
  1  7  1  0  0  0  0
  1  2  2  0  0  0  0
 34 35  1  0  0  0  0
 35 43  1  0  0  0  0
 35 36  2  0  0  0  0
  8  9  1  0  0  0  0
  9 17  1  0  0  0  0
  9 10  2  0  0  0  0
 18 19  1  0  0  0  0
 19 33  1  0  0  0  0
 19 20  2  0  0  0  0
 22 23  1  0  0  0  0
 23 24  2  0  0  0  0
 23 25  1  0  0  0  0
 34 37  1  0  0  0  0
  8 11  1  0  0  0  0
 43 44  1  0  0  0  0
 21 22  1  0  0  0  0
 18 21  1  0  0  0  0
 33 34  1  0  0  0  0
  7  8  1  0  0  0  0
 17 18  1  0  0  0  0
  3  4  1  0  0  0  0
  3  5  1  0  0  0  0
  3  6  1  0  0  0  0
 37 40  1  0  0  0  0
 37 41  1  0  0  0  0
 37 42  1  0  0  0  0
 11 14  1  0  0  0  0
 11 15  1  0  0  0  0
 11 16  1  0  0  0  0
 44 46  1  0  0  0  0
 44 47  1  0  0  0  0
 44 48  1  0  0  0  0
 22 30  1  0  0  0  0
 22 31  1  0  0  0  0
 21 28  1  0  0  0  0
 21 29  1  0  0  0  0
 34 39  1  0  0  0  0
  8 13  1  0  0  0  0
 18 27  1  0  0  0  0
 43 45  1  0  0  0  0
  7 12  1  0  0  0  0
 33 38  1  0  0  0  0
 17 26  1  0  0  0  0
 25 32  1  0  0  0  0
M  END
$$$$

  -OEChem-05262214473D

 48 47  0     1  0  0  0  0  0999 V2000
   -5.5827   -1.3473    1.4591 C   0  0  0  0  0  0  0  0  0  0  0  0
   -5.7053   -2.4696    0.9825 O   0  0  0  0  0  0  0  0  0  0  0  0
   -6.7879   -0.6277    1.9670 C   0  0  0  0  0  0  0  0  0  0  0  0
   -7.2718   -0.0164    1.1885 H   0  0  0  0  0  0  0  0  0  0  0  0
   -7.5699   -1.3171    2.3239 H   0  0  0  0  0  0  0  0  0  0  0  0
   -6.6057    0.0628    2.8060 H   0  0  0  0  0  0  0  0  0  0  0  0
   -4.4001   -0.6377    1.5884 N   0  0  0  0  0  0  0  0  0  0  0  0
   -3.1220   -1.1455    1.1644 C   0  0  2  0  0  0  0  0  0  0  0  0
   -2.2017    0.0428    0.9187 C   0  0  0  0  0  0  0  0  0  0  0  0
   -2.6171    1.1750    0.6807 O   0  0  0  0  0  0  0  0  0  0  0  0
   -3.2533   -1.9992   -0.0873 C   0  0  0  0  0  0  0  0  0  0  0  0
   -4.4370    0.2910    2.0047 H   0  0  0  0  0  0  0  0  0  0  0  0
   -2.7302   -1.7467    1.9921 H   0  0  0  0  0  0  0  0  0  0  0  0
   -3.6446   -1.4140   -0.9275 H   0  0  0  0  0  0  0  0  0  0  0  0
   -2.2844   -2.4081   -0.3922 H   0  0  0  0  0  0  0  0  0  0  0  0
   -3.9388   -2.8365    0.0822 H   0  0  0  0  0  0  0  0  0  0  0  0
   -0.8768   -0.3314    0.9568 N   0  0  0  0  0  0  0  0  0  0  0  0
    0.2067    0.6285    0.7375 C   0  0  2  0  0  0  0  0  0  0  0  0
    1.3578   -0.1558    0.1151 C   0  0  0  0  0  0  0  0  0  0  0  0
    2.0537   -0.9345    0.7639 O   0  0  0  0  0  0  0  0  0  0  0  0
    0.5955    1.2698    2.0780 C   0  0  0  0  0  0  0  0  0  0  0  0
   -0.4975    2.1591    2.6706 C   0  0  0  0  0  0  0  0  0  0  0  0
   -0.0870    2.7499    3.9964 C   0  0  0  0  0  0  0  0  0  0  0  0
    0.9396    2.4448    4.5898 O   0  0  0  0  0  0  0  0  0  0  0  0
   -0.9893    3.6393    4.4794 O   0  0  0  0  0  0  0  0  0  0  0  0
   -0.6087   -1.2764    1.1771 H   0  0  0  0  0  0  0  0  0  0  0  0
   -0.1490    1.3996    0.0462 H   0  0  0  0  0  0  0  0  0  0  0  0
    0.8413    0.4789    2.7991 H   0  0  0  0  0  0  0  0  0  0  0  0
    1.5024    1.8770    1.9579 H   0  0  0  0  0  0  0  0  0  0  0  0
   -0.6947    3.0007    1.9954 H   0  0  0  0  0  0  0  0  0  0  0  0
   -1.4509    1.6289    2.7644 H   0  0  0  0  0  0  0  0  0  0  0  0
   -0.7690    4.0335    5.3500 H   0  0  0  0  0  0  0  0  0  0  0  0
    1.4942    0.0933   -1.2425 N   0  0  0  0  0  0  0  0  0  0  0  0
    2.5089   -0.5271   -2.0636 C   0  0  2  0  0  0  0  0  0  0  0  0
    3.7070    0.4115   -2.1199 C   0  0  0  0  0  0  0  0  0  0  0  0
    3.6237    1.6191   -1.9060 O   0  0  0  0  0  0  0  0  0  0  0  0
    1.9853   -0.8244   -3.4600 C   0  0  0  0  0  0  0  0  0  0  0  0
    0.8493    0.7437   -1.6812 H   0  0  0  0  0  0  0  0  0  0  0  0
    2.7964   -1.4575   -1.5619 H   0  0  0  0  0  0  0  0  0  0  0  0
    1.6922    0.0960   -3.9783 H   0  0  0  0  0  0  0  0  0  0  0  0
    2.7461   -1.3202   -4.0719 H   0  0  0  0  0  0  0  0  0  0  0  0
    1.1055   -1.4755   -3.4160 H   0  0  0  0  0  0  0  0  0  0  0  0
    4.8725   -0.2510   -2.4792 N   0  0  0  0  0  0  0  0  0  0  0  0
    6.1427    0.4232   -2.6135 C   0  0  0  0  0  0  0  0  0  0  0  0
    4.8526   -1.2568   -2.6192 H   0  0  0  0  0  0  0  0  0  0  0  0
    6.2822    0.7388   -3.6580 H   0  0  0  0  0  0  0  0  0  0  0  0
    6.1599    1.3066   -1.9583 H   0  0  0  0  0  0  0  0  0  0  0  0
    6.9536   -0.2623   -2.3263 H   0  0  0  0  0  0  0  0  0  0  0  0
  1  3  1  0  0  0  0
  1  7  1  0  0  0  0
  1  2  2  0  0  0  0
 34 35  1  0  0  0  0
 35 43  1  0  0  0  0
 35 36  2  0  0  0  0
  8  9  1  0  0  0  0
  9 17  1  0  0  0  0
  9 10  2  0  0  0  0
 18 19  1  0  0  0  0
 19 33  1  0  0  0  0
 19 20  2  0  0  0  0
 22 23  1  0  0  0  0
 23 24  2  0  0  0  0
 23 25  1  0  0  0  0
 34 37  1  0  0  0  0
  8 11  1  0  0  0  0
 43 44  1  0  0  0  0
 21 22  1  0  0  0  0
 18 21  1  0  0  0  0
 33 34  1  0  0  0  0
  7  8  1  0  0  0  0
 17 18  1  0  0  0  0
  3  4  1  0  0  0  0
  3  5  1  0  0  0  0
  3  6  1  0  0  0  0
 37 40  1  0  0  0  0
 37 41  1  0  0  0  0
 37 42  1  0  0  0  0
 11 14  1  0  0  0  0
 11 15  1  0  0  0  0
 11 16  1  0  0  0  0
 44 46  1  0  0  0  0
 44 47  1  0  0  0  0
 44 48  1  0  0  0  0
 22 30  1  0  0  0  0
 22 31  1  0  0  0  0
 21 28  1  0  0  0  0
 21 29  1  0  0  0  0
 34 39  1  0  0  0  0
  8 13  1  0  0  0  0
 18 27  1  0  0  0  0
 43 45  1  0  0  0  0
  7 12  1  0  0  0  0
 33 38  1  0  0  0  0
 17 26  1  0  0  0  0
 25 32  1  0  0  0  0
M  END
$$$$

  -OEChem-05262214473D

 48 47  0     1  0  0  0  0  0999 V2000
   -5.5827   -1.3473    1.4591 C   0  0  0  0  0  0  0  0  0  0  0  0
   -5.7053   -2.4696    0.9825 O   0  0  0  0  0  0  0  0  0  0  0  0
   -6.7879   -0.6277    1.9670 C   0  0  0  0  0  0  0  0  0  0  0  0
   -7.2718   -0.0164    1.1885 H   0  0  0  0  0  0  0  0  0  0  0  0
   -7.5699   -1.3171    2.3239 H   0  0  0  0  0  0  0  0  0  0  0  0
   -6.6057    0.0628    2.8060 H   0  0  0  0  0  0  0  0  0  0  0  0
   -4.4001   -0.6377    1.5884 N   0  0  0  0  0  0  0  0  0  0  0  0
   -3.1220   -1.1455    1.1644 C   0  0  2  0  0  0  0  0  0  0  0  0
   -2.2017    0.0428    0.9187 C   0  0  0  0  0  0  0  0  0  0  0  0
   -2.6171    1.1750    0.6807 O   0  0  0  0  0  0  0  0  0  0  0  0
   -3.2533   -1.9992   -0.0873 C   0  0  0  0  0  0  0  0  0  0  0  0
   -4.4370    0.2910    2.0047 H   0  0  0  0  0  0  0  0  0  0  0  0
   -2.7302   -1.7467    1.9921 H   0  0  0  0  0  0  0  0  0  0  0  0
   -3.6446   -1.4140   -0.9275 H   0  0  0  0  0  0  0  0  0  0  0  0
   -2.2844   -2.4081   -0.3922 H   0  0  0  0  0  0  0  0  0  0  0  0
   -3.9388   -2.8365    0.0822 H   0  0  0  0  0  0  0  0  0  0  0  0
   -0.8768   -0.3314    0.9568 N   0  0  0  0  0  0  0  0  0  0  0  0
    0.2067    0.6285    0.7375 C   0  0  2  0  0  0  0  0  0  0  0  0
    1.3578   -0.1558    0.1151 C   0  0  0  0  0  0  0  0  0  0  0  0
    1.8784   -1.1197    0.6731 O   0  0  0  0  0  0  0  0  0  0  0  0
    0.5955    1.2698    2.0780 C   0  0  0  0  0  0  0  0  0  0  0  0
   -0.4975    2.1591    2.6706 C   0  0  0  0  0  0  0  0  0  0  0  0
   -0.0870    2.7499    3.9964 C   0  0  0  0  0  0  0  0  0  0  0  0
    0.9396    2.4448    4.5898 O   0  0  0  0  0  0  0  0  0  0  0  0
   -0.9893    3.6393    4.4794 O   0  0  0  0  0  0  0  0  0  0  0  0
   -0.6087   -1.2764    1.1771 H   0  0  0  0  0  0  0  0  0  0  0  0
   -0.1490    1.3996    0.0462 H   0  0  0  0  0  0  0  0  0  0  0  0
    0.8413    0.4789    2.7991 H   0  0  0  0  0  0  0  0  0  0  0  0
    1.5024    1.8770    1.9579 H   0  0  0  0  0  0  0  0  0  0  0  0
   -0.6947    3.0007    1.9954 H   0  0  0  0  0  0  0  0  0  0  0  0
   -1.4509    1.6289    2.7644 H   0  0  0  0  0  0  0  0  0  0  0  0
   -0.7690    4.0335    5.3500 H   0  0  0  0  0  0  0  0  0  0  0  0
    1.7101    0.3263   -1.1368 N   0  0  0  0  0  0  0  0  0  0  0  0
    2.7705   -0.2446   -1.9357 C   0  0  2  0  0  0  0  0  0  0  0  0
    4.0458    0.5386   -1.6536 C   0  0  0  0  0  0  0  0  0  0  0  0
    4.0446    1.6857   -1.2116 O   0  0  0  0  0  0  0  0  0  0  0  0
    2.4275   -0.2095   -3.4169 C   0  0  0  0  0  0  0  0  0  0  0  0
    1.1977    1.1195   -1.5104 H   0  0  0  0  0  0  0  0  0  0  0  0
    2.8958   -1.2803   -1.6015 H   0  0  0  0  0  0  0  0  0  0  0  0
    2.2982    0.8200   -3.7700 H   0  0  0  0  0  0  0  0  0  0  0  0
    3.2192   -0.6682   -4.0185 H   0  0  0  0  0  0  0  0  0  0  0  0
    1.4943   -0.7481   -3.6137 H   0  0  0  0  0  0  0  0  0  0  0  0
    5.1845   -0.1780   -1.9940 N   0  0  0  0  0  0  0  0  0  0  0  0
    6.5176    0.3536   -1.8323 C   0  0  0  0  0  0  0  0  0  0  0  0
    5.0922   -1.1300   -2.3360 H   0  0  0  0  0  0  0  0  0  0  0  0
    6.8342    0.8413   -2.7661 H   0  0  0  0  0  0  0  0  0  0  0  0
    6.5221    1.0895   -1.0147 H   0  0  0  0  0  0  0  0  0  0  0  0
    7.2121   -0.4650   -1.5926 H   0  0  0  0  0  0  0  0  0  0  0  0
  1  3  1  0  0  0  0
  1  7  1  0  0  0  0
  1  2  2  0  0  0  0
 34 35  1  0  0  0  0
 35 43  1  0  0  0  0
 35 36  2  0  0  0  0
  8  9  1  0  0  0  0
  9 17  1  0  0  0  0
  9 10  2  0  0  0  0
 18 19  1  0  0  0  0
 19 33  1  0  0  0  0
 19 20  2  0  0  0  0
 22 23  1  0  0  0  0
 23 24  2  0  0  0  0
 23 25  1  0  0  0  0
 34 37  1  0  0  0  0
  8 11  1  0  0  0  0
 43 44  1  0  0  0  0
 21 22  1  0  0  0  0
 18 21  1  0  0  0  0
 33 34  1  0  0  0  0
  7  8  1  0  0  0  0
 17 18  1  0  0  0  0
  3  4  1  0  0  0  0
  3  5  1  0  0  0  0
  3  6  1  0  0  0  0
 37 40  1  0  0  0  0
 37 41  1  0  0  0  0
 37 42  1  0  0  0  0
 11 14  1  0  0  0  0
 11 15  1  0  0  0  0
 11 16  1  0  0  0  0
 44 46  1  0  0  0  0
 44 47  1  0  0  0  0
 44 48  1  0  0  0  0
 22 30  1  0  0  0  0
 22 31  1  0  0  0  0
 21 28  1  0  0  0  0
 21 29  1  0  0  0  0
 34 39  1  0  0  0  0
  8 13  1  0  0  0  0
 18 27  1  0  0  0  0
 43 45  1  0  0  0  0
  7 12  1  0  0  0  0
 33 38  1  0  0  0  0
 17 26  1  0  0  0  0
 25 32  1  0  0  0  0
M  END
$$$$

  -OEChem-05262214473D

 48 47  0     1  0  0  0  0  0999 V2000
   -5.5827   -1.3473    1.4591 C   0  0  0  0  0  0  0  0  0  0  0  0
   -5.7053   -2.4696    0.9825 O   0  0  0  0  0  0  0  0  0  0  0  0
   -6.7879   -0.6277    1.9670 C   0  0  0  0  0  0  0  0  0  0  0  0
   -7.2718   -0.0164    1.1885 H   0  0  0  0  0  0  0  0  0  0  0  0
   -7.5699   -1.3171    2.3239 H   0  0  0  0  0  0  0  0  0  0  0  0
   -6.6057    0.0628    2.8060 H   0  0  0  0  0  0  0  0  0  0  0  0
   -4.4001   -0.6377    1.5884 N   0  0  0  0  0  0  0  0  0  0  0  0
   -3.1220   -1.1455    1.1644 C   0  0  2  0  0  0  0  0  0  0  0  0
   -2.2017    0.0428    0.9187 C   0  0  0  0  0  0  0  0  0  0  0  0
   -2.6171    1.1750    0.6807 O   0  0  0  0  0  0  0  0  0  0  0  0
   -3.2533   -1.9992   -0.0873 C   0  0  0  0  0  0  0  0  0  0  0  0
   -4.4370    0.2910    2.0047 H   0  0  0  0  0  0  0  0  0  0  0  0
   -2.7302   -1.7467    1.9921 H   0  0  0  0  0  0  0  0  0  0  0  0
   -3.6446   -1.4140   -0.9275 H   0  0  0  0  0  0  0  0  0  0  0  0
   -2.2844   -2.4081   -0.3922 H   0  0  0  0  0  0  0  0  0  0  0  0
   -3.9388   -2.8365    0.0822 H   0  0  0  0  0  0  0  0  0  0  0  0
   -0.8768   -0.3314    0.9568 N   0  0  0  0  0  0  0  0  0  0  0  0
    0.2067    0.6285    0.7375 C   0  0  2  0  0  0  0  0  0  0  0  0
    1.3578   -0.1558    0.1151 C   0  0  0  0  0  0  0  0  0  0  0  0
    1.7016   -1.2624    0.5260 O   0  0  0  0  0  0  0  0  0  0  0  0
    0.5955    1.2698    2.0780 C   0  0  0  0  0  0  0  0  0  0  0  0
   -0.4975    2.1591    2.6706 C   0  0  0  0  0  0  0  0  0  0  0  0
   -0.0870    2.7499    3.9964 C   0  0  0  0  0  0  0  0  0  0  0  0
    0.9396    2.4448    4.5898 O   0  0  0  0  0  0  0  0  0  0  0  0
   -0.9893    3.6393    4.4794 O   0  0  0  0  0  0  0  0  0  0  0  0
   -0.6087   -1.2764    1.1771 H   0  0  0  0  0  0  0  0  0  0  0  0
   -0.1490    1.3996    0.0462 H   0  0  0  0  0  0  0  0  0  0  0  0
    0.8413    0.4789    2.7991 H   0  0  0  0  0  0  0  0  0  0  0  0
    1.5024    1.8770    1.9579 H   0  0  0  0  0  0  0  0  0  0  0  0
   -0.6947    3.0007    1.9954 H   0  0  0  0  0  0  0  0  0  0  0  0
   -1.4509    1.6289    2.7644 H   0  0  0  0  0  0  0  0  0  0  0  0
   -0.7690    4.0335    5.3500 H   0  0  0  0  0  0  0  0  0  0  0  0
    1.9292    0.5079   -0.9604 N   0  0  0  0  0  0  0  0  0  0  0  0
    3.0360   -0.0244   -1.7223 C   0  0  2  0  0  0  0  0  0  0  0  0
    4.3244    0.5347   -1.1333 C   0  0  0  0  0  0  0  0  0  0  0  0
    4.3657    1.5700   -0.4718 O   0  0  0  0  0  0  0  0  0  0  0  0
    2.9139    0.3292   -3.1963 C   0  0  0  0  0  0  0  0  0  0  0  0
    1.5512    1.4124   -1.2257 H   0  0  0  0  0  0  0  0  0  0  0  0
    3.0158   -1.1118   -1.5918 H   0  0  0  0  0  0  0  0  0  0  0  0
    2.9322    1.4148   -3.3468 H   0  0  0  0  0  0  0  0  0  0  0  0
    3.7380   -0.0988   -3.7766 H   0  0  0  0  0  0  0  0  0  0  0  0
    1.9729   -0.0480   -3.6110 H   0  0  0  0  0  0  0  0  0  0  0  0
    5.4291   -0.2352   -1.4695 N   0  0  0  0  0  0  0  0  0  0  0  0
    6.7685    0.0943   -1.0414 C   0  0  0  0  0  0  0  0  0  0  0  0
    5.2993   -1.0880   -2.0059 H   0  0  0  0  0  0  0  0  0  0  0  0
    7.2596    0.7078   -1.8111 H   0  0  0  0  0  0  0  0  0  0  0  0
    6.7235    0.6574   -0.0975 H   0  0  0  0  0  0  0  0  0  0  0  0
    7.3428   -0.8314   -0.8890 H   0  0  0  0  0  0  0  0  0  0  0  0
  1  3  1  0  0  0  0
  1  7  1  0  0  0  0
  1  2  2  0  0  0  0
 34 35  1  0  0  0  0
 35 43  1  0  0  0  0
 35 36  2  0  0  0  0
  8  9  1  0  0  0  0
  9 17  1  0  0  0  0
  9 10  2  0  0  0  0
 18 19  1  0  0  0  0
 19 33  1  0  0  0  0
 19 20  2  0  0  0  0
 22 23  1  0  0  0  0
 23 24  2  0  0  0  0
 23 25  1  0  0  0  0
 34 37  1  0  0  0  0
  8 11  1  0  0  0  0
 43 44  1  0  0  0  0
 21 22  1  0  0  0  0
 18 21  1  0  0  0  0
 33 34  1  0  0  0  0
  7  8  1  0  0  0  0
 17 18  1  0  0  0  0
  3  4  1  0  0  0  0
  3  5  1  0  0  0  0
  3  6  1  0  0  0  0
 37 40  1  0  0  0  0
 37 41  1  0  0  0  0
 37 42  1  0  0  0  0
 11 14  1  0  0  0  0
 11 15  1  0  0  0  0
 11 16  1  0  0  0  0
 44 46  1  0  0  0  0
 44 47  1  0  0  0  0
 44 48  1  0  0  0  0
 22 30  1  0  0  0  0
 22 31  1  0  0  0  0
 21 28  1  0  0  0  0
 21 29  1  0  0  0  0
 34 39  1  0  0  0  0
  8 13  1  0  0  0  0
 18 27  1  0  0  0  0
 43 45  1  0  0  0  0
  7 12  1  0  0  0  0
 33 38  1  0  0  0  0
 17 26  1  0  0  0  0
 25 32  1  0  0  0  0
M  END
$$$$

  -OEChem-05262214473D

 48 47  0     1  0  0  0  0  0999 V2000
   -5.5827   -1.3473    1.4591 C   0  0  0  0  0  0  0  0  0  0  0  0
   -5.7053   -2.4696    0.9825 O   0  0  0  0  0  0  0  0  0  0  0  0
   -6.7879   -0.6277    1.9670 C   0  0  0  0  0  0  0  0  0  0  0  0
   -7.2718   -0.0164    1.1885 H   0  0  0  0  0  0  0  0  0  0  0  0
   -7.5699   -1.3171    2.3239 H   0  0  0  0  0  0  0  0  0  0  0  0
   -6.6057    0.0628    2.8060 H   0  0  0  0  0  0  0  0  0  0  0  0
   -4.4001   -0.6377    1.5884 N   0  0  0  0  0  0  0  0  0  0  0  0
   -3.1220   -1.1455    1.1644 C   0  0  2  0  0  0  0  0  0  0  0  0
   -2.2017    0.0428    0.9187 C   0  0  0  0  0  0  0  0  0  0  0  0
   -2.6171    1.1750    0.6807 O   0  0  0  0  0  0  0  0  0  0  0  0
   -3.2533   -1.9992   -0.0873 C   0  0  0  0  0  0  0  0  0  0  0  0
   -4.4370    0.2910    2.0047 H   0  0  0  0  0  0  0  0  0  0  0  0
   -2.7302   -1.7467    1.9921 H   0  0  0  0  0  0  0  0  0  0  0  0
   -3.6446   -1.4140   -0.9275 H   0  0  0  0  0  0  0  0  0  0  0  0
   -2.2844   -2.4081   -0.3922 H   0  0  0  0  0  0  0  0  0  0  0  0
   -3.9388   -2.8365    0.0822 H   0  0  0  0  0  0  0  0  0  0  0  0
   -0.8768   -0.3314    0.9568 N   0  0  0  0  0  0  0  0  0  0  0  0
    0.2067    0.6285    0.7375 C   0  0  2  0  0  0  0  0  0  0  0  0
    1.3578   -0.1558    0.1151 C   0  0  0  0  0  0  0  0  0  0  0  0
    1.5354   -1.3528    0.3325 O   0  0  0  0  0  0  0  0  0  0  0  0
    0.5955    1.2698    2.0780 C   0  0  0  0  0  0  0  0  0  0  0  0
   -0.4975    2.1591    2.6706 C   0  0  0  0  0  0  0  0  0  0  0  0
   -0.0870    2.7499    3.9964 C   0  0  0  0  0  0  0  0  0  0  0  0
    0.9396    2.4448    4.5898 O   0  0  0  0  0  0  0  0  0  0  0  0
   -0.9893    3.6393    4.4794 O   0  0  0  0  0  0  0  0  0  0  0  0
   -0.6087   -1.2764    1.1771 H   0  0  0  0  0  0  0  0  0  0  0  0
   -0.1490    1.3996    0.0462 H   0  0  0  0  0  0  0  0  0  0  0  0
    0.8413    0.4789    2.7991 H   0  0  0  0  0  0  0  0  0  0  0  0
    1.5024    1.8770    1.9579 H   0  0  0  0  0  0  0  0  0  0  0  0
   -0.6947    3.0007    1.9954 H   0  0  0  0  0  0  0  0  0  0  0  0
   -1.4509    1.6289    2.7644 H   0  0  0  0  0  0  0  0  0  0  0  0
   -0.7690    4.0335    5.3500 H   0  0  0  0  0  0  0  0  0  0  0  0
    2.1365    0.6257   -0.7255 N   0  0  0  0  0  0  0  0  0  0  0  0
    3.2873    0.1187   -1.4378 C   0  0  2  0  0  0  0  0  0  0  0  0
    4.5238    0.3998   -0.5944 C   0  0  0  0  0  0  0  0  0  0  0  0
    4.5652    1.2798    0.2629 O   0  0  0  0  0  0  0  0  0  0  0  0
    3.4112    0.7552   -2.8133 C   0  0  0  0  0  0  0  0  0  0  0  0
    1.8857    1.6023   -0.8464 H   0  0  0  0  0  0  0  0  0  0  0  0
    3.1482   -0.9637   -1.5336 H   0  0  0  0  0  0  0  0  0  0  0  0
    3.5512    1.8397   -2.7376 H   0  0  0  0  0  0  0  0  0  0  0  0
    4.2670    0.3492   -3.3628 H   0  0  0  0  0  0  0  0  0  0  0  0
    2.5087    0.5773   -3.4079 H   0  0  0  0  0  0  0  0  0  0  0  0
    5.5895   -0.4188   -0.9415 N   0  0  0  0  0  0  0  0  0  0  0  0
    6.8782   -0.3372   -0.2947 C   0  0  0  0  0  0  0  0  0  0  0  0
    5.4598   -1.1338   -1.6512 H   0  0  0  0  0  0  0  0  0  0  0  0
    7.5292    0.3474   -0.8582 H   0  0  0  0  0  0  0  0  0  0  0  0
    6.7504    0.0396    0.7309 H   0  0  0  0  0  0  0  0  0  0  0  0
    7.3367   -1.3366   -0.2636 H   0  0  0  0  0  0  0  0  0  0  0  0
  1  3  1  0  0  0  0
  1  7  1  0  0  0  0
  1  2  2  0  0  0  0
 34 35  1  0  0  0  0
 35 43  1  0  0  0  0
 35 36  2  0  0  0  0
  8  9  1  0  0  0  0
  9 17  1  0  0  0  0
  9 10  2  0  0  0  0
 18 19  1  0  0  0  0
 19 33  1  0  0  0  0
 19 20  2  0  0  0  0
 22 23  1  0  0  0  0
 23 24  2  0  0  0  0
 23 25  1  0  0  0  0
 34 37  1  0  0  0  0
  8 11  1  0  0  0  0
 43 44  1  0  0  0  0
 21 22  1  0  0  0  0
 18 21  1  0  0  0  0
 33 34  1  0  0  0  0
  7  8  1  0  0  0  0
 17 18  1  0  0  0  0
  3  4  1  0  0  0  0
  3  5  1  0  0  0  0
  3  6  1  0  0  0  0
 37 40  1  0  0  0  0
 37 41  1  0  0  0  0
 37 42  1  0  0  0  0
 11 14  1  0  0  0  0
 11 15  1  0  0  0  0
 11 16  1  0  0  0  0
 44 46  1  0  0  0  0
 44 47  1  0  0  0  0
 44 48  1  0  0  0  0
 22 30  1  0  0  0  0
 22 31  1  0  0  0  0
 21 28  1  0  0  0  0
 21 29  1  0  0  0  0
 34 39  1  0  0  0  0
  8 13  1  0  0  0  0
 18 27  1  0  0  0  0
 43 45  1  0  0  0  0
  7 12  1  0  0  0  0
 33 38  1  0  0  0  0
 17 26  1  0  0  0  0
 25 32  1  0  0  0  0
M  END
$$$$

  -OEChem-05262214473D

 48 47  0     1  0  0  0  0  0999 V2000
   -5.5827   -1.3473    1.4591 C   0  0  0  0  0  0  0  0  0  0  0  0
   -5.7053   -2.4696    0.9825 O   0  0  0  0  0  0  0  0  0  0  0  0
   -6.7879   -0.6277    1.9670 C   0  0  0  0  0  0  0  0  0  0  0  0
   -7.2718   -0.0164    1.1885 H   0  0  0  0  0  0  0  0  0  0  0  0
   -7.5699   -1.3171    2.3239 H   0  0  0  0  0  0  0  0  0  0  0  0
   -6.6057    0.0628    2.8060 H   0  0  0  0  0  0  0  0  0  0  0  0
   -4.4001   -0.6377    1.5884 N   0  0  0  0  0  0  0  0  0  0  0  0
   -3.1220   -1.1455    1.1644 C   0  0  2  0  0  0  0  0  0  0  0  0
   -2.2017    0.0428    0.9187 C   0  0  0  0  0  0  0  0  0  0  0  0
   -2.6171    1.1750    0.6807 O   0  0  0  0  0  0  0  0  0  0  0  0
   -3.2533   -1.9992   -0.0873 C   0  0  0  0  0  0  0  0  0  0  0  0
   -4.4370    0.2910    2.0047 H   0  0  0  0  0  0  0  0  0  0  0  0
   -2.7302   -1.7467    1.9921 H   0  0  0  0  0  0  0  0  0  0  0  0
   -3.6446   -1.4140   -0.9275 H   0  0  0  0  0  0  0  0  0  0  0  0
   -2.2844   -2.4081   -0.3922 H   0  0  0  0  0  0  0  0  0  0  0  0
   -3.9388   -2.8365    0.0822 H   0  0  0  0  0  0  0  0  0  0  0  0
   -0.8768   -0.3314    0.9568 N   0  0  0  0  0  0  0  0  0  0  0  0
    0.2067    0.6285    0.7375 C   0  0  2  0  0  0  0  0  0  0  0  0
    1.3578   -0.1558    0.1151 C   0  0  0  0  0  0  0  0  0  0  0  0
    1.3911   -1.3848    0.1058 O   0  0  0  0  0  0  0  0  0  0  0  0
    0.5955    1.2698    2.0780 C   0  0  0  0  0  0  0  0  0  0  0  0
   -0.4975    2.1591    2.6706 C   0  0  0  0  0  0  0  0  0  0  0  0
   -0.0870    2.7499    3.9964 C   0  0  0  0  0  0  0  0  0  0  0  0
    0.9396    2.4448    4.5898 O   0  0  0  0  0  0  0  0  0  0  0  0
   -0.9893    3.6393    4.4794 O   0  0  0  0  0  0  0  0  0  0  0  0
   -0.6087   -1.2764    1.1771 H   0  0  0  0  0  0  0  0  0  0  0  0
   -0.1490    1.3996    0.0462 H   0  0  0  0  0  0  0  0  0  0  0  0
    0.8413    0.4789    2.7991 H   0  0  0  0  0  0  0  0  0  0  0  0
    1.5024    1.8770    1.9579 H   0  0  0  0  0  0  0  0  0  0  0  0
   -0.6947    3.0007    1.9954 H   0  0  0  0  0  0  0  0  0  0  0  0
   -1.4509    1.6289    2.7644 H   0  0  0  0  0  0  0  0  0  0  0  0
   -0.7690    4.0335    5.3500 H   0  0  0  0  0  0  0  0  0  0  0  0
    2.3179    0.6718   -0.4480 N   0  0  0  0  0  0  0  0  0  0  0  0
    3.5072    0.1747   -1.1016 C   0  0  2  0  0  0  0  0  0  0  0  0
    4.6305    0.1433   -0.0737 C   0  0  0  0  0  0  0  0  0  0  0  0
    4.6295    0.8350    0.9425 O   0  0  0  0  0  0  0  0  0  0  0  0
    3.8856    1.0394   -2.2940 C   0  0  0  0  0  0  0  0  0  0  0  0
    2.1783    1.6765   -0.3985 H   0  0  0  0  0  0  0  0  0  0  0  0
    3.2840   -0.8460   -1.4308 H   0  0  0  0  0  0  0  0  0  0  0  0
    4.1128    2.0658   -1.9837 H   0  0  0  0  0  0  0  0  0  0  0  0
    4.7702    0.6452   -2.8051 H   0  0  0  0  0  0  0  0  0  0  0  0
    3.0652    1.0850   -3.0183 H   0  0  0  0  0  0  0  0  0  0  0  0
    5.6548   -0.7161   -0.4460 N   0  0  0  0  0  0  0  0  0  0  0  0
    6.8393   -0.9113    0.3570 C   0  0  0  0  0  0  0  0  0  0  0  0
    5.5628   -1.2643   -1.2962 H   0  0  0  0  0  0  0  0  0  0  0  0
    7.6249   -0.2152    0.0278 H   0  0  0  0  0  0  0  0  0  0  0  0
    6.6009   -0.7218    1.4140 H   0  0  0  0  0  0  0  0  0  0  0  0
    7.1943   -1.9460    0.2410 H   0  0  0  0  0  0  0  0  0  0  0  0
  1  3  1  0  0  0  0
  1  7  1  0  0  0  0
  1  2  2  0  0  0  0
 34 35  1  0  0  0  0
 35 43  1  0  0  0  0
 35 36  2  0  0  0  0
  8  9  1  0  0  0  0
  9 17  1  0  0  0  0
  9 10  2  0  0  0  0
 18 19  1  0  0  0  0
 19 33  1  0  0  0  0
 19 20  2  0  0  0  0
 22 23  1  0  0  0  0
 23 24  2  0  0  0  0
 23 25  1  0  0  0  0
 34 37  1  0  0  0  0
  8 11  1  0  0  0  0
 43 44  1  0  0  0  0
 21 22  1  0  0  0  0
 18 21  1  0  0  0  0
 33 34  1  0  0  0  0
  7  8  1  0  0  0  0
 17 18  1  0  0  0  0
  3  4  1  0  0  0  0
  3  5  1  0  0  0  0
  3  6  1  0  0  0  0
 37 40  1  0  0  0  0
 37 41  1  0  0  0  0
 37 42  1  0  0  0  0
 11 14  1  0  0  0  0
 11 15  1  0  0  0  0
 11 16  1  0  0  0  0
 44 46  1  0  0  0  0
 44 47  1  0  0  0  0
 44 48  1  0  0  0  0
 22 30  1  0  0  0  0
 22 31  1  0  0  0  0
 21 28  1  0  0  0  0
 21 29  1  0  0  0  0
 34 39  1  0  0  0  0
  8 13  1  0  0  0  0
 18 27  1  0  0  0  0
 43 45  1  0  0  0  0
  7 12  1  0  0  0  0
 33 38  1  0  0  0  0
 17 26  1  0  0  0  0
 25 32  1  0  0  0  0
M  END
$$$$

  -OEChem-05262214473D

 48 47  0     1  0  0  0  0  0999 V2000
   -5.5827   -1.3473    1.4591 C   0  0  0  0  0  0  0  0  0  0  0  0
   -5.7053   -2.4696    0.9825 O   0  0  0  0  0  0  0  0  0  0  0  0
   -6.7879   -0.6277    1.9670 C   0  0  0  0  0  0  0  0  0  0  0  0
   -7.2718   -0.0164    1.1885 H   0  0  0  0  0  0  0  0  0  0  0  0
   -7.5699   -1.3171    2.3239 H   0  0  0  0  0  0  0  0  0  0  0  0
   -6.6057    0.0628    2.8060 H   0  0  0  0  0  0  0  0  0  0  0  0
   -4.4001   -0.6377    1.5884 N   0  0  0  0  0  0  0  0  0  0  0  0
   -3.1220   -1.1455    1.1644 C   0  0  2  0  0  0  0  0  0  0  0  0
   -2.2017    0.0428    0.9187 C   0  0  0  0  0  0  0  0  0  0  0  0
   -2.6171    1.1750    0.6807 O   0  0  0  0  0  0  0  0  0  0  0  0
   -3.2533   -1.9992   -0.0873 C   0  0  0  0  0  0  0  0  0  0  0  0
   -4.4370    0.2910    2.0047 H   0  0  0  0  0  0  0  0  0  0  0  0
   -2.7302   -1.7467    1.9921 H   0  0  0  0  0  0  0  0  0  0  0  0
   -3.6446   -1.4140   -0.9275 H   0  0  0  0  0  0  0  0  0  0  0  0
   -2.2844   -2.4081   -0.3922 H   0  0  0  0  0  0  0  0  0  0  0  0
   -3.9388   -2.8365    0.0822 H   0  0  0  0  0  0  0  0  0  0  0  0
   -0.8768   -0.3314    0.9568 N   0  0  0  0  0  0  0  0  0  0  0  0
    0.2067    0.6285    0.7375 C   0  0  2  0  0  0  0  0  0  0  0  0
    1.1934   -0.0449   -0.2114 C   0  0  0  0  0  0  0  0  0  0  0  0
    1.0068   -1.1707   -0.6689 O   0  0  0  0  0  0  0  0  0  0  0  0
    0.8474    0.9874    2.0866 C   0  0  0  0  0  0  0  0  0  0  0  0
   -0.0812    1.7682    3.0164 C   0  0  0  0  0  0  0  0  0  0  0  0
    0.5755    2.0801    4.3380 C   0  0  0  0  0  0  0  0  0  0  0  0
    1.6680    1.6425    4.6761 O   0  0  0  0  0  0  0  0  0  0  0  0
   -0.1835    2.8781    5.1288 O   0  0  0  0  0  0  0  0  0  0  0  0
   -0.6087   -1.2764    1.1771 H   0  0  0  0  0  0  0  0  0  0  0  0
   -0.2156    1.5272    0.2760 H   0  0  0  0  0  0  0  0  0  0  0  0
    1.1653    0.0659    2.5922 H   0  0  0  0  0  0  0  0  0  0  0  0
    1.7539    1.5861    1.9274 H   0  0  0  0  0  0  0  0  0  0  0  0
   -0.3409    2.7295    2.5563 H   0  0  0  0  0  0  0  0  0  0  0  0
   -1.0337    1.2513    3.1727 H   0  0  0  0  0  0  0  0  0  0  0  0
    0.1996    3.0901    6.0064 H   0  0  0  0  0  0  0  0  0  0  0  0
    2.2804    0.7648   -0.5057 N   0  0  0  0  0  0  0  0  0  0  0  0
    3.3557    0.3596   -1.3822 C   0  0  2  0  0  0  0  0  0  0  0  0
    4.4651   -0.2325   -0.5229 C   0  0  0  0  0  0  0  0  0  0  0  0
    4.5971    0.0236    0.6721 O   0  0  0  0  0  0  0  0  0  0  0  0
    3.8710    1.5308   -2.2039 C   0  0  0  0  0  0  0  0  0  0  0  0
    2.3228    1.6879   -0.0845 H   0  0  0  0  0  0  0  0  0  0  0  0
    2.9508   -0.4156   -2.0419 H   0  0  0  0  0  0  0  0  0  0  0  0
    4.2806    2.3176   -1.5600 H   0  0  0  0  0  0  0  0  0  0  0  0
    4.6662    1.2163   -2.8879 H   0  0  0  0  0  0  0  0  0  0  0  0
    3.0651    1.9741   -2.7987 H   0  0  0  0  0  0  0  0  0  0  0  0
    5.3160   -1.0466   -1.2574 N   0  0  0  0  0  0  0  0  0  0  0  0
    6.4542   -1.7149   -0.6712 C   0  0  0  0  0  0  0  0  0  0  0  0
    5.1196   -1.2179   -2.2392 H   0  0  0  0  0  0  0  0  0  0  0  0
    7.3482   -1.0838   -0.7828 H   0  0  0  0  0  0  0  0  0  0  0  0
    6.2635   -1.8947    0.3972 H   0  0  0  0  0  0  0  0  0  0  0  0
    6.6178   -2.6757   -1.1811 H   0  0  0  0  0  0  0  0  0  0  0  0
  1  3  1  0  0  0  0
  1  7  1  0  0  0  0
  1  2  2  0  0  0  0
 34 35  1  0  0  0  0
 35 43  1  0  0  0  0
 35 36  2  0  0  0  0
  8  9  1  0  0  0  0
  9 17  1  0  0  0  0
  9 10  2  0  0  0  0
 18 19  1  0  0  0  0
 19 33  1  0  0  0  0
 19 20  2  0  0  0  0
 22 23  1  0  0  0  0
 23 24  2  0  0  0  0
 23 25  1  0  0  0  0
 34 37  1  0  0  0  0
  8 11  1  0  0  0  0
 43 44  1  0  0  0  0
 21 22  1  0  0  0  0
 18 21  1  0  0  0  0
 33 34  1  0  0  0  0
  7  8  1  0  0  0  0
 17 18  1  0  0  0  0
  3  4  1  0  0  0  0
  3  5  1  0  0  0  0
  3  6  1  0  0  0  0
 37 40  1  0  0  0  0
 37 41  1  0  0  0  0
 37 42  1  0  0  0  0
 11 14  1  0  0  0  0
 11 15  1  0  0  0  0
 11 16  1  0  0  0  0
 44 46  1  0  0  0  0
 44 47  1  0  0  0  0
 44 48  1  0  0  0  0
 22 30  1  0  0  0  0
 22 31  1  0  0  0  0
 21 28  1  0  0  0  0
 21 29  1  0  0  0  0
 34 39  1  0  0  0  0
  8 13  1  0  0  0  0
 18 27  1  0  0  0  0
 43 45  1  0  0  0  0
  7 12  1  0  0  0  0
 33 38  1  0  0  0  0
 17 26  1  0  0  0  0
 25 32  1  0  0  0  0
M  END
$$$$

  -OEChem-05262214473D

 48 47  0     1  0  0  0  0  0999 V2000
   -5.5827   -1.3473    1.4591 C   0  0  0  0  0  0  0  0  0  0  0  0
   -5.7053   -2.4696    0.9825 O   0  0  0  0  0  0  0  0  0  0  0  0
   -6.7879   -0.6277    1.9670 C   0  0  0  0  0  0  0  0  0  0  0  0
   -7.2718   -0.0164    1.1885 H   0  0  0  0  0  0  0  0  0  0  0  0
   -7.5699   -1.3171    2.3239 H   0  0  0  0  0  0  0  0  0  0  0  0
   -6.6057    0.0628    2.8060 H   0  0  0  0  0  0  0  0  0  0  0  0
   -4.4001   -0.6377    1.5884 N   0  0  0  0  0  0  0  0  0  0  0  0
   -3.1220   -1.1455    1.1644 C   0  0  2  0  0  0  0  0  0  0  0  0
   -2.2017    0.0428    0.9187 C   0  0  0  0  0  0  0  0  0  0  0  0
   -2.6171    1.1750    0.6807 O   0  0  0  0  0  0  0  0  0  0  0  0
   -3.2533   -1.9992   -0.0873 C   0  0  0  0  0  0  0  0  0  0  0  0
   -4.4370    0.2910    2.0047 H   0  0  0  0  0  0  0  0  0  0  0  0
   -2.7302   -1.7467    1.9921 H   0  0  0  0  0  0  0  0  0  0  0  0
   -3.6446   -1.4140   -0.9275 H   0  0  0  0  0  0  0  0  0  0  0  0
   -2.2844   -2.4081   -0.3922 H   0  0  0  0  0  0  0  0  0  0  0  0
   -3.9388   -2.8365    0.0822 H   0  0  0  0  0  0  0  0  0  0  0  0
   -0.8768   -0.3314    0.9568 N   0  0  0  0  0  0  0  0  0  0  0  0
    0.2067    0.6285    0.7375 C   0  0  2  0  0  0  0  0  0  0  0  0
    1.1934   -0.0449   -0.2114 C   0  0  0  0  0  0  0  0  0  0  0  0
    0.8987   -1.0356   -0.8771 O   0  0  0  0  0  0  0  0  0  0  0  0
    0.8474    0.9874    2.0866 C   0  0  0  0  0  0  0  0  0  0  0  0
   -0.0812    1.7682    3.0164 C   0  0  0  0  0  0  0  0  0  0  0  0
    0.5755    2.0801    4.3380 C   0  0  0  0  0  0  0  0  0  0  0  0
    1.6680    1.6425    4.6761 O   0  0  0  0  0  0  0  0  0  0  0  0
   -0.1835    2.8781    5.1288 O   0  0  0  0  0  0  0  0  0  0  0  0
   -0.6087   -1.2764    1.1771 H   0  0  0  0  0  0  0  0  0  0  0  0
   -0.2156    1.5272    0.2760 H   0  0  0  0  0  0  0  0  0  0  0  0
    1.1653    0.0659    2.5922 H   0  0  0  0  0  0  0  0  0  0  0  0
    1.7539    1.5861    1.9274 H   0  0  0  0  0  0  0  0  0  0  0  0
   -0.3409    2.7295    2.5563 H   0  0  0  0  0  0  0  0  0  0  0  0
   -1.0337    1.2513    3.1727 H   0  0  0  0  0  0  0  0  0  0  0  0
    0.1996    3.0901    6.0064 H   0  0  0  0  0  0  0  0  0  0  0  0
    2.4190    0.6036   -0.2471 N   0  0  0  0  0  0  0  0  0  0  0  0
    3.5238    0.1644   -1.0688 C   0  0  2  0  0  0  0  0  0  0  0  0
    4.4117   -0.7366   -0.2207 C   0  0  0  0  0  0  0  0  0  0  0  0
    4.4269   -0.6989    1.0079 O   0  0  0  0  0  0  0  0  0  0  0  0
    4.3112    1.3454   -1.6146 C   0  0  0  0  0  0  0  0  0  0  0  0
    2.5463    1.4275    0.3327 H   0  0  0  0  0  0  0  0  0  0  0  0
    3.0942   -0.4161   -1.8925 H   0  0  0  0  0  0  0  0  0  0  0  0
    4.7493    1.9389   -0.8039 H   0  0  0  0  0  0  0  0  0  0  0  0
    5.1306    1.0118   -2.2599 H   0  0  0  0  0  0  0  0  0  0  0  0
    3.6645    2.0081   -2.1996 H   0  0  0  0  0  0  0  0  0  0  0  0
    5.2166   -1.5575   -0.9981 N   0  0  0  0  0  0  0  0  0  0  0  0
    6.1562   -2.4945   -0.4278 C   0  0  0  0  0  0  0  0  0  0  0  0
    5.1238   -1.5355   -2.0094 H   0  0  0  0  0  0  0  0  0  0  0  0
    7.1422   -2.0157   -0.3357 H   0  0  0  0  0  0  0  0  0  0  0  0
    5.8054   -2.8056    0.5673 H   0  0  0  0  0  0  0  0  0  0  0  0
    6.2364   -3.3763   -1.0805 H   0  0  0  0  0  0  0  0  0  0  0  0
  1  3  1  0  0  0  0
  1  7  1  0  0  0  0
  1  2  2  0  0  0  0
 34 35  1  0  0  0  0
 35 43  1  0  0  0  0
 35 36  2  0  0  0  0
  8  9  1  0  0  0  0
  9 17  1  0  0  0  0
  9 10  2  0  0  0  0
 18 19  1  0  0  0  0
 19 33  1  0  0  0  0
 19 20  2  0  0  0  0
 22 23  1  0  0  0  0
 23 24  2  0  0  0  0
 23 25  1  0  0  0  0
 34 37  1  0  0  0  0
  8 11  1  0  0  0  0
 43 44  1  0  0  0  0
 21 22  1  0  0  0  0
 18 21  1  0  0  0  0
 33 34  1  0  0  0  0
  7  8  1  0  0  0  0
 17 18  1  0  0  0  0
  3  4  1  0  0  0  0
  3  5  1  0  0  0  0
  3  6  1  0  0  0  0
 37 40  1  0  0  0  0
 37 41  1  0  0  0  0
 37 42  1  0  0  0  0
 11 14  1  0  0  0  0
 11 15  1  0  0  0  0
 11 16  1  0  0  0  0
 44 46  1  0  0  0  0
 44 47  1  0  0  0  0
 44 48  1  0  0  0  0
 22 30  1  0  0  0  0
 22 31  1  0  0  0  0
 21 28  1  0  0  0  0
 21 29  1  0  0  0  0
 34 39  1  0  0  0  0
  8 13  1  0  0  0  0
 18 27  1  0  0  0  0
 43 45  1  0  0  0  0
  7 12  1  0  0  0  0
 33 38  1  0  0  0  0
 17 26  1  0  0  0  0
 25 32  1  0  0  0  0
M  END
$$$$

  -OEChem-05262214473D

 48 47  0     1  0  0  0  0  0999 V2000
   -5.5827   -1.3473    1.4591 C   0  0  0  0  0  0  0  0  0  0  0  0
   -5.7053   -2.4696    0.9825 O   0  0  0  0  0  0  0  0  0  0  0  0
   -6.7879   -0.6277    1.9670 C   0  0  0  0  0  0  0  0  0  0  0  0
   -7.2718   -0.0164    1.1885 H   0  0  0  0  0  0  0  0  0  0  0  0
   -7.5699   -1.3171    2.3239 H   0  0  0  0  0  0  0  0  0  0  0  0
   -6.6057    0.0628    2.8060 H   0  0  0  0  0  0  0  0  0  0  0  0
   -4.4001   -0.6377    1.5884 N   0  0  0  0  0  0  0  0  0  0  0  0
   -3.1220   -1.1455    1.1644 C   0  0  2  0  0  0  0  0  0  0  0  0
   -2.2017    0.0428    0.9187 C   0  0  0  0  0  0  0  0  0  0  0  0
   -2.6171    1.1750    0.6807 O   0  0  0  0  0  0  0  0  0  0  0  0
   -3.2533   -1.9992   -0.0873 C   0  0  0  0  0  0  0  0  0  0  0  0
   -4.4370    0.2910    2.0047 H   0  0  0  0  0  0  0  0  0  0  0  0
   -2.7302   -1.7467    1.9921 H   0  0  0  0  0  0  0  0  0  0  0  0
   -3.6446   -1.4140   -0.9275 H   0  0  0  0  0  0  0  0  0  0  0  0
   -2.2844   -2.4081   -0.3922 H   0  0  0  0  0  0  0  0  0  0  0  0
   -3.9388   -2.8365    0.0822 H   0  0  0  0  0  0  0  0  0  0  0  0
   -0.8768   -0.3314    0.9568 N   0  0  0  0  0  0  0  0  0  0  0  0
    0.2067    0.6285    0.7375 C   0  0  2  0  0  0  0  0  0  0  0  0
    1.1934   -0.0449   -0.2114 C   0  0  0  0  0  0  0  0  0  0  0  0
    0.8399   -0.8530   -1.0679 O   0  0  0  0  0  0  0  0  0  0  0  0
    0.8474    0.9874    2.0866 C   0  0  0  0  0  0  0  0  0  0  0  0
   -0.0812    1.7682    3.0164 C   0  0  0  0  0  0  0  0  0  0  0  0
    0.5755    2.0801    4.3380 C   0  0  0  0  0  0  0  0  0  0  0  0
    1.6680    1.6425    4.6761 O   0  0  0  0  0  0  0  0  0  0  0  0
   -0.1835    2.8781    5.1288 O   0  0  0  0  0  0  0  0  0  0  0  0
   -0.6087   -1.2764    1.1771 H   0  0  0  0  0  0  0  0  0  0  0  0
   -0.2156    1.5272    0.2760 H   0  0  0  0  0  0  0  0  0  0  0  0
    1.1653    0.0659    2.5922 H   0  0  0  0  0  0  0  0  0  0  0  0
    1.7539    1.5861    1.9274 H   0  0  0  0  0  0  0  0  0  0  0  0
   -0.3409    2.7295    2.5563 H   0  0  0  0  0  0  0  0  0  0  0  0
   -1.0337    1.2513    3.1727 H   0  0  0  0  0  0  0  0  0  0  0  0
    0.1996    3.0901    6.0064 H   0  0  0  0  0  0  0  0  0  0  0  0
    2.4974    0.3822   -0.0085 N   0  0  0  0  0  0  0  0  0  0  0  0
    3.6190   -0.1037   -0.7796 C   0  0  2  0  0  0  0  0  0  0  0  0
    4.2445   -1.2655   -0.0192 C   0  0  0  0  0  0  0  0  0  0  0  0
    4.1079   -1.4256    1.1920 O   0  0  0  0  0  0  0  0  0  0  0  0
    4.6393    0.9968   -1.0261 C   0  0  0  0  0  0  0  0  0  0  0  0
    2.6726    1.0702    0.7176 H   0  0  0  0  0  0  0  0  0  0  0  0
    3.2154   -0.4648   -1.7319 H   0  0  0  0  0  0  0  0  0  0  0  0
    5.0547    1.3711   -0.0833 H   0  0  0  0  0  0  0  0  0  0  0  0
    5.4745    0.6345   -1.6345 H   0  0  0  0  0  0  0  0  0  0  0  0
    4.1804    1.8442   -1.5468 H   0  0  0  0  0  0  0  0  0  0  0  0
    5.0087   -2.0785   -0.8446 N   0  0  0  0  0  0  0  0  0  0  0  0
    5.7150   -3.2403   -0.3573 C   0  0  0  0  0  0  0  0  0  0  0  0
    5.0506   -1.8814   -1.8401 H   0  0  0  0  0  0  0  0  0  0  0  0
    6.7421   -2.9575   -0.0834 H   0  0  0  0  0  0  0  0  0  0  0  0
    5.1968   -3.6402    0.5267 H   0  0  0  0  0  0  0  0  0  0  0  0
    5.7438   -4.0084   -1.1442 H   0  0  0  0  0  0  0  0  0  0  0  0
  1  3  1  0  0  0  0
  1  7  1  0  0  0  0
  1  2  2  0  0  0  0
 34 35  1  0  0  0  0
 35 43  1  0  0  0  0
 35 36  2  0  0  0  0
  8  9  1  0  0  0  0
  9 17  1  0  0  0  0
  9 10  2  0  0  0  0
 18 19  1  0  0  0  0
 19 33  1  0  0  0  0
 19 20  2  0  0  0  0
 22 23  1  0  0  0  0
 23 24  2  0  0  0  0
 23 25  1  0  0  0  0
 34 37  1  0  0  0  0
  8 11  1  0  0  0  0
 43 44  1  0  0  0  0
 21 22  1  0  0  0  0
 18 21  1  0  0  0  0
 33 34  1  0  0  0  0
  7  8  1  0  0  0  0
 17 18  1  0  0  0  0
  3  4  1  0  0  0  0
  3  5  1  0  0  0  0
  3  6  1  0  0  0  0
 37 40  1  0  0  0  0
 37 41  1  0  0  0  0
 37 42  1  0  0  0  0
 11 14  1  0  0  0  0
 11 15  1  0  0  0  0
 11 16  1  0  0  0  0
 44 46  1  0  0  0  0
 44 47  1  0  0  0  0
 44 48  1  0  0  0  0
 22 30  1  0  0  0  0
 22 31  1  0  0  0  0
 21 28  1  0  0  0  0
 21 29  1  0  0  0  0
 34 39  1  0  0  0  0
  8 13  1  0  0  0  0
 18 27  1  0  0  0  0
 43 45  1  0  0  0  0
  7 12  1  0  0  0  0
 33 38  1  0  0  0  0
 17 26  1  0  0  0  0
 25 32  1  0  0  0  0
M  END
$$$$

  -OEChem-05262214473D

 48 47  0     1  0  0  0  0  0999 V2000
   -5.5827   -1.3473    1.4591 C   0  0  0  0  0  0  0  0  0  0  0  0
   -5.7053   -2.4696    0.9825 O   0  0  0  0  0  0  0  0  0  0  0  0
   -6.7879   -0.6277    1.9670 C   0  0  0  0  0  0  0  0  0  0  0  0
   -7.2718   -0.0164    1.1885 H   0  0  0  0  0  0  0  0  0  0  0  0
   -7.5699   -1.3171    2.3239 H   0  0  0  0  0  0  0  0  0  0  0  0
   -6.6057    0.0628    2.8060 H   0  0  0  0  0  0  0  0  0  0  0  0
   -4.4001   -0.6377    1.5884 N   0  0  0  0  0  0  0  0  0  0  0  0
   -3.1220   -1.1455    1.1644 C   0  0  2  0  0  0  0  0  0  0  0  0
   -2.2017    0.0428    0.9187 C   0  0  0  0  0  0  0  0  0  0  0  0
   -2.6171    1.1750    0.6807 O   0  0  0  0  0  0  0  0  0  0  0  0
   -3.2533   -1.9992   -0.0873 C   0  0  0  0  0  0  0  0  0  0  0  0
   -4.4370    0.2910    2.0047 H   0  0  0  0  0  0  0  0  0  0  0  0
   -2.7302   -1.7467    1.9921 H   0  0  0  0  0  0  0  0  0  0  0  0
   -3.6446   -1.4140   -0.9275 H   0  0  0  0  0  0  0  0  0  0  0  0
   -2.2844   -2.4081   -0.3922 H   0  0  0  0  0  0  0  0  0  0  0  0
   -3.9388   -2.8365    0.0822 H   0  0  0  0  0  0  0  0  0  0  0  0
   -0.8768   -0.3314    0.9568 N   0  0  0  0  0  0  0  0  0  0  0  0
    0.2067    0.6285    0.7375 C   0  0  2  0  0  0  0  0  0  0  0  0
    1.1934   -0.0449   -0.2114 C   0  0  0  0  0  0  0  0  0  0  0  0
    0.8343   -0.6351   -1.2284 O   0  0  0  0  0  0  0  0  0  0  0  0
    0.8474    0.9874    2.0866 C   0  0  0  0  0  0  0  0  0  0  0  0
   -0.0812    1.7682    3.0164 C   0  0  0  0  0  0  0  0  0  0  0  0
    0.5755    2.0801    4.3380 C   0  0  0  0  0  0  0  0  0  0  0  0
    1.6680    1.6425    4.6761 O   0  0  0  0  0  0  0  0  0  0  0  0
   -0.1835    2.8781    5.1288 O   0  0  0  0  0  0  0  0  0  0  0  0
   -0.6087   -1.2764    1.1771 H   0  0  0  0  0  0  0  0  0  0  0  0
   -0.2156    1.5272    0.2760 H   0  0  0  0  0  0  0  0  0  0  0  0
    1.1653    0.0659    2.5922 H   0  0  0  0  0  0  0  0  0  0  0  0
    1.7539    1.5861    1.9274 H   0  0  0  0  0  0  0  0  0  0  0  0
   -0.3409    2.7295    2.5563 H   0  0  0  0  0  0  0  0  0  0  0  0
   -1.0337    1.2513    3.1727 H   0  0  0  0  0  0  0  0  0  0  0  0
    0.1996    3.0901    6.0064 H   0  0  0  0  0  0  0  0  0  0  0  0
    2.5102    0.1158    0.1938 N   0  0  0  0  0  0  0  0  0  0  0  0
    3.6347   -0.4263   -0.5343 C   0  0  2  0  0  0  0  0  0  0  0  0
    3.9748   -1.7833    0.0678 C   0  0  0  0  0  0  0  0  0  0  0  0
    3.6617   -2.1071    1.2116 O   0  0  0  0  0  0  0  0  0  0  0  0
    4.8328    0.5087   -0.4785 C   0  0  0  0  0  0  0  0  0  0  0  0
    2.6930    0.6403    1.0440 H   0  0  0  0  0  0  0  0  0  0  0  0
    3.3064   -0.5581   -1.5710 H   0  0  0  0  0  0  0  0  0  0  0  0
    5.1760    0.6529    0.5525 H   0  0  0  0  0  0  0  0  0  0  0  0
    5.6745    0.1100   -1.0543 H   0  0  0  0  0  0  0  0  0  0  0  0
    4.5778    1.4935   -0.8847 H   0  0  0  0  0  0  0  0  0  0  0  0
    4.7065   -2.5739   -0.8072 N   0  0  0  0  0  0  0  0  0  0  0  0
    5.1607   -3.9014   -0.4644 C   0  0  0  0  0  0  0  0  0  0  0  0
    4.9047   -2.2320   -1.7429 H   0  0  0  0  0  0  0  0  0  0  0  0
    6.1752   -3.8450   -0.0430 H   0  0  0  0  0  0  0  0  0  0  0  0
    4.4792   -4.3416    0.2783 H   0  0  0  0  0  0  0  0  0  0  0  0
    5.1735   -4.5290   -1.3677 H   0  0  0  0  0  0  0  0  0  0  0  0
  1  3  1  0  0  0  0
  1  7  1  0  0  0  0
  1  2  2  0  0  0  0
 34 35  1  0  0  0  0
 35 43  1  0  0  0  0
 35 36  2  0  0  0  0
  8  9  1  0  0  0  0
  9 17  1  0  0  0  0
  9 10  2  0  0  0  0
 18 19  1  0  0  0  0
 19 33  1  0  0  0  0
 19 20  2  0  0  0  0
 22 23  1  0  0  0  0
 23 24  2  0  0  0  0
 23 25  1  0  0  0  0
 34 37  1  0  0  0  0
  8 11  1  0  0  0  0
 43 44  1  0  0  0  0
 21 22  1  0  0  0  0
 18 21  1  0  0  0  0
 33 34  1  0  0  0  0
  7  8  1  0  0  0  0
 17 18  1  0  0  0  0
  3  4  1  0  0  0  0
  3  5  1  0  0  0  0
  3  6  1  0  0  0  0
 37 40  1  0  0  0  0
 37 41  1  0  0  0  0
 37 42  1  0  0  0  0
 11 14  1  0  0  0  0
 11 15  1  0  0  0  0
 11 16  1  0  0  0  0
 44 46  1  0  0  0  0
 44 47  1  0  0  0  0
 44 48  1  0  0  0  0
 22 30  1  0  0  0  0
 22 31  1  0  0  0  0
 21 28  1  0  0  0  0
 21 29  1  0  0  0  0
 34 39  1  0  0  0  0
  8 13  1  0  0  0  0
 18 27  1  0  0  0  0
 43 45  1  0  0  0  0
  7 12  1  0  0  0  0
 33 38  1  0  0  0  0
 17 26  1  0  0  0  0
 25 32  1  0  0  0  0
M  END
$$$$

  -OEChem-05262214473D

 48 47  0     1  0  0  0  0  0999 V2000
   -5.5827   -1.3473    1.4591 C   0  0  0  0  0  0  0  0  0  0  0  0
   -5.7053   -2.4696    0.9825 O   0  0  0  0  0  0  0  0  0  0  0  0
   -6.7879   -0.6277    1.9670 C   0  0  0  0  0  0  0  0  0  0  0  0
   -7.2718   -0.0164    1.1885 H   0  0  0  0  0  0  0  0  0  0  0  0
   -7.5699   -1.3171    2.3239 H   0  0  0  0  0  0  0  0  0  0  0  0
   -6.6057    0.0628    2.8060 H   0  0  0  0  0  0  0  0  0  0  0  0
   -4.4001   -0.6377    1.5884 N   0  0  0  0  0  0  0  0  0  0  0  0
   -3.1220   -1.1455    1.1644 C   0  0  2  0  0  0  0  0  0  0  0  0
   -2.2017    0.0428    0.9187 C   0  0  0  0  0  0  0  0  0  0  0  0
   -2.6171    1.1750    0.6807 O   0  0  0  0  0  0  0  0  0  0  0  0
   -3.2533   -1.9992   -0.0873 C   0  0  0  0  0  0  0  0  0  0  0  0
   -4.4370    0.2910    2.0047 H   0  0  0  0  0  0  0  0  0  0  0  0
   -2.7302   -1.7467    1.9921 H   0  0  0  0  0  0  0  0  0  0  0  0
   -3.6446   -1.4140   -0.9275 H   0  0  0  0  0  0  0  0  0  0  0  0
   -2.2844   -2.4081   -0.3922 H   0  0  0  0  0  0  0  0  0  0  0  0
   -3.9388   -2.8365    0.0822 H   0  0  0  0  0  0  0  0  0  0  0  0
   -0.8768   -0.3314    0.9568 N   0  0  0  0  0  0  0  0  0  0  0  0
    0.2067    0.6285    0.7375 C   0  0  2  0  0  0  0  0  0  0  0  0
    1.1934   -0.0449   -0.2114 C   0  0  0  0  0  0  0  0  0  0  0  0
    0.8823   -0.3969   -1.3475 O   0  0  0  0  0  0  0  0  0  0  0  0
    0.8474    0.9874    2.0866 C   0  0  0  0  0  0  0  0  0  0  0  0
   -0.0812    1.7682    3.0164 C   0  0  0  0  0  0  0  0  0  0  0  0
    0.5755    2.0801    4.3380 C   0  0  0  0  0  0  0  0  0  0  0  0
    1.6680    1.6425    4.6761 O   0  0  0  0  0  0  0  0  0  0  0  0
   -0.1835    2.8781    5.1288 O   0  0  0  0  0  0  0  0  0  0  0  0
   -0.6087   -1.2764    1.1771 H   0  0  0  0  0  0  0  0  0  0  0  0
   -0.2156    1.5272    0.2760 H   0  0  0  0  0  0  0  0  0  0  0  0
    1.1653    0.0659    2.5922 H   0  0  0  0  0  0  0  0  0  0  0  0
    1.7539    1.5861    1.9274 H   0  0  0  0  0  0  0  0  0  0  0  0
   -0.3409    2.7295    2.5563 H   0  0  0  0  0  0  0  0  0  0  0  0
   -1.0337    1.2513    3.1727 H   0  0  0  0  0  0  0  0  0  0  0  0
    0.1996    3.0901    6.0064 H   0  0  0  0  0  0  0  0  0  0  0  0
    2.4565   -0.1774    0.3461 N   0  0  0  0  0  0  0  0  0  0  0  0
    3.5700   -0.7816   -0.3495 C   0  0  2  0  0  0  0  0  0  0  0  0
    3.6210   -2.2545    0.0344 C   0  0  0  0  0  0  0  0  0  0  0  0
    3.1188   -2.6968    1.0656 O   0  0  0  0  0  0  0  0  0  0  0  0
    4.8785   -0.0855   -0.0091 C   0  0  0  0  0  0  0  0  0  0  0  0
    2.6063    0.1671    1.2897 H   0  0  0  0  0  0  0  0  0  0  0  0
    3.3609   -0.6899   -1.4209 H   0  0  0  0  0  0  0  0  0  0  0  0
    5.1048   -0.1668    1.0603 H   0  0  0  0  0  0  0  0  0  0  0  0
    5.7169   -0.5260   -0.5588 H   0  0  0  0  0  0  0  0  0  0  0  0
    4.8295    0.9800   -0.2584 H   0  0  0  0  0  0  0  0  0  0  0  0
    4.3306   -3.0101   -0.8885 N   0  0  0  0  0  0  0  0  0  0  0  0
    4.5312   -4.4329   -0.7419 C   0  0  0  0  0  0  0  0  0  0  0  0
    4.6963   -2.5635   -1.7243 H   0  0  0  0  0  0  0  0  0  0  0  0
    5.4801   -4.6178   -0.2173 H   0  0  0  0  0  0  0  0  0  0  0  0
    3.7015   -4.8620   -0.1610 H   0  0  0  0  0  0  0  0  0  0  0  0
    4.5643   -4.9027   -1.7360 H   0  0  0  0  0  0  0  0  0  0  0  0
  1  3  1  0  0  0  0
  1  7  1  0  0  0  0
  1  2  2  0  0  0  0
 34 35  1  0  0  0  0
 35 43  1  0  0  0  0
 35 36  2  0  0  0  0
  8  9  1  0  0  0  0
  9 17  1  0  0  0  0
  9 10  2  0  0  0  0
 18 19  1  0  0  0  0
 19 33  1  0  0  0  0
 19 20  2  0  0  0  0
 22 23  1  0  0  0  0
 23 24  2  0  0  0  0
 23 25  1  0  0  0  0
 34 37  1  0  0  0  0
  8 11  1  0  0  0  0
 43 44  1  0  0  0  0
 21 22  1  0  0  0  0
 18 21  1  0  0  0  0
 33 34  1  0  0  0  0
  7  8  1  0  0  0  0
 17 18  1  0  0  0  0
  3  4  1  0  0  0  0
  3  5  1  0  0  0  0
  3  6  1  0  0  0  0
 37 40  1  0  0  0  0
 37 41  1  0  0  0  0
 37 42  1  0  0  0  0
 11 14  1  0  0  0  0
 11 15  1  0  0  0  0
 11 16  1  0  0  0  0
 44 46  1  0  0  0  0
 44 47  1  0  0  0  0
 44 48  1  0  0  0  0
 22 30  1  0  0  0  0
 22 31  1  0  0  0  0
 21 28  1  0  0  0  0
 21 29  1  0  0  0  0
 34 39  1  0  0  0  0
  8 13  1  0  0  0  0
 18 27  1  0  0  0  0
 43 45  1  0  0  0  0
  7 12  1  0  0  0  0
 33 38  1  0  0  0  0
 17 26  1  0  0  0  0
 25 32  1  0  0  0  0
M  END
$$$$

  -OEChem-05262214473D

 48 47  0     1  0  0  0  0  0999 V2000
   -5.5827   -1.3473    1.4591 C   0  0  0  0  0  0  0  0  0  0  0  0
   -5.7053   -2.4696    0.9825 O   0  0  0  0  0  0  0  0  0  0  0  0
   -6.7879   -0.6277    1.9670 C   0  0  0  0  0  0  0  0  0  0  0  0
   -7.2718   -0.0164    1.1885 H   0  0  0  0  0  0  0  0  0  0  0  0
   -7.5699   -1.3171    2.3239 H   0  0  0  0  0  0  0  0  0  0  0  0
   -6.6057    0.0628    2.8060 H   0  0  0  0  0  0  0  0  0  0  0  0
   -4.4001   -0.6377    1.5884 N   0  0  0  0  0  0  0  0  0  0  0  0
   -3.1220   -1.1455    1.1644 C   0  0  2  0  0  0  0  0  0  0  0  0
   -2.2017    0.0428    0.9187 C   0  0  0  0  0  0  0  0  0  0  0  0
   -2.6171    1.1750    0.6807 O   0  0  0  0  0  0  0  0  0  0  0  0
   -3.2533   -1.9992   -0.0873 C   0  0  0  0  0  0  0  0  0  0  0  0
   -4.4370    0.2910    2.0047 H   0  0  0  0  0  0  0  0  0  0  0  0
   -2.7302   -1.7467    1.9921 H   0  0  0  0  0  0  0  0  0  0  0  0
   -3.6446   -1.4140   -0.9275 H   0  0  0  0  0  0  0  0  0  0  0  0
   -2.2844   -2.4081   -0.3922 H   0  0  0  0  0  0  0  0  0  0  0  0
   -3.9388   -2.8365    0.0822 H   0  0  0  0  0  0  0  0  0  0  0  0
   -0.8768   -0.3314    0.9568 N   0  0  0  0  0  0  0  0  0  0  0  0
    0.2067    0.6285    0.7375 C   0  0  2  0  0  0  0  0  0  0  0  0
    1.1934   -0.0449   -0.2114 C   0  0  0  0  0  0  0  0  0  0  0  0
    0.9806   -0.1545   -1.4173 O   0  0  0  0  0  0  0  0  0  0  0  0
    0.8474    0.9874    2.0866 C   0  0  0  0  0  0  0  0  0  0  0  0
   -0.0812    1.7682    3.0164 C   0  0  0  0  0  0  0  0  0  0  0  0
    0.5755    2.0801    4.3380 C   0  0  0  0  0  0  0  0  0  0  0  0
    1.6680    1.6425    4.6761 O   0  0  0  0  0  0  0  0  0  0  0  0
   -0.1835    2.8781    5.1288 O   0  0  0  0  0  0  0  0  0  0  0  0
   -0.6087   -1.2764    1.1771 H   0  0  0  0  0  0  0  0  0  0  0  0
   -0.2156    1.5272    0.2760 H   0  0  0  0  0  0  0  0  0  0  0  0
    1.1653    0.0659    2.5922 H   0  0  0  0  0  0  0  0  0  0  0  0
    1.7539    1.5861    1.9274 H   0  0  0  0  0  0  0  0  0  0  0  0
   -0.3409    2.7295    2.5563 H   0  0  0  0  0  0  0  0  0  0  0  0
   -1.0337    1.2513    3.1727 H   0  0  0  0  0  0  0  0  0  0  0  0
    0.1996    3.0901    6.0064 H   0  0  0  0  0  0  0  0  0  0  0  0
    2.3401   -0.4775    0.4381 N   0  0  0  0  0  0  0  0  0  0  0  0
    3.4291   -1.1453   -0.2379 C   0  0  2  0  0  0  0  0  0  0  0  0
    3.2072   -2.6472   -0.1172 C   0  0  0  0  0  0  0  0  0  0  0  0
    2.5162   -3.1545    0.7637 O   0  0  0  0  0  0  0  0  0  0  0  0
    4.7735   -0.7454    0.3499 C   0  0  0  0  0  0  0  0  0  0  0  0
    2.4183   -0.3172    1.4378 H   0  0  0  0  0  0  0  0  0  0  0  0
    3.3751   -0.8510   -1.2917 H   0  0  0  0  0  0  0  0  0  0  0  0
    4.8461   -1.0322    1.4054 H   0  0  0  0  0  0  0  0  0  0  0  0
    5.5989   -1.2301   -0.1818 H   0  0  0  0  0  0  0  0  0  0  0  0
    4.9185    0.3386    0.2893 H   0  0  0  0  0  0  0  0  0  0  0  0
    3.9066   -3.3573   -1.0830 N   0  0  0  0  0  0  0  0  0  0  0  0
    3.8692   -4.7984   -1.1708 C   0  0  0  0  0  0  0  0  0  0  0  0
    4.4395   -2.8533   -1.7857 H   0  0  0  0  0  0  0  0  0  0  0  0
    4.7043   -5.2232   -0.5944 H   0  0  0  0  0  0  0  0  0  0  0  0
    2.9167   -5.1660   -0.7613 H   0  0  0  0  0  0  0  0  0  0  0  0
    3.9578   -5.1039   -2.2238 H   0  0  0  0  0  0  0  0  0  0  0  0
  1  3  1  0  0  0  0
  1  7  1  0  0  0  0
  1  2  2  0  0  0  0
 34 35  1  0  0  0  0
 35 43  1  0  0  0  0
 35 36  2  0  0  0  0
  8  9  1  0  0  0  0
  9 17  1  0  0  0  0
  9 10  2  0  0  0  0
 18 19  1  0  0  0  0
 19 33  1  0  0  0  0
 19 20  2  0  0  0  0
 22 23  1  0  0  0  0
 23 24  2  0  0  0  0
 23 25  1  0  0  0  0
 34 37  1  0  0  0  0
  8 11  1  0  0  0  0
 43 44  1  0  0  0  0
 21 22  1  0  0  0  0
 18 21  1  0  0  0  0
 33 34  1  0  0  0  0
  7  8  1  0  0  0  0
 17 18  1  0  0  0  0
  3  4  1  0  0  0  0
  3  5  1  0  0  0  0
  3  6  1  0  0  0  0
 37 40  1  0  0  0  0
 37 41  1  0  0  0  0
 37 42  1  0  0  0  0
 11 14  1  0  0  0  0
 11 15  1  0  0  0  0
 11 16  1  0  0  0  0
 44 46  1  0  0  0  0
 44 47  1  0  0  0  0
 44 48  1  0  0  0  0
 22 30  1  0  0  0  0
 22 31  1  0  0  0  0
 21 28  1  0  0  0  0
 21 29  1  0  0  0  0
 34 39  1  0  0  0  0
  8 13  1  0  0  0  0
 18 27  1  0  0  0  0
 43 45  1  0  0  0  0
  7 12  1  0  0  0  0
 33 38  1  0  0  0  0
 17 26  1  0  0  0  0
 25 32  1  0  0  0  0
M  END
$$$$

  -OEChem-05262214473D

 48 47  0     1  0  0  0  0  0999 V2000
   -5.5827   -1.3473    1.4591 C   0  0  0  0  0  0  0  0  0  0  0  0
   -5.7053   -2.4696    0.9825 O   0  0  0  0  0  0  0  0  0  0  0  0
   -6.7879   -0.6277    1.9670 C   0  0  0  0  0  0  0  0  0  0  0  0
   -7.2718   -0.0164    1.1885 H   0  0  0  0  0  0  0  0  0  0  0  0
   -7.5699   -1.3171    2.3239 H   0  0  0  0  0  0  0  0  0  0  0  0
   -6.6057    0.0628    2.8060 H   0  0  0  0  0  0  0  0  0  0  0  0
   -4.4001   -0.6377    1.5884 N   0  0  0  0  0  0  0  0  0  0  0  0
   -3.1220   -1.1455    1.1644 C   0  0  2  0  0  0  0  0  0  0  0  0
   -2.2017    0.0428    0.9187 C   0  0  0  0  0  0  0  0  0  0  0  0
   -2.6171    1.1750    0.6807 O   0  0  0  0  0  0  0  0  0  0  0  0
   -3.2533   -1.9992   -0.0873 C   0  0  0  0  0  0  0  0  0  0  0  0
   -4.4370    0.2910    2.0047 H   0  0  0  0  0  0  0  0  0  0  0  0
   -2.7302   -1.7467    1.9921 H   0  0  0  0  0  0  0  0  0  0  0  0
   -3.6446   -1.4140   -0.9275 H   0  0  0  0  0  0  0  0  0  0  0  0
   -2.2844   -2.4081   -0.3922 H   0  0  0  0  0  0  0  0  0  0  0  0
   -3.9388   -2.8365    0.0822 H   0  0  0  0  0  0  0  0  0  0  0  0
   -0.8768   -0.3314    0.9568 N   0  0  0  0  0  0  0  0  0  0  0  0
    0.2067    0.6285    0.7375 C   0  0  2  0  0  0  0  0  0  0  0  0
    1.1934   -0.0449   -0.2114 C   0  0  0  0  0  0  0  0  0  0  0  0
    1.1225    0.0754   -1.4329 O   0  0  0  0  0  0  0  0  0  0  0  0
    0.8474    0.9874    2.0866 C   0  0  0  0  0  0  0  0  0  0  0  0
   -0.0812    1.7682    3.0164 C   0  0  0  0  0  0  0  0  0  0  0  0
    0.5755    2.0801    4.3380 C   0  0  0  0  0  0  0  0  0  0  0  0
    1.6680    1.6425    4.6761 O   0  0  0  0  0  0  0  0  0  0  0  0
   -0.1835    2.8781    5.1288 O   0  0  0  0  0  0  0  0  0  0  0  0
   -0.6087   -1.2764    1.1771 H   0  0  0  0  0  0  0  0  0  0  0  0
   -0.2156    1.5272    0.2760 H   0  0  0  0  0  0  0  0  0  0  0  0
    1.1653    0.0659    2.5922 H   0  0  0  0  0  0  0  0  0  0  0  0
    1.7539    1.5861    1.9274 H   0  0  0  0  0  0  0  0  0  0  0  0
   -0.3409    2.7295    2.5563 H   0  0  0  0  0  0  0  0  0  0  0  0
   -1.0337    1.2513    3.1727 H   0  0  0  0  0  0  0  0  0  0  0  0
    0.1996    3.0901    6.0064 H   0  0  0  0  0  0  0  0  0  0  0  0
    2.1688   -0.7641    0.4633 N   0  0  0  0  0  0  0  0  0  0  0  0
    3.2217   -1.4925   -0.2070 C   0  0  2  0  0  0  0  0  0  0  0  0
    2.7617   -2.9344   -0.3767 C   0  0  0  0  0  0  0  0  0  0  0  0
    1.8948   -3.4491    0.3267 O   0  0  0  0  0  0  0  0  0  0  0  0
    4.5247   -1.4261    0.5743 C   0  0  0  0  0  0  0  0  0  0  0  0
    2.1418   -0.7794    1.4784 H   0  0  0  0  0  0  0  0  0  0  0  0
    3.3482   -1.0306   -1.1923 H   0  0  0  0  0  0  0  0  0  0  0  0
    4.4175   -1.8841    1.5644 H   0  0  0  0  0  0  0  0  0  0  0  0
    5.3286   -1.9543    0.0511 H   0  0  0  0  0  0  0  0  0  0  0  0
    4.8386   -0.3870    0.7211 H   0  0  0  0  0  0  0  0  0  0  0  0
    3.4633   -3.5918   -1.3775 N   0  0  0  0  0  0  0  0  0  0  0  0
    3.2200   -4.9731   -1.7219 C   0  0  0  0  0  0  0  0  0  0  0  0
    4.1519   -3.0816   -1.9228 H   0  0  0  0  0  0  0  0  0  0  0  0
    3.9005   -5.6199   -1.1487 H   0  0  0  0  0  0  0  0  0  0  0  0
    2.1784   -5.2328   -1.4817 H   0  0  0  0  0  0  0  0  0  0  0  0
    3.3954   -5.1190   -2.7980 H   0  0  0  0  0  0  0  0  0  0  0  0
  1  3  1  0  0  0  0
  1  7  1  0  0  0  0
  1  2  2  0  0  0  0
 34 35  1  0  0  0  0
 35 43  1  0  0  0  0
 35 36  2  0  0  0  0
  8  9  1  0  0  0  0
  9 17  1  0  0  0  0
  9 10  2  0  0  0  0
 18 19  1  0  0  0  0
 19 33  1  0  0  0  0
 19 20  2  0  0  0  0
 22 23  1  0  0  0  0
 23 24  2  0  0  0  0
 23 25  1  0  0  0  0
 34 37  1  0  0  0  0
  8 11  1  0  0  0  0
 43 44  1  0  0  0  0
 21 22  1  0  0  0  0
 18 21  1  0  0  0  0
 33 34  1  0  0  0  0
  7  8  1  0  0  0  0
 17 18  1  0  0  0  0
  3  4  1  0  0  0  0
  3  5  1  0  0  0  0
  3  6  1  0  0  0  0
 37 40  1  0  0  0  0
 37 41  1  0  0  0  0
 37 42  1  0  0  0  0
 11 14  1  0  0  0  0
 11 15  1  0  0  0  0
 11 16  1  0  0  0  0
 44 46  1  0  0  0  0
 44 47  1  0  0  0  0
 44 48  1  0  0  0  0
 22 30  1  0  0  0  0
 22 31  1  0  0  0  0
 21 28  1  0  0  0  0
 21 29  1  0  0  0  0
 34 39  1  0  0  0  0
  8 13  1  0  0  0  0
 18 27  1  0  0  0  0
 43 45  1  0  0  0  0
  7 12  1  0  0  0  0
 33 38  1  0  0  0  0
 17 26  1  0  0  0  0
 25 32  1  0  0  0  0
M  END
$$$$

  -OEChem-05262214473D

 48 47  0     1  0  0  0  0  0999 V2000
   -5.5827   -1.3473    1.4591 C   0  0  0  0  0  0  0  0  0  0  0  0
   -5.7053   -2.4696    0.9825 O   0  0  0  0  0  0  0  0  0  0  0  0
   -6.7879   -0.6277    1.9670 C   0  0  0  0  0  0  0  0  0  0  0  0
   -7.2718   -0.0164    1.1885 H   0  0  0  0  0  0  0  0  0  0  0  0
   -7.5699   -1.3171    2.3239 H   0  0  0  0  0  0  0  0  0  0  0  0
   -6.6057    0.0628    2.8060 H   0  0  0  0  0  0  0  0  0  0  0  0
   -4.4001   -0.6377    1.5884 N   0  0  0  0  0  0  0  0  0  0  0  0
   -3.1220   -1.1455    1.1644 C   0  0  2  0  0  0  0  0  0  0  0  0
   -2.2017    0.0428    0.9187 C   0  0  0  0  0  0  0  0  0  0  0  0
   -2.6171    1.1750    0.6807 O   0  0  0  0  0  0  0  0  0  0  0  0
   -3.2533   -1.9992   -0.0873 C   0  0  0  0  0  0  0  0  0  0  0  0
   -4.4370    0.2910    2.0047 H   0  0  0  0  0  0  0  0  0  0  0  0
   -2.7302   -1.7467    1.9921 H   0  0  0  0  0  0  0  0  0  0  0  0
   -3.6446   -1.4140   -0.9275 H   0  0  0  0  0  0  0  0  0  0  0  0
   -2.2844   -2.4081   -0.3922 H   0  0  0  0  0  0  0  0  0  0  0  0
   -3.9388   -2.8365    0.0822 H   0  0  0  0  0  0  0  0  0  0  0  0
   -0.8768   -0.3314    0.9568 N   0  0  0  0  0  0  0  0  0  0  0  0
    0.2067    0.6285    0.7375 C   0  0  2  0  0  0  0  0  0  0  0  0
    1.1934   -0.0449   -0.2114 C   0  0  0  0  0  0  0  0  0  0  0  0
    1.2984    0.2772   -1.3932 O   0  0  0  0  0  0  0  0  0  0  0  0
    0.8474    0.9874    2.0866 C   0  0  0  0  0  0  0  0  0  0  0  0
   -0.0812    1.7682    3.0164 C   0  0  0  0  0  0  0  0  0  0  0  0
    0.5755    2.0801    4.3380 C   0  0  0  0  0  0  0  0  0  0  0  0
    1.6680    1.6425    4.6761 O   0  0  0  0  0  0  0  0  0  0  0  0
   -0.1835    2.8781    5.1288 O   0  0  0  0  0  0  0  0  0  0  0  0
   -0.6087   -1.2764    1.1771 H   0  0  0  0  0  0  0  0  0  0  0  0
   -0.2156    1.5272    0.2760 H   0  0  0  0  0  0  0  0  0  0  0  0
    1.1653    0.0659    2.5922 H   0  0  0  0  0  0  0  0  0  0  0  0
    1.7539    1.5861    1.9274 H   0  0  0  0  0  0  0  0  0  0  0  0
   -0.3409    2.7295    2.5563 H   0  0  0  0  0  0  0  0  0  0  0  0
   -1.0337    1.2513    3.1727 H   0  0  0  0  0  0  0  0  0  0  0  0
    0.1996    3.0901    6.0064 H   0  0  0  0  0  0  0  0  0  0  0  0
    1.9544   -1.0175    0.4202 N   0  0  0  0  0  0  0  0  0  0  0  0
    2.9620   -1.7998   -0.2591 C   0  0  2  0  0  0  0  0  0  0  0  0
    2.3147   -3.0967   -0.7263 C   0  0  0  0  0  0  0  0  0  0  0  0
    1.2972   -3.5605   -0.2157 O   0  0  0  0  0  0  0  0  0  0  0  0
    4.1492   -2.0810    0.6487 C   0  0  0  0  0  0  0  0  0  0  0  0
    1.7957   -1.1882    1.4086 H   0  0  0  0  0  0  0  0  0  0  0  0
    3.2819   -1.2164   -1.1294 H   0  0  0  0  0  0  0  0  0  0  0  0
    3.8482   -2.6647    1.5263 H   0  0  0  0  0  0  0  0  0  0  0  0
    4.9242   -2.6493    0.1238 H   0  0  0  0  0  0  0  0  0  0  0  0
    4.5953   -1.1472    1.0077 H   0  0  0  0  0  0  0  0  0  0  0  0
    3.0311   -3.6977   -1.7518 N   0  0  0  0  0  0  0  0  0  0  0  0
    2.6277   -4.9452   -2.3577 C   0  0  0  0  0  0  0  0  0  0  0  0
    3.8529   -3.2328   -2.1264 H   0  0  0  0  0  0  0  0  0  0  0  0
    3.1235   -5.7809   -1.8423 H   0  0  0  0  0  0  0  0  0  0  0  0
    1.5367   -5.0578   -2.2731 H   0  0  0  0  0  0  0  0  0  0  0  0
    2.9152   -4.9469   -3.4195 H   0  0  0  0  0  0  0  0  0  0  0  0
  1  3  1  0  0  0  0
  1  7  1  0  0  0  0
  1  2  2  0  0  0  0
 34 35  1  0  0  0  0
 35 43  1  0  0  0  0
 35 36  2  0  0  0  0
  8  9  1  0  0  0  0
  9 17  1  0  0  0  0
  9 10  2  0  0  0  0
 18 19  1  0  0  0  0
 19 33  1  0  0  0  0
 19 20  2  0  0  0  0
 22 23  1  0  0  0  0
 23 24  2  0  0  0  0
 23 25  1  0  0  0  0
 34 37  1  0  0  0  0
  8 11  1  0  0  0  0
 43 44  1  0  0  0  0
 21 22  1  0  0  0  0
 18 21  1  0  0  0  0
 33 34  1  0  0  0  0
  7  8  1  0  0  0  0
 17 18  1  0  0  0  0
  3  4  1  0  0  0  0
  3  5  1  0  0  0  0
  3  6  1  0  0  0  0
 37 40  1  0  0  0  0
 37 41  1  0  0  0  0
 37 42  1  0  0  0  0
 11 14  1  0  0  0  0
 11 15  1  0  0  0  0
 11 16  1  0  0  0  0
 44 46  1  0  0  0  0
 44 47  1  0  0  0  0
 44 48  1  0  0  0  0
 22 30  1  0  0  0  0
 22 31  1  0  0  0  0
 21 28  1  0  0  0  0
 21 29  1  0  0  0  0
 34 39  1  0  0  0  0
  8 13  1  0  0  0  0
 18 27  1  0  0  0  0
 43 45  1  0  0  0  0
  7 12  1  0  0  0  0
 33 38  1  0  0  0  0
 17 26  1  0  0  0  0
 25 32  1  0  0  0  0
M  END
$$$$

  -OEChem-05262214473D

 48 47  0     1  0  0  0  0  0999 V2000
   -5.5827   -1.3473    1.4591 C   0  0  0  0  0  0  0  0  0  0  0  0
   -5.7053   -2.4696    0.9825 O   0  0  0  0  0  0  0  0  0  0  0  0
   -6.7879   -0.6277    1.9670 C   0  0  0  0  0  0  0  0  0  0  0  0
   -7.2718   -0.0164    1.1885 H   0  0  0  0  0  0  0  0  0  0  0  0
   -7.5699   -1.3171    2.3239 H   0  0  0  0  0  0  0  0  0  0  0  0
   -6.6057    0.0628    2.8060 H   0  0  0  0  0  0  0  0  0  0  0  0
   -4.4001   -0.6377    1.5884 N   0  0  0  0  0  0  0  0  0  0  0  0
   -3.1220   -1.1455    1.1644 C   0  0  2  0  0  0  0  0  0  0  0  0
   -2.2017    0.0428    0.9187 C   0  0  0  0  0  0  0  0  0  0  0  0
   -2.6171    1.1750    0.6807 O   0  0  0  0  0  0  0  0  0  0  0  0
   -3.2533   -1.9992   -0.0873 C   0  0  0  0  0  0  0  0  0  0  0  0
   -4.4370    0.2910    2.0047 H   0  0  0  0  0  0  0  0  0  0  0  0
   -2.7302   -1.7467    1.9921 H   0  0  0  0  0  0  0  0  0  0  0  0
   -3.6446   -1.4140   -0.9275 H   0  0  0  0  0  0  0  0  0  0  0  0
   -2.2844   -2.4081   -0.3922 H   0  0  0  0  0  0  0  0  0  0  0  0
   -3.9388   -2.8365    0.0822 H   0  0  0  0  0  0  0  0  0  0  0  0
   -0.8768   -0.3314    0.9568 N   0  0  0  0  0  0  0  0  0  0  0  0
    0.2067    0.6285    0.7375 C   0  0  2  0  0  0  0  0  0  0  0  0
    1.1934   -0.0449   -0.2114 C   0  0  0  0  0  0  0  0  0  0  0  0
    1.4962    0.4372   -1.3011 O   0  0  0  0  0  0  0  0  0  0  0  0
    0.8474    0.9874    2.0866 C   0  0  0  0  0  0  0  0  0  0  0  0
   -0.0812    1.7682    3.0164 C   0  0  0  0  0  0  0  0  0  0  0  0
    0.5755    2.0801    4.3380 C   0  0  0  0  0  0  0  0  0  0  0  0
    1.6680    1.6425    4.6761 O   0  0  0  0  0  0  0  0  0  0  0  0
   -0.1835    2.8781    5.1288 O   0  0  0  0  0  0  0  0  0  0  0  0
   -0.6087   -1.2764    1.1771 H   0  0  0  0  0  0  0  0  0  0  0  0
   -0.2156    1.5272    0.2760 H   0  0  0  0  0  0  0  0  0  0  0  0
    1.1653    0.0659    2.5922 H   0  0  0  0  0  0  0  0  0  0  0  0
    1.7539    1.5861    1.9274 H   0  0  0  0  0  0  0  0  0  0  0  0
   -0.3409    2.7295    2.5563 H   0  0  0  0  0  0  0  0  0  0  0  0
   -1.0337    1.2513    3.1727 H   0  0  0  0  0  0  0  0  0  0  0  0
    0.1996    3.0901    6.0064 H   0  0  0  0  0  0  0  0  0  0  0  0
    1.7114   -1.2205    0.3116 N   0  0  0  0  0  0  0  0  0  0  0  0
    2.6677   -2.0460   -0.3904 C   0  0  2  0  0  0  0  0  0  0  0  0
    1.8968   -3.1231   -1.1422 C   0  0  0  0  0  0  0  0  0  0  0  0
    0.7640   -3.4811   -0.8265 O   0  0  0  0  0  0  0  0  0  0  0  0
    3.6726   -2.6657    0.5680 C   0  0  0  0  0  0  0  0  0  0  0  0
    1.4035   -1.5157    1.2332 H   0  0  0  0  0  0  0  0  0  0  0  0
    3.1808   -1.3957   -1.1073 H   0  0  0  0  0  0  0  0  0  0  0  0
    3.1770   -3.3207    1.2939 H   0  0  0  0  0  0  0  0  0  0  0  0
    4.4135   -3.2677    0.0316 H   0  0  0  0  0  0  0  0  0  0  0  0
    4.2051   -1.8904    1.1294 H   0  0  0  0  0  0  0  0  0  0  0  0
    2.6393   -3.6677   -2.1805 N   0  0  0  0  0  0  0  0  0  0  0  0
    2.1327   -4.7164   -3.0348 C   0  0  0  0  0  0  0  0  0  0  0  0
    3.5630   -3.2967   -2.3824 H   0  0  0  0  0  0  0  0  0  0  0  0
    2.4264   -5.6953   -2.6280 H   0  0  0  0  0  0  0  0  0  0  0  0
    1.0355   -4.6531   -3.0815 H   0  0  0  0  0  0  0  0  0  0  0  0
    2.5502   -4.5993   -4.0457 H   0  0  0  0  0  0  0  0  0  0  0  0
  1  3  1  0  0  0  0
  1  7  1  0  0  0  0
  1  2  2  0  0  0  0
 34 35  1  0  0  0  0
 35 43  1  0  0  0  0
 35 36  2  0  0  0  0
  8  9  1  0  0  0  0
  9 17  1  0  0  0  0
  9 10  2  0  0  0  0
 18 19  1  0  0  0  0
 19 33  1  0  0  0  0
 19 20  2  0  0  0  0
 22 23  1  0  0  0  0
 23 24  2  0  0  0  0
 23 25  1  0  0  0  0
 34 37  1  0  0  0  0
  8 11  1  0  0  0  0
 43 44  1  0  0  0  0
 21 22  1  0  0  0  0
 18 21  1  0  0  0  0
 33 34  1  0  0  0  0
  7  8  1  0  0  0  0
 17 18  1  0  0  0  0
  3  4  1  0  0  0  0
  3  5  1  0  0  0  0
  3  6  1  0  0  0  0
 37 40  1  0  0  0  0
 37 41  1  0  0  0  0
 37 42  1  0  0  0  0
 11 14  1  0  0  0  0
 11 15  1  0  0  0  0
 11 16  1  0  0  0  0
 44 46  1  0  0  0  0
 44 47  1  0  0  0  0
 44 48  1  0  0  0  0
 22 30  1  0  0  0  0
 22 31  1  0  0  0  0
 21 28  1  0  0  0  0
 21 29  1  0  0  0  0
 34 39  1  0  0  0  0
  8 13  1  0  0  0  0
 18 27  1  0  0  0  0
 43 45  1  0  0  0  0
  7 12  1  0  0  0  0
 33 38  1  0  0  0  0
 17 26  1  0  0  0  0
 25 32  1  0  0  0  0
M  END
$$$$

  -OEChem-05262214473D

 48 47  0     1  0  0  0  0  0999 V2000
   -5.5827   -1.3473    1.4591 C   0  0  0  0  0  0  0  0  0  0  0  0
   -5.7053   -2.4696    0.9825 O   0  0  0  0  0  0  0  0  0  0  0  0
   -6.7879   -0.6277    1.9670 C   0  0  0  0  0  0  0  0  0  0  0  0
   -7.2718   -0.0164    1.1885 H   0  0  0  0  0  0  0  0  0  0  0  0
   -7.5699   -1.3171    2.3239 H   0  0  0  0  0  0  0  0  0  0  0  0
   -6.6057    0.0628    2.8060 H   0  0  0  0  0  0  0  0  0  0  0  0
   -4.4001   -0.6377    1.5884 N   0  0  0  0  0  0  0  0  0  0  0  0
   -3.1220   -1.1455    1.1644 C   0  0  2  0  0  0  0  0  0  0  0  0
   -2.2017    0.0428    0.9187 C   0  0  0  0  0  0  0  0  0  0  0  0
   -2.6171    1.1750    0.6807 O   0  0  0  0  0  0  0  0  0  0  0  0
   -3.2533   -1.9992   -0.0873 C   0  0  0  0  0  0  0  0  0  0  0  0
   -4.4370    0.2910    2.0047 H   0  0  0  0  0  0  0  0  0  0  0  0
   -2.7302   -1.7467    1.9921 H   0  0  0  0  0  0  0  0  0  0  0  0
   -3.6446   -1.4140   -0.9275 H   0  0  0  0  0  0  0  0  0  0  0  0
   -2.2844   -2.4081   -0.3922 H   0  0  0  0  0  0  0  0  0  0  0  0
   -3.9388   -2.8365    0.0822 H   0  0  0  0  0  0  0  0  0  0  0  0
   -0.8768   -0.3314    0.9568 N   0  0  0  0  0  0  0  0  0  0  0  0
    0.2067    0.6285    0.7375 C   0  0  2  0  0  0  0  0  0  0  0  0
    1.1934   -0.0449   -0.2114 C   0  0  0  0  0  0  0  0  0  0  0  0
    1.7026    0.5445   -1.1626 O   0  0  0  0  0  0  0  0  0  0  0  0
    0.8474    0.9874    2.0866 C   0  0  0  0  0  0  0  0  0  0  0  0
   -0.0812    1.7682    3.0164 C   0  0  0  0  0  0  0  0  0  0  0  0
    0.5755    2.0801    4.3380 C   0  0  0  0  0  0  0  0  0  0  0  0
    1.6680    1.6425    4.6761 O   0  0  0  0  0  0  0  0  0  0  0  0
   -0.1835    2.8781    5.1288 O   0  0  0  0  0  0  0  0  0  0  0  0
   -0.6087   -1.2764    1.1771 H   0  0  0  0  0  0  0  0  0  0  0  0
   -0.2156    1.5272    0.2760 H   0  0  0  0  0  0  0  0  0  0  0  0
    1.1653    0.0659    2.5922 H   0  0  0  0  0  0  0  0  0  0  0  0
    1.7539    1.5861    1.9274 H   0  0  0  0  0  0  0  0  0  0  0  0
   -0.3409    2.7295    2.5563 H   0  0  0  0  0  0  0  0  0  0  0  0
   -1.0337    1.2513    3.1727 H   0  0  0  0  0  0  0  0  0  0  0  0
    0.1996    3.0901    6.0064 H   0  0  0  0  0  0  0  0  0  0  0  0
    1.4564   -1.3593    0.1450 N   0  0  0  0  0  0  0  0  0  0  0  0
    2.3587   -2.2145   -0.5922 C   0  0  2  0  0  0  0  0  0  0  0  0
    1.5363   -3.0116   -1.5961 C   0  0  0  0  0  0  0  0  0  0  0  0
    0.3314   -3.2163   -1.4642 O   0  0  0  0  0  0  0  0  0  0  0  0
    3.1274   -3.1402    0.3378 C   0  0  0  0  0  0  0  0  0  0  0  0
    0.9921   -1.7396    0.9642 H   0  0  0  0  0  0  0  0  0  0  0  0
    3.0517   -1.5563   -1.1275 H   0  0  0  0  0  0  0  0  0  0  0  0
    2.4496   -3.8073    0.8829 H   0  0  0  0  0  0  0  0  0  0  0  0
    3.8311   -3.7674   -0.2194 H   0  0  0  0  0  0  0  0  0  0  0  0
    3.6948   -2.5657    1.0780 H   0  0  0  0  0  0  0  0  0  0  0  0
    2.3146   -3.5040   -2.6344 N   0  0  0  0  0  0  0  0  0  0  0  0
    1.7688   -4.3023   -3.7070 C   0  0  0  0  0  0  0  0  0  0  0  0
    3.3020   -3.2689   -2.6736 H   0  0  0  0  0  0  0  0  0  0  0  0
    1.8565   -5.3688   -3.4523 H   0  0  0  0  0  0  0  0  0  0  0  0
    0.7089   -4.0461   -3.8520 H   0  0  0  0  0  0  0  0  0  0  0  0
    2.3250   -4.1000   -4.6342 H   0  0  0  0  0  0  0  0  0  0  0  0
  1  3  1  0  0  0  0
  1  7  1  0  0  0  0
  1  2  2  0  0  0  0
 34 35  1  0  0  0  0
 35 43  1  0  0  0  0
 35 36  2  0  0  0  0
  8  9  1  0  0  0  0
  9 17  1  0  0  0  0
  9 10  2  0  0  0  0
 18 19  1  0  0  0  0
 19 33  1  0  0  0  0
 19 20  2  0  0  0  0
 22 23  1  0  0  0  0
 23 24  2  0  0  0  0
 23 25  1  0  0  0  0
 34 37  1  0  0  0  0
  8 11  1  0  0  0  0
 43 44  1  0  0  0  0
 21 22  1  0  0  0  0
 18 21  1  0  0  0  0
 33 34  1  0  0  0  0
  7  8  1  0  0  0  0
 17 18  1  0  0  0  0
  3  4  1  0  0  0  0
  3  5  1  0  0  0  0
  3  6  1  0  0  0  0
 37 40  1  0  0  0  0
 37 41  1  0  0  0  0
 37 42  1  0  0  0  0
 11 14  1  0  0  0  0
 11 15  1  0  0  0  0
 11 16  1  0  0  0  0
 44 46  1  0  0  0  0
 44 47  1  0  0  0  0
 44 48  1  0  0  0  0
 22 30  1  0  0  0  0
 22 31  1  0  0  0  0
 21 28  1  0  0  0  0
 21 29  1  0  0  0  0
 34 39  1  0  0  0  0
  8 13  1  0  0  0  0
 18 27  1  0  0  0  0
 43 45  1  0  0  0  0
  7 12  1  0  0  0  0
 33 38  1  0  0  0  0
 17 26  1  0  0  0  0
 25 32  1  0  0  0  0
M  END
$$$$

  -OEChem-05262214473D

 48 47  0     1  0  0  0  0  0999 V2000
   -5.5827   -1.3473    1.4591 C   0  0  0  0  0  0  0  0  0  0  0  0
   -5.7053   -2.4696    0.9825 O   0  0  0  0  0  0  0  0  0  0  0  0
   -6.7879   -0.6277    1.9670 C   0  0  0  0  0  0  0  0  0  0  0  0
   -7.2718   -0.0164    1.1885 H   0  0  0  0  0  0  0  0  0  0  0  0
   -7.5699   -1.3171    2.3239 H   0  0  0  0  0  0  0  0  0  0  0  0
   -6.6057    0.0628    2.8060 H   0  0  0  0  0  0  0  0  0  0  0  0
   -4.4001   -0.6377    1.5884 N   0  0  0  0  0  0  0  0  0  0  0  0
   -3.1220   -1.1455    1.1644 C   0  0  2  0  0  0  0  0  0  0  0  0
   -2.2017    0.0428    0.9187 C   0  0  0  0  0  0  0  0  0  0  0  0
   -2.6171    1.1750    0.6807 O   0  0  0  0  0  0  0  0  0  0  0  0
   -3.2533   -1.9992   -0.0873 C   0  0  0  0  0  0  0  0  0  0  0  0
   -4.4370    0.2910    2.0047 H   0  0  0  0  0  0  0  0  0  0  0  0
   -2.7302   -1.7467    1.9921 H   0  0  0  0  0  0  0  0  0  0  0  0
   -3.6446   -1.4140   -0.9275 H   0  0  0  0  0  0  0  0  0  0  0  0
   -2.2844   -2.4081   -0.3922 H   0  0  0  0  0  0  0  0  0  0  0  0
   -3.9388   -2.8365    0.0822 H   0  0  0  0  0  0  0  0  0  0  0  0
   -0.8768   -0.3314    0.9568 N   0  0  0  0  0  0  0  0  0  0  0  0
    0.2067    0.6285    0.7375 C   0  0  2  0  0  0  0  0  0  0  0  0
    1.1934   -0.0449   -0.2114 C   0  0  0  0  0  0  0  0  0  0  0  0
    1.9034    0.5918   -0.9874 O   0  0  0  0  0  0  0  0  0  0  0  0
    0.8474    0.9874    2.0866 C   0  0  0  0  0  0  0  0  0  0  0  0
   -0.0812    1.7682    3.0164 C   0  0  0  0  0  0  0  0  0  0  0  0
    0.5755    2.0801    4.3380 C   0  0  0  0  0  0  0  0  0  0  0  0
    1.6680    1.6425    4.6761 O   0  0  0  0  0  0  0  0  0  0  0  0
   -0.1835    2.8781    5.1288 O   0  0  0  0  0  0  0  0  0  0  0  0
   -0.6087   -1.2764    1.1771 H   0  0  0  0  0  0  0  0  0  0  0  0
   -0.2156    1.5272    0.2760 H   0  0  0  0  0  0  0  0  0  0  0  0
    1.1653    0.0659    2.5922 H   0  0  0  0  0  0  0  0  0  0  0  0
    1.7539    1.5861    1.9274 H   0  0  0  0  0  0  0  0  0  0  0  0
   -0.3409    2.7295    2.5563 H   0  0  0  0  0  0  0  0  0  0  0  0
   -1.0337    1.2513    3.1727 H   0  0  0  0  0  0  0  0  0  0  0  0
    0.1996    3.0901    6.0064 H   0  0  0  0  0  0  0  0  0  0  0  0
    1.2068   -1.4245   -0.0684 N   0  0  0  0  0  0  0  0  0  0  0  0
    2.0561   -2.2937   -0.8505 C   0  0  2  0  0  0  0  0  0  0  0  0
    1.2580   -2.7699   -2.0570 C   0  0  0  0  0  0  0  0  0  0  0  0
    0.0292   -2.7842   -2.0852 O   0  0  0  0  0  0  0  0  0  0  0  0
    2.5506   -3.4722   -0.0263 C   0  0  0  0  0  0  0  0  0  0  0  0
    0.5893   -1.8445    0.6199 H   0  0  0  0  0  0  0  0  0  0  0  0
    2.9035   -1.6873   -1.1887 H   0  0  0  0  0  0  0  0  0  0  0  0
    1.7157   -4.0915    0.3213 H   0  0  0  0  0  0  0  0  0  0  0  0
    3.2168   -4.1143   -0.6120 H   0  0  0  0  0  0  0  0  0  0  0  0
    3.0989   -3.1274    0.8570 H   0  0  0  0  0  0  0  0  0  0  0  0
    2.0792   -3.2175   -3.0824 N   0  0  0  0  0  0  0  0  0  0  0  0
    1.5607   -3.7313   -4.3287 C   0  0  0  0  0  0  0  0  0  0  0  0
    3.0876   -3.1513   -2.9800 H   0  0  0  0  0  0  0  0  0  0  0  0
    1.4528   -4.8238   -4.2589 H   0  0  0  0  0  0  0  0  0  0  0  0
    0.5792   -3.2783   -4.5318 H   0  0  0  0  0  0  0  0  0  0  0  0
    2.2552   -3.4829   -5.1448 H   0  0  0  0  0  0  0  0  0  0  0  0
  1  3  1  0  0  0  0
  1  7  1  0  0  0  0
  1  2  2  0  0  0  0
 34 35  1  0  0  0  0
 35 43  1  0  0  0  0
 35 36  2  0  0  0  0
  8  9  1  0  0  0  0
  9 17  1  0  0  0  0
  9 10  2  0  0  0  0
 18 19  1  0  0  0  0
 19 33  1  0  0  0  0
 19 20  2  0  0  0  0
 22 23  1  0  0  0  0
 23 24  2  0  0  0  0
 23 25  1  0  0  0  0
 34 37  1  0  0  0  0
  8 11  1  0  0  0  0
 43 44  1  0  0  0  0
 21 22  1  0  0  0  0
 18 21  1  0  0  0  0
 33 34  1  0  0  0  0
  7  8  1  0  0  0  0
 17 18  1  0  0  0  0
  3  4  1  0  0  0  0
  3  5  1  0  0  0  0
  3  6  1  0  0  0  0
 37 40  1  0  0  0  0
 37 41  1  0  0  0  0
 37 42  1  0  0  0  0
 11 14  1  0  0  0  0
 11 15  1  0  0  0  0
 11 16  1  0  0  0  0
 44 46  1  0  0  0  0
 44 47  1  0  0  0  0
 44 48  1  0  0  0  0
 22 30  1  0  0  0  0
 22 31  1  0  0  0  0
 21 28  1  0  0  0  0
 21 29  1  0  0  0  0
 34 39  1  0  0  0  0
  8 13  1  0  0  0  0
 18 27  1  0  0  0  0
 43 45  1  0  0  0  0
  7 12  1  0  0  0  0
 33 38  1  0  0  0  0
 17 26  1  0  0  0  0
 25 32  1  0  0  0  0
M  END
$$$$

  -OEChem-05262214473D

 48 47  0     1  0  0  0  0  0999 V2000
   -5.5827   -1.3473    1.4591 C   0  0  0  0  0  0  0  0  0  0  0  0
   -5.7053   -2.4696    0.9825 O   0  0  0  0  0  0  0  0  0  0  0  0
   -6.7879   -0.6277    1.9670 C   0  0  0  0  0  0  0  0  0  0  0  0
   -7.2718   -0.0164    1.1885 H   0  0  0  0  0  0  0  0  0  0  0  0
   -7.5699   -1.3171    2.3239 H   0  0  0  0  0  0  0  0  0  0  0  0
   -6.6057    0.0628    2.8060 H   0  0  0  0  0  0  0  0  0  0  0  0
   -4.4001   -0.6377    1.5884 N   0  0  0  0  0  0  0  0  0  0  0  0
   -3.1220   -1.1455    1.1644 C   0  0  2  0  0  0  0  0  0  0  0  0
   -2.2017    0.0428    0.9187 C   0  0  0  0  0  0  0  0  0  0  0  0
   -2.6171    1.1750    0.6807 O   0  0  0  0  0  0  0  0  0  0  0  0
   -3.2533   -1.9992   -0.0873 C   0  0  0  0  0  0  0  0  0  0  0  0
   -4.4370    0.2910    2.0047 H   0  0  0  0  0  0  0  0  0  0  0  0
   -2.7302   -1.7467    1.9921 H   0  0  0  0  0  0  0  0  0  0  0  0
   -3.6446   -1.4140   -0.9275 H   0  0  0  0  0  0  0  0  0  0  0  0
   -2.2844   -2.4081   -0.3922 H   0  0  0  0  0  0  0  0  0  0  0  0
   -3.9388   -2.8365    0.0822 H   0  0  0  0  0  0  0  0  0  0  0  0
   -0.8768   -0.3314    0.9568 N   0  0  0  0  0  0  0  0  0  0  0  0
    0.2067    0.6285    0.7375 C   0  0  2  0  0  0  0  0  0  0  0  0
    1.1934   -0.0449   -0.2114 C   0  0  0  0  0  0  0  0  0  0  0  0
    2.0849    0.5757   -0.7873 O   0  0  0  0  0  0  0  0  0  0  0  0
    0.8474    0.9874    2.0866 C   0  0  0  0  0  0  0  0  0  0  0  0
   -0.0812    1.7682    3.0164 C   0  0  0  0  0  0  0  0  0  0  0  0
    0.5755    2.0801    4.3380 C   0  0  0  0  0  0  0  0  0  0  0  0
    1.6680    1.6425    4.6761 O   0  0  0  0  0  0  0  0  0  0  0  0
   -0.1835    2.8781    5.1288 O   0  0  0  0  0  0  0  0  0  0  0  0
   -0.6087   -1.2764    1.1771 H   0  0  0  0  0  0  0  0  0  0  0  0
   -0.2156    1.5272    0.2760 H   0  0  0  0  0  0  0  0  0  0  0  0
    1.1653    0.0659    2.5922 H   0  0  0  0  0  0  0  0  0  0  0  0
    1.7539    1.5861    1.9274 H   0  0  0  0  0  0  0  0  0  0  0  0
   -0.3409    2.7295    2.5563 H   0  0  0  0  0  0  0  0  0  0  0  0
   -1.0337    1.2513    3.1727 H   0  0  0  0  0  0  0  0  0  0  0  0
    0.1996    3.0901    6.0064 H   0  0  0  0  0  0  0  0  0  0  0  0
    0.9795   -1.4115   -0.3139 N   0  0  0  0  0  0  0  0  0  0  0  0
    1.7807   -2.2783   -1.1479 C   0  0  2  0  0  0  0  0  0  0  0  0
    1.0807   -2.4145   -2.4936 C   0  0  0  0  0  0  0  0  0  0  0  0
   -0.1223   -2.2141   -2.6473 O   0  0  0  0  0  0  0  0  0  0  0  0
    1.9816   -3.6391   -0.4995 C   0  0  0  0  0  0  0  0  0  0  0  0
    0.2227   -1.8234    0.2237 H   0  0  0  0  0  0  0  0  0  0  0  0
    2.7462   -1.7797   -1.2866 H   0  0  0  0  0  0  0  0  0  0  0  0
    1.0251   -4.1538   -0.3525 H   0  0  0  0  0  0  0  0  0  0  0  0
    2.6125   -4.2847   -1.1194 H   0  0  0  0  0  0  0  0  0  0  0  0
    2.4582   -3.5369    0.4814 H   0  0  0  0  0  0  0  0  0  0  0  0
    1.9492   -2.8280   -3.4941 N   0  0  0  0  0  0  0  0  0  0  0  0
    1.5227   -3.0422   -4.8573 C   0  0  0  0  0  0  0  0  0  0  0  0
    2.9345   -2.9519   -3.2808 H   0  0  0  0  0  0  0  0  0  0  0  0
    1.2428   -4.0973   -4.9929 H   0  0  0  0  0  0  0  0  0  0  0  0
    0.6551   -2.4019   -5.0748 H   0  0  0  0  0  0  0  0  0  0  0  0
    2.3454   -2.7902   -5.5426 H   0  0  0  0  0  0  0  0  0  0  0  0
  1  3  1  0  0  0  0
  1  7  1  0  0  0  0
  1  2  2  0  0  0  0
 34 35  1  0  0  0  0
 35 43  1  0  0  0  0
 35 36  2  0  0  0  0
  8  9  1  0  0  0  0
  9 17  1  0  0  0  0
  9 10  2  0  0  0  0
 18 19  1  0  0  0  0
 19 33  1  0  0  0  0
 19 20  2  0  0  0  0
 22 23  1  0  0  0  0
 23 24  2  0  0  0  0
 23 25  1  0  0  0  0
 34 37  1  0  0  0  0
  8 11  1  0  0  0  0
 43 44  1  0  0  0  0
 21 22  1  0  0  0  0
 18 21  1  0  0  0  0
 33 34  1  0  0  0  0
  7  8  1  0  0  0  0
 17 18  1  0  0  0  0
  3  4  1  0  0  0  0
  3  5  1  0  0  0  0
  3  6  1  0  0  0  0
 37 40  1  0  0  0  0
 37 41  1  0  0  0  0
 37 42  1  0  0  0  0
 11 14  1  0  0  0  0
 11 15  1  0  0  0  0
 11 16  1  0  0  0  0
 44 46  1  0  0  0  0
 44 47  1  0  0  0  0
 44 48  1  0  0  0  0
 22 30  1  0  0  0  0
 22 31  1  0  0  0  0
 21 28  1  0  0  0  0
 21 29  1  0  0  0  0
 34 39  1  0  0  0  0
  8 13  1  0  0  0  0
 18 27  1  0  0  0  0
 43 45  1  0  0  0  0
  7 12  1  0  0  0  0
 33 38  1  0  0  0  0
 17 26  1  0  0  0  0
 25 32  1  0  0  0  0
M  END
$$$$

  -OEChem-05262214473D

 48 47  0     1  0  0  0  0  0999 V2000
   -5.5827   -1.3473    1.4591 C   0  0  0  0  0  0  0  0  0  0  0  0
   -5.7053   -2.4696    0.9825 O   0  0  0  0  0  0  0  0  0  0  0  0
   -6.7879   -0.6277    1.9670 C   0  0  0  0  0  0  0  0  0  0  0  0
   -7.2718   -0.0164    1.1885 H   0  0  0  0  0  0  0  0  0  0  0  0
   -7.5699   -1.3171    2.3239 H   0  0  0  0  0  0  0  0  0  0  0  0
   -6.6057    0.0628    2.8060 H   0  0  0  0  0  0  0  0  0  0  0  0
   -4.4001   -0.6377    1.5884 N   0  0  0  0  0  0  0  0  0  0  0  0
   -3.1220   -1.1455    1.1644 C   0  0  2  0  0  0  0  0  0  0  0  0
   -2.2017    0.0428    0.9187 C   0  0  0  0  0  0  0  0  0  0  0  0
   -2.6171    1.1750    0.6807 O   0  0  0  0  0  0  0  0  0  0  0  0
   -3.2533   -1.9992   -0.0873 C   0  0  0  0  0  0  0  0  0  0  0  0
   -4.4370    0.2910    2.0047 H   0  0  0  0  0  0  0  0  0  0  0  0
   -2.7302   -1.7467    1.9921 H   0  0  0  0  0  0  0  0  0  0  0  0
   -3.6446   -1.4140   -0.9275 H   0  0  0  0  0  0  0  0  0  0  0  0
   -2.2844   -2.4081   -0.3922 H   0  0  0  0  0  0  0  0  0  0  0  0
   -3.9388   -2.8365    0.0822 H   0  0  0  0  0  0  0  0  0  0  0  0
   -0.8768   -0.3314    0.9568 N   0  0  0  0  0  0  0  0  0  0  0  0
    0.2067    0.6285    0.7375 C   0  0  2  0  0  0  0  0  0  0  0  0
    1.1934   -0.0449   -0.2114 C   0  0  0  0  0  0  0  0  0  0  0  0
    2.2348    0.4975   -0.5759 O   0  0  0  0  0  0  0  0  0  0  0  0
    0.8474    0.9874    2.0866 C   0  0  0  0  0  0  0  0  0  0  0  0
   -0.0812    1.7682    3.0164 C   0  0  0  0  0  0  0  0  0  0  0  0
    0.5755    2.0801    4.3380 C   0  0  0  0  0  0  0  0  0  0  0  0
    1.6680    1.6425    4.6761 O   0  0  0  0  0  0  0  0  0  0  0  0
   -0.1835    2.8781    5.1288 O   0  0  0  0  0  0  0  0  0  0  0  0
   -0.6087   -1.2764    1.1771 H   0  0  0  0  0  0  0  0  0  0  0  0
   -0.2156    1.5272    0.2760 H   0  0  0  0  0  0  0  0  0  0  0  0
    1.1653    0.0659    2.5922 H   0  0  0  0  0  0  0  0  0  0  0  0
    1.7539    1.5861    1.9274 H   0  0  0  0  0  0  0  0  0  0  0  0
   -0.3409    2.7295    2.5563 H   0  0  0  0  0  0  0  0  0  0  0  0
   -1.0337    1.2513    3.1727 H   0  0  0  0  0  0  0  0  0  0  0  0
    0.1996    3.0901    6.0064 H   0  0  0  0  0  0  0  0  0  0  0  0
    0.7902   -1.3214   -0.5748 N   0  0  0  0  0  0  0  0  0  0  0  0
    1.5511   -2.1692   -1.4640 C   0  0  2  0  0  0  0  0  0  0  0  0
    1.0166   -1.9696   -2.8761 C   0  0  0  0  0  0  0  0  0  0  0  0
   -0.1127   -1.5450   -3.1121 O   0  0  0  0  0  0  0  0  0  0  0  0
    1.4592   -3.6295   -1.0495 C   0  0  0  0  0  0  0  0  0  0  0  0
   -0.0827   -1.6777   -0.1973 H   0  0  0  0  0  0  0  0  0  0  0  0
    2.5906   -1.8272   -1.4146 H   0  0  0  0  0  0  0  0  0  0  0  0
    0.4250   -3.9900   -1.0927 H   0  0  0  0  0  0  0  0  0  0  0  0
    2.0592   -4.2671   -1.7072 H   0  0  0  0  0  0  0  0  0  0  0  0
    1.8163   -3.7665   -0.0231 H   0  0  0  0  0  0  0  0  0  0  0  0
    1.9333   -2.3618   -3.8415 N   0  0  0  0  0  0  0  0  0  0  0  0
    1.6573   -2.2819   -5.2569 C   0  0  0  0  0  0  0  0  0  0  0  0
    2.8531   -2.6843   -3.5554 H   0  0  0  0  0  0  0  0  0  0  0  0
    1.2407   -3.2389   -5.6043 H   0  0  0  0  0  0  0  0  0  0  0  0
    0.9315   -1.4768   -5.4439 H   0  0  0  0  0  0  0  0  0  0  0  0
    2.5895   -2.0690   -5.8007 H   0  0  0  0  0  0  0  0  0  0  0  0
  1  3  1  0  0  0  0
  1  7  1  0  0  0  0
  1  2  2  0  0  0  0
 34 35  1  0  0  0  0
 35 43  1  0  0  0  0
 35 36  2  0  0  0  0
  8  9  1  0  0  0  0
  9 17  1  0  0  0  0
  9 10  2  0  0  0  0
 18 19  1  0  0  0  0
 19 33  1  0  0  0  0
 19 20  2  0  0  0  0
 22 23  1  0  0  0  0
 23 24  2  0  0  0  0
 23 25  1  0  0  0  0
 34 37  1  0  0  0  0
  8 11  1  0  0  0  0
 43 44  1  0  0  0  0
 21 22  1  0  0  0  0
 18 21  1  0  0  0  0
 33 34  1  0  0  0  0
  7  8  1  0  0  0  0
 17 18  1  0  0  0  0
  3  4  1  0  0  0  0
  3  5  1  0  0  0  0
  3  6  1  0  0  0  0
 37 40  1  0  0  0  0
 37 41  1  0  0  0  0
 37 42  1  0  0  0  0
 11 14  1  0  0  0  0
 11 15  1  0  0  0  0
 11 16  1  0  0  0  0
 44 46  1  0  0  0  0
 44 47  1  0  0  0  0
 44 48  1  0  0  0  0
 22 30  1  0  0  0  0
 22 31  1  0  0  0  0
 21 28  1  0  0  0  0
 21 29  1  0  0  0  0
 34 39  1  0  0  0  0
  8 13  1  0  0  0  0
 18 27  1  0  0  0  0
 43 45  1  0  0  0  0
  7 12  1  0  0  0  0
 33 38  1  0  0  0  0
 17 26  1  0  0  0  0
 25 32  1  0  0  0  0
M  END
$$$$

  -OEChem-05262214473D

 48 47  0     1  0  0  0  0  0999 V2000
   -5.5827   -1.3473    1.4591 C   0  0  0  0  0  0  0  0  0  0  0  0
   -5.7053   -2.4696    0.9825 O   0  0  0  0  0  0  0  0  0  0  0  0
   -6.7879   -0.6277    1.9670 C   0  0  0  0  0  0  0  0  0  0  0  0
   -7.2718   -0.0164    1.1885 H   0  0  0  0  0  0  0  0  0  0  0  0
   -7.5699   -1.3171    2.3239 H   0  0  0  0  0  0  0  0  0  0  0  0
   -6.6057    0.0628    2.8060 H   0  0  0  0  0  0  0  0  0  0  0  0
   -4.4001   -0.6377    1.5884 N   0  0  0  0  0  0  0  0  0  0  0  0
   -3.1220   -1.1455    1.1644 C   0  0  2  0  0  0  0  0  0  0  0  0
   -2.2017    0.0428    0.9187 C   0  0  0  0  0  0  0  0  0  0  0  0
   -2.6171    1.1750    0.6807 O   0  0  0  0  0  0  0  0  0  0  0  0
   -3.2533   -1.9992   -0.0873 C   0  0  0  0  0  0  0  0  0  0  0  0
   -4.4370    0.2910    2.0047 H   0  0  0  0  0  0  0  0  0  0  0  0
   -2.7302   -1.7467    1.9921 H   0  0  0  0  0  0  0  0  0  0  0  0
   -3.6446   -1.4140   -0.9275 H   0  0  0  0  0  0  0  0  0  0  0  0
   -2.2844   -2.4081   -0.3922 H   0  0  0  0  0  0  0  0  0  0  0  0
   -3.9388   -2.8365    0.0822 H   0  0  0  0  0  0  0  0  0  0  0  0
   -0.8768   -0.3314    0.9568 N   0  0  0  0  0  0  0  0  0  0  0  0
    0.2067    0.6285    0.7375 C   0  0  2  0  0  0  0  0  0  0  0  0
    1.1934   -0.0449   -0.2114 C   0  0  0  0  0  0  0  0  0  0  0  0
    2.3428    0.3625   -0.3677 O   0  0  0  0  0  0  0  0  0  0  0  0
    0.8474    0.9874    2.0866 C   0  0  0  0  0  0  0  0  0  0  0  0
   -0.0812    1.7682    3.0164 C   0  0  0  0  0  0  0  0  0  0  0  0
    0.5755    2.0801    4.3380 C   0  0  0  0  0  0  0  0  0  0  0  0
    1.6680    1.6425    4.6761 O   0  0  0  0  0  0  0  0  0  0  0  0
   -0.1835    2.8781    5.1288 O   0  0  0  0  0  0  0  0  0  0  0  0
   -0.6087   -1.2764    1.1771 H   0  0  0  0  0  0  0  0  0  0  0  0
   -0.2156    1.5272    0.2760 H   0  0  0  0  0  0  0  0  0  0  0  0
    1.1653    0.0659    2.5922 H   0  0  0  0  0  0  0  0  0  0  0  0
    1.7539    1.5861    1.9274 H   0  0  0  0  0  0  0  0  0  0  0  0
   -0.3409    2.7295    2.5563 H   0  0  0  0  0  0  0  0  0  0  0  0
   -1.0337    1.2513    3.1727 H   0  0  0  0  0  0  0  0  0  0  0  0
    0.1996    3.0901    6.0064 H   0  0  0  0  0  0  0  0  0  0  0  0
    0.6516   -1.1601   -0.8333 N   0  0  0  0  0  0  0  0  0  0  0  0
    1.3830   -1.9741   -1.7774 C   0  0  2  0  0  0  0  0  0  0  0  0
    1.0699   -1.4654   -3.1784 C   0  0  0  0  0  0  0  0  0  0  0  0
    0.0575   -0.8225   -3.4480 O   0  0  0  0  0  0  0  0  0  0  0  0
    1.0190   -3.4441   -1.6389 C   0  0  0  0  0  0  0  0  0  0  0  0
   -0.3062   -1.4172   -0.6145 H   0  0  0  0  0  0  0  0  0  0  0  0
    2.4473   -1.8267   -1.5641 H   0  0  0  0  0  0  0  0  0  0  0  0
   -0.0437   -3.6114   -1.8489 H   0  0  0  0  0  0  0  0  0  0  0  0
    1.5948   -4.0627   -2.3352 H   0  0  0  0  0  0  0  0  0  0  0  0
    1.2170   -3.8005   -0.6222 H   0  0  0  0  0  0  0  0  0  0  0  0
    2.0327   -1.8509   -4.1007 N   0  0  0  0  0  0  0  0  0  0  0  0
    1.9553   -1.5024   -5.5002 C   0  0  0  0  0  0  0  0  0  0  0  0
    2.8488   -2.3667   -3.7852 H   0  0  0  0  0  0  0  0  0  0  0  0
    1.4467   -2.3070   -6.0514 H   0  0  0  0  0  0  0  0  0  0  0  0
    1.3897   -0.5658   -5.6140 H   0  0  0  0  0  0  0  0  0  0  0  0
    2.9708   -1.3685   -5.9013 H   0  0  0  0  0  0  0  0  0  0  0  0
  1  3  1  0  0  0  0
  1  7  1  0  0  0  0
  1  2  2  0  0  0  0
 34 35  1  0  0  0  0
 35 43  1  0  0  0  0
 35 36  2  0  0  0  0
  8  9  1  0  0  0  0
  9 17  1  0  0  0  0
  9 10  2  0  0  0  0
 18 19  1  0  0  0  0
 19 33  1  0  0  0  0
 19 20  2  0  0  0  0
 22 23  1  0  0  0  0
 23 24  2  0  0  0  0
 23 25  1  0  0  0  0
 34 37  1  0  0  0  0
  8 11  1  0  0  0  0
 43 44  1  0  0  0  0
 21 22  1  0  0  0  0
 18 21  1  0  0  0  0
 33 34  1  0  0  0  0
  7  8  1  0  0  0  0
 17 18  1  0  0  0  0
  3  4  1  0  0  0  0
  3  5  1  0  0  0  0
  3  6  1  0  0  0  0
 37 40  1  0  0  0  0
 37 41  1  0  0  0  0
 37 42  1  0  0  0  0
 11 14  1  0  0  0  0
 11 15  1  0  0  0  0
 11 16  1  0  0  0  0
 44 46  1  0  0  0  0
 44 47  1  0  0  0  0
 44 48  1  0  0  0  0
 22 30  1  0  0  0  0
 22 31  1  0  0  0  0
 21 28  1  0  0  0  0
 21 29  1  0  0  0  0
 34 39  1  0  0  0  0
  8 13  1  0  0  0  0
 18 27  1  0  0  0  0
 43 45  1  0  0  0  0
  7 12  1  0  0  0  0
 33 38  1  0  0  0  0
 17 26  1  0  0  0  0
 25 32  1  0  0  0  0
M  END
$$$$

  -OEChem-05262214473D

 48 47  0     1  0  0  0  0  0999 V2000
   -5.5827   -1.3473    1.4591 C   0  0  0  0  0  0  0  0  0  0  0  0
   -5.7053   -2.4696    0.9825 O   0  0  0  0  0  0  0  0  0  0  0  0
   -6.7879   -0.6277    1.9670 C   0  0  0  0  0  0  0  0  0  0  0  0
   -7.2718   -0.0164    1.1885 H   0  0  0  0  0  0  0  0  0  0  0  0
   -7.5699   -1.3171    2.3239 H   0  0  0  0  0  0  0  0  0  0  0  0
   -6.6057    0.0628    2.8060 H   0  0  0  0  0  0  0  0  0  0  0  0
   -4.4001   -0.6377    1.5884 N   0  0  0  0  0  0  0  0  0  0  0  0
   -3.1220   -1.1455    1.1644 C   0  0  2  0  0  0  0  0  0  0  0  0
   -2.2017    0.0428    0.9187 C   0  0  0  0  0  0  0  0  0  0  0  0
   -2.6171    1.1750    0.6807 O   0  0  0  0  0  0  0  0  0  0  0  0
   -3.2533   -1.9992   -0.0873 C   0  0  0  0  0  0  0  0  0  0  0  0
   -4.4370    0.2910    2.0047 H   0  0  0  0  0  0  0  0  0  0  0  0
   -2.7302   -1.7467    1.9921 H   0  0  0  0  0  0  0  0  0  0  0  0
   -3.6446   -1.4140   -0.9275 H   0  0  0  0  0  0  0  0  0  0  0  0
   -2.2844   -2.4081   -0.3922 H   0  0  0  0  0  0  0  0  0  0  0  0
   -3.9388   -2.8365    0.0822 H   0  0  0  0  0  0  0  0  0  0  0  0
   -0.8768   -0.3314    0.9568 N   0  0  0  0  0  0  0  0  0  0  0  0
    0.2067    0.6285    0.7375 C   0  0  2  0  0  0  0  0  0  0  0  0
    1.1934   -0.0449   -0.2114 C   0  0  0  0  0  0  0  0  0  0  0  0
    2.4016    0.1798   -0.1769 O   0  0  0  0  0  0  0  0  0  0  0  0
    0.8474    0.9874    2.0866 C   0  0  0  0  0  0  0  0  0  0  0  0
   -0.0812    1.7682    3.0164 C   0  0  0  0  0  0  0  0  0  0  0  0
    0.5755    2.0801    4.3380 C   0  0  0  0  0  0  0  0  0  0  0  0
    1.6680    1.6425    4.6761 O   0  0  0  0  0  0  0  0  0  0  0  0
   -0.1835    2.8781    5.1288 O   0  0  0  0  0  0  0  0  0  0  0  0
   -0.6087   -1.2764    1.1771 H   0  0  0  0  0  0  0  0  0  0  0  0
   -0.2156    1.5272    0.2760 H   0  0  0  0  0  0  0  0  0  0  0  0
    1.1653    0.0659    2.5922 H   0  0  0  0  0  0  0  0  0  0  0  0
    1.7539    1.5861    1.9274 H   0  0  0  0  0  0  0  0  0  0  0  0
   -0.3409    2.7295    2.5563 H   0  0  0  0  0  0  0  0  0  0  0  0
   -1.0337    1.2513    3.1727 H   0  0  0  0  0  0  0  0  0  0  0  0
    0.1996    3.0901    6.0064 H   0  0  0  0  0  0  0  0  0  0  0  0
    0.5733   -0.9387   -1.0719 N   0  0  0  0  0  0  0  0  0  0  0  0
    1.2878   -1.7060   -2.0666 C   0  0  2  0  0  0  0  0  0  0  0  0
    1.2372   -0.9365   -3.3799 C   0  0  0  0  0  0  0  0  0  0  0  0
    0.3765   -0.0958   -3.6320 O   0  0  0  0  0  0  0  0  0  0  0  0
    0.6910   -3.0955   -2.2274 C   0  0  0  0  0  0  0  0  0  0  0  0
   -0.4324   -1.0599   -0.9994 H   0  0  0  0  0  0  0  0  0  0  0  0
    2.3260   -1.7781   -1.7247 H   0  0  0  0  0  0  0  0  0  0  0  0
   -0.3491   -3.0435   -2.5694 H   0  0  0  0  0  0  0  0  0  0  0  0
    1.2509   -3.6854   -2.9606 H   0  0  0  0  0  0  0  0  0  0  0  0
    0.7011   -3.6366   -1.2751 H   0  0  0  0  0  0  0  0  0  0  0  0
    2.2405   -1.3299   -4.2543 N   0  0  0  0  0  0  0  0  0  0  0  0
    2.3965   -0.7566   -5.5707 C   0  0  0  0  0  0  0  0  0  0  0  0
    2.9221   -2.0208   -3.9545 H   0  0  0  0  0  0  0  0  0  0  0  0
    1.8468   -1.3652   -6.3038 H   0  0  0  0  0  0  0  0  0  0  0  0
    1.9983    0.2688   -5.5735 H   0  0  0  0  0  0  0  0  0  0  0  0
    3.4634   -0.7363   -5.8376 H   0  0  0  0  0  0  0  0  0  0  0  0
  1  3  1  0  0  0  0
  1  7  1  0  0  0  0
  1  2  2  0  0  0  0
 34 35  1  0  0  0  0
 35 43  1  0  0  0  0
 35 36  2  0  0  0  0
  8  9  1  0  0  0  0
  9 17  1  0  0  0  0
  9 10  2  0  0  0  0
 18 19  1  0  0  0  0
 19 33  1  0  0  0  0
 19 20  2  0  0  0  0
 22 23  1  0  0  0  0
 23 24  2  0  0  0  0
 23 25  1  0  0  0  0
 34 37  1  0  0  0  0
  8 11  1  0  0  0  0
 43 44  1  0  0  0  0
 21 22  1  0  0  0  0
 18 21  1  0  0  0  0
 33 34  1  0  0  0  0
  7  8  1  0  0  0  0
 17 18  1  0  0  0  0
  3  4  1  0  0  0  0
  3  5  1  0  0  0  0
  3  6  1  0  0  0  0
 37 40  1  0  0  0  0
 37 41  1  0  0  0  0
 37 42  1  0  0  0  0
 11 14  1  0  0  0  0
 11 15  1  0  0  0  0
 11 16  1  0  0  0  0
 44 46  1  0  0  0  0
 44 47  1  0  0  0  0
 44 48  1  0  0  0  0
 22 30  1  0  0  0  0
 22 31  1  0  0  0  0
 21 28  1  0  0  0  0
 21 29  1  0  0  0  0
 34 39  1  0  0  0  0
  8 13  1  0  0  0  0
 18 27  1  0  0  0  0
 43 45  1  0  0  0  0
  7 12  1  0  0  0  0
 33 38  1  0  0  0  0
 17 26  1  0  0  0  0
 25 32  1  0  0  0  0
M  END
$$$$

  -OEChem-05262214473D

 48 47  0     1  0  0  0  0  0999 V2000
   -5.5827   -1.3473    1.4591 C   0  0  0  0  0  0  0  0  0  0  0  0
   -5.7053   -2.4696    0.9825 O   0  0  0  0  0  0  0  0  0  0  0  0
   -6.7879   -0.6277    1.9670 C   0  0  0  0  0  0  0  0  0  0  0  0
   -7.2718   -0.0164    1.1885 H   0  0  0  0  0  0  0  0  0  0  0  0
   -7.5699   -1.3171    2.3239 H   0  0  0  0  0  0  0  0  0  0  0  0
   -6.6057    0.0628    2.8060 H   0  0  0  0  0  0  0  0  0  0  0  0
   -4.4001   -0.6377    1.5884 N   0  0  0  0  0  0  0  0  0  0  0  0
   -3.1220   -1.1455    1.1644 C   0  0  2  0  0  0  0  0  0  0  0  0
   -2.2017    0.0428    0.9187 C   0  0  0  0  0  0  0  0  0  0  0  0
   -2.6171    1.1750    0.6807 O   0  0  0  0  0  0  0  0  0  0  0  0
   -3.2533   -1.9992   -0.0873 C   0  0  0  0  0  0  0  0  0  0  0  0
   -4.4370    0.2910    2.0047 H   0  0  0  0  0  0  0  0  0  0  0  0
   -2.7302   -1.7467    1.9921 H   0  0  0  0  0  0  0  0  0  0  0  0
   -3.6446   -1.4140   -0.9275 H   0  0  0  0  0  0  0  0  0  0  0  0
   -2.2844   -2.4081   -0.3922 H   0  0  0  0  0  0  0  0  0  0  0  0
   -3.9388   -2.8365    0.0822 H   0  0  0  0  0  0  0  0  0  0  0  0
   -0.8768   -0.3314    0.9568 N   0  0  0  0  0  0  0  0  0  0  0  0
    0.2067    0.6285    0.7375 C   0  0  2  0  0  0  0  0  0  0  0  0
    1.1934   -0.0449   -0.2114 C   0  0  0  0  0  0  0  0  0  0  0  0
    2.4072   -0.0381   -0.0164 O   0  0  0  0  0  0  0  0  0  0  0  0
    0.8474    0.9874    2.0866 C   0  0  0  0  0  0  0  0  0  0  0  0
   -0.0812    1.7682    3.0164 C   0  0  0  0  0  0  0  0  0  0  0  0
    0.5755    2.0801    4.3380 C   0  0  0  0  0  0  0  0  0  0  0  0
    1.6680    1.6425    4.6761 O   0  0  0  0  0  0  0  0  0  0  0  0
   -0.1835    2.8781    5.1288 O   0  0  0  0  0  0  0  0  0  0  0  0
   -0.6087   -1.2764    1.1771 H   0  0  0  0  0  0  0  0  0  0  0  0
   -0.2156    1.5272    0.2760 H   0  0  0  0  0  0  0  0  0  0  0  0
    1.1653    0.0659    2.5922 H   0  0  0  0  0  0  0  0  0  0  0  0
    1.7539    1.5861    1.9274 H   0  0  0  0  0  0  0  0  0  0  0  0
   -0.3409    2.7295    2.5563 H   0  0  0  0  0  0  0  0  0  0  0  0
   -1.0337    1.2513    3.1727 H   0  0  0  0  0  0  0  0  0  0  0  0
    0.1996    3.0901    6.0064 H   0  0  0  0  0  0  0  0  0  0  0  0
    0.5605   -0.6723   -1.2743 N   0  0  0  0  0  0  0  0  0  0  0  0
    1.2721   -1.3834   -2.3119 C   0  0  2  0  0  0  0  0  0  0  0  0
    1.5069   -0.4188   -3.4669 C   0  0  0  0  0  0  0  0  0  0  0  0
    0.8227    0.5857   -3.6516 O   0  0  0  0  0  0  0  0  0  0  0  0
    0.4975   -2.6074   -2.7750 C   0  0  0  0  0  0  0  0  0  0  0  0
   -0.4529   -0.6300   -1.3258 H   0  0  0  0  0  0  0  0  0  0  0  0
    2.2351   -1.6847   -1.8855 H   0  0  0  0  0  0  0  0  0  0  0  0
   -0.4703   -2.3253   -3.2053 H   0  0  0  0  0  0  0  0  0  0  0  0
    1.0509   -3.1609   -3.5408 H   0  0  0  0  0  0  0  0  0  0  0  0
    0.3037   -3.2859   -1.9372 H   0  0  0  0  0  0  0  0  0  0  0  0
    2.5427   -0.8345   -4.2917 N   0  0  0  0  0  0  0  0  0  0  0  0
    2.9507   -0.0955   -5.4636 C   0  0  0  0  0  0  0  0  0  0  0  0
    3.0679   -1.6701   -4.0517 H   0  0  0  0  0  0  0  0  0  0  0  0
    2.4137   -0.4777   -6.3442 H   0  0  0  0  0  0  0  0  0  0  0  0
    2.7159    0.9702   -5.3251 H   0  0  0  0  0  0  0  0  0  0  0  0
    4.0338   -0.2157   -5.6141 H   0  0  0  0  0  0  0  0  0  0  0  0
  1  3  1  0  0  0  0
  1  7  1  0  0  0  0
  1  2  2  0  0  0  0
 34 35  1  0  0  0  0
 35 43  1  0  0  0  0
 35 36  2  0  0  0  0
  8  9  1  0  0  0  0
  9 17  1  0  0  0  0
  9 10  2  0  0  0  0
 18 19  1  0  0  0  0
 19 33  1  0  0  0  0
 19 20  2  0  0  0  0
 22 23  1  0  0  0  0
 23 24  2  0  0  0  0
 23 25  1  0  0  0  0
 34 37  1  0  0  0  0
  8 11  1  0  0  0  0
 43 44  1  0  0  0  0
 21 22  1  0  0  0  0
 18 21  1  0  0  0  0
 33 34  1  0  0  0  0
  7  8  1  0  0  0  0
 17 18  1  0  0  0  0
  3  4  1  0  0  0  0
  3  5  1  0  0  0  0
  3  6  1  0  0  0  0
 37 40  1  0  0  0  0
 37 41  1  0  0  0  0
 37 42  1  0  0  0  0
 11 14  1  0  0  0  0
 11 15  1  0  0  0  0
 11 16  1  0  0  0  0
 44 46  1  0  0  0  0
 44 47  1  0  0  0  0
 44 48  1  0  0  0  0
 22 30  1  0  0  0  0
 22 31  1  0  0  0  0
 21 28  1  0  0  0  0
 21 29  1  0  0  0  0
 34 39  1  0  0  0  0
  8 13  1  0  0  0  0
 18 27  1  0  0  0  0
 43 45  1  0  0  0  0
  7 12  1  0  0  0  0
 33 38  1  0  0  0  0
 17 26  1  0  0  0  0
 25 32  1  0  0  0  0
M  END
$$$$

  -OEChem-05262214473D

 48 47  0     1  0  0  0  0  0999 V2000
   -5.5827   -1.3473    1.4591 C   0  0  0  0  0  0  0  0  0  0  0  0
   -5.7053   -2.4696    0.9825 O   0  0  0  0  0  0  0  0  0  0  0  0
   -6.7879   -0.6277    1.9670 C   0  0  0  0  0  0  0  0  0  0  0  0
   -7.2718   -0.0164    1.1885 H   0  0  0  0  0  0  0  0  0  0  0  0
   -7.5699   -1.3171    2.3239 H   0  0  0  0  0  0  0  0  0  0  0  0
   -6.6057    0.0628    2.8060 H   0  0  0  0  0  0  0  0  0  0  0  0
   -4.4001   -0.6377    1.5884 N   0  0  0  0  0  0  0  0  0  0  0  0
   -3.1220   -1.1455    1.1644 C   0  0  2  0  0  0  0  0  0  0  0  0
   -2.2017    0.0428    0.9187 C   0  0  0  0  0  0  0  0  0  0  0  0
   -2.6171    1.1750    0.6807 O   0  0  0  0  0  0  0  0  0  0  0  0
   -3.2533   -1.9992   -0.0873 C   0  0  0  0  0  0  0  0  0  0  0  0
   -4.4370    0.2910    2.0047 H   0  0  0  0  0  0  0  0  0  0  0  0
   -2.7302   -1.7467    1.9921 H   0  0  0  0  0  0  0  0  0  0  0  0
   -3.6446   -1.4140   -0.9275 H   0  0  0  0  0  0  0  0  0  0  0  0
   -2.2844   -2.4081   -0.3922 H   0  0  0  0  0  0  0  0  0  0  0  0
   -3.9388   -2.8365    0.0822 H   0  0  0  0  0  0  0  0  0  0  0  0
   -0.8768   -0.3314    0.9568 N   0  0  0  0  0  0  0  0  0  0  0  0
    0.2067    0.6285    0.7375 C   0  0  2  0  0  0  0  0  0  0  0  0
    1.1934   -0.0449   -0.2114 C   0  0  0  0  0  0  0  0  0  0  0  0
    2.3593   -0.2763    0.1028 O   0  0  0  0  0  0  0  0  0  0  0  0
    0.8474    0.9874    2.0866 C   0  0  0  0  0  0  0  0  0  0  0  0
   -0.0812    1.7682    3.0164 C   0  0  0  0  0  0  0  0  0  0  0  0
    0.5755    2.0801    4.3380 C   0  0  0  0  0  0  0  0  0  0  0  0
    1.6680    1.6425    4.6761 O   0  0  0  0  0  0  0  0  0  0  0  0
   -0.1835    2.8781    5.1288 O   0  0  0  0  0  0  0  0  0  0  0  0
   -0.6087   -1.2764    1.1771 H   0  0  0  0  0  0  0  0  0  0  0  0
   -0.2156    1.5272    0.2760 H   0  0  0  0  0  0  0  0  0  0  0  0
    1.1653    0.0659    2.5922 H   0  0  0  0  0  0  0  0  0  0  0  0
    1.7539    1.5861    1.9274 H   0  0  0  0  0  0  0  0  0  0  0  0
   -0.3409    2.7295    2.5563 H   0  0  0  0  0  0  0  0  0  0  0  0
   -1.0337    1.2513    3.1727 H   0  0  0  0  0  0  0  0  0  0  0  0
    0.1996    3.0901    6.0064 H   0  0  0  0  0  0  0  0  0  0  0  0
    0.6141   -0.3791   -1.4266 N   0  0  0  0  0  0  0  0  0  0  0  0
    1.3368   -1.0281   -2.4967 C   0  0  2  0  0  0  0  0  0  0  0  0
    1.8607    0.0525   -3.4334 C   0  0  0  0  0  0  0  0  0  0  0  0
    1.3656    1.1753   -3.5056 O   0  0  0  0  0  0  0  0  0  0  0  0
    0.4517   -2.0132   -3.2443 C   0  0  0  0  0  0  0  0  0  0  0  0
   -0.3662   -0.1568   -1.5715 H   0  0  0  0  0  0  0  0  0  0  0  0
    2.1806   -1.5530   -2.0357 H   0  0  0  0  0  0  0  0  0  0  0  0
   -0.3992   -1.5056   -3.7130 H   0  0  0  0  0  0  0  0  0  0  0  0
    1.0085   -2.5249   -4.0363 H   0  0  0  0  0  0  0  0  0  0  0  0
    0.0519   -2.7724   -2.5634 H   0  0  0  0  0  0  0  0  0  0  0  0
    2.9186   -0.3983   -4.2104 N   0  0  0  0  0  0  0  0  0  0  0  0
    3.5803    0.4360   -5.1861 C   0  0  0  0  0  0  0  0  0  0  0  0
    3.2763   -1.3386   -4.0702 H   0  0  0  0  0  0  0  0  0  0  0  0
    3.1087    0.2951   -6.1699 H   0  0  0  0  0  0  0  0  0  0  0  0
    3.4935    1.4906   -4.8857 H   0  0  0  0  0  0  0  0  0  0  0  0
    4.6429    0.1580   -5.2458 H   0  0  0  0  0  0  0  0  0  0  0  0
  1  3  1  0  0  0  0
  1  7  1  0  0  0  0
  1  2  2  0  0  0  0
 34 35  1  0  0  0  0
 35 43  1  0  0  0  0
 35 36  2  0  0  0  0
  8  9  1  0  0  0  0
  9 17  1  0  0  0  0
  9 10  2  0  0  0  0
 18 19  1  0  0  0  0
 19 33  1  0  0  0  0
 19 20  2  0  0  0  0
 22 23  1  0  0  0  0
 23 24  2  0  0  0  0
 23 25  1  0  0  0  0
 34 37  1  0  0  0  0
  8 11  1  0  0  0  0
 43 44  1  0  0  0  0
 21 22  1  0  0  0  0
 18 21  1  0  0  0  0
 33 34  1  0  0  0  0
  7  8  1  0  0  0  0
 17 18  1  0  0  0  0
  3  4  1  0  0  0  0
  3  5  1  0  0  0  0
  3  6  1  0  0  0  0
 37 40  1  0  0  0  0
 37 41  1  0  0  0  0
 37 42  1  0  0  0  0
 11 14  1  0  0  0  0
 11 15  1  0  0  0  0
 11 16  1  0  0  0  0
 44 46  1  0  0  0  0
 44 47  1  0  0  0  0
 44 48  1  0  0  0  0
 22 30  1  0  0  0  0
 22 31  1  0  0  0  0
 21 28  1  0  0  0  0
 21 29  1  0  0  0  0
 34 39  1  0  0  0  0
  8 13  1  0  0  0  0
 18 27  1  0  0  0  0
 43 45  1  0  0  0  0
  7 12  1  0  0  0  0
 33 38  1  0  0  0  0
 17 26  1  0  0  0  0
 25 32  1  0  0  0  0
M  END
$$$$

  -OEChem-05262214473D

 48 47  0     1  0  0  0  0  0999 V2000
   -5.5827   -1.3473    1.4591 C   0  0  0  0  0  0  0  0  0  0  0  0
   -5.7053   -2.4696    0.9825 O   0  0  0  0  0  0  0  0  0  0  0  0
   -6.7879   -0.6277    1.9670 C   0  0  0  0  0  0  0  0  0  0  0  0
   -7.2718   -0.0164    1.1885 H   0  0  0  0  0  0  0  0  0  0  0  0
   -7.5699   -1.3171    2.3239 H   0  0  0  0  0  0  0  0  0  0  0  0
   -6.6057    0.0628    2.8060 H   0  0  0  0  0  0  0  0  0  0  0  0
   -4.4001   -0.6377    1.5884 N   0  0  0  0  0  0  0  0  0  0  0  0
   -3.1220   -1.1455    1.1644 C   0  0  2  0  0  0  0  0  0  0  0  0
   -2.2017    0.0428    0.9187 C   0  0  0  0  0  0  0  0  0  0  0  0
   -2.6171    1.1750    0.6807 O   0  0  0  0  0  0  0  0  0  0  0  0
   -3.2533   -1.9992   -0.0873 C   0  0  0  0  0  0  0  0  0  0  0  0
   -4.4370    0.2910    2.0047 H   0  0  0  0  0  0  0  0  0  0  0  0
   -2.7302   -1.7467    1.9921 H   0  0  0  0  0  0  0  0  0  0  0  0
   -3.6446   -1.4140   -0.9275 H   0  0  0  0  0  0  0  0  0  0  0  0
   -2.2844   -2.4081   -0.3922 H   0  0  0  0  0  0  0  0  0  0  0  0
   -3.9388   -2.8365    0.0822 H   0  0  0  0  0  0  0  0  0  0  0  0
   -0.8768   -0.3314    0.9568 N   0  0  0  0  0  0  0  0  0  0  0  0
    0.2067    0.6285    0.7375 C   0  0  2  0  0  0  0  0  0  0  0  0
    1.1934   -0.0449   -0.2114 C   0  0  0  0  0  0  0  0  0  0  0  0
    2.2610   -0.5186    0.1725 O   0  0  0  0  0  0  0  0  0  0  0  0
    0.8474    0.9874    2.0866 C   0  0  0  0  0  0  0  0  0  0  0  0
   -0.0812    1.7682    3.0164 C   0  0  0  0  0  0  0  0  0  0  0  0
    0.5755    2.0801    4.3380 C   0  0  0  0  0  0  0  0  0  0  0  0
    1.6680    1.6425    4.6761 O   0  0  0  0  0  0  0  0  0  0  0  0
   -0.1835    2.8781    5.1288 O   0  0  0  0  0  0  0  0  0  0  0  0
   -0.6087   -1.2764    1.1771 H   0  0  0  0  0  0  0  0  0  0  0  0
   -0.2156    1.5272    0.2760 H   0  0  0  0  0  0  0  0  0  0  0  0
    1.1653    0.0659    2.5922 H   0  0  0  0  0  0  0  0  0  0  0  0
    1.7539    1.5861    1.9274 H   0  0  0  0  0  0  0  0  0  0  0  0
   -0.3409    2.7295    2.5563 H   0  0  0  0  0  0  0  0  0  0  0  0
   -1.0337    1.2513    3.1727 H   0  0  0  0  0  0  0  0  0  0  0  0
    0.1996    3.0901    6.0064 H   0  0  0  0  0  0  0  0  0  0  0  0
    0.7305   -0.0790   -1.5185 N   0  0  0  0  0  0  0  0  0  0  0  0
    1.4777   -0.6644   -2.6083 C   0  0  2  0  0  0  0  0  0  0  0  0
    2.2744    0.4451   -3.2818 C   0  0  0  0  0  0  0  0  0  0  0  0
    1.9682    1.6331   -3.2038 O   0  0  0  0  0  0  0  0  0  0  0  0
    0.5568   -1.3533   -3.6034 C   0  0  0  0  0  0  0  0  0  0  0  0
   -0.1782    0.3275   -1.7196 H   0  0  0  0  0  0  0  0  0  0  0  0
    2.1663   -1.3918   -2.1648 H   0  0  0  0  0  0  0  0  0  0  0  0
   -0.1405   -0.6402   -4.0582 H   0  0  0  0  0  0  0  0  0  0  0  0
    1.1265   -1.8208   -4.4133 H   0  0  0  0  0  0  0  0  0  0  0  0
   -0.0370   -2.1310   -3.1111 H   0  0  0  0  0  0  0  0  0  0  0  0
    3.3427   -0.0511   -4.0158 N   0  0  0  0  0  0  0  0  0  0  0  0
    4.2423    0.8015   -4.7572 C   0  0  0  0  0  0  0  0  0  0  0  0
    3.5331   -1.0488   -4.0089 H   0  0  0  0  0  0  0  0  0  0  0  0
    3.8846    0.9005   -5.7927 H   0  0  0  0  0  0  0  0  0  0  0  0
    4.2783    1.7946   -4.2854 H   0  0  0  0  0  0  0  0  0  0  0  0
    5.2494    0.3592   -4.7580 H   0  0  0  0  0  0  0  0  0  0  0  0
  1  3  1  0  0  0  0
  1  7  1  0  0  0  0
  1  2  2  0  0  0  0
 34 35  1  0  0  0  0
 35 43  1  0  0  0  0
 35 36  2  0  0  0  0
  8  9  1  0  0  0  0
  9 17  1  0  0  0  0
  9 10  2  0  0  0  0
 18 19  1  0  0  0  0
 19 33  1  0  0  0  0
 19 20  2  0  0  0  0
 22 23  1  0  0  0  0
 23 24  2  0  0  0  0
 23 25  1  0  0  0  0
 34 37  1  0  0  0  0
  8 11  1  0  0  0  0
 43 44  1  0  0  0  0
 21 22  1  0  0  0  0
 18 21  1  0  0  0  0
 33 34  1  0  0  0  0
  7  8  1  0  0  0  0
 17 18  1  0  0  0  0
  3  4  1  0  0  0  0
  3  5  1  0  0  0  0
  3  6  1  0  0  0  0
 37 40  1  0  0  0  0
 37 41  1  0  0  0  0
 37 42  1  0  0  0  0
 11 14  1  0  0  0  0
 11 15  1  0  0  0  0
 11 16  1  0  0  0  0
 44 46  1  0  0  0  0
 44 47  1  0  0  0  0
 44 48  1  0  0  0  0
 22 30  1  0  0  0  0
 22 31  1  0  0  0  0
 21 28  1  0  0  0  0
 21 29  1  0  0  0  0
 34 39  1  0  0  0  0
  8 13  1  0  0  0  0
 18 27  1  0  0  0  0
 43 45  1  0  0  0  0
  7 12  1  0  0  0  0
 33 38  1  0  0  0  0
 17 26  1  0  0  0  0
 25 32  1  0  0  0  0
M  END
$$$$

  -OEChem-05262214473D

 48 47  0     1  0  0  0  0  0999 V2000
   -5.5827   -1.3473    1.4591 C   0  0  0  0  0  0  0  0  0  0  0  0
   -5.7053   -2.4696    0.9825 O   0  0  0  0  0  0  0  0  0  0  0  0
   -6.7879   -0.6277    1.9670 C   0  0  0  0  0  0  0  0  0  0  0  0
   -7.2718   -0.0164    1.1885 H   0  0  0  0  0  0  0  0  0  0  0  0
   -7.5699   -1.3171    2.3239 H   0  0  0  0  0  0  0  0  0  0  0  0
   -6.6057    0.0628    2.8060 H   0  0  0  0  0  0  0  0  0  0  0  0
   -4.4001   -0.6377    1.5884 N   0  0  0  0  0  0  0  0  0  0  0  0
   -3.1220   -1.1455    1.1644 C   0  0  2  0  0  0  0  0  0  0  0  0
   -2.2017    0.0428    0.9187 C   0  0  0  0  0  0  0  0  0  0  0  0
   -2.6171    1.1750    0.6807 O   0  0  0  0  0  0  0  0  0  0  0  0
   -3.2533   -1.9992   -0.0873 C   0  0  0  0  0  0  0  0  0  0  0  0
   -4.4370    0.2910    2.0047 H   0  0  0  0  0  0  0  0  0  0  0  0
   -2.7302   -1.7467    1.9921 H   0  0  0  0  0  0  0  0  0  0  0  0
   -3.6446   -1.4140   -0.9275 H   0  0  0  0  0  0  0  0  0  0  0  0
   -2.2844   -2.4081   -0.3922 H   0  0  0  0  0  0  0  0  0  0  0  0
   -3.9388   -2.8365    0.0822 H   0  0  0  0  0  0  0  0  0  0  0  0
   -0.8768   -0.3314    0.9568 N   0  0  0  0  0  0  0  0  0  0  0  0
    0.2067    0.6285    0.7375 C   0  0  2  0  0  0  0  0  0  0  0  0
    1.1934   -0.0449   -0.2114 C   0  0  0  0  0  0  0  0  0  0  0  0
    2.1190   -0.7485    0.1881 O   0  0  0  0  0  0  0  0  0  0  0  0
    0.8474    0.9874    2.0866 C   0  0  0  0  0  0  0  0  0  0  0  0
   -0.0812    1.7682    3.0164 C   0  0  0  0  0  0  0  0  0  0  0  0
    0.5755    2.0801    4.3380 C   0  0  0  0  0  0  0  0  0  0  0  0
    1.6680    1.6425    4.6761 O   0  0  0  0  0  0  0  0  0  0  0  0
   -0.1835    2.8781    5.1288 O   0  0  0  0  0  0  0  0  0  0  0  0
   -0.6087   -1.2764    1.1771 H   0  0  0  0  0  0  0  0  0  0  0  0
   -0.2156    1.5272    0.2760 H   0  0  0  0  0  0  0  0  0  0  0  0
    1.1653    0.0659    2.5922 H   0  0  0  0  0  0  0  0  0  0  0  0
    1.7539    1.5861    1.9274 H   0  0  0  0  0  0  0  0  0  0  0  0
   -0.3409    2.7295    2.5563 H   0  0  0  0  0  0  0  0  0  0  0  0
   -1.0337    1.2513    3.1727 H   0  0  0  0  0  0  0  0  0  0  0  0
    0.1996    3.0901    6.0064 H   0  0  0  0  0  0  0  0  0  0  0  0
    0.9018    0.2075   -1.5438 N   0  0  0  0  0  0  0  0  0  0  0  0
    1.6850   -0.3172   -2.6392 C   0  0  2  0  0  0  0  0  0  0  0  0
    2.7200    0.7324   -3.0224 C   0  0  0  0  0  0  0  0  0  0  0  0
    2.5896    1.9277   -2.7668 O   0  0  0  0  0  0  0  0  0  0  0  0
    0.8056   -0.6726   -3.8278 C   0  0  0  0  0  0  0  0  0  0  0  0
    0.0983    0.7897   -1.7602 H   0  0  0  0  0  0  0  0  0  0  0  0
    2.1933   -1.2122   -2.2643 H   0  0  0  0  0  0  0  0  0  0  0  0
    0.2881    0.2117   -4.2171 H   0  0  0  0  0  0  0  0  0  0  0  0
    1.3968   -1.0966   -4.6462 H   0  0  0  0  0  0  0  0  0  0  0  0
    0.0429   -1.4054   -3.5430 H   0  0  0  0  0  0  0  0  0  0  0  0
    3.7859    0.1834   -3.7214 N   0  0  0  0  0  0  0  0  0  0  0  0
    4.8915    0.9763   -4.2061 C   0  0  0  0  0  0  0  0  0  0  0  0
    3.8208   -0.8206   -3.8717 H   0  0  0  0  0  0  0  0  0  0  0  0
    4.6884    1.2972   -5.2385 H   0  0  0  0  0  0  0  0  0  0  0  0
    5.0167    1.8614   -3.5650 H   0  0  0  0  0  0  0  0  0  0  0  0
    5.8119    0.3742   -4.1838 H   0  0  0  0  0  0  0  0  0  0  0  0
  1  3  1  0  0  0  0
  1  7  1  0  0  0  0
  1  2  2  0  0  0  0
 34 35  1  0  0  0  0
 35 43  1  0  0  0  0
 35 36  2  0  0  0  0
  8  9  1  0  0  0  0
  9 17  1  0  0  0  0
  9 10  2  0  0  0  0
 18 19  1  0  0  0  0
 19 33  1  0  0  0  0
 19 20  2  0  0  0  0
 22 23  1  0  0  0  0
 23 24  2  0  0  0  0
 23 25  1  0  0  0  0
 34 37  1  0  0  0  0
  8 11  1  0  0  0  0
 43 44  1  0  0  0  0
 21 22  1  0  0  0  0
 18 21  1  0  0  0  0
 33 34  1  0  0  0  0
  7  8  1  0  0  0  0
 17 18  1  0  0  0  0
  3  4  1  0  0  0  0
  3  5  1  0  0  0  0
  3  6  1  0  0  0  0
 37 40  1  0  0  0  0
 37 41  1  0  0  0  0
 37 42  1  0  0  0  0
 11 14  1  0  0  0  0
 11 15  1  0  0  0  0
 11 16  1  0  0  0  0
 44 46  1  0  0  0  0
 44 47  1  0  0  0  0
 44 48  1  0  0  0  0
 22 30  1  0  0  0  0
 22 31  1  0  0  0  0
 21 28  1  0  0  0  0
 21 29  1  0  0  0  0
 34 39  1  0  0  0  0
  8 13  1  0  0  0  0
 18 27  1  0  0  0  0
 43 45  1  0  0  0  0
  7 12  1  0  0  0  0
 33 38  1  0  0  0  0
 17 26  1  0  0  0  0
 25 32  1  0  0  0  0
M  END
$$$$

  -OEChem-05262214473D

 48 47  0     1  0  0  0  0  0999 V2000
   -5.5827   -1.3473    1.4591 C   0  0  0  0  0  0  0  0  0  0  0  0
   -5.7053   -2.4696    0.9825 O   0  0  0  0  0  0  0  0  0  0  0  0
   -6.7879   -0.6277    1.9670 C   0  0  0  0  0  0  0  0  0  0  0  0
   -7.2718   -0.0164    1.1885 H   0  0  0  0  0  0  0  0  0  0  0  0
   -7.5699   -1.3171    2.3239 H   0  0  0  0  0  0  0  0  0  0  0  0
   -6.6057    0.0628    2.8060 H   0  0  0  0  0  0  0  0  0  0  0  0
   -4.4001   -0.6377    1.5884 N   0  0  0  0  0  0  0  0  0  0  0  0
   -3.1220   -1.1455    1.1644 C   0  0  2  0  0  0  0  0  0  0  0  0
   -2.2017    0.0428    0.9187 C   0  0  0  0  0  0  0  0  0  0  0  0
   -2.6171    1.1750    0.6807 O   0  0  0  0  0  0  0  0  0  0  0  0
   -3.2533   -1.9992   -0.0873 C   0  0  0  0  0  0  0  0  0  0  0  0
   -4.4370    0.2910    2.0047 H   0  0  0  0  0  0  0  0  0  0  0  0
   -2.7302   -1.7467    1.9921 H   0  0  0  0  0  0  0  0  0  0  0  0
   -3.6446   -1.4140   -0.9275 H   0  0  0  0  0  0  0  0  0  0  0  0
   -2.2844   -2.4081   -0.3922 H   0  0  0  0  0  0  0  0  0  0  0  0
   -3.9388   -2.8365    0.0822 H   0  0  0  0  0  0  0  0  0  0  0  0
   -0.8768   -0.3314    0.9568 N   0  0  0  0  0  0  0  0  0  0  0  0
    0.2067    0.6285    0.7375 C   0  0  2  0  0  0  0  0  0  0  0  0
    1.1934   -0.0449   -0.2114 C   0  0  0  0  0  0  0  0  0  0  0  0
    1.9431   -0.9504    0.1484 O   0  0  0  0  0  0  0  0  0  0  0  0
    0.8474    0.9874    2.0866 C   0  0  0  0  0  0  0  0  0  0  0  0
   -0.0812    1.7682    3.0164 C   0  0  0  0  0  0  0  0  0  0  0  0
    0.5755    2.0801    4.3380 C   0  0  0  0  0  0  0  0  0  0  0  0
    1.6680    1.6425    4.6761 O   0  0  0  0  0  0  0  0  0  0  0  0
   -0.1835    2.8781    5.1288 O   0  0  0  0  0  0  0  0  0  0  0  0
   -0.6087   -1.2764    1.1771 H   0  0  0  0  0  0  0  0  0  0  0  0
   -0.2156    1.5272    0.2760 H   0  0  0  0  0  0  0  0  0  0  0  0
    1.1653    0.0659    2.5922 H   0  0  0  0  0  0  0  0  0  0  0  0
    1.7539    1.5861    1.9274 H   0  0  0  0  0  0  0  0  0  0  0  0
   -0.3409    2.7295    2.5563 H   0  0  0  0  0  0  0  0  0  0  0  0
   -1.0337    1.2513    3.1727 H   0  0  0  0  0  0  0  0  0  0  0  0
    0.1996    3.0901    6.0064 H   0  0  0  0  0  0  0  0  0  0  0  0
    1.1162    0.4610   -1.5006 N   0  0  0  0  0  0  0  0  0  0  0  0
    1.9448   -0.0099   -2.5871 C   0  0  2  0  0  0  0  0  0  0  0  0
    3.1670    0.8947   -2.6728 C   0  0  0  0  0  0  0  0  0  0  0  0
    3.1872    2.0391   -2.2243 O   0  0  0  0  0  0  0  0  0  0  0  0
    1.1810   -0.0177   -3.9022 C   0  0  0  0  0  0  0  0  0  0  0  0
    0.4444    1.1985   -1.6904 H   0  0  0  0  0  0  0  0  0  0  0  0
    2.2596   -1.0265   -2.3272 H   0  0  0  0  0  0  0  0  0  0  0  0
    0.8574    0.9923   -4.1791 H   0  0  0  0  0  0  0  0  0  0  0  0
    1.8012   -0.4016   -4.7189 H   0  0  0  0  0  0  0  0  0  0  0  0
    0.2862   -0.6452   -3.8295 H   0  0  0  0  0  0  0  0  0  0  0  0
    4.2182    0.2893   -3.3470 N   0  0  0  0  0  0  0  0  0  0  0  0
    5.4838    0.9483   -3.5703 C   0  0  0  0  0  0  0  0  0  0  0  0
    4.1198   -0.6693   -3.6682 H   0  0  0  0  0  0  0  0  0  0  0  0
    5.4653    1.4582   -4.5448 H   0  0  0  0  0  0  0  0  0  0  0  0
    5.6583    1.6864   -2.7736 H   0  0  0  0  0  0  0  0  0  0  0  0
    6.2920    0.2021   -3.5623 H   0  0  0  0  0  0  0  0  0  0  0  0
  1  3  1  0  0  0  0
  1  7  1  0  0  0  0
  1  2  2  0  0  0  0
 34 35  1  0  0  0  0
 35 43  1  0  0  0  0
 35 36  2  0  0  0  0
  8  9  1  0  0  0  0
  9 17  1  0  0  0  0
  9 10  2  0  0  0  0
 18 19  1  0  0  0  0
 19 33  1  0  0  0  0
 19 20  2  0  0  0  0
 22 23  1  0  0  0  0
 23 24  2  0  0  0  0
 23 25  1  0  0  0  0
 34 37  1  0  0  0  0
  8 11  1  0  0  0  0
 43 44  1  0  0  0  0
 21 22  1  0  0  0  0
 18 21  1  0  0  0  0
 33 34  1  0  0  0  0
  7  8  1  0  0  0  0
 17 18  1  0  0  0  0
  3  4  1  0  0  0  0
  3  5  1  0  0  0  0
  3  6  1  0  0  0  0
 37 40  1  0  0  0  0
 37 41  1  0  0  0  0
 37 42  1  0  0  0  0
 11 14  1  0  0  0  0
 11 15  1  0  0  0  0
 11 16  1  0  0  0  0
 44 46  1  0  0  0  0
 44 47  1  0  0  0  0
 44 48  1  0  0  0  0
 22 30  1  0  0  0  0
 22 31  1  0  0  0  0
 21 28  1  0  0  0  0
 21 29  1  0  0  0  0
 34 39  1  0  0  0  0
  8 13  1  0  0  0  0
 18 27  1  0  0  0  0
 43 45  1  0  0  0  0
  7 12  1  0  0  0  0
 33 38  1  0  0  0  0
 17 26  1  0  0  0  0
 25 32  1  0  0  0  0
M  END
$$$$

  -OEChem-05262214473D

 48 47  0     1  0  0  0  0  0999 V2000
   -5.5827   -1.3473    1.4591 C   0  0  0  0  0  0  0  0  0  0  0  0
   -5.7053   -2.4696    0.9825 O   0  0  0  0  0  0  0  0  0  0  0  0
   -6.7879   -0.6277    1.9670 C   0  0  0  0  0  0  0  0  0  0  0  0
   -7.2718   -0.0164    1.1885 H   0  0  0  0  0  0  0  0  0  0  0  0
   -7.5699   -1.3171    2.3239 H   0  0  0  0  0  0  0  0  0  0  0  0
   -6.6057    0.0628    2.8060 H   0  0  0  0  0  0  0  0  0  0  0  0
   -4.4001   -0.6377    1.5884 N   0  0  0  0  0  0  0  0  0  0  0  0
   -3.1220   -1.1455    1.1644 C   0  0  2  0  0  0  0  0  0  0  0  0
   -2.2017    0.0428    0.9187 C   0  0  0  0  0  0  0  0  0  0  0  0
   -2.6171    1.1750    0.6807 O   0  0  0  0  0  0  0  0  0  0  0  0
   -3.2533   -1.9992   -0.0873 C   0  0  0  0  0  0  0  0  0  0  0  0
   -4.4370    0.2910    2.0047 H   0  0  0  0  0  0  0  0  0  0  0  0
   -2.7302   -1.7467    1.9921 H   0  0  0  0  0  0  0  0  0  0  0  0
   -3.6446   -1.4140   -0.9275 H   0  0  0  0  0  0  0  0  0  0  0  0
   -2.2844   -2.4081   -0.3922 H   0  0  0  0  0  0  0  0  0  0  0  0
   -3.9388   -2.8365    0.0822 H   0  0  0  0  0  0  0  0  0  0  0  0
   -0.8768   -0.3314    0.9568 N   0  0  0  0  0  0  0  0  0  0  0  0
    0.2067    0.6285    0.7375 C   0  0  2  0  0  0  0  0  0  0  0  0
    1.1934   -0.0449   -0.2114 C   0  0  0  0  0  0  0  0  0  0  0  0
    1.7453   -1.1104    0.0563 O   0  0  0  0  0  0  0  0  0  0  0  0
    0.8474    0.9874    2.0866 C   0  0  0  0  0  0  0  0  0  0  0  0
   -0.0812    1.7682    3.0164 C   0  0  0  0  0  0  0  0  0  0  0  0
    0.5755    2.0801    4.3380 C   0  0  0  0  0  0  0  0  0  0  0  0
    1.6680    1.6425    4.6761 O   0  0  0  0  0  0  0  0  0  0  0  0
   -0.1835    2.8781    5.1288 O   0  0  0  0  0  0  0  0  0  0  0  0
   -0.6087   -1.2764    1.1771 H   0  0  0  0  0  0  0  0  0  0  0  0
   -0.2156    1.5272    0.2760 H   0  0  0  0  0  0  0  0  0  0  0  0
    1.1653    0.0659    2.5922 H   0  0  0  0  0  0  0  0  0  0  0  0
    1.7539    1.5861    1.9274 H   0  0  0  0  0  0  0  0  0  0  0  0
   -0.3409    2.7295    2.5563 H   0  0  0  0  0  0  0  0  0  0  0  0
   -1.0337    1.2513    3.1727 H   0  0  0  0  0  0  0  0  0  0  0  0
    0.1996    3.0901    6.0064 H   0  0  0  0  0  0  0  0  0  0  0  0
    1.3592    0.6640   -1.3920 N   0  0  0  0  0  0  0  0  0  0  0  0
    2.2391    0.2363   -2.4558 C   0  0  2  0  0  0  0  0  0  0  0  0
    3.5849    0.9210   -2.2568 C   0  0  0  0  0  0  0  0  0  0  0  0
    3.7205    1.9597   -1.6135 O   0  0  0  0  0  0  0  0  0  0  0  0
    1.6576    0.5670   -3.8215 C   0  0  0  0  0  0  0  0  0  0  0  0
    0.8366    1.5260   -1.5150 H   0  0  0  0  0  0  0  0  0  0  0  0
    2.3607   -0.8472   -2.3493 H   0  0  0  0  0  0  0  0  0  0  0  0
    1.5286    1.6483   -3.9467 H   0  0  0  0  0  0  0  0  0  0  0  0
    2.3119    0.2168   -4.6267 H   0  0  0  0  0  0  0  0  0  0  0  0
    0.6763    0.0980   -3.9512 H   0  0  0  0  0  0  0  0  0  0  0  0
    4.6100    0.2593   -2.9183 N   0  0  0  0  0  0  0  0  0  0  0  0
    5.9788    0.7195   -2.8933 C   0  0  0  0  0  0  0  0  0  0  0  0
    4.4096   -0.6054   -3.4121 H   0  0  0  0  0  0  0  0  0  0  0  0
    6.1625    1.3726   -3.7591 H   0  0  0  0  0  0  0  0  0  0  0  0
    6.1595    1.2817   -1.9652 H   0  0  0  0  0  0  0  0  0  0  0  0
    6.6571   -0.1454   -2.9361 H   0  0  0  0  0  0  0  0  0  0  0  0
  1  3  1  0  0  0  0
  1  7  1  0  0  0  0
  1  2  2  0  0  0  0
 34 35  1  0  0  0  0
 35 43  1  0  0  0  0
 35 36  2  0  0  0  0
  8  9  1  0  0  0  0
  9 17  1  0  0  0  0
  9 10  2  0  0  0  0
 18 19  1  0  0  0  0
 19 33  1  0  0  0  0
 19 20  2  0  0  0  0
 22 23  1  0  0  0  0
 23 24  2  0  0  0  0
 23 25  1  0  0  0  0
 34 37  1  0  0  0  0
  8 11  1  0  0  0  0
 43 44  1  0  0  0  0
 21 22  1  0  0  0  0
 18 21  1  0  0  0  0
 33 34  1  0  0  0  0
  7  8  1  0  0  0  0
 17 18  1  0  0  0  0
  3  4  1  0  0  0  0
  3  5  1  0  0  0  0
  3  6  1  0  0  0  0
 37 40  1  0  0  0  0
 37 41  1  0  0  0  0
 37 42  1  0  0  0  0
 11 14  1  0  0  0  0
 11 15  1  0  0  0  0
 11 16  1  0  0  0  0
 44 46  1  0  0  0  0
 44 47  1  0  0  0  0
 44 48  1  0  0  0  0
 22 30  1  0  0  0  0
 22 31  1  0  0  0  0
 21 28  1  0  0  0  0
 21 29  1  0  0  0  0
 34 39  1  0  0  0  0
  8 13  1  0  0  0  0
 18 27  1  0  0  0  0
 43 45  1  0  0  0  0
  7 12  1  0  0  0  0
 33 38  1  0  0  0  0
 17 26  1  0  0  0  0
 25 32  1  0  0  0  0
M  END
$$$$

  -OEChem-05262214473D

 48 47  0     1  0  0  0  0  0999 V2000
   -5.5827   -1.3473    1.4591 C   0  0  0  0  0  0  0  0  0  0  0  0
   -5.7053   -2.4696    0.9825 O   0  0  0  0  0  0  0  0  0  0  0  0
   -6.7879   -0.6277    1.9670 C   0  0  0  0  0  0  0  0  0  0  0  0
   -7.2718   -0.0164    1.1885 H   0  0  0  0  0  0  0  0  0  0  0  0
   -7.5699   -1.3171    2.3239 H   0  0  0  0  0  0  0  0  0  0  0  0
   -6.6057    0.0628    2.8060 H   0  0  0  0  0  0  0  0  0  0  0  0
   -4.4001   -0.6377    1.5884 N   0  0  0  0  0  0  0  0  0  0  0  0
   -3.1220   -1.1455    1.1644 C   0  0  2  0  0  0  0  0  0  0  0  0
   -2.2017    0.0428    0.9187 C   0  0  0  0  0  0  0  0  0  0  0  0
   -2.6171    1.1750    0.6807 O   0  0  0  0  0  0  0  0  0  0  0  0
   -3.2533   -1.9992   -0.0873 C   0  0  0  0  0  0  0  0  0  0  0  0
   -4.4370    0.2910    2.0047 H   0  0  0  0  0  0  0  0  0  0  0  0
   -2.7302   -1.7467    1.9921 H   0  0  0  0  0  0  0  0  0  0  0  0
   -3.6446   -1.4140   -0.9275 H   0  0  0  0  0  0  0  0  0  0  0  0
   -2.2844   -2.4081   -0.3922 H   0  0  0  0  0  0  0  0  0  0  0  0
   -3.9388   -2.8365    0.0822 H   0  0  0  0  0  0  0  0  0  0  0  0
   -0.8768   -0.3314    0.9568 N   0  0  0  0  0  0  0  0  0  0  0  0
    0.2067    0.6285    0.7375 C   0  0  2  0  0  0  0  0  0  0  0  0
    1.1934   -0.0449   -0.2114 C   0  0  0  0  0  0  0  0  0  0  0  0
    1.5389   -1.2177   -0.0822 O   0  0  0  0  0  0  0  0  0  0  0  0
    0.8474    0.9874    2.0866 C   0  0  0  0  0  0  0  0  0  0  0  0
   -0.0812    1.7682    3.0164 C   0  0  0  0  0  0  0  0  0  0  0  0
    0.5755    2.0801    4.3380 C   0  0  0  0  0  0  0  0  0  0  0  0
    1.6680    1.6425    4.6761 O   0  0  0  0  0  0  0  0  0  0  0  0
   -0.1835    2.8781    5.1288 O   0  0  0  0  0  0  0  0  0  0  0  0
   -0.6087   -1.2764    1.1771 H   0  0  0  0  0  0  0  0  0  0  0  0
   -0.2156    1.5272    0.2760 H   0  0  0  0  0  0  0  0  0  0  0  0
    1.1653    0.0659    2.5922 H   0  0  0  0  0  0  0  0  0  0  0  0
    1.7539    1.5861    1.9274 H   0  0  0  0  0  0  0  0  0  0  0  0
   -0.3409    2.7295    2.5563 H   0  0  0  0  0  0  0  0  0  0  0  0
   -1.0337    1.2513    3.1727 H   0  0  0  0  0  0  0  0  0  0  0  0
    0.1996    3.0901    6.0064 H   0  0  0  0  0  0  0  0  0  0  0  0
    1.6142    0.8028   -1.2254 N   0  0  0  0  0  0  0  0  0  0  0  0
    2.5481    0.4048   -2.2540 C   0  0  2  0  0  0  0  0  0  0  0  0
    3.9453    0.8095   -1.8029 C   0  0  0  0  0  0  0  0  0  0  0  0
    4.1530    1.6949   -0.9758 O   0  0  0  0  0  0  0  0  0  0  0  0
    2.2029    1.0415   -3.5913 C   0  0  0  0  0  0  0  0  0  0  0  0
    1.2481    1.7498   -1.2460 H   0  0  0  0  0  0  0  0  0  0  0  0
    2.4898   -0.6866   -2.3291 H   0  0  0  0  0  0  0  0  0  0  0  0
    2.2560    2.1349   -3.5357 H   0  0  0  0  0  0  0  0  0  0  0  0
    2.8943    0.7165   -4.3757 H   0  0  0  0  0  0  0  0  0  0  0  0
    1.1867    0.7734   -3.8998 H   0  0  0  0  0  0  0  0  0  0  0  0
    4.9346    0.0955   -2.4645 N   0  0  0  0  0  0  0  0  0  0  0  0
    6.3427    0.3055   -2.2210 C   0  0  0  0  0  0  0  0  0  0  0  0
    4.6706   -0.6332   -3.1210 H   0  0  0  0  0  0  0  0  0  0  0  0
    6.7323    1.0461   -2.9349 H   0  0  0  0  0  0  0  0  0  0  0  0
    6.4861    0.6747   -1.1948 H   0  0  0  0  0  0  0  0  0  0  0  0
    6.8822   -0.6447   -2.3476 H   0  0  0  0  0  0  0  0  0  0  0  0
  1  3  1  0  0  0  0
  1  7  1  0  0  0  0
  1  2  2  0  0  0  0
 34 35  1  0  0  0  0
 35 43  1  0  0  0  0
 35 36  2  0  0  0  0
  8  9  1  0  0  0  0
  9 17  1  0  0  0  0
  9 10  2  0  0  0  0
 18 19  1  0  0  0  0
 19 33  1  0  0  0  0
 19 20  2  0  0  0  0
 22 23  1  0  0  0  0
 23 24  2  0  0  0  0
 23 25  1  0  0  0  0
 34 37  1  0  0  0  0
  8 11  1  0  0  0  0
 43 44  1  0  0  0  0
 21 22  1  0  0  0  0
 18 21  1  0  0  0  0
 33 34  1  0  0  0  0
  7  8  1  0  0  0  0
 17 18  1  0  0  0  0
  3  4  1  0  0  0  0
  3  5  1  0  0  0  0
  3  6  1  0  0  0  0
 37 40  1  0  0  0  0
 37 41  1  0  0  0  0
 37 42  1  0  0  0  0
 11 14  1  0  0  0  0
 11 15  1  0  0  0  0
 11 16  1  0  0  0  0
 44 46  1  0  0  0  0
 44 47  1  0  0  0  0
 44 48  1  0  0  0  0
 22 30  1  0  0  0  0
 22 31  1  0  0  0  0
 21 28  1  0  0  0  0
 21 29  1  0  0  0  0
 34 39  1  0  0  0  0
  8 13  1  0  0  0  0
 18 27  1  0  0  0  0
 43 45  1  0  0  0  0
  7 12  1  0  0  0  0
 33 38  1  0  0  0  0
 17 26  1  0  0  0  0
 25 32  1  0  0  0  0
M  END
$$$$

  -OEChem-05262214473D

 48 47  0     1  0  0  0  0  0999 V2000
   -5.5827   -1.3473    1.4591 C   0  0  0  0  0  0  0  0  0  0  0  0
   -5.7053   -2.4696    0.9825 O   0  0  0  0  0  0  0  0  0  0  0  0
   -6.7879   -0.6277    1.9670 C   0  0  0  0  0  0  0  0  0  0  0  0
   -7.2718   -0.0164    1.1885 H   0  0  0  0  0  0  0  0  0  0  0  0
   -7.5699   -1.3171    2.3239 H   0  0  0  0  0  0  0  0  0  0  0  0
   -6.6057    0.0628    2.8060 H   0  0  0  0  0  0  0  0  0  0  0  0
   -4.4001   -0.6377    1.5884 N   0  0  0  0  0  0  0  0  0  0  0  0
   -3.1220   -1.1455    1.1644 C   0  0  2  0  0  0  0  0  0  0  0  0
   -2.2017    0.0428    0.9187 C   0  0  0  0  0  0  0  0  0  0  0  0
   -2.6171    1.1750    0.6807 O   0  0  0  0  0  0  0  0  0  0  0  0
   -3.2533   -1.9992   -0.0873 C   0  0  0  0  0  0  0  0  0  0  0  0
   -4.4370    0.2910    2.0047 H   0  0  0  0  0  0  0  0  0  0  0  0
   -2.7302   -1.7467    1.9921 H   0  0  0  0  0  0  0  0  0  0  0  0
   -3.6446   -1.4140   -0.9275 H   0  0  0  0  0  0  0  0  0  0  0  0
   -2.2844   -2.4081   -0.3922 H   0  0  0  0  0  0  0  0  0  0  0  0
   -3.9388   -2.8365    0.0822 H   0  0  0  0  0  0  0  0  0  0  0  0
   -0.8768   -0.3314    0.9568 N   0  0  0  0  0  0  0  0  0  0  0  0
    0.2067    0.6285    0.7375 C   0  0  2  0  0  0  0  0  0  0  0  0
    1.1934   -0.0449   -0.2114 C   0  0  0  0  0  0  0  0  0  0  0  0
    1.3382   -1.2649   -0.2574 O   0  0  0  0  0  0  0  0  0  0  0  0
    0.8474    0.9874    2.0866 C   0  0  0  0  0  0  0  0  0  0  0  0
   -0.0812    1.7682    3.0164 C   0  0  0  0  0  0  0  0  0  0  0  0
    0.5755    2.0801    4.3380 C   0  0  0  0  0  0  0  0  0  0  0  0
    1.6680    1.6425    4.6761 O   0  0  0  0  0  0  0  0  0  0  0  0
   -0.1835    2.8781    5.1288 O   0  0  0  0  0  0  0  0  0  0  0  0
   -0.6087   -1.2764    1.1771 H   0  0  0  0  0  0  0  0  0  0  0  0
   -0.2156    1.5272    0.2760 H   0  0  0  0  0  0  0  0  0  0  0  0
    1.1653    0.0659    2.5922 H   0  0  0  0  0  0  0  0  0  0  0  0
    1.7539    1.5861    1.9274 H   0  0  0  0  0  0  0  0  0  0  0  0
   -0.3409    2.7295    2.5563 H   0  0  0  0  0  0  0  0  0  0  0  0
   -1.0337    1.2513    3.1727 H   0  0  0  0  0  0  0  0  0  0  0  0
    0.1996    3.0901    6.0064 H   0  0  0  0  0  0  0  0  0  0  0  0
    1.8639    0.8680   -1.0121 N   0  0  0  0  0  0  0  0  0  0  0  0
    2.8506    0.4840   -1.9957 C   0  0  2  0  0  0  0  0  0  0  0  0
    4.2236    0.5679   -1.3420 C   0  0  0  0  0  0  0  0  0  0  0  0
    4.4553    1.2627   -0.3548 O   0  0  0  0  0  0  0  0  0  0  0  0
    2.7797    1.3735   -3.2271 C   0  0  0  0  0  0  0  0  0  0  0  0
    1.6508    1.8548   -0.9017 H   0  0  0  0  0  0  0  0  0  0  0  0
    2.6380   -0.5556   -2.2679 H   0  0  0  0  0  0  0  0  0  0  0  0
    2.9900    2.4191   -2.9741 H   0  0  0  0  0  0  0  0  0  0  0  0
    3.5086    1.0634   -3.9831 H   0  0  0  0  0  0  0  0  0  0  0  0
    1.7825    1.3350   -3.6788 H   0  0  0  0  0  0  0  0  0  0  0  0
    5.1700   -0.1909   -2.0165 N   0  0  0  0  0  0  0  0  0  0  0  0
    6.5507   -0.2656   -1.5994 C   0  0  0  0  0  0  0  0  0  0  0  0
    4.8850   -0.7509   -2.8146 H   0  0  0  0  0  0  0  0  0  0  0  0
    7.1360    0.5011   -2.1282 H   0  0  0  0  0  0  0  0  0  0  0  0
    6.6159   -0.0931   -0.5149 H   0  0  0  0  0  0  0  0  0  0  0  0
    6.9521   -1.2618   -1.8370 H   0  0  0  0  0  0  0  0  0  0  0  0
  1  3  1  0  0  0  0
  1  7  1  0  0  0  0
  1  2  2  0  0  0  0
 34 35  1  0  0  0  0
 35 43  1  0  0  0  0
 35 36  2  0  0  0  0
  8  9  1  0  0  0  0
  9 17  1  0  0  0  0
  9 10  2  0  0  0  0
 18 19  1  0  0  0  0
 19 33  1  0  0  0  0
 19 20  2  0  0  0  0
 22 23  1  0  0  0  0
 23 24  2  0  0  0  0
 23 25  1  0  0  0  0
 34 37  1  0  0  0  0
  8 11  1  0  0  0  0
 43 44  1  0  0  0  0
 21 22  1  0  0  0  0
 18 21  1  0  0  0  0
 33 34  1  0  0  0  0
  7  8  1  0  0  0  0
 17 18  1  0  0  0  0
  3  4  1  0  0  0  0
  3  5  1  0  0  0  0
  3  6  1  0  0  0  0
 37 40  1  0  0  0  0
 37 41  1  0  0  0  0
 37 42  1  0  0  0  0
 11 14  1  0  0  0  0
 11 15  1  0  0  0  0
 11 16  1  0  0  0  0
 44 46  1  0  0  0  0
 44 47  1  0  0  0  0
 44 48  1  0  0  0  0
 22 30  1  0  0  0  0
 22 31  1  0  0  0  0
 21 28  1  0  0  0  0
 21 29  1  0  0  0  0
 34 39  1  0  0  0  0
  8 13  1  0  0  0  0
 18 27  1  0  0  0  0
 43 45  1  0  0  0  0
  7 12  1  0  0  0  0
 33 38  1  0  0  0  0
 17 26  1  0  0  0  0
 25 32  1  0  0  0  0
M  END
$$$$

  -OEChem-05262214473D

 48 47  0     1  0  0  0  0  0999 V2000
   -5.5827   -1.3473    1.4591 C   0  0  0  0  0  0  0  0  0  0  0  0
   -5.7053   -2.4696    0.9825 O   0  0  0  0  0  0  0  0  0  0  0  0
   -6.7879   -0.6277    1.9670 C   0  0  0  0  0  0  0  0  0  0  0  0
   -7.2718   -0.0164    1.1885 H   0  0  0  0  0  0  0  0  0  0  0  0
   -7.5699   -1.3171    2.3239 H   0  0  0  0  0  0  0  0  0  0  0  0
   -6.6057    0.0628    2.8060 H   0  0  0  0  0  0  0  0  0  0  0  0
   -4.4001   -0.6377    1.5884 N   0  0  0  0  0  0  0  0  0  0  0  0
   -3.1220   -1.1455    1.1644 C   0  0  2  0  0  0  0  0  0  0  0  0
   -2.2017    0.0428    0.9187 C   0  0  0  0  0  0  0  0  0  0  0  0
   -2.6171    1.1750    0.6807 O   0  0  0  0  0  0  0  0  0  0  0  0
   -3.2533   -1.9992   -0.0873 C   0  0  0  0  0  0  0  0  0  0  0  0
   -4.4370    0.2910    2.0047 H   0  0  0  0  0  0  0  0  0  0  0  0
   -2.7302   -1.7467    1.9921 H   0  0  0  0  0  0  0  0  0  0  0  0
   -3.6446   -1.4140   -0.9275 H   0  0  0  0  0  0  0  0  0  0  0  0
   -2.2844   -2.4081   -0.3922 H   0  0  0  0  0  0  0  0  0  0  0  0
   -3.9388   -2.8365    0.0822 H   0  0  0  0  0  0  0  0  0  0  0  0
   -0.8768   -0.3314    0.9568 N   0  0  0  0  0  0  0  0  0  0  0  0
    0.2067    0.6285    0.7375 C   0  0  2  0  0  0  0  0  0  0  0  0
    1.1934   -0.0449   -0.2114 C   0  0  0  0  0  0  0  0  0  0  0  0
    1.1567   -1.2489   -0.4575 O   0  0  0  0  0  0  0  0  0  0  0  0
    0.8474    0.9874    2.0866 C   0  0  0  0  0  0  0  0  0  0  0  0
   -0.0812    1.7682    3.0164 C   0  0  0  0  0  0  0  0  0  0  0  0
    0.5755    2.0801    4.3380 C   0  0  0  0  0  0  0  0  0  0  0  0
    1.6680    1.6425    4.6761 O   0  0  0  0  0  0  0  0  0  0  0  0
   -0.1835    2.8781    5.1288 O   0  0  0  0  0  0  0  0  0  0  0  0
   -0.6087   -1.2764    1.1771 H   0  0  0  0  0  0  0  0  0  0  0  0
   -0.2156    1.5272    0.2760 H   0  0  0  0  0  0  0  0  0  0  0  0
    1.1653    0.0659    2.5922 H   0  0  0  0  0  0  0  0  0  0  0  0
    1.7539    1.5861    1.9274 H   0  0  0  0  0  0  0  0  0  0  0  0
   -0.3409    2.7295    2.5563 H   0  0  0  0  0  0  0  0  0  0  0  0
   -1.0337    1.2513    3.1727 H   0  0  0  0  0  0  0  0  0  0  0  0
    0.1996    3.0901    6.0064 H   0  0  0  0  0  0  0  0  0  0  0  0
    2.0911    0.8550   -0.7666 N   0  0  0  0  0  0  0  0  0  0  0  0
    3.1261    0.4686   -1.6983 C   0  0  2  0  0  0  0  0  0  0  0  0
    4.4009    0.2124   -0.9054 C   0  0  0  0  0  0  0  0  0  0  0  0
    4.6067    0.6927    0.2073 O   0  0  0  0  0  0  0  0  0  0  0  0
    3.3486    1.5404   -2.7539 C   0  0  0  0  0  0  0  0  0  0  0  0
    2.0174    1.8337   -0.5055 H   0  0  0  0  0  0  0  0  0  0  0  0
    2.7952   -0.4632   -2.1700 H   0  0  0  0  0  0  0  0  0  0  0  0
    3.6805    2.4814   -2.3002 H   0  0  0  0  0  0  0  0  0  0  0  0
    4.1129    1.2338   -3.4757 H   0  0  0  0  0  0  0  0  0  0  0  0
    2.4232    1.7445   -3.3032 H   0  0  0  0  0  0  0  0  0  0  0  0
    5.3001   -0.5804   -1.6048 N   0  0  0  0  0  0  0  0  0  0  0  0
    6.5888   -0.9547   -1.0708 C   0  0  0  0  0  0  0  0  0  0  0  0
    5.0382   -0.9503   -2.5138 H   0  0  0  0  0  0  0  0  0  0  0  0
    7.3461   -0.2254   -1.3942 H   0  0  0  0  0  0  0  0  0  0  0  0
    6.5400   -0.9695    0.0281 H   0  0  0  0  0  0  0  0  0  0  0  0
    6.8619   -1.9545   -1.4392 H   0  0  0  0  0  0  0  0  0  0  0  0
  1  3  1  0  0  0  0
  1  7  1  0  0  0  0
  1  2  2  0  0  0  0
 34 35  1  0  0  0  0
 35 43  1  0  0  0  0
 35 36  2  0  0  0  0
  8  9  1  0  0  0  0
  9 17  1  0  0  0  0
  9 10  2  0  0  0  0
 18 19  1  0  0  0  0
 19 33  1  0  0  0  0
 19 20  2  0  0  0  0
 22 23  1  0  0  0  0
 23 24  2  0  0  0  0
 23 25  1  0  0  0  0
 34 37  1  0  0  0  0
  8 11  1  0  0  0  0
 43 44  1  0  0  0  0
 21 22  1  0  0  0  0
 18 21  1  0  0  0  0
 33 34  1  0  0  0  0
  7  8  1  0  0  0  0
 17 18  1  0  0  0  0
  3  4  1  0  0  0  0
  3  5  1  0  0  0  0
  3  6  1  0  0  0  0
 37 40  1  0  0  0  0
 37 41  1  0  0  0  0
 37 42  1  0  0  0  0
 11 14  1  0  0  0  0
 11 15  1  0  0  0  0
 11 16  1  0  0  0  0
 44 46  1  0  0  0  0
 44 47  1  0  0  0  0
 44 48  1  0  0  0  0
 22 30  1  0  0  0  0
 22 31  1  0  0  0  0
 21 28  1  0  0  0  0
 21 29  1  0  0  0  0
 34 39  1  0  0  0  0
  8 13  1  0  0  0  0
 18 27  1  0  0  0  0
 43 45  1  0  0  0  0
  7 12  1  0  0  0  0
 33 38  1  0  0  0  0
 17 26  1  0  0  0  0
 25 32  1  0  0  0  0
M  END
$$$$

  -OEChem-05262214473D

 48 47  0     1  0  0  0  0  0999 V2000
   -5.5827   -1.3473    1.4591 C   0  0  0  0  0  0  0  0  0  0  0  0
   -5.7053   -2.4696    0.9825 O   0  0  0  0  0  0  0  0  0  0  0  0
   -6.7879   -0.6277    1.9670 C   0  0  0  0  0  0  0  0  0  0  0  0
   -7.2718   -0.0164    1.1885 H   0  0  0  0  0  0  0  0  0  0  0  0
   -7.5699   -1.3171    2.3239 H   0  0  0  0  0  0  0  0  0  0  0  0
   -6.6057    0.0628    2.8060 H   0  0  0  0  0  0  0  0  0  0  0  0
   -4.4001   -0.6377    1.5884 N   0  0  0  0  0  0  0  0  0  0  0  0
   -3.1220   -1.1455    1.1644 C   0  0  2  0  0  0  0  0  0  0  0  0
   -2.2017    0.0428    0.9187 C   0  0  0  0  0  0  0  0  0  0  0  0
   -2.6171    1.1750    0.6807 O   0  0  0  0  0  0  0  0  0  0  0  0
   -3.2533   -1.9992   -0.0873 C   0  0  0  0  0  0  0  0  0  0  0  0
   -4.4370    0.2910    2.0047 H   0  0  0  0  0  0  0  0  0  0  0  0
   -2.7302   -1.7467    1.9921 H   0  0  0  0  0  0  0  0  0  0  0  0
   -3.6446   -1.4140   -0.9275 H   0  0  0  0  0  0  0  0  0  0  0  0
   -2.2844   -2.4081   -0.3922 H   0  0  0  0  0  0  0  0  0  0  0  0
   -3.9388   -2.8365    0.0822 H   0  0  0  0  0  0  0  0  0  0  0  0
   -0.8768   -0.3314    0.9568 N   0  0  0  0  0  0  0  0  0  0  0  0
    0.2067    0.6285    0.7375 C   0  0  2  0  0  0  0  0  0  0  0  0
    0.9835    0.1312   -0.4777 C   0  0  0  0  0  0  0  0  0  0  0  0
    0.6616   -0.8794   -1.0994 O   0  0  0  0  0  0  0  0  0  0  0  0
    1.0812    0.7033    1.9980 C   0  0  0  0  0  0  0  0  0  0  0  0
    0.3644    1.3084    3.2049 C   0  0  0  0  0  0  0  0  0  0  0  0
    1.2475    1.3421    4.4272 C   0  0  0  0  0  0  0  0  0  0  0  0
    2.3550    0.8228    4.4822 O   0  0  0  0  0  0  0  0  0  0  0  0
    0.6755    1.9873    5.4736 O   0  0  0  0  0  0  0  0  0  0  0  0
   -0.6087   -1.2764    1.1771 H   0  0  0  0  0  0  0  0  0  0  0  0
   -0.2359    1.6091    0.5338 H   0  0  0  0  0  0  0  0  0  0  0  0
    1.4272   -0.3060    2.2582 H   0  0  0  0  0  0  0  0  0  0  0  0
    1.9805    1.3012    1.7996 H   0  0  0  0  0  0  0  0  0  0  0  0
    0.0855    2.3464    2.9861 H   0  0  0  0  0  0  0  0  0  0  0  0
   -0.5761    0.7922    3.4239 H   0  0  0  0  0  0  0  0  0  0  0  0
    1.2101    2.0157    6.2953 H   0  0  0  0  0  0  0  0  0  0  0  0
    2.0497    0.9584   -0.7984 N   0  0  0  0  0  0  0  0  0  0  0  0
    2.9406    0.7079   -1.9085 C   0  0  2  0  0  0  0  0  0  0  0  0
    4.1427   -0.0648   -1.3817 C   0  0  0  0  0  0  0  0  0  0  0  0
    4.4851   -0.0495   -0.2012 O   0  0  0  0  0  0  0  0  0  0  0  0
    3.3764    2.0051   -2.5718 C   0  0  0  0  0  0  0  0  0  0  0  0
    2.2124    1.7805   -0.2248 H   0  0  0  0  0  0  0  0  0  0  0  0
    2.3896    0.0853   -2.6219 H   0  0  0  0  0  0  0  0  0  0  0  0
    3.9300    2.6420   -1.8724 H   0  0  0  0  0  0  0  0  0  0  0  0
    4.0284    1.8122   -3.4302 H   0  0  0  0  0  0  0  0  0  0  0  0
    2.5087    2.5736   -2.9236 H   0  0  0  0  0  0  0  0  0  0  0  0
    4.8136   -0.7388   -2.3926 N   0  0  0  0  0  0  0  0  0  0  0  0
    5.9946   -1.5338   -2.1491 C   0  0  0  0  0  0  0  0  0  0  0  0
    4.4479   -0.7111   -3.3398 H   0  0  0  0  0  0  0  0  0  0  0  0
    6.8912   -0.9130   -2.2933 H   0  0  0  0  0  0  0  0  0  0  0  0
    5.9741   -1.9140   -1.1171 H   0  0  0  0  0  0  0  0  0  0  0  0
    6.0179   -2.3802   -2.8513 H   0  0  0  0  0  0  0  0  0  0  0  0
  1  3  1  0  0  0  0
  1  7  1  0  0  0  0
  1  2  2  0  0  0  0
 34 35  1  0  0  0  0
 35 43  1  0  0  0  0
 35 36  2  0  0  0  0
  8  9  1  0  0  0  0
  9 17  1  0  0  0  0
  9 10  2  0  0  0  0
 18 19  1  0  0  0  0
 19 33  1  0  0  0  0
 19 20  2  0  0  0  0
 22 23  1  0  0  0  0
 23 24  2  0  0  0  0
 23 25  1  0  0  0  0
 34 37  1  0  0  0  0
  8 11  1  0  0  0  0
 43 44  1  0  0  0  0
 21 22  1  0  0  0  0
 18 21  1  0  0  0  0
 33 34  1  0  0  0  0
  7  8  1  0  0  0  0
 17 18  1  0  0  0  0
  3  4  1  0  0  0  0
  3  5  1  0  0  0  0
  3  6  1  0  0  0  0
 37 40  1  0  0  0  0
 37 41  1  0  0  0  0
 37 42  1  0  0  0  0
 11 14  1  0  0  0  0
 11 15  1  0  0  0  0
 11 16  1  0  0  0  0
 44 46  1  0  0  0  0
 44 47  1  0  0  0  0
 44 48  1  0  0  0  0
 22 30  1  0  0  0  0
 22 31  1  0  0  0  0
 21 28  1  0  0  0  0
 21 29  1  0  0  0  0
 34 39  1  0  0  0  0
  8 13  1  0  0  0  0
 18 27  1  0  0  0  0
 43 45  1  0  0  0  0
  7 12  1  0  0  0  0
 33 38  1  0  0  0  0
 17 26  1  0  0  0  0
 25 32  1  0  0  0  0
M  END
$$$$

  -OEChem-05262214473D

 48 47  0     1  0  0  0  0  0999 V2000
   -5.5827   -1.3473    1.4591 C   0  0  0  0  0  0  0  0  0  0  0  0
   -5.7053   -2.4696    0.9825 O   0  0  0  0  0  0  0  0  0  0  0  0
   -6.7879   -0.6277    1.9670 C   0  0  0  0  0  0  0  0  0  0  0  0
   -7.2718   -0.0164    1.1885 H   0  0  0  0  0  0  0  0  0  0  0  0
   -7.5699   -1.3171    2.3239 H   0  0  0  0  0  0  0  0  0  0  0  0
   -6.6057    0.0628    2.8060 H   0  0  0  0  0  0  0  0  0  0  0  0
   -4.4001   -0.6377    1.5884 N   0  0  0  0  0  0  0  0  0  0  0  0
   -3.1220   -1.1455    1.1644 C   0  0  2  0  0  0  0  0  0  0  0  0
   -2.2017    0.0428    0.9187 C   0  0  0  0  0  0  0  0  0  0  0  0
   -2.6171    1.1750    0.6807 O   0  0  0  0  0  0  0  0  0  0  0  0
   -3.2533   -1.9992   -0.0873 C   0  0  0  0  0  0  0  0  0  0  0  0
   -4.4370    0.2910    2.0047 H   0  0  0  0  0  0  0  0  0  0  0  0
   -2.7302   -1.7467    1.9921 H   0  0  0  0  0  0  0  0  0  0  0  0
   -3.6446   -1.4140   -0.9275 H   0  0  0  0  0  0  0  0  0  0  0  0
   -2.2844   -2.4081   -0.3922 H   0  0  0  0  0  0  0  0  0  0  0  0
   -3.9388   -2.8365    0.0822 H   0  0  0  0  0  0  0  0  0  0  0  0
   -0.8768   -0.3314    0.9568 N   0  0  0  0  0  0  0  0  0  0  0  0
    0.2067    0.6285    0.7375 C   0  0  2  0  0  0  0  0  0  0  0  0
    0.9835    0.1312   -0.4777 C   0  0  0  0  0  0  0  0  0  0  0  0
    0.5281   -0.7041   -1.2565 O   0  0  0  0  0  0  0  0  0  0  0  0
    1.0812    0.7033    1.9980 C   0  0  0  0  0  0  0  0  0  0  0  0
    0.3644    1.3084    3.2049 C   0  0  0  0  0  0  0  0  0  0  0  0
    1.2475    1.3421    4.4272 C   0  0  0  0  0  0  0  0  0  0  0  0
    2.3550    0.8228    4.4822 O   0  0  0  0  0  0  0  0  0  0  0  0
    0.6755    1.9873    5.4736 O   0  0  0  0  0  0  0  0  0  0  0  0
   -0.6087   -1.2764    1.1771 H   0  0  0  0  0  0  0  0  0  0  0  0
   -0.2359    1.6091    0.5338 H   0  0  0  0  0  0  0  0  0  0  0  0
    1.4272   -0.3060    2.2582 H   0  0  0  0  0  0  0  0  0  0  0  0
    1.9805    1.3012    1.7996 H   0  0  0  0  0  0  0  0  0  0  0  0
    0.0855    2.3464    2.9861 H   0  0  0  0  0  0  0  0  0  0  0  0
   -0.5761    0.7922    3.4239 H   0  0  0  0  0  0  0  0  0  0  0  0
    1.2101    2.0157    6.2953 H   0  0  0  0  0  0  0  0  0  0  0  0
    2.2202    0.7467   -0.6028 N   0  0  0  0  0  0  0  0  0  0  0  0
    3.1473    0.4517   -1.6715 C   0  0  2  0  0  0  0  0  0  0  0  0
    4.1124   -0.6168   -1.1751 C   0  0  0  0  0  0  0  0  0  0  0  0
    4.3333   -0.8196    0.0170 O   0  0  0  0  0  0  0  0  0  0  0  0
    3.8973    1.6986   -2.1134 C   0  0  0  0  0  0  0  0  0  0  0  0
    2.4873    1.4389    0.0907 H   0  0  0  0  0  0  0  0  0  0  0  0
    2.5555    0.0525   -2.5024 H   0  0  0  0  0  0  0  0  0  0  0  0
    4.4960    2.1129   -1.2940 H   0  0  0  0  0  0  0  0  0  0  0  0
    4.5785    1.4791   -2.9422 H   0  0  0  0  0  0  0  0  0  0  0  0
    3.2001    2.4768   -2.4420 H   0  0  0  0  0  0  0  0  0  0  0  0
    4.7305   -1.2882   -2.2208 N   0  0  0  0  0  0  0  0  0  0  0  0
    5.6984   -2.3390   -2.0088 C   0  0  0  0  0  0  0  0  0  0  0  0
    4.4726   -1.0674   -3.1782 H   0  0  0  0  0  0  0  0  0  0  0  0
    6.7110   -1.9094   -2.0007 H   0  0  0  0  0  0  0  0  0  0  0  0
    5.5009   -2.8302   -1.0446 H   0  0  0  0  0  0  0  0  0  0  0  0
    5.6204   -3.0782   -2.8197 H   0  0  0  0  0  0  0  0  0  0  0  0
  1  3  1  0  0  0  0
  1  7  1  0  0  0  0
  1  2  2  0  0  0  0
 34 35  1  0  0  0  0
 35 43  1  0  0  0  0
 35 36  2  0  0  0  0
  8  9  1  0  0  0  0
  9 17  1  0  0  0  0
  9 10  2  0  0  0  0
 18 19  1  0  0  0  0
 19 33  1  0  0  0  0
 19 20  2  0  0  0  0
 22 23  1  0  0  0  0
 23 24  2  0  0  0  0
 23 25  1  0  0  0  0
 34 37  1  0  0  0  0
  8 11  1  0  0  0  0
 43 44  1  0  0  0  0
 21 22  1  0  0  0  0
 18 21  1  0  0  0  0
 33 34  1  0  0  0  0
  7  8  1  0  0  0  0
 17 18  1  0  0  0  0
  3  4  1  0  0  0  0
  3  5  1  0  0  0  0
  3  6  1  0  0  0  0
 37 40  1  0  0  0  0
 37 41  1  0  0  0  0
 37 42  1  0  0  0  0
 11 14  1  0  0  0  0
 11 15  1  0  0  0  0
 11 16  1  0  0  0  0
 44 46  1  0  0  0  0
 44 47  1  0  0  0  0
 44 48  1  0  0  0  0
 22 30  1  0  0  0  0
 22 31  1  0  0  0  0
 21 28  1  0  0  0  0
 21 29  1  0  0  0  0
 34 39  1  0  0  0  0
  8 13  1  0  0  0  0
 18 27  1  0  0  0  0
 43 45  1  0  0  0  0
  7 12  1  0  0  0  0
 33 38  1  0  0  0  0
 17 26  1  0  0  0  0
 25 32  1  0  0  0  0
M  END
$$$$

  -OEChem-05262214473D

 48 47  0     1  0  0  0  0  0999 V2000
   -5.5827   -1.3473    1.4591 C   0  0  0  0  0  0  0  0  0  0  0  0
   -5.7053   -2.4696    0.9825 O   0  0  0  0  0  0  0  0  0  0  0  0
   -6.7879   -0.6277    1.9670 C   0  0  0  0  0  0  0  0  0  0  0  0
   -7.2718   -0.0164    1.1885 H   0  0  0  0  0  0  0  0  0  0  0  0
   -7.5699   -1.3171    2.3239 H   0  0  0  0  0  0  0  0  0  0  0  0
   -6.6057    0.0628    2.8060 H   0  0  0  0  0  0  0  0  0  0  0  0
   -4.4001   -0.6377    1.5884 N   0  0  0  0  0  0  0  0  0  0  0  0
   -3.1220   -1.1455    1.1644 C   0  0  2  0  0  0  0  0  0  0  0  0
   -2.2017    0.0428    0.9187 C   0  0  0  0  0  0  0  0  0  0  0  0
   -2.6171    1.1750    0.6807 O   0  0  0  0  0  0  0  0  0  0  0  0
   -3.2533   -1.9992   -0.0873 C   0  0  0  0  0  0  0  0  0  0  0  0
   -4.4370    0.2910    2.0047 H   0  0  0  0  0  0  0  0  0  0  0  0
   -2.7302   -1.7467    1.9921 H   0  0  0  0  0  0  0  0  0  0  0  0
   -3.6446   -1.4140   -0.9275 H   0  0  0  0  0  0  0  0  0  0  0  0
   -2.2844   -2.4081   -0.3922 H   0  0  0  0  0  0  0  0  0  0  0  0
   -3.9388   -2.8365    0.0822 H   0  0  0  0  0  0  0  0  0  0  0  0
   -0.8768   -0.3314    0.9568 N   0  0  0  0  0  0  0  0  0  0  0  0
    0.2067    0.6285    0.7375 C   0  0  2  0  0  0  0  0  0  0  0  0
    0.9835    0.1312   -0.4777 C   0  0  0  0  0  0  0  0  0  0  0  0
    0.4487   -0.4864   -1.3964 O   0  0  0  0  0  0  0  0  0  0  0  0
    1.0812    0.7033    1.9980 C   0  0  0  0  0  0  0  0  0  0  0  0
    0.3644    1.3084    3.2049 C   0  0  0  0  0  0  0  0  0  0  0  0
    1.2475    1.3421    4.4272 C   0  0  0  0  0  0  0  0  0  0  0  0
    2.3550    0.8228    4.4822 O   0  0  0  0  0  0  0  0  0  0  0  0
    0.6755    1.9873    5.4736 O   0  0  0  0  0  0  0  0  0  0  0  0
   -0.6087   -1.2764    1.1771 H   0  0  0  0  0  0  0  0  0  0  0  0
   -0.2359    1.6091    0.5338 H   0  0  0  0  0  0  0  0  0  0  0  0
    1.4272   -0.3060    2.2582 H   0  0  0  0  0  0  0  0  0  0  0  0
    1.9805    1.3012    1.7996 H   0  0  0  0  0  0  0  0  0  0  0  0
    0.0855    2.3464    2.9861 H   0  0  0  0  0  0  0  0  0  0  0  0
   -0.5761    0.7922    3.4239 H   0  0  0  0  0  0  0  0  0  0  0  0
    1.2101    2.0157    6.2953 H   0  0  0  0  0  0  0  0  0  0  0  0
    2.3247    0.4814   -0.4274 N   0  0  0  0  0  0  0  0  0  0  0  0
    3.2742    0.1303   -1.4589 C   0  0  2  0  0  0  0  0  0  0  0  0
    3.9520   -1.1711   -1.0509 C   0  0  0  0  0  0  0  0  0  0  0  0
    4.0096   -1.5610    0.1135 O   0  0  0  0  0  0  0  0  0  0  0  0
    4.2987    1.2348   -1.6670 C   0  0  0  0  0  0  0  0  0  0  0  0
    2.6557    1.0107    0.3736 H   0  0  0  0  0  0  0  0  0  0  0  0
    2.6989   -0.0292   -2.3773 H   0  0  0  0  0  0  0  0  0  0  0  0
    4.8849    1.4089   -0.7573 H   0  0  0  0  0  0  0  0  0  0  0  0
    5.0000    0.9795   -2.4683 H   0  0  0  0  0  0  0  0  0  0  0  0
    3.8073    2.1774   -1.9313 H   0  0  0  0  0  0  0  0  0  0  0  0
    4.5225   -1.8243   -2.1343 N   0  0  0  0  0  0  0  0  0  0  0  0
    5.2345   -3.0742   -2.0045 C   0  0  0  0  0  0  0  0  0  0  0  0
    4.4094   -1.4380   -3.0669 H   0  0  0  0  0  0  0  0  0  0  0  0
    6.3069   -2.8731   -1.8646 H   0  0  0  0  0  0  0  0  0  0  0  0
    4.8488   -3.6271   -1.1353 H   0  0  0  0  0  0  0  0  0  0  0  0
    5.0898   -3.6747   -2.9147 H   0  0  0  0  0  0  0  0  0  0  0  0
  1  3  1  0  0  0  0
  1  7  1  0  0  0  0
  1  2  2  0  0  0  0
 34 35  1  0  0  0  0
 35 43  1  0  0  0  0
 35 36  2  0  0  0  0
  8  9  1  0  0  0  0
  9 17  1  0  0  0  0
  9 10  2  0  0  0  0
 18 19  1  0  0  0  0
 19 33  1  0  0  0  0
 19 20  2  0  0  0  0
 22 23  1  0  0  0  0
 23 24  2  0  0  0  0
 23 25  1  0  0  0  0
 34 37  1  0  0  0  0
  8 11  1  0  0  0  0
 43 44  1  0  0  0  0
 21 22  1  0  0  0  0
 18 21  1  0  0  0  0
 33 34  1  0  0  0  0
  7  8  1  0  0  0  0
 17 18  1  0  0  0  0
  3  4  1  0  0  0  0
  3  5  1  0  0  0  0
  3  6  1  0  0  0  0
 37 40  1  0  0  0  0
 37 41  1  0  0  0  0
 37 42  1  0  0  0  0
 11 14  1  0  0  0  0
 11 15  1  0  0  0  0
 11 16  1  0  0  0  0
 44 46  1  0  0  0  0
 44 47  1  0  0  0  0
 44 48  1  0  0  0  0
 22 30  1  0  0  0  0
 22 31  1  0  0  0  0
 21 28  1  0  0  0  0
 21 29  1  0  0  0  0
 34 39  1  0  0  0  0
  8 13  1  0  0  0  0
 18 27  1  0  0  0  0
 43 45  1  0  0  0  0
  7 12  1  0  0  0  0
 33 38  1  0  0  0  0
 17 26  1  0  0  0  0
 25 32  1  0  0  0  0
M  END
$$$$

  -OEChem-05262214473D

 48 47  0     1  0  0  0  0  0999 V2000
   -5.5827   -1.3473    1.4591 C   0  0  0  0  0  0  0  0  0  0  0  0
   -5.7053   -2.4696    0.9825 O   0  0  0  0  0  0  0  0  0  0  0  0
   -6.7879   -0.6277    1.9670 C   0  0  0  0  0  0  0  0  0  0  0  0
   -7.2718   -0.0164    1.1885 H   0  0  0  0  0  0  0  0  0  0  0  0
   -7.5699   -1.3171    2.3239 H   0  0  0  0  0  0  0  0  0  0  0  0
   -6.6057    0.0628    2.8060 H   0  0  0  0  0  0  0  0  0  0  0  0
   -4.4001   -0.6377    1.5884 N   0  0  0  0  0  0  0  0  0  0  0  0
   -3.1220   -1.1455    1.1644 C   0  0  2  0  0  0  0  0  0  0  0  0
   -2.2017    0.0428    0.9187 C   0  0  0  0  0  0  0  0  0  0  0  0
   -2.6171    1.1750    0.6807 O   0  0  0  0  0  0  0  0  0  0  0  0
   -3.2533   -1.9992   -0.0873 C   0  0  0  0  0  0  0  0  0  0  0  0
   -4.4370    0.2910    2.0047 H   0  0  0  0  0  0  0  0  0  0  0  0
   -2.7302   -1.7467    1.9921 H   0  0  0  0  0  0  0  0  0  0  0  0
   -3.6446   -1.4140   -0.9275 H   0  0  0  0  0  0  0  0  0  0  0  0
   -2.2844   -2.4081   -0.3922 H   0  0  0  0  0  0  0  0  0  0  0  0
   -3.9388   -2.8365    0.0822 H   0  0  0  0  0  0  0  0  0  0  0  0
   -0.8768   -0.3314    0.9568 N   0  0  0  0  0  0  0  0  0  0  0  0
    0.2067    0.6285    0.7375 C   0  0  2  0  0  0  0  0  0  0  0  0
    0.9835    0.1312   -0.4777 C   0  0  0  0  0  0  0  0  0  0  0  0
    0.4285   -0.2414   -1.5096 O   0  0  0  0  0  0  0  0  0  0  0  0
    1.0812    0.7033    1.9980 C   0  0  0  0  0  0  0  0  0  0  0  0
    0.3644    1.3084    3.2049 C   0  0  0  0  0  0  0  0  0  0  0  0
    1.2475    1.3421    4.4272 C   0  0  0  0  0  0  0  0  0  0  0  0
    2.3550    0.8228    4.4822 O   0  0  0  0  0  0  0  0  0  0  0  0
    0.6755    1.9873    5.4736 O   0  0  0  0  0  0  0  0  0  0  0  0
   -0.6087   -1.2764    1.1771 H   0  0  0  0  0  0  0  0  0  0  0  0
   -0.2359    1.6091    0.5338 H   0  0  0  0  0  0  0  0  0  0  0  0
    1.4272   -0.3060    2.2582 H   0  0  0  0  0  0  0  0  0  0  0  0
    1.9805    1.3012    1.7996 H   0  0  0  0  0  0  0  0  0  0  0  0
    0.0855    2.3464    2.9861 H   0  0  0  0  0  0  0  0  0  0  0  0
   -0.5761    0.7922    3.4239 H   0  0  0  0  0  0  0  0  0  0  0  0
    1.2101    2.0157    6.2953 H   0  0  0  0  0  0  0  0  0  0  0  0
    2.3561    0.1805   -0.2842 N   0  0  0  0  0  0  0  0  0  0  0  0
    3.3125   -0.2342   -1.2851 C   0  0  2  0  0  0  0  0  0  0  0  0
    3.6722   -1.6897   -1.0174 C   0  0  0  0  0  0  0  0  0  0  0  0
    3.5359   -2.2231    0.0816 O   0  0  0  0  0  0  0  0  0  0  0  0
    4.5531    0.6452   -1.2631 C   0  0  0  0  0  0  0  0  0  0  0  0
    2.7062    0.5250    0.6047 H   0  0  0  0  0  0  0  0  0  0  0  0
    2.8100   -0.1541   -2.2552 H   0  0  0  0  0  0  0  0  0  0  0  0
    5.0700    0.5780   -0.2988 H   0  0  0  0  0  0  0  0  0  0  0  0
    5.2642    0.3477   -2.0408 H   0  0  0  0  0  0  0  0  0  0  0  0
    4.2891    1.6957   -1.4261 H   0  0  0  0  0  0  0  0  0  0  0  0
    4.2038   -2.3107   -2.1390 N   0  0  0  0  0  0  0  0  0  0  0  0
    4.6344   -3.6893   -2.1363 C   0  0  0  0  0  0  0  0  0  0  0  0
    4.2626   -1.7975   -3.0136 H   0  0  0  0  0  0  0  0  0  0  0  0
    5.7063   -3.7387   -1.8942 H   0  0  0  0  0  0  0  0  0  0  0  0
    4.0623   -4.2506   -1.3829 H   0  0  0  0  0  0  0  0  0  0  0  0
    4.4624   -4.1290   -3.1298 H   0  0  0  0  0  0  0  0  0  0  0  0
  1  3  1  0  0  0  0
  1  7  1  0  0  0  0
  1  2  2  0  0  0  0
 34 35  1  0  0  0  0
 35 43  1  0  0  0  0
 35 36  2  0  0  0  0
  8  9  1  0  0  0  0
  9 17  1  0  0  0  0
  9 10  2  0  0  0  0
 18 19  1  0  0  0  0
 19 33  1  0  0  0  0
 19 20  2  0  0  0  0
 22 23  1  0  0  0  0
 23 24  2  0  0  0  0
 23 25  1  0  0  0  0
 34 37  1  0  0  0  0
  8 11  1  0  0  0  0
 43 44  1  0  0  0  0
 21 22  1  0  0  0  0
 18 21  1  0  0  0  0
 33 34  1  0  0  0  0
  7  8  1  0  0  0  0
 17 18  1  0  0  0  0
  3  4  1  0  0  0  0
  3  5  1  0  0  0  0
  3  6  1  0  0  0  0
 37 40  1  0  0  0  0
 37 41  1  0  0  0  0
 37 42  1  0  0  0  0
 11 14  1  0  0  0  0
 11 15  1  0  0  0  0
 11 16  1  0  0  0  0
 44 46  1  0  0  0  0
 44 47  1  0  0  0  0
 44 48  1  0  0  0  0
 22 30  1  0  0  0  0
 22 31  1  0  0  0  0
 21 28  1  0  0  0  0
 21 29  1  0  0  0  0
 34 39  1  0  0  0  0
  8 13  1  0  0  0  0
 18 27  1  0  0  0  0
 43 45  1  0  0  0  0
  7 12  1  0  0  0  0
 33 38  1  0  0  0  0
 17 26  1  0  0  0  0
 25 32  1  0  0  0  0
M  END
$$$$

  -OEChem-05262214473D

 48 47  0     1  0  0  0  0  0999 V2000
   -5.5827   -1.3473    1.4591 C   0  0  0  0  0  0  0  0  0  0  0  0
   -5.7053   -2.4696    0.9825 O   0  0  0  0  0  0  0  0  0  0  0  0
   -6.7879   -0.6277    1.9670 C   0  0  0  0  0  0  0  0  0  0  0  0
   -7.2718   -0.0164    1.1885 H   0  0  0  0  0  0  0  0  0  0  0  0
   -7.5699   -1.3171    2.3239 H   0  0  0  0  0  0  0  0  0  0  0  0
   -6.6057    0.0628    2.8060 H   0  0  0  0  0  0  0  0  0  0  0  0
   -4.4001   -0.6377    1.5884 N   0  0  0  0  0  0  0  0  0  0  0  0
   -3.1220   -1.1455    1.1644 C   0  0  2  0  0  0  0  0  0  0  0  0
   -2.2017    0.0428    0.9187 C   0  0  0  0  0  0  0  0  0  0  0  0
   -2.6171    1.1750    0.6807 O   0  0  0  0  0  0  0  0  0  0  0  0
   -3.2533   -1.9992   -0.0873 C   0  0  0  0  0  0  0  0  0  0  0  0
   -4.4370    0.2910    2.0047 H   0  0  0  0  0  0  0  0  0  0  0  0
   -2.7302   -1.7467    1.9921 H   0  0  0  0  0  0  0  0  0  0  0  0
   -3.6446   -1.4140   -0.9275 H   0  0  0  0  0  0  0  0  0  0  0  0
   -2.2844   -2.4081   -0.3922 H   0  0  0  0  0  0  0  0  0  0  0  0
   -3.9388   -2.8365    0.0822 H   0  0  0  0  0  0  0  0  0  0  0  0
   -0.8768   -0.3314    0.9568 N   0  0  0  0  0  0  0  0  0  0  0  0
    0.2067    0.6285    0.7375 C   0  0  2  0  0  0  0  0  0  0  0  0
    0.9835    0.1312   -0.4777 C   0  0  0  0  0  0  0  0  0  0  0  0
    0.4692    0.0144   -1.5883 O   0  0  0  0  0  0  0  0  0  0  0  0
    1.0812    0.7033    1.9980 C   0  0  0  0  0  0  0  0  0  0  0  0
    0.3644    1.3084    3.2049 C   0  0  0  0  0  0  0  0  0  0  0  0
    1.2475    1.3421    4.4272 C   0  0  0  0  0  0  0  0  0  0  0  0
    2.3550    0.8228    4.4822 O   0  0  0  0  0  0  0  0  0  0  0  0
    0.6755    1.9873    5.4736 O   0  0  0  0  0  0  0  0  0  0  0  0
   -0.6087   -1.2764    1.1771 H   0  0  0  0  0  0  0  0  0  0  0  0
   -0.2359    1.6091    0.5338 H   0  0  0  0  0  0  0  0  0  0  0  0
    1.4272   -0.3060    2.2582 H   0  0  0  0  0  0  0  0  0  0  0  0
    1.9805    1.3012    1.7996 H   0  0  0  0  0  0  0  0  0  0  0  0
    0.0855    2.3464    2.9861 H   0  0  0  0  0  0  0  0  0  0  0  0
   -0.5761    0.7922    3.4239 H   0  0  0  0  0  0  0  0  0  0  0  0
    1.2101    2.0157    6.2953 H   0  0  0  0  0  0  0  0  0  0  0  0
    2.3124   -0.1355   -0.1828 N   0  0  0  0  0  0  0  0  0  0  0  0
    3.2598   -0.6171   -1.1621 C   0  0  2  0  0  0  0  0  0  0  0  0
    3.2923   -2.1374   -1.0771 C   0  0  0  0  0  0  0  0  0  0  0  0
    2.9445   -2.7608   -0.0764 O   0  0  0  0  0  0  0  0  0  0  0  0
    4.6431   -0.0300   -0.9291 C   0  0  0  0  0  0  0  0  0  0  0  0
    2.6354    0.0151    0.7681 H   0  0  0  0  0  0  0  0  0  0  0  0
    2.8812   -0.3137   -2.1443 H   0  0  0  0  0  0  0  0  0  0  0  0
    5.0389   -0.3232    0.0501 H   0  0  0  0  0  0  0  0  0  0  0  0
    5.3531   -0.3735   -1.6888 H   0  0  0  0  0  0  0  0  0  0  0  0
    4.6125    1.0645   -0.9611 H   0  0  0  0  0  0  0  0  0  0  0  0
    3.7960   -2.7142   -2.2345 N   0  0  0  0  0  0  0  0  0  0  0  0
    3.9392   -4.1424   -2.3953 C   0  0  0  0  0  0  0  0  0  0  0  0
    4.0421   -2.1216   -3.0219 H   0  0  0  0  0  0  0  0  0  0  0  0
    4.9503   -4.4470   -2.0876 H   0  0  0  0  0  0  0  0  0  0  0  0
    3.1949   -4.6580   -1.7706 H   0  0  0  0  0  0  0  0  0  0  0  0
    3.7809   -4.4101   -3.4505 H   0  0  0  0  0  0  0  0  0  0  0  0
  1  3  1  0  0  0  0
  1  7  1  0  0  0  0
  1  2  2  0  0  0  0
 34 35  1  0  0  0  0
 35 43  1  0  0  0  0
 35 36  2  0  0  0  0
  8  9  1  0  0  0  0
  9 17  1  0  0  0  0
  9 10  2  0  0  0  0
 18 19  1  0  0  0  0
 19 33  1  0  0  0  0
 19 20  2  0  0  0  0
 22 23  1  0  0  0  0
 23 24  2  0  0  0  0
 23 25  1  0  0  0  0
 34 37  1  0  0  0  0
  8 11  1  0  0  0  0
 43 44  1  0  0  0  0
 21 22  1  0  0  0  0
 18 21  1  0  0  0  0
 33 34  1  0  0  0  0
  7  8  1  0  0  0  0
 17 18  1  0  0  0  0
  3  4  1  0  0  0  0
  3  5  1  0  0  0  0
  3  6  1  0  0  0  0
 37 40  1  0  0  0  0
 37 41  1  0  0  0  0
 37 42  1  0  0  0  0
 11 14  1  0  0  0  0
 11 15  1  0  0  0  0
 11 16  1  0  0  0  0
 44 46  1  0  0  0  0
 44 47  1  0  0  0  0
 44 48  1  0  0  0  0
 22 30  1  0  0  0  0
 22 31  1  0  0  0  0
 21 28  1  0  0  0  0
 21 29  1  0  0  0  0
 34 39  1  0  0  0  0
  8 13  1  0  0  0  0
 18 27  1  0  0  0  0
 43 45  1  0  0  0  0
  7 12  1  0  0  0  0
 33 38  1  0  0  0  0
 17 26  1  0  0  0  0
 25 32  1  0  0  0  0
M  END
$$$$

  -OEChem-05262214473D

 48 47  0     1  0  0  0  0  0999 V2000
   -5.5827   -1.3473    1.4591 C   0  0  0  0  0  0  0  0  0  0  0  0
   -5.7053   -2.4696    0.9825 O   0  0  0  0  0  0  0  0  0  0  0  0
   -6.7879   -0.6277    1.9670 C   0  0  0  0  0  0  0  0  0  0  0  0
   -7.2718   -0.0164    1.1885 H   0  0  0  0  0  0  0  0  0  0  0  0
   -7.5699   -1.3171    2.3239 H   0  0  0  0  0  0  0  0  0  0  0  0
   -6.6057    0.0628    2.8060 H   0  0  0  0  0  0  0  0  0  0  0  0
   -4.4001   -0.6377    1.5884 N   0  0  0  0  0  0  0  0  0  0  0  0
   -3.1220   -1.1455    1.1644 C   0  0  2  0  0  0  0  0  0  0  0  0
   -2.2017    0.0428    0.9187 C   0  0  0  0  0  0  0  0  0  0  0  0
   -2.6171    1.1750    0.6807 O   0  0  0  0  0  0  0  0  0  0  0  0
   -3.2533   -1.9992   -0.0873 C   0  0  0  0  0  0  0  0  0  0  0  0
   -4.4370    0.2910    2.0047 H   0  0  0  0  0  0  0  0  0  0  0  0
   -2.7302   -1.7467    1.9921 H   0  0  0  0  0  0  0  0  0  0  0  0
   -3.6446   -1.4140   -0.9275 H   0  0  0  0  0  0  0  0  0  0  0  0
   -2.2844   -2.4081   -0.3922 H   0  0  0  0  0  0  0  0  0  0  0  0
   -3.9388   -2.8365    0.0822 H   0  0  0  0  0  0  0  0  0  0  0  0
   -0.8768   -0.3314    0.9568 N   0  0  0  0  0  0  0  0  0  0  0  0
    0.2067    0.6285    0.7375 C   0  0  2  0  0  0  0  0  0  0  0  0
    0.9835    0.1312   -0.4777 C   0  0  0  0  0  0  0  0  0  0  0  0
    0.5678    0.2634   -1.6271 O   0  0  0  0  0  0  0  0  0  0  0  0
    1.0812    0.7033    1.9980 C   0  0  0  0  0  0  0  0  0  0  0  0
    0.3644    1.3084    3.2049 C   0  0  0  0  0  0  0  0  0  0  0  0
    1.2475    1.3421    4.4272 C   0  0  0  0  0  0  0  0  0  0  0  0
    2.3550    0.8228    4.4822 O   0  0  0  0  0  0  0  0  0  0  0  0
    0.6755    1.9873    5.4736 O   0  0  0  0  0  0  0  0  0  0  0  0
   -0.6087   -1.2764    1.1771 H   0  0  0  0  0  0  0  0  0  0  0  0
   -0.2359    1.6091    0.5338 H   0  0  0  0  0  0  0  0  0  0  0  0
    1.4272   -0.3060    2.2582 H   0  0  0  0  0  0  0  0  0  0  0  0
    1.9805    1.3012    1.7996 H   0  0  0  0  0  0  0  0  0  0  0  0
    0.0855    2.3464    2.9861 H   0  0  0  0  0  0  0  0  0  0  0  0
   -0.5761    0.7922    3.4239 H   0  0  0  0  0  0  0  0  0  0  0  0
    1.2101    2.0157    6.2953 H   0  0  0  0  0  0  0  0  0  0  0  0
    2.1964   -0.4451   -0.1302 N   0  0  0  0  0  0  0  0  0  0  0  0
    3.1195   -0.9924   -1.0982 C   0  0  2  0  0  0  0  0  0  0  0  0
    2.8380   -2.4837   -1.2257 C   0  0  0  0  0  0  0  0  0  0  0  0
    2.2757   -3.1375   -0.3497 O   0  0  0  0  0  0  0  0  0  0  0  0
    4.5628   -0.7448   -0.6880 C   0  0  0  0  0  0  0  0  0  0  0  0
    2.4481   -0.4844    0.8529 H   0  0  0  0  0  0  0  0  0  0  0  0
    2.9078   -0.4973   -2.0522 H   0  0  0  0  0  0  0  0  0  0  0  0
    4.7936   -1.2332    0.2658 H   0  0  0  0  0  0  0  0  0  0  0  0
    5.2605   -1.1347   -1.4364 H   0  0  0  0  0  0  0  0  0  0  0  0
    4.7554    0.3268   -0.5678 H   0  0  0  0  0  0  0  0  0  0  0  0
    3.3271   -3.0073   -2.4143 N   0  0  0  0  0  0  0  0  0  0  0  0
    3.1960   -4.4025   -2.7639 C   0  0  0  0  0  0  0  0  0  0  0  0
    3.7631   -2.3880   -3.0912 H   0  0  0  0  0  0  0  0  0  0  0  0
    4.0904   -4.9499   -2.4315 H   0  0  0  0  0  0  0  0  0  0  0  0
    2.3059   -4.8216   -2.2720 H   0  0  0  0  0  0  0  0  0  0  0  0
    3.0917   -4.4988   -3.8547 H   0  0  0  0  0  0  0  0  0  0  0  0
  1  3  1  0  0  0  0
  1  7  1  0  0  0  0
  1  2  2  0  0  0  0
 34 35  1  0  0  0  0
 35 43  1  0  0  0  0
 35 36  2  0  0  0  0
  8  9  1  0  0  0  0
  9 17  1  0  0  0  0
  9 10  2  0  0  0  0
 18 19  1  0  0  0  0
 19 33  1  0  0  0  0
 19 20  2  0  0  0  0
 22 23  1  0  0  0  0
 23 24  2  0  0  0  0
 23 25  1  0  0  0  0
 34 37  1  0  0  0  0
  8 11  1  0  0  0  0
 43 44  1  0  0  0  0
 21 22  1  0  0  0  0
 18 21  1  0  0  0  0
 33 34  1  0  0  0  0
  7  8  1  0  0  0  0
 17 18  1  0  0  0  0
  3  4  1  0  0  0  0
  3  5  1  0  0  0  0
  3  6  1  0  0  0  0
 37 40  1  0  0  0  0
 37 41  1  0  0  0  0
 37 42  1  0  0  0  0
 11 14  1  0  0  0  0
 11 15  1  0  0  0  0
 11 16  1  0  0  0  0
 44 46  1  0  0  0  0
 44 47  1  0  0  0  0
 44 48  1  0  0  0  0
 22 30  1  0  0  0  0
 22 31  1  0  0  0  0
 21 28  1  0  0  0  0
 21 29  1  0  0  0  0
 34 39  1  0  0  0  0
  8 13  1  0  0  0  0
 18 27  1  0  0  0  0
 43 45  1  0  0  0  0
  7 12  1  0  0  0  0
 33 38  1  0  0  0  0
 17 26  1  0  0  0  0
 25 32  1  0  0  0  0
M  END
$$$$

  -OEChem-05262214473D

 48 47  0     1  0  0  0  0  0999 V2000
   -5.5827   -1.3473    1.4591 C   0  0  0  0  0  0  0  0  0  0  0  0
   -5.7053   -2.4696    0.9825 O   0  0  0  0  0  0  0  0  0  0  0  0
   -6.7879   -0.6277    1.9670 C   0  0  0  0  0  0  0  0  0  0  0  0
   -7.2718   -0.0164    1.1885 H   0  0  0  0  0  0  0  0  0  0  0  0
   -7.5699   -1.3171    2.3239 H   0  0  0  0  0  0  0  0  0  0  0  0
   -6.6057    0.0628    2.8060 H   0  0  0  0  0  0  0  0  0  0  0  0
   -4.4001   -0.6377    1.5884 N   0  0  0  0  0  0  0  0  0  0  0  0
   -3.1220   -1.1455    1.1644 C   0  0  2  0  0  0  0  0  0  0  0  0
   -2.2017    0.0428    0.9187 C   0  0  0  0  0  0  0  0  0  0  0  0
   -2.6171    1.1750    0.6807 O   0  0  0  0  0  0  0  0  0  0  0  0
   -3.2533   -1.9992   -0.0873 C   0  0  0  0  0  0  0  0  0  0  0  0
   -4.4370    0.2910    2.0047 H   0  0  0  0  0  0  0  0  0  0  0  0
   -2.7302   -1.7467    1.9921 H   0  0  0  0  0  0  0  0  0  0  0  0
   -3.6446   -1.4140   -0.9275 H   0  0  0  0  0  0  0  0  0  0  0  0
   -2.2844   -2.4081   -0.3922 H   0  0  0  0  0  0  0  0  0  0  0  0
   -3.9388   -2.8365    0.0822 H   0  0  0  0  0  0  0  0  0  0  0  0
   -0.8768   -0.3314    0.9568 N   0  0  0  0  0  0  0  0  0  0  0  0
    0.2067    0.6285    0.7375 C   0  0  2  0  0  0  0  0  0  0  0  0
    0.9835    0.1312   -0.4777 C   0  0  0  0  0  0  0  0  0  0  0  0
    0.7177    0.4887   -1.6236 O   0  0  0  0  0  0  0  0  0  0  0  0
    1.0812    0.7033    1.9980 C   0  0  0  0  0  0  0  0  0  0  0  0
    0.3644    1.3084    3.2049 C   0  0  0  0  0  0  0  0  0  0  0  0
    1.2475    1.3421    4.4272 C   0  0  0  0  0  0  0  0  0  0  0  0
    2.3550    0.8228    4.4822 O   0  0  0  0  0  0  0  0  0  0  0  0
    0.6755    1.9873    5.4736 O   0  0  0  0  0  0  0  0  0  0  0  0
   -0.6087   -1.2764    1.1771 H   0  0  0  0  0  0  0  0  0  0  0  0
   -0.2359    1.6091    0.5338 H   0  0  0  0  0  0  0  0  0  0  0  0
    1.4272   -0.3060    2.2582 H   0  0  0  0  0  0  0  0  0  0  0  0
    1.9805    1.3012    1.7996 H   0  0  0  0  0  0  0  0  0  0  0  0
    0.0855    2.3464    2.9861 H   0  0  0  0  0  0  0  0  0  0  0  0
   -0.5761    0.7922    3.4239 H   0  0  0  0  0  0  0  0  0  0  0  0
    1.2101    2.0157    6.2953 H   0  0  0  0  0  0  0  0  0  0  0  0
    2.0161   -0.7272   -0.1300 N   0  0  0  0  0  0  0  0  0  0  0  0
    2.9013   -1.3343   -1.0978 C   0  0  2  0  0  0  0  0  0  0  0  0
    2.3404   -2.7049   -1.4533 C   0  0  0  0  0  0  0  0  0  0  0  0
    1.5752   -3.3274   -0.7198 O   0  0  0  0  0  0  0  0  0  0  0  0
    4.3175   -1.4504   -0.5560 C   0  0  0  0  0  0  0  0  0  0  0  0
    2.1571   -0.9395    0.8530 H   0  0  0  0  0  0  0  0  0  0  0  0
    2.8878   -0.6921   -1.9852 H   0  0  0  0  0  0  0  0  0  0  0  0
    4.3509   -2.0901    0.3335 H   0  0  0  0  0  0  0  0  0  0  0  0
    4.9929   -1.8842   -1.3007 H   0  0  0  0  0  0  0  0  0  0  0  0
    4.7083   -0.4670   -0.2730 H   0  0  0  0  0  0  0  0  0  0  0  0
    2.8288   -3.1700   -2.6662 N   0  0  0  0  0  0  0  0  0  0  0  0
    2.4557   -4.4520   -3.2169 C   0  0  0  0  0  0  0  0  0  0  0  0
    3.4445   -2.5788   -3.2168 H   0  0  0  0  0  0  0  0  0  0  0  0
    3.1851   -5.2131   -2.9026 H   0  0  0  0  0  0  0  0  0  0  0  0
    1.4557   -4.7303   -2.8529 H   0  0  0  0  0  0  0  0  0  0  0  0
    2.4418   -4.3892   -4.3151 H   0  0  0  0  0  0  0  0  0  0  0  0
  1  3  1  0  0  0  0
  1  7  1  0  0  0  0
  1  2  2  0  0  0  0
 34 35  1  0  0  0  0
 35 43  1  0  0  0  0
 35 36  2  0  0  0  0
  8  9  1  0  0  0  0
  9 17  1  0  0  0  0
  9 10  2  0  0  0  0
 18 19  1  0  0  0  0
 19 33  1  0  0  0  0
 19 20  2  0  0  0  0
 22 23  1  0  0  0  0
 23 24  2  0  0  0  0
 23 25  1  0  0  0  0
 34 37  1  0  0  0  0
  8 11  1  0  0  0  0
 43 44  1  0  0  0  0
 21 22  1  0  0  0  0
 18 21  1  0  0  0  0
 33 34  1  0  0  0  0
  7  8  1  0  0  0  0
 17 18  1  0  0  0  0
  3  4  1  0  0  0  0
  3  5  1  0  0  0  0
  3  6  1  0  0  0  0
 37 40  1  0  0  0  0
 37 41  1  0  0  0  0
 37 42  1  0  0  0  0
 11 14  1  0  0  0  0
 11 15  1  0  0  0  0
 11 16  1  0  0  0  0
 44 46  1  0  0  0  0
 44 47  1  0  0  0  0
 44 48  1  0  0  0  0
 22 30  1  0  0  0  0
 22 31  1  0  0  0  0
 21 28  1  0  0  0  0
 21 29  1  0  0  0  0
 34 39  1  0  0  0  0
  8 13  1  0  0  0  0
 18 27  1  0  0  0  0
 43 45  1  0  0  0  0
  7 12  1  0  0  0  0
 33 38  1  0  0  0  0
 17 26  1  0  0  0  0
 25 32  1  0  0  0  0
M  END
$$$$

  -OEChem-05262214473D

 48 47  0     1  0  0  0  0  0999 V2000
   -5.5827   -1.3473    1.4591 C   0  0  0  0  0  0  0  0  0  0  0  0
   -5.7053   -2.4696    0.9825 O   0  0  0  0  0  0  0  0  0  0  0  0
   -6.7879   -0.6277    1.9670 C   0  0  0  0  0  0  0  0  0  0  0  0
   -7.2718   -0.0164    1.1885 H   0  0  0  0  0  0  0  0  0  0  0  0
   -7.5699   -1.3171    2.3239 H   0  0  0  0  0  0  0  0  0  0  0  0
   -6.6057    0.0628    2.8060 H   0  0  0  0  0  0  0  0  0  0  0  0
   -4.4001   -0.6377    1.5884 N   0  0  0  0  0  0  0  0  0  0  0  0
   -3.1220   -1.1455    1.1644 C   0  0  2  0  0  0  0  0  0  0  0  0
   -2.2017    0.0428    0.9187 C   0  0  0  0  0  0  0  0  0  0  0  0
   -2.6171    1.1750    0.6807 O   0  0  0  0  0  0  0  0  0  0  0  0
   -3.2533   -1.9992   -0.0873 C   0  0  0  0  0  0  0  0  0  0  0  0
   -4.4370    0.2910    2.0047 H   0  0  0  0  0  0  0  0  0  0  0  0
   -2.7302   -1.7467    1.9921 H   0  0  0  0  0  0  0  0  0  0  0  0
   -3.6446   -1.4140   -0.9275 H   0  0  0  0  0  0  0  0  0  0  0  0
   -2.2844   -2.4081   -0.3922 H   0  0  0  0  0  0  0  0  0  0  0  0
   -3.9388   -2.8365    0.0822 H   0  0  0  0  0  0  0  0  0  0  0  0
   -0.8768   -0.3314    0.9568 N   0  0  0  0  0  0  0  0  0  0  0  0
    0.2067    0.6285    0.7375 C   0  0  2  0  0  0  0  0  0  0  0  0
    0.9835    0.1312   -0.4777 C   0  0  0  0  0  0  0  0  0  0  0  0
    0.9086    0.6750   -1.5778 O   0  0  0  0  0  0  0  0  0  0  0  0
    1.0812    0.7033    1.9980 C   0  0  0  0  0  0  0  0  0  0  0  0
    0.3644    1.3084    3.2049 C   0  0  0  0  0  0  0  0  0  0  0  0
    1.2475    1.3421    4.4272 C   0  0  0  0  0  0  0  0  0  0  0  0
    2.3550    0.8228    4.4822 O   0  0  0  0  0  0  0  0  0  0  0  0
    0.6755    1.9873    5.4736 O   0  0  0  0  0  0  0  0  0  0  0  0
   -0.6087   -1.2764    1.1771 H   0  0  0  0  0  0  0  0  0  0  0  0
   -0.2359    1.6091    0.5338 H   0  0  0  0  0  0  0  0  0  0  0  0
    1.4272   -0.3060    2.2582 H   0  0  0  0  0  0  0  0  0  0  0  0
    1.9805    1.3012    1.7996 H   0  0  0  0  0  0  0  0  0  0  0  0
    0.0855    2.3464    2.9861 H   0  0  0  0  0  0  0  0  0  0  0  0
   -0.5761    0.7922    3.4239 H   0  0  0  0  0  0  0  0  0  0  0  0
    1.2101    2.0157    6.2953 H   0  0  0  0  0  0  0  0  0  0  0  0
    1.7838   -0.9625   -0.1822 N   0  0  0  0  0  0  0  0  0  0  0  0
    2.6199   -1.6196   -1.1609 C   0  0  2  0  0  0  0  0  0  0  0  0
    1.8333   -2.7860   -1.7443 C   0  0  0  0  0  0  0  0  0  0  0  0
    0.8906   -3.3176   -1.1614 O   0  0  0  0  0  0  0  0  0  0  0  0
    3.9239   -2.0988   -0.5422 C   0  0  0  0  0  0  0  0  0  0  0  0
    1.7821   -1.3191    0.7687 H   0  0  0  0  0  0  0  0  0  0  0  0
    2.8227   -0.8851   -1.9479 H   0  0  0  0  0  0  0  0  0  0  0  0
    3.7409   -2.8354    0.2486 H   0  0  0  0  0  0  0  0  0  0  0  0
    4.5684   -2.5709   -1.2910 H   0  0  0  0  0  0  0  0  0  0  0  0
    4.4743   -1.2629   -0.0968 H   0  0  0  0  0  0  0  0  0  0  0  0
    2.3353   -3.1913   -2.9731 N   0  0  0  0  0  0  0  0  0  0  0  0
    1.7686   -4.2875   -3.7235 C   0  0  0  0  0  0  0  0  0  0  0  0
    3.1080   -2.6808   -3.3902 H   0  0  0  0  0  0  0  0  0  0  0  0
    2.2961   -5.2185   -3.4686 H   0  0  0  0  0  0  0  0  0  0  0  0
    0.7023   -4.3902   -3.4737 H   0  0  0  0  0  0  0  0  0  0  0  0
    1.8754   -4.0887   -4.8001 H   0  0  0  0  0  0  0  0  0  0  0  0
  1  3  1  0  0  0  0
  1  7  1  0  0  0  0
  1  2  2  0  0  0  0
 34 35  1  0  0  0  0
 35 43  1  0  0  0  0
 35 36  2  0  0  0  0
  8  9  1  0  0  0  0
  9 17  1  0  0  0  0
  9 10  2  0  0  0  0
 18 19  1  0  0  0  0
 19 33  1  0  0  0  0
 19 20  2  0  0  0  0
 22 23  1  0  0  0  0
 23 24  2  0  0  0  0
 23 25  1  0  0  0  0
 34 37  1  0  0  0  0
  8 11  1  0  0  0  0
 43 44  1  0  0  0  0
 21 22  1  0  0  0  0
 18 21  1  0  0  0  0
 33 34  1  0  0  0  0
  7  8  1  0  0  0  0
 17 18  1  0  0  0  0
  3  4  1  0  0  0  0
  3  5  1  0  0  0  0
  3  6  1  0  0  0  0
 37 40  1  0  0  0  0
 37 41  1  0  0  0  0
 37 42  1  0  0  0  0
 11 14  1  0  0  0  0
 11 15  1  0  0  0  0
 11 16  1  0  0  0  0
 44 46  1  0  0  0  0
 44 47  1  0  0  0  0
 44 48  1  0  0  0  0
 22 30  1  0  0  0  0
 22 31  1  0  0  0  0
 21 28  1  0  0  0  0
 21 29  1  0  0  0  0
 34 39  1  0  0  0  0
  8 13  1  0  0  0  0
 18 27  1  0  0  0  0
 43 45  1  0  0  0  0
  7 12  1  0  0  0  0
 33 38  1  0  0  0  0
 17 26  1  0  0  0  0
 25 32  1  0  0  0  0
M  END
$$$$

  -OEChem-05262214473D

 48 47  0     1  0  0  0  0  0999 V2000
   -5.5827   -1.3473    1.4591 C   0  0  0  0  0  0  0  0  0  0  0  0
   -5.7053   -2.4696    0.9825 O   0  0  0  0  0  0  0  0  0  0  0  0
   -6.7879   -0.6277    1.9670 C   0  0  0  0  0  0  0  0  0  0  0  0
   -7.2718   -0.0164    1.1885 H   0  0  0  0  0  0  0  0  0  0  0  0
   -7.5699   -1.3171    2.3239 H   0  0  0  0  0  0  0  0  0  0  0  0
   -6.6057    0.0628    2.8060 H   0  0  0  0  0  0  0  0  0  0  0  0
   -4.4001   -0.6377    1.5884 N   0  0  0  0  0  0  0  0  0  0  0  0
   -3.1220   -1.1455    1.1644 C   0  0  2  0  0  0  0  0  0  0  0  0
   -2.2017    0.0428    0.9187 C   0  0  0  0  0  0  0  0  0  0  0  0
   -2.6171    1.1750    0.6807 O   0  0  0  0  0  0  0  0  0  0  0  0
   -3.2533   -1.9992   -0.0873 C   0  0  0  0  0  0  0  0  0  0  0  0
   -4.4370    0.2910    2.0047 H   0  0  0  0  0  0  0  0  0  0  0  0
   -2.7302   -1.7467    1.9921 H   0  0  0  0  0  0  0  0  0  0  0  0
   -3.6446   -1.4140   -0.9275 H   0  0  0  0  0  0  0  0  0  0  0  0
   -2.2844   -2.4081   -0.3922 H   0  0  0  0  0  0  0  0  0  0  0  0
   -3.9388   -2.8365    0.0822 H   0  0  0  0  0  0  0  0  0  0  0  0
   -0.8768   -0.3314    0.9568 N   0  0  0  0  0  0  0  0  0  0  0  0
    0.2067    0.6285    0.7375 C   0  0  2  0  0  0  0  0  0  0  0  0
    0.9835    0.1312   -0.4777 C   0  0  0  0  0  0  0  0  0  0  0  0
    1.1275    0.8096   -1.4929 O   0  0  0  0  0  0  0  0  0  0  0  0
    1.0812    0.7033    1.9980 C   0  0  0  0  0  0  0  0  0  0  0  0
    0.3644    1.3084    3.2049 C   0  0  0  0  0  0  0  0  0  0  0  0
    1.2475    1.3421    4.4272 C   0  0  0  0  0  0  0  0  0  0  0  0
    2.3550    0.8228    4.4822 O   0  0  0  0  0  0  0  0  0  0  0  0
    0.6755    1.9873    5.4736 O   0  0  0  0  0  0  0  0  0  0  0  0
   -0.6087   -1.2764    1.1771 H   0  0  0  0  0  0  0  0  0  0  0  0
   -0.2359    1.6091    0.5338 H   0  0  0  0  0  0  0  0  0  0  0  0
    1.4272   -0.3060    2.2582 H   0  0  0  0  0  0  0  0  0  0  0  0
    1.9805    1.3012    1.7996 H   0  0  0  0  0  0  0  0  0  0  0  0
    0.0855    2.3464    2.9861 H   0  0  0  0  0  0  0  0  0  0  0  0
   -0.5761    0.7922    3.4239 H   0  0  0  0  0  0  0  0  0  0  0  0
    1.2101    2.0157    6.2953 H   0  0  0  0  0  0  0  0  0  0  0  0
    1.5153   -1.1351   -0.2832 N   0  0  0  0  0  0  0  0  0  0  0  0
    2.2947   -1.8289   -1.2831 C   0  0  2  0  0  0  0  0  0  0  0  0
    1.3514   -2.7214   -2.0788 C   0  0  0  0  0  0  0  0  0  0  0  0
    0.2686   -3.1089   -1.6445 O   0  0  0  0  0  0  0  0  0  0  0  0
    3.4089   -2.6457   -0.6475 C   0  0  0  0  0  0  0  0  0  0  0  0
    1.3488   -1.5973    0.6056 H   0  0  0  0  0  0  0  0  0  0  0  0
    2.7169   -1.0630   -1.9427 H   0  0  0  0  0  0  0  0  0  0  0  0
    3.0052   -3.4184    0.0169 H   0  0  0  0  0  0  0  0  0  0  0  0
    4.0160   -3.1480   -1.4079 H   0  0  0  0  0  0  0  0  0  0  0  0
    4.0692   -2.0067   -0.0514 H   0  0  0  0  0  0  0  0  0  0  0  0
    1.8800   -3.0697   -3.3139 N   0  0  0  0  0  0  0  0  0  0  0  0
    1.1815   -3.9202   -4.2491 C   0  0  0  0  0  0  0  0  0  0  0  0
    2.7766   -2.6871   -3.5995 H   0  0  0  0  0  0  0  0  0  0  0  0
    1.4840   -4.9659   -4.0911 H   0  0  0  0  0  0  0  0  0  0  0  0
    0.0970   -3.8247   -4.0921 H   0  0  0  0  0  0  0  0  0  0  0  0
    1.4313   -3.6177   -5.2768 H   0  0  0  0  0  0  0  0  0  0  0  0
  1  3  1  0  0  0  0
  1  7  1  0  0  0  0
  1  2  2  0  0  0  0
 34 35  1  0  0  0  0
 35 43  1  0  0  0  0
 35 36  2  0  0  0  0
  8  9  1  0  0  0  0
  9 17  1  0  0  0  0
  9 10  2  0  0  0  0
 18 19  1  0  0  0  0
 19 33  1  0  0  0  0
 19 20  2  0  0  0  0
 22 23  1  0  0  0  0
 23 24  2  0  0  0  0
 23 25  1  0  0  0  0
 34 37  1  0  0  0  0
  8 11  1  0  0  0  0
 43 44  1  0  0  0  0
 21 22  1  0  0  0  0
 18 21  1  0  0  0  0
 33 34  1  0  0  0  0
  7  8  1  0  0  0  0
 17 18  1  0  0  0  0
  3  4  1  0  0  0  0
  3  5  1  0  0  0  0
  3  6  1  0  0  0  0
 37 40  1  0  0  0  0
 37 41  1  0  0  0  0
 37 42  1  0  0  0  0
 11 14  1  0  0  0  0
 11 15  1  0  0  0  0
 11 16  1  0  0  0  0
 44 46  1  0  0  0  0
 44 47  1  0  0  0  0
 44 48  1  0  0  0  0
 22 30  1  0  0  0  0
 22 31  1  0  0  0  0
 21 28  1  0  0  0  0
 21 29  1  0  0  0  0
 34 39  1  0  0  0  0
  8 13  1  0  0  0  0
 18 27  1  0  0  0  0
 43 45  1  0  0  0  0
  7 12  1  0  0  0  0
 33 38  1  0  0  0  0
 17 26  1  0  0  0  0
 25 32  1  0  0  0  0
M  END
$$$$

  -OEChem-05262214473D

 48 47  0     1  0  0  0  0  0999 V2000
   -5.5827   -1.3473    1.4591 C   0  0  0  0  0  0  0  0  0  0  0  0
   -5.7053   -2.4696    0.9825 O   0  0  0  0  0  0  0  0  0  0  0  0
   -6.7879   -0.6277    1.9670 C   0  0  0  0  0  0  0  0  0  0  0  0
   -7.2718   -0.0164    1.1885 H   0  0  0  0  0  0  0  0  0  0  0  0
   -7.5699   -1.3171    2.3239 H   0  0  0  0  0  0  0  0  0  0  0  0
   -6.6057    0.0628    2.8060 H   0  0  0  0  0  0  0  0  0  0  0  0
   -4.4001   -0.6377    1.5884 N   0  0  0  0  0  0  0  0  0  0  0  0
   -3.1220   -1.1455    1.1644 C   0  0  2  0  0  0  0  0  0  0  0  0
   -2.2017    0.0428    0.9187 C   0  0  0  0  0  0  0  0  0  0  0  0
   -2.6171    1.1750    0.6807 O   0  0  0  0  0  0  0  0  0  0  0  0
   -3.2533   -1.9992   -0.0873 C   0  0  0  0  0  0  0  0  0  0  0  0
   -4.4370    0.2910    2.0047 H   0  0  0  0  0  0  0  0  0  0  0  0
   -2.7302   -1.7467    1.9921 H   0  0  0  0  0  0  0  0  0  0  0  0
   -3.6446   -1.4140   -0.9275 H   0  0  0  0  0  0  0  0  0  0  0  0
   -2.2844   -2.4081   -0.3922 H   0  0  0  0  0  0  0  0  0  0  0  0
   -3.9388   -2.8365    0.0822 H   0  0  0  0  0  0  0  0  0  0  0  0
   -0.8768   -0.3314    0.9568 N   0  0  0  0  0  0  0  0  0  0  0  0
    0.2067    0.6285    0.7375 C   0  0  2  0  0  0  0  0  0  0  0  0
    0.9835    0.1312   -0.4777 C   0  0  0  0  0  0  0  0  0  0  0  0
    1.3596    0.8832   -1.3747 O   0  0  0  0  0  0  0  0  0  0  0  0
    1.0812    0.7033    1.9980 C   0  0  0  0  0  0  0  0  0  0  0  0
    0.3644    1.3084    3.2049 C   0  0  0  0  0  0  0  0  0  0  0  0
    1.2475    1.3421    4.4272 C   0  0  0  0  0  0  0  0  0  0  0  0
    2.3550    0.8228    4.4822 O   0  0  0  0  0  0  0  0  0  0  0  0
    0.6755    1.9873    5.4736 O   0  0  0  0  0  0  0  0  0  0  0  0
   -0.6087   -1.2764    1.1771 H   0  0  0  0  0  0  0  0  0  0  0  0
   -0.2359    1.6091    0.5338 H   0  0  0  0  0  0  0  0  0  0  0  0
    1.4272   -0.3060    2.2582 H   0  0  0  0  0  0  0  0  0  0  0  0
    1.9805    1.3012    1.7996 H   0  0  0  0  0  0  0  0  0  0  0  0
    0.0855    2.3464    2.9861 H   0  0  0  0  0  0  0  0  0  0  0  0
   -0.5761    0.7922    3.4239 H   0  0  0  0  0  0  0  0  0  0  0  0
    1.2101    2.0157    6.2953 H   0  0  0  0  0  0  0  0  0  0  0  0
    1.2289   -1.2330   -0.4262 N   0  0  0  0  0  0  0  0  0  0  0  0
    1.9477   -1.9480   -1.4562 C   0  0  2  0  0  0  0  0  0  0  0  0
    0.9274   -2.5157   -2.4341 C   0  0  0  0  0  0  0  0  0  0  0  0
   -0.2484   -2.7153   -2.1361 O   0  0  0  0  0  0  0  0  0  0  0  0
    2.8076   -3.0540   -0.8648 C   0  0  0  0  0  0  0  0  0  0  0  0
    0.8866   -1.7552    0.3748 H   0  0  0  0  0  0  0  0  0  0  0  0
    2.5776   -1.2137   -1.9701 H   0  0  0  0  0  0  0  0  0  0  0  0
    2.1939   -3.7993   -0.3458 H   0  0  0  0  0  0  0  0  0  0  0  0
    3.3734   -3.5761   -1.6435 H   0  0  0  0  0  0  0  0  0  0  0  0
    3.5208   -2.6476   -0.1396 H   0  0  0  0  0  0  0  0  0  0  0  0
    1.4941   -2.8134   -3.6654 N   0  0  0  0  0  0  0  0  0  0  0  0
    0.7346   -3.3751   -4.7579 C   0  0  0  0  0  0  0  0  0  0  0  0
    2.4728   -2.5973   -3.8304 H   0  0  0  0  0  0  0  0  0  0  0  0
    0.8043   -4.4725   -4.7276 H   0  0  0  0  0  0  0  0  0  0  0  0
   -0.3188   -3.0721   -4.6659 H   0  0  0  0  0  0  0  0  0  0  0  0
    1.1396   -3.0084   -5.7126 H   0  0  0  0  0  0  0  0  0  0  0  0
  1  3  1  0  0  0  0
  1  7  1  0  0  0  0
  1  2  2  0  0  0  0
 34 35  1  0  0  0  0
 35 43  1  0  0  0  0
 35 36  2  0  0  0  0
  8  9  1  0  0  0  0
  9 17  1  0  0  0  0
  9 10  2  0  0  0  0
 18 19  1  0  0  0  0
 19 33  1  0  0  0  0
 19 20  2  0  0  0  0
 22 23  1  0  0  0  0
 23 24  2  0  0  0  0
 23 25  1  0  0  0  0
 34 37  1  0  0  0  0
  8 11  1  0  0  0  0
 43 44  1  0  0  0  0
 21 22  1  0  0  0  0
 18 21  1  0  0  0  0
 33 34  1  0  0  0  0
  7  8  1  0  0  0  0
 17 18  1  0  0  0  0
  3  4  1  0  0  0  0
  3  5  1  0  0  0  0
  3  6  1  0  0  0  0
 37 40  1  0  0  0  0
 37 41  1  0  0  0  0
 37 42  1  0  0  0  0
 11 14  1  0  0  0  0
 11 15  1  0  0  0  0
 11 16  1  0  0  0  0
 44 46  1  0  0  0  0
 44 47  1  0  0  0  0
 44 48  1  0  0  0  0
 22 30  1  0  0  0  0
 22 31  1  0  0  0  0
 21 28  1  0  0  0  0
 21 29  1  0  0  0  0
 34 39  1  0  0  0  0
  8 13  1  0  0  0  0
 18 27  1  0  0  0  0
 43 45  1  0  0  0  0
  7 12  1  0  0  0  0
 33 38  1  0  0  0  0
 17 26  1  0  0  0  0
 25 32  1  0  0  0  0
M  END
$$$$

  -OEChem-05262214473D

 48 47  0     1  0  0  0  0  0999 V2000
   -5.5827   -1.3473    1.4591 C   0  0  0  0  0  0  0  0  0  0  0  0
   -5.7053   -2.4696    0.9825 O   0  0  0  0  0  0  0  0  0  0  0  0
   -6.7879   -0.6277    1.9670 C   0  0  0  0  0  0  0  0  0  0  0  0
   -7.2718   -0.0164    1.1885 H   0  0  0  0  0  0  0  0  0  0  0  0
   -7.5699   -1.3171    2.3239 H   0  0  0  0  0  0  0  0  0  0  0  0
   -6.6057    0.0628    2.8060 H   0  0  0  0  0  0  0  0  0  0  0  0
   -4.4001   -0.6377    1.5884 N   0  0  0  0  0  0  0  0  0  0  0  0
   -3.1220   -1.1455    1.1644 C   0  0  2  0  0  0  0  0  0  0  0  0
   -2.2017    0.0428    0.9187 C   0  0  0  0  0  0  0  0  0  0  0  0
   -2.6171    1.1750    0.6807 O   0  0  0  0  0  0  0  0  0  0  0  0
   -3.2533   -1.9992   -0.0873 C   0  0  0  0  0  0  0  0  0  0  0  0
   -4.4370    0.2910    2.0047 H   0  0  0  0  0  0  0  0  0  0  0  0
   -2.7302   -1.7467    1.9921 H   0  0  0  0  0  0  0  0  0  0  0  0
   -3.6446   -1.4140   -0.9275 H   0  0  0  0  0  0  0  0  0  0  0  0
   -2.2844   -2.4081   -0.3922 H   0  0  0  0  0  0  0  0  0  0  0  0
   -3.9388   -2.8365    0.0822 H   0  0  0  0  0  0  0  0  0  0  0  0
   -0.8768   -0.3314    0.9568 N   0  0  0  0  0  0  0  0  0  0  0  0
    0.2067    0.6285    0.7375 C   0  0  2  0  0  0  0  0  0  0  0  0
    0.9835    0.1312   -0.4777 C   0  0  0  0  0  0  0  0  0  0  0  0
    1.5890    0.8909   -1.2312 O   0  0  0  0  0  0  0  0  0  0  0  0
    1.0812    0.7033    1.9980 C   0  0  0  0  0  0  0  0  0  0  0  0
    0.3644    1.3084    3.2049 C   0  0  0  0  0  0  0  0  0  0  0  0
    1.2475    1.3421    4.4272 C   0  0  0  0  0  0  0  0  0  0  0  0
    2.3550    0.8228    4.4822 O   0  0  0  0  0  0  0  0  0  0  0  0
    0.6755    1.9873    5.4736 O   0  0  0  0  0  0  0  0  0  0  0  0
   -0.6087   -1.2764    1.1771 H   0  0  0  0  0  0  0  0  0  0  0  0
   -0.2359    1.6091    0.5338 H   0  0  0  0  0  0  0  0  0  0  0  0
    1.4272   -0.3060    2.2582 H   0  0  0  0  0  0  0  0  0  0  0  0
    1.9805    1.3012    1.7996 H   0  0  0  0  0  0  0  0  0  0  0  0
    0.0855    2.3464    2.9861 H   0  0  0  0  0  0  0  0  0  0  0  0
   -0.5761    0.7922    3.4239 H   0  0  0  0  0  0  0  0  0  0  0  0
    1.2101    2.0157    6.2953 H   0  0  0  0  0  0  0  0  0  0  0  0
    0.9441   -1.2498   -0.6014 N   0  0  0  0  0  0  0  0  0  0  0  0
    1.6026   -1.9686   -1.6684 C   0  0  2  0  0  0  0  0  0  0  0  0
    0.5902   -2.1826   -2.7859 C   0  0  0  0  0  0  0  0  0  0  0  0
   -0.6252   -2.1638   -2.6026 O   0  0  0  0  0  0  0  0  0  0  0  0
    2.1610   -3.2958   -1.1792 C   0  0  0  0  0  0  0  0  0  0  0  0
    0.4271   -1.7820    0.0920 H   0  0  0  0  0  0  0  0  0  0  0  0
    2.4142   -1.3269   -2.0281 H   0  0  0  0  0  0  0  0  0  0  0  0
    1.3623   -3.9522   -0.8148 H   0  0  0  0  0  0  0  0  0  0  0  0
    2.6842   -3.8261   -1.9818 H   0  0  0  0  0  0  0  0  0  0  0  0
    2.8665   -3.1420   -0.3556 H   0  0  0  0  0  0  0  0  0  0  0  0
    1.2039   -2.4400   -4.0038 N   0  0  0  0  0  0  0  0  0  0  0  0
    0.4582   -2.6894   -5.2153 C   0  0  0  0  0  0  0  0  0  0  0  0
    2.2174   -2.4174   -4.0673 H   0  0  0  0  0  0  0  0  0  0  0  0
    0.3031   -3.7719   -5.3347 H   0  0  0  0  0  0  0  0  0  0  0  0
   -0.5169   -2.1838   -5.1561 H   0  0  0  0  0  0  0  0  0  0  0  0
    1.0202   -2.3023   -6.0779 H   0  0  0  0  0  0  0  0  0  0  0  0
  1  3  1  0  0  0  0
  1  7  1  0  0  0  0
  1  2  2  0  0  0  0
 34 35  1  0  0  0  0
 35 43  1  0  0  0  0
 35 36  2  0  0  0  0
  8  9  1  0  0  0  0
  9 17  1  0  0  0  0
  9 10  2  0  0  0  0
 18 19  1  0  0  0  0
 19 33  1  0  0  0  0
 19 20  2  0  0  0  0
 22 23  1  0  0  0  0
 23 24  2  0  0  0  0
 23 25  1  0  0  0  0
 34 37  1  0  0  0  0
  8 11  1  0  0  0  0
 43 44  1  0  0  0  0
 21 22  1  0  0  0  0
 18 21  1  0  0  0  0
 33 34  1  0  0  0  0
  7  8  1  0  0  0  0
 17 18  1  0  0  0  0
  3  4  1  0  0  0  0
  3  5  1  0  0  0  0
  3  6  1  0  0  0  0
 37 40  1  0  0  0  0
 37 41  1  0  0  0  0
 37 42  1  0  0  0  0
 11 14  1  0  0  0  0
 11 15  1  0  0  0  0
 11 16  1  0  0  0  0
 44 46  1  0  0  0  0
 44 47  1  0  0  0  0
 44 48  1  0  0  0  0
 22 30  1  0  0  0  0
 22 31  1  0  0  0  0
 21 28  1  0  0  0  0
 21 29  1  0  0  0  0
 34 39  1  0  0  0  0
  8 13  1  0  0  0  0
 18 27  1  0  0  0  0
 43 45  1  0  0  0  0
  7 12  1  0  0  0  0
 33 38  1  0  0  0  0
 17 26  1  0  0  0  0
 25 32  1  0  0  0  0
M  END
$$$$

  -OEChem-05262214473D

 48 47  0     1  0  0  0  0  0999 V2000
   -5.5827   -1.3473    1.4591 C   0  0  0  0  0  0  0  0  0  0  0  0
   -5.7053   -2.4696    0.9825 O   0  0  0  0  0  0  0  0  0  0  0  0
   -6.7879   -0.6277    1.9670 C   0  0  0  0  0  0  0  0  0  0  0  0
   -7.2718   -0.0164    1.1885 H   0  0  0  0  0  0  0  0  0  0  0  0
   -7.5699   -1.3171    2.3239 H   0  0  0  0  0  0  0  0  0  0  0  0
   -6.6057    0.0628    2.8060 H   0  0  0  0  0  0  0  0  0  0  0  0
   -4.4001   -0.6377    1.5884 N   0  0  0  0  0  0  0  0  0  0  0  0
   -3.1220   -1.1455    1.1644 C   0  0  2  0  0  0  0  0  0  0  0  0
   -2.2017    0.0428    0.9187 C   0  0  0  0  0  0  0  0  0  0  0  0
   -2.6171    1.1750    0.6807 O   0  0  0  0  0  0  0  0  0  0  0  0
   -3.2533   -1.9992   -0.0873 C   0  0  0  0  0  0  0  0  0  0  0  0
   -4.4370    0.2910    2.0047 H   0  0  0  0  0  0  0  0  0  0  0  0
   -2.7302   -1.7467    1.9921 H   0  0  0  0  0  0  0  0  0  0  0  0
   -3.6446   -1.4140   -0.9275 H   0  0  0  0  0  0  0  0  0  0  0  0
   -2.2844   -2.4081   -0.3922 H   0  0  0  0  0  0  0  0  0  0  0  0
   -3.9388   -2.8365    0.0822 H   0  0  0  0  0  0  0  0  0  0  0  0
   -0.8768   -0.3314    0.9568 N   0  0  0  0  0  0  0  0  0  0  0  0
    0.2067    0.6285    0.7375 C   0  0  2  0  0  0  0  0  0  0  0  0
    0.9835    0.1312   -0.4777 C   0  0  0  0  0  0  0  0  0  0  0  0
    1.8000    0.8321   -1.0722 O   0  0  0  0  0  0  0  0  0  0  0  0
    1.0812    0.7033    1.9980 C   0  0  0  0  0  0  0  0  0  0  0  0
    0.3644    1.3084    3.2049 C   0  0  0  0  0  0  0  0  0  0  0  0
    1.2475    1.3421    4.4272 C   0  0  0  0  0  0  0  0  0  0  0  0
    2.3550    0.8228    4.4822 O   0  0  0  0  0  0  0  0  0  0  0  0
    0.6755    1.9873    5.4736 O   0  0  0  0  0  0  0  0  0  0  0  0
   -0.6087   -1.2764    1.1771 H   0  0  0  0  0  0  0  0  0  0  0  0
   -0.2359    1.6091    0.5338 H   0  0  0  0  0  0  0  0  0  0  0  0
    1.4272   -0.3060    2.2582 H   0  0  0  0  0  0  0  0  0  0  0  0
    1.9805    1.3012    1.7996 H   0  0  0  0  0  0  0  0  0  0  0  0
    0.0855    2.3464    2.9861 H   0  0  0  0  0  0  0  0  0  0  0  0
   -0.5761    0.7922    3.4239 H   0  0  0  0  0  0  0  0  0  0  0  0
    1.2101    2.0157    6.2953 H   0  0  0  0  0  0  0  0  0  0  0  0
    0.6804   -1.1842   -0.7968 N   0  0  0  0  0  0  0  0  0  0  0  0
    1.2829   -1.8894   -1.9052 C   0  0  2  0  0  0  0  0  0  0  0  0
    0.3629   -1.7451   -3.1103 C   0  0  0  0  0  0  0  0  0  0  0  0
   -0.8361   -1.4920   -3.0124 O   0  0  0  0  0  0  0  0  0  0  0  0
    1.5130   -3.3546   -1.5694 C   0  0  0  0  0  0  0  0  0  0  0  0
    0.0016   -1.6760   -0.2234 H   0  0  0  0  0  0  0  0  0  0  0  0
    2.2380   -1.3949   -2.1129 H   0  0  0  0  0  0  0  0  0  0  0  0
    0.5672   -3.8667   -1.3582 H   0  0  0  0  0  0  0  0  0  0  0  0
    1.9956   -3.8809   -2.3996 H   0  0  0  0  0  0  0  0  0  0  0  0
    2.1507   -3.4562   -0.6846 H   0  0  0  0  0  0  0  0  0  0  0  0
    1.0290   -1.9749   -4.3059 N   0  0  0  0  0  0  0  0  0  0  0  0
    0.3711   -1.9098   -5.5900 C   0  0  0  0  0  0  0  0  0  0  0  0
    2.0277   -2.1599   -4.2939 H   0  0  0  0  0  0  0  0  0  0  0  0
    0.0146   -2.9118   -5.8711 H   0  0  0  0  0  0  0  0  0  0  0  0
   -0.4838   -1.2203   -5.5293 H   0  0  0  0  0  0  0  0  0  0  0  0
    1.0813   -1.5475   -6.3478 H   0  0  0  0  0  0  0  0  0  0  0  0
  1  3  1  0  0  0  0
  1  7  1  0  0  0  0
  1  2  2  0  0  0  0
 34 35  1  0  0  0  0
 35 43  1  0  0  0  0
 35 36  2  0  0  0  0
  8  9  1  0  0  0  0
  9 17  1  0  0  0  0
  9 10  2  0  0  0  0
 18 19  1  0  0  0  0
 19 33  1  0  0  0  0
 19 20  2  0  0  0  0
 22 23  1  0  0  0  0
 23 24  2  0  0  0  0
 23 25  1  0  0  0  0
 34 37  1  0  0  0  0
  8 11  1  0  0  0  0
 43 44  1  0  0  0  0
 21 22  1  0  0  0  0
 18 21  1  0  0  0  0
 33 34  1  0  0  0  0
  7  8  1  0  0  0  0
 17 18  1  0  0  0  0
  3  4  1  0  0  0  0
  3  5  1  0  0  0  0
  3  6  1  0  0  0  0
 37 40  1  0  0  0  0
 37 41  1  0  0  0  0
 37 42  1  0  0  0  0
 11 14  1  0  0  0  0
 11 15  1  0  0  0  0
 11 16  1  0  0  0  0
 44 46  1  0  0  0  0
 44 47  1  0  0  0  0
 44 48  1  0  0  0  0
 22 30  1  0  0  0  0
 22 31  1  0  0  0  0
 21 28  1  0  0  0  0
 21 29  1  0  0  0  0
 34 39  1  0  0  0  0
  8 13  1  0  0  0  0
 18 27  1  0  0  0  0
 43 45  1  0  0  0  0
  7 12  1  0  0  0  0
 33 38  1  0  0  0  0
 17 26  1  0  0  0  0
 25 32  1  0  0  0  0
M  END
$$$$

  -OEChem-05262214473D

 48 47  0     1  0  0  0  0  0999 V2000
   -5.5827   -1.3473    1.4591 C   0  0  0  0  0  0  0  0  0  0  0  0
   -5.7053   -2.4696    0.9825 O   0  0  0  0  0  0  0  0  0  0  0  0
   -6.7879   -0.6277    1.9670 C   0  0  0  0  0  0  0  0  0  0  0  0
   -7.2718   -0.0164    1.1885 H   0  0  0  0  0  0  0  0  0  0  0  0
   -7.5699   -1.3171    2.3239 H   0  0  0  0  0  0  0  0  0  0  0  0
   -6.6057    0.0628    2.8060 H   0  0  0  0  0  0  0  0  0  0  0  0
   -4.4001   -0.6377    1.5884 N   0  0  0  0  0  0  0  0  0  0  0  0
   -3.1220   -1.1455    1.1644 C   0  0  2  0  0  0  0  0  0  0  0  0
   -2.2017    0.0428    0.9187 C   0  0  0  0  0  0  0  0  0  0  0  0
   -2.6171    1.1750    0.6807 O   0  0  0  0  0  0  0  0  0  0  0  0
   -3.2533   -1.9992   -0.0873 C   0  0  0  0  0  0  0  0  0  0  0  0
   -4.4370    0.2910    2.0047 H   0  0  0  0  0  0  0  0  0  0  0  0
   -2.7302   -1.7467    1.9921 H   0  0  0  0  0  0  0  0  0  0  0  0
   -3.6446   -1.4140   -0.9275 H   0  0  0  0  0  0  0  0  0  0  0  0
   -2.2844   -2.4081   -0.3922 H   0  0  0  0  0  0  0  0  0  0  0  0
   -3.9388   -2.8365    0.0822 H   0  0  0  0  0  0  0  0  0  0  0  0
   -0.8768   -0.3314    0.9568 N   0  0  0  0  0  0  0  0  0  0  0  0
    0.2067    0.6285    0.7375 C   0  0  2  0  0  0  0  0  0  0  0  0
    0.9835    0.1312   -0.4777 C   0  0  0  0  0  0  0  0  0  0  0  0
    1.9783    0.7109   -0.9086 O   0  0  0  0  0  0  0  0  0  0  0  0
    1.0812    0.7033    1.9980 C   0  0  0  0  0  0  0  0  0  0  0  0
    0.3644    1.3084    3.2049 C   0  0  0  0  0  0  0  0  0  0  0  0
    1.2475    1.3421    4.4272 C   0  0  0  0  0  0  0  0  0  0  0  0
    2.3550    0.8228    4.4822 O   0  0  0  0  0  0  0  0  0  0  0  0
    0.6755    1.9873    5.4736 O   0  0  0  0  0  0  0  0  0  0  0  0
   -0.6087   -1.2764    1.1771 H   0  0  0  0  0  0  0  0  0  0  0  0
   -0.2359    1.6091    0.5338 H   0  0  0  0  0  0  0  0  0  0  0  0
    1.4272   -0.3060    2.2582 H   0  0  0  0  0  0  0  0  0  0  0  0
    1.9805    1.3012    1.7996 H   0  0  0  0  0  0  0  0  0  0  0  0
    0.0855    2.3464    2.9861 H   0  0  0  0  0  0  0  0  0  0  0  0
   -0.5761    0.7922    3.4239 H   0  0  0  0  0  0  0  0  0  0  0  0
    1.2101    2.0157    6.2953 H   0  0  0  0  0  0  0  0  0  0  0  0
    0.4556   -1.0407   -0.9992 N   0  0  0  0  0  0  0  0  0  0  0  0
    1.0104   -1.7157   -2.1504 C   0  0  2  0  0  0  0  0  0  0  0  0
    0.2608   -1.2329   -3.3852 C   0  0  0  0  0  0  0  0  0  0  0  0
   -0.8667   -0.7455   -3.3375 O   0  0  0  0  0  0  0  0  0  0  0  0
    0.9080   -3.2264   -2.0086 C   0  0  0  0  0  0  0  0  0  0  0  0
   -0.3609   -1.4442   -0.5500 H   0  0  0  0  0  0  0  0  0  0  0  0
    2.0610   -1.4131   -2.2187 H   0  0  0  0  0  0  0  0  0  0  0  0
   -0.1374   -3.5485   -1.9388 H   0  0  0  0  0  0  0  0  0  0  0  0
    1.3543   -3.7368   -2.8684 H   0  0  0  0  0  0  0  0  0  0  0  0
    1.4223   -3.5687   -1.1041 H   0  0  0  0  0  0  0  0  0  0  0  0
    0.9815   -1.4498   -4.5512 N   0  0  0  0  0  0  0  0  0  0  0  0
    0.4793   -1.0895   -5.8566 C   0  0  0  0  0  0  0  0  0  0  0  0
    1.9168   -1.8421   -4.4949 H   0  0  0  0  0  0  0  0  0  0  0  0
   -0.0414   -1.9508   -6.3003 H   0  0  0  0  0  0  0  0  0  0  0  0
   -0.2217   -0.2473   -5.7600 H   0  0  0  0  0  0  0  0  0  0  0  0
    1.3187   -0.7954   -6.5039 H   0  0  0  0  0  0  0  0  0  0  0  0
  1  3  1  0  0  0  0
  1  7  1  0  0  0  0
  1  2  2  0  0  0  0
 34 35  1  0  0  0  0
 35 43  1  0  0  0  0
 35 36  2  0  0  0  0
  8  9  1  0  0  0  0
  9 17  1  0  0  0  0
  9 10  2  0  0  0  0
 18 19  1  0  0  0  0
 19 33  1  0  0  0  0
 19 20  2  0  0  0  0
 22 23  1  0  0  0  0
 23 24  2  0  0  0  0
 23 25  1  0  0  0  0
 34 37  1  0  0  0  0
  8 11  1  0  0  0  0
 43 44  1  0  0  0  0
 21 22  1  0  0  0  0
 18 21  1  0  0  0  0
 33 34  1  0  0  0  0
  7  8  1  0  0  0  0
 17 18  1  0  0  0  0
  3  4  1  0  0  0  0
  3  5  1  0  0  0  0
  3  6  1  0  0  0  0
 37 40  1  0  0  0  0
 37 41  1  0  0  0  0
 37 42  1  0  0  0  0
 11 14  1  0  0  0  0
 11 15  1  0  0  0  0
 11 16  1  0  0  0  0
 44 46  1  0  0  0  0
 44 47  1  0  0  0  0
 44 48  1  0  0  0  0
 22 30  1  0  0  0  0
 22 31  1  0  0  0  0
 21 28  1  0  0  0  0
 21 29  1  0  0  0  0
 34 39  1  0  0  0  0
  8 13  1  0  0  0  0
 18 27  1  0  0  0  0
 43 45  1  0  0  0  0
  7 12  1  0  0  0  0
 33 38  1  0  0  0  0
 17 26  1  0  0  0  0
 25 32  1  0  0  0  0
M  END
$$$$

  -OEChem-05262214473D

 48 47  0     1  0  0  0  0  0999 V2000
   -5.5827   -1.3473    1.4591 C   0  0  0  0  0  0  0  0  0  0  0  0
   -5.7053   -2.4696    0.9825 O   0  0  0  0  0  0  0  0  0  0  0  0
   -6.7879   -0.6277    1.9670 C   0  0  0  0  0  0  0  0  0  0  0  0
   -7.2718   -0.0164    1.1885 H   0  0  0  0  0  0  0  0  0  0  0  0
   -7.5699   -1.3171    2.3239 H   0  0  0  0  0  0  0  0  0  0  0  0
   -6.6057    0.0628    2.8060 H   0  0  0  0  0  0  0  0  0  0  0  0
   -4.4001   -0.6377    1.5884 N   0  0  0  0  0  0  0  0  0  0  0  0
   -3.1220   -1.1455    1.1644 C   0  0  2  0  0  0  0  0  0  0  0  0
   -2.2017    0.0428    0.9187 C   0  0  0  0  0  0  0  0  0  0  0  0
   -2.6171    1.1750    0.6807 O   0  0  0  0  0  0  0  0  0  0  0  0
   -3.2533   -1.9992   -0.0873 C   0  0  0  0  0  0  0  0  0  0  0  0
   -4.4370    0.2910    2.0047 H   0  0  0  0  0  0  0  0  0  0  0  0
   -2.7302   -1.7467    1.9921 H   0  0  0  0  0  0  0  0  0  0  0  0
   -3.6446   -1.4140   -0.9275 H   0  0  0  0  0  0  0  0  0  0  0  0
   -2.2844   -2.4081   -0.3922 H   0  0  0  0  0  0  0  0  0  0  0  0
   -3.9388   -2.8365    0.0822 H   0  0  0  0  0  0  0  0  0  0  0  0
   -0.8768   -0.3314    0.9568 N   0  0  0  0  0  0  0  0  0  0  0  0
    0.2067    0.6285    0.7375 C   0  0  2  0  0  0  0  0  0  0  0  0
    0.9835    0.1312   -0.4777 C   0  0  0  0  0  0  0  0  0  0  0  0
    2.1118    0.5355   -0.7515 O   0  0  0  0  0  0  0  0  0  0  0  0
    1.0812    0.7033    1.9980 C   0  0  0  0  0  0  0  0  0  0  0  0
    0.3644    1.3084    3.2049 C   0  0  0  0  0  0  0  0  0  0  0  0
    1.2475    1.3421    4.4272 C   0  0  0  0  0  0  0  0  0  0  0  0
    2.3550    0.8228    4.4822 O   0  0  0  0  0  0  0  0  0  0  0  0
    0.6755    1.9873    5.4736 O   0  0  0  0  0  0  0  0  0  0  0  0
   -0.6087   -1.2764    1.1771 H   0  0  0  0  0  0  0  0  0  0  0  0
   -0.2359    1.6091    0.5338 H   0  0  0  0  0  0  0  0  0  0  0  0
    1.4272   -0.3060    2.2582 H   0  0  0  0  0  0  0  0  0  0  0  0
    1.9805    1.3012    1.7996 H   0  0  0  0  0  0  0  0  0  0  0  0
    0.0855    2.3464    2.9861 H   0  0  0  0  0  0  0  0  0  0  0  0
   -0.5761    0.7922    3.4239 H   0  0  0  0  0  0  0  0  0  0  0  0
    1.2101    2.0157    6.2953 H   0  0  0  0  0  0  0  0  0  0  0  0
    0.2852   -0.8291   -1.1948 N   0  0  0  0  0  0  0  0  0  0  0  0
    0.8036   -1.4596   -2.3875 C   0  0  2  0  0  0  0  0  0  0  0  0
    0.2911   -0.6808   -3.5918 C   0  0  0  0  0  0  0  0  0  0  0  0
   -0.7149    0.0247   -3.5557 O   0  0  0  0  0  0  0  0  0  0  0  0
    0.3870   -2.9200   -2.4671 C   0  0  0  0  0  0  0  0  0  0  0  0
   -0.6357   -1.1026   -0.8655 H   0  0  0  0  0  0  0  0  0  0  0  0
    1.8951   -1.3803   -2.3381 H   0  0  0  0  0  0  0  0  0  0  0  0
   -0.7034   -3.0194   -2.5172 H   0  0  0  0  0  0  0  0  0  0  0  0
    0.8042   -3.4037   -3.3565 H   0  0  0  0  0  0  0  0  0  0  0  0
    0.7309   -3.4720   -1.5857 H   0  0  0  0  0  0  0  0  0  0  0  0
    1.0646   -0.9004   -4.7230 N   0  0  0  0  0  0  0  0  0  0  0  0
    0.7755   -0.2842   -5.9968 C   0  0  0  0  0  0  0  0  0  0  0  0
    1.8920   -1.4859   -4.6566 H   0  0  0  0  0  0  0  0  0  0  0  0
    0.1388   -0.9545   -6.5929 H   0  0  0  0  0  0  0  0  0  0  0  0
    0.2515    0.6689   -5.8324 H   0  0  0  0  0  0  0  0  0  0  0  0
    1.7162   -0.0973   -6.5355 H   0  0  0  0  0  0  0  0  0  0  0  0
  1  3  1  0  0  0  0
  1  7  1  0  0  0  0
  1  2  2  0  0  0  0
 34 35  1  0  0  0  0
 35 43  1  0  0  0  0
 35 36  2  0  0  0  0
  8  9  1  0  0  0  0
  9 17  1  0  0  0  0
  9 10  2  0  0  0  0
 18 19  1  0  0  0  0
 19 33  1  0  0  0  0
 19 20  2  0  0  0  0
 22 23  1  0  0  0  0
 23 24  2  0  0  0  0
 23 25  1  0  0  0  0
 34 37  1  0  0  0  0
  8 11  1  0  0  0  0
 43 44  1  0  0  0  0
 21 22  1  0  0  0  0
 18 21  1  0  0  0  0
 33 34  1  0  0  0  0
  7  8  1  0  0  0  0
 17 18  1  0  0  0  0
  3  4  1  0  0  0  0
  3  5  1  0  0  0  0
  3  6  1  0  0  0  0
 37 40  1  0  0  0  0
 37 41  1  0  0  0  0
 37 42  1  0  0  0  0
 11 14  1  0  0  0  0
 11 15  1  0  0  0  0
 11 16  1  0  0  0  0
 44 46  1  0  0  0  0
 44 47  1  0  0  0  0
 44 48  1  0  0  0  0
 22 30  1  0  0  0  0
 22 31  1  0  0  0  0
 21 28  1  0  0  0  0
 21 29  1  0  0  0  0
 34 39  1  0  0  0  0
  8 13  1  0  0  0  0
 18 27  1  0  0  0  0
 43 45  1  0  0  0  0
  7 12  1  0  0  0  0
 33 38  1  0  0  0  0
 17 26  1  0  0  0  0
 25 32  1  0  0  0  0
M  END
$$$$

  -OEChem-05262214473D

 48 47  0     1  0  0  0  0  0999 V2000
   -5.5827   -1.3473    1.4591 C   0  0  0  0  0  0  0  0  0  0  0  0
   -5.7053   -2.4696    0.9825 O   0  0  0  0  0  0  0  0  0  0  0  0
   -6.7879   -0.6277    1.9670 C   0  0  0  0  0  0  0  0  0  0  0  0
   -7.2718   -0.0164    1.1885 H   0  0  0  0  0  0  0  0  0  0  0  0
   -7.5699   -1.3171    2.3239 H   0  0  0  0  0  0  0  0  0  0  0  0
   -6.6057    0.0628    2.8060 H   0  0  0  0  0  0  0  0  0  0  0  0
   -4.4001   -0.6377    1.5884 N   0  0  0  0  0  0  0  0  0  0  0  0
   -3.1220   -1.1455    1.1644 C   0  0  2  0  0  0  0  0  0  0  0  0
   -2.2017    0.0428    0.9187 C   0  0  0  0  0  0  0  0  0  0  0  0
   -2.6171    1.1750    0.6807 O   0  0  0  0  0  0  0  0  0  0  0  0
   -3.2533   -1.9992   -0.0873 C   0  0  0  0  0  0  0  0  0  0  0  0
   -4.4370    0.2910    2.0047 H   0  0  0  0  0  0  0  0  0  0  0  0
   -2.7302   -1.7467    1.9921 H   0  0  0  0  0  0  0  0  0  0  0  0
   -3.6446   -1.4140   -0.9275 H   0  0  0  0  0  0  0  0  0  0  0  0
   -2.2844   -2.4081   -0.3922 H   0  0  0  0  0  0  0  0  0  0  0  0
   -3.9388   -2.8365    0.0822 H   0  0  0  0  0  0  0  0  0  0  0  0
   -0.8768   -0.3314    0.9568 N   0  0  0  0  0  0  0  0  0  0  0  0
    0.2067    0.6285    0.7375 C   0  0  2  0  0  0  0  0  0  0  0  0
    0.9835    0.1312   -0.4777 C   0  0  0  0  0  0  0  0  0  0  0  0
    2.1913    0.3179   -0.6116 O   0  0  0  0  0  0  0  0  0  0  0  0
    1.0812    0.7033    1.9980 C   0  0  0  0  0  0  0  0  0  0  0  0
    0.3644    1.3084    3.2049 C   0  0  0  0  0  0  0  0  0  0  0  0
    1.2475    1.3421    4.4272 C   0  0  0  0  0  0  0  0  0  0  0  0
    2.3550    0.8228    4.4822 O   0  0  0  0  0  0  0  0  0  0  0  0
    0.6755    1.9873    5.4736 O   0  0  0  0  0  0  0  0  0  0  0  0
   -0.6087   -1.2764    1.1771 H   0  0  0  0  0  0  0  0  0  0  0  0
   -0.2359    1.6091    0.5338 H   0  0  0  0  0  0  0  0  0  0  0  0
    1.4272   -0.3060    2.2582 H   0  0  0  0  0  0  0  0  0  0  0  0
    1.9805    1.3012    1.7996 H   0  0  0  0  0  0  0  0  0  0  0  0
    0.0855    2.3464    2.9861 H   0  0  0  0  0  0  0  0  0  0  0  0
   -0.5761    0.7922    3.4239 H   0  0  0  0  0  0  0  0  0  0  0  0
    1.2101    2.0157    6.2953 H   0  0  0  0  0  0  0  0  0  0  0  0
    0.1807   -0.5638   -1.3702 N   0  0  0  0  0  0  0  0  0  0  0  0
    0.6768   -1.1382   -2.6001 C   0  0  2  0  0  0  0  0  0  0  0  0
    0.4516   -0.1266   -3.7160 C   0  0  0  0  0  0  0  0  0  0  0  0
   -0.3912    0.7660   -3.6522 O   0  0  0  0  0  0  0  0  0  0  0  0
   -0.0143   -2.4561   -2.9135 C   0  0  0  0  0  0  0  0  0  0  0  0
   -0.8041   -0.6744   -1.1484 H   0  0  0  0  0  0  0  0  0  0  0  0
    1.7517   -1.2986   -2.4632 H   0  0  0  0  0  0  0  0  0  0  0  0
   -1.0923   -2.3154   -3.0539 H   0  0  0  0  0  0  0  0  0  0  0  0
    0.3827   -2.9041   -3.8304 H   0  0  0  0  0  0  0  0  0  0  0  0
    0.1236   -3.1725   -2.0964 H   0  0  0  0  0  0  0  0  0  0  0  0
    1.2726   -0.3643   -4.8094 N   0  0  0  0  0  0  0  0  0  0  0  0
    1.2394    0.4510   -6.0012 C   0  0  0  0  0  0  0  0  0  0  0  0
    1.9552   -1.1153   -4.7678 H   0  0  0  0  0  0  0  0  0  0  0  0
    0.5429    0.0092   -6.7290 H   0  0  0  0  0  0  0  0  0  0  0  0
    0.9036    1.4658   -5.7418 H   0  0  0  0  0  0  0  0  0  0  0  0
    2.2468    0.4991   -6.4405 H   0  0  0  0  0  0  0  0  0  0  0  0
  1  3  1  0  0  0  0
  1  7  1  0  0  0  0
  1  2  2  0  0  0  0
 34 35  1  0  0  0  0
 35 43  1  0  0  0  0
 35 36  2  0  0  0  0
  8  9  1  0  0  0  0
  9 17  1  0  0  0  0
  9 10  2  0  0  0  0
 18 19  1  0  0  0  0
 19 33  1  0  0  0  0
 19 20  2  0  0  0  0
 22 23  1  0  0  0  0
 23 24  2  0  0  0  0
 23 25  1  0  0  0  0
 34 37  1  0  0  0  0
  8 11  1  0  0  0  0
 43 44  1  0  0  0  0
 21 22  1  0  0  0  0
 18 21  1  0  0  0  0
 33 34  1  0  0  0  0
  7  8  1  0  0  0  0
 17 18  1  0  0  0  0
  3  4  1  0  0  0  0
  3  5  1  0  0  0  0
  3  6  1  0  0  0  0
 37 40  1  0  0  0  0
 37 41  1  0  0  0  0
 37 42  1  0  0  0  0
 11 14  1  0  0  0  0
 11 15  1  0  0  0  0
 11 16  1  0  0  0  0
 44 46  1  0  0  0  0
 44 47  1  0  0  0  0
 44 48  1  0  0  0  0
 22 30  1  0  0  0  0
 22 31  1  0  0  0  0
 21 28  1  0  0  0  0
 21 29  1  0  0  0  0
 34 39  1  0  0  0  0
  8 13  1  0  0  0  0
 18 27  1  0  0  0  0
 43 45  1  0  0  0  0
  7 12  1  0  0  0  0
 33 38  1  0  0  0  0
 17 26  1  0  0  0  0
 25 32  1  0  0  0  0
M  END
$$$$

  -OEChem-05262214473D

 48 47  0     1  0  0  0  0  0999 V2000
   -5.5827   -1.3473    1.4591 C   0  0  0  0  0  0  0  0  0  0  0  0
   -5.7053   -2.4696    0.9825 O   0  0  0  0  0  0  0  0  0  0  0  0
   -6.7879   -0.6277    1.9670 C   0  0  0  0  0  0  0  0  0  0  0  0
   -7.2718   -0.0164    1.1885 H   0  0  0  0  0  0  0  0  0  0  0  0
   -7.5699   -1.3171    2.3239 H   0  0  0  0  0  0  0  0  0  0  0  0
   -6.6057    0.0628    2.8060 H   0  0  0  0  0  0  0  0  0  0  0  0
   -4.4001   -0.6377    1.5884 N   0  0  0  0  0  0  0  0  0  0  0  0
   -3.1220   -1.1455    1.1644 C   0  0  2  0  0  0  0  0  0  0  0  0
   -2.2017    0.0428    0.9187 C   0  0  0  0  0  0  0  0  0  0  0  0
   -2.6171    1.1750    0.6807 O   0  0  0  0  0  0  0  0  0  0  0  0
   -3.2533   -1.9992   -0.0873 C   0  0  0  0  0  0  0  0  0  0  0  0
   -4.4370    0.2910    2.0047 H   0  0  0  0  0  0  0  0  0  0  0  0
   -2.7302   -1.7467    1.9921 H   0  0  0  0  0  0  0  0  0  0  0  0
   -3.6446   -1.4140   -0.9275 H   0  0  0  0  0  0  0  0  0  0  0  0
   -2.2844   -2.4081   -0.3922 H   0  0  0  0  0  0  0  0  0  0  0  0
   -3.9388   -2.8365    0.0822 H   0  0  0  0  0  0  0  0  0  0  0  0
   -0.8768   -0.3314    0.9568 N   0  0  0  0  0  0  0  0  0  0  0  0
    0.2067    0.6285    0.7375 C   0  0  2  0  0  0  0  0  0  0  0  0
    0.9835    0.1312   -0.4777 C   0  0  0  0  0  0  0  0  0  0  0  0
    2.2114    0.0729   -0.4985 O   0  0  0  0  0  0  0  0  0  0  0  0
    1.0812    0.7033    1.9980 C   0  0  0  0  0  0  0  0  0  0  0  0
    0.3644    1.3084    3.2049 C   0  0  0  0  0  0  0  0  0  0  0  0
    1.2475    1.3421    4.4272 C   0  0  0  0  0  0  0  0  0  0  0  0
    2.3550    0.8228    4.4822 O   0  0  0  0  0  0  0  0  0  0  0  0
    0.6755    1.9873    5.4736 O   0  0  0  0  0  0  0  0  0  0  0  0
   -0.6087   -1.2764    1.1771 H   0  0  0  0  0  0  0  0  0  0  0  0
   -0.2359    1.6091    0.5338 H   0  0  0  0  0  0  0  0  0  0  0  0
    1.4272   -0.3060    2.2582 H   0  0  0  0  0  0  0  0  0  0  0  0
    1.9805    1.3012    1.7996 H   0  0  0  0  0  0  0  0  0  0  0  0
    0.0855    2.3464    2.9861 H   0  0  0  0  0  0  0  0  0  0  0  0
   -0.5761    0.7922    3.4239 H   0  0  0  0  0  0  0  0  0  0  0  0
    1.2101    2.0157    6.2953 H   0  0  0  0  0  0  0  0  0  0  0  0
    0.1493   -0.2629   -1.5134 N   0  0  0  0  0  0  0  0  0  0  0  0
    0.6384   -0.7737   -2.7738 C   0  0  2  0  0  0  0  0  0  0  0  0
    0.7313    0.3920   -3.7495 C   0  0  0  0  0  0  0  0  0  0  0  0
    0.0826    1.4282   -3.6204 O   0  0  0  0  0  0  0  0  0  0  0  0
   -0.2687   -1.8665   -3.3174 C   0  0  0  0  0  0  0  0  0  0  0  0
   -0.8547   -0.1888   -1.3795 H   0  0  0  0  0  0  0  0  0  0  0  0
    1.6406   -1.1737   -2.5854 H   0  0  0  0  0  0  0  0  0  0  0  0
   -1.2774   -1.4845   -3.5124 H   0  0  0  0  0  0  0  0  0  0  0  0
    0.1185   -2.2723   -4.2579 H   0  0  0  0  0  0  0  0  0  0  0  0
   -0.3581   -2.6908   -2.6016 H   0  0  0  0  0  0  0  0  0  0  0  0
    1.5913    0.1221   -4.8048 N   0  0  0  0  0  0  0  0  0  0  0  0
    1.8395    1.0661   -5.8693 C   0  0  0  0  0  0  0  0  0  0  0  0
    2.1021   -0.7558   -4.8211 H   0  0  0  0  0  0  0  0  0  0  0  0
    1.1434    0.8748   -6.6994 H   0  0  0  0  0  0  0  0  0  0  0  0
    1.6902    2.0893   -5.4941 H   0  0  0  0  0  0  0  0  0  0  0  0
    2.8742    0.9534   -6.2253 H   0  0  0  0  0  0  0  0  0  0  0  0
  1  3  1  0  0  0  0
  1  7  1  0  0  0  0
  1  2  2  0  0  0  0
 34 35  1  0  0  0  0
 35 43  1  0  0  0  0
 35 36  2  0  0  0  0
  8  9  1  0  0  0  0
  9 17  1  0  0  0  0
  9 10  2  0  0  0  0
 18 19  1  0  0  0  0
 19 33  1  0  0  0  0
 19 20  2  0  0  0  0
 22 23  1  0  0  0  0
 23 24  2  0  0  0  0
 23 25  1  0  0  0  0
 34 37  1  0  0  0  0
  8 11  1  0  0  0  0
 43 44  1  0  0  0  0
 21 22  1  0  0  0  0
 18 21  1  0  0  0  0
 33 34  1  0  0  0  0
  7  8  1  0  0  0  0
 17 18  1  0  0  0  0
  3  4  1  0  0  0  0
  3  5  1  0  0  0  0
  3  6  1  0  0  0  0
 37 40  1  0  0  0  0
 37 41  1  0  0  0  0
 37 42  1  0  0  0  0
 11 14  1  0  0  0  0
 11 15  1  0  0  0  0
 11 16  1  0  0  0  0
 44 46  1  0  0  0  0
 44 47  1  0  0  0  0
 44 48  1  0  0  0  0
 22 30  1  0  0  0  0
 22 31  1  0  0  0  0
 21 28  1  0  0  0  0
 21 29  1  0  0  0  0
 34 39  1  0  0  0  0
  8 13  1  0  0  0  0
 18 27  1  0  0  0  0
 43 45  1  0  0  0  0
  7 12  1  0  0  0  0
 33 38  1  0  0  0  0
 17 26  1  0  0  0  0
 25 32  1  0  0  0  0
M  END
$$$$

  -OEChem-05262214473D

 48 47  0     1  0  0  0  0  0999 V2000
   -5.5827   -1.3473    1.4591 C   0  0  0  0  0  0  0  0  0  0  0  0
   -5.7053   -2.4696    0.9825 O   0  0  0  0  0  0  0  0  0  0  0  0
   -6.7879   -0.6277    1.9670 C   0  0  0  0  0  0  0  0  0  0  0  0
   -7.2718   -0.0164    1.1885 H   0  0  0  0  0  0  0  0  0  0  0  0
   -7.5699   -1.3171    2.3239 H   0  0  0  0  0  0  0  0  0  0  0  0
   -6.6057    0.0628    2.8060 H   0  0  0  0  0  0  0  0  0  0  0  0
   -4.4001   -0.6377    1.5884 N   0  0  0  0  0  0  0  0  0  0  0  0
   -3.1220   -1.1455    1.1644 C   0  0  2  0  0  0  0  0  0  0  0  0
   -2.2017    0.0428    0.9187 C   0  0  0  0  0  0  0  0  0  0  0  0
   -2.6171    1.1750    0.6807 O   0  0  0  0  0  0  0  0  0  0  0  0
   -3.2533   -1.9992   -0.0873 C   0  0  0  0  0  0  0  0  0  0  0  0
   -4.4370    0.2910    2.0047 H   0  0  0  0  0  0  0  0  0  0  0  0
   -2.7302   -1.7467    1.9921 H   0  0  0  0  0  0  0  0  0  0  0  0
   -3.6446   -1.4140   -0.9275 H   0  0  0  0  0  0  0  0  0  0  0  0
   -2.2844   -2.4081   -0.3922 H   0  0  0  0  0  0  0  0  0  0  0  0
   -3.9388   -2.8365    0.0822 H   0  0  0  0  0  0  0  0  0  0  0  0
   -0.8768   -0.3314    0.9568 N   0  0  0  0  0  0  0  0  0  0  0  0
    0.2067    0.6285    0.7375 C   0  0  2  0  0  0  0  0  0  0  0  0
    0.9835    0.1312   -0.4777 C   0  0  0  0  0  0  0  0  0  0  0  0
    2.1707   -0.1829   -0.4198 O   0  0  0  0  0  0  0  0  0  0  0  0
    1.0812    0.7033    1.9980 C   0  0  0  0  0  0  0  0  0  0  0  0
    0.3644    1.3084    3.2049 C   0  0  0  0  0  0  0  0  0  0  0  0
    1.2475    1.3421    4.4272 C   0  0  0  0  0  0  0  0  0  0  0  0
    2.3550    0.8228    4.4822 O   0  0  0  0  0  0  0  0  0  0  0  0
    0.6755    1.9873    5.4736 O   0  0  0  0  0  0  0  0  0  0  0  0
   -0.6087   -1.2764    1.1771 H   0  0  0  0  0  0  0  0  0  0  0  0
   -0.2359    1.6091    0.5338 H   0  0  0  0  0  0  0  0  0  0  0  0
    1.4272   -0.3060    2.2582 H   0  0  0  0  0  0  0  0  0  0  0  0
    1.9805    1.3012    1.7996 H   0  0  0  0  0  0  0  0  0  0  0  0
    0.0855    2.3464    2.9861 H   0  0  0  0  0  0  0  0  0  0  0  0
   -0.5761    0.7922    3.4239 H   0  0  0  0  0  0  0  0  0  0  0  0
    1.2101    2.0157    6.2953 H   0  0  0  0  0  0  0  0  0  0  0  0
    0.1930    0.0532   -1.6148 N   0  0  0  0  0  0  0  0  0  0  0  0
    0.6912   -0.3908   -2.8968 C   0  0  2  0  0  0  0  0  0  0  0  0
    1.1112    0.8397   -3.6898 C   0  0  0  0  0  0  0  0  0  0  0  0
    0.6739    1.9658   -3.4624 O   0  0  0  0  0  0  0  0  0  0  0  0
   -0.3588   -1.1914   -3.6513 C   0  0  0  0  0  0  0  0  0  0  0  0
   -0.7839    0.3212   -1.5430 H   0  0  0  0  0  0  0  0  0  0  0  0
    1.5694   -1.0141   -2.6963 H   0  0  0  0  0  0  0  0  0  0  0  0
   -1.2463   -0.5833   -3.8613 H   0  0  0  0  0  0  0  0  0  0  0  0
    0.0296   -1.5511   -4.6098 H   0  0  0  0  0  0  0  0  0  0  0  0
   -0.6815   -2.0596   -3.0666 H   0  0  0  0  0  0  0  0  0  0  0  0
    1.9991    0.5256   -4.7093 N   0  0  0  0  0  0  0  0  0  0  0  0
    2.5348    1.5191   -5.6103 C   0  0  0  0  0  0  0  0  0  0  0  0
    2.3225   -0.4317   -4.8128 H   0  0  0  0  0  0  0  0  0  0  0  0
    1.8995    1.5831   -6.5060 H   0  0  0  0  0  0  0  0  0  0  0  0
    2.5575    2.4967   -5.1064 H   0  0  0  0  0  0  0  0  0  0  0  0
    3.5557    1.2345   -5.9047 H   0  0  0  0  0  0  0  0  0  0  0  0
  1  3  1  0  0  0  0
  1  7  1  0  0  0  0
  1  2  2  0  0  0  0
 34 35  1  0  0  0  0
 35 43  1  0  0  0  0
 35 36  2  0  0  0  0
  8  9  1  0  0  0  0
  9 17  1  0  0  0  0
  9 10  2  0  0  0  0
 18 19  1  0  0  0  0
 19 33  1  0  0  0  0
 19 20  2  0  0  0  0
 22 23  1  0  0  0  0
 23 24  2  0  0  0  0
 23 25  1  0  0  0  0
 34 37  1  0  0  0  0
  8 11  1  0  0  0  0
 43 44  1  0  0  0  0
 21 22  1  0  0  0  0
 18 21  1  0  0  0  0
 33 34  1  0  0  0  0
  7  8  1  0  0  0  0
 17 18  1  0  0  0  0
  3  4  1  0  0  0  0
  3  5  1  0  0  0  0
  3  6  1  0  0  0  0
 37 40  1  0  0  0  0
 37 41  1  0  0  0  0
 37 42  1  0  0  0  0
 11 14  1  0  0  0  0
 11 15  1  0  0  0  0
 11 16  1  0  0  0  0
 44 46  1  0  0  0  0
 44 47  1  0  0  0  0
 44 48  1  0  0  0  0
 22 30  1  0  0  0  0
 22 31  1  0  0  0  0
 21 28  1  0  0  0  0
 21 29  1  0  0  0  0
 34 39  1  0  0  0  0
  8 13  1  0  0  0  0
 18 27  1  0  0  0  0
 43 45  1  0  0  0  0
  7 12  1  0  0  0  0
 33 38  1  0  0  0  0
 17 26  1  0  0  0  0
 25 32  1  0  0  0  0
M  END
$$$$

  -OEChem-05262214473D

 48 47  0     1  0  0  0  0  0999 V2000
   -5.5827   -1.3473    1.4591 C   0  0  0  0  0  0  0  0  0  0  0  0
   -5.7053   -2.4696    0.9825 O   0  0  0  0  0  0  0  0  0  0  0  0
   -6.7879   -0.6277    1.9670 C   0  0  0  0  0  0  0  0  0  0  0  0
   -7.2718   -0.0164    1.1885 H   0  0  0  0  0  0  0  0  0  0  0  0
   -7.5699   -1.3171    2.3239 H   0  0  0  0  0  0  0  0  0  0  0  0
   -6.6057    0.0628    2.8060 H   0  0  0  0  0  0  0  0  0  0  0  0
   -4.4001   -0.6377    1.5884 N   0  0  0  0  0  0  0  0  0  0  0  0
   -3.1220   -1.1455    1.1644 C   0  0  2  0  0  0  0  0  0  0  0  0
   -2.2017    0.0428    0.9187 C   0  0  0  0  0  0  0  0  0  0  0  0
   -2.6171    1.1750    0.6807 O   0  0  0  0  0  0  0  0  0  0  0  0
   -3.2533   -1.9992   -0.0873 C   0  0  0  0  0  0  0  0  0  0  0  0
   -4.4370    0.2910    2.0047 H   0  0  0  0  0  0  0  0  0  0  0  0
   -2.7302   -1.7467    1.9921 H   0  0  0  0  0  0  0  0  0  0  0  0
   -3.6446   -1.4140   -0.9275 H   0  0  0  0  0  0  0  0  0  0  0  0
   -2.2844   -2.4081   -0.3922 H   0  0  0  0  0  0  0  0  0  0  0  0
   -3.9388   -2.8365    0.0822 H   0  0  0  0  0  0  0  0  0  0  0  0
   -0.8768   -0.3314    0.9568 N   0  0  0  0  0  0  0  0  0  0  0  0
    0.2067    0.6285    0.7375 C   0  0  2  0  0  0  0  0  0  0  0  0
    0.9835    0.1312   -0.4777 C   0  0  0  0  0  0  0  0  0  0  0  0
    2.0721   -0.4319   -0.3809 O   0  0  0  0  0  0  0  0  0  0  0  0
    1.0812    0.7033    1.9980 C   0  0  0  0  0  0  0  0  0  0  0  0
    0.3644    1.3084    3.2049 C   0  0  0  0  0  0  0  0  0  0  0  0
    1.2475    1.3421    4.4272 C   0  0  0  0  0  0  0  0  0  0  0  0
    2.3550    0.8228    4.4822 O   0  0  0  0  0  0  0  0  0  0  0  0
    0.6755    1.9873    5.4736 O   0  0  0  0  0  0  0  0  0  0  0  0
   -0.6087   -1.2764    1.1771 H   0  0  0  0  0  0  0  0  0  0  0  0
   -0.2359    1.6091    0.5338 H   0  0  0  0  0  0  0  0  0  0  0  0
    1.4272   -0.3060    2.2582 H   0  0  0  0  0  0  0  0  0  0  0  0
    1.9805    1.3012    1.7996 H   0  0  0  0  0  0  0  0  0  0  0  0
    0.0855    2.3464    2.9861 H   0  0  0  0  0  0  0  0  0  0  0  0
   -0.5761    0.7922    3.4239 H   0  0  0  0  0  0  0  0  0  0  0  0
    1.2101    2.0157    6.2953 H   0  0  0  0  0  0  0  0  0  0  0  0
    0.3090    0.3628   -1.6674 N   0  0  0  0  0  0  0  0  0  0  0  0
    0.8314   -0.0155   -2.9607 C   0  0  2  0  0  0  0  0  0  0  0  0
    1.5655    1.1860   -3.5412 C   0  0  0  0  0  0  0  0  0  0  0  0
    1.3427    2.3425   -3.1890 O   0  0  0  0  0  0  0  0  0  0  0  0
   -0.2784   -0.4766   -3.8925 C   0  0  0  0  0  0  0  0  0  0  0  0
   -0.5966    0.8207   -1.6277 H   0  0  0  0  0  0  0  0  0  0  0  0
    1.5428   -0.8305   -2.7883 H   0  0  0  0  0  0  0  0  0  0  0  0
   -1.0010    0.3267   -4.0770 H   0  0  0  0  0  0  0  0  0  0  0  0
    0.1222   -0.7899   -4.8623 H   0  0  0  0  0  0  0  0  0  0  0  0
   -0.8245   -1.3219   -3.4600 H   0  0  0  0  0  0  0  0  0  0  0  0
    2.4680    0.8187   -4.5294 N   0  0  0  0  0  0  0  0  0  0  0  0
    3.2779    1.7793   -5.2417 C   0  0  0  0  0  0  0  0  0  0  0  0
    2.6016   -0.1652   -4.7435 H   0  0  0  0  0  0  0  0  0  0  0  0
    2.7594    2.0860   -6.1621 H   0  0  0  0  0  0  0  0  0  0  0  0
    3.4466    2.6603   -4.6050 H   0  0  0  0  0  0  0  0  0  0  0  0
    4.2449    1.3233   -5.5004 H   0  0  0  0  0  0  0  0  0  0  0  0
  1  3  1  0  0  0  0
  1  7  1  0  0  0  0
  1  2  2  0  0  0  0
 34 35  1  0  0  0  0
 35 43  1  0  0  0  0
 35 36  2  0  0  0  0
  8  9  1  0  0  0  0
  9 17  1  0  0  0  0
  9 10  2  0  0  0  0
 18 19  1  0  0  0  0
 19 33  1  0  0  0  0
 19 20  2  0  0  0  0
 22 23  1  0  0  0  0
 23 24  2  0  0  0  0
 23 25  1  0  0  0  0
 34 37  1  0  0  0  0
  8 11  1  0  0  0  0
 43 44  1  0  0  0  0
 21 22  1  0  0  0  0
 18 21  1  0  0  0  0
 33 34  1  0  0  0  0
  7  8  1  0  0  0  0
 17 18  1  0  0  0  0
  3  4  1  0  0  0  0
  3  5  1  0  0  0  0
  3  6  1  0  0  0  0
 37 40  1  0  0  0  0
 37 41  1  0  0  0  0
 37 42  1  0  0  0  0
 11 14  1  0  0  0  0
 11 15  1  0  0  0  0
 11 16  1  0  0  0  0
 44 46  1  0  0  0  0
 44 47  1  0  0  0  0
 44 48  1  0  0  0  0
 22 30  1  0  0  0  0
 22 31  1  0  0  0  0
 21 28  1  0  0  0  0
 21 29  1  0  0  0  0
 34 39  1  0  0  0  0
  8 13  1  0  0  0  0
 18 27  1  0  0  0  0
 43 45  1  0  0  0  0
  7 12  1  0  0  0  0
 33 38  1  0  0  0  0
 17 26  1  0  0  0  0
 25 32  1  0  0  0  0
M  END
$$$$

  -OEChem-05262214473D

 48 47  0     1  0  0  0  0  0999 V2000
   -5.5827   -1.3473    1.4591 C   0  0  0  0  0  0  0  0  0  0  0  0
   -5.7053   -2.4696    0.9825 O   0  0  0  0  0  0  0  0  0  0  0  0
   -6.7879   -0.6277    1.9670 C   0  0  0  0  0  0  0  0  0  0  0  0
   -7.2718   -0.0164    1.1885 H   0  0  0  0  0  0  0  0  0  0  0  0
   -7.5699   -1.3171    2.3239 H   0  0  0  0  0  0  0  0  0  0  0  0
   -6.6057    0.0628    2.8060 H   0  0  0  0  0  0  0  0  0  0  0  0
   -4.4001   -0.6377    1.5884 N   0  0  0  0  0  0  0  0  0  0  0  0
   -3.1220   -1.1455    1.1644 C   0  0  2  0  0  0  0  0  0  0  0  0
   -2.2017    0.0428    0.9187 C   0  0  0  0  0  0  0  0  0  0  0  0
   -2.6171    1.1750    0.6807 O   0  0  0  0  0  0  0  0  0  0  0  0
   -3.2533   -1.9992   -0.0873 C   0  0  0  0  0  0  0  0  0  0  0  0
   -4.4370    0.2910    2.0047 H   0  0  0  0  0  0  0  0  0  0  0  0
   -2.7302   -1.7467    1.9921 H   0  0  0  0  0  0  0  0  0  0  0  0
   -3.6446   -1.4140   -0.9275 H   0  0  0  0  0  0  0  0  0  0  0  0
   -2.2844   -2.4081   -0.3922 H   0  0  0  0  0  0  0  0  0  0  0  0
   -3.9388   -2.8365    0.0822 H   0  0  0  0  0  0  0  0  0  0  0  0
   -0.8768   -0.3314    0.9568 N   0  0  0  0  0  0  0  0  0  0  0  0
    0.2067    0.6285    0.7375 C   0  0  2  0  0  0  0  0  0  0  0  0
    0.9835    0.1312   -0.4777 C   0  0  0  0  0  0  0  0  0  0  0  0
    1.9222   -0.6572   -0.3845 O   0  0  0  0  0  0  0  0  0  0  0  0
    1.0812    0.7033    1.9980 C   0  0  0  0  0  0  0  0  0  0  0  0
    0.3644    1.3084    3.2049 C   0  0  0  0  0  0  0  0  0  0  0  0
    1.2475    1.3421    4.4272 C   0  0  0  0  0  0  0  0  0  0  0  0
    2.3550    0.8228    4.4822 O   0  0  0  0  0  0  0  0  0  0  0  0
    0.6755    1.9873    5.4736 O   0  0  0  0  0  0  0  0  0  0  0  0
   -0.6087   -1.2764    1.1771 H   0  0  0  0  0  0  0  0  0  0  0  0
   -0.2359    1.6091    0.5338 H   0  0  0  0  0  0  0  0  0  0  0  0
    1.4272   -0.3060    2.2582 H   0  0  0  0  0  0  0  0  0  0  0  0
    1.9805    1.3012    1.7996 H   0  0  0  0  0  0  0  0  0  0  0  0
    0.0855    2.3464    2.9861 H   0  0  0  0  0  0  0  0  0  0  0  0
   -0.5761    0.7922    3.4239 H   0  0  0  0  0  0  0  0  0  0  0  0
    1.2101    2.0157    6.2953 H   0  0  0  0  0  0  0  0  0  0  0  0
    0.4893    0.6448   -1.6676 N   0  0  0  0  0  0  0  0  0  0  0  0
    1.0497    0.3264   -2.9611 C   0  0  2  0  0  0  0  0  0  0  0  0
    2.0631    1.4072   -3.3136 C   0  0  0  0  0  0  0  0  0  0  0  0
    2.0432    2.5324   -2.8189 O   0  0  0  0  0  0  0  0  0  0  0  0
   -0.0331    0.2290   -4.0245 C   0  0  0  0  0  0  0  0  0  0  0  0
   -0.3055    1.2758   -1.6279 H   0  0  0  0  0  0  0  0  0  0  0  0
    1.5628   -0.6357   -2.8553 H   0  0  0  0  0  0  0  0  0  0  0  0
   -0.5583    1.1836   -4.1447 H   0  0  0  0  0  0  0  0  0  0  0  0
    0.3898   -0.0403   -4.9979 H   0  0  0  0  0  0  0  0  0  0  0  0
   -0.7773   -0.5281   -3.7547 H   0  0  0  0  0  0  0  0  0  0  0  0
    2.9663    0.9814   -4.2775 N   0  0  0  0  0  0  0  0  0  0  0  0
    4.0182    1.8288   -4.7887 C   0  0  0  0  0  0  0  0  0  0  0  0
    2.9202    0.0255   -4.6179 H   0  0  0  0  0  0  0  0  0  0  0  0
    3.6647    2.3492   -5.6911 H   0  0  0  0  0  0  0  0  0  0  0  0
    4.2968    2.5690   -4.0241 H   0  0  0  0  0  0  0  0  0  0  0  0
    4.8948    1.2136   -5.0401 H   0  0  0  0  0  0  0  0  0  0  0  0
  1  3  1  0  0  0  0
  1  7  1  0  0  0  0
  1  2  2  0  0  0  0
 34 35  1  0  0  0  0
 35 43  1  0  0  0  0
 35 36  2  0  0  0  0
  8  9  1  0  0  0  0
  9 17  1  0  0  0  0
  9 10  2  0  0  0  0
 18 19  1  0  0  0  0
 19 33  1  0  0  0  0
 19 20  2  0  0  0  0
 22 23  1  0  0  0  0
 23 24  2  0  0  0  0
 23 25  1  0  0  0  0
 34 37  1  0  0  0  0
  8 11  1  0  0  0  0
 43 44  1  0  0  0  0
 21 22  1  0  0  0  0
 18 21  1  0  0  0  0
 33 34  1  0  0  0  0
  7  8  1  0  0  0  0
 17 18  1  0  0  0  0
  3  4  1  0  0  0  0
  3  5  1  0  0  0  0
  3  6  1  0  0  0  0
 37 40  1  0  0  0  0
 37 41  1  0  0  0  0
 37 42  1  0  0  0  0
 11 14  1  0  0  0  0
 11 15  1  0  0  0  0
 11 16  1  0  0  0  0
 44 46  1  0  0  0  0
 44 47  1  0  0  0  0
 44 48  1  0  0  0  0
 22 30  1  0  0  0  0
 22 31  1  0  0  0  0
 21 28  1  0  0  0  0
 21 29  1  0  0  0  0
 34 39  1  0  0  0  0
  8 13  1  0  0  0  0
 18 27  1  0  0  0  0
 43 45  1  0  0  0  0
  7 12  1  0  0  0  0
 33 38  1  0  0  0  0
 17 26  1  0  0  0  0
 25 32  1  0  0  0  0
M  END
$$$$

  -OEChem-05262214473D

 48 47  0     1  0  0  0  0  0999 V2000
   -5.5827   -1.3473    1.4591 C   0  0  0  0  0  0  0  0  0  0  0  0
   -5.7053   -2.4696    0.9825 O   0  0  0  0  0  0  0  0  0  0  0  0
   -6.7879   -0.6277    1.9670 C   0  0  0  0  0  0  0  0  0  0  0  0
   -7.2718   -0.0164    1.1885 H   0  0  0  0  0  0  0  0  0  0  0  0
   -7.5699   -1.3171    2.3239 H   0  0  0  0  0  0  0  0  0  0  0  0
   -6.6057    0.0628    2.8060 H   0  0  0  0  0  0  0  0  0  0  0  0
   -4.4001   -0.6377    1.5884 N   0  0  0  0  0  0  0  0  0  0  0  0
   -3.1220   -1.1455    1.1644 C   0  0  2  0  0  0  0  0  0  0  0  0
   -2.2017    0.0428    0.9187 C   0  0  0  0  0  0  0  0  0  0  0  0
   -2.6171    1.1750    0.6807 O   0  0  0  0  0  0  0  0  0  0  0  0
   -3.2533   -1.9992   -0.0873 C   0  0  0  0  0  0  0  0  0  0  0  0
   -4.4370    0.2910    2.0047 H   0  0  0  0  0  0  0  0  0  0  0  0
   -2.7302   -1.7467    1.9921 H   0  0  0  0  0  0  0  0  0  0  0  0
   -3.6446   -1.4140   -0.9275 H   0  0  0  0  0  0  0  0  0  0  0  0
   -2.2844   -2.4081   -0.3922 H   0  0  0  0  0  0  0  0  0  0  0  0
   -3.9388   -2.8365    0.0822 H   0  0  0  0  0  0  0  0  0  0  0  0
   -0.8768   -0.3314    0.9568 N   0  0  0  0  0  0  0  0  0  0  0  0
    0.2067    0.6285    0.7375 C   0  0  2  0  0  0  0  0  0  0  0  0
    0.9835    0.1312   -0.4777 C   0  0  0  0  0  0  0  0  0  0  0  0
    1.7313   -0.8435   -0.4303 O   0  0  0  0  0  0  0  0  0  0  0  0
    1.0812    0.7033    1.9980 C   0  0  0  0  0  0  0  0  0  0  0  0
    0.3644    1.3084    3.2049 C   0  0  0  0  0  0  0  0  0  0  0  0
    1.2475    1.3421    4.4272 C   0  0  0  0  0  0  0  0  0  0  0  0
    2.3550    0.8228    4.4822 O   0  0  0  0  0  0  0  0  0  0  0  0
    0.6755    1.9873    5.4736 O   0  0  0  0  0  0  0  0  0  0  0  0
   -0.6087   -1.2764    1.1771 H   0  0  0  0  0  0  0  0  0  0  0  0
   -0.2359    1.6091    0.5338 H   0  0  0  0  0  0  0  0  0  0  0  0
    1.4272   -0.3060    2.2582 H   0  0  0  0  0  0  0  0  0  0  0  0
    1.9805    1.3012    1.7996 H   0  0  0  0  0  0  0  0  0  0  0  0
    0.0855    2.3464    2.9861 H   0  0  0  0  0  0  0  0  0  0  0  0
   -0.5761    0.7922    3.4239 H   0  0  0  0  0  0  0  0  0  0  0  0
    1.2101    2.0157    6.2953 H   0  0  0  0  0  0  0  0  0  0  0  0
    0.7216    0.8802   -1.6154 N   0  0  0  0  0  0  0  0  0  0  0  0
    1.3310    0.6117   -2.8981 C   0  0  2  0  0  0  0  0  0  0  0  0
    2.5702    1.4883   -3.0226 C   0  0  0  0  0  0  0  0  0  0  0  0
    2.7278    2.5226   -2.3773 O   0  0  0  0  0  0  0  0  0  0  0  0
    0.3604    0.8774   -4.0383 C   0  0  0  0  0  0  0  0  0  0  0  0
    0.0694    1.6553   -1.5435 H   0  0  0  0  0  0  0  0  0  0  0  0
    1.6279   -0.4427   -2.8927 H   0  0  0  0  0  0  0  0  0  0  0  0
    0.0517    1.9289   -4.0598 H   0  0  0  0  0  0  0  0  0  0  0  0
    0.8143    0.6463   -5.0076 H   0  0  0  0  0  0  0  0  0  0  0  0
   -0.5433    0.2678   -3.9309 H   0  0  0  0  0  0  0  0  0  0  0  0
    3.4598    1.0027   -3.9707 N   0  0  0  0  0  0  0  0  0  0  0  0
    4.7054    1.6643   -4.2821 C   0  0  0  0  0  0  0  0  0  0  0  0
    3.2567    0.1275   -4.4445 H   0  0  0  0  0  0  0  0  0  0  0  0
    4.5537    2.3546   -5.1250 H   0  0  0  0  0  0  0  0  0  0  0  0
    5.0502    2.2289   -3.4034 H   0  0  0  0  0  0  0  0  0  0  0  0
    5.4612    0.9131   -4.5550 H   0  0  0  0  0  0  0  0  0  0  0  0
  1  3  1  0  0  0  0
  1  7  1  0  0  0  0
  1  2  2  0  0  0  0
 34 35  1  0  0  0  0
 35 43  1  0  0  0  0
 35 36  2  0  0  0  0
  8  9  1  0  0  0  0
  9 17  1  0  0  0  0
  9 10  2  0  0  0  0
 18 19  1  0  0  0  0
 19 33  1  0  0  0  0
 19 20  2  0  0  0  0
 22 23  1  0  0  0  0
 23 24  2  0  0  0  0
 23 25  1  0  0  0  0
 34 37  1  0  0  0  0
  8 11  1  0  0  0  0
 43 44  1  0  0  0  0
 21 22  1  0  0  0  0
 18 21  1  0  0  0  0
 33 34  1  0  0  0  0
  7  8  1  0  0  0  0
 17 18  1  0  0  0  0
  3  4  1  0  0  0  0
  3  5  1  0  0  0  0
  3  6  1  0  0  0  0
 37 40  1  0  0  0  0
 37 41  1  0  0  0  0
 37 42  1  0  0  0  0
 11 14  1  0  0  0  0
 11 15  1  0  0  0  0
 11 16  1  0  0  0  0
 44 46  1  0  0  0  0
 44 47  1  0  0  0  0
 44 48  1  0  0  0  0
 22 30  1  0  0  0  0
 22 31  1  0  0  0  0
 21 28  1  0  0  0  0
 21 29  1  0  0  0  0
 34 39  1  0  0  0  0
  8 13  1  0  0  0  0
 18 27  1  0  0  0  0
 43 45  1  0  0  0  0
  7 12  1  0  0  0  0
 33 38  1  0  0  0  0
 17 26  1  0  0  0  0
 25 32  1  0  0  0  0
M  END
$$$$

  -OEChem-05262214473D

 48 47  0     1  0  0  0  0  0999 V2000
   -5.5827   -1.3473    1.4591 C   0  0  0  0  0  0  0  0  0  0  0  0
   -5.7053   -2.4696    0.9825 O   0  0  0  0  0  0  0  0  0  0  0  0
   -6.7879   -0.6277    1.9670 C   0  0  0  0  0  0  0  0  0  0  0  0
   -7.2718   -0.0164    1.1885 H   0  0  0  0  0  0  0  0  0  0  0  0
   -7.5699   -1.3171    2.3239 H   0  0  0  0  0  0  0  0  0  0  0  0
   -6.6057    0.0628    2.8060 H   0  0  0  0  0  0  0  0  0  0  0  0
   -4.4001   -0.6377    1.5884 N   0  0  0  0  0  0  0  0  0  0  0  0
   -3.1220   -1.1455    1.1644 C   0  0  2  0  0  0  0  0  0  0  0  0
   -2.2017    0.0428    0.9187 C   0  0  0  0  0  0  0  0  0  0  0  0
   -2.6171    1.1750    0.6807 O   0  0  0  0  0  0  0  0  0  0  0  0
   -3.2533   -1.9992   -0.0873 C   0  0  0  0  0  0  0  0  0  0  0  0
   -4.4370    0.2910    2.0047 H   0  0  0  0  0  0  0  0  0  0  0  0
   -2.7302   -1.7467    1.9921 H   0  0  0  0  0  0  0  0  0  0  0  0
   -3.6446   -1.4140   -0.9275 H   0  0  0  0  0  0  0  0  0  0  0  0
   -2.2844   -2.4081   -0.3922 H   0  0  0  0  0  0  0  0  0  0  0  0
   -3.9388   -2.8365    0.0822 H   0  0  0  0  0  0  0  0  0  0  0  0
   -0.8768   -0.3314    0.9568 N   0  0  0  0  0  0  0  0  0  0  0  0
    0.2067    0.6285    0.7375 C   0  0  2  0  0  0  0  0  0  0  0  0
    0.9835    0.1312   -0.4777 C   0  0  0  0  0  0  0  0  0  0  0  0
    1.5124   -0.9781   -0.5152 O   0  0  0  0  0  0  0  0  0  0  0  0
    1.0812    0.7033    1.9980 C   0  0  0  0  0  0  0  0  0  0  0  0
    0.3644    1.3084    3.2049 C   0  0  0  0  0  0  0  0  0  0  0  0
    1.2475    1.3421    4.4272 C   0  0  0  0  0  0  0  0  0  0  0  0
    2.3550    0.8228    4.4822 O   0  0  0  0  0  0  0  0  0  0  0  0
    0.6755    1.9873    5.4736 O   0  0  0  0  0  0  0  0  0  0  0  0
   -0.6087   -1.2764    1.1771 H   0  0  0  0  0  0  0  0  0  0  0  0
   -0.2359    1.6091    0.5338 H   0  0  0  0  0  0  0  0  0  0  0  0
    1.4272   -0.3060    2.2582 H   0  0  0  0  0  0  0  0  0  0  0  0
    1.9805    1.3012    1.7996 H   0  0  0  0  0  0  0  0  0  0  0  0
    0.0855    2.3464    2.9861 H   0  0  0  0  0  0  0  0  0  0  0  0
   -0.5761    0.7922    3.4239 H   0  0  0  0  0  0  0  0  0  0  0  0
    1.2101    2.0157    6.2953 H   0  0  0  0  0  0  0  0  0  0  0  0
    0.9901    1.0527   -1.5144 N   0  0  0  0  0  0  0  0  0  0  0  0
    1.6563    0.8210   -2.7758 C   0  0  2  0  0  0  0  0  0  0  0  0
    3.0522    1.4238   -2.6881 C   0  0  0  0  0  0  0  0  0  0  0  0
    3.3498    2.3139   -1.8943 O   0  0  0  0  0  0  0  0  0  0  0  0
    0.8754    1.4244   -3.9329 C   0  0  0  0  0  0  0  0  0  0  0  0
    0.5028    1.9335   -1.3804 H   0  0  0  0  0  0  0  0  0  0  0  0
    1.7337   -0.2648   -2.8979 H   0  0  0  0  0  0  0  0  0  0  0  0
    0.7874    2.5119   -3.8281 H   0  0  0  0  0  0  0  0  0  0  0  0
    1.3667    1.2234   -4.8907 H   0  0  0  0  0  0  0  0  0  0  0  0
   -0.1382    1.0116   -3.9764 H   0  0  0  0  0  0  0  0  0  0  0  0
    3.9151    0.8811   -3.6299 N   0  0  0  0  0  0  0  0  0  0  0  0
    5.2924    1.2970   -3.7565 C   0  0  0  0  0  0  0  0  0  0  0  0
    3.5881    0.1338   -4.2352 H   0  0  0  0  0  0  0  0  0  0  0  0
    5.3657    2.1020   -4.5025 H   0  0  0  0  0  0  0  0  0  0  0  0
    5.6554    1.6633   -2.7850 H   0  0  0  0  0  0  0  0  0  0  0  0
    5.9053    0.4421   -4.0784 H   0  0  0  0  0  0  0  0  0  0  0  0
  1  3  1  0  0  0  0
  1  7  1  0  0  0  0
  1  2  2  0  0  0  0
 34 35  1  0  0  0  0
 35 43  1  0  0  0  0
 35 36  2  0  0  0  0
  8  9  1  0  0  0  0
  9 17  1  0  0  0  0
  9 10  2  0  0  0  0
 18 19  1  0  0  0  0
 19 33  1  0  0  0  0
 19 20  2  0  0  0  0
 22 23  1  0  0  0  0
 23 24  2  0  0  0  0
 23 25  1  0  0  0  0
 34 37  1  0  0  0  0
  8 11  1  0  0  0  0
 43 44  1  0  0  0  0
 21 22  1  0  0  0  0
 18 21  1  0  0  0  0
 33 34  1  0  0  0  0
  7  8  1  0  0  0  0
 17 18  1  0  0  0  0
  3  4  1  0  0  0  0
  3  5  1  0  0  0  0
  3  6  1  0  0  0  0
 37 40  1  0  0  0  0
 37 41  1  0  0  0  0
 37 42  1  0  0  0  0
 11 14  1  0  0  0  0
 11 15  1  0  0  0  0
 11 16  1  0  0  0  0
 44 46  1  0  0  0  0
 44 47  1  0  0  0  0
 44 48  1  0  0  0  0
 22 30  1  0  0  0  0
 22 31  1  0  0  0  0
 21 28  1  0  0  0  0
 21 29  1  0  0  0  0
 34 39  1  0  0  0  0
  8 13  1  0  0  0  0
 18 27  1  0  0  0  0
 43 45  1  0  0  0  0
  7 12  1  0  0  0  0
 33 38  1  0  0  0  0
 17 26  1  0  0  0  0
 25 32  1  0  0  0  0
M  END
$$$$

  -OEChem-05262214473D

 48 47  0     1  0  0  0  0  0999 V2000
   -5.5827   -1.3473    1.4591 C   0  0  0  0  0  0  0  0  0  0  0  0
   -5.7053   -2.4696    0.9825 O   0  0  0  0  0  0  0  0  0  0  0  0
   -6.7879   -0.6277    1.9670 C   0  0  0  0  0  0  0  0  0  0  0  0
   -7.2718   -0.0164    1.1885 H   0  0  0  0  0  0  0  0  0  0  0  0
   -7.5699   -1.3171    2.3239 H   0  0  0  0  0  0  0  0  0  0  0  0
   -6.6057    0.0628    2.8060 H   0  0  0  0  0  0  0  0  0  0  0  0
   -4.4001   -0.6377    1.5884 N   0  0  0  0  0  0  0  0  0  0  0  0
   -3.1220   -1.1455    1.1644 C   0  0  2  0  0  0  0  0  0  0  0  0
   -2.2017    0.0428    0.9187 C   0  0  0  0  0  0  0  0  0  0  0  0
   -2.6171    1.1750    0.6807 O   0  0  0  0  0  0  0  0  0  0  0  0
   -3.2533   -1.9992   -0.0873 C   0  0  0  0  0  0  0  0  0  0  0  0
   -4.4370    0.2910    2.0047 H   0  0  0  0  0  0  0  0  0  0  0  0
   -2.7302   -1.7467    1.9921 H   0  0  0  0  0  0  0  0  0  0  0  0
   -3.6446   -1.4140   -0.9275 H   0  0  0  0  0  0  0  0  0  0  0  0
   -2.2844   -2.4081   -0.3922 H   0  0  0  0  0  0  0  0  0  0  0  0
   -3.9388   -2.8365    0.0822 H   0  0  0  0  0  0  0  0  0  0  0  0
   -0.8768   -0.3314    0.9568 N   0  0  0  0  0  0  0  0  0  0  0  0
    0.2067    0.6285    0.7375 C   0  0  2  0  0  0  0  0  0  0  0  0
    0.9835    0.1312   -0.4777 C   0  0  0  0  0  0  0  0  0  0  0  0
    1.2803   -1.0517   -0.6334 O   0  0  0  0  0  0  0  0  0  0  0  0
    1.0812    0.7033    1.9980 C   0  0  0  0  0  0  0  0  0  0  0  0
    0.3644    1.3084    3.2049 C   0  0  0  0  0  0  0  0  0  0  0  0
    1.2475    1.3421    4.4272 C   0  0  0  0  0  0  0  0  0  0  0  0
    2.3550    0.8228    4.4822 O   0  0  0  0  0  0  0  0  0  0  0  0
    0.6755    1.9873    5.4736 O   0  0  0  0  0  0  0  0  0  0  0  0
   -0.6087   -1.2764    1.1771 H   0  0  0  0  0  0  0  0  0  0  0  0
   -0.2359    1.6091    0.5338 H   0  0  0  0  0  0  0  0  0  0  0  0
    1.4272   -0.3060    2.2582 H   0  0  0  0  0  0  0  0  0  0  0  0
    1.9805    1.3012    1.7996 H   0  0  0  0  0  0  0  0  0  0  0  0
    0.0855    2.3464    2.9861 H   0  0  0  0  0  0  0  0  0  0  0  0
   -0.5761    0.7922    3.4239 H   0  0  0  0  0  0  0  0  0  0  0  0
    1.2101    2.0157    6.2953 H   0  0  0  0  0  0  0  0  0  0  0  0
    1.2765    1.1507   -1.3714 N   0  0  0  0  0  0  0  0  0  0  0  0
    2.0033    0.9401   -2.6027 C   0  0  2  0  0  0  0  0  0  0  0  0
    3.4762    1.2180   -2.3328 C   0  0  0  0  0  0  0  0  0  0  0  0
    3.8668    1.9203   -1.4027 O   0  0  0  0  0  0  0  0  0  0  0  0
    1.4767    1.8327   -3.7157 C   0  0  0  0  0  0  0  0  0  0  0  0
    0.9649    2.0915   -1.1496 H   0  0  0  0  0  0  0  0  0  0  0  0
    1.8730   -0.1142   -2.8705 H   0  0  0  0  0  0  0  0  0  0  0  0
    1.5987    2.8928   -3.4654 H   0  0  0  0  0  0  0  0  0  0  0  0
    2.0093    1.6515   -4.6551 H   0  0  0  0  0  0  0  0  0  0  0  0
    0.4101    1.6525   -3.8881 H   0  0  0  0  0  0  0  0  0  0  0  0
    4.3010    0.6248   -3.2784 N   0  0  0  0  0  0  0  0  0  0  0  0
    5.7393    0.7519   -3.2477 C   0  0  0  0  0  0  0  0  0  0  0  0
    3.8918    0.0440   -4.0043 H   0  0  0  0  0  0  0  0  0  0  0  0
    6.0455    1.6086   -3.8660 H   0  0  0  0  0  0  0  0  0  0  0  0
    6.0713    0.9108   -2.2111 H   0  0  0  0  0  0  0  0  0  0  0  0
    6.1970   -0.1672   -3.6425 H   0  0  0  0  0  0  0  0  0  0  0  0
  1  3  1  0  0  0  0
  1  7  1  0  0  0  0
  1  2  2  0  0  0  0
 34 35  1  0  0  0  0
 35 43  1  0  0  0  0
 35 36  2  0  0  0  0
  8  9  1  0  0  0  0
  9 17  1  0  0  0  0
  9 10  2  0  0  0  0
 18 19  1  0  0  0  0
 19 33  1  0  0  0  0
 19 20  2  0  0  0  0
 22 23  1  0  0  0  0
 23 24  2  0  0  0  0
 23 25  1  0  0  0  0
 34 37  1  0  0  0  0
  8 11  1  0  0  0  0
 43 44  1  0  0  0  0
 21 22  1  0  0  0  0
 18 21  1  0  0  0  0
 33 34  1  0  0  0  0
  7  8  1  0  0  0  0
 17 18  1  0  0  0  0
  3  4  1  0  0  0  0
  3  5  1  0  0  0  0
  3  6  1  0  0  0  0
 37 40  1  0  0  0  0
 37 41  1  0  0  0  0
 37 42  1  0  0  0  0
 11 14  1  0  0  0  0
 11 15  1  0  0  0  0
 11 16  1  0  0  0  0
 44 46  1  0  0  0  0
 44 47  1  0  0  0  0
 44 48  1  0  0  0  0
 22 30  1  0  0  0  0
 22 31  1  0  0  0  0
 21 28  1  0  0  0  0
 21 29  1  0  0  0  0
 34 39  1  0  0  0  0
  8 13  1  0  0  0  0
 18 27  1  0  0  0  0
 43 45  1  0  0  0  0
  7 12  1  0  0  0  0
 33 38  1  0  0  0  0
 17 26  1  0  0  0  0
 25 32  1  0  0  0  0
M  END
$$$$

  -OEChem-05262214473D

 48 47  0     1  0  0  0  0  0999 V2000
   -5.5827   -1.3473    1.4591 C   0  0  0  0  0  0  0  0  0  0  0  0
   -5.7053   -2.4696    0.9825 O   0  0  0  0  0  0  0  0  0  0  0  0
   -6.7879   -0.6277    1.9670 C   0  0  0  0  0  0  0  0  0  0  0  0
   -7.2718   -0.0164    1.1885 H   0  0  0  0  0  0  0  0  0  0  0  0
   -7.5699   -1.3171    2.3239 H   0  0  0  0  0  0  0  0  0  0  0  0
   -6.6057    0.0628    2.8060 H   0  0  0  0  0  0  0  0  0  0  0  0
   -4.4001   -0.6377    1.5884 N   0  0  0  0  0  0  0  0  0  0  0  0
   -3.1220   -1.1455    1.1644 C   0  0  2  0  0  0  0  0  0  0  0  0
   -2.2017    0.0428    0.9187 C   0  0  0  0  0  0  0  0  0  0  0  0
   -2.6171    1.1750    0.6807 O   0  0  0  0  0  0  0  0  0  0  0  0
   -3.2533   -1.9992   -0.0873 C   0  0  0  0  0  0  0  0  0  0  0  0
   -4.4370    0.2910    2.0047 H   0  0  0  0  0  0  0  0  0  0  0  0
   -2.7302   -1.7467    1.9921 H   0  0  0  0  0  0  0  0  0  0  0  0
   -3.6446   -1.4140   -0.9275 H   0  0  0  0  0  0  0  0  0  0  0  0
   -2.2844   -2.4081   -0.3922 H   0  0  0  0  0  0  0  0  0  0  0  0
   -3.9388   -2.8365    0.0822 H   0  0  0  0  0  0  0  0  0  0  0  0
   -0.8768   -0.3314    0.9568 N   0  0  0  0  0  0  0  0  0  0  0  0
    0.2067    0.6285    0.7375 C   0  0  2  0  0  0  0  0  0  0  0  0
    0.9835    0.1312   -0.4777 C   0  0  0  0  0  0  0  0  0  0  0  0
    1.0509   -1.0594   -0.7769 O   0  0  0  0  0  0  0  0  0  0  0  0
    1.0812    0.7033    1.9980 C   0  0  0  0  0  0  0  0  0  0  0  0
    0.3644    1.3084    3.2049 C   0  0  0  0  0  0  0  0  0  0  0  0
    1.2475    1.3421    4.4272 C   0  0  0  0  0  0  0  0  0  0  0  0
    2.3550    0.8228    4.4822 O   0  0  0  0  0  0  0  0  0  0  0  0
    0.6755    1.9873    5.4736 O   0  0  0  0  0  0  0  0  0  0  0  0
   -0.6087   -1.2764    1.1771 H   0  0  0  0  0  0  0  0  0  0  0  0
   -0.2359    1.6091    0.5338 H   0  0  0  0  0  0  0  0  0  0  0  0
    1.4272   -0.3060    2.2582 H   0  0  0  0  0  0  0  0  0  0  0  0
    1.9805    1.3012    1.7996 H   0  0  0  0  0  0  0  0  0  0  0  0
    0.0855    2.3464    2.9861 H   0  0  0  0  0  0  0  0  0  0  0  0
   -0.5761    0.7922    3.4239 H   0  0  0  0  0  0  0  0  0  0  0  0
    1.2101    2.0157    6.2953 H   0  0  0  0  0  0  0  0  0  0  0  0
    1.5613    1.1674   -1.1962 N   0  0  0  0  0  0  0  0  0  0  0  0
    2.3484    0.9607   -2.3905 C   0  0  2  0  0  0  0  0  0  0  0  0
    3.8133    0.8850   -1.9810 C   0  0  0  0  0  0  0  0  0  0  0  0
    4.2436    1.3688   -0.9361 O   0  0  0  0  0  0  0  0  0  0  0  0
    2.1234    2.0745   -3.4012 C   0  0  0  0  0  0  0  0  0  0  0  0
    1.4244    2.1183   -0.8668 H   0  0  0  0  0  0  0  0  0  0  0  0
    2.0364   -0.0009   -2.8124 H   0  0  0  0  0  0  0  0  0  0  0  0
    2.4302    3.0457   -2.9964 H   0  0  0  0  0  0  0  0  0  0  0  0
    2.6985    1.9015   -4.3169 H   0  0  0  0  0  0  0  0  0  0  0  0
    1.0645    2.1469   -3.6721 H   0  0  0  0  0  0  0  0  0  0  0  0
    4.5912    0.2514   -2.9400 N   0  0  0  0  0  0  0  0  0  0  0  0
    6.0158    0.0662   -2.7904 C   0  0  0  0  0  0  0  0  0  0  0  0
    4.1473   -0.1358   -3.7674 H   0  0  0  0  0  0  0  0  0  0  0  0
    6.5467    0.9080   -3.2589 H   0  0  0  0  0  0  0  0  0  0  0  0
    6.2694    0.0225   -1.7209 H   0  0  0  0  0  0  0  0  0  0  0  0
    6.3164   -0.8733   -3.2772 H   0  0  0  0  0  0  0  0  0  0  0  0
  1  3  1  0  0  0  0
  1  7  1  0  0  0  0
  1  2  2  0  0  0  0
 34 35  1  0  0  0  0
 35 43  1  0  0  0  0
 35 36  2  0  0  0  0
  8  9  1  0  0  0  0
  9 17  1  0  0  0  0
  9 10  2  0  0  0  0
 18 19  1  0  0  0  0
 19 33  1  0  0  0  0
 19 20  2  0  0  0  0
 22 23  1  0  0  0  0
 23 24  2  0  0  0  0
 23 25  1  0  0  0  0
 34 37  1  0  0  0  0
  8 11  1  0  0  0  0
 43 44  1  0  0  0  0
 21 22  1  0  0  0  0
 18 21  1  0  0  0  0
 33 34  1  0  0  0  0
  7  8  1  0  0  0  0
 17 18  1  0  0  0  0
  3  4  1  0  0  0  0
  3  5  1  0  0  0  0
  3  6  1  0  0  0  0
 37 40  1  0  0  0  0
 37 41  1  0  0  0  0
 37 42  1  0  0  0  0
 11 14  1  0  0  0  0
 11 15  1  0  0  0  0
 11 16  1  0  0  0  0
 44 46  1  0  0  0  0
 44 47  1  0  0  0  0
 44 48  1  0  0  0  0
 22 30  1  0  0  0  0
 22 31  1  0  0  0  0
 21 28  1  0  0  0  0
 21 29  1  0  0  0  0
 34 39  1  0  0  0  0
  8 13  1  0  0  0  0
 18 27  1  0  0  0  0
 43 45  1  0  0  0  0
  7 12  1  0  0  0  0
 33 38  1  0  0  0  0
 17 26  1  0  0  0  0
 25 32  1  0  0  0  0
M  END
$$$$

  -OEChem-05262214473D

 48 47  0     1  0  0  0  0  0999 V2000
   -5.5827   -1.3473    1.4591 C   0  0  0  0  0  0  0  0  0  0  0  0
   -5.7053   -2.4696    0.9825 O   0  0  0  0  0  0  0  0  0  0  0  0
   -6.7879   -0.6277    1.9670 C   0  0  0  0  0  0  0  0  0  0  0  0
   -7.2718   -0.0164    1.1885 H   0  0  0  0  0  0  0  0  0  0  0  0
   -7.5699   -1.3171    2.3239 H   0  0  0  0  0  0  0  0  0  0  0  0
   -6.6057    0.0628    2.8060 H   0  0  0  0  0  0  0  0  0  0  0  0
   -4.4001   -0.6377    1.5884 N   0  0  0  0  0  0  0  0  0  0  0  0
   -3.1220   -1.1455    1.1644 C   0  0  2  0  0  0  0  0  0  0  0  0
   -2.2017    0.0428    0.9187 C   0  0  0  0  0  0  0  0  0  0  0  0
   -2.6171    1.1750    0.6807 O   0  0  0  0  0  0  0  0  0  0  0  0
   -3.2533   -1.9992   -0.0873 C   0  0  0  0  0  0  0  0  0  0  0  0
   -4.4370    0.2910    2.0047 H   0  0  0  0  0  0  0  0  0  0  0  0
   -2.7302   -1.7467    1.9921 H   0  0  0  0  0  0  0  0  0  0  0  0
   -3.6446   -1.4140   -0.9275 H   0  0  0  0  0  0  0  0  0  0  0  0
   -2.2844   -2.4081   -0.3922 H   0  0  0  0  0  0  0  0  0  0  0  0
   -3.9388   -2.8365    0.0822 H   0  0  0  0  0  0  0  0  0  0  0  0
   -0.8768   -0.3314    0.9568 N   0  0  0  0  0  0  0  0  0  0  0  0
    0.2067    0.6285    0.7375 C   0  0  2  0  0  0  0  0  0  0  0  0
    0.9835    0.1312   -0.4777 C   0  0  0  0  0  0  0  0  0  0  0  0
    0.8399   -1.0006   -0.9358 O   0  0  0  0  0  0  0  0  0  0  0  0
    1.0812    0.7033    1.9980 C   0  0  0  0  0  0  0  0  0  0  0  0
    0.3644    1.3084    3.2049 C   0  0  0  0  0  0  0  0  0  0  0  0
    1.2475    1.3421    4.4272 C   0  0  0  0  0  0  0  0  0  0  0  0
    2.3550    0.8228    4.4822 O   0  0  0  0  0  0  0  0  0  0  0  0
    0.6755    1.9873    5.4736 O   0  0  0  0  0  0  0  0  0  0  0  0
   -0.6087   -1.2764    1.1771 H   0  0  0  0  0  0  0  0  0  0  0  0
   -0.2359    1.6091    0.5338 H   0  0  0  0  0  0  0  0  0  0  0  0
    1.4272   -0.3060    2.2582 H   0  0  0  0  0  0  0  0  0  0  0  0
    1.9805    1.3012    1.7996 H   0  0  0  0  0  0  0  0  0  0  0  0
    0.0855    2.3464    2.9861 H   0  0  0  0  0  0  0  0  0  0  0  0
   -0.5761    0.7922    3.4239 H   0  0  0  0  0  0  0  0  0  0  0  0
    1.2101    2.0157    6.2953 H   0  0  0  0  0  0  0  0  0  0  0  0
    1.8250    1.1018   -1.0008 N   0  0  0  0  0  0  0  0  0  0  0  0
    2.6681    0.8815   -2.1537 C   0  0  2  0  0  0  0  0  0  0  0  0
    4.0407    0.4474   -1.6566 C   0  0  0  0  0  0  0  0  0  0  0  0
    4.4545    0.6970   -0.5263 O   0  0  0  0  0  0  0  0  0  0  0  0
    2.7713    2.1333   -3.0111 C   0  0  0  0  0  0  0  0  0  0  0  0
    1.8499    2.0122   -0.5514 H   0  0  0  0  0  0  0  0  0  0  0  0
    2.2126    0.0671   -2.7276 H   0  0  0  0  0  0  0  0  0  0  0  0
    3.2254    2.9602   -2.4530 H   0  0  0  0  0  0  0  0  0  0  0  0
    3.3871    1.9563   -3.8991 H   0  0  0  0  0  0  0  0  0  0  0  0
    1.7803    2.4610   -3.3432 H   0  0  0  0  0  0  0  0  0  0  0  0
    4.7661   -0.2137   -2.6378 N   0  0  0  0  0  0  0  0  0  0  0  0
    6.1028   -0.7134   -2.4156 C   0  0  0  0  0  0  0  0  0  0  0  0
    4.3369   -0.3934   -3.5408 H   0  0  0  0  0  0  0  0  0  0  0  0
    6.8351    0.0479   -2.7225 H   0  0  0  0  0  0  0  0  0  0  0  0
    6.2363   -0.9410   -1.3477 H   0  0  0  0  0  0  0  0  0  0  0  0
    6.2553   -1.6281   -3.0073 H   0  0  0  0  0  0  0  0  0  0  0  0
  1  3  1  0  0  0  0
  1  7  1  0  0  0  0
  1  2  2  0  0  0  0
 34 35  1  0  0  0  0
 35 43  1  0  0  0  0
 35 36  2  0  0  0  0
  8  9  1  0  0  0  0
  9 17  1  0  0  0  0
  9 10  2  0  0  0  0
 18 19  1  0  0  0  0
 19 33  1  0  0  0  0
 19 20  2  0  0  0  0
 22 23  1  0  0  0  0
 23 24  2  0  0  0  0
 23 25  1  0  0  0  0
 34 37  1  0  0  0  0
  8 11  1  0  0  0  0
 43 44  1  0  0  0  0
 21 22  1  0  0  0  0
 18 21  1  0  0  0  0
 33 34  1  0  0  0  0
  7  8  1  0  0  0  0
 17 18  1  0  0  0  0
  3  4  1  0  0  0  0
  3  5  1  0  0  0  0
  3  6  1  0  0  0  0
 37 40  1  0  0  0  0
 37 41  1  0  0  0  0
 37 42  1  0  0  0  0
 11 14  1  0  0  0  0
 11 15  1  0  0  0  0
 11 16  1  0  0  0  0
 44 46  1  0  0  0  0
 44 47  1  0  0  0  0
 44 48  1  0  0  0  0
 22 30  1  0  0  0  0
 22 31  1  0  0  0  0
 21 28  1  0  0  0  0
 21 29  1  0  0  0  0
 34 39  1  0  0  0  0
  8 13  1  0  0  0  0
 18 27  1  0  0  0  0
 43 45  1  0  0  0  0
  7 12  1  0  0  0  0
 33 38  1  0  0  0  0
 17 26  1  0  0  0  0
 25 32  1  0  0  0  0
M  END
$$$$

  -OEChem-05262214473D

 48 47  0     1  0  0  0  0  0999 V2000
   -5.5827   -1.3473    1.4591 C   0  0  0  0  0  0  0  0  0  0  0  0
   -5.7053   -2.4696    0.9825 O   0  0  0  0  0  0  0  0  0  0  0  0
   -6.7879   -0.6277    1.9670 C   0  0  0  0  0  0  0  0  0  0  0  0
   -7.2718   -0.0164    1.1885 H   0  0  0  0  0  0  0  0  0  0  0  0
   -7.5699   -1.3171    2.3239 H   0  0  0  0  0  0  0  0  0  0  0  0
   -6.6057    0.0628    2.8060 H   0  0  0  0  0  0  0  0  0  0  0  0
   -4.4001   -0.6377    1.5884 N   0  0  0  0  0  0  0  0  0  0  0  0
   -3.1220   -1.1455    1.1644 C   0  0  2  0  0  0  0  0  0  0  0  0
   -2.2017    0.0428    0.9187 C   0  0  0  0  0  0  0  0  0  0  0  0
   -2.6171    1.1750    0.6807 O   0  0  0  0  0  0  0  0  0  0  0  0
   -3.2533   -1.9992   -0.0873 C   0  0  0  0  0  0  0  0  0  0  0  0
   -4.4370    0.2910    2.0047 H   0  0  0  0  0  0  0  0  0  0  0  0
   -2.7302   -1.7467    1.9921 H   0  0  0  0  0  0  0  0  0  0  0  0
   -3.6446   -1.4140   -0.9275 H   0  0  0  0  0  0  0  0  0  0  0  0
   -2.2844   -2.4081   -0.3922 H   0  0  0  0  0  0  0  0  0  0  0  0
   -3.9388   -2.8365    0.0822 H   0  0  0  0  0  0  0  0  0  0  0  0
   -0.8768   -0.3314    0.9568 N   0  0  0  0  0  0  0  0  0  0  0  0
    0.2067    0.6285    0.7375 C   0  0  2  0  0  0  0  0  0  0  0  0
    0.7424    0.3604   -0.6656 C   0  0  0  0  0  0  0  0  0  0  0  0
    0.2664   -0.5023   -1.4010 O   0  0  0  0  0  0  0  0  0  0  0  0
    1.2810    0.4368    1.8184 C   0  0  0  0  0  0  0  0  0  0  0  0
    0.8089    0.8108    3.2233 C   0  0  0  0  0  0  0  0  0  0  0  0
    1.8832    0.5860    4.2580 C   0  0  0  0  0  0  0  0  0  0  0  0
    2.9540    0.0415    4.0214 O   0  0  0  0  0  0  0  0  0  0  0  0
    1.5293    1.0276    5.4902 O   0  0  0  0  0  0  0  0  0  0  0  0
   -0.6087   -1.2764    1.1771 H   0  0  0  0  0  0  0  0  0  0  0  0
   -0.2087    1.6396    0.8019 H   0  0  0  0  0  0  0  0  0  0  0  0
    1.6090   -0.6113    1.8200 H   0  0  0  0  0  0  0  0  0  0  0  0
    2.1666    1.0418    1.5831 H   0  0  0  0  0  0  0  0  0  0  0  0
    0.5555    1.8776    3.2555 H   0  0  0  0  0  0  0  0  0  0  0  0
   -0.1092    0.2829    3.5010 H   0  0  0  0  0  0  0  0  0  0  0  0
    2.1935    0.8833    6.1972 H   0  0  0  0  0  0  0  0  0  0  0  0
    1.7847    1.2103   -1.0049 N   0  0  0  0  0  0  0  0  0  0  0  0
    2.4638    1.1612   -2.2797 C   0  0  2  0  0  0  0  0  0  0  0  0
    3.6920    0.2742   -2.1244 C   0  0  0  0  0  0  0  0  0  0  0  0
    4.2259    0.0515   -1.0398 O   0  0  0  0  0  0  0  0  0  0  0  0
    2.8545    2.5528   -2.7524 C   0  0  0  0  0  0  0  0  0  0  0  0
    2.0855    1.9011   -0.3239 H   0  0  0  0  0  0  0  0  0  0  0  0
    1.7685    0.7020   -2.9909 H   0  0  0  0  0  0  0  0  0  0  0  0
    3.5509    3.0287   -2.0524 H   0  0  0  0  0  0  0  0  0  0  0  0
    3.3434    2.5165   -3.7316 H   0  0  0  0  0  0  0  0  0  0  0  0
    1.9733    3.1981   -2.8350 H   0  0  0  0  0  0  0  0  0  0  0  0
    4.1476   -0.2047   -3.3448 N   0  0  0  0  0  0  0  0  0  0  0  0
    5.3068   -1.0579   -3.4639 C   0  0  0  0  0  0  0  0  0  0  0  0
    3.6319    0.0152   -4.1919 H   0  0  0  0  0  0  0  0  0  0  0  0
    6.2000   -0.4411   -3.6421 H   0  0  0  0  0  0  0  0  0  0  0  0
    5.4369   -1.6314   -2.5343 H   0  0  0  0  0  0  0  0  0  0  0  0
    5.1665   -1.7515   -4.3061 H   0  0  0  0  0  0  0  0  0  0  0  0
  1  3  1  0  0  0  0
  1  7  1  0  0  0  0
  1  2  2  0  0  0  0
 34 35  1  0  0  0  0
 35 43  1  0  0  0  0
 35 36  2  0  0  0  0
  8  9  1  0  0  0  0
  9 17  1  0  0  0  0
  9 10  2  0  0  0  0
 18 19  1  0  0  0  0
 19 33  1  0  0  0  0
 19 20  2  0  0  0  0
 22 23  1  0  0  0  0
 23 24  2  0  0  0  0
 23 25  1  0  0  0  0
 34 37  1  0  0  0  0
  8 11  1  0  0  0  0
 43 44  1  0  0  0  0
 21 22  1  0  0  0  0
 18 21  1  0  0  0  0
 33 34  1  0  0  0  0
  7  8  1  0  0  0  0
 17 18  1  0  0  0  0
  3  4  1  0  0  0  0
  3  5  1  0  0  0  0
  3  6  1  0  0  0  0
 37 40  1  0  0  0  0
 37 41  1  0  0  0  0
 37 42  1  0  0  0  0
 11 14  1  0  0  0  0
 11 15  1  0  0  0  0
 11 16  1  0  0  0  0
 44 46  1  0  0  0  0
 44 47  1  0  0  0  0
 44 48  1  0  0  0  0
 22 30  1  0  0  0  0
 22 31  1  0  0  0  0
 21 28  1  0  0  0  0
 21 29  1  0  0  0  0
 34 39  1  0  0  0  0
  8 13  1  0  0  0  0
 18 27  1  0  0  0  0
 43 45  1  0  0  0  0
  7 12  1  0  0  0  0
 33 38  1  0  0  0  0
 17 26  1  0  0  0  0
 25 32  1  0  0  0  0
M  END
$$$$

  -OEChem-05262214473D

 48 47  0     1  0  0  0  0  0999 V2000
   -5.5827   -1.3473    1.4591 C   0  0  0  0  0  0  0  0  0  0  0  0
   -5.7053   -2.4696    0.9825 O   0  0  0  0  0  0  0  0  0  0  0  0
   -6.7879   -0.6277    1.9670 C   0  0  0  0  0  0  0  0  0  0  0  0
   -7.2718   -0.0164    1.1885 H   0  0  0  0  0  0  0  0  0  0  0  0
   -7.5699   -1.3171    2.3239 H   0  0  0  0  0  0  0  0  0  0  0  0
   -6.6057    0.0628    2.8060 H   0  0  0  0  0  0  0  0  0  0  0  0
   -4.4001   -0.6377    1.5884 N   0  0  0  0  0  0  0  0  0  0  0  0
   -3.1220   -1.1455    1.1644 C   0  0  2  0  0  0  0  0  0  0  0  0
   -2.2017    0.0428    0.9187 C   0  0  0  0  0  0  0  0  0  0  0  0
   -2.6171    1.1750    0.6807 O   0  0  0  0  0  0  0  0  0  0  0  0
   -3.2533   -1.9992   -0.0873 C   0  0  0  0  0  0  0  0  0  0  0  0
   -4.4370    0.2910    2.0047 H   0  0  0  0  0  0  0  0  0  0  0  0
   -2.7302   -1.7467    1.9921 H   0  0  0  0  0  0  0  0  0  0  0  0
   -3.6446   -1.4140   -0.9275 H   0  0  0  0  0  0  0  0  0  0  0  0
   -2.2844   -2.4081   -0.3922 H   0  0  0  0  0  0  0  0  0  0  0  0
   -3.9388   -2.8365    0.0822 H   0  0  0  0  0  0  0  0  0  0  0  0
   -0.8768   -0.3314    0.9568 N   0  0  0  0  0  0  0  0  0  0  0  0
    0.2067    0.6285    0.7375 C   0  0  2  0  0  0  0  0  0  0  0  0
    0.7424    0.3604   -0.6656 C   0  0  0  0  0  0  0  0  0  0  0  0
    0.1186   -0.2967   -1.4967 O   0  0  0  0  0  0  0  0  0  0  0  0
    1.2810    0.4368    1.8184 C   0  0  0  0  0  0  0  0  0  0  0  0
    0.8089    0.8108    3.2233 C   0  0  0  0  0  0  0  0  0  0  0  0
    1.8832    0.5860    4.2580 C   0  0  0  0  0  0  0  0  0  0  0  0
    2.9540    0.0415    4.0214 O   0  0  0  0  0  0  0  0  0  0  0  0
    1.5293    1.0276    5.4902 O   0  0  0  0  0  0  0  0  0  0  0  0
   -0.6087   -1.2764    1.1771 H   0  0  0  0  0  0  0  0  0  0  0  0
   -0.2087    1.6396    0.8019 H   0  0  0  0  0  0  0  0  0  0  0  0
    1.6090   -0.6113    1.8200 H   0  0  0  0  0  0  0  0  0  0  0  0
    2.1666    1.0418    1.5831 H   0  0  0  0  0  0  0  0  0  0  0  0
    0.5555    1.8776    3.2555 H   0  0  0  0  0  0  0  0  0  0  0  0
   -0.1092    0.2829    3.5010 H   0  0  0  0  0  0  0  0  0  0  0  0
    2.1935    0.8833    6.1972 H   0  0  0  0  0  0  0  0  0  0  0  0
    1.9733    0.9609   -0.8852 N   0  0  0  0  0  0  0  0  0  0  0  0
    2.6925    0.8592   -2.1347 C   0  0  2  0  0  0  0  0  0  0  0  0
    3.6660   -0.3067   -2.0234 C   0  0  0  0  0  0  0  0  0  0  0  0
    4.0701   -0.7428   -0.9474 O   0  0  0  0  0  0  0  0  0  0  0  0
    3.4266    2.1514   -2.4573 C   0  0  0  0  0  0  0  0  0  0  0  0
    2.3896    1.4985   -0.1309 H   0  0  0  0  0  0  0  0  0  0  0  0
    1.9499    0.6429   -2.9104 H   0  0  0  0  0  0  0  0  0  0  0  0
    4.1749    2.3846   -1.6911 H   0  0  0  0  0  0  0  0  0  0  0  0
    3.9476    2.0825   -3.4180 H   0  0  0  0  0  0  0  0  0  0  0  0
    2.7286    2.9940   -2.5076 H   0  0  0  0  0  0  0  0  0  0  0  0
    4.0639   -0.7750   -3.2678 N   0  0  0  0  0  0  0  0  0  0  0  0
    4.9940   -1.8682   -3.4285 C   0  0  0  0  0  0  0  0  0  0  0  0
    3.6634   -0.3662   -4.1069 H   0  0  0  0  0  0  0  0  0  0  0  0
    6.0160   -1.4710   -3.5155 H   0  0  0  0  0  0  0  0  0  0  0  0
    4.9324   -2.5334   -2.5546 H   0  0  0  0  0  0  0  0  0  0  0  0
    4.7417   -2.4334   -4.3379 H   0  0  0  0  0  0  0  0  0  0  0  0
  1  3  1  0  0  0  0
  1  7  1  0  0  0  0
  1  2  2  0  0  0  0
 34 35  1  0  0  0  0
 35 43  1  0  0  0  0
 35 36  2  0  0  0  0
  8  9  1  0  0  0  0
  9 17  1  0  0  0  0
  9 10  2  0  0  0  0
 18 19  1  0  0  0  0
 19 33  1  0  0  0  0
 19 20  2  0  0  0  0
 22 23  1  0  0  0  0
 23 24  2  0  0  0  0
 23 25  1  0  0  0  0
 34 37  1  0  0  0  0
  8 11  1  0  0  0  0
 43 44  1  0  0  0  0
 21 22  1  0  0  0  0
 18 21  1  0  0  0  0
 33 34  1  0  0  0  0
  7  8  1  0  0  0  0
 17 18  1  0  0  0  0
  3  4  1  0  0  0  0
  3  5  1  0  0  0  0
  3  6  1  0  0  0  0
 37 40  1  0  0  0  0
 37 41  1  0  0  0  0
 37 42  1  0  0  0  0
 11 14  1  0  0  0  0
 11 15  1  0  0  0  0
 11 16  1  0  0  0  0
 44 46  1  0  0  0  0
 44 47  1  0  0  0  0
 44 48  1  0  0  0  0
 22 30  1  0  0  0  0
 22 31  1  0  0  0  0
 21 28  1  0  0  0  0
 21 29  1  0  0  0  0
 34 39  1  0  0  0  0
  8 13  1  0  0  0  0
 18 27  1  0  0  0  0
 43 45  1  0  0  0  0
  7 12  1  0  0  0  0
 33 38  1  0  0  0  0
 17 26  1  0  0  0  0
 25 32  1  0  0  0  0
M  END
$$$$

  -OEChem-05262214473D

 48 47  0     1  0  0  0  0  0999 V2000
   -5.5827   -1.3473    1.4591 C   0  0  0  0  0  0  0  0  0  0  0  0
   -5.7053   -2.4696    0.9825 O   0  0  0  0  0  0  0  0  0  0  0  0
   -6.7879   -0.6277    1.9670 C   0  0  0  0  0  0  0  0  0  0  0  0
   -7.2718   -0.0164    1.1885 H   0  0  0  0  0  0  0  0  0  0  0  0
   -7.5699   -1.3171    2.3239 H   0  0  0  0  0  0  0  0  0  0  0  0
   -6.6057    0.0628    2.8060 H   0  0  0  0  0  0  0  0  0  0  0  0
   -4.4001   -0.6377    1.5884 N   0  0  0  0  0  0  0  0  0  0  0  0
   -3.1220   -1.1455    1.1644 C   0  0  2  0  0  0  0  0  0  0  0  0
   -2.2017    0.0428    0.9187 C   0  0  0  0  0  0  0  0  0  0  0  0
   -2.6171    1.1750    0.6807 O   0  0  0  0  0  0  0  0  0  0  0  0
   -3.2533   -1.9992   -0.0873 C   0  0  0  0  0  0  0  0  0  0  0  0
   -4.4370    0.2910    2.0047 H   0  0  0  0  0  0  0  0  0  0  0  0
   -2.7302   -1.7467    1.9921 H   0  0  0  0  0  0  0  0  0  0  0  0
   -3.6446   -1.4140   -0.9275 H   0  0  0  0  0  0  0  0  0  0  0  0
   -2.2844   -2.4081   -0.3922 H   0  0  0  0  0  0  0  0  0  0  0  0
   -3.9388   -2.8365    0.0822 H   0  0  0  0  0  0  0  0  0  0  0  0
   -0.8768   -0.3314    0.9568 N   0  0  0  0  0  0  0  0  0  0  0  0
    0.2067    0.6285    0.7375 C   0  0  2  0  0  0  0  0  0  0  0  0
    0.7424    0.3604   -0.6656 C   0  0  0  0  0  0  0  0  0  0  0  0
    0.0292   -0.0543   -1.5771 O   0  0  0  0  0  0  0  0  0  0  0  0
    1.2810    0.4368    1.8184 C   0  0  0  0  0  0  0  0  0  0  0  0
    0.8089    0.8108    3.2233 C   0  0  0  0  0  0  0  0  0  0  0  0
    1.8832    0.5860    4.2580 C   0  0  0  0  0  0  0  0  0  0  0  0
    2.9540    0.0415    4.0214 O   0  0  0  0  0  0  0  0  0  0  0  0
    1.5293    1.0276    5.4902 O   0  0  0  0  0  0  0  0  0  0  0  0
   -0.6087   -1.2764    1.1771 H   0  0  0  0  0  0  0  0  0  0  0  0
   -0.2087    1.6396    0.8019 H   0  0  0  0  0  0  0  0  0  0  0  0
    1.6090   -0.6113    1.8200 H   0  0  0  0  0  0  0  0  0  0  0  0
    2.1666    1.0418    1.5831 H   0  0  0  0  0  0  0  0  0  0  0  0
    0.5555    1.8776    3.2555 H   0  0  0  0  0  0  0  0  0  0  0  0
   -0.1092    0.2829    3.5010 H   0  0  0  0  0  0  0  0  0  0  0  0
    2.1935    0.8833    6.1972 H   0  0  0  0  0  0  0  0  0  0  0  0
    2.0906    0.6642   -0.7837 N   0  0  0  0  0  0  0  0  0  0  0  0
    2.8349    0.4998   -2.0116 C   0  0  2  0  0  0  0  0  0  0  0  0
    3.4980   -0.8708   -1.9797 C   0  0  0  0  0  0  0  0  0  0  0  0
    3.7263   -1.4814   -0.9375 O   0  0  0  0  0  0  0  0  0  0  0  0
    3.8702    1.6006   -2.1827 C   0  0  0  0  0  0  0  0  0  0  0  0
    2.5787    1.0197    0.0328 H   0  0  0  0  0  0  0  0  0  0  0  0
    2.1072    0.5352   -2.8297 H   0  0  0  0  0  0  0  0  0  0  0  0
    4.6079    1.5810   -1.3722 H   0  0  0  0  0  0  0  0  0  0  0  0
    4.4136    1.4909   -3.1270 H   0  0  0  0  0  0  0  0  0  0  0  0
    3.3947    2.5874   -2.1755 H   0  0  0  0  0  0  0  0  0  0  0  0
    3.8438   -1.3130   -3.2490 N   0  0  0  0  0  0  0  0  0  0  0  0
    4.4973   -2.5797   -3.4822 C   0  0  0  0  0  0  0  0  0  0  0  0
    3.5991   -0.7499   -4.0582 H   0  0  0  0  0  0  0  0  0  0  0  0
    5.5874   -2.4336   -3.4952 H   0  0  0  0  0  0  0  0  0  0  0  0
    4.2312   -3.2827   -2.6791 H   0  0  0  0  0  0  0  0  0  0  0  0
    4.1706   -2.9880   -4.4500 H   0  0  0  0  0  0  0  0  0  0  0  0
  1  3  1  0  0  0  0
  1  7  1  0  0  0  0
  1  2  2  0  0  0  0
 34 35  1  0  0  0  0
 35 43  1  0  0  0  0
 35 36  2  0  0  0  0
  8  9  1  0  0  0  0
  9 17  1  0  0  0  0
  9 10  2  0  0  0  0
 18 19  1  0  0  0  0
 19 33  1  0  0  0  0
 19 20  2  0  0  0  0
 22 23  1  0  0  0  0
 23 24  2  0  0  0  0
 23 25  1  0  0  0  0
 34 37  1  0  0  0  0
  8 11  1  0  0  0  0
 43 44  1  0  0  0  0
 21 22  1  0  0  0  0
 18 21  1  0  0  0  0
 33 34  1  0  0  0  0
  7  8  1  0  0  0  0
 17 18  1  0  0  0  0
  3  4  1  0  0  0  0
  3  5  1  0  0  0  0
  3  6  1  0  0  0  0
 37 40  1  0  0  0  0
 37 41  1  0  0  0  0
 37 42  1  0  0  0  0
 11 14  1  0  0  0  0
 11 15  1  0  0  0  0
 11 16  1  0  0  0  0
 44 46  1  0  0  0  0
 44 47  1  0  0  0  0
 44 48  1  0  0  0  0
 22 30  1  0  0  0  0
 22 31  1  0  0  0  0
 21 28  1  0  0  0  0
 21 29  1  0  0  0  0
 34 39  1  0  0  0  0
  8 13  1  0  0  0  0
 18 27  1  0  0  0  0
 43 45  1  0  0  0  0
  7 12  1  0  0  0  0
 33 38  1  0  0  0  0
 17 26  1  0  0  0  0
 25 32  1  0  0  0  0
M  END
$$$$

  -OEChem-05262214473D

 48 47  0     1  0  0  0  0  0999 V2000
   -5.5827   -1.3473    1.4591 C   0  0  0  0  0  0  0  0  0  0  0  0
   -5.7053   -2.4696    0.9825 O   0  0  0  0  0  0  0  0  0  0  0  0
   -6.7879   -0.6277    1.9670 C   0  0  0  0  0  0  0  0  0  0  0  0
   -7.2718   -0.0164    1.1885 H   0  0  0  0  0  0  0  0  0  0  0  0
   -7.5699   -1.3171    2.3239 H   0  0  0  0  0  0  0  0  0  0  0  0
   -6.6057    0.0628    2.8060 H   0  0  0  0  0  0  0  0  0  0  0  0
   -4.4001   -0.6377    1.5884 N   0  0  0  0  0  0  0  0  0  0  0  0
   -3.1220   -1.1455    1.1644 C   0  0  2  0  0  0  0  0  0  0  0  0
   -2.2017    0.0428    0.9187 C   0  0  0  0  0  0  0  0  0  0  0  0
   -2.6171    1.1750    0.6807 O   0  0  0  0  0  0  0  0  0  0  0  0
   -3.2533   -1.9992   -0.0873 C   0  0  0  0  0  0  0  0  0  0  0  0
   -4.4370    0.2910    2.0047 H   0  0  0  0  0  0  0  0  0  0  0  0
   -2.7302   -1.7467    1.9921 H   0  0  0  0  0  0  0  0  0  0  0  0
   -3.6446   -1.4140   -0.9275 H   0  0  0  0  0  0  0  0  0  0  0  0
   -2.2844   -2.4081   -0.3922 H   0  0  0  0  0  0  0  0  0  0  0  0
   -3.9388   -2.8365    0.0822 H   0  0  0  0  0  0  0  0  0  0  0  0
   -0.8768   -0.3314    0.9568 N   0  0  0  0  0  0  0  0  0  0  0  0
    0.2067    0.6285    0.7375 C   0  0  2  0  0  0  0  0  0  0  0  0
    0.7424    0.3604   -0.6656 C   0  0  0  0  0  0  0  0  0  0  0  0
    0.0042    0.2085   -1.6369 O   0  0  0  0  0  0  0  0  0  0  0  0
    1.2810    0.4368    1.8184 C   0  0  0  0  0  0  0  0  0  0  0  0
    0.8089    0.8108    3.2233 C   0  0  0  0  0  0  0  0  0  0  0  0
    1.8832    0.5860    4.2580 C   0  0  0  0  0  0  0  0  0  0  0  0
    2.9540    0.0415    4.0214 O   0  0  0  0  0  0  0  0  0  0  0  0
    1.5293    1.0276    5.4902 O   0  0  0  0  0  0  0  0  0  0  0  0
   -0.6087   -1.2764    1.1771 H   0  0  0  0  0  0  0  0  0  0  0  0
   -0.2087    1.6396    0.8019 H   0  0  0  0  0  0  0  0  0  0  0  0
    1.6090   -0.6113    1.8200 H   0  0  0  0  0  0  0  0  0  0  0  0
    2.1666    1.0418    1.5831 H   0  0  0  0  0  0  0  0  0  0  0  0
    0.5555    1.8776    3.2555 H   0  0  0  0  0  0  0  0  0  0  0  0
   -0.1092    0.2829    3.5010 H   0  0  0  0  0  0  0  0  0  0  0  0
    2.1935    0.8833    6.1972 H   0  0  0  0  0  0  0  0  0  0  0  0
    2.1287    0.3405   -0.7073 N   0  0  0  0  0  0  0  0  0  0  0  0
    2.8814    0.1077   -1.9189 C   0  0  2  0  0  0  0  0  0  0  0  0
    3.1994   -1.3797   -1.9964 C   0  0  0  0  0  0  0  0  0  0  0  0
    3.2180   -2.1139   -1.0107 O   0  0  0  0  0  0  0  0  0  0  0  0
    4.1550    0.9381   -1.9473 C   0  0  0  0  0  0  0  0  0  0  0  0
    2.6399    0.4974    0.1560 H   0  0  0  0  0  0  0  0  0  0  0  0
    2.2300    0.3865   -2.7544 H   0  0  0  0  0  0  0  0  0  0  0  0
    4.8203    0.6728   -1.1175 H   0  0  0  0  0  0  0  0  0  0  0  0
    4.7097    0.7821   -2.8784 H   0  0  0  0  0  0  0  0  0  0  0  0
    3.9262    2.0058   -1.8615 H   0  0  0  0  0  0  0  0  0  0  0  0
    3.5023   -1.7819   -3.2897 N   0  0  0  0  0  0  0  0  0  0  0  0
    3.8506   -3.1438   -3.6213 C   0  0  0  0  0  0  0  0  0  0  0  0
    3.4435   -1.1095   -4.0488 H   0  0  0  0  0  0  0  0  0  0  0  0
    4.9434   -3.2632   -3.5825 H   0  0  0  0  0  0  0  0  0  0  0  0
    3.3812   -3.8283   -2.8993 H   0  0  0  0  0  0  0  0  0  0  0  0
    3.4920   -3.3775   -4.6346 H   0  0  0  0  0  0  0  0  0  0  0  0
  1  3  1  0  0  0  0
  1  7  1  0  0  0  0
  1  2  2  0  0  0  0
 34 35  1  0  0  0  0
 35 43  1  0  0  0  0
 35 36  2  0  0  0  0
  8  9  1  0  0  0  0
  9 17  1  0  0  0  0
  9 10  2  0  0  0  0
 18 19  1  0  0  0  0
 19 33  1  0  0  0  0
 19 20  2  0  0  0  0
 22 23  1  0  0  0  0
 23 24  2  0  0  0  0
 23 25  1  0  0  0  0
 34 37  1  0  0  0  0
  8 11  1  0  0  0  0
 43 44  1  0  0  0  0
 21 22  1  0  0  0  0
 18 21  1  0  0  0  0
 33 34  1  0  0  0  0
  7  8  1  0  0  0  0
 17 18  1  0  0  0  0
  3  4  1  0  0  0  0
  3  5  1  0  0  0  0
  3  6  1  0  0  0  0
 37 40  1  0  0  0  0
 37 41  1  0  0  0  0
 37 42  1  0  0  0  0
 11 14  1  0  0  0  0
 11 15  1  0  0  0  0
 11 16  1  0  0  0  0
 44 46  1  0  0  0  0
 44 47  1  0  0  0  0
 44 48  1  0  0  0  0
 22 30  1  0  0  0  0
 22 31  1  0  0  0  0
 21 28  1  0  0  0  0
 21 29  1  0  0  0  0
 34 39  1  0  0  0  0
  8 13  1  0  0  0  0
 18 27  1  0  0  0  0
 43 45  1  0  0  0  0
  7 12  1  0  0  0  0
 33 38  1  0  0  0  0
 17 26  1  0  0  0  0
 25 32  1  0  0  0  0
M  END
$$$$

  -OEChem-05262214473D

 48 47  0     1  0  0  0  0  0999 V2000
   -5.5827   -1.3473    1.4591 C   0  0  0  0  0  0  0  0  0  0  0  0
   -5.7053   -2.4696    0.9825 O   0  0  0  0  0  0  0  0  0  0  0  0
   -6.7879   -0.6277    1.9670 C   0  0  0  0  0  0  0  0  0  0  0  0
   -7.2718   -0.0164    1.1885 H   0  0  0  0  0  0  0  0  0  0  0  0
   -7.5699   -1.3171    2.3239 H   0  0  0  0  0  0  0  0  0  0  0  0
   -6.6057    0.0628    2.8060 H   0  0  0  0  0  0  0  0  0  0  0  0
   -4.4001   -0.6377    1.5884 N   0  0  0  0  0  0  0  0  0  0  0  0
   -3.1220   -1.1455    1.1644 C   0  0  2  0  0  0  0  0  0  0  0  0
   -2.2017    0.0428    0.9187 C   0  0  0  0  0  0  0  0  0  0  0  0
   -2.6171    1.1750    0.6807 O   0  0  0  0  0  0  0  0  0  0  0  0
   -3.2533   -1.9992   -0.0873 C   0  0  0  0  0  0  0  0  0  0  0  0
   -4.4370    0.2910    2.0047 H   0  0  0  0  0  0  0  0  0  0  0  0
   -2.7302   -1.7467    1.9921 H   0  0  0  0  0  0  0  0  0  0  0  0
   -3.6446   -1.4140   -0.9275 H   0  0  0  0  0  0  0  0  0  0  0  0
   -2.2844   -2.4081   -0.3922 H   0  0  0  0  0  0  0  0  0  0  0  0
   -3.9388   -2.8365    0.0822 H   0  0  0  0  0  0  0  0  0  0  0  0
   -0.8768   -0.3314    0.9568 N   0  0  0  0  0  0  0  0  0  0  0  0
    0.2067    0.6285    0.7375 C   0  0  2  0  0  0  0  0  0  0  0  0
    0.7424    0.3604   -0.6656 C   0  0  0  0  0  0  0  0  0  0  0  0
    0.0453    0.4737   -1.6719 O   0  0  0  0  0  0  0  0  0  0  0  0
    1.2810    0.4368    1.8184 C   0  0  0  0  0  0  0  0  0  0  0  0
    0.8089    0.8108    3.2233 C   0  0  0  0  0  0  0  0  0  0  0  0
    1.8832    0.5860    4.2580 C   0  0  0  0  0  0  0  0  0  0  0  0
    2.9540    0.0415    4.0214 O   0  0  0  0  0  0  0  0  0  0  0  0
    1.5293    1.0276    5.4902 O   0  0  0  0  0  0  0  0  0  0  0  0
   -0.6087   -1.2764    1.1771 H   0  0  0  0  0  0  0  0  0  0  0  0
   -0.2087    1.6396    0.8019 H   0  0  0  0  0  0  0  0  0  0  0  0
    1.6090   -0.6113    1.8200 H   0  0  0  0  0  0  0  0  0  0  0  0
    2.1666    1.0418    1.5831 H   0  0  0  0  0  0  0  0  0  0  0  0
    0.5555    1.8776    3.2555 H   0  0  0  0  0  0  0  0  0  0  0  0
   -0.1092    0.2829    3.5010 H   0  0  0  0  0  0  0  0  0  0  0  0
    2.1935    0.8833    6.1972 H   0  0  0  0  0  0  0  0  0  0  0  0
    2.0849    0.0119   -0.6612 N   0  0  0  0  0  0  0  0  0  0  0  0
    2.8286   -0.2906   -1.8629 C   0  0  2  0  0  0  0  0  0  0  0  0
    2.7907   -1.7986   -2.0724 C   0  0  0  0  0  0  0  0  0  0  0  0
    2.5798   -2.5973   -1.1620 O   0  0  0  0  0  0  0  0  0  0  0  0
    4.2618    0.2090   -1.7672 C   0  0  0  0  0  0  0  0  0  0  0  0
    2.5692   -0.0330    0.2303 H   0  0  0  0  0  0  0  0  0  0  0  0
    2.3097    0.2067   -2.6896 H   0  0  0  0  0  0  0  0  0  0  0  0
    4.7977   -0.2781   -0.9444 H   0  0  0  0  0  0  0  0  0  0  0  0
    4.8157    0.0044   -2.6893 H   0  0  0  0  0  0  0  0  0  0  0  0
    4.2868    1.2891   -1.5868 H   0  0  0  0  0  0  0  0  0  0  0  0
    3.0627   -2.1499   -3.3873 N   0  0  0  0  0  0  0  0  0  0  0  0
    3.0980   -3.5221   -3.8363 C   0  0  0  0  0  0  0  0  0  0  0  0
    3.2072   -1.4208   -4.0796 H   0  0  0  0  0  0  0  0  0  0  0  0
    4.1278   -3.9033   -3.7716 H   0  0  0  0  0  0  0  0  0  0  0  0
    2.4404   -4.1329   -3.2003 H   0  0  0  0  0  0  0  0  0  0  0  0
    2.7523   -3.5755   -4.8792 H   0  0  0  0  0  0  0  0  0  0  0  0
  1  3  1  0  0  0  0
  1  7  1  0  0  0  0
  1  2  2  0  0  0  0
 34 35  1  0  0  0  0
 35 43  1  0  0  0  0
 35 36  2  0  0  0  0
  8  9  1  0  0  0  0
  9 17  1  0  0  0  0
  9 10  2  0  0  0  0
 18 19  1  0  0  0  0
 19 33  1  0  0  0  0
 19 20  2  0  0  0  0
 22 23  1  0  0  0  0
 23 24  2  0  0  0  0
 23 25  1  0  0  0  0
 34 37  1  0  0  0  0
  8 11  1  0  0  0  0
 43 44  1  0  0  0  0
 21 22  1  0  0  0  0
 18 21  1  0  0  0  0
 33 34  1  0  0  0  0
  7  8  1  0  0  0  0
 17 18  1  0  0  0  0
  3  4  1  0  0  0  0
  3  5  1  0  0  0  0
  3  6  1  0  0  0  0
 37 40  1  0  0  0  0
 37 41  1  0  0  0  0
 37 42  1  0  0  0  0
 11 14  1  0  0  0  0
 11 15  1  0  0  0  0
 11 16  1  0  0  0  0
 44 46  1  0  0  0  0
 44 47  1  0  0  0  0
 44 48  1  0  0  0  0
 22 30  1  0  0  0  0
 22 31  1  0  0  0  0
 21 28  1  0  0  0  0
 21 29  1  0  0  0  0
 34 39  1  0  0  0  0
  8 13  1  0  0  0  0
 18 27  1  0  0  0  0
 43 45  1  0  0  0  0
  7 12  1  0  0  0  0
 33 38  1  0  0  0  0
 17 26  1  0  0  0  0
 25 32  1  0  0  0  0
M  END
$$$$

  -OEChem-05262214473D

 48 47  0     1  0  0  0  0  0999 V2000
   -5.5827   -1.3473    1.4591 C   0  0  0  0  0  0  0  0  0  0  0  0
   -5.7053   -2.4696    0.9825 O   0  0  0  0  0  0  0  0  0  0  0  0
   -6.7879   -0.6277    1.9670 C   0  0  0  0  0  0  0  0  0  0  0  0
   -7.2718   -0.0164    1.1885 H   0  0  0  0  0  0  0  0  0  0  0  0
   -7.5699   -1.3171    2.3239 H   0  0  0  0  0  0  0  0  0  0  0  0
   -6.6057    0.0628    2.8060 H   0  0  0  0  0  0  0  0  0  0  0  0
   -4.4001   -0.6377    1.5884 N   0  0  0  0  0  0  0  0  0  0  0  0
   -3.1220   -1.1455    1.1644 C   0  0  2  0  0  0  0  0  0  0  0  0
   -2.2017    0.0428    0.9187 C   0  0  0  0  0  0  0  0  0  0  0  0
   -2.6171    1.1750    0.6807 O   0  0  0  0  0  0  0  0  0  0  0  0
   -3.2533   -1.9992   -0.0873 C   0  0  0  0  0  0  0  0  0  0  0  0
   -4.4370    0.2910    2.0047 H   0  0  0  0  0  0  0  0  0  0  0  0
   -2.7302   -1.7467    1.9921 H   0  0  0  0  0  0  0  0  0  0  0  0
   -3.6446   -1.4140   -0.9275 H   0  0  0  0  0  0  0  0  0  0  0  0
   -2.2844   -2.4081   -0.3922 H   0  0  0  0  0  0  0  0  0  0  0  0
   -3.9388   -2.8365    0.0822 H   0  0  0  0  0  0  0  0  0  0  0  0
   -0.8768   -0.3314    0.9568 N   0  0  0  0  0  0  0  0  0  0  0  0
    0.2067    0.6285    0.7375 C   0  0  2  0  0  0  0  0  0  0  0  0
    0.7424    0.3604   -0.6656 C   0  0  0  0  0  0  0  0  0  0  0  0
    0.1497    0.7233   -1.6797 O   0  0  0  0  0  0  0  0  0  0  0  0
    1.2810    0.4368    1.8184 C   0  0  0  0  0  0  0  0  0  0  0  0
    0.8089    0.8108    3.2233 C   0  0  0  0  0  0  0  0  0  0  0  0
    1.8832    0.5860    4.2580 C   0  0  0  0  0  0  0  0  0  0  0  0
    2.9540    0.0415    4.0214 O   0  0  0  0  0  0  0  0  0  0  0  0
    1.5293    1.0276    5.4902 O   0  0  0  0  0  0  0  0  0  0  0  0
   -0.6087   -1.2764    1.1771 H   0  0  0  0  0  0  0  0  0  0  0  0
   -0.2087    1.6396    0.8019 H   0  0  0  0  0  0  0  0  0  0  0  0
    1.6090   -0.6113    1.8200 H   0  0  0  0  0  0  0  0  0  0  0  0
    2.1666    1.0418    1.5831 H   0  0  0  0  0  0  0  0  0  0  0  0
    0.5555    1.8776    3.2555 H   0  0  0  0  0  0  0  0  0  0  0  0
   -0.1092    0.2829    3.5010 H   0  0  0  0  0  0  0  0  0  0  0  0
    2.1935    0.8833    6.1972 H   0  0  0  0  0  0  0  0  0  0  0  0
    1.9624   -0.2994   -0.6485 N   0  0  0  0  0  0  0  0  0  0  0  0
    2.6804   -0.6679   -1.8474 C   0  0  2  0  0  0  0  0  0  0  0  0
    2.2996   -2.0991   -2.2025 C   0  0  0  0  0  0  0  0  0  0  0  0
    1.8552   -2.8984   -1.3811 O   0  0  0  0  0  0  0  0  0  0  0  0
    4.1832   -0.5371   -1.6546 C   0  0  0  0  0  0  0  0  0  0  0  0
    2.3712   -0.5351    0.2507 H   0  0  0  0  0  0  0  0  0  0  0  0
    2.3410    0.0082   -2.6397 H   0  0  0  0  0  0  0  0  0  0  0  0
    4.5417   -1.2071   -0.8646 H   0  0  0  0  0  0  0  0  0  0  0  0
    4.7244   -0.7892   -2.5725 H   0  0  0  0  0  0  0  0  0  0  0  0
    4.4521    0.4859   -1.3702 H   0  0  0  0  0  0  0  0  0  0  0  0
    2.5549   -2.3918   -3.5349 N   0  0  0  0  0  0  0  0  0  0  0  0
    2.2908   -3.6889   -4.1127 C   0  0  0  0  0  0  0  0  0  0  0  0
    2.9062   -1.6624   -4.1483 H   0  0  0  0  0  0  0  0  0  0  0  0
    3.1962   -4.3103   -4.0495 H   0  0  0  0  0  0  0  0  0  0  0  0
    1.4728   -4.1759   -3.5616 H   0  0  0  0  0  0  0  0  0  0  0  0
    2.0017   -3.5684   -5.1672 H   0  0  0  0  0  0  0  0  0  0  0  0
  1  3  1  0  0  0  0
  1  7  1  0  0  0  0
  1  2  2  0  0  0  0
 34 35  1  0  0  0  0
 35 43  1  0  0  0  0
 35 36  2  0  0  0  0
  8  9  1  0  0  0  0
  9 17  1  0  0  0  0
  9 10  2  0  0  0  0
 18 19  1  0  0  0  0
 19 33  1  0  0  0  0
 19 20  2  0  0  0  0
 22 23  1  0  0  0  0
 23 24  2  0  0  0  0
 23 25  1  0  0  0  0
 34 37  1  0  0  0  0
  8 11  1  0  0  0  0
 43 44  1  0  0  0  0
 21 22  1  0  0  0  0
 18 21  1  0  0  0  0
 33 34  1  0  0  0  0
  7  8  1  0  0  0  0
 17 18  1  0  0  0  0
  3  4  1  0  0  0  0
  3  5  1  0  0  0  0
  3  6  1  0  0  0  0
 37 40  1  0  0  0  0
 37 41  1  0  0  0  0
 37 42  1  0  0  0  0
 11 14  1  0  0  0  0
 11 15  1  0  0  0  0
 11 16  1  0  0  0  0
 44 46  1  0  0  0  0
 44 47  1  0  0  0  0
 44 48  1  0  0  0  0
 22 30  1  0  0  0  0
 22 31  1  0  0  0  0
 21 28  1  0  0  0  0
 21 29  1  0  0  0  0
 34 39  1  0  0  0  0
  8 13  1  0  0  0  0
 18 27  1  0  0  0  0
 43 45  1  0  0  0  0
  7 12  1  0  0  0  0
 33 38  1  0  0  0  0
 17 26  1  0  0  0  0
 25 32  1  0  0  0  0
M  END
$$$$

  -OEChem-05262214473D

 48 47  0     1  0  0  0  0  0999 V2000
   -5.5827   -1.3473    1.4591 C   0  0  0  0  0  0  0  0  0  0  0  0
   -5.7053   -2.4696    0.9825 O   0  0  0  0  0  0  0  0  0  0  0  0
   -6.7879   -0.6277    1.9670 C   0  0  0  0  0  0  0  0  0  0  0  0
   -7.2718   -0.0164    1.1885 H   0  0  0  0  0  0  0  0  0  0  0  0
   -7.5699   -1.3171    2.3239 H   0  0  0  0  0  0  0  0  0  0  0  0
   -6.6057    0.0628    2.8060 H   0  0  0  0  0  0  0  0  0  0  0  0
   -4.4001   -0.6377    1.5884 N   0  0  0  0  0  0  0  0  0  0  0  0
   -3.1220   -1.1455    1.1644 C   0  0  2  0  0  0  0  0  0  0  0  0
   -2.2017    0.0428    0.9187 C   0  0  0  0  0  0  0  0  0  0  0  0
   -2.6171    1.1750    0.6807 O   0  0  0  0  0  0  0  0  0  0  0  0
   -3.2533   -1.9992   -0.0873 C   0  0  0  0  0  0  0  0  0  0  0  0
   -4.4370    0.2910    2.0047 H   0  0  0  0  0  0  0  0  0  0  0  0
   -2.7302   -1.7467    1.9921 H   0  0  0  0  0  0  0  0  0  0  0  0
   -3.6446   -1.4140   -0.9275 H   0  0  0  0  0  0  0  0  0  0  0  0
   -2.2844   -2.4081   -0.3922 H   0  0  0  0  0  0  0  0  0  0  0  0
   -3.9388   -2.8365    0.0822 H   0  0  0  0  0  0  0  0  0  0  0  0
   -0.8768   -0.3314    0.9568 N   0  0  0  0  0  0  0  0  0  0  0  0
    0.2067    0.6285    0.7375 C   0  0  2  0  0  0  0  0  0  0  0  0
    0.7424    0.3604   -0.6656 C   0  0  0  0  0  0  0  0  0  0  0  0
    0.3103    0.9402   -1.6599 O   0  0  0  0  0  0  0  0  0  0  0  0
    1.2810    0.4368    1.8184 C   0  0  0  0  0  0  0  0  0  0  0  0
    0.8089    0.8108    3.2233 C   0  0  0  0  0  0  0  0  0  0  0  0
    1.8832    0.5860    4.2580 C   0  0  0  0  0  0  0  0  0  0  0  0
    2.9540    0.0415    4.0214 O   0  0  0  0  0  0  0  0  0  0  0  0
    1.5293    1.0276    5.4902 O   0  0  0  0  0  0  0  0  0  0  0  0
   -0.6087   -1.2764    1.1771 H   0  0  0  0  0  0  0  0  0  0  0  0
   -0.2087    1.6396    0.8019 H   0  0  0  0  0  0  0  0  0  0  0  0
    1.6090   -0.6113    1.8200 H   0  0  0  0  0  0  0  0  0  0  0  0
    2.1666    1.0418    1.5831 H   0  0  0  0  0  0  0  0  0  0  0  0
    0.5555    1.8776    3.2555 H   0  0  0  0  0  0  0  0  0  0  0  0
   -0.1092    0.2829    3.5010 H   0  0  0  0  0  0  0  0  0  0  0  0
    2.1935    0.8833    6.1972 H   0  0  0  0  0  0  0  0  0  0  0  0
    1.7693   -0.5720   -0.6701 N   0  0  0  0  0  0  0  0  0  0  0  0
    2.4467   -0.9984   -1.8735 C   0  0  2  0  0  0  0  0  0  0  0  0
    1.7597   -2.2606   -2.3778 C   0  0  0  0  0  0  0  0  0  0  0  0
    1.0935   -2.9969   -1.6531 O   0  0  0  0  0  0  0  0  0  0  0  0
    3.9245   -1.2493   -1.6173 C   0  0  0  0  0  0  0  0  0  0  0  0
    2.0595   -0.9749    0.2158 H   0  0  0  0  0  0  0  0  0  0  0  0
    2.3217   -0.1955   -2.6082 H   0  0  0  0  0  0  0  0  0  0  0  0
    4.0697   -2.0507   -0.8836 H   0  0  0  0  0  0  0  0  0  0  0  0
    4.4420   -1.5446   -2.5360 H   0  0  0  0  0  0  0  0  0  0  0  0
    4.4107   -0.3489   -1.2264 H   0  0  0  0  0  0  0  0  0  0  0  0
    2.0136   -2.4912   -3.7226 N   0  0  0  0  0  0  0  0  0  0  0  0
    1.4839   -3.6327   -4.4315 C   0  0  0  0  0  0  0  0  0  0  0  0
    2.5611   -1.8178   -4.2504 H   0  0  0  0  0  0  0  0  0  0  0  0
    2.2121   -4.4564   -4.3973 H   0  0  0  0  0  0  0  0  0  0  0  0
    0.5443   -3.9542   -3.9584 H   0  0  0  0  0  0  0  0  0  0  0  0
    1.2915   -3.3568   -5.4788 H   0  0  0  0  0  0  0  0  0  0  0  0
  1  3  1  0  0  0  0
  1  7  1  0  0  0  0
  1  2  2  0  0  0  0
 34 35  1  0  0  0  0
 35 43  1  0  0  0  0
 35 36  2  0  0  0  0
  8  9  1  0  0  0  0
  9 17  1  0  0  0  0
  9 10  2  0  0  0  0
 18 19  1  0  0  0  0
 19 33  1  0  0  0  0
 19 20  2  0  0  0  0
 22 23  1  0  0  0  0
 23 24  2  0  0  0  0
 23 25  1  0  0  0  0
 34 37  1  0  0  0  0
  8 11  1  0  0  0  0
 43 44  1  0  0  0  0
 21 22  1  0  0  0  0
 18 21  1  0  0  0  0
 33 34  1  0  0  0  0
  7  8  1  0  0  0  0
 17 18  1  0  0  0  0
  3  4  1  0  0  0  0
  3  5  1  0  0  0  0
  3  6  1  0  0  0  0
 37 40  1  0  0  0  0
 37 41  1  0  0  0  0
 37 42  1  0  0  0  0
 11 14  1  0  0  0  0
 11 15  1  0  0  0  0
 11 16  1  0  0  0  0
 44 46  1  0  0  0  0
 44 47  1  0  0  0  0
 44 48  1  0  0  0  0
 22 30  1  0  0  0  0
 22 31  1  0  0  0  0
 21 28  1  0  0  0  0
 21 29  1  0  0  0  0
 34 39  1  0  0  0  0
  8 13  1  0  0  0  0
 18 27  1  0  0  0  0
 43 45  1  0  0  0  0
  7 12  1  0  0  0  0
 33 38  1  0  0  0  0
 17 26  1  0  0  0  0
 25 32  1  0  0  0  0
M  END
$$$$

  -OEChem-05262214473D

 48 47  0     1  0  0  0  0  0999 V2000
   -5.5827   -1.3473    1.4591 C   0  0  0  0  0  0  0  0  0  0  0  0
   -5.7053   -2.4696    0.9825 O   0  0  0  0  0  0  0  0  0  0  0  0
   -6.7879   -0.6277    1.9670 C   0  0  0  0  0  0  0  0  0  0  0  0
   -7.2718   -0.0164    1.1885 H   0  0  0  0  0  0  0  0  0  0  0  0
   -7.5699   -1.3171    2.3239 H   0  0  0  0  0  0  0  0  0  0  0  0
   -6.6057    0.0628    2.8060 H   0  0  0  0  0  0  0  0  0  0  0  0
   -4.4001   -0.6377    1.5884 N   0  0  0  0  0  0  0  0  0  0  0  0
   -3.1220   -1.1455    1.1644 C   0  0  2  0  0  0  0  0  0  0  0  0
   -2.2017    0.0428    0.9187 C   0  0  0  0  0  0  0  0  0  0  0  0
   -2.6171    1.1750    0.6807 O   0  0  0  0  0  0  0  0  0  0  0  0
   -3.2533   -1.9992   -0.0873 C   0  0  0  0  0  0  0  0  0  0  0  0
   -4.4370    0.2910    2.0047 H   0  0  0  0  0  0  0  0  0  0  0  0
   -2.7302   -1.7467    1.9921 H   0  0  0  0  0  0  0  0  0  0  0  0
   -3.6446   -1.4140   -0.9275 H   0  0  0  0  0  0  0  0  0  0  0  0
   -2.2844   -2.4081   -0.3922 H   0  0  0  0  0  0  0  0  0  0  0  0
   -3.9388   -2.8365    0.0822 H   0  0  0  0  0  0  0  0  0  0  0  0
   -0.8768   -0.3314    0.9568 N   0  0  0  0  0  0  0  0  0  0  0  0
    0.2067    0.6285    0.7375 C   0  0  2  0  0  0  0  0  0  0  0  0
    0.7424    0.3604   -0.6656 C   0  0  0  0  0  0  0  0  0  0  0  0
    0.5162    1.1097   -1.6137 O   0  0  0  0  0  0  0  0  0  0  0  0
    1.2810    0.4368    1.8184 C   0  0  0  0  0  0  0  0  0  0  0  0
    0.8089    0.8108    3.2233 C   0  0  0  0  0  0  0  0  0  0  0  0
    1.8832    0.5860    4.2580 C   0  0  0  0  0  0  0  0  0  0  0  0
    2.9540    0.0415    4.0214 O   0  0  0  0  0  0  0  0  0  0  0  0
    1.5293    1.0276    5.4902 O   0  0  0  0  0  0  0  0  0  0  0  0
   -0.6087   -1.2764    1.1771 H   0  0  0  0  0  0  0  0  0  0  0  0
   -0.2087    1.6396    0.8019 H   0  0  0  0  0  0  0  0  0  0  0  0
    1.6090   -0.6113    1.8200 H   0  0  0  0  0  0  0  0  0  0  0  0
    2.1666    1.0418    1.5831 H   0  0  0  0  0  0  0  0  0  0  0  0
    0.5555    1.8776    3.2555 H   0  0  0  0  0  0  0  0  0  0  0  0
   -0.1092    0.2829    3.5010 H   0  0  0  0  0  0  0  0  0  0  0  0
    2.1935    0.8833    6.1972 H   0  0  0  0  0  0  0  0  0  0  0  0
    1.5189   -0.7874   -0.7246 N   0  0  0  0  0  0  0  0  0  0  0  0
    2.1434   -1.2597   -1.9394 C   0  0  2  0  0  0  0  0  0  0  0  0
    1.2076   -2.2722   -2.5864 C   0  0  0  0  0  0  0  0  0  0  0  0
    0.3468   -2.8861   -1.9594 O   0  0  0  0  0  0  0  0  0  0  0  0
    3.5035   -1.8790   -1.6577 C   0  0  0  0  0  0  0  0  0  0  0  0
    1.6553   -1.3223    0.1278 H   0  0  0  0  0  0  0  0  0  0  0  0
    2.2531   -0.3905   -2.5971 H   0  0  0  0  0  0  0  0  0  0  0  0
    3.4137   -2.7514   -1.0001 H   0  0  0  0  0  0  0  0  0  0  0  0
    3.9877   -2.2104   -2.5822 H   0  0  0  0  0  0  0  0  0  0  0  0
    4.1654   -1.1585   -1.1653 H   0  0  0  0  0  0  0  0  0  0  0  0
    1.4756   -2.4413   -3.9376 N   0  0  0  0  0  0  0  0  0  0  0  0
    0.7325   -3.3574   -4.7710 C   0  0  0  0  0  0  0  0  0  0  0  0
    2.1954   -1.8766   -4.3788 H   0  0  0  0  0  0  0  0  0  0  0  0
    1.2427   -4.3317   -4.7913 H   0  0  0  0  0  0  0  0  0  0  0  0
   -0.2817   -3.4831   -4.3638 H   0  0  0  0  0  0  0  0  0  0  0  0
    0.6700   -2.9550   -5.7929 H   0  0  0  0  0  0  0  0  0  0  0  0
  1  3  1  0  0  0  0
  1  7  1  0  0  0  0
  1  2  2  0  0  0  0
 34 35  1  0  0  0  0
 35 43  1  0  0  0  0
 35 36  2  0  0  0  0
  8  9  1  0  0  0  0
  9 17  1  0  0  0  0
  9 10  2  0  0  0  0
 18 19  1  0  0  0  0
 19 33  1  0  0  0  0
 19 20  2  0  0  0  0
 22 23  1  0  0  0  0
 23 24  2  0  0  0  0
 23 25  1  0  0  0  0
 34 37  1  0  0  0  0
  8 11  1  0  0  0  0
 43 44  1  0  0  0  0
 21 22  1  0  0  0  0
 18 21  1  0  0  0  0
 33 34  1  0  0  0  0
  7  8  1  0  0  0  0
 17 18  1  0  0  0  0
  3  4  1  0  0  0  0
  3  5  1  0  0  0  0
  3  6  1  0  0  0  0
 37 40  1  0  0  0  0
 37 41  1  0  0  0  0
 37 42  1  0  0  0  0
 11 14  1  0  0  0  0
 11 15  1  0  0  0  0
 11 16  1  0  0  0  0
 44 46  1  0  0  0  0
 44 47  1  0  0  0  0
 44 48  1  0  0  0  0
 22 30  1  0  0  0  0
 22 31  1  0  0  0  0
 21 28  1  0  0  0  0
 21 29  1  0  0  0  0
 34 39  1  0  0  0  0
  8 13  1  0  0  0  0
 18 27  1  0  0  0  0
 43 45  1  0  0  0  0
  7 12  1  0  0  0  0
 33 38  1  0  0  0  0
 17 26  1  0  0  0  0
 25 32  1  0  0  0  0
M  END
$$$$

  -OEChem-05262214473D

 48 47  0     1  0  0  0  0  0999 V2000
   -5.5827   -1.3473    1.4591 C   0  0  0  0  0  0  0  0  0  0  0  0
   -5.7053   -2.4696    0.9825 O   0  0  0  0  0  0  0  0  0  0  0  0
   -6.7879   -0.6277    1.9670 C   0  0  0  0  0  0  0  0  0  0  0  0
   -7.2718   -0.0164    1.1885 H   0  0  0  0  0  0  0  0  0  0  0  0
   -7.5699   -1.3171    2.3239 H   0  0  0  0  0  0  0  0  0  0  0  0
   -6.6057    0.0628    2.8060 H   0  0  0  0  0  0  0  0  0  0  0  0
   -4.4001   -0.6377    1.5884 N   0  0  0  0  0  0  0  0  0  0  0  0
   -3.1220   -1.1455    1.1644 C   0  0  2  0  0  0  0  0  0  0  0  0
   -2.2017    0.0428    0.9187 C   0  0  0  0  0  0  0  0  0  0  0  0
   -2.6171    1.1750    0.6807 O   0  0  0  0  0  0  0  0  0  0  0  0
   -3.2533   -1.9992   -0.0873 C   0  0  0  0  0  0  0  0  0  0  0  0
   -4.4370    0.2910    2.0047 H   0  0  0  0  0  0  0  0  0  0  0  0
   -2.7302   -1.7467    1.9921 H   0  0  0  0  0  0  0  0  0  0  0  0
   -3.6446   -1.4140   -0.9275 H   0  0  0  0  0  0  0  0  0  0  0  0
   -2.2844   -2.4081   -0.3922 H   0  0  0  0  0  0  0  0  0  0  0  0
   -3.9388   -2.8365    0.0822 H   0  0  0  0  0  0  0  0  0  0  0  0
   -0.8768   -0.3314    0.9568 N   0  0  0  0  0  0  0  0  0  0  0  0
    0.2067    0.6285    0.7375 C   0  0  2  0  0  0  0  0  0  0  0  0
    0.7424    0.3604   -0.6656 C   0  0  0  0  0  0  0  0  0  0  0  0
    0.7533    1.2202   -1.5443 O   0  0  0  0  0  0  0  0  0  0  0  0
    1.2810    0.4368    1.8184 C   0  0  0  0  0  0  0  0  0  0  0  0
    0.8089    0.8108    3.2233 C   0  0  0  0  0  0  0  0  0  0  0  0
    1.8832    0.5860    4.2580 C   0  0  0  0  0  0  0  0  0  0  0  0
    2.9540    0.0415    4.0214 O   0  0  0  0  0  0  0  0  0  0  0  0
    1.5293    1.0276    5.4902 O   0  0  0  0  0  0  0  0  0  0  0  0
   -0.6087   -1.2764    1.1771 H   0  0  0  0  0  0  0  0  0  0  0  0
   -0.2087    1.6396    0.8019 H   0  0  0  0  0  0  0  0  0  0  0  0
    1.6090   -0.6113    1.8200 H   0  0  0  0  0  0  0  0  0  0  0  0
    2.1666    1.0418    1.5831 H   0  0  0  0  0  0  0  0  0  0  0  0
    0.5555    1.8776    3.2555 H   0  0  0  0  0  0  0  0  0  0  0  0
   -0.1092    0.2829    3.5010 H   0  0  0  0  0  0  0  0  0  0  0  0
    2.1935    0.8833    6.1972 H   0  0  0  0  0  0  0  0  0  0  0  0
    1.2282   -0.9310   -0.8081 N   0  0  0  0  0  0  0  0  0  0  0  0
    1.7913   -1.4338   -2.0405 C   0  0  2  0  0  0  0  0  0  0  0  0
    0.6812   -2.1330   -2.8140 C   0  0  0  0  0  0  0  0  0  0  0  0
   -0.3343   -2.5734   -2.2792 O   0  0  0  0  0  0  0  0  0  0  0  0
    2.9487   -2.3834   -1.7731 C   0  0  0  0  0  0  0  0  0  0  0  0
    1.1862   -1.5537   -0.0070 H   0  0  0  0  0  0  0  0  0  0  0  0
    2.1399   -0.5636   -2.6072 H   0  0  0  0  0  0  0  0  0  0  0  0
    2.6187   -3.2616   -1.2062 H   0  0  0  0  0  0  0  0  0  0  0  0
    3.3925   -2.7412   -2.7080 H   0  0  0  0  0  0  0  0  0  0  0  0
    3.7331   -1.8876   -1.1911 H   0  0  0  0  0  0  0  0  0  0  0  0
    0.9775   -2.2455   -4.1652 N   0  0  0  0  0  0  0  0  0  0  0  0
    0.0876   -2.8817   -5.1081 C   0  0  0  0  0  0  0  0  0  0  0  0
    1.8340   -1.8346   -4.5248 H   0  0  0  0  0  0  0  0  0  0  0  0
    0.3538   -3.9447   -5.2047 H   0  0  0  0  0  0  0  0  0  0  0  0
   -0.9489   -2.7945   -4.7502 H   0  0  0  0  0  0  0  0  0  0  0  0
    0.1797   -2.3904   -6.0880 H   0  0  0  0  0  0  0  0  0  0  0  0
  1  3  1  0  0  0  0
  1  7  1  0  0  0  0
  1  2  2  0  0  0  0
 34 35  1  0  0  0  0
 35 43  1  0  0  0  0
 35 36  2  0  0  0  0
  8  9  1  0  0  0  0
  9 17  1  0  0  0  0
  9 10  2  0  0  0  0
 18 19  1  0  0  0  0
 19 33  1  0  0  0  0
 19 20  2  0  0  0  0
 22 23  1  0  0  0  0
 23 24  2  0  0  0  0
 23 25  1  0  0  0  0
 34 37  1  0  0  0  0
  8 11  1  0  0  0  0
 43 44  1  0  0  0  0
 21 22  1  0  0  0  0
 18 21  1  0  0  0  0
 33 34  1  0  0  0  0
  7  8  1  0  0  0  0
 17 18  1  0  0  0  0
  3  4  1  0  0  0  0
  3  5  1  0  0  0  0
  3  6  1  0  0  0  0
 37 40  1  0  0  0  0
 37 41  1  0  0  0  0
 37 42  1  0  0  0  0
 11 14  1  0  0  0  0
 11 15  1  0  0  0  0
 11 16  1  0  0  0  0
 44 46  1  0  0  0  0
 44 47  1  0  0  0  0
 44 48  1  0  0  0  0
 22 30  1  0  0  0  0
 22 31  1  0  0  0  0
 21 28  1  0  0  0  0
 21 29  1  0  0  0  0
 34 39  1  0  0  0  0
  8 13  1  0  0  0  0
 18 27  1  0  0  0  0
 43 45  1  0  0  0  0
  7 12  1  0  0  0  0
 33 38  1  0  0  0  0
 17 26  1  0  0  0  0
 25 32  1  0  0  0  0
M  END
$$$$

  -OEChem-05262214473D

 48 47  0     1  0  0  0  0  0999 V2000
   -5.5827   -1.3473    1.4591 C   0  0  0  0  0  0  0  0  0  0  0  0
   -5.7053   -2.4696    0.9825 O   0  0  0  0  0  0  0  0  0  0  0  0
   -6.7879   -0.6277    1.9670 C   0  0  0  0  0  0  0  0  0  0  0  0
   -7.2718   -0.0164    1.1885 H   0  0  0  0  0  0  0  0  0  0  0  0
   -7.5699   -1.3171    2.3239 H   0  0  0  0  0  0  0  0  0  0  0  0
   -6.6057    0.0628    2.8060 H   0  0  0  0  0  0  0  0  0  0  0  0
   -4.4001   -0.6377    1.5884 N   0  0  0  0  0  0  0  0  0  0  0  0
   -3.1220   -1.1455    1.1644 C   0  0  2  0  0  0  0  0  0  0  0  0
   -2.2017    0.0428    0.9187 C   0  0  0  0  0  0  0  0  0  0  0  0
   -2.6171    1.1750    0.6807 O   0  0  0  0  0  0  0  0  0  0  0  0
   -3.2533   -1.9992   -0.0873 C   0  0  0  0  0  0  0  0  0  0  0  0
   -4.4370    0.2910    2.0047 H   0  0  0  0  0  0  0  0  0  0  0  0
   -2.7302   -1.7467    1.9921 H   0  0  0  0  0  0  0  0  0  0  0  0
   -3.6446   -1.4140   -0.9275 H   0  0  0  0  0  0  0  0  0  0  0  0
   -2.2844   -2.4081   -0.3922 H   0  0  0  0  0  0  0  0  0  0  0  0
   -3.9388   -2.8365    0.0822 H   0  0  0  0  0  0  0  0  0  0  0  0
   -0.8768   -0.3314    0.9568 N   0  0  0  0  0  0  0  0  0  0  0  0
    0.2067    0.6285    0.7375 C   0  0  2  0  0  0  0  0  0  0  0  0
    0.7424    0.3604   -0.6656 C   0  0  0  0  0  0  0  0  0  0  0  0
    1.0055    1.2642   -1.4564 O   0  0  0  0  0  0  0  0  0  0  0  0
    1.2810    0.4368    1.8184 C   0  0  0  0  0  0  0  0  0  0  0  0
    0.8089    0.8108    3.2233 C   0  0  0  0  0  0  0  0  0  0  0  0
    1.8832    0.5860    4.2580 C   0  0  0  0  0  0  0  0  0  0  0  0
    2.9540    0.0415    4.0214 O   0  0  0  0  0  0  0  0  0  0  0  0
    1.5293    1.0276    5.4902 O   0  0  0  0  0  0  0  0  0  0  0  0
   -0.6087   -1.2764    1.1771 H   0  0  0  0  0  0  0  0  0  0  0  0
   -0.2087    1.6396    0.8019 H   0  0  0  0  0  0  0  0  0  0  0  0
    1.6090   -0.6113    1.8200 H   0  0  0  0  0  0  0  0  0  0  0  0
    2.1666    1.0418    1.5831 H   0  0  0  0  0  0  0  0  0  0  0  0
    0.5555    1.8776    3.2555 H   0  0  0  0  0  0  0  0  0  0  0  0
   -0.1092    0.2829    3.5010 H   0  0  0  0  0  0  0  0  0  0  0  0
    2.1935    0.8833    6.1972 H   0  0  0  0  0  0  0  0  0  0  0  0
    0.9171   -0.9928   -0.9151 N   0  0  0  0  0  0  0  0  0  0  0  0
    1.4144   -1.5091   -2.1700 C   0  0  2  0  0  0  0  0  0  0  0  0
    0.2161   -1.8525   -3.0451 C   0  0  0  0  0  0  0  0  0  0  0  0
   -0.9031   -2.0802   -2.5907 O   0  0  0  0  0  0  0  0  0  0  0  0
    2.2980   -2.7281   -1.9557 C   0  0  0  0  0  0  0  0  0  0  0  0
    0.6841   -1.6533   -0.1797 H   0  0  0  0  0  0  0  0  0  0  0  0
    1.9899   -0.7029   -2.6379 H   0  0  0  0  0  0  0  0  0  0  0  0
    1.7387   -3.5464   -1.4878 H   0  0  0  0  0  0  0  0  0  0  0  0
    2.6970   -3.1008   -2.9048 H   0  0  0  0  0  0  0  0  0  0  0  0
    3.1431   -2.4867   -1.3019 H   0  0  0  0  0  0  0  0  0  0  0  0
    0.5534   -1.9172   -4.3898 N   0  0  0  0  0  0  0  0  0  0  0  0
   -0.4068   -2.2382   -5.4199 C   0  0  0  0  0  0  0  0  0  0  0  0
    1.5016   -1.6948   -4.6784 H   0  0  0  0  0  0  0  0  0  0  0  0
   -0.3938   -3.3217   -5.6092 H   0  0  0  0  0  0  0  0  0  0  0  0
   -1.4119   -1.9355   -5.0912 H   0  0  0  0  0  0  0  0  0  0  0  0
   -0.1461   -1.7015   -6.3440 H   0  0  0  0  0  0  0  0  0  0  0  0
  1  3  1  0  0  0  0
  1  7  1  0  0  0  0
  1  2  2  0  0  0  0
 34 35  1  0  0  0  0
 35 43  1  0  0  0  0
 35 36  2  0  0  0  0
  8  9  1  0  0  0  0
  9 17  1  0  0  0  0
  9 10  2  0  0  0  0
 18 19  1  0  0  0  0
 19 33  1  0  0  0  0
 19 20  2  0  0  0  0
 22 23  1  0  0  0  0
 23 24  2  0  0  0  0
 23 25  1  0  0  0  0
 34 37  1  0  0  0  0
  8 11  1  0  0  0  0
 43 44  1  0  0  0  0
 21 22  1  0  0  0  0
 18 21  1  0  0  0  0
 33 34  1  0  0  0  0
  7  8  1  0  0  0  0
 17 18  1  0  0  0  0
  3  4  1  0  0  0  0
  3  5  1  0  0  0  0
  3  6  1  0  0  0  0
 37 40  1  0  0  0  0
 37 41  1  0  0  0  0
 37 42  1  0  0  0  0
 11 14  1  0  0  0  0
 11 15  1  0  0  0  0
 11 16  1  0  0  0  0
 44 46  1  0  0  0  0
 44 47  1  0  0  0  0
 44 48  1  0  0  0  0
 22 30  1  0  0  0  0
 22 31  1  0  0  0  0
 21 28  1  0  0  0  0
 21 29  1  0  0  0  0
 34 39  1  0  0  0  0
  8 13  1  0  0  0  0
 18 27  1  0  0  0  0
 43 45  1  0  0  0  0
  7 12  1  0  0  0  0
 33 38  1  0  0  0  0
 17 26  1  0  0  0  0
 25 32  1  0  0  0  0
M  END
$$$$

  -OEChem-05262214473D

 48 47  0     1  0  0  0  0  0999 V2000
   -5.5827   -1.3473    1.4591 C   0  0  0  0  0  0  0  0  0  0  0  0
   -5.7053   -2.4696    0.9825 O   0  0  0  0  0  0  0  0  0  0  0  0
   -6.7879   -0.6277    1.9670 C   0  0  0  0  0  0  0  0  0  0  0  0
   -7.2718   -0.0164    1.1885 H   0  0  0  0  0  0  0  0  0  0  0  0
   -7.5699   -1.3171    2.3239 H   0  0  0  0  0  0  0  0  0  0  0  0
   -6.6057    0.0628    2.8060 H   0  0  0  0  0  0  0  0  0  0  0  0
   -4.4001   -0.6377    1.5884 N   0  0  0  0  0  0  0  0  0  0  0  0
   -3.1220   -1.1455    1.1644 C   0  0  2  0  0  0  0  0  0  0  0  0
   -2.2017    0.0428    0.9187 C   0  0  0  0  0  0  0  0  0  0  0  0
   -2.6171    1.1750    0.6807 O   0  0  0  0  0  0  0  0  0  0  0  0
   -3.2533   -1.9992   -0.0873 C   0  0  0  0  0  0  0  0  0  0  0  0
   -4.4370    0.2910    2.0047 H   0  0  0  0  0  0  0  0  0  0  0  0
   -2.7302   -1.7467    1.9921 H   0  0  0  0  0  0  0  0  0  0  0  0
   -3.6446   -1.4140   -0.9275 H   0  0  0  0  0  0  0  0  0  0  0  0
   -2.2844   -2.4081   -0.3922 H   0  0  0  0  0  0  0  0  0  0  0  0
   -3.9388   -2.8365    0.0822 H   0  0  0  0  0  0  0  0  0  0  0  0
   -0.8768   -0.3314    0.9568 N   0  0  0  0  0  0  0  0  0  0  0  0
    0.2067    0.6285    0.7375 C   0  0  2  0  0  0  0  0  0  0  0  0
    0.7424    0.3604   -0.6656 C   0  0  0  0  0  0  0  0  0  0  0  0
    1.2555    1.2387   -1.3560 O   0  0  0  0  0  0  0  0  0  0  0  0
    1.2810    0.4368    1.8184 C   0  0  0  0  0  0  0  0  0  0  0  0
    0.8089    0.8108    3.2233 C   0  0  0  0  0  0  0  0  0  0  0  0
    1.8832    0.5860    4.2580 C   0  0  0  0  0  0  0  0  0  0  0  0
    2.9540    0.0415    4.0214 O   0  0  0  0  0  0  0  0  0  0  0  0
    1.5293    1.0276    5.4902 O   0  0  0  0  0  0  0  0  0  0  0  0
   -0.6087   -1.2764    1.1771 H   0  0  0  0  0  0  0  0  0  0  0  0
   -0.2087    1.6396    0.8019 H   0  0  0  0  0  0  0  0  0  0  0  0
    1.6090   -0.6113    1.8200 H   0  0  0  0  0  0  0  0  0  0  0  0
    2.1666    1.0418    1.5831 H   0  0  0  0  0  0  0  0  0  0  0  0
    0.5555    1.8776    3.2555 H   0  0  0  0  0  0  0  0  0  0  0  0
   -0.1092    0.2829    3.5010 H   0  0  0  0  0  0  0  0  0  0  0  0
    2.1935    0.8833    6.1972 H   0  0  0  0  0  0  0  0  0  0  0  0
    0.6067   -0.9688   -1.0382 N   0  0  0  0  0  0  0  0  0  0  0  0
    1.0382   -1.4803   -2.3192 C   0  0  2  0  0  0  0  0  0  0  0  0
   -0.1558   -1.4499   -3.2641 C   0  0  0  0  0  0  0  0  0  0  0  0
   -1.3210   -1.4402   -2.8726 O   0  0  0  0  0  0  0  0  0  0  0  0
    1.5958   -2.8895   -2.1929 C   0  0  0  0  0  0  0  0  0  0  0  0
    0.1834   -1.6143   -0.3784 H   0  0  0  0  0  0  0  0  0  0  0  0
    1.8132   -0.7990   -2.6870 H   0  0  0  0  0  0  0  0  0  0  0  0
    0.8336   -3.5864   -1.8257 H   0  0  0  0  0  0  0  0  0  0  0  0
    1.9485   -3.2647   -3.1593 H   0  0  0  0  0  0  0  0  0  0  0  0
    2.4356   -2.9149   -1.4901 H   0  0  0  0  0  0  0  0  0  0  0  0
    0.2321   -1.4786   -4.5963 N   0  0  0  0  0  0  0  0  0  0  0  0
   -0.7169   -1.4705   -5.6850 C   0  0  0  0  0  0  0  0  0  0  0  0
    1.2207   -1.4666   -4.8293 H   0  0  0  0  0  0  0  0  0  0  0  0
   -0.9493   -2.5052   -5.9773 H   0  0  0  0  0  0  0  0  0  0  0  0
   -1.6392   -0.9645   -5.3635 H   0  0  0  0  0  0  0  0  0  0  0  0
   -0.2852   -0.9352   -6.5436 H   0  0  0  0  0  0  0  0  0  0  0  0
  1  3  1  0  0  0  0
  1  7  1  0  0  0  0
  1  2  2  0  0  0  0
 34 35  1  0  0  0  0
 35 43  1  0  0  0  0
 35 36  2  0  0  0  0
  8  9  1  0  0  0  0
  9 17  1  0  0  0  0
  9 10  2  0  0  0  0
 18 19  1  0  0  0  0
 19 33  1  0  0  0  0
 19 20  2  0  0  0  0
 22 23  1  0  0  0  0
 23 24  2  0  0  0  0
 23 25  1  0  0  0  0
 34 37  1  0  0  0  0
  8 11  1  0  0  0  0
 43 44  1  0  0  0  0
 21 22  1  0  0  0  0
 18 21  1  0  0  0  0
 33 34  1  0  0  0  0
  7  8  1  0  0  0  0
 17 18  1  0  0  0  0
  3  4  1  0  0  0  0
  3  5  1  0  0  0  0
  3  6  1  0  0  0  0
 37 40  1  0  0  0  0
 37 41  1  0  0  0  0
 37 42  1  0  0  0  0
 11 14  1  0  0  0  0
 11 15  1  0  0  0  0
 11 16  1  0  0  0  0
 44 46  1  0  0  0  0
 44 47  1  0  0  0  0
 44 48  1  0  0  0  0
 22 30  1  0  0  0  0
 22 31  1  0  0  0  0
 21 28  1  0  0  0  0
 21 29  1  0  0  0  0
 34 39  1  0  0  0  0
  8 13  1  0  0  0  0
 18 27  1  0  0  0  0
 43 45  1  0  0  0  0
  7 12  1  0  0  0  0
 33 38  1  0  0  0  0
 17 26  1  0  0  0  0
 25 32  1  0  0  0  0
M  END
$$$$

  -OEChem-05262214473D

 48 47  0     1  0  0  0  0  0999 V2000
   -5.5827   -1.3473    1.4591 C   0  0  0  0  0  0  0  0  0  0  0  0
   -5.7053   -2.4696    0.9825 O   0  0  0  0  0  0  0  0  0  0  0  0
   -6.7879   -0.6277    1.9670 C   0  0  0  0  0  0  0  0  0  0  0  0
   -7.2718   -0.0164    1.1885 H   0  0  0  0  0  0  0  0  0  0  0  0
   -7.5699   -1.3171    2.3239 H   0  0  0  0  0  0  0  0  0  0  0  0
   -6.6057    0.0628    2.8060 H   0  0  0  0  0  0  0  0  0  0  0  0
   -4.4001   -0.6377    1.5884 N   0  0  0  0  0  0  0  0  0  0  0  0
   -3.1220   -1.1455    1.1644 C   0  0  2  0  0  0  0  0  0  0  0  0
   -2.2017    0.0428    0.9187 C   0  0  0  0  0  0  0  0  0  0  0  0
   -2.6171    1.1750    0.6807 O   0  0  0  0  0  0  0  0  0  0  0  0
   -3.2533   -1.9992   -0.0873 C   0  0  0  0  0  0  0  0  0  0  0  0
   -4.4370    0.2910    2.0047 H   0  0  0  0  0  0  0  0  0  0  0  0
   -2.7302   -1.7467    1.9921 H   0  0  0  0  0  0  0  0  0  0  0  0
   -3.6446   -1.4140   -0.9275 H   0  0  0  0  0  0  0  0  0  0  0  0
   -2.2844   -2.4081   -0.3922 H   0  0  0  0  0  0  0  0  0  0  0  0
   -3.9388   -2.8365    0.0822 H   0  0  0  0  0  0  0  0  0  0  0  0
   -0.8768   -0.3314    0.9568 N   0  0  0  0  0  0  0  0  0  0  0  0
    0.2067    0.6285    0.7375 C   0  0  2  0  0  0  0  0  0  0  0  0
    0.7424    0.3604   -0.6656 C   0  0  0  0  0  0  0  0  0  0  0  0
    1.4864    1.1454   -1.2500 O   0  0  0  0  0  0  0  0  0  0  0  0
    1.2810    0.4368    1.8184 C   0  0  0  0  0  0  0  0  0  0  0  0
    0.8089    0.8108    3.2233 C   0  0  0  0  0  0  0  0  0  0  0  0
    1.8832    0.5860    4.2580 C   0  0  0  0  0  0  0  0  0  0  0  0
    2.9540    0.0415    4.0214 O   0  0  0  0  0  0  0  0  0  0  0  0
    1.5293    1.0276    5.4902 O   0  0  0  0  0  0  0  0  0  0  0  0
   -0.6087   -1.2764    1.1771 H   0  0  0  0  0  0  0  0  0  0  0  0
   -0.2087    1.6396    0.8019 H   0  0  0  0  0  0  0  0  0  0  0  0
    1.6090   -0.6113    1.8200 H   0  0  0  0  0  0  0  0  0  0  0  0
    2.1666    1.0418    1.5831 H   0  0  0  0  0  0  0  0  0  0  0  0
    0.5555    1.8776    3.2555 H   0  0  0  0  0  0  0  0  0  0  0  0
   -0.1092    0.2829    3.5010 H   0  0  0  0  0  0  0  0  0  0  0  0
    2.1935    0.8833    6.1972 H   0  0  0  0  0  0  0  0  0  0  0  0
    0.3182   -0.8605   -1.1690 N   0  0  0  0  0  0  0  0  0  0  0  0
    0.6885   -1.3494   -2.4777 C   0  0  2  0  0  0  0  0  0  0  0  0
   -0.4093   -0.9526   -3.4559 C   0  0  0  0  0  0  0  0  0  0  0  0
   -1.5595   -0.6968   -3.1057 O   0  0  0  0  0  0  0  0  0  0  0  0
    0.8899   -2.8567   -2.4687 C   0  0  0  0  0  0  0  0  0  0  0  0
   -0.2821   -1.4394   -0.5895 H   0  0  0  0  0  0  0  0  0  0  0  0
    1.6219   -0.8453   -2.7512 H   0  0  0  0  0  0  0  0  0  0  0  0
   -0.0347   -3.3790   -2.1969 H   0  0  0  0  0  0  0  0  0  0  0  0
    1.1981   -3.2217   -3.4540 H   0  0  0  0  0  0  0  0  0  0  0  0
    1.6589   -3.1429   -1.7431 H   0  0  0  0  0  0  0  0  0  0  0  0
    0.0356   -0.9598   -4.7705 N   0  0  0  0  0  0  0  0  0  0  0  0
   -0.8217   -0.6311   -5.8855 C   0  0  0  0  0  0  0  0  0  0  0  0
    1.0106   -1.1657   -4.9670 H   0  0  0  0  0  0  0  0  0  0  0  0
   -1.2747   -1.5508   -6.2840 H   0  0  0  0  0  0  0  0  0  0  0  0
   -1.6152    0.0522   -5.5487 H   0  0  0  0  0  0  0  0  0  0  0  0
   -0.2281   -0.1438   -6.6730 H   0  0  0  0  0  0  0  0  0  0  0  0
  1  3  1  0  0  0  0
  1  7  1  0  0  0  0
  1  2  2  0  0  0  0
 34 35  1  0  0  0  0
 35 43  1  0  0  0  0
 35 36  2  0  0  0  0
  8  9  1  0  0  0  0
  9 17  1  0  0  0  0
  9 10  2  0  0  0  0
 18 19  1  0  0  0  0
 19 33  1  0  0  0  0
 19 20  2  0  0  0  0
 22 23  1  0  0  0  0
 23 24  2  0  0  0  0
 23 25  1  0  0  0  0
 34 37  1  0  0  0  0
  8 11  1  0  0  0  0
 43 44  1  0  0  0  0
 21 22  1  0  0  0  0
 18 21  1  0  0  0  0
 33 34  1  0  0  0  0
  7  8  1  0  0  0  0
 17 18  1  0  0  0  0
  3  4  1  0  0  0  0
  3  5  1  0  0  0  0
  3  6  1  0  0  0  0
 37 40  1  0  0  0  0
 37 41  1  0  0  0  0
 37 42  1  0  0  0  0
 11 14  1  0  0  0  0
 11 15  1  0  0  0  0
 11 16  1  0  0  0  0
 44 46  1  0  0  0  0
 44 47  1  0  0  0  0
 44 48  1  0  0  0  0
 22 30  1  0  0  0  0
 22 31  1  0  0  0  0
 21 28  1  0  0  0  0
 21 29  1  0  0  0  0
 34 39  1  0  0  0  0
  8 13  1  0  0  0  0
 18 27  1  0  0  0  0
 43 45  1  0  0  0  0
  7 12  1  0  0  0  0
 33 38  1  0  0  0  0
 17 26  1  0  0  0  0
 25 32  1  0  0  0  0
M  END
$$$$

  -OEChem-05262214473D

 48 47  0     1  0  0  0  0  0999 V2000
   -5.5827   -1.3473    1.4591 C   0  0  0  0  0  0  0  0  0  0  0  0
   -5.7053   -2.4696    0.9825 O   0  0  0  0  0  0  0  0  0  0  0  0
   -6.7879   -0.6277    1.9670 C   0  0  0  0  0  0  0  0  0  0  0  0
   -7.2718   -0.0164    1.1885 H   0  0  0  0  0  0  0  0  0  0  0  0
   -7.5699   -1.3171    2.3239 H   0  0  0  0  0  0  0  0  0  0  0  0
   -6.6057    0.0628    2.8060 H   0  0  0  0  0  0  0  0  0  0  0  0
   -4.4001   -0.6377    1.5884 N   0  0  0  0  0  0  0  0  0  0  0  0
   -3.1220   -1.1455    1.1644 C   0  0  2  0  0  0  0  0  0  0  0  0
   -2.2017    0.0428    0.9187 C   0  0  0  0  0  0  0  0  0  0  0  0
   -2.6171    1.1750    0.6807 O   0  0  0  0  0  0  0  0  0  0  0  0
   -3.2533   -1.9992   -0.0873 C   0  0  0  0  0  0  0  0  0  0  0  0
   -4.4370    0.2910    2.0047 H   0  0  0  0  0  0  0  0  0  0  0  0
   -2.7302   -1.7467    1.9921 H   0  0  0  0  0  0  0  0  0  0  0  0
   -3.6446   -1.4140   -0.9275 H   0  0  0  0  0  0  0  0  0  0  0  0
   -2.2844   -2.4081   -0.3922 H   0  0  0  0  0  0  0  0  0  0  0  0
   -3.9388   -2.8365    0.0822 H   0  0  0  0  0  0  0  0  0  0  0  0
   -0.8768   -0.3314    0.9568 N   0  0  0  0  0  0  0  0  0  0  0  0
    0.2067    0.6285    0.7375 C   0  0  2  0  0  0  0  0  0  0  0  0
    0.7424    0.3604   -0.6656 C   0  0  0  0  0  0  0  0  0  0  0  0
    1.6824    0.9908   -1.1456 O   0  0  0  0  0  0  0  0  0  0  0  0
    1.2810    0.4368    1.8184 C   0  0  0  0  0  0  0  0  0  0  0  0
    0.8089    0.8108    3.2233 C   0  0  0  0  0  0  0  0  0  0  0  0
    1.8832    0.5860    4.2580 C   0  0  0  0  0  0  0  0  0  0  0  0
    2.9540    0.0415    4.0214 O   0  0  0  0  0  0  0  0  0  0  0  0
    1.5293    1.0276    5.4902 O   0  0  0  0  0  0  0  0  0  0  0  0
   -0.6087   -1.2764    1.1771 H   0  0  0  0  0  0  0  0  0  0  0  0
   -0.2087    1.6396    0.8019 H   0  0  0  0  0  0  0  0  0  0  0  0
    1.6090   -0.6113    1.8200 H   0  0  0  0  0  0  0  0  0  0  0  0
    2.1666    1.0418    1.5831 H   0  0  0  0  0  0  0  0  0  0  0  0
    0.5555    1.8776    3.2555 H   0  0  0  0  0  0  0  0  0  0  0  0
   -0.1092    0.2829    3.5010 H   0  0  0  0  0  0  0  0  0  0  0  0
    2.1935    0.8833    6.1972 H   0  0  0  0  0  0  0  0  0  0  0  0
    0.0713   -0.6754   -1.2987 N   0  0  0  0  0  0  0  0  0  0  0  0
    0.3892   -1.1253   -2.6348 C   0  0  2  0  0  0  0  0  0  0  0  0
   -0.5270   -0.3945   -3.6075 C   0  0  0  0  0  0  0  0  0  0  0  0
   -1.6023    0.0992   -3.2741 O   0  0  0  0  0  0  0  0  0  0  0  0
    0.2283   -2.6320   -2.7643 C   0  0  0  0  0  0  0  0  0  0  0  0
   -0.6804   -1.1405   -0.7987 H   0  0  0  0  0  0  0  0  0  0  0  0
    1.4290   -0.8386   -2.8261 H   0  0  0  0  0  0  0  0  0  0  0  0
   -0.8072   -2.9382   -2.5760 H   0  0  0  0  0  0  0  0  0  0  0  0
    0.4969   -2.9748   -3.7689 H   0  0  0  0  0  0  0  0  0  0  0  0
    0.8659   -3.1553   -2.0435 H   0  0  0  0  0  0  0  0  0  0  0  0
   -0.0229   -0.3960   -4.9006 N   0  0  0  0  0  0  0  0  0  0  0  0
   -0.7140    0.2229   -6.0075 C   0  0  0  0  0  0  0  0  0  0  0  0
    0.8856   -0.8125   -5.0823 H   0  0  0  0  0  0  0  0  0  0  0  0
   -1.3480   -0.5237   -6.5082 H   0  0  0  0  0  0  0  0  0  0  0  0
   -1.3416    1.0454   -5.6340 H   0  0  0  0  0  0  0  0  0  0  0  0
    0.0213    0.6187   -6.7236 H   0  0  0  0  0  0  0  0  0  0  0  0
  1  3  1  0  0  0  0
  1  7  1  0  0  0  0
  1  2  2  0  0  0  0
 34 35  1  0  0  0  0
 35 43  1  0  0  0  0
 35 36  2  0  0  0  0
  8  9  1  0  0  0  0
  9 17  1  0  0  0  0
  9 10  2  0  0  0  0
 18 19  1  0  0  0  0
 19 33  1  0  0  0  0
 19 20  2  0  0  0  0
 22 23  1  0  0  0  0
 23 24  2  0  0  0  0
 23 25  1  0  0  0  0
 34 37  1  0  0  0  0
  8 11  1  0  0  0  0
 43 44  1  0  0  0  0
 21 22  1  0  0  0  0
 18 21  1  0  0  0  0
 33 34  1  0  0  0  0
  7  8  1  0  0  0  0
 17 18  1  0  0  0  0
  3  4  1  0  0  0  0
  3  5  1  0  0  0  0
  3  6  1  0  0  0  0
 37 40  1  0  0  0  0
 37 41  1  0  0  0  0
 37 42  1  0  0  0  0
 11 14  1  0  0  0  0
 11 15  1  0  0  0  0
 11 16  1  0  0  0  0
 44 46  1  0  0  0  0
 44 47  1  0  0  0  0
 44 48  1  0  0  0  0
 22 30  1  0  0  0  0
 22 31  1  0  0  0  0
 21 28  1  0  0  0  0
 21 29  1  0  0  0  0
 34 39  1  0  0  0  0
  8 13  1  0  0  0  0
 18 27  1  0  0  0  0
 43 45  1  0  0  0  0
  7 12  1  0  0  0  0
 33 38  1  0  0  0  0
 17 26  1  0  0  0  0
 25 32  1  0  0  0  0
M  END
$$$$

  -OEChem-05262214473D

 48 47  0     1  0  0  0  0  0999 V2000
   -5.5827   -1.3473    1.4591 C   0  0  0  0  0  0  0  0  0  0  0  0
   -5.7053   -2.4696    0.9825 O   0  0  0  0  0  0  0  0  0  0  0  0
   -6.7879   -0.6277    1.9670 C   0  0  0  0  0  0  0  0  0  0  0  0
   -7.2718   -0.0164    1.1885 H   0  0  0  0  0  0  0  0  0  0  0  0
   -7.5699   -1.3171    2.3239 H   0  0  0  0  0  0  0  0  0  0  0  0
   -6.6057    0.0628    2.8060 H   0  0  0  0  0  0  0  0  0  0  0  0
   -4.4001   -0.6377    1.5884 N   0  0  0  0  0  0  0  0  0  0  0  0
   -3.1220   -1.1455    1.1644 C   0  0  2  0  0  0  0  0  0  0  0  0
   -2.2017    0.0428    0.9187 C   0  0  0  0  0  0  0  0  0  0  0  0
   -2.6171    1.1750    0.6807 O   0  0  0  0  0  0  0  0  0  0  0  0
   -3.2533   -1.9992   -0.0873 C   0  0  0  0  0  0  0  0  0  0  0  0
   -4.4370    0.2910    2.0047 H   0  0  0  0  0  0  0  0  0  0  0  0
   -2.7302   -1.7467    1.9921 H   0  0  0  0  0  0  0  0  0  0  0  0
   -3.6446   -1.4140   -0.9275 H   0  0  0  0  0  0  0  0  0  0  0  0
   -2.2844   -2.4081   -0.3922 H   0  0  0  0  0  0  0  0  0  0  0  0
   -3.9388   -2.8365    0.0822 H   0  0  0  0  0  0  0  0  0  0  0  0
   -0.8768   -0.3314    0.9568 N   0  0  0  0  0  0  0  0  0  0  0  0
    0.2067    0.6285    0.7375 C   0  0  2  0  0  0  0  0  0  0  0  0
    0.7424    0.3604   -0.6656 C   0  0  0  0  0  0  0  0  0  0  0  0
    1.8302    0.7852   -1.0499 O   0  0  0  0  0  0  0  0  0  0  0  0
    1.2810    0.4368    1.8184 C   0  0  0  0  0  0  0  0  0  0  0  0
    0.8089    0.8108    3.2233 C   0  0  0  0  0  0  0  0  0  0  0  0
    1.8832    0.5860    4.2580 C   0  0  0  0  0  0  0  0  0  0  0  0
    2.9540    0.0415    4.0214 O   0  0  0  0  0  0  0  0  0  0  0  0
    1.5293    1.0276    5.4902 O   0  0  0  0  0  0  0  0  0  0  0  0
   -0.6087   -1.2764    1.1771 H   0  0  0  0  0  0  0  0  0  0  0  0
   -0.2087    1.6396    0.8019 H   0  0  0  0  0  0  0  0  0  0  0  0
    1.6090   -0.6113    1.8200 H   0  0  0  0  0  0  0  0  0  0  0  0
    2.1666    1.0418    1.5831 H   0  0  0  0  0  0  0  0  0  0  0  0
    0.5555    1.8776    3.2555 H   0  0  0  0  0  0  0  0  0  0  0  0
   -0.1092    0.2829    3.5010 H   0  0  0  0  0  0  0  0  0  0  0  0
    2.1935    0.8833    6.1972 H   0  0  0  0  0  0  0  0  0  0  0  0
   -0.1172   -0.4260   -1.4184 N   0  0  0  0  0  0  0  0  0  0  0  0
    0.1605   -0.8233   -2.7799 C   0  0  2  0  0  0  0  0  0  0  0  0
   -0.5009    0.1864   -3.7086 C   0  0  0  0  0  0  0  0  0  0  0  0
   -1.4465    0.8935   -3.3665 O   0  0  0  0  0  0  0  0  0  0  0  0
   -0.3437   -2.2305   -3.0594 C   0  0  0  0  0  0  0  0  0  0  0  0
   -0.9844   -0.7379   -0.9917 H   0  0  0  0  0  0  0  0  0  0  0  0
    1.2477   -0.7794   -2.9066 H   0  0  0  0  0  0  0  0  0  0  0  0
   -1.4312   -2.2940   -2.9374 H   0  0  0  0  0  0  0  0  0  0  0  0
   -0.1073   -2.5408   -4.0826 H   0  0  0  0  0  0  0  0  0  0  0  0
    0.1106   -2.9512   -2.3709 H   0  0  0  0  0  0  0  0  0  0  0  0
    0.0608    0.1743   -4.9776 N   0  0  0  0  0  0  0  0  0  0  0  0
   -0.4011    1.0332   -6.0430 C   0  0  0  0  0  0  0  0  0  0  0  0
    0.8541   -0.4311   -5.1672 H   0  0  0  0  0  0  0  0  0  0  0  0
   -1.1640    0.5063   -6.6348 H   0  0  0  0  0  0  0  0  0  0  0  0
   -0.8371    1.9474   -5.6138 H   0  0  0  0  0  0  0  0  0  0  0  0
    0.4460    1.3006   -6.6917 H   0  0  0  0  0  0  0  0  0  0  0  0
  1  3  1  0  0  0  0
  1  7  1  0  0  0  0
  1  2  2  0  0  0  0
 34 35  1  0  0  0  0
 35 43  1  0  0  0  0
 35 36  2  0  0  0  0
  8  9  1  0  0  0  0
  9 17  1  0  0  0  0
  9 10  2  0  0  0  0
 18 19  1  0  0  0  0
 19 33  1  0  0  0  0
 19 20  2  0  0  0  0
 22 23  1  0  0  0  0
 23 24  2  0  0  0  0
 23 25  1  0  0  0  0
 34 37  1  0  0  0  0
  8 11  1  0  0  0  0
 43 44  1  0  0  0  0
 21 22  1  0  0  0  0
 18 21  1  0  0  0  0
 33 34  1  0  0  0  0
  7  8  1  0  0  0  0
 17 18  1  0  0  0  0
  3  4  1  0  0  0  0
  3  5  1  0  0  0  0
  3  6  1  0  0  0  0
 37 40  1  0  0  0  0
 37 41  1  0  0  0  0
 37 42  1  0  0  0  0
 11 14  1  0  0  0  0
 11 15  1  0  0  0  0
 11 16  1  0  0  0  0
 44 46  1  0  0  0  0
 44 47  1  0  0  0  0
 44 48  1  0  0  0  0
 22 30  1  0  0  0  0
 22 31  1  0  0  0  0
 21 28  1  0  0  0  0
 21 29  1  0  0  0  0
 34 39  1  0  0  0  0
  8 13  1  0  0  0  0
 18 27  1  0  0  0  0
 43 45  1  0  0  0  0
  7 12  1  0  0  0  0
 33 38  1  0  0  0  0
 17 26  1  0  0  0  0
 25 32  1  0  0  0  0
M  END
$$$$

  -OEChem-05262214473D

 48 47  0     1  0  0  0  0  0999 V2000
   -5.5827   -1.3473    1.4591 C   0  0  0  0  0  0  0  0  0  0  0  0
   -5.7053   -2.4696    0.9825 O   0  0  0  0  0  0  0  0  0  0  0  0
   -6.7879   -0.6277    1.9670 C   0  0  0  0  0  0  0  0  0  0  0  0
   -7.2718   -0.0164    1.1885 H   0  0  0  0  0  0  0  0  0  0  0  0
   -7.5699   -1.3171    2.3239 H   0  0  0  0  0  0  0  0  0  0  0  0
   -6.6057    0.0628    2.8060 H   0  0  0  0  0  0  0  0  0  0  0  0
   -4.4001   -0.6377    1.5884 N   0  0  0  0  0  0  0  0  0  0  0  0
   -3.1220   -1.1455    1.1644 C   0  0  2  0  0  0  0  0  0  0  0  0
   -2.2017    0.0428    0.9187 C   0  0  0  0  0  0  0  0  0  0  0  0
   -2.6171    1.1750    0.6807 O   0  0  0  0  0  0  0  0  0  0  0  0
   -3.2533   -1.9992   -0.0873 C   0  0  0  0  0  0  0  0  0  0  0  0
   -4.4370    0.2910    2.0047 H   0  0  0  0  0  0  0  0  0  0  0  0
   -2.7302   -1.7467    1.9921 H   0  0  0  0  0  0  0  0  0  0  0  0
   -3.6446   -1.4140   -0.9275 H   0  0  0  0  0  0  0  0  0  0  0  0
   -2.2844   -2.4081   -0.3922 H   0  0  0  0  0  0  0  0  0  0  0  0
   -3.9388   -2.8365    0.0822 H   0  0  0  0  0  0  0  0  0  0  0  0
   -0.8768   -0.3314    0.9568 N   0  0  0  0  0  0  0  0  0  0  0  0
    0.2067    0.6285    0.7375 C   0  0  2  0  0  0  0  0  0  0  0  0
    0.7424    0.3604   -0.6656 C   0  0  0  0  0  0  0  0  0  0  0  0
    1.9196    0.5428   -0.9695 O   0  0  0  0  0  0  0  0  0  0  0  0
    1.2810    0.4368    1.8184 C   0  0  0  0  0  0  0  0  0  0  0  0
    0.8089    0.8108    3.2233 C   0  0  0  0  0  0  0  0  0  0  0  0
    1.8832    0.5860    4.2580 C   0  0  0  0  0  0  0  0  0  0  0  0
    2.9540    0.0415    4.0214 O   0  0  0  0  0  0  0  0  0  0  0  0
    1.5293    1.0276    5.4902 O   0  0  0  0  0  0  0  0  0  0  0  0
   -0.6087   -1.2764    1.1771 H   0  0  0  0  0  0  0  0  0  0  0  0
   -0.2087    1.6396    0.8019 H   0  0  0  0  0  0  0  0  0  0  0  0
    1.6090   -0.6113    1.8200 H   0  0  0  0  0  0  0  0  0  0  0  0
    2.1666    1.0418    1.5831 H   0  0  0  0  0  0  0  0  0  0  0  0
    0.5555    1.8776    3.2555 H   0  0  0  0  0  0  0  0  0  0  0  0
   -0.1092    0.2829    3.5010 H   0  0  0  0  0  0  0  0  0  0  0  0
    2.1935    0.8833    6.1972 H   0  0  0  0  0  0  0  0  0  0  0  0
   -0.2345   -0.1293   -1.5198 N   0  0  0  0  0  0  0  0  0  0  0  0
    0.0180   -0.4639   -2.9029 C   0  0  2  0  0  0  0  0  0  0  0  0
   -0.3329    0.7505   -3.7523 C   0  0  0  0  0  0  0  0  0  0  0  0
   -1.1027    1.6321   -3.3764 O   0  0  0  0  0  0  0  0  0  0  0  0
   -0.7873   -1.6798   -3.3340 C   0  0  0  0  0  0  0  0  0  0  0  0
   -1.1735   -0.2591   -1.1555 H   0  0  0  0  0  0  0  0  0  0  0  0
    1.0903   -0.6718   -2.9873 H   0  0  0  0  0  0  0  0  0  0  0  0
   -1.8641   -1.4905   -3.2563 H   0  0  0  0  0  0  0  0  0  0  0  0
   -0.5733   -1.9492   -4.3736 H   0  0  0  0  0  0  0  0  0  0  0  0
   -0.5555   -2.5446   -2.7030 H   0  0  0  0  0  0  0  0  0  0  0  0
    0.2809    0.7123   -4.9964 N   0  0  0  0  0  0  0  0  0  0  0  0
    0.0956    1.7447   -5.9893 C   0  0  0  0  0  0  0  0  0  0  0  0
    0.9184   -0.0474   -5.2159 H   0  0  0  0  0  0  0  0  0  0  0  0
   -0.7354    1.4689   -6.6552 H   0  0  0  0  0  0  0  0  0  0  0  0
   -0.1359    2.6968   -5.4893 H   0  0  0  0  0  0  0  0  0  0  0  0
    1.0172    1.8552   -6.5796 H   0  0  0  0  0  0  0  0  0  0  0  0
  1  3  1  0  0  0  0
  1  7  1  0  0  0  0
  1  2  2  0  0  0  0
 34 35  1  0  0  0  0
 35 43  1  0  0  0  0
 35 36  2  0  0  0  0
  8  9  1  0  0  0  0
  9 17  1  0  0  0  0
  9 10  2  0  0  0  0
 18 19  1  0  0  0  0
 19 33  1  0  0  0  0
 19 20  2  0  0  0  0
 22 23  1  0  0  0  0
 23 24  2  0  0  0  0
 23 25  1  0  0  0  0
 34 37  1  0  0  0  0
  8 11  1  0  0  0  0
 43 44  1  0  0  0  0
 21 22  1  0  0  0  0
 18 21  1  0  0  0  0
 33 34  1  0  0  0  0
  7  8  1  0  0  0  0
 17 18  1  0  0  0  0
  3  4  1  0  0  0  0
  3  5  1  0  0  0  0
  3  6  1  0  0  0  0
 37 40  1  0  0  0  0
 37 41  1  0  0  0  0
 37 42  1  0  0  0  0
 11 14  1  0  0  0  0
 11 15  1  0  0  0  0
 11 16  1  0  0  0  0
 44 46  1  0  0  0  0
 44 47  1  0  0  0  0
 44 48  1  0  0  0  0
 22 30  1  0  0  0  0
 22 31  1  0  0  0  0
 21 28  1  0  0  0  0
 21 29  1  0  0  0  0
 34 39  1  0  0  0  0
  8 13  1  0  0  0  0
 18 27  1  0  0  0  0
 43 45  1  0  0  0  0
  7 12  1  0  0  0  0
 33 38  1  0  0  0  0
 17 26  1  0  0  0  0
 25 32  1  0  0  0  0
M  END
$$$$

  -OEChem-05262214473D

 48 47  0     1  0  0  0  0  0999 V2000
   -5.5827   -1.3473    1.4591 C   0  0  0  0  0  0  0  0  0  0  0  0
   -5.7053   -2.4696    0.9825 O   0  0  0  0  0  0  0  0  0  0  0  0
   -6.7879   -0.6277    1.9670 C   0  0  0  0  0  0  0  0  0  0  0  0
   -7.2718   -0.0164    1.1885 H   0  0  0  0  0  0  0  0  0  0  0  0
   -7.5699   -1.3171    2.3239 H   0  0  0  0  0  0  0  0  0  0  0  0
   -6.6057    0.0628    2.8060 H   0  0  0  0  0  0  0  0  0  0  0  0
   -4.4001   -0.6377    1.5884 N   0  0  0  0  0  0  0  0  0  0  0  0
   -3.1220   -1.1455    1.1644 C   0  0  2  0  0  0  0  0  0  0  0  0
   -2.2017    0.0428    0.9187 C   0  0  0  0  0  0  0  0  0  0  0  0
   -2.6171    1.1750    0.6807 O   0  0  0  0  0  0  0  0  0  0  0  0
   -3.2533   -1.9992   -0.0873 C   0  0  0  0  0  0  0  0  0  0  0  0
   -4.4370    0.2910    2.0047 H   0  0  0  0  0  0  0  0  0  0  0  0
   -2.7302   -1.7467    1.9921 H   0  0  0  0  0  0  0  0  0  0  0  0
   -3.6446   -1.4140   -0.9275 H   0  0  0  0  0  0  0  0  0  0  0  0
   -2.2844   -2.4081   -0.3922 H   0  0  0  0  0  0  0  0  0  0  0  0
   -3.9388   -2.8365    0.0822 H   0  0  0  0  0  0  0  0  0  0  0  0
   -0.8768   -0.3314    0.9568 N   0  0  0  0  0  0  0  0  0  0  0  0
    0.2067    0.6285    0.7375 C   0  0  2  0  0  0  0  0  0  0  0  0
    0.7424    0.3604   -0.6656 C   0  0  0  0  0  0  0  0  0  0  0  0
    1.9447    0.2800   -0.9097 O   0  0  0  0  0  0  0  0  0  0  0  0
    1.2810    0.4368    1.8184 C   0  0  0  0  0  0  0  0  0  0  0  0
    0.8089    0.8108    3.2233 C   0  0  0  0  0  0  0  0  0  0  0  0
    1.8832    0.5860    4.2580 C   0  0  0  0  0  0  0  0  0  0  0  0
    2.9540    0.0415    4.0214 O   0  0  0  0  0  0  0  0  0  0  0  0
    1.5293    1.0276    5.4902 O   0  0  0  0  0  0  0  0  0  0  0  0
   -0.6087   -1.2764    1.1771 H   0  0  0  0  0  0  0  0  0  0  0  0
   -0.2087    1.6396    0.8019 H   0  0  0  0  0  0  0  0  0  0  0  0
    1.6090   -0.6113    1.8200 H   0  0  0  0  0  0  0  0  0  0  0  0
    2.1666    1.0418    1.5831 H   0  0  0  0  0  0  0  0  0  0  0  0
    0.5555    1.8776    3.2555 H   0  0  0  0  0  0  0  0  0  0  0  0
   -0.1092    0.2829    3.5010 H   0  0  0  0  0  0  0  0  0  0  0  0
    2.1935    0.8833    6.1972 H   0  0  0  0  0  0  0  0  0  0  0  0
   -0.2726    0.1944   -1.5963 N   0  0  0  0  0  0  0  0  0  0  0  0
   -0.0284   -0.0718   -2.9956 C   0  0  2  0  0  0  0  0  0  0  0  0
   -0.0344    1.2594   -3.7355 C   0  0  0  0  0  0  0  0  0  0  0  0
   -0.5944    2.2646   -3.3032 O   0  0  0  0  0  0  0  0  0  0  0  0
   -1.0722   -1.0173   -3.5694 C   0  0  0  0  0  0  0  0  0  0  0  0
   -1.2348    0.2632   -1.2787 H   0  0  0  0  0  0  0  0  0  0  0  0
    0.9675   -0.5230   -3.0626 H   0  0  0  0  0  0  0  0  0  0  0  0
   -2.0766   -0.5823   -3.5110 H   0  0  0  0  0  0  0  0  0  0  0  0
   -0.8694   -1.2404   -4.6221 H   0  0  0  0  0  0  0  0  0  0  0  0
   -1.0870   -1.9630   -3.0170 H   0  0  0  0  0  0  0  0  0  0  0  0
    0.6224    1.1812   -4.9557 N   0  0  0  0  0  0  0  0  0  0  0  0
    0.7423    2.3088   -5.8502 C   0  0  0  0  0  0  0  0  0  0  0  0
    1.0740    0.3123   -5.2253 H   0  0  0  0  0  0  0  0  0  0  0  0
   -0.0913    2.2985   -6.5678 H   0  0  0  0  0  0  0  0  0  0  0  0
    0.7141    3.2423   -5.2690 H   0  0  0  0  0  0  0  0  0  0  0  0
    1.6957    2.2447   -6.3950 H   0  0  0  0  0  0  0  0  0  0  0  0
  1  3  1  0  0  0  0
  1  7  1  0  0  0  0
  1  2  2  0  0  0  0
 34 35  1  0  0  0  0
 35 43  1  0  0  0  0
 35 36  2  0  0  0  0
  8  9  1  0  0  0  0
  9 17  1  0  0  0  0
  9 10  2  0  0  0  0
 18 19  1  0  0  0  0
 19 33  1  0  0  0  0
 19 20  2  0  0  0  0
 22 23  1  0  0  0  0
 23 24  2  0  0  0  0
 23 25  1  0  0  0  0
 34 37  1  0  0  0  0
  8 11  1  0  0  0  0
 43 44  1  0  0  0  0
 21 22  1  0  0  0  0
 18 21  1  0  0  0  0
 33 34  1  0  0  0  0
  7  8  1  0  0  0  0
 17 18  1  0  0  0  0
  3  4  1  0  0  0  0
  3  5  1  0  0  0  0
  3  6  1  0  0  0  0
 37 40  1  0  0  0  0
 37 41  1  0  0  0  0
 37 42  1  0  0  0  0
 11 14  1  0  0  0  0
 11 15  1  0  0  0  0
 11 16  1  0  0  0  0
 44 46  1  0  0  0  0
 44 47  1  0  0  0  0
 44 48  1  0  0  0  0
 22 30  1  0  0  0  0
 22 31  1  0  0  0  0
 21 28  1  0  0  0  0
 21 29  1  0  0  0  0
 34 39  1  0  0  0  0
  8 13  1  0  0  0  0
 18 27  1  0  0  0  0
 43 45  1  0  0  0  0
  7 12  1  0  0  0  0
 33 38  1  0  0  0  0
 17 26  1  0  0  0  0
 25 32  1  0  0  0  0
M  END
$$$$

  -OEChem-05262214473D

 48 47  0     1  0  0  0  0  0999 V2000
   -5.5827   -1.3473    1.4591 C   0  0  0  0  0  0  0  0  0  0  0  0
   -5.7053   -2.4696    0.9825 O   0  0  0  0  0  0  0  0  0  0  0  0
   -6.7879   -0.6277    1.9670 C   0  0  0  0  0  0  0  0  0  0  0  0
   -7.2718   -0.0164    1.1885 H   0  0  0  0  0  0  0  0  0  0  0  0
   -7.5699   -1.3171    2.3239 H   0  0  0  0  0  0  0  0  0  0  0  0
   -6.6057    0.0628    2.8060 H   0  0  0  0  0  0  0  0  0  0  0  0
   -4.4001   -0.6377    1.5884 N   0  0  0  0  0  0  0  0  0  0  0  0
   -3.1220   -1.1455    1.1644 C   0  0  2  0  0  0  0  0  0  0  0  0
   -2.2017    0.0428    0.9187 C   0  0  0  0  0  0  0  0  0  0  0  0
   -2.6171    1.1750    0.6807 O   0  0  0  0  0  0  0  0  0  0  0  0
   -3.2533   -1.9992   -0.0873 C   0  0  0  0  0  0  0  0  0  0  0  0
   -4.4370    0.2910    2.0047 H   0  0  0  0  0  0  0  0  0  0  0  0
   -2.7302   -1.7467    1.9921 H   0  0  0  0  0  0  0  0  0  0  0  0
   -3.6446   -1.4140   -0.9275 H   0  0  0  0  0  0  0  0  0  0  0  0
   -2.2844   -2.4081   -0.3922 H   0  0  0  0  0  0  0  0  0  0  0  0
   -3.9388   -2.8365    0.0822 H   0  0  0  0  0  0  0  0  0  0  0  0
   -0.8768   -0.3314    0.9568 N   0  0  0  0  0  0  0  0  0  0  0  0
    0.2067    0.6285    0.7375 C   0  0  2  0  0  0  0  0  0  0  0  0
    0.7424    0.3604   -0.6656 C   0  0  0  0  0  0  0  0  0  0  0  0
    1.9036    0.0148   -0.8747 O   0  0  0  0  0  0  0  0  0  0  0  0
    1.2810    0.4368    1.8184 C   0  0  0  0  0  0  0  0  0  0  0  0
    0.8089    0.8108    3.2233 C   0  0  0  0  0  0  0  0  0  0  0  0
    1.8832    0.5860    4.2580 C   0  0  0  0  0  0  0  0  0  0  0  0
    2.9540    0.0415    4.0214 O   0  0  0  0  0  0  0  0  0  0  0  0
    1.5293    1.0276    5.4902 O   0  0  0  0  0  0  0  0  0  0  0  0
   -0.6087   -1.2764    1.1771 H   0  0  0  0  0  0  0  0  0  0  0  0
   -0.2087    1.6396    0.8019 H   0  0  0  0  0  0  0  0  0  0  0  0
    1.6090   -0.6113    1.8200 H   0  0  0  0  0  0  0  0  0  0  0  0
    2.1666    1.0418    1.5831 H   0  0  0  0  0  0  0  0  0  0  0  0
    0.5555    1.8776    3.2555 H   0  0  0  0  0  0  0  0  0  0  0  0
   -0.1092    0.2829    3.5010 H   0  0  0  0  0  0  0  0  0  0  0  0
    2.1935    0.8833    6.1972 H   0  0  0  0  0  0  0  0  0  0  0  0
   -0.2289    0.5231   -1.6424 N   0  0  0  0  0  0  0  0  0  0  0  0
    0.0243    0.3265   -3.0516 C   0  0  2  0  0  0  0  0  0  0  0  0
    0.3744    1.6783   -3.6595 C   0  0  0  0  0  0  0  0  0  0  0  0
    0.0438    2.7480   -3.1519 O   0  0  0  0  0  0  0  0  0  0  0  0
   -1.1789   -0.2881   -3.7495 C   0  0  0  0  0  0  0  0  0  0  0  0
   -1.1640    0.7936   -1.3530 H   0  0  0  0  0  0  0  0  0  0  0  0
    0.8878   -0.3433   -3.1274 H   0  0  0  0  0  0  0  0  0  0  0  0
   -2.0540    0.3687   -3.6841 H   0  0  0  0  0  0  0  0  0  0  0  0
   -0.9754   -0.4628   -4.8112 H   0  0  0  0  0  0  0  0  0  0  0  0
   -1.4476   -1.2463   -3.2917 H   0  0  0  0  0  0  0  0  0  0  0  0
    1.0620    1.5492   -4.8581 N   0  0  0  0  0  0  0  0  0  0  0  0
    1.4949    2.6871   -5.6351 C   0  0  0  0  0  0  0  0  0  0  0  0
    1.3103    0.6235   -5.1945 H   0  0  0  0  0  0  0  0  0  0  0  0
    0.7243    2.9386   -6.3787 H   0  0  0  0  0  0  0  0  0  0  0  0
    1.6549    3.5470   -4.9680 H   0  0  0  0  0  0  0  0  0  0  0  0
    2.4355    2.4427   -6.1504 H   0  0  0  0  0  0  0  0  0  0  0  0
  1  3  1  0  0  0  0
  1  7  1  0  0  0  0
  1  2  2  0  0  0  0
 34 35  1  0  0  0  0
 35 43  1  0  0  0  0
 35 36  2  0  0  0  0
  8  9  1  0  0  0  0
  9 17  1  0  0  0  0
  9 10  2  0  0  0  0
 18 19  1  0  0  0  0
 19 33  1  0  0  0  0
 19 20  2  0  0  0  0
 22 23  1  0  0  0  0
 23 24  2  0  0  0  0
 23 25  1  0  0  0  0
 34 37  1  0  0  0  0
  8 11  1  0  0  0  0
 43 44  1  0  0  0  0
 21 22  1  0  0  0  0
 18 21  1  0  0  0  0
 33 34  1  0  0  0  0
  7  8  1  0  0  0  0
 17 18  1  0  0  0  0
  3  4  1  0  0  0  0
  3  5  1  0  0  0  0
  3  6  1  0  0  0  0
 37 40  1  0  0  0  0
 37 41  1  0  0  0  0
 37 42  1  0  0  0  0
 11 14  1  0  0  0  0
 11 15  1  0  0  0  0
 11 16  1  0  0  0  0
 44 46  1  0  0  0  0
 44 47  1  0  0  0  0
 44 48  1  0  0  0  0
 22 30  1  0  0  0  0
 22 31  1  0  0  0  0
 21 28  1  0  0  0  0
 21 29  1  0  0  0  0
 34 39  1  0  0  0  0
  8 13  1  0  0  0  0
 18 27  1  0  0  0  0
 43 45  1  0  0  0  0
  7 12  1  0  0  0  0
 33 38  1  0  0  0  0
 17 26  1  0  0  0  0
 25 32  1  0  0  0  0
M  END
$$$$

  -OEChem-05262214473D

 48 47  0     1  0  0  0  0  0999 V2000
   -5.5827   -1.3473    1.4591 C   0  0  0  0  0  0  0  0  0  0  0  0
   -5.7053   -2.4696    0.9825 O   0  0  0  0  0  0  0  0  0  0  0  0
   -6.7879   -0.6277    1.9670 C   0  0  0  0  0  0  0  0  0  0  0  0
   -7.2718   -0.0164    1.1885 H   0  0  0  0  0  0  0  0  0  0  0  0
   -7.5699   -1.3171    2.3239 H   0  0  0  0  0  0  0  0  0  0  0  0
   -6.6057    0.0628    2.8060 H   0  0  0  0  0  0  0  0  0  0  0  0
   -4.4001   -0.6377    1.5884 N   0  0  0  0  0  0  0  0  0  0  0  0
   -3.1220   -1.1455    1.1644 C   0  0  2  0  0  0  0  0  0  0  0  0
   -2.2017    0.0428    0.9187 C   0  0  0  0  0  0  0  0  0  0  0  0
   -2.6171    1.1750    0.6807 O   0  0  0  0  0  0  0  0  0  0  0  0
   -3.2533   -1.9992   -0.0873 C   0  0  0  0  0  0  0  0  0  0  0  0
   -4.4370    0.2910    2.0047 H   0  0  0  0  0  0  0  0  0  0  0  0
   -2.7302   -1.7467    1.9921 H   0  0  0  0  0  0  0  0  0  0  0  0
   -3.6446   -1.4140   -0.9275 H   0  0  0  0  0  0  0  0  0  0  0  0
   -2.2844   -2.4081   -0.3922 H   0  0  0  0  0  0  0  0  0  0  0  0
   -3.9388   -2.8365    0.0822 H   0  0  0  0  0  0  0  0  0  0  0  0
   -0.8768   -0.3314    0.9568 N   0  0  0  0  0  0  0  0  0  0  0  0
    0.2067    0.6285    0.7375 C   0  0  2  0  0  0  0  0  0  0  0  0
    0.7424    0.3604   -0.6656 C   0  0  0  0  0  0  0  0  0  0  0  0
    1.7992   -0.2348   -0.8668 O   0  0  0  0  0  0  0  0  0  0  0  0
    1.2810    0.4368    1.8184 C   0  0  0  0  0  0  0  0  0  0  0  0
    0.8089    0.8108    3.2233 C   0  0  0  0  0  0  0  0  0  0  0  0
    1.8832    0.5860    4.2580 C   0  0  0  0  0  0  0  0  0  0  0  0
    2.9540    0.0415    4.0214 O   0  0  0  0  0  0  0  0  0  0  0  0
    1.5293    1.0276    5.4902 O   0  0  0  0  0  0  0  0  0  0  0  0
   -0.6087   -1.2764    1.1771 H   0  0  0  0  0  0  0  0  0  0  0  0
   -0.2087    1.6396    0.8019 H   0  0  0  0  0  0  0  0  0  0  0  0
    1.6090   -0.6113    1.8200 H   0  0  0  0  0  0  0  0  0  0  0  0
    2.1666    1.0418    1.5831 H   0  0  0  0  0  0  0  0  0  0  0  0
    0.5555    1.8776    3.2555 H   0  0  0  0  0  0  0  0  0  0  0  0
   -0.1092    0.2829    3.5010 H   0  0  0  0  0  0  0  0  0  0  0  0
    2.1935    0.8833    6.1972 H   0  0  0  0  0  0  0  0  0  0  0  0
   -0.1063    0.8343   -1.6551 N   0  0  0  0  0  0  0  0  0  0  0  0
    0.1726    0.7038   -3.0671 C   0  0  2  0  0  0  0  0  0  0  0  0
    0.8654    1.9788   -3.5295 C   0  0  0  0  0  0  0  0  0  0  0  0
    0.7684    3.0491   -2.9328 O   0  0  0  0  0  0  0  0  0  0  0  0
   -1.1003    0.4579   -3.8621 C   0  0  0  0  0  0  0  0  0  0  0  0
   -0.9660    1.2957   -1.3734 H   0  0  0  0  0  0  0  0  0  0  0  0
    0.8565   -0.1448   -3.1773 H   0  0  0  0  0  0  0  0  0  0  0  0
   -1.7980    1.2977   -3.7639 H   0  0  0  0  0  0  0  0  0  0  0  0
   -0.8841    0.3309   -4.9280 H   0  0  0  0  0  0  0  0  0  0  0  0
   -1.6129   -0.4431   -3.5083 H   0  0  0  0  0  0  0  0  0  0  0  0
    1.5698    1.7911   -4.7105 N   0  0  0  0  0  0  0  0  0  0  0  0
    2.3021    2.8539   -5.3588 C   0  0  0  0  0  0  0  0  0  0  0  0
    1.6113    0.8651   -5.1258 H   0  0  0  0  0  0  0  0  0  0  0  0
    1.6558    3.3456   -6.1008 H   0  0  0  0  0  0  0  0  0  0  0  0
    2.6225    3.5899   -4.6068 H   0  0  0  0  0  0  0  0  0  0  0  0
    3.1861    2.4356   -5.8624 H   0  0  0  0  0  0  0  0  0  0  0  0
  1  3  1  0  0  0  0
  1  7  1  0  0  0  0
  1  2  2  0  0  0  0
 34 35  1  0  0  0  0
 35 43  1  0  0  0  0
 35 36  2  0  0  0  0
  8  9  1  0  0  0  0
  9 17  1  0  0  0  0
  9 10  2  0  0  0  0
 18 19  1  0  0  0  0
 19 33  1  0  0  0  0
 19 20  2  0  0  0  0
 22 23  1  0  0  0  0
 23 24  2  0  0  0  0
 23 25  1  0  0  0  0
 34 37  1  0  0  0  0
  8 11  1  0  0  0  0
 43 44  1  0  0  0  0
 21 22  1  0  0  0  0
 18 21  1  0  0  0  0
 33 34  1  0  0  0  0
  7  8  1  0  0  0  0
 17 18  1  0  0  0  0
  3  4  1  0  0  0  0
  3  5  1  0  0  0  0
  3  6  1  0  0  0  0
 37 40  1  0  0  0  0
 37 41  1  0  0  0  0
 37 42  1  0  0  0  0
 11 14  1  0  0  0  0
 11 15  1  0  0  0  0
 11 16  1  0  0  0  0
 44 46  1  0  0  0  0
 44 47  1  0  0  0  0
 44 48  1  0  0  0  0
 22 30  1  0  0  0  0
 22 31  1  0  0  0  0
 21 28  1  0  0  0  0
 21 29  1  0  0  0  0
 34 39  1  0  0  0  0
  8 13  1  0  0  0  0
 18 27  1  0  0  0  0
 43 45  1  0  0  0  0
  7 12  1  0  0  0  0
 33 38  1  0  0  0  0
 17 26  1  0  0  0  0
 25 32  1  0  0  0  0
M  END
$$$$

  -OEChem-05262214473D

 48 47  0     1  0  0  0  0  0999 V2000
   -5.5827   -1.3473    1.4591 C   0  0  0  0  0  0  0  0  0  0  0  0
   -5.7053   -2.4696    0.9825 O   0  0  0  0  0  0  0  0  0  0  0  0
   -6.7879   -0.6277    1.9670 C   0  0  0  0  0  0  0  0  0  0  0  0
   -7.2718   -0.0164    1.1885 H   0  0  0  0  0  0  0  0  0  0  0  0
   -7.5699   -1.3171    2.3239 H   0  0  0  0  0  0  0  0  0  0  0  0
   -6.6057    0.0628    2.8060 H   0  0  0  0  0  0  0  0  0  0  0  0
   -4.4001   -0.6377    1.5884 N   0  0  0  0  0  0  0  0  0  0  0  0
   -3.1220   -1.1455    1.1644 C   0  0  2  0  0  0  0  0  0  0  0  0
   -2.2017    0.0428    0.9187 C   0  0  0  0  0  0  0  0  0  0  0  0
   -2.6171    1.1750    0.6807 O   0  0  0  0  0  0  0  0  0  0  0  0
   -3.2533   -1.9992   -0.0873 C   0  0  0  0  0  0  0  0  0  0  0  0
   -4.4370    0.2910    2.0047 H   0  0  0  0  0  0  0  0  0  0  0  0
   -2.7302   -1.7467    1.9921 H   0  0  0  0  0  0  0  0  0  0  0  0
   -3.6446   -1.4140   -0.9275 H   0  0  0  0  0  0  0  0  0  0  0  0
   -2.2844   -2.4081   -0.3922 H   0  0  0  0  0  0  0  0  0  0  0  0
   -3.9388   -2.8365    0.0822 H   0  0  0  0  0  0  0  0  0  0  0  0
   -0.8768   -0.3314    0.9568 N   0  0  0  0  0  0  0  0  0  0  0  0
    0.2067    0.6285    0.7375 C   0  0  2  0  0  0  0  0  0  0  0  0
    0.7424    0.3604   -0.6656 C   0  0  0  0  0  0  0  0  0  0  0  0
    1.6385   -0.4517   -0.8867 O   0  0  0  0  0  0  0  0  0  0  0  0
    1.2810    0.4368    1.8184 C   0  0  0  0  0  0  0  0  0  0  0  0
    0.8089    0.8108    3.2233 C   0  0  0  0  0  0  0  0  0  0  0  0
    1.8832    0.5860    4.2580 C   0  0  0  0  0  0  0  0  0  0  0  0
    2.9540    0.0415    4.0214 O   0  0  0  0  0  0  0  0  0  0  0  0
    1.5293    1.0276    5.4902 O   0  0  0  0  0  0  0  0  0  0  0  0
   -0.6087   -1.2764    1.1771 H   0  0  0  0  0  0  0  0  0  0  0  0
   -0.2087    1.6396    0.8019 H   0  0  0  0  0  0  0  0  0  0  0  0
    1.6090   -0.6113    1.8200 H   0  0  0  0  0  0  0  0  0  0  0  0
    2.1666    1.0418    1.5831 H   0  0  0  0  0  0  0  0  0  0  0  0
    0.5555    1.8776    3.2555 H   0  0  0  0  0  0  0  0  0  0  0  0
   -0.1092    0.2829    3.5010 H   0  0  0  0  0  0  0  0  0  0  0  0
    2.1935    0.8833    6.1972 H   0  0  0  0  0  0  0  0  0  0  0  0
    0.0868    1.1069   -1.6334 N   0  0  0  0  0  0  0  0  0  0  0  0
    0.4063    1.0343   -3.0410 C   0  0  2  0  0  0  0  0  0  0  0  0
    1.4054    2.1403   -3.3542 C   0  0  0  0  0  0  0  0  0  0  0  0
    1.5301    3.1476   -2.6608 O   0  0  0  0  0  0  0  0  0  0  0  0
   -0.8417    1.1701   -3.8995 C   0  0  0  0  0  0  0  0  0  0  0  0
   -0.6543    1.7355   -1.3384 H   0  0  0  0  0  0  0  0  0  0  0  0
    0.8758    0.0589   -3.2088 H   0  0  0  0  0  0  0  0  0  0  0  0
   -1.3259    2.1412   -3.7449 H   0  0  0  0  0  0  0  0  0  0  0  0
   -0.6017    1.0863   -4.9645 H   0  0  0  0  0  0  0  0  0  0  0  0
   -1.5715    0.3917   -3.6521 H   0  0  0  0  0  0  0  0  0  0  0  0
    2.1111    1.8905   -4.5228 N   0  0  0  0  0  0  0  0  0  0  0  0
    3.1089    2.7977   -5.0400 C   0  0  0  0  0  0  0  0  0  0  0  0
    1.9564    1.0205   -5.0237 H   0  0  0  0  0  0  0  0  0  0  0  0
    2.6399    3.4917   -5.7530 H   0  0  0  0  0  0  0  0  0  0  0  0
    3.5510    3.3683   -4.2099 H   0  0  0  0  0  0  0  0  0  0  0  0
    3.8963    2.2240   -5.5508 H   0  0  0  0  0  0  0  0  0  0  0  0
  1  3  1  0  0  0  0
  1  7  1  0  0  0  0
  1  2  2  0  0  0  0
 34 35  1  0  0  0  0
 35 43  1  0  0  0  0
 35 36  2  0  0  0  0
  8  9  1  0  0  0  0
  9 17  1  0  0  0  0
  9 10  2  0  0  0  0
 18 19  1  0  0  0  0
 19 33  1  0  0  0  0
 19 20  2  0  0  0  0
 22 23  1  0  0  0  0
 23 24  2  0  0  0  0
 23 25  1  0  0  0  0
 34 37  1  0  0  0  0
  8 11  1  0  0  0  0
 43 44  1  0  0  0  0
 21 22  1  0  0  0  0
 18 21  1  0  0  0  0
 33 34  1  0  0  0  0
  7  8  1  0  0  0  0
 17 18  1  0  0  0  0
  3  4  1  0  0  0  0
  3  5  1  0  0  0  0
  3  6  1  0  0  0  0
 37 40  1  0  0  0  0
 37 41  1  0  0  0  0
 37 42  1  0  0  0  0
 11 14  1  0  0  0  0
 11 15  1  0  0  0  0
 11 16  1  0  0  0  0
 44 46  1  0  0  0  0
 44 47  1  0  0  0  0
 44 48  1  0  0  0  0
 22 30  1  0  0  0  0
 22 31  1  0  0  0  0
 21 28  1  0  0  0  0
 21 29  1  0  0  0  0
 34 39  1  0  0  0  0
  8 13  1  0  0  0  0
 18 27  1  0  0  0  0
 43 45  1  0  0  0  0
  7 12  1  0  0  0  0
 33 38  1  0  0  0  0
 17 26  1  0  0  0  0
 25 32  1  0  0  0  0
M  END
$$$$

  -OEChem-05262214473D

 48 47  0     1  0  0  0  0  0999 V2000
   -5.5827   -1.3473    1.4591 C   0  0  0  0  0  0  0  0  0  0  0  0
   -5.7053   -2.4696    0.9825 O   0  0  0  0  0  0  0  0  0  0  0  0
   -6.7879   -0.6277    1.9670 C   0  0  0  0  0  0  0  0  0  0  0  0
   -7.2718   -0.0164    1.1885 H   0  0  0  0  0  0  0  0  0  0  0  0
   -7.5699   -1.3171    2.3239 H   0  0  0  0  0  0  0  0  0  0  0  0
   -6.6057    0.0628    2.8060 H   0  0  0  0  0  0  0  0  0  0  0  0
   -4.4001   -0.6377    1.5884 N   0  0  0  0  0  0  0  0  0  0  0  0
   -3.1220   -1.1455    1.1644 C   0  0  2  0  0  0  0  0  0  0  0  0
   -2.2017    0.0428    0.9187 C   0  0  0  0  0  0  0  0  0  0  0  0
   -2.6171    1.1750    0.6807 O   0  0  0  0  0  0  0  0  0  0  0  0
   -3.2533   -1.9992   -0.0873 C   0  0  0  0  0  0  0  0  0  0  0  0
   -4.4370    0.2910    2.0047 H   0  0  0  0  0  0  0  0  0  0  0  0
   -2.7302   -1.7467    1.9921 H   0  0  0  0  0  0  0  0  0  0  0  0
   -3.6446   -1.4140   -0.9275 H   0  0  0  0  0  0  0  0  0  0  0  0
   -2.2844   -2.4081   -0.3922 H   0  0  0  0  0  0  0  0  0  0  0  0
   -3.9388   -2.8365    0.0822 H   0  0  0  0  0  0  0  0  0  0  0  0
   -0.8768   -0.3314    0.9568 N   0  0  0  0  0  0  0  0  0  0  0  0
    0.2067    0.6285    0.7375 C   0  0  2  0  0  0  0  0  0  0  0  0
    0.7424    0.3604   -0.6656 C   0  0  0  0  0  0  0  0  0  0  0  0
    1.4327   -0.6212   -0.9329 O   0  0  0  0  0  0  0  0  0  0  0  0
    1.2810    0.4368    1.8184 C   0  0  0  0  0  0  0  0  0  0  0  0
    0.8089    0.8108    3.2233 C   0  0  0  0  0  0  0  0  0  0  0  0
    1.8832    0.5860    4.2580 C   0  0  0  0  0  0  0  0  0  0  0  0
    2.9540    0.0415    4.0214 O   0  0  0  0  0  0  0  0  0  0  0  0
    1.5293    1.0276    5.4902 O   0  0  0  0  0  0  0  0  0  0  0  0
   -0.6087   -1.2764    1.1771 H   0  0  0  0  0  0  0  0  0  0  0  0
   -0.2087    1.6396    0.8019 H   0  0  0  0  0  0  0  0  0  0  0  0
    1.6090   -0.6113    1.8200 H   0  0  0  0  0  0  0  0  0  0  0  0
    2.1666    1.0418    1.5831 H   0  0  0  0  0  0  0  0  0  0  0  0
    0.5555    1.8776    3.2555 H   0  0  0  0  0  0  0  0  0  0  0  0
   -0.1092    0.2829    3.5010 H   0  0  0  0  0  0  0  0  0  0  0  0
    2.1935    0.8833    6.1972 H   0  0  0  0  0  0  0  0  0  0  0  0
    0.3372    1.3224   -1.5790 N   0  0  0  0  0  0  0  0  0  0  0  0
    0.7095    1.2956   -2.9752 C   0  0  2  0  0  0  0  0  0  0  0  0
    1.9574    2.1518   -3.1456 C   0  0  0  0  0  0  0  0  0  0  0  0
    2.2769    3.0368   -2.3545 O   0  0  0  0  0  0  0  0  0  0  0  0
   -0.4206    1.7999   -3.8590 C   0  0  0  0  0  0  0  0  0  0  0  0
   -0.2501    2.0830   -1.2505 H   0  0  0  0  0  0  0  0  0  0  0  0
    0.9444    0.2540   -3.2199 H   0  0  0  0  0  0  0  0  0  0  0  0
   -0.6700    2.8420   -3.6284 H   0  0  0  0  0  0  0  0  0  0  0  0
   -0.1474    1.7521   -4.9183 H   0  0  0  0  0  0  0  0  0  0  0  0
   -1.3263    1.2013   -3.7131 H   0  0  0  0  0  0  0  0  0  0  0  0
    2.6492    1.8406   -4.3078 N   0  0  0  0  0  0  0  0  0  0  0  0
    3.8604    2.5224   -4.7005 C   0  0  0  0  0  0  0  0  0  0  0  0
    2.3221    1.0793   -4.8953 H   0  0  0  0  0  0  0  0  0  0  0  0
    3.6094    3.3670   -5.3590 H   0  0  0  0  0  0  0  0  0  0  0  0
    4.3770    2.8971   -3.8045 H   0  0  0  0  0  0  0  0  0  0  0  0
    4.5177    1.8222   -5.2368 H   0  0  0  0  0  0  0  0  0  0  0  0
  1  3  1  0  0  0  0
  1  7  1  0  0  0  0
  1  2  2  0  0  0  0
 34 35  1  0  0  0  0
 35 43  1  0  0  0  0
 35 36  2  0  0  0  0
  8  9  1  0  0  0  0
  9 17  1  0  0  0  0
  9 10  2  0  0  0  0
 18 19  1  0  0  0  0
 19 33  1  0  0  0  0
 19 20  2  0  0  0  0
 22 23  1  0  0  0  0
 23 24  2  0  0  0  0
 23 25  1  0  0  0  0
 34 37  1  0  0  0  0
  8 11  1  0  0  0  0
 43 44  1  0  0  0  0
 21 22  1  0  0  0  0
 18 21  1  0  0  0  0
 33 34  1  0  0  0  0
  7  8  1  0  0  0  0
 17 18  1  0  0  0  0
  3  4  1  0  0  0  0
  3  5  1  0  0  0  0
  3  6  1  0  0  0  0
 37 40  1  0  0  0  0
 37 41  1  0  0  0  0
 37 42  1  0  0  0  0
 11 14  1  0  0  0  0
 11 15  1  0  0  0  0
 11 16  1  0  0  0  0
 44 46  1  0  0  0  0
 44 47  1  0  0  0  0
 44 48  1  0  0  0  0
 22 30  1  0  0  0  0
 22 31  1  0  0  0  0
 21 28  1  0  0  0  0
 21 29  1  0  0  0  0
 34 39  1  0  0  0  0
  8 13  1  0  0  0  0
 18 27  1  0  0  0  0
 43 45  1  0  0  0  0
  7 12  1  0  0  0  0
 33 38  1  0  0  0  0
 17 26  1  0  0  0  0
 25 32  1  0  0  0  0
M  END
$$$$

  -OEChem-05262214473D

 48 47  0     1  0  0  0  0  0999 V2000
   -5.5827   -1.3473    1.4591 C   0  0  0  0  0  0  0  0  0  0  0  0
   -5.7053   -2.4696    0.9825 O   0  0  0  0  0  0  0  0  0  0  0  0
   -6.7879   -0.6277    1.9670 C   0  0  0  0  0  0  0  0  0  0  0  0
   -7.2718   -0.0164    1.1885 H   0  0  0  0  0  0  0  0  0  0  0  0
   -7.5699   -1.3171    2.3239 H   0  0  0  0  0  0  0  0  0  0  0  0
   -6.6057    0.0628    2.8060 H   0  0  0  0  0  0  0  0  0  0  0  0
   -4.4001   -0.6377    1.5884 N   0  0  0  0  0  0  0  0  0  0  0  0
   -3.1220   -1.1455    1.1644 C   0  0  2  0  0  0  0  0  0  0  0  0
   -2.2017    0.0428    0.9187 C   0  0  0  0  0  0  0  0  0  0  0  0
   -2.6171    1.1750    0.6807 O   0  0  0  0  0  0  0  0  0  0  0  0
   -3.2533   -1.9992   -0.0873 C   0  0  0  0  0  0  0  0  0  0  0  0
   -4.4370    0.2910    2.0047 H   0  0  0  0  0  0  0  0  0  0  0  0
   -2.7302   -1.7467    1.9921 H   0  0  0  0  0  0  0  0  0  0  0  0
   -3.6446   -1.4140   -0.9275 H   0  0  0  0  0  0  0  0  0  0  0  0
   -2.2844   -2.4081   -0.3922 H   0  0  0  0  0  0  0  0  0  0  0  0
   -3.9388   -2.8365    0.0822 H   0  0  0  0  0  0  0  0  0  0  0  0
   -0.8768   -0.3314    0.9568 N   0  0  0  0  0  0  0  0  0  0  0  0
    0.2067    0.6285    0.7375 C   0  0  2  0  0  0  0  0  0  0  0  0
    0.7424    0.3604   -0.6656 C   0  0  0  0  0  0  0  0  0  0  0  0
    1.1956   -0.7318   -1.0023 O   0  0  0  0  0  0  0  0  0  0  0  0
    1.2810    0.4368    1.8184 C   0  0  0  0  0  0  0  0  0  0  0  0
    0.8089    0.8108    3.2233 C   0  0  0  0  0  0  0  0  0  0  0  0
    1.8832    0.5860    4.2580 C   0  0  0  0  0  0  0  0  0  0  0  0
    2.9540    0.0415    4.0214 O   0  0  0  0  0  0  0  0  0  0  0  0
    1.5293    1.0276    5.4902 O   0  0  0  0  0  0  0  0  0  0  0  0
   -0.6087   -1.2764    1.1771 H   0  0  0  0  0  0  0  0  0  0  0  0
   -0.2087    1.6396    0.8019 H   0  0  0  0  0  0  0  0  0  0  0  0
    1.6090   -0.6113    1.8200 H   0  0  0  0  0  0  0  0  0  0  0  0
    2.1666    1.0418    1.5831 H   0  0  0  0  0  0  0  0  0  0  0  0
    0.5555    1.8776    3.2555 H   0  0  0  0  0  0  0  0  0  0  0  0
   -0.1092    0.2829    3.5010 H   0  0  0  0  0  0  0  0  0  0  0  0
    2.1935    0.8833    6.1972 H   0  0  0  0  0  0  0  0  0  0  0  0
    0.6278    1.4659   -1.4955 N   0  0  0  0  0  0  0  0  0  0  0  0
    1.0616    1.4698   -2.8740 C   0  0  2  0  0  0  0  0  0  0  0  0
    2.4839    2.0127   -2.9180 C   0  0  0  0  0  0  0  0  0  0  0  0
    2.9579    2.7241   -2.0347 O   0  0  0  0  0  0  0  0  0  0  0  0
    0.1342    2.3042   -3.7436 C   0  0  0  0  0  0  0  0  0  0  0  0
    0.2190    2.3143   -1.1156 H   0  0  0  0  0  0  0  0  0  0  0  0
    1.0576    0.4270   -3.2098 H   0  0  0  0  0  0  0  0  0  0  0  0
    0.1250    3.3522   -3.4223 H   0  0  0  0  0  0  0  0  0  0  0  0
    0.4478    2.2829   -4.7925 H   0  0  0  0  0  0  0  0  0  0  0  0
   -0.8939    1.9304   -3.6874 H   0  0  0  0  0  0  0  0  0  0  0  0
    3.1472    1.6448   -4.0803 N   0  0  0  0  0  0  0  0  0  0  0  0
    4.5053    2.0467   -4.3633 C   0  0  0  0  0  0  0  0  0  0  0  0
    2.6835    1.0373   -4.7493 H   0  0  0  0  0  0  0  0  0  0  0  0
    4.4982    2.9799   -4.9457 H   0  0  0  0  0  0  0  0  0  0  0  0
    5.0442    2.2086   -3.4181 H   0  0  0  0  0  0  0  0  0  0  0  0
    5.0081    1.2576   -4.9416 H   0  0  0  0  0  0  0  0  0  0  0  0
  1  3  1  0  0  0  0
  1  7  1  0  0  0  0
  1  2  2  0  0  0  0
 34 35  1  0  0  0  0
 35 43  1  0  0  0  0
 35 36  2  0  0  0  0
  8  9  1  0  0  0  0
  9 17  1  0  0  0  0
  9 10  2  0  0  0  0
 18 19  1  0  0  0  0
 19 33  1  0  0  0  0
 19 20  2  0  0  0  0
 22 23  1  0  0  0  0
 23 24  2  0  0  0  0
 23 25  1  0  0  0  0
 34 37  1  0  0  0  0
  8 11  1  0  0  0  0
 43 44  1  0  0  0  0
 21 22  1  0  0  0  0
 18 21  1  0  0  0  0
 33 34  1  0  0  0  0
  7  8  1  0  0  0  0
 17 18  1  0  0  0  0
  3  4  1  0  0  0  0
  3  5  1  0  0  0  0
  3  6  1  0  0  0  0
 37 40  1  0  0  0  0
 37 41  1  0  0  0  0
 37 42  1  0  0  0  0
 11 14  1  0  0  0  0
 11 15  1  0  0  0  0
 11 16  1  0  0  0  0
 44 46  1  0  0  0  0
 44 47  1  0  0  0  0
 44 48  1  0  0  0  0
 22 30  1  0  0  0  0
 22 31  1  0  0  0  0
 21 28  1  0  0  0  0
 21 29  1  0  0  0  0
 34 39  1  0  0  0  0
  8 13  1  0  0  0  0
 18 27  1  0  0  0  0
 43 45  1  0  0  0  0
  7 12  1  0  0  0  0
 33 38  1  0  0  0  0
 17 26  1  0  0  0  0
 25 32  1  0  0  0  0
M  END
$$$$

  -OEChem-05262214473D

 48 47  0     1  0  0  0  0  0999 V2000
   -5.5827   -1.3473    1.4591 C   0  0  0  0  0  0  0  0  0  0  0  0
   -5.7053   -2.4696    0.9825 O   0  0  0  0  0  0  0  0  0  0  0  0
   -6.7879   -0.6277    1.9670 C   0  0  0  0  0  0  0  0  0  0  0  0
   -7.2718   -0.0164    1.1885 H   0  0  0  0  0  0  0  0  0  0  0  0
   -7.5699   -1.3171    2.3239 H   0  0  0  0  0  0  0  0  0  0  0  0
   -6.6057    0.0628    2.8060 H   0  0  0  0  0  0  0  0  0  0  0  0
   -4.4001   -0.6377    1.5884 N   0  0  0  0  0  0  0  0  0  0  0  0
   -3.1220   -1.1455    1.1644 C   0  0  2  0  0  0  0  0  0  0  0  0
   -2.2017    0.0428    0.9187 C   0  0  0  0  0  0  0  0  0  0  0  0
   -2.6171    1.1750    0.6807 O   0  0  0  0  0  0  0  0  0  0  0  0
   -3.2533   -1.9992   -0.0873 C   0  0  0  0  0  0  0  0  0  0  0  0
   -4.4370    0.2910    2.0047 H   0  0  0  0  0  0  0  0  0  0  0  0
   -2.7302   -1.7467    1.9921 H   0  0  0  0  0  0  0  0  0  0  0  0
   -3.6446   -1.4140   -0.9275 H   0  0  0  0  0  0  0  0  0  0  0  0
   -2.2844   -2.4081   -0.3922 H   0  0  0  0  0  0  0  0  0  0  0  0
   -3.9388   -2.8365    0.0822 H   0  0  0  0  0  0  0  0  0  0  0  0
   -0.8768   -0.3314    0.9568 N   0  0  0  0  0  0  0  0  0  0  0  0
    0.2067    0.6285    0.7375 C   0  0  2  0  0  0  0  0  0  0  0  0
    0.7424    0.3604   -0.6656 C   0  0  0  0  0  0  0  0  0  0  0  0
    0.9434   -0.7758   -1.0902 O   0  0  0  0  0  0  0  0  0  0  0  0
    1.2810    0.4368    1.8184 C   0  0  0  0  0  0  0  0  0  0  0  0
    0.8089    0.8108    3.2233 C   0  0  0  0  0  0  0  0  0  0  0  0
    1.8832    0.5860    4.2580 C   0  0  0  0  0  0  0  0  0  0  0  0
    2.9540    0.0415    4.0214 O   0  0  0  0  0  0  0  0  0  0  0  0
    1.5293    1.0276    5.4902 O   0  0  0  0  0  0  0  0  0  0  0  0
   -0.6087   -1.2764    1.1771 H   0  0  0  0  0  0  0  0  0  0  0  0
   -0.2087    1.6396    0.8019 H   0  0  0  0  0  0  0  0  0  0  0  0
    1.6090   -0.6113    1.8200 H   0  0  0  0  0  0  0  0  0  0  0  0
    2.1666    1.0418    1.5831 H   0  0  0  0  0  0  0  0  0  0  0  0
    0.5555    1.8776    3.2555 H   0  0  0  0  0  0  0  0  0  0  0  0
   -0.1092    0.2829    3.5010 H   0  0  0  0  0  0  0  0  0  0  0  0
    2.1935    0.8833    6.1972 H   0  0  0  0  0  0  0  0  0  0  0  0
    0.9389    1.5277   -1.3885 N   0  0  0  0  0  0  0  0  0  0  0  0
    1.4386    1.5450   -2.7445 C   0  0  2  0  0  0  0  0  0  0  0  0
    2.9489    1.7322   -2.6868 C   0  0  0  0  0  0  0  0  0  0  0  0
    3.5267    2.2309   -1.7233 O   0  0  0  0  0  0  0  0  0  0  0  0
    0.7848    2.6489   -3.5611 C   0  0  0  0  0  0  0  0  0  0  0  0
    0.7210    2.4139   -0.9430 H   0  0  0  0  0  0  0  0  0  0  0  0
    1.2076    0.5664   -3.1791 H   0  0  0  0  0  0  0  0  0  0  0  0
    1.0051    3.6370   -3.1407 H   0  0  0  0  0  0  0  0  0  0  0  0
    1.1433    2.6425   -4.5957 H   0  0  0  0  0  0  0  0  0  0  0  0
   -0.3039    2.5295   -3.5766 H   0  0  0  0  0  0  0  0  0  0  0  0
    3.5713    1.3165   -3.8556 N   0  0  0  0  0  0  0  0  0  0  0  0
    4.9996    1.4031   -4.0516 C   0  0  0  0  0  0  0  0  0  0  0  0
    3.0159    0.8975   -4.5957 H   0  0  0  0  0  0  0  0  0  0  0  0
    5.2459    2.3569   -4.5412 H   0  0  0  0  0  0  0  0  0  0  0  0
    5.5072    1.3495   -3.0772 H   0  0  0  0  0  0  0  0  0  0  0  0
    5.3339    0.5687   -4.6856 H   0  0  0  0  0  0  0  0  0  0  0  0
  1  3  1  0  0  0  0
  1  7  1  0  0  0  0
  1  2  2  0  0  0  0
 34 35  1  0  0  0  0
 35 43  1  0  0  0  0
 35 36  2  0  0  0  0
  8  9  1  0  0  0  0
  9 17  1  0  0  0  0
  9 10  2  0  0  0  0
 18 19  1  0  0  0  0
 19 33  1  0  0  0  0
 19 20  2  0  0  0  0
 22 23  1  0  0  0  0
 23 24  2  0  0  0  0
 23 25  1  0  0  0  0
 34 37  1  0  0  0  0
  8 11  1  0  0  0  0
 43 44  1  0  0  0  0
 21 22  1  0  0  0  0
 18 21  1  0  0  0  0
 33 34  1  0  0  0  0
  7  8  1  0  0  0  0
 17 18  1  0  0  0  0
  3  4  1  0  0  0  0
  3  5  1  0  0  0  0
  3  6  1  0  0  0  0
 37 40  1  0  0  0  0
 37 41  1  0  0  0  0
 37 42  1  0  0  0  0
 11 14  1  0  0  0  0
 11 15  1  0  0  0  0
 11 16  1  0  0  0  0
 44 46  1  0  0  0  0
 44 47  1  0  0  0  0
 44 48  1  0  0  0  0
 22 30  1  0  0  0  0
 22 31  1  0  0  0  0
 21 28  1  0  0  0  0
 21 29  1  0  0  0  0
 34 39  1  0  0  0  0
  8 13  1  0  0  0  0
 18 27  1  0  0  0  0
 43 45  1  0  0  0  0
  7 12  1  0  0  0  0
 33 38  1  0  0  0  0
 17 26  1  0  0  0  0
 25 32  1  0  0  0  0
M  END
$$$$

  -OEChem-05262214473D

 48 47  0     1  0  0  0  0  0999 V2000
   -5.5827   -1.3473    1.4591 C   0  0  0  0  0  0  0  0  0  0  0  0
   -5.7053   -2.4696    0.9825 O   0  0  0  0  0  0  0  0  0  0  0  0
   -6.7879   -0.6277    1.9670 C   0  0  0  0  0  0  0  0  0  0  0  0
   -7.2718   -0.0164    1.1885 H   0  0  0  0  0  0  0  0  0  0  0  0
   -7.5699   -1.3171    2.3239 H   0  0  0  0  0  0  0  0  0  0  0  0
   -6.6057    0.0628    2.8060 H   0  0  0  0  0  0  0  0  0  0  0  0
   -4.4001   -0.6377    1.5884 N   0  0  0  0  0  0  0  0  0  0  0  0
   -3.1220   -1.1455    1.1644 C   0  0  2  0  0  0  0  0  0  0  0  0
   -2.2017    0.0428    0.9187 C   0  0  0  0  0  0  0  0  0  0  0  0
   -2.6171    1.1750    0.6807 O   0  0  0  0  0  0  0  0  0  0  0  0
   -3.2533   -1.9992   -0.0873 C   0  0  0  0  0  0  0  0  0  0  0  0
   -4.4370    0.2910    2.0047 H   0  0  0  0  0  0  0  0  0  0  0  0
   -2.7302   -1.7467    1.9921 H   0  0  0  0  0  0  0  0  0  0  0  0
   -3.6446   -1.4140   -0.9275 H   0  0  0  0  0  0  0  0  0  0  0  0
   -2.2844   -2.4081   -0.3922 H   0  0  0  0  0  0  0  0  0  0  0  0
   -3.9388   -2.8365    0.0822 H   0  0  0  0  0  0  0  0  0  0  0  0
   -0.8768   -0.3314    0.9568 N   0  0  0  0  0  0  0  0  0  0  0  0
    0.2067    0.6285    0.7375 C   0  0  2  0  0  0  0  0  0  0  0  0
    0.7424    0.3604   -0.6656 C   0  0  0  0  0  0  0  0  0  0  0  0
    0.6933   -0.7503   -1.1906 O   0  0  0  0  0  0  0  0  0  0  0  0
    1.2810    0.4368    1.8184 C   0  0  0  0  0  0  0  0  0  0  0  0
    0.8089    0.8108    3.2233 C   0  0  0  0  0  0  0  0  0  0  0  0
    1.8832    0.5860    4.2580 C   0  0  0  0  0  0  0  0  0  0  0  0
    2.9540    0.0415    4.0214 O   0  0  0  0  0  0  0  0  0  0  0  0
    1.5293    1.0276    5.4902 O   0  0  0  0  0  0  0  0  0  0  0  0
   -0.6087   -1.2764    1.1771 H   0  0  0  0  0  0  0  0  0  0  0  0
   -0.2087    1.6396    0.8019 H   0  0  0  0  0  0  0  0  0  0  0  0
    1.6090   -0.6113    1.8200 H   0  0  0  0  0  0  0  0  0  0  0  0
    2.1666    1.0418    1.5831 H   0  0  0  0  0  0  0  0  0  0  0  0
    0.5555    1.8776    3.2555 H   0  0  0  0  0  0  0  0  0  0  0  0
   -0.1092    0.2829    3.5010 H   0  0  0  0  0  0  0  0  0  0  0  0
    2.1935    0.8833    6.1972 H   0  0  0  0  0  0  0  0  0  0  0  0
    1.2493    1.5037   -1.2654 N   0  0  0  0  0  0  0  0  0  0  0  0
    1.8147    1.5162   -2.5954 C   0  0  2  0  0  0  0  0  0  0  0  0
    3.3209    1.3296   -2.4679 C   0  0  0  0  0  0  0  0  0  0  0  0
    3.9446    1.5909   -1.4414 O   0  0  0  0  0  0  0  0  0  0  0  0
    1.4871    2.8103   -3.3238 C   0  0  0  0  0  0  0  0  0  0  0  0
    1.2218    2.3749   -0.7443 H   0  0  0  0  0  0  0  0  0  0  0  0
    1.3843    0.6624   -3.1300 H   0  0  0  0  0  0  0  0  0  0  0  0
    1.9101    3.6770   -2.8028 H   0  0  0  0  0  0  0  0  0  0  0  0
    1.8918    2.8064   -4.3412 H   0  0  0  0  0  0  0  0  0  0  0  0
    0.4036    2.9577   -3.3883 H   0  0  0  0  0  0  0  0  0  0  0  0
    3.8926    0.8779   -3.6491 N   0  0  0  0  0  0  0  0  0  0  0  0
    5.3098    0.6355   -3.7864 C   0  0  0  0  0  0  0  0  0  0  0  0
    3.2968    0.6693   -4.4448 H   0  0  0  0  0  0  0  0  0  0  0  0
    5.8013    1.5404   -4.1730 H   0  0  0  0  0  0  0  0  0  0  0  0
    5.7345    0.3786   -2.8048 H   0  0  0  0  0  0  0  0  0  0  0  0
    5.4730   -0.1976   -4.4860 H   0  0  0  0  0  0  0  0  0  0  0  0
  1  3  1  0  0  0  0
  1  7  1  0  0  0  0
  1  2  2  0  0  0  0
 34 35  1  0  0  0  0
 35 43  1  0  0  0  0
 35 36  2  0  0  0  0
  8  9  1  0  0  0  0
  9 17  1  0  0  0  0
  9 10  2  0  0  0  0
 18 19  1  0  0  0  0
 19 33  1  0  0  0  0
 19 20  2  0  0  0  0
 22 23  1  0  0  0  0
 23 24  2  0  0  0  0
 23 25  1  0  0  0  0
 34 37  1  0  0  0  0
  8 11  1  0  0  0  0
 43 44  1  0  0  0  0
 21 22  1  0  0  0  0
 18 21  1  0  0  0  0
 33 34  1  0  0  0  0
  7  8  1  0  0  0  0
 17 18  1  0  0  0  0
  3  4  1  0  0  0  0
  3  5  1  0  0  0  0
  3  6  1  0  0  0  0
 37 40  1  0  0  0  0
 37 41  1  0  0  0  0
 37 42  1  0  0  0  0
 11 14  1  0  0  0  0
 11 15  1  0  0  0  0
 11 16  1  0  0  0  0
 44 46  1  0  0  0  0
 44 47  1  0  0  0  0
 44 48  1  0  0  0  0
 22 30  1  0  0  0  0
 22 31  1  0  0  0  0
 21 28  1  0  0  0  0
 21 29  1  0  0  0  0
 34 39  1  0  0  0  0
  8 13  1  0  0  0  0
 18 27  1  0  0  0  0
 43 45  1  0  0  0  0
  7 12  1  0  0  0  0
 33 38  1  0  0  0  0
 17 26  1  0  0  0  0
 25 32  1  0  0  0  0
M  END
$$$$

  -OEChem-05262214473D

 48 47  0     1  0  0  0  0  0999 V2000
   -5.5827   -1.3473    1.4591 C   0  0  0  0  0  0  0  0  0  0  0  0
   -5.7053   -2.4696    0.9825 O   0  0  0  0  0  0  0  0  0  0  0  0
   -6.7879   -0.6277    1.9670 C   0  0  0  0  0  0  0  0  0  0  0  0
   -7.2718   -0.0164    1.1885 H   0  0  0  0  0  0  0  0  0  0  0  0
   -7.5699   -1.3171    2.3239 H   0  0  0  0  0  0  0  0  0  0  0  0
   -6.6057    0.0628    2.8060 H   0  0  0  0  0  0  0  0  0  0  0  0
   -4.4001   -0.6377    1.5884 N   0  0  0  0  0  0  0  0  0  0  0  0
   -3.1220   -1.1455    1.1644 C   0  0  2  0  0  0  0  0  0  0  0  0
   -2.2017    0.0428    0.9187 C   0  0  0  0  0  0  0  0  0  0  0  0
   -2.6171    1.1750    0.6807 O   0  0  0  0  0  0  0  0  0  0  0  0
   -3.2533   -1.9992   -0.0873 C   0  0  0  0  0  0  0  0  0  0  0  0
   -4.4370    0.2910    2.0047 H   0  0  0  0  0  0  0  0  0  0  0  0
   -2.7302   -1.7467    1.9921 H   0  0  0  0  0  0  0  0  0  0  0  0
   -3.6446   -1.4140   -0.9275 H   0  0  0  0  0  0  0  0  0  0  0  0
   -2.2844   -2.4081   -0.3922 H   0  0  0  0  0  0  0  0  0  0  0  0
   -3.9388   -2.8365    0.0822 H   0  0  0  0  0  0  0  0  0  0  0  0
   -0.8768   -0.3314    0.9568 N   0  0  0  0  0  0  0  0  0  0  0  0
    0.2067    0.6285    0.7375 C   0  0  2  0  0  0  0  0  0  0  0  0
    0.7424    0.3604   -0.6656 C   0  0  0  0  0  0  0  0  0  0  0  0
    0.4624   -0.6570   -1.2965 O   0  0  0  0  0  0  0  0  0  0  0  0
    1.2810    0.4368    1.8184 C   0  0  0  0  0  0  0  0  0  0  0  0
    0.8089    0.8108    3.2233 C   0  0  0  0  0  0  0  0  0  0  0  0
    1.8832    0.5860    4.2580 C   0  0  0  0  0  0  0  0  0  0  0  0
    2.9540    0.0415    4.0214 O   0  0  0  0  0  0  0  0  0  0  0  0
    1.5293    1.0276    5.4902 O   0  0  0  0  0  0  0  0  0  0  0  0
   -0.6087   -1.2764    1.1771 H   0  0  0  0  0  0  0  0  0  0  0  0
   -0.2087    1.6396    0.8019 H   0  0  0  0  0  0  0  0  0  0  0  0
    1.6090   -0.6113    1.8200 H   0  0  0  0  0  0  0  0  0  0  0  0
    2.1666    1.0418    1.5831 H   0  0  0  0  0  0  0  0  0  0  0  0
    0.5555    1.8776    3.2555 H   0  0  0  0  0  0  0  0  0  0  0  0
   -0.1092    0.2829    3.5010 H   0  0  0  0  0  0  0  0  0  0  0  0
    2.1935    0.8833    6.1972 H   0  0  0  0  0  0  0  0  0  0  0  0
    1.5378    1.3954   -1.1345 N   0  0  0  0  0  0  0  0  0  0  0  0
    2.1644    1.3853   -2.4368 C   0  0  2  0  0  0  0  0  0  0  0  0
    3.5743    0.8323   -2.2761 C   0  0  0  0  0  0  0  0  0  0  0  0
    4.1831    0.8475   -1.2082 O   0  0  0  0  0  0  0  0  0  0  0  0
    2.1930    2.7775   -3.0480 C   0  0  0  0  0  0  0  0  0  0  0  0
    1.6872    2.2000   -0.5332 H   0  0  0  0  0  0  0  0  0  0  0  0
    1.5756    0.7087   -3.0658 H   0  0  0  0  0  0  0  0  0  0  0  0
    2.7784    3.4695   -2.4316 H   0  0  0  0  0  0  0  0  0  0  0  0
    2.6422    2.7634   -4.0465 H   0  0  0  0  0  0  0  0  0  0  0  0
    1.1803    3.1857   -3.1354 H   0  0  0  0  0  0  0  0  0  0  0  0
    4.0892    0.3591   -3.4749 N   0  0  0  0  0  0  0  0  0  0  0  0
    5.4145   -0.2039   -3.5860 C   0  0  0  0  0  0  0  0  0  0  0  0
    3.5069    0.3684   -4.3071 H   0  0  0  0  0  0  0  0  0  0  0  0
    6.1268    0.5861   -3.8664 H   0  0  0  0  0  0  0  0  0  0  0  0
    5.7105   -0.6382   -2.6197 H   0  0  0  0  0  0  0  0  0  0  0  0
    5.4159   -0.9889   -4.3566 H   0  0  0  0  0  0  0  0  0  0  0  0
  1  3  1  0  0  0  0
  1  7  1  0  0  0  0
  1  2  2  0  0  0  0
 34 35  1  0  0  0  0
 35 43  1  0  0  0  0
 35 36  2  0  0  0  0
  8  9  1  0  0  0  0
  9 17  1  0  0  0  0
  9 10  2  0  0  0  0
 18 19  1  0  0  0  0
 19 33  1  0  0  0  0
 19 20  2  0  0  0  0
 22 23  1  0  0  0  0
 23 24  2  0  0  0  0
 23 25  1  0  0  0  0
 34 37  1  0  0  0  0
  8 11  1  0  0  0  0
 43 44  1  0  0  0  0
 21 22  1  0  0  0  0
 18 21  1  0  0  0  0
 33 34  1  0  0  0  0
  7  8  1  0  0  0  0
 17 18  1  0  0  0  0
  3  4  1  0  0  0  0
  3  5  1  0  0  0  0
  3  6  1  0  0  0  0
 37 40  1  0  0  0  0
 37 41  1  0  0  0  0
 37 42  1  0  0  0  0
 11 14  1  0  0  0  0
 11 15  1  0  0  0  0
 11 16  1  0  0  0  0
 44 46  1  0  0  0  0
 44 47  1  0  0  0  0
 44 48  1  0  0  0  0
 22 30  1  0  0  0  0
 22 31  1  0  0  0  0
 21 28  1  0  0  0  0
 21 29  1  0  0  0  0
 34 39  1  0  0  0  0
  8 13  1  0  0  0  0
 18 27  1  0  0  0  0
 43 45  1  0  0  0  0
  7 12  1  0  0  0  0
 33 38  1  0  0  0  0
 17 26  1  0  0  0  0
 25 32  1  0  0  0  0
M  END
$$$$

  -OEChem-05262214473D

 48 47  0     1  0  0  0  0  0999 V2000
   -5.5827   -1.3473    1.4591 C   0  0  0  0  0  0  0  0  0  0  0  0
   -5.7053   -2.4696    0.9825 O   0  0  0  0  0  0  0  0  0  0  0  0
   -6.7879   -0.6277    1.9670 C   0  0  0  0  0  0  0  0  0  0  0  0
   -7.2718   -0.0164    1.1885 H   0  0  0  0  0  0  0  0  0  0  0  0
   -7.5699   -1.3171    2.3239 H   0  0  0  0  0  0  0  0  0  0  0  0
   -6.6057    0.0628    2.8060 H   0  0  0  0  0  0  0  0  0  0  0  0
   -4.4001   -0.6377    1.5884 N   0  0  0  0  0  0  0  0  0  0  0  0
   -3.1220   -1.1455    1.1644 C   0  0  2  0  0  0  0  0  0  0  0  0
   -2.2017    0.0428    0.9187 C   0  0  0  0  0  0  0  0  0  0  0  0
   -2.6171    1.1750    0.6807 O   0  0  0  0  0  0  0  0  0  0  0  0
   -3.2533   -1.9992   -0.0873 C   0  0  0  0  0  0  0  0  0  0  0  0
   -4.4370    0.2910    2.0047 H   0  0  0  0  0  0  0  0  0  0  0  0
   -2.7302   -1.7467    1.9921 H   0  0  0  0  0  0  0  0  0  0  0  0
   -3.6446   -1.4140   -0.9275 H   0  0  0  0  0  0  0  0  0  0  0  0
   -2.2844   -2.4081   -0.3922 H   0  0  0  0  0  0  0  0  0  0  0  0
   -3.9388   -2.8365    0.0822 H   0  0  0  0  0  0  0  0  0  0  0  0
   -0.8768   -0.3314    0.9568 N   0  0  0  0  0  0  0  0  0  0  0  0
    0.2067    0.6285    0.7375 C   0  0  2  0  0  0  0  0  0  0  0  0
    0.4865    0.6271   -0.7623 C   0  0  0  0  0  0  0  0  0  0  0  0
   -0.1519   -0.0649   -1.5529 O   0  0  0  0  0  0  0  0  0  0  0  0
    1.4332    0.2060    1.5599 C   0  0  0  0  0  0  0  0  0  0  0  0
    1.2222    0.3095    3.0703 C   0  0  0  0  0  0  0  0  0  0  0  0
    2.4391   -0.1365    3.8419 C   0  0  0  0  0  0  0  0  0  0  0  0
    3.4241   -0.6482    3.3249 O   0  0  0  0  0  0  0  0  0  0  0  0
    2.3195    0.0642    5.1775 O   0  0  0  0  0  0  0  0  0  0  0  0
   -0.6087   -1.2764    1.1771 H   0  0  0  0  0  0  0  0  0  0  0  0
   -0.1357    1.6166    1.0621 H   0  0  0  0  0  0  0  0  0  0  0  0
    1.6984   -0.8294    1.3073 H   0  0  0  0  0  0  0  0  0  0  0  0
    2.2995    0.8254    1.2927 H   0  0  0  0  0  0  0  0  0  0  0  0
    1.0370    1.3548    3.3462 H   0  0  0  0  0  0  0  0  0  0  0  0
    0.3351   -0.2419    3.3987 H   0  0  0  0  0  0  0  0  0  0  0  0
    3.0829   -0.2298    5.7186 H   0  0  0  0  0  0  0  0  0  0  0  0
    1.5035    1.5035   -1.1111 N   0  0  0  0  0  0  0  0  0  0  0  0
    1.9578    1.6887   -2.4705 C   0  0  2  0  0  0  0  0  0  0  0  0
    3.1439    0.7613   -2.7004 C   0  0  0  0  0  0  0  0  0  0  0  0
    3.8371    0.3197   -1.7864 O   0  0  0  0  0  0  0  0  0  0  0  0
    2.3411    3.1367   -2.7334 C   0  0  0  0  0  0  0  0  0  0  0  0
    1.9508    2.0414   -0.3751 H   0  0  0  0  0  0  0  0  0  0  0  0
    1.1299    1.3925   -3.1238 H   0  0  0  0  0  0  0  0  0  0  0  0
    3.1692    3.4515   -2.0880 H   0  0  0  0  0  0  0  0  0  0  0  0
    2.6579    3.2810   -3.7716 H   0  0  0  0  0  0  0  0  0  0  0  0
    1.4954    3.8051   -2.5389 H   0  0  0  0  0  0  0  0  0  0  0  0
    3.3634    0.5194   -4.0493 N   0  0  0  0  0  0  0  0  0  0  0  0
    4.4378   -0.3197   -4.5261 C   0  0  0  0  0  0  0  0  0  0  0  0
    2.7273    0.9116   -4.7373 H   0  0  0  0  0  0  0  0  0  0  0  0
    5.3218    0.3000   -4.7372 H   0  0  0  0  0  0  0  0  0  0  0  0
    4.6885   -1.0661   -3.7580 H   0  0  0  0  0  0  0  0  0  0  0  0
    4.1215   -0.8327   -5.4464 H   0  0  0  0  0  0  0  0  0  0  0  0
  1  3  1  0  0  0  0
  1  7  1  0  0  0  0
  1  2  2  0  0  0  0
 34 35  1  0  0  0  0
 35 43  1  0  0  0  0
 35 36  2  0  0  0  0
  8  9  1  0  0  0  0
  9 17  1  0  0  0  0
  9 10  2  0  0  0  0
 18 19  1  0  0  0  0
 19 33  1  0  0  0  0
 19 20  2  0  0  0  0
 22 23  1  0  0  0  0
 23 24  2  0  0  0  0
 23 25  1  0  0  0  0
 34 37  1  0  0  0  0
  8 11  1  0  0  0  0
 43 44  1  0  0  0  0
 21 22  1  0  0  0  0
 18 21  1  0  0  0  0
 33 34  1  0  0  0  0
  7  8  1  0  0  0  0
 17 18  1  0  0  0  0
  3  4  1  0  0  0  0
  3  5  1  0  0  0  0
  3  6  1  0  0  0  0
 37 40  1  0  0  0  0
 37 41  1  0  0  0  0
 37 42  1  0  0  0  0
 11 14  1  0  0  0  0
 11 15  1  0  0  0  0
 11 16  1  0  0  0  0
 44 46  1  0  0  0  0
 44 47  1  0  0  0  0
 44 48  1  0  0  0  0
 22 30  1  0  0  0  0
 22 31  1  0  0  0  0
 21 28  1  0  0  0  0
 21 29  1  0  0  0  0
 34 39  1  0  0  0  0
  8 13  1  0  0  0  0
 18 27  1  0  0  0  0
 43 45  1  0  0  0  0
  7 12  1  0  0  0  0
 33 38  1  0  0  0  0
 17 26  1  0  0  0  0
 25 32  1  0  0  0  0
M  END
$$$$

  -OEChem-05262214473D

 48 47  0     1  0  0  0  0  0999 V2000
   -5.5827   -1.3473    1.4591 C   0  0  0  0  0  0  0  0  0  0  0  0
   -5.7053   -2.4696    0.9825 O   0  0  0  0  0  0  0  0  0  0  0  0
   -6.7879   -0.6277    1.9670 C   0  0  0  0  0  0  0  0  0  0  0  0
   -7.2718   -0.0164    1.1885 H   0  0  0  0  0  0  0  0  0  0  0  0
   -7.5699   -1.3171    2.3239 H   0  0  0  0  0  0  0  0  0  0  0  0
   -6.6057    0.0628    2.8060 H   0  0  0  0  0  0  0  0  0  0  0  0
   -4.4001   -0.6377    1.5884 N   0  0  0  0  0  0  0  0  0  0  0  0
   -3.1220   -1.1455    1.1644 C   0  0  2  0  0  0  0  0  0  0  0  0
   -2.2017    0.0428    0.9187 C   0  0  0  0  0  0  0  0  0  0  0  0
   -2.6171    1.1750    0.6807 O   0  0  0  0  0  0  0  0  0  0  0  0
   -3.2533   -1.9992   -0.0873 C   0  0  0  0  0  0  0  0  0  0  0  0
   -4.4370    0.2910    2.0047 H   0  0  0  0  0  0  0  0  0  0  0  0
   -2.7302   -1.7467    1.9921 H   0  0  0  0  0  0  0  0  0  0  0  0
   -3.6446   -1.4140   -0.9275 H   0  0  0  0  0  0  0  0  0  0  0  0
   -2.2844   -2.4081   -0.3922 H   0  0  0  0  0  0  0  0  0  0  0  0
   -3.9388   -2.8365    0.0822 H   0  0  0  0  0  0  0  0  0  0  0  0
   -0.8768   -0.3314    0.9568 N   0  0  0  0  0  0  0  0  0  0  0  0
    0.2067    0.6285    0.7375 C   0  0  2  0  0  0  0  0  0  0  0  0
    0.4865    0.6271   -0.7623 C   0  0  0  0  0  0  0  0  0  0  0  0
   -0.3019    0.1586   -1.5811 O   0  0  0  0  0  0  0  0  0  0  0  0
    1.4332    0.2060    1.5599 C   0  0  0  0  0  0  0  0  0  0  0  0
    1.2222    0.3095    3.0703 C   0  0  0  0  0  0  0  0  0  0  0  0
    2.4391   -0.1365    3.8419 C   0  0  0  0  0  0  0  0  0  0  0  0
    3.4241   -0.6482    3.3249 O   0  0  0  0  0  0  0  0  0  0  0  0
    2.3195    0.0642    5.1775 O   0  0  0  0  0  0  0  0  0  0  0  0
   -0.6087   -1.2764    1.1771 H   0  0  0  0  0  0  0  0  0  0  0  0
   -0.1357    1.6166    1.0621 H   0  0  0  0  0  0  0  0  0  0  0  0
    1.6984   -0.8294    1.3073 H   0  0  0  0  0  0  0  0  0  0  0  0
    2.2995    0.8254    1.2927 H   0  0  0  0  0  0  0  0  0  0  0  0
    1.0370    1.3548    3.3462 H   0  0  0  0  0  0  0  0  0  0  0  0
    0.3351   -0.2419    3.3987 H   0  0  0  0  0  0  0  0  0  0  0  0
    3.0829   -0.2298    5.7186 H   0  0  0  0  0  0  0  0  0  0  0  0
    1.6952    1.2314   -1.0751 N   0  0  0  0  0  0  0  0  0  0  0  0
    2.1904    1.3592   -2.4268 C   0  0  2  0  0  0  0  0  0  0  0  0
    3.1029    0.1726   -2.7075 C   0  0  0  0  0  0  0  0  0  0  0  0
    3.6551   -0.4737   -1.8196 O   0  0  0  0  0  0  0  0  0  0  0  0
    2.9311    2.6728   -2.6229 C   0  0  0  0  0  0  0  0  0  0  0  0
    2.2600    1.6023   -0.3170 H   0  0  0  0  0  0  0  0  0  0  0  0
    1.3185    1.3147   -3.0886 H   0  0  0  0  0  0  0  0  0  0  0  0
    3.8079    2.7356   -1.9681 H   0  0  0  0  0  0  0  0  0  0  0  0
    3.2808    2.7809   -3.6549 H   0  0  0  0  0  0  0  0  0  0  0  0
    2.2821    3.5244   -2.3918 H   0  0  0  0  0  0  0  0  0  0  0  0
    3.2623   -0.0529   -4.0676 N   0  0  0  0  0  0  0  0  0  0  0  0
    4.0909   -1.1143   -4.5901 C   0  0  0  0  0  0  0  0  0  0  0  0
    2.7513    0.5203   -4.7324 H   0  0  0  0  0  0  0  0  0  0  0  0
    5.1047   -0.7306   -4.7768 H   0  0  0  0  0  0  0  0  0  0  0  0
    4.1384   -1.9355   -3.8598 H   0  0  0  0  0  0  0  0  0  0  0  0
    3.6604   -1.4856   -5.5318 H   0  0  0  0  0  0  0  0  0  0  0  0
  1  3  1  0  0  0  0
  1  7  1  0  0  0  0
  1  2  2  0  0  0  0
 34 35  1  0  0  0  0
 35 43  1  0  0  0  0
 35 36  2  0  0  0  0
  8  9  1  0  0  0  0
  9 17  1  0  0  0  0
  9 10  2  0  0  0  0
 18 19  1  0  0  0  0
 19 33  1  0  0  0  0
 19 20  2  0  0  0  0
 22 23  1  0  0  0  0
 23 24  2  0  0  0  0
 23 25  1  0  0  0  0
 34 37  1  0  0  0  0
  8 11  1  0  0  0  0
 43 44  1  0  0  0  0
 21 22  1  0  0  0  0
 18 21  1  0  0  0  0
 33 34  1  0  0  0  0
  7  8  1  0  0  0  0
 17 18  1  0  0  0  0
  3  4  1  0  0  0  0
  3  5  1  0  0  0  0
  3  6  1  0  0  0  0
 37 40  1  0  0  0  0
 37 41  1  0  0  0  0
 37 42  1  0  0  0  0
 11 14  1  0  0  0  0
 11 15  1  0  0  0  0
 11 16  1  0  0  0  0
 44 46  1  0  0  0  0
 44 47  1  0  0  0  0
 44 48  1  0  0  0  0
 22 30  1  0  0  0  0
 22 31  1  0  0  0  0
 21 28  1  0  0  0  0
 21 29  1  0  0  0  0
 34 39  1  0  0  0  0
  8 13  1  0  0  0  0
 18 27  1  0  0  0  0
 43 45  1  0  0  0  0
  7 12  1  0  0  0  0
 33 38  1  0  0  0  0
 17 26  1  0  0  0  0
 25 32  1  0  0  0  0
M  END
$$$$

  -OEChem-05262214473D

 48 47  0     1  0  0  0  0  0999 V2000
   -5.5827   -1.3473    1.4591 C   0  0  0  0  0  0  0  0  0  0  0  0
   -5.7053   -2.4696    0.9825 O   0  0  0  0  0  0  0  0  0  0  0  0
   -6.7879   -0.6277    1.9670 C   0  0  0  0  0  0  0  0  0  0  0  0
   -7.2718   -0.0164    1.1885 H   0  0  0  0  0  0  0  0  0  0  0  0
   -7.5699   -1.3171    2.3239 H   0  0  0  0  0  0  0  0  0  0  0  0
   -6.6057    0.0628    2.8060 H   0  0  0  0  0  0  0  0  0  0  0  0
   -4.4001   -0.6377    1.5884 N   0  0  0  0  0  0  0  0  0  0  0  0
   -3.1220   -1.1455    1.1644 C   0  0  2  0  0  0  0  0  0  0  0  0
   -2.2017    0.0428    0.9187 C   0  0  0  0  0  0  0  0  0  0  0  0
   -2.6171    1.1750    0.6807 O   0  0  0  0  0  0  0  0  0  0  0  0
   -3.2533   -1.9992   -0.0873 C   0  0  0  0  0  0  0  0  0  0  0  0
   -4.4370    0.2910    2.0047 H   0  0  0  0  0  0  0  0  0  0  0  0
   -2.7302   -1.7467    1.9921 H   0  0  0  0  0  0  0  0  0  0  0  0
   -3.6446   -1.4140   -0.9275 H   0  0  0  0  0  0  0  0  0  0  0  0
   -2.2844   -2.4081   -0.3922 H   0  0  0  0  0  0  0  0  0  0  0  0
   -3.9388   -2.8365    0.0822 H   0  0  0  0  0  0  0  0  0  0  0  0
   -0.8768   -0.3314    0.9568 N   0  0  0  0  0  0  0  0  0  0  0  0
    0.2067    0.6285    0.7375 C   0  0  2  0  0  0  0  0  0  0  0  0
    0.4865    0.6271   -0.7623 C   0  0  0  0  0  0  0  0  0  0  0  0
   -0.3899    0.4140   -1.5978 O   0  0  0  0  0  0  0  0  0  0  0  0
    1.4332    0.2060    1.5599 C   0  0  0  0  0  0  0  0  0  0  0  0
    1.2222    0.3095    3.0703 C   0  0  0  0  0  0  0  0  0  0  0  0
    2.4391   -0.1365    3.8419 C   0  0  0  0  0  0  0  0  0  0  0  0
    3.4241   -0.6482    3.3249 O   0  0  0  0  0  0  0  0  0  0  0  0
    2.3195    0.0642    5.1775 O   0  0  0  0  0  0  0  0  0  0  0  0
   -0.6087   -1.2764    1.1771 H   0  0  0  0  0  0  0  0  0  0  0  0
   -0.1357    1.6166    1.0621 H   0  0  0  0  0  0  0  0  0  0  0  0
    1.6984   -0.8294    1.3073 H   0  0  0  0  0  0  0  0  0  0  0  0
    2.2995    0.8254    1.2927 H   0  0  0  0  0  0  0  0  0  0  0  0
    1.0370    1.3548    3.3462 H   0  0  0  0  0  0  0  0  0  0  0  0
    0.3351   -0.2419    3.3987 H   0  0  0  0  0  0  0  0  0  0  0  0
    3.0829   -0.2298    5.7186 H   0  0  0  0  0  0  0  0  0  0  0  0
    1.8111    0.9181   -1.0532 N   0  0  0  0  0  0  0  0  0  0  0  0
    2.3311    0.9797   -2.4002 C   0  0  2  0  0  0  0  0  0  0  0  0
    2.9135   -0.3854   -2.7423 C   0  0  0  0  0  0  0  0  0  0  0  0
    3.2775   -1.1923   -1.8894 O   0  0  0  0  0  0  0  0  0  0  0  0
    3.3829    2.0694   -2.5380 C   0  0  0  0  0  0  0  0  0  0  0  0
    2.4468    1.0967   -0.2816 H   0  0  0  0  0  0  0  0  0  0  0  0
    1.4809    1.1900   -3.0581 H   0  0  0  0  0  0  0  0  0  0  0  0
    4.2427    1.8758   -1.8862 H   0  0  0  0  0  0  0  0  0  0  0  0
    3.7553    2.1337   -3.5658 H   0  0  0  0  0  0  0  0  0  0  0  0
    2.9705    3.0461   -2.2629 H   0  0  0  0  0  0  0  0  0  0  0  0
    3.0189   -0.5792   -4.1125 N   0  0  0  0  0  0  0  0  0  0  0  0
    3.5536   -1.7904   -4.6897 C   0  0  0  0  0  0  0  0  0  0  0  0
    2.6749    0.1361   -4.7463 H   0  0  0  0  0  0  0  0  0  0  0  0
    4.6329   -1.6689   -4.8639 H   0  0  0  0  0  0  0  0  0  0  0  0
    3.3860   -2.6304   -3.9995 H   0  0  0  0  0  0  0  0  0  0  0  0
    3.0488   -1.9949   -5.6454 H   0  0  0  0  0  0  0  0  0  0  0  0
  1  3  1  0  0  0  0
  1  7  1  0  0  0  0
  1  2  2  0  0  0  0
 34 35  1  0  0  0  0
 35 43  1  0  0  0  0
 35 36  2  0  0  0  0
  8  9  1  0  0  0  0
  9 17  1  0  0  0  0
  9 10  2  0  0  0  0
 18 19  1  0  0  0  0
 19 33  1  0  0  0  0
 19 20  2  0  0  0  0
 22 23  1  0  0  0  0
 23 24  2  0  0  0  0
 23 25  1  0  0  0  0
 34 37  1  0  0  0  0
  8 11  1  0  0  0  0
 43 44  1  0  0  0  0
 21 22  1  0  0  0  0
 18 21  1  0  0  0  0
 33 34  1  0  0  0  0
  7  8  1  0  0  0  0
 17 18  1  0  0  0  0
  3  4  1  0  0  0  0
  3  5  1  0  0  0  0
  3  6  1  0  0  0  0
 37 40  1  0  0  0  0
 37 41  1  0  0  0  0
 37 42  1  0  0  0  0
 11 14  1  0  0  0  0
 11 15  1  0  0  0  0
 11 16  1  0  0  0  0
 44 46  1  0  0  0  0
 44 47  1  0  0  0  0
 44 48  1  0  0  0  0
 22 30  1  0  0  0  0
 22 31  1  0  0  0  0
 21 28  1  0  0  0  0
 21 29  1  0  0  0  0
 34 39  1  0  0  0  0
  8 13  1  0  0  0  0
 18 27  1  0  0  0  0
 43 45  1  0  0  0  0
  7 12  1  0  0  0  0
 33 38  1  0  0  0  0
 17 26  1  0  0  0  0
 25 32  1  0  0  0  0
M  END
$$$$

  -OEChem-05262214473D

 48 47  0     1  0  0  0  0  0999 V2000
   -5.5827   -1.3473    1.4591 C   0  0  0  0  0  0  0  0  0  0  0  0
   -5.7053   -2.4696    0.9825 O   0  0  0  0  0  0  0  0  0  0  0  0
   -6.7879   -0.6277    1.9670 C   0  0  0  0  0  0  0  0  0  0  0  0
   -7.2718   -0.0164    1.1885 H   0  0  0  0  0  0  0  0  0  0  0  0
   -7.5699   -1.3171    2.3239 H   0  0  0  0  0  0  0  0  0  0  0  0
   -6.6057    0.0628    2.8060 H   0  0  0  0  0  0  0  0  0  0  0  0
   -4.4001   -0.6377    1.5884 N   0  0  0  0  0  0  0  0  0  0  0  0
   -3.1220   -1.1455    1.1644 C   0  0  2  0  0  0  0  0  0  0  0  0
   -2.2017    0.0428    0.9187 C   0  0  0  0  0  0  0  0  0  0  0  0
   -2.6171    1.1750    0.6807 O   0  0  0  0  0  0  0  0  0  0  0  0
   -3.2533   -1.9992   -0.0873 C   0  0  0  0  0  0  0  0  0  0  0  0
   -4.4370    0.2910    2.0047 H   0  0  0  0  0  0  0  0  0  0  0  0
   -2.7302   -1.7467    1.9921 H   0  0  0  0  0  0  0  0  0  0  0  0
   -3.6446   -1.4140   -0.9275 H   0  0  0  0  0  0  0  0  0  0  0  0
   -2.2844   -2.4081   -0.3922 H   0  0  0  0  0  0  0  0  0  0  0  0
   -3.9388   -2.8365    0.0822 H   0  0  0  0  0  0  0  0  0  0  0  0
   -0.8768   -0.3314    0.9568 N   0  0  0  0  0  0  0  0  0  0  0  0
    0.2067    0.6285    0.7375 C   0  0  2  0  0  0  0  0  0  0  0  0
    0.4865    0.6271   -0.7623 C   0  0  0  0  0  0  0  0  0  0  0  0
   -0.4099    0.6839   -1.6017 O   0  0  0  0  0  0  0  0  0  0  0  0
    1.4332    0.2060    1.5599 C   0  0  0  0  0  0  0  0  0  0  0  0
    1.2222    0.3095    3.0703 C   0  0  0  0  0  0  0  0  0  0  0  0
    2.4391   -0.1365    3.8419 C   0  0  0  0  0  0  0  0  0  0  0  0
    3.4241   -0.6482    3.3249 O   0  0  0  0  0  0  0  0  0  0  0  0
    2.3195    0.0642    5.1775 O   0  0  0  0  0  0  0  0  0  0  0  0
   -0.6087   -1.2764    1.1771 H   0  0  0  0  0  0  0  0  0  0  0  0
   -0.1357    1.6166    1.0621 H   0  0  0  0  0  0  0  0  0  0  0  0
    1.6984   -0.8294    1.3073 H   0  0  0  0  0  0  0  0  0  0  0  0
    2.2995    0.8254    1.2927 H   0  0  0  0  0  0  0  0  0  0  0  0
    1.0370    1.3548    3.3462 H   0  0  0  0  0  0  0  0  0  0  0  0
    0.3351   -0.2419    3.3987 H   0  0  0  0  0  0  0  0  0  0  0  0
    3.0829   -0.2298    5.7186 H   0  0  0  0  0  0  0  0  0  0  0  0
    1.8434    0.5850   -1.0468 N   0  0  0  0  0  0  0  0  0  0  0  0
    2.3706    0.5760   -2.3925 C   0  0  2  0  0  0  0  0  0  0  0  0
    2.5886   -0.8744   -2.8025 C   0  0  0  0  0  0  0  0  0  0  0  0
    2.7299   -1.7869   -1.9910 O   0  0  0  0  0  0  0  0  0  0  0  0
    3.6658    1.3675   -2.4846 C   0  0  0  0  0  0  0  0  0  0  0  0
    2.4987    0.5591   -0.2714 H   0  0  0  0  0  0  0  0  0  0  0  0
    1.6060    1.0267   -3.0346 H   0  0  0  0  0  0  0  0  0  0  0  0
    4.4439    0.9309   -1.8478 H   0  0  0  0  0  0  0  0  0  0  0  0
    4.0488    1.3837   -3.5103 H   0  0  0  0  0  0  0  0  0  0  0  0
    3.5137    2.4029   -2.1610 H   0  0  0  0  0  0  0  0  0  0  0  0
    2.6500   -1.0235   -4.1810 N   0  0  0  0  0  0  0  0  0  0  0  0
    2.8626   -2.3021   -4.8182 C   0  0  0  0  0  0  0  0  0  0  0  0
    2.5033   -0.2150   -4.7780 H   0  0  0  0  0  0  0  0  0  0  0  0
    3.9384   -2.4510   -4.9927 H   0  0  0  0  0  0  0  0  0  0  0  0
    2.4824   -3.1035   -4.1676 H   0  0  0  0  0  0  0  0  0  0  0  0
    2.3285   -2.3258   -5.7795 H   0  0  0  0  0  0  0  0  0  0  0  0
  1  3  1  0  0  0  0
  1  7  1  0  0  0  0
  1  2  2  0  0  0  0
 34 35  1  0  0  0  0
 35 43  1  0  0  0  0
 35 36  2  0  0  0  0
  8  9  1  0  0  0  0
  9 17  1  0  0  0  0
  9 10  2  0  0  0  0
 18 19  1  0  0  0  0
 19 33  1  0  0  0  0
 19 20  2  0  0  0  0
 22 23  1  0  0  0  0
 23 24  2  0  0  0  0
 23 25  1  0  0  0  0
 34 37  1  0  0  0  0
  8 11  1  0  0  0  0
 43 44  1  0  0  0  0
 21 22  1  0  0  0  0
 18 21  1  0  0  0  0
 33 34  1  0  0  0  0
  7  8  1  0  0  0  0
 17 18  1  0  0  0  0
  3  4  1  0  0  0  0
  3  5  1  0  0  0  0
  3  6  1  0  0  0  0
 37 40  1  0  0  0  0
 37 41  1  0  0  0  0
 37 42  1  0  0  0  0
 11 14  1  0  0  0  0
 11 15  1  0  0  0  0
 11 16  1  0  0  0  0
 44 46  1  0  0  0  0
 44 47  1  0  0  0  0
 44 48  1  0  0  0  0
 22 30  1  0  0  0  0
 22 31  1  0  0  0  0
 21 28  1  0  0  0  0
 21 29  1  0  0  0  0
 34 39  1  0  0  0  0
  8 13  1  0  0  0  0
 18 27  1  0  0  0  0
 43 45  1  0  0  0  0
  7 12  1  0  0  0  0
 33 38  1  0  0  0  0
 17 26  1  0  0  0  0
 25 32  1  0  0  0  0
M  END
$$$$

  -OEChem-05262214473D

 48 47  0     1  0  0  0  0  0999 V2000
   -5.5827   -1.3473    1.4591 C   0  0  0  0  0  0  0  0  0  0  0  0
   -5.7053   -2.4696    0.9825 O   0  0  0  0  0  0  0  0  0  0  0  0
   -6.7879   -0.6277    1.9670 C   0  0  0  0  0  0  0  0  0  0  0  0
   -7.2718   -0.0164    1.1885 H   0  0  0  0  0  0  0  0  0  0  0  0
   -7.5699   -1.3171    2.3239 H   0  0  0  0  0  0  0  0  0  0  0  0
   -6.6057    0.0628    2.8060 H   0  0  0  0  0  0  0  0  0  0  0  0
   -4.4001   -0.6377    1.5884 N   0  0  0  0  0  0  0  0  0  0  0  0
   -3.1220   -1.1455    1.1644 C   0  0  2  0  0  0  0  0  0  0  0  0
   -2.2017    0.0428    0.9187 C   0  0  0  0  0  0  0  0  0  0  0  0
   -2.6171    1.1750    0.6807 O   0  0  0  0  0  0  0  0  0  0  0  0
   -3.2533   -1.9992   -0.0873 C   0  0  0  0  0  0  0  0  0  0  0  0
   -4.4370    0.2910    2.0047 H   0  0  0  0  0  0  0  0  0  0  0  0
   -2.7302   -1.7467    1.9921 H   0  0  0  0  0  0  0  0  0  0  0  0
   -3.6446   -1.4140   -0.9275 H   0  0  0  0  0  0  0  0  0  0  0  0
   -2.2844   -2.4081   -0.3922 H   0  0  0  0  0  0  0  0  0  0  0  0
   -3.9388   -2.8365    0.0822 H   0  0  0  0  0  0  0  0  0  0  0  0
   -0.8768   -0.3314    0.9568 N   0  0  0  0  0  0  0  0  0  0  0  0
    0.2067    0.6285    0.7375 C   0  0  2  0  0  0  0  0  0  0  0  0
    0.4865    0.6271   -0.7623 C   0  0  0  0  0  0  0  0  0  0  0  0
   -0.3606    0.9498   -1.5928 O   0  0  0  0  0  0  0  0  0  0  0  0
    1.4332    0.2060    1.5599 C   0  0  0  0  0  0  0  0  0  0  0  0
    1.2222    0.3095    3.0703 C   0  0  0  0  0  0  0  0  0  0  0  0
    2.4391   -0.1365    3.8419 C   0  0  0  0  0  0  0  0  0  0  0  0
    3.4241   -0.6482    3.3249 O   0  0  0  0  0  0  0  0  0  0  0  0
    2.3195    0.0642    5.1775 O   0  0  0  0  0  0  0  0  0  0  0  0
   -0.6087   -1.2764    1.1771 H   0  0  0  0  0  0  0  0  0  0  0  0
   -0.1357    1.6166    1.0621 H   0  0  0  0  0  0  0  0  0  0  0  0
    1.6984   -0.8294    1.3073 H   0  0  0  0  0  0  0  0  0  0  0  0
    2.2995    0.8254    1.2927 H   0  0  0  0  0  0  0  0  0  0  0  0
    1.0370    1.3548    3.3462 H   0  0  0  0  0  0  0  0  0  0  0  0
    0.3351   -0.2419    3.3987 H   0  0  0  0  0  0  0  0  0  0  0  0
    3.0829   -0.2298    5.7186 H   0  0  0  0  0  0  0  0  0  0  0  0
    1.7898    0.2547   -1.0565 N   0  0  0  0  0  0  0  0  0  0  0  0
    2.3059    0.1757   -2.4041 C   0  0  2  0  0  0  0  0  0  0  0  0
    2.1504   -1.2613   -2.8839 C   0  0  0  0  0  0  0  0  0  0  0  0
    2.0497   -2.2172   -2.1175 O   0  0  0  0  0  0  0  0  0  0  0  0
    3.7605    0.6151   -2.4662 C   0  0  0  0  0  0  0  0  0  0  0  0
    2.4120    0.0262   -0.2871 H   0  0  0  0  0  0  0  0  0  0  0  0
    1.6853    0.8360   -3.0197 H   0  0  0  0  0  0  0  0  0  0  0  0
    4.3978   -0.0348   -1.8554 H   0  0  0  0  0  0  0  0  0  0  0  0
    4.1416    0.5819   -3.4922 H   0  0  0  0  0  0  0  0  0  0  0  0
    3.8748    1.6385   -2.0929 H   0  0  0  0  0  0  0  0  0  0  0  0
    2.1807   -1.3556   -4.2682 N   0  0  0  0  0  0  0  0  0  0  0  0
    2.0650   -2.6144   -4.9667 C   0  0  0  0  0  0  0  0  0  0  0  0
    2.2483   -0.5089   -4.8253 H   0  0  0  0  0  0  0  0  0  0  0  0
    3.0686   -3.0237   -5.1545 H   0  0  0  0  0  0  0  0  0  0  0  0
    1.4893   -3.3227   -4.3527 H   0  0  0  0  0  0  0  0  0  0  0  0
    1.5486   -2.4558   -5.9249 H   0  0  0  0  0  0  0  0  0  0  0  0
  1  3  1  0  0  0  0
  1  7  1  0  0  0  0
  1  2  2  0  0  0  0
 34 35  1  0  0  0  0
 35 43  1  0  0  0  0
 35 36  2  0  0  0  0
  8  9  1  0  0  0  0
  9 17  1  0  0  0  0
  9 10  2  0  0  0  0
 18 19  1  0  0  0  0
 19 33  1  0  0  0  0
 19 20  2  0  0  0  0
 22 23  1  0  0  0  0
 23 24  2  0  0  0  0
 23 25  1  0  0  0  0
 34 37  1  0  0  0  0
  8 11  1  0  0  0  0
 43 44  1  0  0  0  0
 21 22  1  0  0  0  0
 18 21  1  0  0  0  0
 33 34  1  0  0  0  0
  7  8  1  0  0  0  0
 17 18  1  0  0  0  0
  3  4  1  0  0  0  0
  3  5  1  0  0  0  0
  3  6  1  0  0  0  0
 37 40  1  0  0  0  0
 37 41  1  0  0  0  0
 37 42  1  0  0  0  0
 11 14  1  0  0  0  0
 11 15  1  0  0  0  0
 11 16  1  0  0  0  0
 44 46  1  0  0  0  0
 44 47  1  0  0  0  0
 44 48  1  0  0  0  0
 22 30  1  0  0  0  0
 22 31  1  0  0  0  0
 21 28  1  0  0  0  0
 21 29  1  0  0  0  0
 34 39  1  0  0  0  0
  8 13  1  0  0  0  0
 18 27  1  0  0  0  0
 43 45  1  0  0  0  0
  7 12  1  0  0  0  0
 33 38  1  0  0  0  0
 17 26  1  0  0  0  0
 25 32  1  0  0  0  0
M  END
$$$$

  -OEChem-05262214473D

 48 47  0     1  0  0  0  0  0999 V2000
   -5.5827   -1.3473    1.4591 C   0  0  0  0  0  0  0  0  0  0  0  0
   -5.7053   -2.4696    0.9825 O   0  0  0  0  0  0  0  0  0  0  0  0
   -6.7879   -0.6277    1.9670 C   0  0  0  0  0  0  0  0  0  0  0  0
   -7.2718   -0.0164    1.1885 H   0  0  0  0  0  0  0  0  0  0  0  0
   -7.5699   -1.3171    2.3239 H   0  0  0  0  0  0  0  0  0  0  0  0
   -6.6057    0.0628    2.8060 H   0  0  0  0  0  0  0  0  0  0  0  0
   -4.4001   -0.6377    1.5884 N   0  0  0  0  0  0  0  0  0  0  0  0
   -3.1220   -1.1455    1.1644 C   0  0  2  0  0  0  0  0  0  0  0  0
   -2.2017    0.0428    0.9187 C   0  0  0  0  0  0  0  0  0  0  0  0
   -2.6171    1.1750    0.6807 O   0  0  0  0  0  0  0  0  0  0  0  0
   -3.2533   -1.9992   -0.0873 C   0  0  0  0  0  0  0  0  0  0  0  0
   -4.4370    0.2910    2.0047 H   0  0  0  0  0  0  0  0  0  0  0  0
   -2.7302   -1.7467    1.9921 H   0  0  0  0  0  0  0  0  0  0  0  0
   -3.6446   -1.4140   -0.9275 H   0  0  0  0  0  0  0  0  0  0  0  0
   -2.2844   -2.4081   -0.3922 H   0  0  0  0  0  0  0  0  0  0  0  0
   -3.9388   -2.8365    0.0822 H   0  0  0  0  0  0  0  0  0  0  0  0
   -0.8768   -0.3314    0.9568 N   0  0  0  0  0  0  0  0  0  0  0  0
    0.2067    0.6285    0.7375 C   0  0  2  0  0  0  0  0  0  0  0  0
    0.4865    0.6271   -0.7623 C   0  0  0  0  0  0  0  0  0  0  0  0
   -0.2453    1.1938   -1.5715 O   0  0  0  0  0  0  0  0  0  0  0  0
    1.4332    0.2060    1.5599 C   0  0  0  0  0  0  0  0  0  0  0  0
    1.2222    0.3095    3.0703 C   0  0  0  0  0  0  0  0  0  0  0  0
    2.4391   -0.1365    3.8419 C   0  0  0  0  0  0  0  0  0  0  0  0
    3.4241   -0.6482    3.3249 O   0  0  0  0  0  0  0  0  0  0  0  0
    2.3195    0.0642    5.1775 O   0  0  0  0  0  0  0  0  0  0  0  0
   -0.6087   -1.2764    1.1771 H   0  0  0  0  0  0  0  0  0  0  0  0
   -0.1357    1.6166    1.0621 H   0  0  0  0  0  0  0  0  0  0  0  0
    1.6984   -0.8294    1.3073 H   0  0  0  0  0  0  0  0  0  0  0  0
    2.2995    0.8254    1.2927 H   0  0  0  0  0  0  0  0  0  0  0  0
    1.0370    1.3548    3.3462 H   0  0  0  0  0  0  0  0  0  0  0  0
    0.3351   -0.2419    3.3987 H   0  0  0  0  0  0  0  0  0  0  0  0
    3.0829   -0.2298    5.7186 H   0  0  0  0  0  0  0  0  0  0  0  0
    1.6540   -0.0503   -1.0816 N   0  0  0  0  0  0  0  0  0  0  0  0
    2.1417   -0.1939   -2.4344 C   0  0  2  0  0  0  0  0  0  0  0  0
    1.6287   -1.5197   -2.9810 C   0  0  0  0  0  0  0  0  0  0  0  0
    1.2832   -2.4537   -2.2603 O   0  0  0  0  0  0  0  0  0  0  0  0
    3.6605   -0.1367   -2.4841 C   0  0  0  0  0  0  0  0  0  0  0  0
    2.1927   -0.4658   -0.3276 H   0  0  0  0  0  0  0  0  0  0  0  0
    1.7134    0.6310   -3.0142 H   0  0  0  0  0  0  0  0  0  0  0  0
    4.1076   -0.9556   -1.9087 H   0  0  0  0  0  0  0  0  0  0  0  0
    4.0272   -0.2170   -3.5128 H   0  0  0  0  0  0  0  0  0  0  0  0
    4.0290    0.8050   -2.0633 H   0  0  0  0  0  0  0  0  0  0  0  0
    1.6428   -1.5527   -4.3684 N   0  0  0  0  0  0  0  0  0  0  0  0
    1.2151   -2.7061   -5.1252 C   0  0  0  0  0  0  0  0  0  0  0  0
    1.9272   -0.7257   -4.8850 H   0  0  0  0  0  0  0  0  0  0  0  0
    2.0827   -3.3479   -5.3381 H   0  0  0  0  0  0  0  0  0  0  0  0
    0.4742   -3.2729   -4.5422 H   0  0  0  0  0  0  0  0  0  0  0  0
    0.7622   -2.3761   -6.0717 H   0  0  0  0  0  0  0  0  0  0  0  0
  1  3  1  0  0  0  0
  1  7  1  0  0  0  0
  1  2  2  0  0  0  0
 34 35  1  0  0  0  0
 35 43  1  0  0  0  0
 35 36  2  0  0  0  0
  8  9  1  0  0  0  0
  9 17  1  0  0  0  0
  9 10  2  0  0  0  0
 18 19  1  0  0  0  0
 19 33  1  0  0  0  0
 19 20  2  0  0  0  0
 22 23  1  0  0  0  0
 23 24  2  0  0  0  0
 23 25  1  0  0  0  0
 34 37  1  0  0  0  0
  8 11  1  0  0  0  0
 43 44  1  0  0  0  0
 21 22  1  0  0  0  0
 18 21  1  0  0  0  0
 33 34  1  0  0  0  0
  7  8  1  0  0  0  0
 17 18  1  0  0  0  0
  3  4  1  0  0  0  0
  3  5  1  0  0  0  0
  3  6  1  0  0  0  0
 37 40  1  0  0  0  0
 37 41  1  0  0  0  0
 37 42  1  0  0  0  0
 11 14  1  0  0  0  0
 11 15  1  0  0  0  0
 11 16  1  0  0  0  0
 44 46  1  0  0  0  0
 44 47  1  0  0  0  0
 44 48  1  0  0  0  0
 22 30  1  0  0  0  0
 22 31  1  0  0  0  0
 21 28  1  0  0  0  0
 21 29  1  0  0  0  0
 34 39  1  0  0  0  0
  8 13  1  0  0  0  0
 18 27  1  0  0  0  0
 43 45  1  0  0  0  0
  7 12  1  0  0  0  0
 33 38  1  0  0  0  0
 17 26  1  0  0  0  0
 25 32  1  0  0  0  0
M  END
$$$$

  -OEChem-05262214473D

 48 47  0     1  0  0  0  0  0999 V2000
   -5.5827   -1.3473    1.4591 C   0  0  0  0  0  0  0  0  0  0  0  0
   -5.7053   -2.4696    0.9825 O   0  0  0  0  0  0  0  0  0  0  0  0
   -6.7879   -0.6277    1.9670 C   0  0  0  0  0  0  0  0  0  0  0  0
   -7.2718   -0.0164    1.1885 H   0  0  0  0  0  0  0  0  0  0  0  0
   -7.5699   -1.3171    2.3239 H   0  0  0  0  0  0  0  0  0  0  0  0
   -6.6057    0.0628    2.8060 H   0  0  0  0  0  0  0  0  0  0  0  0
   -4.4001   -0.6377    1.5884 N   0  0  0  0  0  0  0  0  0  0  0  0
   -3.1220   -1.1455    1.1644 C   0  0  2  0  0  0  0  0  0  0  0  0
   -2.2017    0.0428    0.9187 C   0  0  0  0  0  0  0  0  0  0  0  0
   -2.6171    1.1750    0.6807 O   0  0  0  0  0  0  0  0  0  0  0  0
   -3.2533   -1.9992   -0.0873 C   0  0  0  0  0  0  0  0  0  0  0  0
   -4.4370    0.2910    2.0047 H   0  0  0  0  0  0  0  0  0  0  0  0
   -2.7302   -1.7467    1.9921 H   0  0  0  0  0  0  0  0  0  0  0  0
   -3.6446   -1.4140   -0.9275 H   0  0  0  0  0  0  0  0  0  0  0  0
   -2.2844   -2.4081   -0.3922 H   0  0  0  0  0  0  0  0  0  0  0  0
   -3.9388   -2.8365    0.0822 H   0  0  0  0  0  0  0  0  0  0  0  0
   -0.8768   -0.3314    0.9568 N   0  0  0  0  0  0  0  0  0  0  0  0
    0.2067    0.6285    0.7375 C   0  0  2  0  0  0  0  0  0  0  0  0
    0.4865    0.6271   -0.7623 C   0  0  0  0  0  0  0  0  0  0  0  0
   -0.0718    1.3991   -1.5393 O   0  0  0  0  0  0  0  0  0  0  0  0
    1.4332    0.2060    1.5599 C   0  0  0  0  0  0  0  0  0  0  0  0
    1.2222    0.3095    3.0703 C   0  0  0  0  0  0  0  0  0  0  0  0
    2.4391   -0.1365    3.8419 C   0  0  0  0  0  0  0  0  0  0  0  0
    3.4241   -0.6482    3.3249 O   0  0  0  0  0  0  0  0  0  0  0  0
    2.3195    0.0642    5.1775 O   0  0  0  0  0  0  0  0  0  0  0  0
   -0.6087   -1.2764    1.1771 H   0  0  0  0  0  0  0  0  0  0  0  0
   -0.1357    1.6166    1.0621 H   0  0  0  0  0  0  0  0  0  0  0  0
    1.6984   -0.8294    1.3073 H   0  0  0  0  0  0  0  0  0  0  0  0
    2.2995    0.8254    1.2927 H   0  0  0  0  0  0  0  0  0  0  0  0
    1.0370    1.3548    3.3462 H   0  0  0  0  0  0  0  0  0  0  0  0
    0.3351   -0.2419    3.3987 H   0  0  0  0  0  0  0  0  0  0  0  0
    3.0829   -0.2298    5.7186 H   0  0  0  0  0  0  0  0  0  0  0  0
    1.4453   -0.3091   -1.1203 N   0  0  0  0  0  0  0  0  0  0  0  0
    1.8889   -0.5078   -2.4813 C   0  0  2  0  0  0  0  0  0  0  0  0
    1.0591   -1.6319   -3.0872 C   0  0  0  0  0  0  0  0  0  0  0  0
    0.4827   -2.4804   -2.4096 O   0  0  0  0  0  0  0  0  0  0  0  0
    3.3727   -0.8366   -2.5372 C   0  0  0  0  0  0  0  0  0  0  0  0
    1.8557   -0.8833   -0.3900 H   0  0  0  0  0  0  0  0  0  0  0  0
    1.6884    0.4255   -3.0187 H   0  0  0  0  0  0  0  0  0  0  0  0
    3.5930   -1.7686   -2.0040 H   0  0  0  0  0  0  0  0  0  0  0  0
    3.7134   -0.9586   -3.5707 H   0  0  0  0  0  0  0  0  0  0  0  0
    3.9660   -0.0406   -2.0743 H   0  0  0  0  0  0  0  0  0  0  0  0
    1.0732   -1.6016   -4.4746 N   0  0  0  0  0  0  0  0  0  0  0  0
    0.3709   -2.5710   -5.2828 C   0  0  0  0  0  0  0  0  0  0  0  0
    1.5619   -0.8506   -4.9531 H   0  0  0  0  0  0  0  0  0  0  0  0
    1.0480   -3.4016   -5.5311 H   0  0  0  0  0  0  0  0  0  0  0  0
   -0.4935   -2.9576   -4.7230 H   0  0  0  0  0  0  0  0  0  0  0  0
    0.0229   -2.0921   -6.2099 H   0  0  0  0  0  0  0  0  0  0  0  0
  1  3  1  0  0  0  0
  1  7  1  0  0  0  0
  1  2  2  0  0  0  0
 34 35  1  0  0  0  0
 35 43  1  0  0  0  0
 35 36  2  0  0  0  0
  8  9  1  0  0  0  0
  9 17  1  0  0  0  0
  9 10  2  0  0  0  0
 18 19  1  0  0  0  0
 19 33  1  0  0  0  0
 19 20  2  0  0  0  0
 22 23  1  0  0  0  0
 23 24  2  0  0  0  0
 23 25  1  0  0  0  0
 34 37  1  0  0  0  0
  8 11  1  0  0  0  0
 43 44  1  0  0  0  0
 21 22  1  0  0  0  0
 18 21  1  0  0  0  0
 33 34  1  0  0  0  0
  7  8  1  0  0  0  0
 17 18  1  0  0  0  0
  3  4  1  0  0  0  0
  3  5  1  0  0  0  0
  3  6  1  0  0  0  0
 37 40  1  0  0  0  0
 37 41  1  0  0  0  0
 37 42  1  0  0  0  0
 11 14  1  0  0  0  0
 11 15  1  0  0  0  0
 11 16  1  0  0  0  0
 44 46  1  0  0  0  0
 44 47  1  0  0  0  0
 44 48  1  0  0  0  0
 22 30  1  0  0  0  0
 22 31  1  0  0  0  0
 21 28  1  0  0  0  0
 21 29  1  0  0  0  0
 34 39  1  0  0  0  0
  8 13  1  0  0  0  0
 18 27  1  0  0  0  0
 43 45  1  0  0  0  0
  7 12  1  0  0  0  0
 33 38  1  0  0  0  0
 17 26  1  0  0  0  0
 25 32  1  0  0  0  0
M  END
$$$$

  -OEChem-05262214473D

 48 47  0     1  0  0  0  0  0999 V2000
   -5.5827   -1.3473    1.4591 C   0  0  0  0  0  0  0  0  0  0  0  0
   -5.7053   -2.4696    0.9825 O   0  0  0  0  0  0  0  0  0  0  0  0
   -6.7879   -0.6277    1.9670 C   0  0  0  0  0  0  0  0  0  0  0  0
   -7.2718   -0.0164    1.1885 H   0  0  0  0  0  0  0  0  0  0  0  0
   -7.5699   -1.3171    2.3239 H   0  0  0  0  0  0  0  0  0  0  0  0
   -6.6057    0.0628    2.8060 H   0  0  0  0  0  0  0  0  0  0  0  0
   -4.4001   -0.6377    1.5884 N   0  0  0  0  0  0  0  0  0  0  0  0
   -3.1220   -1.1455    1.1644 C   0  0  2  0  0  0  0  0  0  0  0  0
   -2.2017    0.0428    0.9187 C   0  0  0  0  0  0  0  0  0  0  0  0
   -2.6171    1.1750    0.6807 O   0  0  0  0  0  0  0  0  0  0  0  0
   -3.2533   -1.9992   -0.0873 C   0  0  0  0  0  0  0  0  0  0  0  0
   -4.4370    0.2910    2.0047 H   0  0  0  0  0  0  0  0  0  0  0  0
   -2.7302   -1.7467    1.9921 H   0  0  0  0  0  0  0  0  0  0  0  0
   -3.6446   -1.4140   -0.9275 H   0  0  0  0  0  0  0  0  0  0  0  0
   -2.2844   -2.4081   -0.3922 H   0  0  0  0  0  0  0  0  0  0  0  0
   -3.9388   -2.8365    0.0822 H   0  0  0  0  0  0  0  0  0  0  0  0
   -0.8768   -0.3314    0.9568 N   0  0  0  0  0  0  0  0  0  0  0  0
    0.2067    0.6285    0.7375 C   0  0  2  0  0  0  0  0  0  0  0  0
    0.4865    0.6271   -0.7623 C   0  0  0  0  0  0  0  0  0  0  0  0
    0.1479    1.5517   -1.4985 O   0  0  0  0  0  0  0  0  0  0  0  0
    1.4332    0.2060    1.5599 C   0  0  0  0  0  0  0  0  0  0  0  0
    1.2222    0.3095    3.0703 C   0  0  0  0  0  0  0  0  0  0  0  0
    2.4391   -0.1365    3.8419 C   0  0  0  0  0  0  0  0  0  0  0  0
    3.4241   -0.6482    3.3249 O   0  0  0  0  0  0  0  0  0  0  0  0
    2.3195    0.0642    5.1775 O   0  0  0  0  0  0  0  0  0  0  0  0
   -0.6087   -1.2764    1.1771 H   0  0  0  0  0  0  0  0  0  0  0  0
   -0.1357    1.6166    1.0621 H   0  0  0  0  0  0  0  0  0  0  0  0
    1.6984   -0.8294    1.3073 H   0  0  0  0  0  0  0  0  0  0  0  0
    2.2995    0.8254    1.2927 H   0  0  0  0  0  0  0  0  0  0  0  0
    1.0370    1.3548    3.3462 H   0  0  0  0  0  0  0  0  0  0  0  0
    0.3351   -0.2419    3.3987 H   0  0  0  0  0  0  0  0  0  0  0  0
    3.0829   -0.2298    5.7186 H   0  0  0  0  0  0  0  0  0  0  0  0
    1.1778   -0.5042   -1.1700 N   0  0  0  0  0  0  0  0  0  0  0  0
    1.5650   -0.7444   -2.5415 C   0  0  2  0  0  0  0  0  0  0  0  0
    0.4803   -1.5903   -3.1952 C   0  0  0  0  0  0  0  0  0  0  0  0
   -0.2972   -2.2954   -2.5553 O   0  0  0  0  0  0  0  0  0  0  0  0
    2.9166   -1.4368   -2.6217 C   0  0  0  0  0  0  0  0  0  0  0  0
    1.4239   -1.1978   -0.4703 H   0  0  0  0  0  0  0  0  0  0  0  0
    1.6119    0.2336   -3.0328 H   0  0  0  0  0  0  0  0  0  0  0  0
    2.8891   -2.4184   -2.1347 H   0  0  0  0  0  0  0  0  0  0  0  0
    3.2216   -1.5924   -3.6618 H   0  0  0  0  0  0  0  0  0  0  0  0
    3.6899   -0.8409   -2.1250 H   0  0  0  0  0  0  0  0  0  0  0  0
    0.5105   -1.4988   -4.5797 N   0  0  0  0  0  0  0  0  0  0  0  0
   -0.4101   -2.2182   -5.4288 C   0  0  0  0  0  0  0  0  0  0  0  0
    1.1773   -0.8751   -5.0248 H   0  0  0  0  0  0  0  0  0  0  0  0
    0.0350   -3.1809   -5.7203 H   0  0  0  0  0  0  0  0  0  0  0  0
   -1.3479   -2.3982   -4.8830 H   0  0  0  0  0  0  0  0  0  0  0  0
   -0.6188   -1.6230   -6.3301 H   0  0  0  0  0  0  0  0  0  0  0  0
  1  3  1  0  0  0  0
  1  7  1  0  0  0  0
  1  2  2  0  0  0  0
 34 35  1  0  0  0  0
 35 43  1  0  0  0  0
 35 36  2  0  0  0  0
  8  9  1  0  0  0  0
  9 17  1  0  0  0  0
  9 10  2  0  0  0  0
 18 19  1  0  0  0  0
 19 33  1  0  0  0  0
 19 20  2  0  0  0  0
 22 23  1  0  0  0  0
 23 24  2  0  0  0  0
 23 25  1  0  0  0  0
 34 37  1  0  0  0  0
  8 11  1  0  0  0  0
 43 44  1  0  0  0  0
 21 22  1  0  0  0  0
 18 21  1  0  0  0  0
 33 34  1  0  0  0  0
  7  8  1  0  0  0  0
 17 18  1  0  0  0  0
  3  4  1  0  0  0  0
  3  5  1  0  0  0  0
  3  6  1  0  0  0  0
 37 40  1  0  0  0  0
 37 41  1  0  0  0  0
 37 42  1  0  0  0  0
 11 14  1  0  0  0  0
 11 15  1  0  0  0  0
 11 16  1  0  0  0  0
 44 46  1  0  0  0  0
 44 47  1  0  0  0  0
 44 48  1  0  0  0  0
 22 30  1  0  0  0  0
 22 31  1  0  0  0  0
 21 28  1  0  0  0  0
 21 29  1  0  0  0  0
 34 39  1  0  0  0  0
  8 13  1  0  0  0  0
 18 27  1  0  0  0  0
 43 45  1  0  0  0  0
  7 12  1  0  0  0  0
 33 38  1  0  0  0  0
 17 26  1  0  0  0  0
 25 32  1  0  0  0  0
M  END
$$$$

  -OEChem-05262214473D

 48 47  0     1  0  0  0  0  0999 V2000
   -5.5827   -1.3473    1.4591 C   0  0  0  0  0  0  0  0  0  0  0  0
   -5.7053   -2.4696    0.9825 O   0  0  0  0  0  0  0  0  0  0  0  0
   -6.7879   -0.6277    1.9670 C   0  0  0  0  0  0  0  0  0  0  0  0
   -7.2718   -0.0164    1.1885 H   0  0  0  0  0  0  0  0  0  0  0  0
   -7.5699   -1.3171    2.3239 H   0  0  0  0  0  0  0  0  0  0  0  0
   -6.6057    0.0628    2.8060 H   0  0  0  0  0  0  0  0  0  0  0  0
   -4.4001   -0.6377    1.5884 N   0  0  0  0  0  0  0  0  0  0  0  0
   -3.1220   -1.1455    1.1644 C   0  0  2  0  0  0  0  0  0  0  0  0
   -2.2017    0.0428    0.9187 C   0  0  0  0  0  0  0  0  0  0  0  0
   -2.6171    1.1750    0.6807 O   0  0  0  0  0  0  0  0  0  0  0  0
   -3.2533   -1.9992   -0.0873 C   0  0  0  0  0  0  0  0  0  0  0  0
   -4.4370    0.2910    2.0047 H   0  0  0  0  0  0  0  0  0  0  0  0
   -2.7302   -1.7467    1.9921 H   0  0  0  0  0  0  0  0  0  0  0  0
   -3.6446   -1.4140   -0.9275 H   0  0  0  0  0  0  0  0  0  0  0  0
   -2.2844   -2.4081   -0.3922 H   0  0  0  0  0  0  0  0  0  0  0  0
   -3.9388   -2.8365    0.0822 H   0  0  0  0  0  0  0  0  0  0  0  0
   -0.8768   -0.3314    0.9568 N   0  0  0  0  0  0  0  0  0  0  0  0
    0.2067    0.6285    0.7375 C   0  0  2  0  0  0  0  0  0  0  0  0
    0.4865    0.6271   -0.7623 C   0  0  0  0  0  0  0  0  0  0  0  0
    0.3990    1.6412   -1.4517 O   0  0  0  0  0  0  0  0  0  0  0  0
    1.4332    0.2060    1.5599 C   0  0  0  0  0  0  0  0  0  0  0  0
    1.2222    0.3095    3.0703 C   0  0  0  0  0  0  0  0  0  0  0  0
    2.4391   -0.1365    3.8419 C   0  0  0  0  0  0  0  0  0  0  0  0
    3.4241   -0.6482    3.3249 O   0  0  0  0  0  0  0  0  0  0  0  0
    2.3195    0.0642    5.1775 O   0  0  0  0  0  0  0  0  0  0  0  0
   -0.6087   -1.2764    1.1771 H   0  0  0  0  0  0  0  0  0  0  0  0
   -0.1357    1.6166    1.0621 H   0  0  0  0  0  0  0  0  0  0  0  0
    1.6984   -0.8294    1.3073 H   0  0  0  0  0  0  0  0  0  0  0  0
    2.2995    0.8254    1.2927 H   0  0  0  0  0  0  0  0  0  0  0  0
    1.0370    1.3548    3.3462 H   0  0  0  0  0  0  0  0  0  0  0  0
    0.3351   -0.2419    3.3987 H   0  0  0  0  0  0  0  0  0  0  0  0
    3.0829   -0.2298    5.7186 H   0  0  0  0  0  0  0  0  0  0  0  0
    0.8698   -0.6222   -1.2273 N   0  0  0  0  0  0  0  0  0  0  0  0
    1.1919   -0.8876   -2.6110 C   0  0  2  0  0  0  0  0  0  0  0  0
   -0.0681   -1.3978   -3.2977 C   0  0  0  0  0  0  0  0  0  0  0  0
   -1.0035   -1.9113   -2.6875 O   0  0  0  0  0  0  0  0  0  0  0  0
    2.3233   -1.8966   -2.7320 C   0  0  0  0  0  0  0  0  0  0  0  0
    0.9269   -1.3880   -0.5628 H   0  0  0  0  0  0  0  0  0  0  0  0
    1.4892    0.0684   -3.0555 H   0  0  0  0  0  0  0  0  0  0  0  0
    2.0439   -2.8609   -2.2920 H   0  0  0  0  0  0  0  0  0  0  0  0
    2.5854   -2.0751   -3.7801 H   0  0  0  0  0  0  0  0  0  0  0  0
    3.2196   -1.5413   -2.2121 H   0  0  0  0  0  0  0  0  0  0  0  0
   -0.0068   -1.2514   -4.6764 N   0  0  0  0  0  0  0  0  0  0  0  0
   -1.0747   -1.6717   -5.5534 C   0  0  0  0  0  0  0  0  0  0  0  0
    0.7996   -0.7974   -5.0953 H   0  0  0  0  0  0  0  0  0  0  0  0
   -0.8873   -2.7011   -5.8929 H   0  0  0  0  0  0  0  0  0  0  0  0
   -2.0309   -1.6329   -5.0111 H   0  0  0  0  0  0  0  0  0  0  0  0
   -1.1194   -1.0010   -6.4241 H   0  0  0  0  0  0  0  0  0  0  0  0
  1  3  1  0  0  0  0
  1  7  1  0  0  0  0
  1  2  2  0  0  0  0
 34 35  1  0  0  0  0
 35 43  1  0  0  0  0
 35 36  2  0  0  0  0
  8  9  1  0  0  0  0
  9 17  1  0  0  0  0
  9 10  2  0  0  0  0
 18 19  1  0  0  0  0
 19 33  1  0  0  0  0
 19 20  2  0  0  0  0
 22 23  1  0  0  0  0
 23 24  2  0  0  0  0
 23 25  1  0  0  0  0
 34 37  1  0  0  0  0
  8 11  1  0  0  0  0
 43 44  1  0  0  0  0
 21 22  1  0  0  0  0
 18 21  1  0  0  0  0
 33 34  1  0  0  0  0
  7  8  1  0  0  0  0
 17 18  1  0  0  0  0
  3  4  1  0  0  0  0
  3  5  1  0  0  0  0
  3  6  1  0  0  0  0
 37 40  1  0  0  0  0
 37 41  1  0  0  0  0
 37 42  1  0  0  0  0
 11 14  1  0  0  0  0
 11 15  1  0  0  0  0
 11 16  1  0  0  0  0
 44 46  1  0  0  0  0
 44 47  1  0  0  0  0
 44 48  1  0  0  0  0
 22 30  1  0  0  0  0
 22 31  1  0  0  0  0
 21 28  1  0  0  0  0
 21 29  1  0  0  0  0
 34 39  1  0  0  0  0
  8 13  1  0  0  0  0
 18 27  1  0  0  0  0
 43 45  1  0  0  0  0
  7 12  1  0  0  0  0
 33 38  1  0  0  0  0
 17 26  1  0  0  0  0
 25 32  1  0  0  0  0
M  END
$$$$

  -OEChem-05262214473D

 48 47  0     1  0  0  0  0  0999 V2000
   -5.5827   -1.3473    1.4591 C   0  0  0  0  0  0  0  0  0  0  0  0
   -5.7053   -2.4696    0.9825 O   0  0  0  0  0  0  0  0  0  0  0  0
   -6.7879   -0.6277    1.9670 C   0  0  0  0  0  0  0  0  0  0  0  0
   -7.2718   -0.0164    1.1885 H   0  0  0  0  0  0  0  0  0  0  0  0
   -7.5699   -1.3171    2.3239 H   0  0  0  0  0  0  0  0  0  0  0  0
   -6.6057    0.0628    2.8060 H   0  0  0  0  0  0  0  0  0  0  0  0
   -4.4001   -0.6377    1.5884 N   0  0  0  0  0  0  0  0  0  0  0  0
   -3.1220   -1.1455    1.1644 C   0  0  2  0  0  0  0  0  0  0  0  0
   -2.2017    0.0428    0.9187 C   0  0  0  0  0  0  0  0  0  0  0  0
   -2.6171    1.1750    0.6807 O   0  0  0  0  0  0  0  0  0  0  0  0
   -3.2533   -1.9992   -0.0873 C   0  0  0  0  0  0  0  0  0  0  0  0
   -4.4370    0.2910    2.0047 H   0  0  0  0  0  0  0  0  0  0  0  0
   -2.7302   -1.7467    1.9921 H   0  0  0  0  0  0  0  0  0  0  0  0
   -3.6446   -1.4140   -0.9275 H   0  0  0  0  0  0  0  0  0  0  0  0
   -2.2844   -2.4081   -0.3922 H   0  0  0  0  0  0  0  0  0  0  0  0
   -3.9388   -2.8365    0.0822 H   0  0  0  0  0  0  0  0  0  0  0  0
   -0.8768   -0.3314    0.9568 N   0  0  0  0  0  0  0  0  0  0  0  0
    0.2067    0.6285    0.7375 C   0  0  2  0  0  0  0  0  0  0  0  0
    0.4865    0.6271   -0.7623 C   0  0  0  0  0  0  0  0  0  0  0  0
    0.6643    1.6617   -1.4023 O   0  0  0  0  0  0  0  0  0  0  0  0
    1.4332    0.2060    1.5599 C   0  0  0  0  0  0  0  0  0  0  0  0
    1.2222    0.3095    3.0703 C   0  0  0  0  0  0  0  0  0  0  0  0
    2.4391   -0.1365    3.8419 C   0  0  0  0  0  0  0  0  0  0  0  0
    3.4241   -0.6482    3.3249 O   0  0  0  0  0  0  0  0  0  0  0  0
    2.3195    0.0642    5.1775 O   0  0  0  0  0  0  0  0  0  0  0  0
   -0.6087   -1.2764    1.1771 H   0  0  0  0  0  0  0  0  0  0  0  0
   -0.1357    1.6166    1.0621 H   0  0  0  0  0  0  0  0  0  0  0  0
    1.6984   -0.8294    1.3073 H   0  0  0  0  0  0  0  0  0  0  0  0
    2.2995    0.8254    1.2927 H   0  0  0  0  0  0  0  0  0  0  0  0
    1.0370    1.3548    3.3462 H   0  0  0  0  0  0  0  0  0  0  0  0
    0.3351   -0.2419    3.3987 H   0  0  0  0  0  0  0  0  0  0  0  0
    3.0829   -0.2298    5.7186 H   0  0  0  0  0  0  0  0  0  0  0  0
    0.5423   -0.6551   -1.2884 N   0  0  0  0  0  0  0  0  0  0  0  0
    0.7951   -0.9278   -2.6850 C   0  0  2  0  0  0  0  0  0  0  0  0
   -0.5488   -1.0674   -3.3877 C   0  0  0  0  0  0  0  0  0  0  0  0
   -1.5880   -1.3544   -2.7970 O   0  0  0  0  0  0  0  0  0  0  0  0
    1.6333   -2.1845   -2.8604 C   0  0  0  0  0  0  0  0  0  0  0  0
    0.3984   -1.4409   -0.6614 H   0  0  0  0  0  0  0  0  0  0  0  0
    1.3287   -0.0589   -3.0854 H   0  0  0  0  0  0  0  0  0  0  0  0
    1.1150   -3.0657   -2.4651 H   0  0  0  0  0  0  0  0  0  0  0  0
    1.8480   -2.3739   -3.9173 H   0  0  0  0  0  0  0  0  0  0  0  0
    2.5872   -2.0940   -2.3296 H   0  0  0  0  0  0  0  0  0  0  0  0
   -0.4435   -0.8762   -4.7583 N   0  0  0  0  0  0  0  0  0  0  0  0
   -1.5775   -0.9689   -5.6478 C   0  0  0  0  0  0  0  0  0  0  0  0
    0.4545   -0.6230   -5.1599 H   0  0  0  0  0  0  0  0  0  0  0  0
   -1.6561   -1.9947   -6.0370 H   0  0  0  0  0  0  0  0  0  0  0  0
   -2.4959   -0.7138   -5.0988 H   0  0  0  0  0  0  0  0  0  0  0  0
   -1.4446   -0.2683   -6.4854 H   0  0  0  0  0  0  0  0  0  0  0  0
  1  3  1  0  0  0  0
  1  7  1  0  0  0  0
  1  2  2  0  0  0  0
 34 35  1  0  0  0  0
 35 43  1  0  0  0  0
 35 36  2  0  0  0  0
  8  9  1  0  0  0  0
  9 17  1  0  0  0  0
  9 10  2  0  0  0  0
 18 19  1  0  0  0  0
 19 33  1  0  0  0  0
 19 20  2  0  0  0  0
 22 23  1  0  0  0  0
 23 24  2  0  0  0  0
 23 25  1  0  0  0  0
 34 37  1  0  0  0  0
  8 11  1  0  0  0  0
 43 44  1  0  0  0  0
 21 22  1  0  0  0  0
 18 21  1  0  0  0  0
 33 34  1  0  0  0  0
  7  8  1  0  0  0  0
 17 18  1  0  0  0  0
  3  4  1  0  0  0  0
  3  5  1  0  0  0  0
  3  6  1  0  0  0  0
 37 40  1  0  0  0  0
 37 41  1  0  0  0  0
 37 42  1  0  0  0  0
 11 14  1  0  0  0  0
 11 15  1  0  0  0  0
 11 16  1  0  0  0  0
 44 46  1  0  0  0  0
 44 47  1  0  0  0  0
 44 48  1  0  0  0  0
 22 30  1  0  0  0  0
 22 31  1  0  0  0  0
 21 28  1  0  0  0  0
 21 29  1  0  0  0  0
 34 39  1  0  0  0  0
  8 13  1  0  0  0  0
 18 27  1  0  0  0  0
 43 45  1  0  0  0  0
  7 12  1  0  0  0  0
 33 38  1  0  0  0  0
 17 26  1  0  0  0  0
 25 32  1  0  0  0  0
M  END
$$$$

  -OEChem-05262214473D

 48 47  0     1  0  0  0  0  0999 V2000
   -5.5827   -1.3473    1.4591 C   0  0  0  0  0  0  0  0  0  0  0  0
   -5.7053   -2.4696    0.9825 O   0  0  0  0  0  0  0  0  0  0  0  0
   -6.7879   -0.6277    1.9670 C   0  0  0  0  0  0  0  0  0  0  0  0
   -7.2718   -0.0164    1.1885 H   0  0  0  0  0  0  0  0  0  0  0  0
   -7.5699   -1.3171    2.3239 H   0  0  0  0  0  0  0  0  0  0  0  0
   -6.6057    0.0628    2.8060 H   0  0  0  0  0  0  0  0  0  0  0  0
   -4.4001   -0.6377    1.5884 N   0  0  0  0  0  0  0  0  0  0  0  0
   -3.1220   -1.1455    1.1644 C   0  0  2  0  0  0  0  0  0  0  0  0
   -2.2017    0.0428    0.9187 C   0  0  0  0  0  0  0  0  0  0  0  0
   -2.6171    1.1750    0.6807 O   0  0  0  0  0  0  0  0  0  0  0  0
   -3.2533   -1.9992   -0.0873 C   0  0  0  0  0  0  0  0  0  0  0  0
   -4.4370    0.2910    2.0047 H   0  0  0  0  0  0  0  0  0  0  0  0
   -2.7302   -1.7467    1.9921 H   0  0  0  0  0  0  0  0  0  0  0  0
   -3.6446   -1.4140   -0.9275 H   0  0  0  0  0  0  0  0  0  0  0  0
   -2.2844   -2.4081   -0.3922 H   0  0  0  0  0  0  0  0  0  0  0  0
   -3.9388   -2.8365    0.0822 H   0  0  0  0  0  0  0  0  0  0  0  0
   -0.8768   -0.3314    0.9568 N   0  0  0  0  0  0  0  0  0  0  0  0
    0.2067    0.6285    0.7375 C   0  0  2  0  0  0  0  0  0  0  0  0
    0.4865    0.6271   -0.7623 C   0  0  0  0  0  0  0  0  0  0  0  0
    0.9257    1.6115   -1.3534 O   0  0  0  0  0  0  0  0  0  0  0  0
    1.4332    0.2060    1.5599 C   0  0  0  0  0  0  0  0  0  0  0  0
    1.2222    0.3095    3.0703 C   0  0  0  0  0  0  0  0  0  0  0  0
    2.4391   -0.1365    3.8419 C   0  0  0  0  0  0  0  0  0  0  0  0
    3.4241   -0.6482    3.3249 O   0  0  0  0  0  0  0  0  0  0  0  0
    2.3195    0.0642    5.1775 O   0  0  0  0  0  0  0  0  0  0  0  0
   -0.6087   -1.2764    1.1771 H   0  0  0  0  0  0  0  0  0  0  0  0
   -0.1357    1.6166    1.0621 H   0  0  0  0  0  0  0  0  0  0  0  0
    1.6984   -0.8294    1.3073 H   0  0  0  0  0  0  0  0  0  0  0  0
    2.2995    0.8254    1.2927 H   0  0  0  0  0  0  0  0  0  0  0  0
    1.0370    1.3548    3.3462 H   0  0  0  0  0  0  0  0  0  0  0  0
    0.3351   -0.2419    3.3987 H   0  0  0  0  0  0  0  0  0  0  0  0
    3.0829   -0.2298    5.7186 H   0  0  0  0  0  0  0  0  0  0  0  0
    0.2176   -0.6006   -1.3490 N   0  0  0  0  0  0  0  0  0  0  0  0
    0.4016   -0.8621   -2.7585 C   0  0  2  0  0  0  0  0  0  0  0  0
   -0.9291   -0.6217   -3.4591 C   0  0  0  0  0  0  0  0  0  0  0  0
   -2.0108   -0.6625   -2.8766 O   0  0  0  0  0  0  0  0  0  0  0  0
    0.8936   -2.2810   -2.9984 C   0  0  0  0  0  0  0  0  0  0  0  0
   -0.1255   -1.3528   -0.7592 H   0  0  0  0  0  0  0  0  0  0  0  0
    1.1413   -0.1396   -3.1203 H   0  0  0  0  0  0  0  0  0  0  0  0
    0.1656   -3.0190   -2.6423 H   0  0  0  0  0  0  0  0  0  0  0  0
    1.0598   -2.4684   -4.0643 H   0  0  0  0  0  0  0  0  0  0  0  0
    1.8357   -2.4614   -2.4694 H   0  0  0  0  0  0  0  0  0  0  0  0
   -0.7698   -0.3988   -4.8196 N   0  0  0  0  0  0  0  0  0  0  0  0
   -1.8844   -0.1576   -5.7059 C   0  0  0  0  0  0  0  0  0  0  0  0
    0.1656   -0.3636   -5.2140 H   0  0  0  0  0  0  0  0  0  0  0  0
   -2.2189   -1.1100   -6.1428 H   0  0  0  0  0  0  0  0  0  0  0  0
   -2.7112    0.2964   -5.1399 H   0  0  0  0  0  0  0  0  0  0  0  0
   -1.5723    0.5250   -6.5100 H   0  0  0  0  0  0  0  0  0  0  0  0
  1  3  1  0  0  0  0
  1  7  1  0  0  0  0
  1  2  2  0  0  0  0
 34 35  1  0  0  0  0
 35 43  1  0  0  0  0
 35 36  2  0  0  0  0
  8  9  1  0  0  0  0
  9 17  1  0  0  0  0
  9 10  2  0  0  0  0
 18 19  1  0  0  0  0
 19 33  1  0  0  0  0
 19 20  2  0  0  0  0
 22 23  1  0  0  0  0
 23 24  2  0  0  0  0
 23 25  1  0  0  0  0
 34 37  1  0  0  0  0
  8 11  1  0  0  0  0
 43 44  1  0  0  0  0
 21 22  1  0  0  0  0
 18 21  1  0  0  0  0
 33 34  1  0  0  0  0
  7  8  1  0  0  0  0
 17 18  1  0  0  0  0
  3  4  1  0  0  0  0
  3  5  1  0  0  0  0
  3  6  1  0  0  0  0
 37 40  1  0  0  0  0
 37 41  1  0  0  0  0
 37 42  1  0  0  0  0
 11 14  1  0  0  0  0
 11 15  1  0  0  0  0
 11 16  1  0  0  0  0
 44 46  1  0  0  0  0
 44 47  1  0  0  0  0
 44 48  1  0  0  0  0
 22 30  1  0  0  0  0
 22 31  1  0  0  0  0
 21 28  1  0  0  0  0
 21 29  1  0  0  0  0
 34 39  1  0  0  0  0
  8 13  1  0  0  0  0
 18 27  1  0  0  0  0
 43 45  1  0  0  0  0
  7 12  1  0  0  0  0
 33 38  1  0  0  0  0
 17 26  1  0  0  0  0
 25 32  1  0  0  0  0
M  END
$$$$

  -OEChem-05262214473D

 48 47  0     1  0  0  0  0  0999 V2000
   -5.5827   -1.3473    1.4591 C   0  0  0  0  0  0  0  0  0  0  0  0
   -5.7053   -2.4696    0.9825 O   0  0  0  0  0  0  0  0  0  0  0  0
   -6.7879   -0.6277    1.9670 C   0  0  0  0  0  0  0  0  0  0  0  0
   -7.2718   -0.0164    1.1885 H   0  0  0  0  0  0  0  0  0  0  0  0
   -7.5699   -1.3171    2.3239 H   0  0  0  0  0  0  0  0  0  0  0  0
   -6.6057    0.0628    2.8060 H   0  0  0  0  0  0  0  0  0  0  0  0
   -4.4001   -0.6377    1.5884 N   0  0  0  0  0  0  0  0  0  0  0  0
   -3.1220   -1.1455    1.1644 C   0  0  2  0  0  0  0  0  0  0  0  0
   -2.2017    0.0428    0.9187 C   0  0  0  0  0  0  0  0  0  0  0  0
   -2.6171    1.1750    0.6807 O   0  0  0  0  0  0  0  0  0  0  0  0
   -3.2533   -1.9992   -0.0873 C   0  0  0  0  0  0  0  0  0  0  0  0
   -4.4370    0.2910    2.0047 H   0  0  0  0  0  0  0  0  0  0  0  0
   -2.7302   -1.7467    1.9921 H   0  0  0  0  0  0  0  0  0  0  0  0
   -3.6446   -1.4140   -0.9275 H   0  0  0  0  0  0  0  0  0  0  0  0
   -2.2844   -2.4081   -0.3922 H   0  0  0  0  0  0  0  0  0  0  0  0
   -3.9388   -2.8365    0.0822 H   0  0  0  0  0  0  0  0  0  0  0  0
   -0.8768   -0.3314    0.9568 N   0  0  0  0  0  0  0  0  0  0  0  0
    0.2067    0.6285    0.7375 C   0  0  2  0  0  0  0  0  0  0  0  0
    0.4865    0.6271   -0.7623 C   0  0  0  0  0  0  0  0  0  0  0  0
    1.1655    1.4943   -1.3086 O   0  0  0  0  0  0  0  0  0  0  0  0
    1.4332    0.2060    1.5599 C   0  0  0  0  0  0  0  0  0  0  0  0
    1.2222    0.3095    3.0703 C   0  0  0  0  0  0  0  0  0  0  0  0
    2.4391   -0.1365    3.8419 C   0  0  0  0  0  0  0  0  0  0  0  0
    3.4241   -0.6482    3.3249 O   0  0  0  0  0  0  0  0  0  0  0  0
    2.3195    0.0642    5.1775 O   0  0  0  0  0  0  0  0  0  0  0  0
   -0.6087   -1.2764    1.1771 H   0  0  0  0  0  0  0  0  0  0  0  0
   -0.1357    1.6166    1.0621 H   0  0  0  0  0  0  0  0  0  0  0  0
    1.6984   -0.8294    1.3073 H   0  0  0  0  0  0  0  0  0  0  0  0
    2.2995    0.8254    1.2927 H   0  0  0  0  0  0  0  0  0  0  0  0
    1.0370    1.3548    3.3462 H   0  0  0  0  0  0  0  0  0  0  0  0
    0.3351   -0.2419    3.3987 H   0  0  0  0  0  0  0  0  0  0  0  0
    3.0829   -0.2298    5.7186 H   0  0  0  0  0  0  0  0  0  0  0  0
   -0.0822   -0.4625   -1.4051 N   0  0  0  0  0  0  0  0  0  0  0  0
    0.0383   -0.6951   -2.8264 C   0  0  2  0  0  0  0  0  0  0  0  0
   -1.1830   -0.0910   -3.5069 C   0  0  0  0  0  0  0  0  0  0  0  0
   -2.2432    0.1172   -2.9207 O   0  0  0  0  0  0  0  0  0  0  0  0
    0.1546   -2.1794   -3.1363 C   0  0  0  0  0  0  0  0  0  0  0  0
   -0.6091   -1.1298   -0.8497 H   0  0  0  0  0  0  0  0  0  0  0  0
    0.9397   -0.1682   -3.1578 H   0  0  0  0  0  0  0  0  0  0  0  0
   -0.7395   -2.7239   -2.8114 H   0  0  0  0  0  0  0  0  0  0  0  0
    0.2744   -2.3521   -4.2110 H   0  0  0  0  0  0  0  0  0  0  0  0
    1.0164   -2.6185   -2.6222 H   0  0  0  0  0  0  0  0  0  0  0  0
   -0.9636    0.1483   -4.8563 N   0  0  0  0  0  0  0  0  0  0  0  0
   -1.9744    0.7069   -5.7235 C   0  0  0  0  0  0  0  0  0  0  0  0
   -0.0475   -0.0370   -5.2541 H   0  0  0  0  0  0  0  0  0  0  0  0
   -2.5374   -0.1072   -6.2032 H   0  0  0  0  0  0  0  0  0  0  0  0
   -2.6621    1.3290   -5.1317 H   0  0  0  0  0  0  0  0  0  0  0  0
   -1.4937    1.3250   -6.4961 H   0  0  0  0  0  0  0  0  0  0  0  0
  1  3  1  0  0  0  0
  1  7  1  0  0  0  0
  1  2  2  0  0  0  0
 34 35  1  0  0  0  0
 35 43  1  0  0  0  0
 35 36  2  0  0  0  0
  8  9  1  0  0  0  0
  9 17  1  0  0  0  0
  9 10  2  0  0  0  0
 18 19  1  0  0  0  0
 19 33  1  0  0  0  0
 19 20  2  0  0  0  0
 22 23  1  0  0  0  0
 23 24  2  0  0  0  0
 23 25  1  0  0  0  0
 34 37  1  0  0  0  0
  8 11  1  0  0  0  0
 43 44  1  0  0  0  0
 21 22  1  0  0  0  0
 18 21  1  0  0  0  0
 33 34  1  0  0  0  0
  7  8  1  0  0  0  0
 17 18  1  0  0  0  0
  3  4  1  0  0  0  0
  3  5  1  0  0  0  0
  3  6  1  0  0  0  0
 37 40  1  0  0  0  0
 37 41  1  0  0  0  0
 37 42  1  0  0  0  0
 11 14  1  0  0  0  0
 11 15  1  0  0  0  0
 11 16  1  0  0  0  0
 44 46  1  0  0  0  0
 44 47  1  0  0  0  0
 44 48  1  0  0  0  0
 22 30  1  0  0  0  0
 22 31  1  0  0  0  0
 21 28  1  0  0  0  0
 21 29  1  0  0  0  0
 34 39  1  0  0  0  0
  8 13  1  0  0  0  0
 18 27  1  0  0  0  0
 43 45  1  0  0  0  0
  7 12  1  0  0  0  0
 33 38  1  0  0  0  0
 17 26  1  0  0  0  0
 25 32  1  0  0  0  0
M  END
$$$$

  -OEChem-05262214473D

 48 47  0     1  0  0  0  0  0999 V2000
   -5.5827   -1.3473    1.4591 C   0  0  0  0  0  0  0  0  0  0  0  0
   -5.7053   -2.4696    0.9825 O   0  0  0  0  0  0  0  0  0  0  0  0
   -6.7879   -0.6277    1.9670 C   0  0  0  0  0  0  0  0  0  0  0  0
   -7.2718   -0.0164    1.1885 H   0  0  0  0  0  0  0  0  0  0  0  0
   -7.5699   -1.3171    2.3239 H   0  0  0  0  0  0  0  0  0  0  0  0
   -6.6057    0.0628    2.8060 H   0  0  0  0  0  0  0  0  0  0  0  0
   -4.4001   -0.6377    1.5884 N   0  0  0  0  0  0  0  0  0  0  0  0
   -3.1220   -1.1455    1.1644 C   0  0  2  0  0  0  0  0  0  0  0  0
   -2.2017    0.0428    0.9187 C   0  0  0  0  0  0  0  0  0  0  0  0
   -2.6171    1.1750    0.6807 O   0  0  0  0  0  0  0  0  0  0  0  0
   -3.2533   -1.9992   -0.0873 C   0  0  0  0  0  0  0  0  0  0  0  0
   -4.4370    0.2910    2.0047 H   0  0  0  0  0  0  0  0  0  0  0  0
   -2.7302   -1.7467    1.9921 H   0  0  0  0  0  0  0  0  0  0  0  0
   -3.6446   -1.4140   -0.9275 H   0  0  0  0  0  0  0  0  0  0  0  0
   -2.2844   -2.4081   -0.3922 H   0  0  0  0  0  0  0  0  0  0  0  0
   -3.9388   -2.8365    0.0822 H   0  0  0  0  0  0  0  0  0  0  0  0
   -0.8768   -0.3314    0.9568 N   0  0  0  0  0  0  0  0  0  0  0  0
    0.2067    0.6285    0.7375 C   0  0  2  0  0  0  0  0  0  0  0  0
    0.4865    0.6271   -0.7623 C   0  0  0  0  0  0  0  0  0  0  0  0
    1.3673    1.3179   -1.2708 O   0  0  0  0  0  0  0  0  0  0  0  0
    1.4332    0.2060    1.5599 C   0  0  0  0  0  0  0  0  0  0  0  0
    1.2222    0.3095    3.0703 C   0  0  0  0  0  0  0  0  0  0  0  0
    2.4391   -0.1365    3.8419 C   0  0  0  0  0  0  0  0  0  0  0  0
    3.4241   -0.6482    3.3249 O   0  0  0  0  0  0  0  0  0  0  0  0
    2.3195    0.0642    5.1775 O   0  0  0  0  0  0  0  0  0  0  0  0
   -0.6087   -1.2764    1.1771 H   0  0  0  0  0  0  0  0  0  0  0  0
   -0.1357    1.6166    1.0621 H   0  0  0  0  0  0  0  0  0  0  0  0
    1.6984   -0.8294    1.3073 H   0  0  0  0  0  0  0  0  0  0  0  0
    2.2995    0.8254    1.2927 H   0  0  0  0  0  0  0  0  0  0  0  0
    1.0370    1.3548    3.3462 H   0  0  0  0  0  0  0  0  0  0  0  0
    0.3351   -0.2419    3.3987 H   0  0  0  0  0  0  0  0  0  0  0  0
    3.0829   -0.2298    5.7186 H   0  0  0  0  0  0  0  0  0  0  0  0
   -0.3366   -0.2502   -1.4528 N   0  0  0  0  0  0  0  0  0  0  0  0
   -0.2702   -0.4381   -2.8842 C   0  0  2  0  0  0  0  0  0  0  0  0
   -1.2932    0.4885   -3.5280 C   0  0  0  0  0  0  0  0  0  0  0  0
   -2.2693    0.9315   -2.9263 O   0  0  0  0  0  0  0  0  0  0  0  0
   -0.5333   -1.8867   -3.2650 C   0  0  0  0  0  0  0  0  0  0  0  0
   -1.0194   -0.7870   -0.9266 H   0  0  0  0  0  0  0  0  0  0  0  0
    0.7377   -0.1428   -3.1955 H   0  0  0  0  0  0  0  0  0  0  0  0
   -1.5386   -2.2006   -2.9610 H   0  0  0  0  0  0  0  0  0  0  0  0
   -0.4545   -2.0330   -4.3473 H   0  0  0  0  0  0  0  0  0  0  0  0
    0.1850   -2.5545   -2.7773 H   0  0  0  0  0  0  0  0  0  0  0  0
   -1.0115    0.7278   -4.8658 N   0  0  0  0  0  0  0  0  0  0  0  0
   -1.8414    1.5657   -5.6995 C   0  0  0  0  0  0  0  0  0  0  0  0
   -0.1702    0.3346   -5.2774 H   0  0  0  0  0  0  0  0  0  0  0  0
   -2.5900    0.9453   -6.2140 H   0  0  0  0  0  0  0  0  0  0  0  0
   -2.3519    2.3134   -5.0748 H   0  0  0  0  0  0  0  0  0  0  0  0
   -1.2144    2.0771   -6.4447 H   0  0  0  0  0  0  0  0  0  0  0  0
  1  3  1  0  0  0  0
  1  7  1  0  0  0  0
  1  2  2  0  0  0  0
 34 35  1  0  0  0  0
 35 43  1  0  0  0  0
 35 36  2  0  0  0  0
  8  9  1  0  0  0  0
  9 17  1  0  0  0  0
  9 10  2  0  0  0  0
 18 19  1  0  0  0  0
 19 33  1  0  0  0  0
 19 20  2  0  0  0  0
 22 23  1  0  0  0  0
 23 24  2  0  0  0  0
 23 25  1  0  0  0  0
 34 37  1  0  0  0  0
  8 11  1  0  0  0  0
 43 44  1  0  0  0  0
 21 22  1  0  0  0  0
 18 21  1  0  0  0  0
 33 34  1  0  0  0  0
  7  8  1  0  0  0  0
 17 18  1  0  0  0  0
  3  4  1  0  0  0  0
  3  5  1  0  0  0  0
  3  6  1  0  0  0  0
 37 40  1  0  0  0  0
 37 41  1  0  0  0  0
 37 42  1  0  0  0  0
 11 14  1  0  0  0  0
 11 15  1  0  0  0  0
 11 16  1  0  0  0  0
 44 46  1  0  0  0  0
 44 47  1  0  0  0  0
 44 48  1  0  0  0  0
 22 30  1  0  0  0  0
 22 31  1  0  0  0  0
 21 28  1  0  0  0  0
 21 29  1  0  0  0  0
 34 39  1  0  0  0  0
  8 13  1  0  0  0  0
 18 27  1  0  0  0  0
 43 45  1  0  0  0  0
  7 12  1  0  0  0  0
 33 38  1  0  0  0  0
 17 26  1  0  0  0  0
 25 32  1  0  0  0  0
M  END
$$$$

  -OEChem-05262214473D

 48 47  0     1  0  0  0  0  0999 V2000
   -5.5827   -1.3473    1.4591 C   0  0  0  0  0  0  0  0  0  0  0  0
   -5.7053   -2.4696    0.9825 O   0  0  0  0  0  0  0  0  0  0  0  0
   -6.7879   -0.6277    1.9670 C   0  0  0  0  0  0  0  0  0  0  0  0
   -7.2718   -0.0164    1.1885 H   0  0  0  0  0  0  0  0  0  0  0  0
   -7.5699   -1.3171    2.3239 H   0  0  0  0  0  0  0  0  0  0  0  0
   -6.6057    0.0628    2.8060 H   0  0  0  0  0  0  0  0  0  0  0  0
   -4.4001   -0.6377    1.5884 N   0  0  0  0  0  0  0  0  0  0  0  0
   -3.1220   -1.1455    1.1644 C   0  0  2  0  0  0  0  0  0  0  0  0
   -2.2017    0.0428    0.9187 C   0  0  0  0  0  0  0  0  0  0  0  0
   -2.6171    1.1750    0.6807 O   0  0  0  0  0  0  0  0  0  0  0  0
   -3.2533   -1.9992   -0.0873 C   0  0  0  0  0  0  0  0  0  0  0  0
   -4.4370    0.2910    2.0047 H   0  0  0  0  0  0  0  0  0  0  0  0
   -2.7302   -1.7467    1.9921 H   0  0  0  0  0  0  0  0  0  0  0  0
   -3.6446   -1.4140   -0.9275 H   0  0  0  0  0  0  0  0  0  0  0  0
   -2.2844   -2.4081   -0.3922 H   0  0  0  0  0  0  0  0  0  0  0  0
   -3.9388   -2.8365    0.0822 H   0  0  0  0  0  0  0  0  0  0  0  0
   -0.8768   -0.3314    0.9568 N   0  0  0  0  0  0  0  0  0  0  0  0
    0.2067    0.6285    0.7375 C   0  0  2  0  0  0  0  0  0  0  0  0
    0.4865    0.6271   -0.7623 C   0  0  0  0  0  0  0  0  0  0  0  0
    1.5173    1.0944   -1.2426 O   0  0  0  0  0  0  0  0  0  0  0  0
    1.4332    0.2060    1.5599 C   0  0  0  0  0  0  0  0  0  0  0  0
    1.2222    0.3095    3.0703 C   0  0  0  0  0  0  0  0  0  0  0  0
    2.4391   -0.1365    3.8419 C   0  0  0  0  0  0  0  0  0  0  0  0
    3.4241   -0.6482    3.3249 O   0  0  0  0  0  0  0  0  0  0  0  0
    2.3195    0.0642    5.1775 O   0  0  0  0  0  0  0  0  0  0  0  0
   -0.6087   -1.2764    1.1771 H   0  0  0  0  0  0  0  0  0  0  0  0
   -0.1357    1.6166    1.0621 H   0  0  0  0  0  0  0  0  0  0  0  0
    1.6984   -0.8294    1.3073 H   0  0  0  0  0  0  0  0  0  0  0  0
    2.2995    0.8254    1.2927 H   0  0  0  0  0  0  0  0  0  0  0  0
    1.0370    1.3548    3.3462 H   0  0  0  0  0  0  0  0  0  0  0  0
    0.3351   -0.2419    3.3987 H   0  0  0  0  0  0  0  0  0  0  0  0
    3.0829   -0.2298    5.7186 H   0  0  0  0  0  0  0  0  0  0  0  0
   -0.5283    0.0218   -1.4888 N   0  0  0  0  0  0  0  0  0  0  0  0
   -0.5027   -0.1086   -2.9279 C   0  0  2  0  0  0  0  0  0  0  0  0
   -1.2522    1.0772   -3.5210 C   0  0  0  0  0  0  0  0  0  0  0  0
   -2.0873    1.7249   -2.8931 O   0  0  0  0  0  0  0  0  0  0  0  0
   -1.1233   -1.4228   -3.3755 C   0  0  0  0  0  0  0  0  0  0  0  0
   -1.3286   -0.3479   -0.9847 H   0  0  0  0  0  0  0  0  0  0  0  0
    0.5491   -0.0650   -3.2308 H   0  0  0  0  0  0  0  0  0  0  0  0
   -2.1773   -1.4847   -3.0808 H   0  0  0  0  0  0  0  0  0  0  0  0
   -1.0775   -1.5329   -4.4640 H   0  0  0  0  0  0  0  0  0  0  0  0
   -0.6017   -2.2738   -2.9244 H   0  0  0  0  0  0  0  0  0  0  0  0
   -0.9103    1.3002   -4.8474 N   0  0  0  0  0  0  0  0  0  0  0  0
   -1.4944    2.3603   -5.6355 C   0  0  0  0  0  0  0  0  0  0  0  0
   -0.1942    0.7258   -5.2822 H   0  0  0  0  0  0  0  0  0  0  0  0
   -2.3729    1.9758   -6.1745 H   0  0  0  0  0  0  0  0  0  0  0  0
   -1.8019    3.1828   -4.9730 H   0  0  0  0  0  0  0  0  0  0  0  0
   -0.7532    2.7300   -6.3593 H   0  0  0  0  0  0  0  0  0  0  0  0
  1  3  1  0  0  0  0
  1  7  1  0  0  0  0
  1  2  2  0  0  0  0
 34 35  1  0  0  0  0
 35 43  1  0  0  0  0
 35 36  2  0  0  0  0
  8  9  1  0  0  0  0
  9 17  1  0  0  0  0
  9 10  2  0  0  0  0
 18 19  1  0  0  0  0
 19 33  1  0  0  0  0
 19 20  2  0  0  0  0
 22 23  1  0  0  0  0
 23 24  2  0  0  0  0
 23 25  1  0  0  0  0
 34 37  1  0  0  0  0
  8 11  1  0  0  0  0
 43 44  1  0  0  0  0
 21 22  1  0  0  0  0
 18 21  1  0  0  0  0
 33 34  1  0  0  0  0
  7  8  1  0  0  0  0
 17 18  1  0  0  0  0
  3  4  1  0  0  0  0
  3  5  1  0  0  0  0
  3  6  1  0  0  0  0
 37 40  1  0  0  0  0
 37 41  1  0  0  0  0
 37 42  1  0  0  0  0
 11 14  1  0  0  0  0
 11 15  1  0  0  0  0
 11 16  1  0  0  0  0
 44 46  1  0  0  0  0
 44 47  1  0  0  0  0
 44 48  1  0  0  0  0
 22 30  1  0  0  0  0
 22 31  1  0  0  0  0
 21 28  1  0  0  0  0
 21 29  1  0  0  0  0
 34 39  1  0  0  0  0
  8 13  1  0  0  0  0
 18 27  1  0  0  0  0
 43 45  1  0  0  0  0
  7 12  1  0  0  0  0
 33 38  1  0  0  0  0
 17 26  1  0  0  0  0
 25 32  1  0  0  0  0
M  END
$$$$

  -OEChem-05262214473D

 48 47  0     1  0  0  0  0  0999 V2000
   -5.5827   -1.3473    1.4591 C   0  0  0  0  0  0  0  0  0  0  0  0
   -5.7053   -2.4696    0.9825 O   0  0  0  0  0  0  0  0  0  0  0  0
   -6.7879   -0.6277    1.9670 C   0  0  0  0  0  0  0  0  0  0  0  0
   -7.2718   -0.0164    1.1885 H   0  0  0  0  0  0  0  0  0  0  0  0
   -7.5699   -1.3171    2.3239 H   0  0  0  0  0  0  0  0  0  0  0  0
   -6.6057    0.0628    2.8060 H   0  0  0  0  0  0  0  0  0  0  0  0
   -4.4001   -0.6377    1.5884 N   0  0  0  0  0  0  0  0  0  0  0  0
   -3.1220   -1.1455    1.1644 C   0  0  2  0  0  0  0  0  0  0  0  0
   -2.2017    0.0428    0.9187 C   0  0  0  0  0  0  0  0  0  0  0  0
   -2.6171    1.1750    0.6807 O   0  0  0  0  0  0  0  0  0  0  0  0
   -3.2533   -1.9992   -0.0873 C   0  0  0  0  0  0  0  0  0  0  0  0
   -4.4370    0.2910    2.0047 H   0  0  0  0  0  0  0  0  0  0  0  0
   -2.7302   -1.7467    1.9921 H   0  0  0  0  0  0  0  0  0  0  0  0
   -3.6446   -1.4140   -0.9275 H   0  0  0  0  0  0  0  0  0  0  0  0
   -2.2844   -2.4081   -0.3922 H   0  0  0  0  0  0  0  0  0  0  0  0
   -3.9388   -2.8365    0.0822 H   0  0  0  0  0  0  0  0  0  0  0  0
   -0.8768   -0.3314    0.9568 N   0  0  0  0  0  0  0  0  0  0  0  0
    0.2067    0.6285    0.7375 C   0  0  2  0  0  0  0  0  0  0  0  0
    0.4865    0.6271   -0.7623 C   0  0  0  0  0  0  0  0  0  0  0  0
    1.6053    0.8390   -1.2259 O   0  0  0  0  0  0  0  0  0  0  0  0
    1.4332    0.2060    1.5599 C   0  0  0  0  0  0  0  0  0  0  0  0
    1.2222    0.3095    3.0703 C   0  0  0  0  0  0  0  0  0  0  0  0
    2.4391   -0.1365    3.8419 C   0  0  0  0  0  0  0  0  0  0  0  0
    3.4241   -0.6482    3.3249 O   0  0  0  0  0  0  0  0  0  0  0  0
    2.3195    0.0642    5.1775 O   0  0  0  0  0  0  0  0  0  0  0  0
   -0.6087   -1.2764    1.1771 H   0  0  0  0  0  0  0  0  0  0  0  0
   -0.1357    1.6166    1.0621 H   0  0  0  0  0  0  0  0  0  0  0  0
    1.6984   -0.8294    1.3073 H   0  0  0  0  0  0  0  0  0  0  0  0
    2.2995    0.8254    1.2927 H   0  0  0  0  0  0  0  0  0  0  0  0
    1.0370    1.3548    3.3462 H   0  0  0  0  0  0  0  0  0  0  0  0
    0.3351   -0.2419    3.3987 H   0  0  0  0  0  0  0  0  0  0  0  0
    3.0829   -0.2298    5.7186 H   0  0  0  0  0  0  0  0  0  0  0  0
   -0.6442    0.3351   -1.5107 N   0  0  0  0  0  0  0  0  0  0  0  0
   -0.6435    0.2709   -2.9545 C   0  0  2  0  0  0  0  0  0  0  0  0
   -1.0628    1.6351   -3.4862 C   0  0  0  0  0  0  0  0  0  0  0  0
   -1.7096    2.4435   -2.8233 O   0  0  0  0  0  0  0  0  0  0  0  0
   -1.5752   -0.8194   -3.4604 C   0  0  0  0  0  0  0  0  0  0  0  0
   -1.5154    0.1577   -1.0200 H   0  0  0  0  0  0  0  0  0  0  0  0
    0.3867    0.0597   -3.2612 H   0  0  0  0  0  0  0  0  0  0  0  0
   -2.6121   -0.6250   -3.1628 H   0  0  0  0  0  0  0  0  0  0  0  0
   -1.5519   -0.8858   -4.5531 H   0  0  0  0  0  0  0  0  0  0  0  0
   -1.2901   -1.7955   -3.0533 H   0  0  0  0  0  0  0  0  0  0  0  0
   -0.6670    1.8264   -4.8026 N   0  0  0  0  0  0  0  0  0  0  0  0
   -0.9571    3.0364   -5.5359 C   0  0  0  0  0  0  0  0  0  0  0  0
   -0.1178    1.1101   -5.2683 H   0  0  0  0  0  0  0  0  0  0  0  0
   -1.9010    2.9142   -6.0873 H   0  0  0  0  0  0  0  0  0  0  0  0
   -1.0494    3.8777   -4.8332 H   0  0  0  0  0  0  0  0  0  0  0  0
   -0.1416    3.2393   -6.2457 H   0  0  0  0  0  0  0  0  0  0  0  0
  1  3  1  0  0  0  0
  1  7  1  0  0  0  0
  1  2  2  0  0  0  0
 34 35  1  0  0  0  0
 35 43  1  0  0  0  0
 35 36  2  0  0  0  0
  8  9  1  0  0  0  0
  9 17  1  0  0  0  0
  9 10  2  0  0  0  0
 18 19  1  0  0  0  0
 19 33  1  0  0  0  0
 19 20  2  0  0  0  0
 22 23  1  0  0  0  0
 23 24  2  0  0  0  0
 23 25  1  0  0  0  0
 34 37  1  0  0  0  0
  8 11  1  0  0  0  0
 43 44  1  0  0  0  0
 21 22  1  0  0  0  0
 18 21  1  0  0  0  0
 33 34  1  0  0  0  0
  7  8  1  0  0  0  0
 17 18  1  0  0  0  0
  3  4  1  0  0  0  0
  3  5  1  0  0  0  0
  3  6  1  0  0  0  0
 37 40  1  0  0  0  0
 37 41  1  0  0  0  0
 37 42  1  0  0  0  0
 11 14  1  0  0  0  0
 11 15  1  0  0  0  0
 11 16  1  0  0  0  0
 44 46  1  0  0  0  0
 44 47  1  0  0  0  0
 44 48  1  0  0  0  0
 22 30  1  0  0  0  0
 22 31  1  0  0  0  0
 21 28  1  0  0  0  0
 21 29  1  0  0  0  0
 34 39  1  0  0  0  0
  8 13  1  0  0  0  0
 18 27  1  0  0  0  0
 43 45  1  0  0  0  0
  7 12  1  0  0  0  0
 33 38  1  0  0  0  0
 17 26  1  0  0  0  0
 25 32  1  0  0  0  0
M  END
$$$$

  -OEChem-05262214473D

 48 47  0     1  0  0  0  0  0999 V2000
   -5.5827   -1.3473    1.4591 C   0  0  0  0  0  0  0  0  0  0  0  0
   -5.7053   -2.4696    0.9825 O   0  0  0  0  0  0  0  0  0  0  0  0
   -6.7879   -0.6277    1.9670 C   0  0  0  0  0  0  0  0  0  0  0  0
   -7.2718   -0.0164    1.1885 H   0  0  0  0  0  0  0  0  0  0  0  0
   -7.5699   -1.3171    2.3239 H   0  0  0  0  0  0  0  0  0  0  0  0
   -6.6057    0.0628    2.8060 H   0  0  0  0  0  0  0  0  0  0  0  0
   -4.4001   -0.6377    1.5884 N   0  0  0  0  0  0  0  0  0  0  0  0
   -3.1220   -1.1455    1.1644 C   0  0  2  0  0  0  0  0  0  0  0  0
   -2.2017    0.0428    0.9187 C   0  0  0  0  0  0  0  0  0  0  0  0
   -2.6171    1.1750    0.6807 O   0  0  0  0  0  0  0  0  0  0  0  0
   -3.2533   -1.9992   -0.0873 C   0  0  0  0  0  0  0  0  0  0  0  0
   -4.4370    0.2910    2.0047 H   0  0  0  0  0  0  0  0  0  0  0  0
   -2.7302   -1.7467    1.9921 H   0  0  0  0  0  0  0  0  0  0  0  0
   -3.6446   -1.4140   -0.9275 H   0  0  0  0  0  0  0  0  0  0  0  0
   -2.2844   -2.4081   -0.3922 H   0  0  0  0  0  0  0  0  0  0  0  0
   -3.9388   -2.8365    0.0822 H   0  0  0  0  0  0  0  0  0  0  0  0
   -0.8768   -0.3314    0.9568 N   0  0  0  0  0  0  0  0  0  0  0  0
    0.2067    0.6285    0.7375 C   0  0  2  0  0  0  0  0  0  0  0  0
    0.4865    0.6271   -0.7623 C   0  0  0  0  0  0  0  0  0  0  0  0
    1.6253    0.5691   -1.2219 O   0  0  0  0  0  0  0  0  0  0  0  0
    1.4332    0.2060    1.5599 C   0  0  0  0  0  0  0  0  0  0  0  0
    1.2222    0.3095    3.0703 C   0  0  0  0  0  0  0  0  0  0  0  0
    2.4391   -0.1365    3.8419 C   0  0  0  0  0  0  0  0  0  0  0  0
    3.4241   -0.6482    3.3249 O   0  0  0  0  0  0  0  0  0  0  0  0
    2.3195    0.0642    5.1775 O   0  0  0  0  0  0  0  0  0  0  0  0
   -0.6087   -1.2764    1.1771 H   0  0  0  0  0  0  0  0  0  0  0  0
   -0.1357    1.6166    1.0621 H   0  0  0  0  0  0  0  0  0  0  0  0
    1.6984   -0.8294    1.3073 H   0  0  0  0  0  0  0  0  0  0  0  0
    2.2995    0.8254    1.2927 H   0  0  0  0  0  0  0  0  0  0  0  0
    1.0370    1.3548    3.3462 H   0  0  0  0  0  0  0  0  0  0  0  0
    0.3351   -0.2419    3.3987 H   0  0  0  0  0  0  0  0  0  0  0  0
    3.0829   -0.2298    5.7186 H   0  0  0  0  0  0  0  0  0  0  0  0
   -0.6765    0.6683   -1.5171 N   0  0  0  0  0  0  0  0  0  0  0  0
   -0.6829    0.6746   -2.9623 C   0  0  2  0  0  0  0  0  0  0  0  0
   -0.7380    2.1242   -3.4260 C   0  0  0  0  0  0  0  0  0  0  0  0
   -1.1620    3.0381   -2.7217 O   0  0  0  0  0  0  0  0  0  0  0  0
   -1.8581   -0.1175   -3.5138 C   0  0  0  0  0  0  0  0  0  0  0  0
   -1.5673    0.6953   -1.0302 H   0  0  0  0  0  0  0  0  0  0  0  0
    0.2616    0.2230   -3.2847 H   0  0  0  0  0  0  0  0  0  0  0  0
   -2.8133    0.3200   -3.2012 H   0  0  0  0  0  0  0  0  0  0  0  0
   -1.8455   -0.1357   -4.6086 H   0  0  0  0  0  0  0  0  0  0  0  0
   -1.8333   -1.1522   -3.1552 H   0  0  0  0  0  0  0  0  0  0  0  0
   -0.2981    2.2707   -4.7341 N   0  0  0  0  0  0  0  0  0  0  0  0
   -0.2661    3.5481   -5.4075 C   0  0  0  0  0  0  0  0  0  0  0  0
    0.0538    1.4611   -5.2366 H   0  0  0  0  0  0  0  0  0  0  0  0
   -1.2065    3.6963   -5.9585 H   0  0  0  0  0  0  0  0  0  0  0  0
   -0.1458    4.3508   -4.6651 H   0  0  0  0  0  0  0  0  0  0  0  0
    0.5787    3.5702   -6.1116 H   0  0  0  0  0  0  0  0  0  0  0  0
  1  3  1  0  0  0  0
  1  7  1  0  0  0  0
  1  2  2  0  0  0  0
 34 35  1  0  0  0  0
 35 43  1  0  0  0  0
 35 36  2  0  0  0  0
  8  9  1  0  0  0  0
  9 17  1  0  0  0  0
  9 10  2  0  0  0  0
 18 19  1  0  0  0  0
 19 33  1  0  0  0  0
 19 20  2  0  0  0  0
 22 23  1  0  0  0  0
 23 24  2  0  0  0  0
 23 25  1  0  0  0  0
 34 37  1  0  0  0  0
  8 11  1  0  0  0  0
 43 44  1  0  0  0  0
 21 22  1  0  0  0  0
 18 21  1  0  0  0  0
 33 34  1  0  0  0  0
  7  8  1  0  0  0  0
 17 18  1  0  0  0  0
  3  4  1  0  0  0  0
  3  5  1  0  0  0  0
  3  6  1  0  0  0  0
 37 40  1  0  0  0  0
 37 41  1  0  0  0  0
 37 42  1  0  0  0  0
 11 14  1  0  0  0  0
 11 15  1  0  0  0  0
 11 16  1  0  0  0  0
 44 46  1  0  0  0  0
 44 47  1  0  0  0  0
 44 48  1  0  0  0  0
 22 30  1  0  0  0  0
 22 31  1  0  0  0  0
 21 28  1  0  0  0  0
 21 29  1  0  0  0  0
 34 39  1  0  0  0  0
  8 13  1  0  0  0  0
 18 27  1  0  0  0  0
 43 45  1  0  0  0  0
  7 12  1  0  0  0  0
 33 38  1  0  0  0  0
 17 26  1  0  0  0  0
 25 32  1  0  0  0  0
M  END
$$$$

  -OEChem-05262214473D

 48 47  0     1  0  0  0  0  0999 V2000
   -5.5827   -1.3473    1.4591 C   0  0  0  0  0  0  0  0  0  0  0  0
   -5.7053   -2.4696    0.9825 O   0  0  0  0  0  0  0  0  0  0  0  0
   -6.7879   -0.6277    1.9670 C   0  0  0  0  0  0  0  0  0  0  0  0
   -7.2718   -0.0164    1.1885 H   0  0  0  0  0  0  0  0  0  0  0  0
   -7.5699   -1.3171    2.3239 H   0  0  0  0  0  0  0  0  0  0  0  0
   -6.6057    0.0628    2.8060 H   0  0  0  0  0  0  0  0  0  0  0  0
   -4.4001   -0.6377    1.5884 N   0  0  0  0  0  0  0  0  0  0  0  0
   -3.1220   -1.1455    1.1644 C   0  0  2  0  0  0  0  0  0  0  0  0
   -2.2017    0.0428    0.9187 C   0  0  0  0  0  0  0  0  0  0  0  0
   -2.6171    1.1750    0.6807 O   0  0  0  0  0  0  0  0  0  0  0  0
   -3.2533   -1.9992   -0.0873 C   0  0  0  0  0  0  0  0  0  0  0  0
   -4.4370    0.2910    2.0047 H   0  0  0  0  0  0  0  0  0  0  0  0
   -2.7302   -1.7467    1.9921 H   0  0  0  0  0  0  0  0  0  0  0  0
   -3.6446   -1.4140   -0.9275 H   0  0  0  0  0  0  0  0  0  0  0  0
   -2.2844   -2.4081   -0.3922 H   0  0  0  0  0  0  0  0  0  0  0  0
   -3.9388   -2.8365    0.0822 H   0  0  0  0  0  0  0  0  0  0  0  0
   -0.8768   -0.3314    0.9568 N   0  0  0  0  0  0  0  0  0  0  0  0
    0.2067    0.6285    0.7375 C   0  0  2  0  0  0  0  0  0  0  0  0
    0.4865    0.6271   -0.7623 C   0  0  0  0  0  0  0  0  0  0  0  0
    1.5760    0.3031   -1.2309 O   0  0  0  0  0  0  0  0  0  0  0  0
    1.4332    0.2060    1.5599 C   0  0  0  0  0  0  0  0  0  0  0  0
    1.2222    0.3095    3.0703 C   0  0  0  0  0  0  0  0  0  0  0  0
    2.4391   -0.1365    3.8419 C   0  0  0  0  0  0  0  0  0  0  0  0
    3.4241   -0.6482    3.3249 O   0  0  0  0  0  0  0  0  0  0  0  0
    2.3195    0.0642    5.1775 O   0  0  0  0  0  0  0  0  0  0  0  0
   -0.6087   -1.2764    1.1771 H   0  0  0  0  0  0  0  0  0  0  0  0
   -0.1357    1.6166    1.0621 H   0  0  0  0  0  0  0  0  0  0  0  0
    1.6984   -0.8294    1.3073 H   0  0  0  0  0  0  0  0  0  0  0  0
    2.2995    0.8254    1.2927 H   0  0  0  0  0  0  0  0  0  0  0  0
    1.0370    1.3548    3.3462 H   0  0  0  0  0  0  0  0  0  0  0  0
    0.3351   -0.2419    3.3987 H   0  0  0  0  0  0  0  0  0  0  0  0
    3.0829   -0.2298    5.7186 H   0  0  0  0  0  0  0  0  0  0  0  0
   -0.6229    0.9986   -1.5074 N   0  0  0  0  0  0  0  0  0  0  0  0
   -0.6183    1.0749   -2.9506 C   0  0  2  0  0  0  0  0  0  0  0  0
   -0.2997    2.5111   -3.3446 C   0  0  0  0  0  0  0  0  0  0  0  0
   -0.4818    3.4684   -2.5952 O   0  0  0  0  0  0  0  0  0  0  0  0
   -1.9528    0.6349   -3.5322 C   0  0  0  0  0  0  0  0  0  0  0  0
   -1.4806    1.2282   -1.0145 H   0  0  0  0  0  0  0  0  0  0  0  0
    0.1823    0.4136   -3.2997 H   0  0  0  0  0  0  0  0  0  0  0  0
   -2.7672    1.2857   -3.1935 H   0  0  0  0  0  0  0  0  0  0  0  0
   -1.9382    0.6661   -4.6267 H   0  0  0  0  0  0  0  0  0  0  0  0
   -2.1944   -0.3879   -3.2233 H   0  0  0  0  0  0  0  0  0  0  0  0
    0.1713    2.6028   -4.6469 N   0  0  0  0  0  0  0  0  0  0  0  0
    0.5315    3.8604   -5.2589 C   0  0  0  0  0  0  0  0  0  0  0  0
    0.3088    1.7551   -5.1893 H   0  0  0  0  0  0  0  0  0  0  0  0
   -0.3367    4.2690   -5.7968 H   0  0  0  0  0  0  0  0  0  0  0  0
    0.8473    4.5700   -4.4800 H   0  0  0  0  0  0  0  0  0  0  0  0
    1.3586    3.7002   -5.9662 H   0  0  0  0  0  0  0  0  0  0  0  0
  1  3  1  0  0  0  0
  1  7  1  0  0  0  0
  1  2  2  0  0  0  0
 34 35  1  0  0  0  0
 35 43  1  0  0  0  0
 35 36  2  0  0  0  0
  8  9  1  0  0  0  0
  9 17  1  0  0  0  0
  9 10  2  0  0  0  0
 18 19  1  0  0  0  0
 19 33  1  0  0  0  0
 19 20  2  0  0  0  0
 22 23  1  0  0  0  0
 23 24  2  0  0  0  0
 23 25  1  0  0  0  0
 34 37  1  0  0  0  0
  8 11  1  0  0  0  0
 43 44  1  0  0  0  0
 21 22  1  0  0  0  0
 18 21  1  0  0  0  0
 33 34  1  0  0  0  0
  7  8  1  0  0  0  0
 17 18  1  0  0  0  0
  3  4  1  0  0  0  0
  3  5  1  0  0  0  0
  3  6  1  0  0  0  0
 37 40  1  0  0  0  0
 37 41  1  0  0  0  0
 37 42  1  0  0  0  0
 11 14  1  0  0  0  0
 11 15  1  0  0  0  0
 11 16  1  0  0  0  0
 44 46  1  0  0  0  0
 44 47  1  0  0  0  0
 44 48  1  0  0  0  0
 22 30  1  0  0  0  0
 22 31  1  0  0  0  0
 21 28  1  0  0  0  0
 21 29  1  0  0  0  0
 34 39  1  0  0  0  0
  8 13  1  0  0  0  0
 18 27  1  0  0  0  0
 43 45  1  0  0  0  0
  7 12  1  0  0  0  0
 33 38  1  0  0  0  0
 17 26  1  0  0  0  0
 25 32  1  0  0  0  0
M  END
$$$$

  -OEChem-05262214473D

 48 47  0     1  0  0  0  0  0999 V2000
   -5.5827   -1.3473    1.4591 C   0  0  0  0  0  0  0  0  0  0  0  0
   -5.7053   -2.4696    0.9825 O   0  0  0  0  0  0  0  0  0  0  0  0
   -6.7879   -0.6277    1.9670 C   0  0  0  0  0  0  0  0  0  0  0  0
   -7.2718   -0.0164    1.1885 H   0  0  0  0  0  0  0  0  0  0  0  0
   -7.5699   -1.3171    2.3239 H   0  0  0  0  0  0  0  0  0  0  0  0
   -6.6057    0.0628    2.8060 H   0  0  0  0  0  0  0  0  0  0  0  0
   -4.4001   -0.6377    1.5884 N   0  0  0  0  0  0  0  0  0  0  0  0
   -3.1220   -1.1455    1.1644 C   0  0  2  0  0  0  0  0  0  0  0  0
   -2.2017    0.0428    0.9187 C   0  0  0  0  0  0  0  0  0  0  0  0
   -2.6171    1.1750    0.6807 O   0  0  0  0  0  0  0  0  0  0  0  0
   -3.2533   -1.9992   -0.0873 C   0  0  0  0  0  0  0  0  0  0  0  0
   -4.4370    0.2910    2.0047 H   0  0  0  0  0  0  0  0  0  0  0  0
   -2.7302   -1.7467    1.9921 H   0  0  0  0  0  0  0  0  0  0  0  0
   -3.6446   -1.4140   -0.9275 H   0  0  0  0  0  0  0  0  0  0  0  0
   -2.2844   -2.4081   -0.3922 H   0  0  0  0  0  0  0  0  0  0  0  0
   -3.9388   -2.8365    0.0822 H   0  0  0  0  0  0  0  0  0  0  0  0
   -0.8768   -0.3314    0.9568 N   0  0  0  0  0  0  0  0  0  0  0  0
    0.2067    0.6285    0.7375 C   0  0  2  0  0  0  0  0  0  0  0  0
    0.4865    0.6271   -0.7623 C   0  0  0  0  0  0  0  0  0  0  0  0
    1.4607    0.0592   -1.2521 O   0  0  0  0  0  0  0  0  0  0  0  0
    1.4332    0.2060    1.5599 C   0  0  0  0  0  0  0  0  0  0  0  0
    1.2222    0.3095    3.0703 C   0  0  0  0  0  0  0  0  0  0  0  0
    2.4391   -0.1365    3.8419 C   0  0  0  0  0  0  0  0  0  0  0  0
    3.4241   -0.6482    3.3249 O   0  0  0  0  0  0  0  0  0  0  0  0
    2.3195    0.0642    5.1775 O   0  0  0  0  0  0  0  0  0  0  0  0
   -0.6087   -1.2764    1.1771 H   0  0  0  0  0  0  0  0  0  0  0  0
   -0.1357    1.6166    1.0621 H   0  0  0  0  0  0  0  0  0  0  0  0
    1.6984   -0.8294    1.3073 H   0  0  0  0  0  0  0  0  0  0  0  0
    2.2995    0.8254    1.2927 H   0  0  0  0  0  0  0  0  0  0  0  0
    1.0370    1.3548    3.3462 H   0  0  0  0  0  0  0  0  0  0  0  0
    0.3351   -0.2419    3.3987 H   0  0  0  0  0  0  0  0  0  0  0  0
    3.0829   -0.2298    5.7186 H   0  0  0  0  0  0  0  0  0  0  0  0
   -0.4871    1.3035   -1.4823 N   0  0  0  0  0  0  0  0  0  0  0  0
   -0.4540    1.4445   -2.9203 C   0  0  2  0  0  0  0  0  0  0  0  0
    0.2220    2.7695   -3.2475 C   0  0  0  0  0  0  0  0  0  0  0  0
    0.2846    3.7049   -2.4524 O   0  0  0  0  0  0  0  0  0  0  0  0
   -1.8528    1.3867   -3.5143 C   0  0  0  0  0  0  0  0  0  0  0  0
   -1.2613    1.7202   -0.9741 H   0  0  0  0  0  0  0  0  0  0  0  0
    0.1542    0.6187   -3.3051 H   0  0  0  0  0  0  0  0  0  0  0  0
   -2.4770    2.2065   -3.1403 H   0  0  0  0  0  0  0  0  0  0  0  0
   -1.8238    1.4650   -4.6061 H   0  0  0  0  0  0  0  0  0  0  0  0
   -2.3486    0.4456   -3.2529 H   0  0  0  0  0  0  0  0  0  0  0  0
    0.7091    2.8000   -4.5467 N   0  0  0  0  0  0  0  0  0  0  0  0
    1.3813    3.9521   -5.1005 C   0  0  0  0  0  0  0  0  0  0  0  0
    0.6299    1.9719   -5.1296 H   0  0  0  0  0  0  0  0  0  0  0  0
    0.6491    4.5932   -5.6131 H   0  0  0  0  0  0  0  0  0  0  0  0
    1.8623    4.5202   -4.2906 H   0  0  0  0  0  0  0  0  0  0  0  0
    2.1450    3.6205   -5.8194 H   0  0  0  0  0  0  0  0  0  0  0  0
  1  3  1  0  0  0  0
  1  7  1  0  0  0  0
  1  2  2  0  0  0  0
 34 35  1  0  0  0  0
 35 43  1  0  0  0  0
 35 36  2  0  0  0  0
  8  9  1  0  0  0  0
  9 17  1  0  0  0  0
  9 10  2  0  0  0  0
 18 19  1  0  0  0  0
 19 33  1  0  0  0  0
 19 20  2  0  0  0  0
 22 23  1  0  0  0  0
 23 24  2  0  0  0  0
 23 25  1  0  0  0  0
 34 37  1  0  0  0  0
  8 11  1  0  0  0  0
 43 44  1  0  0  0  0
 21 22  1  0  0  0  0
 18 21  1  0  0  0  0
 33 34  1  0  0  0  0
  7  8  1  0  0  0  0
 17 18  1  0  0  0  0
  3  4  1  0  0  0  0
  3  5  1  0  0  0  0
  3  6  1  0  0  0  0
 37 40  1  0  0  0  0
 37 41  1  0  0  0  0
 37 42  1  0  0  0  0
 11 14  1  0  0  0  0
 11 15  1  0  0  0  0
 11 16  1  0  0  0  0
 44 46  1  0  0  0  0
 44 47  1  0  0  0  0
 44 48  1  0  0  0  0
 22 30  1  0  0  0  0
 22 31  1  0  0  0  0
 21 28  1  0  0  0  0
 21 29  1  0  0  0  0
 34 39  1  0  0  0  0
  8 13  1  0  0  0  0
 18 27  1  0  0  0  0
 43 45  1  0  0  0  0
  7 12  1  0  0  0  0
 33 38  1  0  0  0  0
 17 26  1  0  0  0  0
 25 32  1  0  0  0  0
M  END
$$$$

  -OEChem-05262214473D

 48 47  0     1  0  0  0  0  0999 V2000
   -5.5827   -1.3473    1.4591 C   0  0  0  0  0  0  0  0  0  0  0  0
   -5.7053   -2.4696    0.9825 O   0  0  0  0  0  0  0  0  0  0  0  0
   -6.7879   -0.6277    1.9670 C   0  0  0  0  0  0  0  0  0  0  0  0
   -7.2718   -0.0164    1.1885 H   0  0  0  0  0  0  0  0  0  0  0  0
   -7.5699   -1.3171    2.3239 H   0  0  0  0  0  0  0  0  0  0  0  0
   -6.6057    0.0628    2.8060 H   0  0  0  0  0  0  0  0  0  0  0  0
   -4.4001   -0.6377    1.5884 N   0  0  0  0  0  0  0  0  0  0  0  0
   -3.1220   -1.1455    1.1644 C   0  0  2  0  0  0  0  0  0  0  0  0
   -2.2017    0.0428    0.9187 C   0  0  0  0  0  0  0  0  0  0  0  0
   -2.6171    1.1750    0.6807 O   0  0  0  0  0  0  0  0  0  0  0  0
   -3.2533   -1.9992   -0.0873 C   0  0  0  0  0  0  0  0  0  0  0  0
   -4.4370    0.2910    2.0047 H   0  0  0  0  0  0  0  0  0  0  0  0
   -2.7302   -1.7467    1.9921 H   0  0  0  0  0  0  0  0  0  0  0  0
   -3.6446   -1.4140   -0.9275 H   0  0  0  0  0  0  0  0  0  0  0  0
   -2.2844   -2.4081   -0.3922 H   0  0  0  0  0  0  0  0  0  0  0  0
   -3.9388   -2.8365    0.0822 H   0  0  0  0  0  0  0  0  0  0  0  0
   -0.8768   -0.3314    0.9568 N   0  0  0  0  0  0  0  0  0  0  0  0
    0.2067    0.6285    0.7375 C   0  0  2  0  0  0  0  0  0  0  0  0
    0.4865    0.6271   -0.7623 C   0  0  0  0  0  0  0  0  0  0  0  0
    1.2872   -0.1461   -1.2843 O   0  0  0  0  0  0  0  0  0  0  0  0
    1.4332    0.2060    1.5599 C   0  0  0  0  0  0  0  0  0  0  0  0
    1.2222    0.3095    3.0703 C   0  0  0  0  0  0  0  0  0  0  0  0
    2.4391   -0.1365    3.8419 C   0  0  0  0  0  0  0  0  0  0  0  0
    3.4241   -0.6482    3.3249 O   0  0  0  0  0  0  0  0  0  0  0  0
    2.3195    0.0642    5.1775 O   0  0  0  0  0  0  0  0  0  0  0  0
   -0.6087   -1.2764    1.1771 H   0  0  0  0  0  0  0  0  0  0  0  0
   -0.1357    1.6166    1.0621 H   0  0  0  0  0  0  0  0  0  0  0  0
    1.6984   -0.8294    1.3073 H   0  0  0  0  0  0  0  0  0  0  0  0
    2.2995    0.8254    1.2927 H   0  0  0  0  0  0  0  0  0  0  0  0
    1.0370    1.3548    3.3462 H   0  0  0  0  0  0  0  0  0  0  0  0
    0.3351   -0.2419    3.3987 H   0  0  0  0  0  0  0  0  0  0  0  0
    3.0829   -0.2298    5.7186 H   0  0  0  0  0  0  0  0  0  0  0  0
   -0.2783    1.5624   -1.4436 N   0  0  0  0  0  0  0  0  0  0  0  0
   -0.2013    1.7583   -2.8734 C   0  0  2  0  0  0  0  0  0  0  0  0
    0.7916    2.8817   -3.1413 C   0  0  0  0  0  0  0  0  0  0  0  0
    1.0851    3.7316   -2.3031 O   0  0  0  0  0  0  0  0  0  0  0  0
   -1.5649    2.0866   -3.4612 C   0  0  0  0  0  0  0  0  0  0  0  0
   -0.9243    2.1377   -0.9116 H   0  0  0  0  0  0  0  0  0  0  0  0
    0.1792    0.8242   -3.3007 H   0  0  0  0  0  0  0  0  0  0  0  0
   -1.9624    3.0195   -3.0450 H   0  0  0  0  0  0  0  0  0  0  0  0
   -1.5100    2.2066   -4.5482 H   0  0  0  0  0  0  0  0  0  0  0  0
   -2.2855    1.2913   -3.2419 H   0  0  0  0  0  0  0  0  0  0  0  0
    1.2787    2.8488   -4.4405 N   0  0  0  0  0  0  0  0  0  0  0  0
    2.2255    3.8170   -4.9428 C   0  0  0  0  0  0  0  0  0  0  0  0
    0.9952    2.0968   -5.0616 H   0  0  0  0  0  0  0  0  0  0  0  0
    1.6838    4.6468   -5.4201 H   0  0  0  0  0  0  0  0  0  0  0  0
    2.8300    4.2049   -4.1097 H   0  0  0  0  0  0  0  0  0  0  0  0
    2.8842    3.3364   -5.6812 H   0  0  0  0  0  0  0  0  0  0  0  0
  1  3  1  0  0  0  0
  1  7  1  0  0  0  0
  1  2  2  0  0  0  0
 34 35  1  0  0  0  0
 35 43  1  0  0  0  0
 35 36  2  0  0  0  0
  8  9  1  0  0  0  0
  9 17  1  0  0  0  0
  9 10  2  0  0  0  0
 18 19  1  0  0  0  0
 19 33  1  0  0  0  0
 19 20  2  0  0  0  0
 22 23  1  0  0  0  0
 23 24  2  0  0  0  0
 23 25  1  0  0  0  0
 34 37  1  0  0  0  0
  8 11  1  0  0  0  0
 43 44  1  0  0  0  0
 21 22  1  0  0  0  0
 18 21  1  0  0  0  0
 33 34  1  0  0  0  0
  7  8  1  0  0  0  0
 17 18  1  0  0  0  0
  3  4  1  0  0  0  0
  3  5  1  0  0  0  0
  3  6  1  0  0  0  0
 37 40  1  0  0  0  0
 37 41  1  0  0  0  0
 37 42  1  0  0  0  0
 11 14  1  0  0  0  0
 11 15  1  0  0  0  0
 11 16  1  0  0  0  0
 44 46  1  0  0  0  0
 44 47  1  0  0  0  0
 44 48  1  0  0  0  0
 22 30  1  0  0  0  0
 22 31  1  0  0  0  0
 21 28  1  0  0  0  0
 21 29  1  0  0  0  0
 34 39  1  0  0  0  0
  8 13  1  0  0  0  0
 18 27  1  0  0  0  0
 43 45  1  0  0  0  0
  7 12  1  0  0  0  0
 33 38  1  0  0  0  0
 17 26  1  0  0  0  0
 25 32  1  0  0  0  0
M  END
$$$$

  -OEChem-05262214473D

 48 47  0     1  0  0  0  0  0999 V2000
   -5.5827   -1.3473    1.4591 C   0  0  0  0  0  0  0  0  0  0  0  0
   -5.7053   -2.4696    0.9825 O   0  0  0  0  0  0  0  0  0  0  0  0
   -6.7879   -0.6277    1.9670 C   0  0  0  0  0  0  0  0  0  0  0  0
   -7.2718   -0.0164    1.1885 H   0  0  0  0  0  0  0  0  0  0  0  0
   -7.5699   -1.3171    2.3239 H   0  0  0  0  0  0  0  0  0  0  0  0
   -6.6057    0.0628    2.8060 H   0  0  0  0  0  0  0  0  0  0  0  0
   -4.4001   -0.6377    1.5884 N   0  0  0  0  0  0  0  0  0  0  0  0
   -3.1220   -1.1455    1.1644 C   0  0  2  0  0  0  0  0  0  0  0  0
   -2.2017    0.0428    0.9187 C   0  0  0  0  0  0  0  0  0  0  0  0
   -2.6171    1.1750    0.6807 O   0  0  0  0  0  0  0  0  0  0  0  0
   -3.2533   -1.9992   -0.0873 C   0  0  0  0  0  0  0  0  0  0  0  0
   -4.4370    0.2910    2.0047 H   0  0  0  0  0  0  0  0  0  0  0  0
   -2.7302   -1.7467    1.9921 H   0  0  0  0  0  0  0  0  0  0  0  0
   -3.6446   -1.4140   -0.9275 H   0  0  0  0  0  0  0  0  0  0  0  0
   -2.2844   -2.4081   -0.3922 H   0  0  0  0  0  0  0  0  0  0  0  0
   -3.9388   -2.8365    0.0822 H   0  0  0  0  0  0  0  0  0  0  0  0
   -0.8768   -0.3314    0.9568 N   0  0  0  0  0  0  0  0  0  0  0  0
    0.2067    0.6285    0.7375 C   0  0  2  0  0  0  0  0  0  0  0  0
    0.4865    0.6271   -0.7623 C   0  0  0  0  0  0  0  0  0  0  0  0
    1.0675   -0.2987   -1.3252 O   0  0  0  0  0  0  0  0  0  0  0  0
    1.4332    0.2060    1.5599 C   0  0  0  0  0  0  0  0  0  0  0  0
    1.2222    0.3095    3.0703 C   0  0  0  0  0  0  0  0  0  0  0  0
    2.4391   -0.1365    3.8419 C   0  0  0  0  0  0  0  0  0  0  0  0
    3.4241   -0.6482    3.3249 O   0  0  0  0  0  0  0  0  0  0  0  0
    2.3195    0.0642    5.1775 O   0  0  0  0  0  0  0  0  0  0  0  0
   -0.6087   -1.2764    1.1771 H   0  0  0  0  0  0  0  0  0  0  0  0
   -0.1357    1.6166    1.0621 H   0  0  0  0  0  0  0  0  0  0  0  0
    1.6984   -0.8294    1.3073 H   0  0  0  0  0  0  0  0  0  0  0  0
    2.2995    0.8254    1.2927 H   0  0  0  0  0  0  0  0  0  0  0  0
    1.0370    1.3548    3.3462 H   0  0  0  0  0  0  0  0  0  0  0  0
    0.3351   -0.2419    3.3987 H   0  0  0  0  0  0  0  0  0  0  0  0
    3.0829   -0.2298    5.7186 H   0  0  0  0  0  0  0  0  0  0  0  0
   -0.0109    1.7574   -1.3939 N   0  0  0  0  0  0  0  0  0  0  0  0
    0.1226    1.9950   -2.8132 C   0  0  2  0  0  0  0  0  0  0  0  0
    1.3704    2.8401   -3.0333 C   0  0  0  0  0  0  0  0  0  0  0  0
    1.8651    3.5466   -2.1574 O   0  0  0  0  0  0  0  0  0  0  0  0
   -1.1089    2.6868   -3.3767 C   0  0  0  0  0  0  0  0  0  0  0  0
   -0.4925    2.4523   -0.8313 H   0  0  0  0  0  0  0  0  0  0  0  0
    0.2557    1.0161   -3.2866 H   0  0  0  0  0  0  0  0  0  0  0  0
   -1.2585    3.6693   -2.9143 H   0  0  0  0  0  0  0  0  0  0  0  0
   -1.0182    2.8404   -4.4571 H   0  0  0  0  0  0  0  0  0  0  0  0
   -2.0094    2.0916   -3.1912 H   0  0  0  0  0  0  0  0  0  0  0  0
    1.8414    2.7460   -4.3354 N   0  0  0  0  0  0  0  0  0  0  0  0
    3.0065    3.4641   -4.7968 C   0  0  0  0  0  0  0  0  0  0  0  0
    1.3798    2.1212   -4.9899 H   0  0  0  0  0  0  0  0  0  0  0  0
    2.6968    4.4262   -5.2309 H   0  0  0  0  0  0  0  0  0  0  0  0
    3.6845    3.6455   -3.9498 H   0  0  0  0  0  0  0  0  0  0  0  0
    3.5260    2.8674   -5.5610 H   0  0  0  0  0  0  0  0  0  0  0  0
  1  3  1  0  0  0  0
  1  7  1  0  0  0  0
  1  2  2  0  0  0  0
 34 35  1  0  0  0  0
 35 43  1  0  0  0  0
 35 36  2  0  0  0  0
  8  9  1  0  0  0  0
  9 17  1  0  0  0  0
  9 10  2  0  0  0  0
 18 19  1  0  0  0  0
 19 33  1  0  0  0  0
 19 20  2  0  0  0  0
 22 23  1  0  0  0  0
 23 24  2  0  0  0  0
 23 25  1  0  0  0  0
 34 37  1  0  0  0  0
  8 11  1  0  0  0  0
 43 44  1  0  0  0  0
 21 22  1  0  0  0  0
 18 21  1  0  0  0  0
 33 34  1  0  0  0  0
  7  8  1  0  0  0  0
 17 18  1  0  0  0  0
  3  4  1  0  0  0  0
  3  5  1  0  0  0  0
  3  6  1  0  0  0  0
 37 40  1  0  0  0  0
 37 41  1  0  0  0  0
 37 42  1  0  0  0  0
 11 14  1  0  0  0  0
 11 15  1  0  0  0  0
 11 16  1  0  0  0  0
 44 46  1  0  0  0  0
 44 47  1  0  0  0  0
 44 48  1  0  0  0  0
 22 30  1  0  0  0  0
 22 31  1  0  0  0  0
 21 28  1  0  0  0  0
 21 29  1  0  0  0  0
 34 39  1  0  0  0  0
  8 13  1  0  0  0  0
 18 27  1  0  0  0  0
 43 45  1  0  0  0  0
  7 12  1  0  0  0  0
 33 38  1  0  0  0  0
 17 26  1  0  0  0  0
 25 32  1  0  0  0  0
M  END
$$$$

  -OEChem-05262214473D

 48 47  0     1  0  0  0  0  0999 V2000
   -5.5827   -1.3473    1.4591 C   0  0  0  0  0  0  0  0  0  0  0  0
   -5.7053   -2.4696    0.9825 O   0  0  0  0  0  0  0  0  0  0  0  0
   -6.7879   -0.6277    1.9670 C   0  0  0  0  0  0  0  0  0  0  0  0
   -7.2718   -0.0164    1.1885 H   0  0  0  0  0  0  0  0  0  0  0  0
   -7.5699   -1.3171    2.3239 H   0  0  0  0  0  0  0  0  0  0  0  0
   -6.6057    0.0628    2.8060 H   0  0  0  0  0  0  0  0  0  0  0  0
   -4.4001   -0.6377    1.5884 N   0  0  0  0  0  0  0  0  0  0  0  0
   -3.1220   -1.1455    1.1644 C   0  0  2  0  0  0  0  0  0  0  0  0
   -2.2017    0.0428    0.9187 C   0  0  0  0  0  0  0  0  0  0  0  0
   -2.6171    1.1750    0.6807 O   0  0  0  0  0  0  0  0  0  0  0  0
   -3.2533   -1.9992   -0.0873 C   0  0  0  0  0  0  0  0  0  0  0  0
   -4.4370    0.2910    2.0047 H   0  0  0  0  0  0  0  0  0  0  0  0
   -2.7302   -1.7467    1.9921 H   0  0  0  0  0  0  0  0  0  0  0  0
   -3.6446   -1.4140   -0.9275 H   0  0  0  0  0  0  0  0  0  0  0  0
   -2.2844   -2.4081   -0.3922 H   0  0  0  0  0  0  0  0  0  0  0  0
   -3.9388   -2.8365    0.0822 H   0  0  0  0  0  0  0  0  0  0  0  0
   -0.8768   -0.3314    0.9568 N   0  0  0  0  0  0  0  0  0  0  0  0
    0.2067    0.6285    0.7375 C   0  0  2  0  0  0  0  0  0  0  0  0
    0.4865    0.6271   -0.7623 C   0  0  0  0  0  0  0  0  0  0  0  0
    0.8164   -0.3883   -1.3719 O   0  0  0  0  0  0  0  0  0  0  0  0
    1.4332    0.2060    1.5599 C   0  0  0  0  0  0  0  0  0  0  0  0
    1.2222    0.3095    3.0703 C   0  0  0  0  0  0  0  0  0  0  0  0
    2.4391   -0.1365    3.8419 C   0  0  0  0  0  0  0  0  0  0  0  0
    3.4241   -0.6482    3.3249 O   0  0  0  0  0  0  0  0  0  0  0  0
    2.3195    0.0642    5.1775 O   0  0  0  0  0  0  0  0  0  0  0  0
   -0.6087   -1.2764    1.1771 H   0  0  0  0  0  0  0  0  0  0  0  0
   -0.1357    1.6166    1.0621 H   0  0  0  0  0  0  0  0  0  0  0  0
    1.6984   -0.8294    1.3073 H   0  0  0  0  0  0  0  0  0  0  0  0
    2.2995    0.8254    1.2927 H   0  0  0  0  0  0  0  0  0  0  0  0
    1.0370    1.3548    3.3462 H   0  0  0  0  0  0  0  0  0  0  0  0
    0.3351   -0.2419    3.3987 H   0  0  0  0  0  0  0  0  0  0  0  0
    3.0829   -0.2298    5.7186 H   0  0  0  0  0  0  0  0  0  0  0  0
    0.2971    1.8754   -1.3366 N   0  0  0  0  0  0  0  0  0  0  0  0
    0.4957    2.1382   -2.7437 C   0  0  2  0  0  0  0  0  0  0  0  0
    1.9188    2.6475   -2.9308 C   0  0  0  0  0  0  0  0  0  0  0  0
    2.5714    3.1625   -2.0253 O   0  0  0  0  0  0  0  0  0  0  0  0
   -0.5156    3.1466   -3.2664 C   0  0  0  0  0  0  0  0  0  0  0  0
    0.0045    2.6425   -0.7388 H   0  0  0  0  0  0  0  0  0  0  0  0
    0.3784    1.1813   -3.2639 H   0  0  0  0  0  0  0  0  0  0  0  0
   -0.4133    4.1117   -2.7570 H   0  0  0  0  0  0  0  0  0  0  0  0
   -0.3820    3.3231   -4.3388 H   0  0  0  0  0  0  0  0  0  0  0  0
   -1.5392    2.7919   -3.1041 H   0  0  0  0  0  0  0  0  0  0  0  0
    2.3587    2.4986   -4.2387 N   0  0  0  0  0  0  0  0  0  0  0  0
    3.6711    2.9177   -4.6723 C   0  0  0  0  0  0  0  0  0  0  0  0
    1.7575    2.0436   -4.9193 H   0  0  0  0  0  0  0  0  0  0  0  0
    3.6191    3.9464   -5.0584 H   0  0  0  0  0  0  0  0  0  0  0  0
    4.3675    2.8802   -3.8216 H   0  0  0  0  0  0  0  0  0  0  0  0
    4.0265    2.2454   -5.4670 H   0  0  0  0  0  0  0  0  0  0  0  0
  1  3  1  0  0  0  0
  1  7  1  0  0  0  0
  1  2  2  0  0  0  0
 34 35  1  0  0  0  0
 35 43  1  0  0  0  0
 35 36  2  0  0  0  0
  8  9  1  0  0  0  0
  9 17  1  0  0  0  0
  9 10  2  0  0  0  0
 18 19  1  0  0  0  0
 19 33  1  0  0  0  0
 19 20  2  0  0  0  0
 22 23  1  0  0  0  0
 23 24  2  0  0  0  0
 23 25  1  0  0  0  0
 34 37  1  0  0  0  0
  8 11  1  0  0  0  0
 43 44  1  0  0  0  0
 21 22  1  0  0  0  0
 18 21  1  0  0  0  0
 33 34  1  0  0  0  0
  7  8  1  0  0  0  0
 17 18  1  0  0  0  0
  3  4  1  0  0  0  0
  3  5  1  0  0  0  0
  3  6  1  0  0  0  0
 37 40  1  0  0  0  0
 37 41  1  0  0  0  0
 37 42  1  0  0  0  0
 11 14  1  0  0  0  0
 11 15  1  0  0  0  0
 11 16  1  0  0  0  0
 44 46  1  0  0  0  0
 44 47  1  0  0  0  0
 44 48  1  0  0  0  0
 22 30  1  0  0  0  0
 22 31  1  0  0  0  0
 21 28  1  0  0  0  0
 21 29  1  0  0  0  0
 34 39  1  0  0  0  0
  8 13  1  0  0  0  0
 18 27  1  0  0  0  0
 43 45  1  0  0  0  0
  7 12  1  0  0  0  0
 33 38  1  0  0  0  0
 17 26  1  0  0  0  0
 25 32  1  0  0  0  0
M  END
$$$$

  -OEChem-05262214473D

 48 47  0     1  0  0  0  0  0999 V2000
   -5.5827   -1.3473    1.4591 C   0  0  0  0  0  0  0  0  0  0  0  0
   -5.7053   -2.4696    0.9825 O   0  0  0  0  0  0  0  0  0  0  0  0
   -6.7879   -0.6277    1.9670 C   0  0  0  0  0  0  0  0  0  0  0  0
   -7.2718   -0.0164    1.1885 H   0  0  0  0  0  0  0  0  0  0  0  0
   -7.5699   -1.3171    2.3239 H   0  0  0  0  0  0  0  0  0  0  0  0
   -6.6057    0.0628    2.8060 H   0  0  0  0  0  0  0  0  0  0  0  0
   -4.4001   -0.6377    1.5884 N   0  0  0  0  0  0  0  0  0  0  0  0
   -3.1220   -1.1455    1.1644 C   0  0  2  0  0  0  0  0  0  0  0  0
   -2.2017    0.0428    0.9187 C   0  0  0  0  0  0  0  0  0  0  0  0
   -2.6171    1.1750    0.6807 O   0  0  0  0  0  0  0  0  0  0  0  0
   -3.2533   -1.9992   -0.0873 C   0  0  0  0  0  0  0  0  0  0  0  0
   -4.4370    0.2910    2.0047 H   0  0  0  0  0  0  0  0  0  0  0  0
   -2.7302   -1.7467    1.9921 H   0  0  0  0  0  0  0  0  0  0  0  0
   -3.6446   -1.4140   -0.9275 H   0  0  0  0  0  0  0  0  0  0  0  0
   -2.2844   -2.4081   -0.3922 H   0  0  0  0  0  0  0  0  0  0  0  0
   -3.9388   -2.8365    0.0822 H   0  0  0  0  0  0  0  0  0  0  0  0
   -0.8768   -0.3314    0.9568 N   0  0  0  0  0  0  0  0  0  0  0  0
    0.2067    0.6285    0.7375 C   0  0  2  0  0  0  0  0  0  0  0  0
    0.4865    0.6271   -0.7623 C   0  0  0  0  0  0  0  0  0  0  0  0
    0.5511   -0.4087   -1.4214 O   0  0  0  0  0  0  0  0  0  0  0  0
    1.4332    0.2060    1.5599 C   0  0  0  0  0  0  0  0  0  0  0  0
    1.2222    0.3095    3.0703 C   0  0  0  0  0  0  0  0  0  0  0  0
    2.4391   -0.1365    3.8419 C   0  0  0  0  0  0  0  0  0  0  0  0
    3.4241   -0.6482    3.3249 O   0  0  0  0  0  0  0  0  0  0  0  0
    2.3195    0.0642    5.1775 O   0  0  0  0  0  0  0  0  0  0  0  0
   -0.6087   -1.2764    1.1771 H   0  0  0  0  0  0  0  0  0  0  0  0
   -0.1357    1.6166    1.0621 H   0  0  0  0  0  0  0  0  0  0  0  0
    1.6984   -0.8294    1.3073 H   0  0  0  0  0  0  0  0  0  0  0  0
    2.2995    0.8254    1.2927 H   0  0  0  0  0  0  0  0  0  0  0  0
    1.0370    1.3548    3.3462 H   0  0  0  0  0  0  0  0  0  0  0  0
    0.3351   -0.2419    3.3987 H   0  0  0  0  0  0  0  0  0  0  0  0
    3.0829   -0.2298    5.7186 H   0  0  0  0  0  0  0  0  0  0  0  0
    0.6246    1.9083   -1.2755 N   0  0  0  0  0  0  0  0  0  0  0  0
    0.8925    2.1784   -2.6698 C   0  0  2  0  0  0  0  0  0  0  0  0
    2.3995    2.3171   -2.8408 C   0  0  0  0  0  0  0  0  0  0  0  0
    3.1559    2.6056   -1.9157 O   0  0  0  0  0  0  0  0  0  0  0  0
    0.1744    3.4345   -3.1380 C   0  0  0  0  0  0  0  0  0  0  0  0
    0.5330    2.6953   -0.6402 H   0  0  0  0  0  0  0  0  0  0  0  0
    0.5389    1.3086   -3.2340 H   0  0  0  0  0  0  0  0  0  0  0  0
    0.5156    4.3166   -2.5839 H   0  0  0  0  0  0  0  0  0  0  0  0
    0.3554    3.6219   -4.2015 H   0  0  0  0  0  0  0  0  0  0  0  0
   -0.9067    3.3447   -2.9866 H   0  0  0  0  0  0  0  0  0  0  0  0
    2.7954    2.1234   -4.1568 N   0  0  0  0  0  0  0  0  0  0  0  0
    4.1740    2.2148   -4.5778 C   0  0  0  0  0  0  0  0  0  0  0  0
    2.1026    1.8691   -4.8548 H   0  0  0  0  0  0  0  0  0  0  0  0
    4.3879    3.2400   -4.9143 H   0  0  0  0  0  0  0  0  0  0  0  0
    4.8325    1.9611   -3.7340 H   0  0  0  0  0  0  0  0  0  0  0  0
    4.3517    1.5127   -5.4057 H   0  0  0  0  0  0  0  0  0  0  0  0
  1  3  1  0  0  0  0
  1  7  1  0  0  0  0
  1  2  2  0  0  0  0
 34 35  1  0  0  0  0
 35 43  1  0  0  0  0
 35 36  2  0  0  0  0
  8  9  1  0  0  0  0
  9 17  1  0  0  0  0
  9 10  2  0  0  0  0
 18 19  1  0  0  0  0
 19 33  1  0  0  0  0
 19 20  2  0  0  0  0
 22 23  1  0  0  0  0
 23 24  2  0  0  0  0
 23 25  1  0  0  0  0
 34 37  1  0  0  0  0
  8 11  1  0  0  0  0
 43 44  1  0  0  0  0
 21 22  1  0  0  0  0
 18 21  1  0  0  0  0
 33 34  1  0  0  0  0
  7  8  1  0  0  0  0
 17 18  1  0  0  0  0
  3  4  1  0  0  0  0
  3  5  1  0  0  0  0
  3  6  1  0  0  0  0
 37 40  1  0  0  0  0
 37 41  1  0  0  0  0
 37 42  1  0  0  0  0
 11 14  1  0  0  0  0
 11 15  1  0  0  0  0
 11 16  1  0  0  0  0
 44 46  1  0  0  0  0
 44 47  1  0  0  0  0
 44 48  1  0  0  0  0
 22 30  1  0  0  0  0
 22 31  1  0  0  0  0
 21 28  1  0  0  0  0
 21 29  1  0  0  0  0
 34 39  1  0  0  0  0
  8 13  1  0  0  0  0
 18 27  1  0  0  0  0
 43 45  1  0  0  0  0
  7 12  1  0  0  0  0
 33 38  1  0  0  0  0
 17 26  1  0  0  0  0
 25 32  1  0  0  0  0
M  END
$$$$

  -OEChem-05262214473D

 48 47  0     1  0  0  0  0  0999 V2000
   -5.5827   -1.3473    1.4591 C   0  0  0  0  0  0  0  0  0  0  0  0
   -5.7053   -2.4696    0.9825 O   0  0  0  0  0  0  0  0  0  0  0  0
   -6.7879   -0.6277    1.9670 C   0  0  0  0  0  0  0  0  0  0  0  0
   -7.2718   -0.0164    1.1885 H   0  0  0  0  0  0  0  0  0  0  0  0
   -7.5699   -1.3171    2.3239 H   0  0  0  0  0  0  0  0  0  0  0  0
   -6.6057    0.0628    2.8060 H   0  0  0  0  0  0  0  0  0  0  0  0
   -4.4001   -0.6377    1.5884 N   0  0  0  0  0  0  0  0  0  0  0  0
   -3.1220   -1.1455    1.1644 C   0  0  2  0  0  0  0  0  0  0  0  0
   -2.2017    0.0428    0.9187 C   0  0  0  0  0  0  0  0  0  0  0  0
   -2.6171    1.1750    0.6807 O   0  0  0  0  0  0  0  0  0  0  0  0
   -3.2533   -1.9992   -0.0873 C   0  0  0  0  0  0  0  0  0  0  0  0
   -4.4370    0.2910    2.0047 H   0  0  0  0  0  0  0  0  0  0  0  0
   -2.7302   -1.7467    1.9921 H   0  0  0  0  0  0  0  0  0  0  0  0
   -3.6446   -1.4140   -0.9275 H   0  0  0  0  0  0  0  0  0  0  0  0
   -2.2844   -2.4081   -0.3922 H   0  0  0  0  0  0  0  0  0  0  0  0
   -3.9388   -2.8365    0.0822 H   0  0  0  0  0  0  0  0  0  0  0  0
   -0.8768   -0.3314    0.9568 N   0  0  0  0  0  0  0  0  0  0  0  0
    0.2067    0.6285    0.7375 C   0  0  2  0  0  0  0  0  0  0  0  0
    0.4865    0.6271   -0.7623 C   0  0  0  0  0  0  0  0  0  0  0  0
    0.2897   -0.3585   -1.4702 O   0  0  0  0  0  0  0  0  0  0  0  0
    1.4332    0.2060    1.5599 C   0  0  0  0  0  0  0  0  0  0  0  0
    1.2222    0.3095    3.0703 C   0  0  0  0  0  0  0  0  0  0  0  0
    2.4391   -0.1365    3.8419 C   0  0  0  0  0  0  0  0  0  0  0  0
    3.4241   -0.6482    3.3249 O   0  0  0  0  0  0  0  0  0  0  0  0
    2.3195    0.0642    5.1775 O   0  0  0  0  0  0  0  0  0  0  0  0
   -0.6087   -1.2764    1.1771 H   0  0  0  0  0  0  0  0  0  0  0  0
   -0.1357    1.6166    1.0621 H   0  0  0  0  0  0  0  0  0  0  0  0
    1.6984   -0.8294    1.3073 H   0  0  0  0  0  0  0  0  0  0  0  0
    2.2995    0.8254    1.2927 H   0  0  0  0  0  0  0  0  0  0  0  0
    1.0370    1.3548    3.3462 H   0  0  0  0  0  0  0  0  0  0  0  0
    0.3351   -0.2419    3.3987 H   0  0  0  0  0  0  0  0  0  0  0  0
    3.0829   -0.2298    5.7186 H   0  0  0  0  0  0  0  0  0  0  0  0
    0.9493    1.8539   -1.2149 N   0  0  0  0  0  0  0  0  0  0  0  0
    1.2860    2.1127   -2.5963 C   0  0  2  0  0  0  0  0  0  0  0  0
    2.7798    1.8714   -2.7694 C   0  0  0  0  0  0  0  0  0  0  0  0
    3.5787    1.9137   -1.8361 O   0  0  0  0  0  0  0  0  0  0  0  0
    0.9141    3.5309   -3.0000 C   0  0  0  0  0  0  0  0  0  0  0  0
    1.0569    2.6072   -0.5424 H   0  0  0  0  0  0  0  0  0  0  0  0
    0.7263    1.3893   -3.1991 H   0  0  0  0  0  0  0  0  0  0  0  0
    1.4650    4.2699   -2.4067 H   0  0  0  0  0  0  0  0  0  0  0  0
    1.1436    3.7163   -4.0546 H   0  0  0  0  0  0  0  0  0  0  0  0
   -0.1552    3.7121   -2.8468 H   0  0  0  0  0  0  0  0  0  0  0  0
    3.1217    1.6460   -4.0955 N   0  0  0  0  0  0  0  0  0  0  0  0
    4.4809    1.4035   -4.5197 C   0  0  0  0  0  0  0  0  0  0  0  0
    2.3915    1.6098   -4.8006 H   0  0  0  0  0  0  0  0  0  0  0  0
    4.9507    2.3553   -4.8084 H   0  0  0  0  0  0  0  0  0  0  0  0
    5.0477    0.9509   -3.6928 H   0  0  0  0  0  0  0  0  0  0  0  0
    4.4794    0.7194   -5.3811 H   0  0  0  0  0  0  0  0  0  0  0  0
  1  3  1  0  0  0  0
  1  7  1  0  0  0  0
  1  2  2  0  0  0  0
 34 35  1  0  0  0  0
 35 43  1  0  0  0  0
 35 36  2  0  0  0  0
  8  9  1  0  0  0  0
  9 17  1  0  0  0  0
  9 10  2  0  0  0  0
 18 19  1  0  0  0  0
 19 33  1  0  0  0  0
 19 20  2  0  0  0  0
 22 23  1  0  0  0  0
 23 24  2  0  0  0  0
 23 25  1  0  0  0  0
 34 37  1  0  0  0  0
  8 11  1  0  0  0  0
 43 44  1  0  0  0  0
 21 22  1  0  0  0  0
 18 21  1  0  0  0  0
 33 34  1  0  0  0  0
  7  8  1  0  0  0  0
 17 18  1  0  0  0  0
  3  4  1  0  0  0  0
  3  5  1  0  0  0  0
  3  6  1  0  0  0  0
 37 40  1  0  0  0  0
 37 41  1  0  0  0  0
 37 42  1  0  0  0  0
 11 14  1  0  0  0  0
 11 15  1  0  0  0  0
 11 16  1  0  0  0  0
 44 46  1  0  0  0  0
 44 47  1  0  0  0  0
 44 48  1  0  0  0  0
 22 30  1  0  0  0  0
 22 31  1  0  0  0  0
 21 28  1  0  0  0  0
 21 29  1  0  0  0  0
 34 39  1  0  0  0  0
  8 13  1  0  0  0  0
 18 27  1  0  0  0  0
 43 45  1  0  0  0  0
  7 12  1  0  0  0  0
 33 38  1  0  0  0  0
 17 26  1  0  0  0  0
 25 32  1  0  0  0  0
M  END
$$$$

  -OEChem-05262214473D

 48 47  0     1  0  0  0  0  0999 V2000
   -5.5827   -1.3473    1.4591 C   0  0  0  0  0  0  0  0  0  0  0  0
   -5.7053   -2.4696    0.9825 O   0  0  0  0  0  0  0  0  0  0  0  0
   -6.7879   -0.6277    1.9670 C   0  0  0  0  0  0  0  0  0  0  0  0
   -7.2718   -0.0164    1.1885 H   0  0  0  0  0  0  0  0  0  0  0  0
   -7.5699   -1.3171    2.3239 H   0  0  0  0  0  0  0  0  0  0  0  0
   -6.6057    0.0628    2.8060 H   0  0  0  0  0  0  0  0  0  0  0  0
   -4.4001   -0.6377    1.5884 N   0  0  0  0  0  0  0  0  0  0  0  0
   -3.1220   -1.1455    1.1644 C   0  0  2  0  0  0  0  0  0  0  0  0
   -2.2017    0.0428    0.9187 C   0  0  0  0  0  0  0  0  0  0  0  0
   -2.6171    1.1750    0.6807 O   0  0  0  0  0  0  0  0  0  0  0  0
   -3.2533   -1.9992   -0.0873 C   0  0  0  0  0  0  0  0  0  0  0  0
   -4.4370    0.2910    2.0047 H   0  0  0  0  0  0  0  0  0  0  0  0
   -2.7302   -1.7467    1.9921 H   0  0  0  0  0  0  0  0  0  0  0  0
   -3.6446   -1.4140   -0.9275 H   0  0  0  0  0  0  0  0  0  0  0  0
   -2.2844   -2.4081   -0.3922 H   0  0  0  0  0  0  0  0  0  0  0  0
   -3.9388   -2.8365    0.0822 H   0  0  0  0  0  0  0  0  0  0  0  0
   -0.8768   -0.3314    0.9568 N   0  0  0  0  0  0  0  0  0  0  0  0
    0.2067    0.6285    0.7375 C   0  0  2  0  0  0  0  0  0  0  0  0
    0.4865    0.6271   -0.7623 C   0  0  0  0  0  0  0  0  0  0  0  0
    0.0499   -0.2413   -1.5151 O   0  0  0  0  0  0  0  0  0  0  0  0
    1.4332    0.2060    1.5599 C   0  0  0  0  0  0  0  0  0  0  0  0
    1.2222    0.3095    3.0703 C   0  0  0  0  0  0  0  0  0  0  0  0
    2.4391   -0.1365    3.8419 C   0  0  0  0  0  0  0  0  0  0  0  0
    3.4241   -0.6482    3.3249 O   0  0  0  0  0  0  0  0  0  0  0  0
    2.3195    0.0642    5.1775 O   0  0  0  0  0  0  0  0  0  0  0  0
   -0.6087   -1.2764    1.1771 H   0  0  0  0  0  0  0  0  0  0  0  0
   -0.1357    1.6166    1.0621 H   0  0  0  0  0  0  0  0  0  0  0  0
    1.6984   -0.8294    1.3073 H   0  0  0  0  0  0  0  0  0  0  0  0
    2.2995    0.8254    1.2927 H   0  0  0  0  0  0  0  0  0  0  0  0
    1.0370    1.3548    3.3462 H   0  0  0  0  0  0  0  0  0  0  0  0
    0.3351   -0.2419    3.3987 H   0  0  0  0  0  0  0  0  0  0  0  0
    3.0829   -0.2298    5.7186 H   0  0  0  0  0  0  0  0  0  0  0  0
    1.2491    1.7158   -1.1588 N   0  0  0  0  0  0  0  0  0  0  0  0
    1.6494    1.9457   -2.5283 C   0  0  2  0  0  0  0  0  0  0  0  0
    3.0336    1.3408   -2.7216 C   0  0  0  0  0  0  0  0  0  0  0  0
    3.8111    1.1340   -1.7921 O   0  0  0  0  0  0  0  0  0  0  0  0
    1.6531    3.4294   -2.8621 C   0  0  0  0  0  0  0  0  0  0  0  0
    1.5405    2.3842   -0.4519 H   0  0  0  0  0  0  0  0  0  0  0  0
    0.9279    1.4179   -3.1615 H   0  0  0  0  0  0  0  0  0  0  0  0
    2.3701    3.9748   -2.2376 H   0  0  0  0  0  0  0  0  0  0  0  0
    1.9289    3.6001   -3.9079 H   0  0  0  0  0  0  0  0  0  0  0  0
    0.6641    3.8691   -2.6940 H   0  0  0  0  0  0  0  0  0  0  0  0
    3.3155    1.0989   -4.0588 N   0  0  0  0  0  0  0  0  0  0  0  0
    4.5709    0.5390   -4.5021 C   0  0  0  0  0  0  0  0  0  0  0  0
    2.6046    1.2832   -4.7605 H   0  0  0  0  0  0  0  0  0  0  0  0
    5.2693    1.3525   -4.7480 H   0  0  0  0  0  0  0  0  0  0  0  0
    4.9986   -0.0817   -3.7010 H   0  0  0  0  0  0  0  0  0  0  0  0
    4.4009   -0.0806   -5.3950 H   0  0  0  0  0  0  0  0  0  0  0  0
  1  3  1  0  0  0  0
  1  7  1  0  0  0  0
  1  2  2  0  0  0  0
 34 35  1  0  0  0  0
 35 43  1  0  0  0  0
 35 36  2  0  0  0  0
  8  9  1  0  0  0  0
  9 17  1  0  0  0  0
  9 10  2  0  0  0  0
 18 19  1  0  0  0  0
 19 33  1  0  0  0  0
 19 20  2  0  0  0  0
 22 23  1  0  0  0  0
 23 24  2  0  0  0  0
 23 25  1  0  0  0  0
 34 37  1  0  0  0  0
  8 11  1  0  0  0  0
 43 44  1  0  0  0  0
 21 22  1  0  0  0  0
 18 21  1  0  0  0  0
 33 34  1  0  0  0  0
  7  8  1  0  0  0  0
 17 18  1  0  0  0  0
  3  4  1  0  0  0  0
  3  5  1  0  0  0  0
  3  6  1  0  0  0  0
 37 40  1  0  0  0  0
 37 41  1  0  0  0  0
 37 42  1  0  0  0  0
 11 14  1  0  0  0  0
 11 15  1  0  0  0  0
 11 16  1  0  0  0  0
 44 46  1  0  0  0  0
 44 47  1  0  0  0  0
 44 48  1  0  0  0  0
 22 30  1  0  0  0  0
 22 31  1  0  0  0  0
 21 28  1  0  0  0  0
 21 29  1  0  0  0  0
 34 39  1  0  0  0  0
  8 13  1  0  0  0  0
 18 27  1  0  0  0  0
 43 45  1  0  0  0  0
  7 12  1  0  0  0  0
 33 38  1  0  0  0  0
 17 26  1  0  0  0  0
 25 32  1  0  0  0  0
M  END
$$$$

  -OEChem-05262214473D

 48 47  0     1  0  0  0  0  0999 V2000
   -5.5827   -1.3473    1.4591 C   0  0  0  0  0  0  0  0  0  0  0  0
   -5.7053   -2.4696    0.9825 O   0  0  0  0  0  0  0  0  0  0  0  0
   -6.7879   -0.6277    1.9670 C   0  0  0  0  0  0  0  0  0  0  0  0
   -7.2718   -0.0164    1.1885 H   0  0  0  0  0  0  0  0  0  0  0  0
   -7.5699   -1.3171    2.3239 H   0  0  0  0  0  0  0  0  0  0  0  0
   -6.6057    0.0628    2.8060 H   0  0  0  0  0  0  0  0  0  0  0  0
   -4.4001   -0.6377    1.5884 N   0  0  0  0  0  0  0  0  0  0  0  0
   -3.1220   -1.1455    1.1644 C   0  0  2  0  0  0  0  0  0  0  0  0
   -2.2017    0.0428    0.9187 C   0  0  0  0  0  0  0  0  0  0  0  0
   -2.6171    1.1750    0.6807 O   0  0  0  0  0  0  0  0  0  0  0  0
   -3.2533   -1.9992   -0.0873 C   0  0  0  0  0  0  0  0  0  0  0  0
   -4.4370    0.2910    2.0047 H   0  0  0  0  0  0  0  0  0  0  0  0
   -2.7302   -1.7467    1.9921 H   0  0  0  0  0  0  0  0  0  0  0  0
   -3.6446   -1.4140   -0.9275 H   0  0  0  0  0  0  0  0  0  0  0  0
   -2.2844   -2.4081   -0.3922 H   0  0  0  0  0  0  0  0  0  0  0  0
   -3.9388   -2.8365    0.0822 H   0  0  0  0  0  0  0  0  0  0  0  0
   -0.8768   -0.3314    0.9568 N   0  0  0  0  0  0  0  0  0  0  0  0
    0.2067    0.6285    0.7375 C   0  0  2  0  0  0  0  0  0  0  0  0
    0.2333    0.9132   -0.7611 C   0  0  0  0  0  0  0  0  0  0  0  0
   -0.5647    0.4029   -1.5449 O   0  0  0  0  0  0  0  0  0  0  0  0
    1.5274    0.0266    1.2402 C   0  0  0  0  0  0  0  0  0  0  0  0
    1.5760   -0.1615    2.7564 C   0  0  0  0  0  0  0  0  0  0  0  0
    2.8775   -0.7763    3.2072 C   0  0  0  0  0  0  0  0  0  0  0  0
    3.7332   -1.1991    2.4403 O   0  0  0  0  0  0  0  0  0  0  0  0
    2.9925   -0.8371    4.5569 O   0  0  0  0  0  0  0  0  0  0  0  0
   -0.6087   -1.2764    1.1771 H   0  0  0  0  0  0  0  0  0  0  0  0
   -0.0219    1.5418    1.2966 H   0  0  0  0  0  0  0  0  0  0  0  0
    1.6894   -0.9452    0.7552 H   0  0  0  0  0  0  0  0  0  0  0  0
    2.3703    0.6668    0.9481 H   0  0  0  0  0  0  0  0  0  0  0  0
    1.4972    0.8139    3.2519 H   0  0  0  0  0  0  0  0  0  0  0  0
    0.7265   -0.7465    3.1240 H   0  0  0  0  0  0  0  0  0  0  0  0
    3.8176   -1.2478    4.8922 H   0  0  0  0  0  0  0  0  0  0  0  0
    1.2251    1.8179   -1.1099 N   0  0  0  0  0  0  0  0  0  0  0  0
    1.4572    2.2543   -2.4680 C   0  0  2  0  0  0  0  0  0  0  0  0
    2.5355    1.3634   -3.0705 C   0  0  0  0  0  0  0  0  0  0  0  0
    3.3453    0.7369   -2.3903 O   0  0  0  0  0  0  0  0  0  0  0  0
    1.8709    3.7169   -2.5161 C   0  0  0  0  0  0  0  0  0  0  0  0
    1.8175    2.1920   -0.3747 H   0  0  0  0  0  0  0  0  0  0  0  0
    0.5172    2.1096   -3.0116 H   0  0  0  0  0  0  0  0  0  0  0  0
    2.8108    3.8814   -1.9766 H   0  0  0  0  0  0  0  0  0  0  0  0
    2.0186    4.0537   -3.5475 H   0  0  0  0  0  0  0  0  0  0  0  0
    1.1076    4.3533   -2.0555 H   0  0  0  0  0  0  0  0  0  0  0  0
    2.5145    1.3842   -4.4580 N   0  0  0  0  0  0  0  0  0  0  0  0
    3.4468    0.6304   -5.2633 C   0  0  0  0  0  0  0  0  0  0  0  0
    1.7957    1.9170   -4.9389 H   0  0  0  0  0  0  0  0  0  0  0  0
    4.3164    1.2596   -5.5041 H   0  0  0  0  0  0  0  0  0  0  0  0
    3.7798   -0.2568   -4.7046 H   0  0  0  0  0  0  0  0  0  0  0  0
    2.9543    0.3138   -6.1945 H   0  0  0  0  0  0  0  0  0  0  0  0
  1  3  1  0  0  0  0
  1  7  1  0  0  0  0
  1  2  2  0  0  0  0
 34 35  1  0  0  0  0
 35 43  1  0  0  0  0
 35 36  2  0  0  0  0
  8  9  1  0  0  0  0
  9 17  1  0  0  0  0
  9 10  2  0  0  0  0
 18 19  1  0  0  0  0
 19 33  1  0  0  0  0
 19 20  2  0  0  0  0
 22 23  1  0  0  0  0
 23 24  2  0  0  0  0
 23 25  1  0  0  0  0
 34 37  1  0  0  0  0
  8 11  1  0  0  0  0
 43 44  1  0  0  0  0
 21 22  1  0  0  0  0
 18 21  1  0  0  0  0
 33 34  1  0  0  0  0
  7  8  1  0  0  0  0
 17 18  1  0  0  0  0
  3  4  1  0  0  0  0
  3  5  1  0  0  0  0
  3  6  1  0  0  0  0
 37 40  1  0  0  0  0
 37 41  1  0  0  0  0
 37 42  1  0  0  0  0
 11 14  1  0  0  0  0
 11 15  1  0  0  0  0
 11 16  1  0  0  0  0
 44 46  1  0  0  0  0
 44 47  1  0  0  0  0
 44 48  1  0  0  0  0
 22 30  1  0  0  0  0
 22 31  1  0  0  0  0
 21 28  1  0  0  0  0
 21 29  1  0  0  0  0
 34 39  1  0  0  0  0
  8 13  1  0  0  0  0
 18 27  1  0  0  0  0
 43 45  1  0  0  0  0
  7 12  1  0  0  0  0
 33 38  1  0  0  0  0
 17 26  1  0  0  0  0
 25 32  1  0  0  0  0
M  END
$$$$

  -OEChem-05262214473D

 48 47  0     1  0  0  0  0  0999 V2000
   -5.5827   -1.3473    1.4591 C   0  0  0  0  0  0  0  0  0  0  0  0
   -5.7053   -2.4696    0.9825 O   0  0  0  0  0  0  0  0  0  0  0  0
   -6.7879   -0.6277    1.9670 C   0  0  0  0  0  0  0  0  0  0  0  0
   -7.2718   -0.0164    1.1885 H   0  0  0  0  0  0  0  0  0  0  0  0
   -7.5699   -1.3171    2.3239 H   0  0  0  0  0  0  0  0  0  0  0  0
   -6.6057    0.0628    2.8060 H   0  0  0  0  0  0  0  0  0  0  0  0
   -4.4001   -0.6377    1.5884 N   0  0  0  0  0  0  0  0  0  0  0  0
   -3.1220   -1.1455    1.1644 C   0  0  2  0  0  0  0  0  0  0  0  0
   -2.2017    0.0428    0.9187 C   0  0  0  0  0  0  0  0  0  0  0  0
   -2.6171    1.1750    0.6807 O   0  0  0  0  0  0  0  0  0  0  0  0
   -3.2533   -1.9992   -0.0873 C   0  0  0  0  0  0  0  0  0  0  0  0
   -4.4370    0.2910    2.0047 H   0  0  0  0  0  0  0  0  0  0  0  0
   -2.7302   -1.7467    1.9921 H   0  0  0  0  0  0  0  0  0  0  0  0
   -3.6446   -1.4140   -0.9275 H   0  0  0  0  0  0  0  0  0  0  0  0
   -2.2844   -2.4081   -0.3922 H   0  0  0  0  0  0  0  0  0  0  0  0
   -3.9388   -2.8365    0.0822 H   0  0  0  0  0  0  0  0  0  0  0  0
   -0.8768   -0.3314    0.9568 N   0  0  0  0  0  0  0  0  0  0  0  0
    0.2067    0.6285    0.7375 C   0  0  2  0  0  0  0  0  0  0  0  0
    0.2333    0.9132   -0.7611 C   0  0  0  0  0  0  0  0  0  0  0  0
   -0.7047    0.6309   -1.5041 O   0  0  0  0  0  0  0  0  0  0  0  0
    1.5274    0.0266    1.2402 C   0  0  0  0  0  0  0  0  0  0  0  0
    1.5760   -0.1615    2.7564 C   0  0  0  0  0  0  0  0  0  0  0  0
    2.8775   -0.7763    3.2072 C   0  0  0  0  0  0  0  0  0  0  0  0
    3.7332   -1.1991    2.4403 O   0  0  0  0  0  0  0  0  0  0  0  0
    2.9925   -0.8371    4.5569 O   0  0  0  0  0  0  0  0  0  0  0  0
   -0.6087   -1.2764    1.1771 H   0  0  0  0  0  0  0  0  0  0  0  0
   -0.0219    1.5418    1.2966 H   0  0  0  0  0  0  0  0  0  0  0  0
    1.6894   -0.9452    0.7552 H   0  0  0  0  0  0  0  0  0  0  0  0
    2.3703    0.6668    0.9481 H   0  0  0  0  0  0  0  0  0  0  0  0
    1.4972    0.8139    3.2519 H   0  0  0  0  0  0  0  0  0  0  0  0
    0.7265   -0.7465    3.1240 H   0  0  0  0  0  0  0  0  0  0  0  0
    3.8176   -1.2478    4.8922 H   0  0  0  0  0  0  0  0  0  0  0  0
    1.4048    1.5398   -1.1595 N   0  0  0  0  0  0  0  0  0  0  0  0
    1.6751    1.9175   -2.5281 C   0  0  2  0  0  0  0  0  0  0  0  0
    2.4614    0.7884   -3.1810 C   0  0  0  0  0  0  0  0  0  0  0  0
    3.1167   -0.0306   -2.5401 O   0  0  0  0  0  0  0  0  0  0  0  0
    2.4445    3.2274   -2.5989 C   0  0  0  0  0  0  0  0  0  0  0  0
    2.1072    1.7432   -0.4548 H   0  0  0  0  0  0  0  0  0  0  0  0
    0.7045    2.0223   -3.0249 H   0  0  0  0  0  0  0  0  0  0  0  0
    3.4200    3.1418   -2.1062 H   0  0  0  0  0  0  0  0  0  0  0  0
    2.6237    3.5267   -3.6369 H   0  0  0  0  0  0  0  0  0  0  0  0
    1.8910    4.0319   -2.1027 H   0  0  0  0  0  0  0  0  0  0  0  0
    2.3802    0.8288   -4.5659 N   0  0  0  0  0  0  0  0  0  0  0  0
    3.0506   -0.1285   -5.4145 C   0  0  0  0  0  0  0  0  0  0  0  0
    1.7984    1.5319   -5.0120 H   0  0  0  0  0  0  0  0  0  0  0  0
    4.0391    0.2616   -5.6986 H   0  0  0  0  0  0  0  0  0  0  0  0
    3.1732   -1.0771   -4.8712 H   0  0  0  0  0  0  0  0  0  0  0  0
    2.4500   -0.2995   -6.3200 H   0  0  0  0  0  0  0  0  0  0  0  0
  1  3  1  0  0  0  0
  1  7  1  0  0  0  0
  1  2  2  0  0  0  0
 34 35  1  0  0  0  0
 35 43  1  0  0  0  0
 35 36  2  0  0  0  0
  8  9  1  0  0  0  0
  9 17  1  0  0  0  0
  9 10  2  0  0  0  0
 18 19  1  0  0  0  0
 19 33  1  0  0  0  0
 19 20  2  0  0  0  0
 22 23  1  0  0  0  0
 23 24  2  0  0  0  0
 23 25  1  0  0  0  0
 34 37  1  0  0  0  0
  8 11  1  0  0  0  0
 43 44  1  0  0  0  0
 21 22  1  0  0  0  0
 18 21  1  0  0  0  0
 33 34  1  0  0  0  0
  7  8  1  0  0  0  0
 17 18  1  0  0  0  0
  3  4  1  0  0  0  0
  3  5  1  0  0  0  0
  3  6  1  0  0  0  0
 37 40  1  0  0  0  0
 37 41  1  0  0  0  0
 37 42  1  0  0  0  0
 11 14  1  0  0  0  0
 11 15  1  0  0  0  0
 11 16  1  0  0  0  0
 44 46  1  0  0  0  0
 44 47  1  0  0  0  0
 44 48  1  0  0  0  0
 22 30  1  0  0  0  0
 22 31  1  0  0  0  0
 21 28  1  0  0  0  0
 21 29  1  0  0  0  0
 34 39  1  0  0  0  0
  8 13  1  0  0  0  0
 18 27  1  0  0  0  0
 43 45  1  0  0  0  0
  7 12  1  0  0  0  0
 33 38  1  0  0  0  0
 17 26  1  0  0  0  0
 25 32  1  0  0  0  0
M  END
$$$$

  -OEChem-05262214473D

 48 47  0     1  0  0  0  0  0999 V2000
   -5.5827   -1.3473    1.4591 C   0  0  0  0  0  0  0  0  0  0  0  0
   -5.7053   -2.4696    0.9825 O   0  0  0  0  0  0  0  0  0  0  0  0
   -6.7879   -0.6277    1.9670 C   0  0  0  0  0  0  0  0  0  0  0  0
   -7.2718   -0.0164    1.1885 H   0  0  0  0  0  0  0  0  0  0  0  0
   -7.5699   -1.3171    2.3239 H   0  0  0  0  0  0  0  0  0  0  0  0
   -6.6057    0.0628    2.8060 H   0  0  0  0  0  0  0  0  0  0  0  0
   -4.4001   -0.6377    1.5884 N   0  0  0  0  0  0  0  0  0  0  0  0
   -3.1220   -1.1455    1.1644 C   0  0  2  0  0  0  0  0  0  0  0  0
   -2.2017    0.0428    0.9187 C   0  0  0  0  0  0  0  0  0  0  0  0
   -2.6171    1.1750    0.6807 O   0  0  0  0  0  0  0  0  0  0  0  0
   -3.2533   -1.9992   -0.0873 C   0  0  0  0  0  0  0  0  0  0  0  0
   -4.4370    0.2910    2.0047 H   0  0  0  0  0  0  0  0  0  0  0  0
   -2.7302   -1.7467    1.9921 H   0  0  0  0  0  0  0  0  0  0  0  0
   -3.6446   -1.4140   -0.9275 H   0  0  0  0  0  0  0  0  0  0  0  0
   -2.2844   -2.4081   -0.3922 H   0  0  0  0  0  0  0  0  0  0  0  0
   -3.9388   -2.8365    0.0822 H   0  0  0  0  0  0  0  0  0  0  0  0
   -0.8768   -0.3314    0.9568 N   0  0  0  0  0  0  0  0  0  0  0  0
    0.2067    0.6285    0.7375 C   0  0  2  0  0  0  0  0  0  0  0  0
    0.2333    0.9132   -0.7611 C   0  0  0  0  0  0  0  0  0  0  0  0
   -0.7800    0.8865   -1.4568 O   0  0  0  0  0  0  0  0  0  0  0  0
    1.5274    0.0266    1.2402 C   0  0  0  0  0  0  0  0  0  0  0  0
    1.5760   -0.1615    2.7564 C   0  0  0  0  0  0  0  0  0  0  0  0
    2.8775   -0.7763    3.2072 C   0  0  0  0  0  0  0  0  0  0  0  0
    3.7332   -1.1991    2.4403 O   0  0  0  0  0  0  0  0  0  0  0  0
    2.9925   -0.8371    4.5569 O   0  0  0  0  0  0  0  0  0  0  0  0
   -0.6087   -1.2764    1.1771 H   0  0  0  0  0  0  0  0  0  0  0  0
   -0.0219    1.5418    1.2966 H   0  0  0  0  0  0  0  0  0  0  0  0
    1.6894   -0.9452    0.7552 H   0  0  0  0  0  0  0  0  0  0  0  0
    2.3703    0.6668    0.9481 H   0  0  0  0  0  0  0  0  0  0  0  0
    1.4972    0.8139    3.2519 H   0  0  0  0  0  0  0  0  0  0  0  0
    0.7265   -0.7465    3.1240 H   0  0  0  0  0  0  0  0  0  0  0  0
    3.8176   -1.2478    4.8922 H   0  0  0  0  0  0  0  0  0  0  0  0
    1.5053    1.2258   -1.2174 N   0  0  0  0  0  0  0  0  0  0  0  0
    1.7972    1.5371   -2.5982 C   0  0  2  0  0  0  0  0  0  0  0  0
    2.2383    0.2523   -3.2868 C   0  0  0  0  0  0  0  0  0  0  0  0
    2.6936   -0.7132   -2.6773 O   0  0  0  0  0  0  0  0  0  0  0  0
    2.8701    2.6091   -2.7088 C   0  0  0  0  0  0  0  0  0  0  0  0
    2.2691    1.2364   -0.5482 H   0  0  0  0  0  0  0  0  0  0  0  0
    0.8625    1.8904   -3.0471 H   0  0  0  0  0  0  0  0  0  0  0  0
    3.8141    2.2732   -2.2642 H   0  0  0  0  0  0  0  0  0  0  0  0
    3.0698    2.8642   -3.7548 H   0  0  0  0  0  0  0  0  0  0  0  0
    2.5637    3.5224   -2.1875 H   0  0  0  0  0  0  0  0  0  0  0  0
    2.1041    0.3269   -4.6661 N   0  0  0  0  0  0  0  0  0  0  0  0
    2.4677   -0.7602   -5.5448 C   0  0  0  0  0  0  0  0  0  0  0  0
    1.6997    1.1595   -5.0845 H   0  0  0  0  0  0  0  0  0  0  0  0
    3.5082   -0.6310   -5.8775 H   0  0  0  0  0  0  0  0  0  0  0  0
    2.3708   -1.7146   -5.0065 H   0  0  0  0  0  0  0  0  0  0  0  0
    1.8008   -0.7632   -6.4196 H   0  0  0  0  0  0  0  0  0  0  0  0
  1  3  1  0  0  0  0
  1  7  1  0  0  0  0
  1  2  2  0  0  0  0
 34 35  1  0  0  0  0
 35 43  1  0  0  0  0
 35 36  2  0  0  0  0
  8  9  1  0  0  0  0
  9 17  1  0  0  0  0
  9 10  2  0  0  0  0
 18 19  1  0  0  0  0
 19 33  1  0  0  0  0
 19 20  2  0  0  0  0
 22 23  1  0  0  0  0
 23 24  2  0  0  0  0
 23 25  1  0  0  0  0
 34 37  1  0  0  0  0
  8 11  1  0  0  0  0
 43 44  1  0  0  0  0
 21 22  1  0  0  0  0
 18 21  1  0  0  0  0
 33 34  1  0  0  0  0
  7  8  1  0  0  0  0
 17 18  1  0  0  0  0
  3  4  1  0  0  0  0
  3  5  1  0  0  0  0
  3  6  1  0  0  0  0
 37 40  1  0  0  0  0
 37 41  1  0  0  0  0
 37 42  1  0  0  0  0
 11 14  1  0  0  0  0
 11 15  1  0  0  0  0
 11 16  1  0  0  0  0
 44 46  1  0  0  0  0
 44 47  1  0  0  0  0
 44 48  1  0  0  0  0
 22 30  1  0  0  0  0
 22 31  1  0  0  0  0
 21 28  1  0  0  0  0
 21 29  1  0  0  0  0
 34 39  1  0  0  0  0
  8 13  1  0  0  0  0
 18 27  1  0  0  0  0
 43 45  1  0  0  0  0
  7 12  1  0  0  0  0
 33 38  1  0  0  0  0
 17 26  1  0  0  0  0
 25 32  1  0  0  0  0
M  END
$$$$

  -OEChem-05262214473D

 48 47  0     1  0  0  0  0  0999 V2000
   -5.5827   -1.3473    1.4591 C   0  0  0  0  0  0  0  0  0  0  0  0
   -5.7053   -2.4696    0.9825 O   0  0  0  0  0  0  0  0  0  0  0  0
   -6.7879   -0.6277    1.9670 C   0  0  0  0  0  0  0  0  0  0  0  0
   -7.2718   -0.0164    1.1885 H   0  0  0  0  0  0  0  0  0  0  0  0
   -7.5699   -1.3171    2.3239 H   0  0  0  0  0  0  0  0  0  0  0  0
   -6.6057    0.0628    2.8060 H   0  0  0  0  0  0  0  0  0  0  0  0
   -4.4001   -0.6377    1.5884 N   0  0  0  0  0  0  0  0  0  0  0  0
   -3.1220   -1.1455    1.1644 C   0  0  2  0  0  0  0  0  0  0  0  0
   -2.2017    0.0428    0.9187 C   0  0  0  0  0  0  0  0  0  0  0  0
   -2.6171    1.1750    0.6807 O   0  0  0  0  0  0  0  0  0  0  0  0
   -3.2533   -1.9992   -0.0873 C   0  0  0  0  0  0  0  0  0  0  0  0
   -4.4370    0.2910    2.0047 H   0  0  0  0  0  0  0  0  0  0  0  0
   -2.7302   -1.7467    1.9921 H   0  0  0  0  0  0  0  0  0  0  0  0
   -3.6446   -1.4140   -0.9275 H   0  0  0  0  0  0  0  0  0  0  0  0
   -2.2844   -2.4081   -0.3922 H   0  0  0  0  0  0  0  0  0  0  0  0
   -3.9388   -2.8365    0.0822 H   0  0  0  0  0  0  0  0  0  0  0  0
   -0.8768   -0.3314    0.9568 N   0  0  0  0  0  0  0  0  0  0  0  0
    0.2067    0.6285    0.7375 C   0  0  2  0  0  0  0  0  0  0  0  0
    0.2333    0.9132   -0.7611 C   0  0  0  0  0  0  0  0  0  0  0  0
   -0.7855    1.1524   -1.4064 O   0  0  0  0  0  0  0  0  0  0  0  0
    1.5274    0.0266    1.2402 C   0  0  0  0  0  0  0  0  0  0  0  0
    1.5760   -0.1615    2.7564 C   0  0  0  0  0  0  0  0  0  0  0  0
    2.8775   -0.7763    3.2072 C   0  0  0  0  0  0  0  0  0  0  0  0
    3.7332   -1.1991    2.4403 O   0  0  0  0  0  0  0  0  0  0  0  0
    2.9925   -0.8371    4.5569 O   0  0  0  0  0  0  0  0  0  0  0  0
   -0.6087   -1.2764    1.1771 H   0  0  0  0  0  0  0  0  0  0  0  0
   -0.0219    1.5418    1.2966 H   0  0  0  0  0  0  0  0  0  0  0  0
    1.6894   -0.9452    0.7552 H   0  0  0  0  0  0  0  0  0  0  0  0
    2.3703    0.6668    0.9481 H   0  0  0  0  0  0  0  0  0  0  0  0
    1.4972    0.8139    3.2519 H   0  0  0  0  0  0  0  0  0  0  0  0
    0.7265   -0.7465    3.1240 H   0  0  0  0  0  0  0  0  0  0  0  0
    3.8176   -1.2478    4.8922 H   0  0  0  0  0  0  0  0  0  0  0  0
    1.5197    0.8972   -1.2795 N   0  0  0  0  0  0  0  0  0  0  0  0
    1.8150    1.1389   -2.6735 C   0  0  2  0  0  0  0  0  0  0  0  0
    1.8814   -0.2083   -3.3806 C   0  0  0  0  0  0  0  0  0  0  0  0
    2.1047   -1.2644   -2.7924 O   0  0  0  0  0  0  0  0  0  0  0  0
    3.1188    1.9042   -2.8383 C   0  0  0  0  0  0  0  0  0  0  0  0
    2.2921    0.7062   -0.6485 H   0  0  0  0  0  0  0  0  0  0  0  0
    0.9806    1.7230   -3.0768 H   0  0  0  0  0  0  0  0  0  0  0  0
    3.9663    1.3347   -2.4398 H   0  0  0  0  0  0  0  0  0  0  0  0
    3.3266    2.1114   -3.8932 H   0  0  0  0  0  0  0  0  0  0  0  0
    3.0800    2.8597   -2.3042 H   0  0  0  0  0  0  0  0  0  0  0  0
    1.7049   -0.0872   -4.7519 N   0  0  0  0  0  0  0  0  0  0  0  0
    1.7377   -1.2215   -5.6454 C   0  0  0  0  0  0  0  0  0  0  0  0
    1.5061    0.8252   -5.1515 H   0  0  0  0  0  0  0  0  0  0  0  0
    2.7598   -1.3575   -6.0288 H   0  0  0  0  0  0  0  0  0  0  0  0
    1.4271   -2.1257   -5.1014 H   0  0  0  0  0  0  0  0  0  0  0  0
    1.0511   -1.0456   -6.4865 H   0  0  0  0  0  0  0  0  0  0  0  0
  1  3  1  0  0  0  0
  1  7  1  0  0  0  0
  1  2  2  0  0  0  0
 34 35  1  0  0  0  0
 35 43  1  0  0  0  0
 35 36  2  0  0  0  0
  8  9  1  0  0  0  0
  9 17  1  0  0  0  0
  9 10  2  0  0  0  0
 18 19  1  0  0  0  0
 19 33  1  0  0  0  0
 19 20  2  0  0  0  0
 22 23  1  0  0  0  0
 23 24  2  0  0  0  0
 23 25  1  0  0  0  0
 34 37  1  0  0  0  0
  8 11  1  0  0  0  0
 43 44  1  0  0  0  0
 21 22  1  0  0  0  0
 18 21  1  0  0  0  0
 33 34  1  0  0  0  0
  7  8  1  0  0  0  0
 17 18  1  0  0  0  0
  3  4  1  0  0  0  0
  3  5  1  0  0  0  0
  3  6  1  0  0  0  0
 37 40  1  0  0  0  0
 37 41  1  0  0  0  0
 37 42  1  0  0  0  0
 11 14  1  0  0  0  0
 11 15  1  0  0  0  0
 11 16  1  0  0  0  0
 44 46  1  0  0  0  0
 44 47  1  0  0  0  0
 44 48  1  0  0  0  0
 22 30  1  0  0  0  0
 22 31  1  0  0  0  0
 21 28  1  0  0  0  0
 21 29  1  0  0  0  0
 34 39  1  0  0  0  0
  8 13  1  0  0  0  0
 18 27  1  0  0  0  0
 43 45  1  0  0  0  0
  7 12  1  0  0  0  0
 33 38  1  0  0  0  0
 17 26  1  0  0  0  0
 25 32  1  0  0  0  0
M  END
$$$$

  -OEChem-05262214473D

 48 47  0     1  0  0  0  0  0999 V2000
   -5.5827   -1.3473    1.4591 C   0  0  0  0  0  0  0  0  0  0  0  0
   -5.7053   -2.4696    0.9825 O   0  0  0  0  0  0  0  0  0  0  0  0
   -6.7879   -0.6277    1.9670 C   0  0  0  0  0  0  0  0  0  0  0  0
   -7.2718   -0.0164    1.1885 H   0  0  0  0  0  0  0  0  0  0  0  0
   -7.5699   -1.3171    2.3239 H   0  0  0  0  0  0  0  0  0  0  0  0
   -6.6057    0.0628    2.8060 H   0  0  0  0  0  0  0  0  0  0  0  0
   -4.4001   -0.6377    1.5884 N   0  0  0  0  0  0  0  0  0  0  0  0
   -3.1220   -1.1455    1.1644 C   0  0  2  0  0  0  0  0  0  0  0  0
   -2.2017    0.0428    0.9187 C   0  0  0  0  0  0  0  0  0  0  0  0
   -2.6171    1.1750    0.6807 O   0  0  0  0  0  0  0  0  0  0  0  0
   -3.2533   -1.9992   -0.0873 C   0  0  0  0  0  0  0  0  0  0  0  0
   -4.4370    0.2910    2.0047 H   0  0  0  0  0  0  0  0  0  0  0  0
   -2.7302   -1.7467    1.9921 H   0  0  0  0  0  0  0  0  0  0  0  0
   -3.6446   -1.4140   -0.9275 H   0  0  0  0  0  0  0  0  0  0  0  0
   -2.2844   -2.4081   -0.3922 H   0  0  0  0  0  0  0  0  0  0  0  0
   -3.9388   -2.8365    0.0822 H   0  0  0  0  0  0  0  0  0  0  0  0
   -0.8768   -0.3314    0.9568 N   0  0  0  0  0  0  0  0  0  0  0  0
    0.2067    0.6285    0.7375 C   0  0  2  0  0  0  0  0  0  0  0  0
    0.2333    0.9132   -0.7611 C   0  0  0  0  0  0  0  0  0  0  0  0
   -0.7207    1.4103   -1.3563 O   0  0  0  0  0  0  0  0  0  0  0  0
    1.5274    0.0266    1.2402 C   0  0  0  0  0  0  0  0  0  0  0  0
    1.5760   -0.1615    2.7564 C   0  0  0  0  0  0  0  0  0  0  0  0
    2.8775   -0.7763    3.2072 C   0  0  0  0  0  0  0  0  0  0  0  0
    3.7332   -1.1991    2.4403 O   0  0  0  0  0  0  0  0  0  0  0  0
    2.9925   -0.8371    4.5569 O   0  0  0  0  0  0  0  0  0  0  0  0
   -0.6087   -1.2764    1.1771 H   0  0  0  0  0  0  0  0  0  0  0  0
   -0.0219    1.5418    1.2966 H   0  0  0  0  0  0  0  0  0  0  0  0
    1.6894   -0.9452    0.7552 H   0  0  0  0  0  0  0  0  0  0  0  0
    2.3703    0.6668    0.9481 H   0  0  0  0  0  0  0  0  0  0  0  0
    1.4972    0.8139    3.2519 H   0  0  0  0  0  0  0  0  0  0  0  0
    0.7265   -0.7465    3.1240 H   0  0  0  0  0  0  0  0  0  0  0  0
    3.8176   -1.2478    4.8922 H   0  0  0  0  0  0  0  0  0  0  0  0
    1.4471    0.5764   -1.3418 N   0  0  0  0  0  0  0  0  0  0  0  0
    1.7273    0.7501   -2.7489 C   0  0  2  0  0  0  0  0  0  0  0  0
    1.4151   -0.5621   -3.4561 C   0  0  0  0  0  0  0  0  0  0  0  0
    1.3902   -1.6465   -2.8777 O   0  0  0  0  0  0  0  0  0  0  0  0
    3.1734    1.1607   -2.9785 C   0  0  0  0  0  0  0  0  0  0  0  0
    2.1747    0.1885   -0.7489 H   0  0  0  0  0  0  0  0  0  0  0  0
    1.0506    1.5313   -3.1120 H   0  0  0  0  0  0  0  0  0  0  0  0
    3.8663    0.3902   -2.6210 H   0  0  0  0  0  0  0  0  0  0  0  0
    3.3765    1.3196   -4.0427 H   0  0  0  0  0  0  0  0  0  0  0  0
    3.4045    2.0889   -2.4449 H   0  0  0  0  0  0  0  0  0  0  0  0
    1.2099   -0.3854   -4.8173 N   0  0  0  0  0  0  0  0  0  0  0  0
    0.9105   -1.4811   -5.7093 C   0  0  0  0  0  0  0  0  0  0  0  0
    1.2309    0.5519   -5.2083 H   0  0  0  0  0  0  0  0  0  0  0  0
    1.8449   -1.8682   -6.1420 H   0  0  0  0  0  0  0  0  0  0  0  0
    0.4064   -2.2825   -5.1492 H   0  0  0  0  0  0  0  0  0  0  0  0
    0.2519   -1.1274   -6.5162 H   0  0  0  0  0  0  0  0  0  0  0  0
  1  3  1  0  0  0  0
  1  7  1  0  0  0  0
  1  2  2  0  0  0  0
 34 35  1  0  0  0  0
 35 43  1  0  0  0  0
 35 36  2  0  0  0  0
  8  9  1  0  0  0  0
  9 17  1  0  0  0  0
  9 10  2  0  0  0  0
 18 19  1  0  0  0  0
 19 33  1  0  0  0  0
 19 20  2  0  0  0  0
 22 23  1  0  0  0  0
 23 24  2  0  0  0  0
 23 25  1  0  0  0  0
 34 37  1  0  0  0  0
  8 11  1  0  0  0  0
 43 44  1  0  0  0  0
 21 22  1  0  0  0  0
 18 21  1  0  0  0  0
 33 34  1  0  0  0  0
  7  8  1  0  0  0  0
 17 18  1  0  0  0  0
  3  4  1  0  0  0  0
  3  5  1  0  0  0  0
  3  6  1  0  0  0  0
 37 40  1  0  0  0  0
 37 41  1  0  0  0  0
 37 42  1  0  0  0  0
 11 14  1  0  0  0  0
 11 15  1  0  0  0  0
 11 16  1  0  0  0  0
 44 46  1  0  0  0  0
 44 47  1  0  0  0  0
 44 48  1  0  0  0  0
 22 30  1  0  0  0  0
 22 31  1  0  0  0  0
 21 28  1  0  0  0  0
 21 29  1  0  0  0  0
 34 39  1  0  0  0  0
  8 13  1  0  0  0  0
 18 27  1  0  0  0  0
 43 45  1  0  0  0  0
  7 12  1  0  0  0  0
 33 38  1  0  0  0  0
 17 26  1  0  0  0  0
 25 32  1  0  0  0  0
M  END
$$$$

  -OEChem-05262214473D

 48 47  0     1  0  0  0  0  0999 V2000
   -5.5827   -1.3473    1.4591 C   0  0  0  0  0  0  0  0  0  0  0  0
   -5.7053   -2.4696    0.9825 O   0  0  0  0  0  0  0  0  0  0  0  0
   -6.7879   -0.6277    1.9670 C   0  0  0  0  0  0  0  0  0  0  0  0
   -7.2718   -0.0164    1.1885 H   0  0  0  0  0  0  0  0  0  0  0  0
   -7.5699   -1.3171    2.3239 H   0  0  0  0  0  0  0  0  0  0  0  0
   -6.6057    0.0628    2.8060 H   0  0  0  0  0  0  0  0  0  0  0  0
   -4.4001   -0.6377    1.5884 N   0  0  0  0  0  0  0  0  0  0  0  0
   -3.1220   -1.1455    1.1644 C   0  0  2  0  0  0  0  0  0  0  0  0
   -2.2017    0.0428    0.9187 C   0  0  0  0  0  0  0  0  0  0  0  0
   -2.6171    1.1750    0.6807 O   0  0  0  0  0  0  0  0  0  0  0  0
   -3.2533   -1.9992   -0.0873 C   0  0  0  0  0  0  0  0  0  0  0  0
   -4.4370    0.2910    2.0047 H   0  0  0  0  0  0  0  0  0  0  0  0
   -2.7302   -1.7467    1.9921 H   0  0  0  0  0  0  0  0  0  0  0  0
   -3.6446   -1.4140   -0.9275 H   0  0  0  0  0  0  0  0  0  0  0  0
   -2.2844   -2.4081   -0.3922 H   0  0  0  0  0  0  0  0  0  0  0  0
   -3.9388   -2.8365    0.0822 H   0  0  0  0  0  0  0  0  0  0  0  0
   -0.8768   -0.3314    0.9568 N   0  0  0  0  0  0  0  0  0  0  0  0
    0.2067    0.6285    0.7375 C   0  0  2  0  0  0  0  0  0  0  0  0
    0.2333    0.9132   -0.7611 C   0  0  0  0  0  0  0  0  0  0  0  0
   -0.5902    1.6428   -1.3098 O   0  0  0  0  0  0  0  0  0  0  0  0
    1.5274    0.0266    1.2402 C   0  0  0  0  0  0  0  0  0  0  0  0
    1.5760   -0.1615    2.7564 C   0  0  0  0  0  0  0  0  0  0  0  0
    2.8775   -0.7763    3.2072 C   0  0  0  0  0  0  0  0  0  0  0  0
    3.7332   -1.1991    2.4403 O   0  0  0  0  0  0  0  0  0  0  0  0
    2.9925   -0.8371    4.5569 O   0  0  0  0  0  0  0  0  0  0  0  0
   -0.6087   -1.2764    1.1771 H   0  0  0  0  0  0  0  0  0  0  0  0
   -0.0219    1.5418    1.2966 H   0  0  0  0  0  0  0  0  0  0  0  0
    1.6894   -0.9452    0.7552 H   0  0  0  0  0  0  0  0  0  0  0  0
    2.3703    0.6668    0.9481 H   0  0  0  0  0  0  0  0  0  0  0  0
    1.4972    0.8139    3.2519 H   0  0  0  0  0  0  0  0  0  0  0  0
    0.7265   -0.7465    3.1240 H   0  0  0  0  0  0  0  0  0  0  0  0
    3.8176   -1.2478    4.8922 H   0  0  0  0  0  0  0  0  0  0  0  0
    1.2923    0.2852   -1.3998 N   0  0  0  0  0  0  0  0  0  0  0  0
    1.5400    0.3972   -2.8192 C   0  0  2  0  0  0  0  0  0  0  0  0
    0.8710   -0.7849   -3.5081 C   0  0  0  0  0  0  0  0  0  0  0  0
    0.5988   -1.8335   -2.9272 O   0  0  0  0  0  0  0  0  0  0  0  0
    3.0304    0.4292   -3.1200 C   0  0  0  0  0  0  0  0  0  0  0  0
    1.9248   -0.2811   -0.8425 H   0  0  0  0  0  0  0  0  0  0  0  0
    1.0678    1.3286   -3.1502 H   0  0  0  0  0  0  0  0  0  0  0  0
    3.5208   -0.4958   -2.7954 H   0  0  0  0  0  0  0  0  0  0  0  0
    3.2163    0.5428   -4.1931 H   0  0  0  0  0  0  0  0  0  0  0  0
    3.5152    1.2625   -2.5999 H   0  0  0  0  0  0  0  0  0  0  0  0
    0.6529   -0.5473   -4.8579 N   0  0  0  0  0  0  0  0  0  0  0  0
    0.0424   -1.5213   -5.7324 C   0  0  0  0  0  0  0  0  0  0  0  0
    0.8929    0.3581   -5.2511 H   0  0  0  0  0  0  0  0  0  0  0  0
    0.8258   -2.1284   -6.2095 H   0  0  0  0  0  0  0  0  0  0  0  0
   -0.6217   -2.1742   -5.1469 H   0  0  0  0  0  0  0  0  0  0  0  0
   -0.5423   -1.0031   -6.5067 H   0  0  0  0  0  0  0  0  0  0  0  0
  1  3  1  0  0  0  0
  1  7  1  0  0  0  0
  1  2  2  0  0  0  0
 34 35  1  0  0  0  0
 35 43  1  0  0  0  0
 35 36  2  0  0  0  0
  8  9  1  0  0  0  0
  9 17  1  0  0  0  0
  9 10  2  0  0  0  0
 18 19  1  0  0  0  0
 19 33  1  0  0  0  0
 19 20  2  0  0  0  0
 22 23  1  0  0  0  0
 23 24  2  0  0  0  0
 23 25  1  0  0  0  0
 34 37  1  0  0  0  0
  8 11  1  0  0  0  0
 43 44  1  0  0  0  0
 21 22  1  0  0  0  0
 18 21  1  0  0  0  0
 33 34  1  0  0  0  0
  7  8  1  0  0  0  0
 17 18  1  0  0  0  0
  3  4  1  0  0  0  0
  3  5  1  0  0  0  0
  3  6  1  0  0  0  0
 37 40  1  0  0  0  0
 37 41  1  0  0  0  0
 37 42  1  0  0  0  0
 11 14  1  0  0  0  0
 11 15  1  0  0  0  0
 11 16  1  0  0  0  0
 44 46  1  0  0  0  0
 44 47  1  0  0  0  0
 44 48  1  0  0  0  0
 22 30  1  0  0  0  0
 22 31  1  0  0  0  0
 21 28  1  0  0  0  0
 21 29  1  0  0  0  0
 34 39  1  0  0  0  0
  8 13  1  0  0  0  0
 18 27  1  0  0  0  0
 43 45  1  0  0  0  0
  7 12  1  0  0  0  0
 33 38  1  0  0  0  0
 17 26  1  0  0  0  0
 25 32  1  0  0  0  0
M  END
$$$$

  -OEChem-05262214473D

 48 47  0     1  0  0  0  0  0999 V2000
   -5.5827   -1.3473    1.4591 C   0  0  0  0  0  0  0  0  0  0  0  0
   -5.7053   -2.4696    0.9825 O   0  0  0  0  0  0  0  0  0  0  0  0
   -6.7879   -0.6277    1.9670 C   0  0  0  0  0  0  0  0  0  0  0  0
   -7.2718   -0.0164    1.1885 H   0  0  0  0  0  0  0  0  0  0  0  0
   -7.5699   -1.3171    2.3239 H   0  0  0  0  0  0  0  0  0  0  0  0
   -6.6057    0.0628    2.8060 H   0  0  0  0  0  0  0  0  0  0  0  0
   -4.4001   -0.6377    1.5884 N   0  0  0  0  0  0  0  0  0  0  0  0
   -3.1220   -1.1455    1.1644 C   0  0  2  0  0  0  0  0  0  0  0  0
   -2.2017    0.0428    0.9187 C   0  0  0  0  0  0  0  0  0  0  0  0
   -2.6171    1.1750    0.6807 O   0  0  0  0  0  0  0  0  0  0  0  0
   -3.2533   -1.9992   -0.0873 C   0  0  0  0  0  0  0  0  0  0  0  0
   -4.4370    0.2910    2.0047 H   0  0  0  0  0  0  0  0  0  0  0  0
   -2.7302   -1.7467    1.9921 H   0  0  0  0  0  0  0  0  0  0  0  0
   -3.6446   -1.4140   -0.9275 H   0  0  0  0  0  0  0  0  0  0  0  0
   -2.2844   -2.4081   -0.3922 H   0  0  0  0  0  0  0  0  0  0  0  0
   -3.9388   -2.8365    0.0822 H   0  0  0  0  0  0  0  0  0  0  0  0
   -0.8768   -0.3314    0.9568 N   0  0  0  0  0  0  0  0  0  0  0  0
    0.2067    0.6285    0.7375 C   0  0  2  0  0  0  0  0  0  0  0  0
    0.2333    0.9132   -0.7611 C   0  0  0  0  0  0  0  0  0  0  0  0
   -0.4027    1.8340   -1.2702 O   0  0  0  0  0  0  0  0  0  0  0  0
    1.5274    0.0266    1.2402 C   0  0  0  0  0  0  0  0  0  0  0  0
    1.5760   -0.1615    2.7564 C   0  0  0  0  0  0  0  0  0  0  0  0
    2.8775   -0.7763    3.2072 C   0  0  0  0  0  0  0  0  0  0  0  0
    3.7332   -1.1991    2.4403 O   0  0  0  0  0  0  0  0  0  0  0  0
    2.9925   -0.8371    4.5569 O   0  0  0  0  0  0  0  0  0  0  0  0
   -0.6087   -1.2764    1.1771 H   0  0  0  0  0  0  0  0  0  0  0  0
   -0.0219    1.5418    1.2966 H   0  0  0  0  0  0  0  0  0  0  0  0
    1.6894   -0.9452    0.7552 H   0  0  0  0  0  0  0  0  0  0  0  0
    2.3703    0.6668    0.9481 H   0  0  0  0  0  0  0  0  0  0  0  0
    1.4972    0.8139    3.2519 H   0  0  0  0  0  0  0  0  0  0  0  0
    0.7265   -0.7465    3.1240 H   0  0  0  0  0  0  0  0  0  0  0  0
    3.8176   -1.2478    4.8922 H   0  0  0  0  0  0  0  0  0  0  0  0
    1.0661    0.0436   -1.4497 N   0  0  0  0  0  0  0  0  0  0  0  0
    1.2661    0.1042   -2.8798 C   0  0  2  0  0  0  0  0  0  0  0  0
    0.2863   -0.8616   -3.5330 C   0  0  0  0  0  0  0  0  0  0  0  0
   -0.2156   -1.8128   -2.9377 O   0  0  0  0  0  0  0  0  0  0  0  0
    2.6995   -0.2403   -3.2531 C   0  0  0  0  0  0  0  0  0  0  0  0
    1.5596   -0.6708   -0.9231 H   0  0  0  0  0  0  0  0  0  0  0  0
    1.0311    1.1285   -3.1888 H   0  0  0  0  0  0  0  0  0  0  0  0
    2.9533   -1.2630   -2.9512 H   0  0  0  0  0  0  0  0  0  0  0  0
    2.8567   -0.1662   -4.3342 H   0  0  0  0  0  0  0  0  0  0  0  0
    3.4045    0.4368   -2.7587 H   0  0  0  0  0  0  0  0  0  0  0  0
    0.0717   -0.5618   -4.8710 N   0  0  0  0  0  0  0  0  0  0  0  0
   -0.8075   -1.3392   -5.7129 C   0  0  0  0  0  0  0  0  0  0  0  0
    0.5150    0.2570   -5.2770 H   0  0  0  0  0  0  0  0  0  0  0  0
   -0.2279   -2.1203   -6.2267 H   0  0  0  0  0  0  0  0  0  0  0  0
   -1.5870   -1.8082   -5.0945 H   0  0  0  0  0  0  0  0  0  0  0  0
   -1.2774   -0.6812   -6.4586 H   0  0  0  0  0  0  0  0  0  0  0  0
  1  3  1  0  0  0  0
  1  7  1  0  0  0  0
  1  2  2  0  0  0  0
 34 35  1  0  0  0  0
 35 43  1  0  0  0  0
 35 36  2  0  0  0  0
  8  9  1  0  0  0  0
  9 17  1  0  0  0  0
  9 10  2  0  0  0  0
 18 19  1  0  0  0  0
 19 33  1  0  0  0  0
 19 20  2  0  0  0  0
 22 23  1  0  0  0  0
 23 24  2  0  0  0  0
 23 25  1  0  0  0  0
 34 37  1  0  0  0  0
  8 11  1  0  0  0  0
 43 44  1  0  0  0  0
 21 22  1  0  0  0  0
 18 21  1  0  0  0  0
 33 34  1  0  0  0  0
  7  8  1  0  0  0  0
 17 18  1  0  0  0  0
  3  4  1  0  0  0  0
  3  5  1  0  0  0  0
  3  6  1  0  0  0  0
 37 40  1  0  0  0  0
 37 41  1  0  0  0  0
 37 42  1  0  0  0  0
 11 14  1  0  0  0  0
 11 15  1  0  0  0  0
 11 16  1  0  0  0  0
 44 46  1  0  0  0  0
 44 47  1  0  0  0  0
 44 48  1  0  0  0  0
 22 30  1  0  0  0  0
 22 31  1  0  0  0  0
 21 28  1  0  0  0  0
 21 29  1  0  0  0  0
 34 39  1  0  0  0  0
  8 13  1  0  0  0  0
 18 27  1  0  0  0  0
 43 45  1  0  0  0  0
  7 12  1  0  0  0  0
 33 38  1  0  0  0  0
 17 26  1  0  0  0  0
 25 32  1  0  0  0  0
M  END
$$$$

  -OEChem-05262214473D

 48 47  0     1  0  0  0  0  0999 V2000
   -5.5827   -1.3473    1.4591 C   0  0  0  0  0  0  0  0  0  0  0  0
   -5.7053   -2.4696    0.9825 O   0  0  0  0  0  0  0  0  0  0  0  0
   -6.7879   -0.6277    1.9670 C   0  0  0  0  0  0  0  0  0  0  0  0
   -7.2718   -0.0164    1.1885 H   0  0  0  0  0  0  0  0  0  0  0  0
   -7.5699   -1.3171    2.3239 H   0  0  0  0  0  0  0  0  0  0  0  0
   -6.6057    0.0628    2.8060 H   0  0  0  0  0  0  0  0  0  0  0  0
   -4.4001   -0.6377    1.5884 N   0  0  0  0  0  0  0  0  0  0  0  0
   -3.1220   -1.1455    1.1644 C   0  0  2  0  0  0  0  0  0  0  0  0
   -2.2017    0.0428    0.9187 C   0  0  0  0  0  0  0  0  0  0  0  0
   -2.6171    1.1750    0.6807 O   0  0  0  0  0  0  0  0  0  0  0  0
   -3.2533   -1.9992   -0.0873 C   0  0  0  0  0  0  0  0  0  0  0  0
   -4.4370    0.2910    2.0047 H   0  0  0  0  0  0  0  0  0  0  0  0
   -2.7302   -1.7467    1.9921 H   0  0  0  0  0  0  0  0  0  0  0  0
   -3.6446   -1.4140   -0.9275 H   0  0  0  0  0  0  0  0  0  0  0  0
   -2.2844   -2.4081   -0.3922 H   0  0  0  0  0  0  0  0  0  0  0  0
   -3.9388   -2.8365    0.0822 H   0  0  0  0  0  0  0  0  0  0  0  0
   -0.8768   -0.3314    0.9568 N   0  0  0  0  0  0  0  0  0  0  0  0
    0.2067    0.6285    0.7375 C   0  0  2  0  0  0  0  0  0  0  0  0
    0.2333    0.9132   -0.7611 C   0  0  0  0  0  0  0  0  0  0  0  0
   -0.1712    1.9708   -1.2401 O   0  0  0  0  0  0  0  0  0  0  0  0
    1.5274    0.0266    1.2402 C   0  0  0  0  0  0  0  0  0  0  0  0
    1.5760   -0.1615    2.7564 C   0  0  0  0  0  0  0  0  0  0  0  0
    2.8775   -0.7763    3.2072 C   0  0  0  0  0  0  0  0  0  0  0  0
    3.7332   -1.1991    2.4403 O   0  0  0  0  0  0  0  0  0  0  0  0
    2.9925   -0.8371    4.5569 O   0  0  0  0  0  0  0  0  0  0  0  0
   -0.6087   -1.2764    1.1771 H   0  0  0  0  0  0  0  0  0  0  0  0
   -0.0219    1.5418    1.2966 H   0  0  0  0  0  0  0  0  0  0  0  0
    1.6894   -0.9452    0.7552 H   0  0  0  0  0  0  0  0  0  0  0  0
    2.3703    0.6668    0.9481 H   0  0  0  0  0  0  0  0  0  0  0  0
    1.4972    0.8139    3.2519 H   0  0  0  0  0  0  0  0  0  0  0  0
    0.7265   -0.7465    3.1240 H   0  0  0  0  0  0  0  0  0  0  0  0
    3.8176   -1.2478    4.8922 H   0  0  0  0  0  0  0  0  0  0  0  0
    0.7837   -0.1320   -1.4881 N   0  0  0  0  0  0  0  0  0  0  0  0
    0.9241   -0.1089   -2.9263 C   0  0  2  0  0  0  0  0  0  0  0  0
   -0.2991   -0.7869   -3.5292 C   0  0  0  0  0  0  0  0  0  0  0  0
   -0.9975   -1.5857   -2.9085 O   0  0  0  0  0  0  0  0  0  0  0  0
    2.2032   -0.8023   -3.3686 C   0  0  0  0  0  0  0  0  0  0  0  0
    1.1038   -0.9541   -0.9849 H   0  0  0  0  0  0  0  0  0  0  0  0
    0.9428    0.9448   -3.2253 H   0  0  0  0  0  0  0  0  0  0  0  0
    2.2027   -1.8591   -3.0778 H   0  0  0  0  0  0  0  0  0  0  0  0
    2.3224   -0.7589   -4.4562 H   0  0  0  0  0  0  0  0  0  0  0  0
    3.0800   -0.3320   -2.9105 H   0  0  0  0  0  0  0  0  0  0  0  0
   -0.4941   -0.4280   -4.8556 N   0  0  0  0  0  0  0  0  0  0  0  0
   -1.5811   -0.9474   -5.6522 C   0  0  0  0  0  0  0  0  0  0  0  0
    0.1231    0.2555   -5.2842 H   0  0  0  0  0  0  0  0  0  0  0  0
   -1.2445   -1.8446   -6.1923 H   0  0  0  0  0  0  0  0  0  0  0  0
   -2.4239   -1.2095   -4.9957 H   0  0  0  0  0  0  0  0  0  0  0  0
   -1.9033   -0.1836   -6.3752 H   0  0  0  0  0  0  0  0  0  0  0  0
  1  3  1  0  0  0  0
  1  7  1  0  0  0  0
  1  2  2  0  0  0  0
 34 35  1  0  0  0  0
 35 43  1  0  0  0  0
 35 36  2  0  0  0  0
  8  9  1  0  0  0  0
  9 17  1  0  0  0  0
  9 10  2  0  0  0  0
 18 19  1  0  0  0  0
 19 33  1  0  0  0  0
 19 20  2  0  0  0  0
 22 23  1  0  0  0  0
 23 24  2  0  0  0  0
 23 25  1  0  0  0  0
 34 37  1  0  0  0  0
  8 11  1  0  0  0  0
 43 44  1  0  0  0  0
 21 22  1  0  0  0  0
 18 21  1  0  0  0  0
 33 34  1  0  0  0  0
  7  8  1  0  0  0  0
 17 18  1  0  0  0  0
  3  4  1  0  0  0  0
  3  5  1  0  0  0  0
  3  6  1  0  0  0  0
 37 40  1  0  0  0  0
 37 41  1  0  0  0  0
 37 42  1  0  0  0  0
 11 14  1  0  0  0  0
 11 15  1  0  0  0  0
 11 16  1  0  0  0  0
 44 46  1  0  0  0  0
 44 47  1  0  0  0  0
 44 48  1  0  0  0  0
 22 30  1  0  0  0  0
 22 31  1  0  0  0  0
 21 28  1  0  0  0  0
 21 29  1  0  0  0  0
 34 39  1  0  0  0  0
  8 13  1  0  0  0  0
 18 27  1  0  0  0  0
 43 45  1  0  0  0  0
  7 12  1  0  0  0  0
 33 38  1  0  0  0  0
 17 26  1  0  0  0  0
 25 32  1  0  0  0  0
M  END
$$$$

  -OEChem-05262214473D

 48 47  0     1  0  0  0  0  0999 V2000
   -5.5827   -1.3473    1.4591 C   0  0  0  0  0  0  0  0  0  0  0  0
   -5.7053   -2.4696    0.9825 O   0  0  0  0  0  0  0  0  0  0  0  0
   -6.7879   -0.6277    1.9670 C   0  0  0  0  0  0  0  0  0  0  0  0
   -7.2718   -0.0164    1.1885 H   0  0  0  0  0  0  0  0  0  0  0  0
   -7.5699   -1.3171    2.3239 H   0  0  0  0  0  0  0  0  0  0  0  0
   -6.6057    0.0628    2.8060 H   0  0  0  0  0  0  0  0  0  0  0  0
   -4.4001   -0.6377    1.5884 N   0  0  0  0  0  0  0  0  0  0  0  0
   -3.1220   -1.1455    1.1644 C   0  0  2  0  0  0  0  0  0  0  0  0
   -2.2017    0.0428    0.9187 C   0  0  0  0  0  0  0  0  0  0  0  0
   -2.6171    1.1750    0.6807 O   0  0  0  0  0  0  0  0  0  0  0  0
   -3.2533   -1.9992   -0.0873 C   0  0  0  0  0  0  0  0  0  0  0  0
   -4.4370    0.2910    2.0047 H   0  0  0  0  0  0  0  0  0  0  0  0
   -2.7302   -1.7467    1.9921 H   0  0  0  0  0  0  0  0  0  0  0  0
   -3.6446   -1.4140   -0.9275 H   0  0  0  0  0  0  0  0  0  0  0  0
   -2.2844   -2.4081   -0.3922 H   0  0  0  0  0  0  0  0  0  0  0  0
   -3.9388   -2.8365    0.0822 H   0  0  0  0  0  0  0  0  0  0  0  0
   -0.8768   -0.3314    0.9568 N   0  0  0  0  0  0  0  0  0  0  0  0
    0.2067    0.6285    0.7375 C   0  0  2  0  0  0  0  0  0  0  0  0
    0.2333    0.9132   -0.7611 C   0  0  0  0  0  0  0  0  0  0  0  0
    0.0888    2.0439   -1.2216 O   0  0  0  0  0  0  0  0  0  0  0  0
    1.5274    0.0266    1.2402 C   0  0  0  0  0  0  0  0  0  0  0  0
    1.5760   -0.1615    2.7564 C   0  0  0  0  0  0  0  0  0  0  0  0
    2.8775   -0.7763    3.2072 C   0  0  0  0  0  0  0  0  0  0  0  0
    3.7332   -1.1991    2.4403 O   0  0  0  0  0  0  0  0  0  0  0  0
    2.9925   -0.8371    4.5569 O   0  0  0  0  0  0  0  0  0  0  0  0
   -0.6087   -1.2764    1.1771 H   0  0  0  0  0  0  0  0  0  0  0  0
   -0.0219    1.5418    1.2966 H   0  0  0  0  0  0  0  0  0  0  0  0
    1.6894   -0.9452    0.7552 H   0  0  0  0  0  0  0  0  0  0  0  0
    2.3703    0.6668    0.9481 H   0  0  0  0  0  0  0  0  0  0  0  0
    1.4972    0.8139    3.2519 H   0  0  0  0  0  0  0  0  0  0  0  0
    0.7265   -0.7465    3.1240 H   0  0  0  0  0  0  0  0  0  0  0  0
    3.8176   -1.2478    4.8922 H   0  0  0  0  0  0  0  0  0  0  0  0
    0.4644   -0.2297   -1.5123 N   0  0  0  0  0  0  0  0  0  0  0  0
    0.5373   -0.2275   -2.9557 C   0  0  2  0  0  0  0  0  0  0  0  0
   -0.8455   -0.5659   -3.4969 C   0  0  0  0  0  0  0  0  0  0  0  0
   -1.6936   -1.1676   -2.8414 O   0  0  0  0  0  0  0  0  0  0  0  0
    1.5754   -1.2185   -3.4588 C   0  0  0  0  0  0  0  0  0  0  0  0
    0.5885   -1.1115   -1.0240 H   0  0  0  0  0  0  0  0  0  0  0  0
    0.8091    0.7900   -3.2571 H   0  0  0  0  0  0  0  0  0  0  0  0
    1.3199   -2.2435   -3.1664 H   0  0  0  0  0  0  0  0  0  0  0  0
    1.6496   -1.1951   -4.5510 H   0  0  0  0  0  0  0  0  0  0  0  0
    2.5638   -0.9913   -3.0449 H   0  0  0  0  0  0  0  0  0  0  0  0
   -1.0058   -0.1551   -4.8129 N   0  0  0  0  0  0  0  0  0  0  0  0
   -2.2259   -0.3726   -5.5544 C   0  0  0  0  0  0  0  0  0  0  0  0
   -0.2563    0.3538   -5.2723 H   0  0  0  0  0  0  0  0  0  0  0  0
   -2.1547   -1.3200   -6.1088 H   0  0  0  0  0  0  0  0  0  0  0  0
   -3.0753   -0.4189   -4.8570 H   0  0  0  0  0  0  0  0  0  0  0  0
   -2.3773    0.4558   -6.2621 H   0  0  0  0  0  0  0  0  0  0  0  0
  1  3  1  0  0  0  0
  1  7  1  0  0  0  0
  1  2  2  0  0  0  0
 34 35  1  0  0  0  0
 35 43  1  0  0  0  0
 35 36  2  0  0  0  0
  8  9  1  0  0  0  0
  9 17  1  0  0  0  0
  9 10  2  0  0  0  0
 18 19  1  0  0  0  0
 19 33  1  0  0  0  0
 19 20  2  0  0  0  0
 22 23  1  0  0  0  0
 23 24  2  0  0  0  0
 23 25  1  0  0  0  0
 34 37  1  0  0  0  0
  8 11  1  0  0  0  0
 43 44  1  0  0  0  0
 21 22  1  0  0  0  0
 18 21  1  0  0  0  0
 33 34  1  0  0  0  0
  7  8  1  0  0  0  0
 17 18  1  0  0  0  0
  3  4  1  0  0  0  0
  3  5  1  0  0  0  0
  3  6  1  0  0  0  0
 37 40  1  0  0  0  0
 37 41  1  0  0  0  0
 37 42  1  0  0  0  0
 11 14  1  0  0  0  0
 11 15  1  0  0  0  0
 11 16  1  0  0  0  0
 44 46  1  0  0  0  0
 44 47  1  0  0  0  0
 44 48  1  0  0  0  0
 22 30  1  0  0  0  0
 22 31  1  0  0  0  0
 21 28  1  0  0  0  0
 21 29  1  0  0  0  0
 34 39  1  0  0  0  0
  8 13  1  0  0  0  0
 18 27  1  0  0  0  0
 43 45  1  0  0  0  0
  7 12  1  0  0  0  0
 33 38  1  0  0  0  0
 17 26  1  0  0  0  0
 25 32  1  0  0  0  0
M  END
$$$$

  -OEChem-05262214473D

 48 47  0     1  0  0  0  0  0999 V2000
   -5.5827   -1.3473    1.4591 C   0  0  0  0  0  0  0  0  0  0  0  0
   -5.7053   -2.4696    0.9825 O   0  0  0  0  0  0  0  0  0  0  0  0
   -6.7879   -0.6277    1.9670 C   0  0  0  0  0  0  0  0  0  0  0  0
   -7.2718   -0.0164    1.1885 H   0  0  0  0  0  0  0  0  0  0  0  0
   -7.5699   -1.3171    2.3239 H   0  0  0  0  0  0  0  0  0  0  0  0
   -6.6057    0.0628    2.8060 H   0  0  0  0  0  0  0  0  0  0  0  0
   -4.4001   -0.6377    1.5884 N   0  0  0  0  0  0  0  0  0  0  0  0
   -3.1220   -1.1455    1.1644 C   0  0  2  0  0  0  0  0  0  0  0  0
   -2.2017    0.0428    0.9187 C   0  0  0  0  0  0  0  0  0  0  0  0
   -2.6171    1.1750    0.6807 O   0  0  0  0  0  0  0  0  0  0  0  0
   -3.2533   -1.9992   -0.0873 C   0  0  0  0  0  0  0  0  0  0  0  0
   -4.4370    0.2910    2.0047 H   0  0  0  0  0  0  0  0  0  0  0  0
   -2.7302   -1.7467    1.9921 H   0  0  0  0  0  0  0  0  0  0  0  0
   -3.6446   -1.4140   -0.9275 H   0  0  0  0  0  0  0  0  0  0  0  0
   -2.2844   -2.4081   -0.3922 H   0  0  0  0  0  0  0  0  0  0  0  0
   -3.9388   -2.8365    0.0822 H   0  0  0  0  0  0  0  0  0  0  0  0
   -0.8768   -0.3314    0.9568 N   0  0  0  0  0  0  0  0  0  0  0  0
    0.2067    0.6285    0.7375 C   0  0  2  0  0  0  0  0  0  0  0  0
    0.2333    0.9132   -0.7611 C   0  0  0  0  0  0  0  0  0  0  0  0
    0.3593    2.0484   -1.2159 O   0  0  0  0  0  0  0  0  0  0  0  0
    1.5274    0.0266    1.2402 C   0  0  0  0  0  0  0  0  0  0  0  0
    1.5760   -0.1615    2.7564 C   0  0  0  0  0  0  0  0  0  0  0  0
    2.8775   -0.7763    3.2072 C   0  0  0  0  0  0  0  0  0  0  0  0
    3.7332   -1.1991    2.4403 O   0  0  0  0  0  0  0  0  0  0  0  0
    2.9925   -0.8371    4.5569 O   0  0  0  0  0  0  0  0  0  0  0  0
   -0.6087   -1.2764    1.1771 H   0  0  0  0  0  0  0  0  0  0  0  0
   -0.0219    1.5418    1.2966 H   0  0  0  0  0  0  0  0  0  0  0  0
    1.6894   -0.9452    0.7552 H   0  0  0  0  0  0  0  0  0  0  0  0
    2.3703    0.6668    0.9481 H   0  0  0  0  0  0  0  0  0  0  0  0
    1.4972    0.8139    3.2519 H   0  0  0  0  0  0  0  0  0  0  0  0
    0.7265   -0.7465    3.1240 H   0  0  0  0  0  0  0  0  0  0  0  0
    3.8176   -1.2478    4.8922 H   0  0  0  0  0  0  0  0  0  0  0  0
    0.1300   -0.2428   -1.5207 N   0  0  0  0  0  0  0  0  0  0  0  0
    0.1321   -0.2437   -2.9659 C   0  0  2  0  0  0  0  0  0  0  0  0
   -1.3155   -0.2137   -3.4384 C   0  0  0  0  0  0  0  0  0  0  0  0
   -2.2565   -0.5871   -2.7411 O   0  0  0  0  0  0  0  0  0  0  0  0
    0.8588   -1.4604   -3.5175 C   0  0  0  0  0  0  0  0  0  0  0  0
    0.0489   -1.1323   -1.0375 H   0  0  0  0  0  0  0  0  0  0  0  0
    0.6391    0.6745   -3.2820 H   0  0  0  0  0  0  0  0  0  0  0  0
    0.3653   -2.3900   -3.2112 H   0  0  0  0  0  0  0  0  0  0  0  0
    0.8843   -1.4449   -4.6121 H   0  0  0  0  0  0  0  0  0  0  0  0
    1.8910   -1.4964   -3.1527 H   0  0  0  0  0  0  0  0  0  0  0  0
   -1.4286    0.2385   -4.7456 N   0  0  0  0  0  0  0  0  0  0  0  0
   -2.6979    0.3462   -5.4262 C   0  0  0  0  0  0  0  0  0  0  0  0
   -0.5971    0.5451   -5.2420 H   0  0  0  0  0  0  0  0  0  0  0  0
   -2.8965   -0.5822   -5.9818 H   0  0  0  0  0  0  0  0  0  0  0  0
   -3.4969    0.5097   -4.6881 H   0  0  0  0  0  0  0  0  0  0  0  0
   -2.6672    1.1934   -6.1272 H   0  0  0  0  0  0  0  0  0  0  0  0
  1  3  1  0  0  0  0
  1  7  1  0  0  0  0
  1  2  2  0  0  0  0
 34 35  1  0  0  0  0
 35 43  1  0  0  0  0
 35 36  2  0  0  0  0
  8  9  1  0  0  0  0
  9 17  1  0  0  0  0
  9 10  2  0  0  0  0
 18 19  1  0  0  0  0
 19 33  1  0  0  0  0
 19 20  2  0  0  0  0
 22 23  1  0  0  0  0
 23 24  2  0  0  0  0
 23 25  1  0  0  0  0
 34 37  1  0  0  0  0
  8 11  1  0  0  0  0
 43 44  1  0  0  0  0
 21 22  1  0  0  0  0
 18 21  1  0  0  0  0
 33 34  1  0  0  0  0
  7  8  1  0  0  0  0
 17 18  1  0  0  0  0
  3  4  1  0  0  0  0
  3  5  1  0  0  0  0
  3  6  1  0  0  0  0
 37 40  1  0  0  0  0
 37 41  1  0  0  0  0
 37 42  1  0  0  0  0
 11 14  1  0  0  0  0
 11 15  1  0  0  0  0
 11 16  1  0  0  0  0
 44 46  1  0  0  0  0
 44 47  1  0  0  0  0
 44 48  1  0  0  0  0
 22 30  1  0  0  0  0
 22 31  1  0  0  0  0
 21 28  1  0  0  0  0
 21 29  1  0  0  0  0
 34 39  1  0  0  0  0
  8 13  1  0  0  0  0
 18 27  1  0  0  0  0
 43 45  1  0  0  0  0
  7 12  1  0  0  0  0
 33 38  1  0  0  0  0
 17 26  1  0  0  0  0
 25 32  1  0  0  0  0
M  END
$$$$

  -OEChem-05262214473D

 48 47  0     1  0  0  0  0  0999 V2000
   -5.5827   -1.3473    1.4591 C   0  0  0  0  0  0  0  0  0  0  0  0
   -5.7053   -2.4696    0.9825 O   0  0  0  0  0  0  0  0  0  0  0  0
   -6.7879   -0.6277    1.9670 C   0  0  0  0  0  0  0  0  0  0  0  0
   -7.2718   -0.0164    1.1885 H   0  0  0  0  0  0  0  0  0  0  0  0
   -7.5699   -1.3171    2.3239 H   0  0  0  0  0  0  0  0  0  0  0  0
   -6.6057    0.0628    2.8060 H   0  0  0  0  0  0  0  0  0  0  0  0
   -4.4001   -0.6377    1.5884 N   0  0  0  0  0  0  0  0  0  0  0  0
   -3.1220   -1.1455    1.1644 C   0  0  2  0  0  0  0  0  0  0  0  0
   -2.2017    0.0428    0.9187 C   0  0  0  0  0  0  0  0  0  0  0  0
   -2.6171    1.1750    0.6807 O   0  0  0  0  0  0  0  0  0  0  0  0
   -3.2533   -1.9992   -0.0873 C   0  0  0  0  0  0  0  0  0  0  0  0
   -4.4370    0.2910    2.0047 H   0  0  0  0  0  0  0  0  0  0  0  0
   -2.7302   -1.7467    1.9921 H   0  0  0  0  0  0  0  0  0  0  0  0
   -3.6446   -1.4140   -0.9275 H   0  0  0  0  0  0  0  0  0  0  0  0
   -2.2844   -2.4081   -0.3922 H   0  0  0  0  0  0  0  0  0  0  0  0
   -3.9388   -2.8365    0.0822 H   0  0  0  0  0  0  0  0  0  0  0  0
   -0.8768   -0.3314    0.9568 N   0  0  0  0  0  0  0  0  0  0  0  0
    0.2067    0.6285    0.7375 C   0  0  2  0  0  0  0  0  0  0  0  0
    0.2333    0.9132   -0.7611 C   0  0  0  0  0  0  0  0  0  0  0  0
    0.6221    1.9839   -1.2235 O   0  0  0  0  0  0  0  0  0  0  0  0
    1.5274    0.0266    1.2402 C   0  0  0  0  0  0  0  0  0  0  0  0
    1.5760   -0.1615    2.7564 C   0  0  0  0  0  0  0  0  0  0  0  0
    2.8775   -0.7763    3.2072 C   0  0  0  0  0  0  0  0  0  0  0  0
    3.7332   -1.1991    2.4403 O   0  0  0  0  0  0  0  0  0  0  0  0
    2.9925   -0.8371    4.5569 O   0  0  0  0  0  0  0  0  0  0  0  0
   -0.6087   -1.2764    1.1771 H   0  0  0  0  0  0  0  0  0  0  0  0
   -0.0219    1.5418    1.2966 H   0  0  0  0  0  0  0  0  0  0  0  0
    1.6894   -0.9452    0.7552 H   0  0  0  0  0  0  0  0  0  0  0  0
    2.3703    0.6668    0.9481 H   0  0  0  0  0  0  0  0  0  0  0  0
    1.4972    0.8139    3.2519 H   0  0  0  0  0  0  0  0  0  0  0  0
    0.7265   -0.7465    3.1240 H   0  0  0  0  0  0  0  0  0  0  0  0
    3.8176   -1.2478    4.8922 H   0  0  0  0  0  0  0  0  0  0  0  0
   -0.1967   -0.1704   -1.5128 N   0  0  0  0  0  0  0  0  0  0  0  0
   -0.2639   -0.1562   -2.9564 C   0  0  2  0  0  0  0  0  0  0  0  0
   -1.6771    0.2457   -3.3575 C   0  0  0  0  0  0  0  0  0  0  0  0
   -2.6477    0.1162   -2.6145 O   0  0  0  0  0  0  0  0  0  0  0  0
    0.1023   -1.5117   -3.5406 C   0  0  0  0  0  0  0  0  0  0  0  0
   -0.4783   -1.0152   -1.0246 H   0  0  0  0  0  0  0  0  0  0  0  0
    0.4443    0.6063   -3.2984 H   0  0  0  0  0  0  0  0  0  0  0  0
   -0.5963   -2.2886   -3.2090 H   0  0  0  0  0  0  0  0  0  0  0  0
    0.0786   -1.4914   -4.6352 H   0  0  0  0  0  0  0  0  0  0  0  0
    1.1076   -1.8127   -3.2267 H   0  0  0  0  0  0  0  0  0  0  0  0
   -1.7336    0.7259   -4.6584 N   0  0  0  0  0  0  0  0  0  0  0  0
   -2.9648    1.1599   -5.2764 C   0  0  0  0  0  0  0  0  0  0  0  0
   -0.8762    0.8164   -5.1954 H   0  0  0  0  0  0  0  0  0  0  0  0
   -3.4193    0.3185   -5.8200 H   0  0  0  0  0  0  0  0  0  0  0  0
   -3.6598    1.5131   -4.5004 H   0  0  0  0  0  0  0  0  0  0  0  0
   -2.7531    1.9790   -5.9795 H   0  0  0  0  0  0  0  0  0  0  0  0
  1  3  1  0  0  0  0
  1  7  1  0  0  0  0
  1  2  2  0  0  0  0
 34 35  1  0  0  0  0
 35 43  1  0  0  0  0
 35 36  2  0  0  0  0
  8  9  1  0  0  0  0
  9 17  1  0  0  0  0
  9 10  2  0  0  0  0
 18 19  1  0  0  0  0
 19 33  1  0  0  0  0
 19 20  2  0  0  0  0
 22 23  1  0  0  0  0
 23 24  2  0  0  0  0
 23 25  1  0  0  0  0
 34 37  1  0  0  0  0
  8 11  1  0  0  0  0
 43 44  1  0  0  0  0
 21 22  1  0  0  0  0
 18 21  1  0  0  0  0
 33 34  1  0  0  0  0
  7  8  1  0  0  0  0
 17 18  1  0  0  0  0
  3  4  1  0  0  0  0
  3  5  1  0  0  0  0
  3  6  1  0  0  0  0
 37 40  1  0  0  0  0
 37 41  1  0  0  0  0
 37 42  1  0  0  0  0
 11 14  1  0  0  0  0
 11 15  1  0  0  0  0
 11 16  1  0  0  0  0
 44 46  1  0  0  0  0
 44 47  1  0  0  0  0
 44 48  1  0  0  0  0
 22 30  1  0  0  0  0
 22 31  1  0  0  0  0
 21 28  1  0  0  0  0
 21 29  1  0  0  0  0
 34 39  1  0  0  0  0
  8 13  1  0  0  0  0
 18 27  1  0  0  0  0
 43 45  1  0  0  0  0
  7 12  1  0  0  0  0
 33 38  1  0  0  0  0
 17 26  1  0  0  0  0
 25 32  1  0  0  0  0
M  END
$$$$

  -OEChem-05262214473D

 48 47  0     1  0  0  0  0  0999 V2000
   -5.5827   -1.3473    1.4591 C   0  0  0  0  0  0  0  0  0  0  0  0
   -5.7053   -2.4696    0.9825 O   0  0  0  0  0  0  0  0  0  0  0  0
   -6.7879   -0.6277    1.9670 C   0  0  0  0  0  0  0  0  0  0  0  0
   -7.2718   -0.0164    1.1885 H   0  0  0  0  0  0  0  0  0  0  0  0
   -7.5699   -1.3171    2.3239 H   0  0  0  0  0  0  0  0  0  0  0  0
   -6.6057    0.0628    2.8060 H   0  0  0  0  0  0  0  0  0  0  0  0
   -4.4001   -0.6377    1.5884 N   0  0  0  0  0  0  0  0  0  0  0  0
   -3.1220   -1.1455    1.1644 C   0  0  2  0  0  0  0  0  0  0  0  0
   -2.2017    0.0428    0.9187 C   0  0  0  0  0  0  0  0  0  0  0  0
   -2.6171    1.1750    0.6807 O   0  0  0  0  0  0  0  0  0  0  0  0
   -3.2533   -1.9992   -0.0873 C   0  0  0  0  0  0  0  0  0  0  0  0
   -4.4370    0.2910    2.0047 H   0  0  0  0  0  0  0  0  0  0  0  0
   -2.7302   -1.7467    1.9921 H   0  0  0  0  0  0  0  0  0  0  0  0
   -3.6446   -1.4140   -0.9275 H   0  0  0  0  0  0  0  0  0  0  0  0
   -2.2844   -2.4081   -0.3922 H   0  0  0  0  0  0  0  0  0  0  0  0
   -3.9388   -2.8365    0.0822 H   0  0  0  0  0  0  0  0  0  0  0  0
   -0.8768   -0.3314    0.9568 N   0  0  0  0  0  0  0  0  0  0  0  0
    0.2067    0.6285    0.7375 C   0  0  2  0  0  0  0  0  0  0  0  0
    0.2333    0.9132   -0.7611 C   0  0  0  0  0  0  0  0  0  0  0  0
    0.8591    1.8549   -1.2438 O   0  0  0  0  0  0  0  0  0  0  0  0
    1.5274    0.0266    1.2402 C   0  0  0  0  0  0  0  0  0  0  0  0
    1.5760   -0.1615    2.7564 C   0  0  0  0  0  0  0  0  0  0  0  0
    2.8775   -0.7763    3.2072 C   0  0  0  0  0  0  0  0  0  0  0  0
    3.7332   -1.1991    2.4403 O   0  0  0  0  0  0  0  0  0  0  0  0
    2.9925   -0.8371    4.5569 O   0  0  0  0  0  0  0  0  0  0  0  0
   -0.6087   -1.2764    1.1771 H   0  0  0  0  0  0  0  0  0  0  0  0
   -0.0219    1.5418    1.2966 H   0  0  0  0  0  0  0  0  0  0  0  0
    1.6894   -0.9452    0.7552 H   0  0  0  0  0  0  0  0  0  0  0  0
    2.3703    0.6668    0.9481 H   0  0  0  0  0  0  0  0  0  0  0  0
    1.4972    0.8139    3.2519 H   0  0  0  0  0  0  0  0  0  0  0  0
    0.7265   -0.7465    3.1240 H   0  0  0  0  0  0  0  0  0  0  0  0
    3.8176   -1.2478    4.8922 H   0  0  0  0  0  0  0  0  0  0  0  0
   -0.4936   -0.0174   -1.4890 N   0  0  0  0  0  0  0  0  0  0  0  0
   -0.6237    0.0289   -2.9276 C   0  0  2  0  0  0  0  0  0  0  0  0
   -1.9056    0.7810   -3.2599 C   0  0  0  0  0  0  0  0  0  0  0  0
   -2.8407    0.8945   -2.4701 O   0  0  0  0  0  0  0  0  0  0  0  0
   -0.6426   -1.3687   -3.5267 C   0  0  0  0  0  0  0  0  0  0  0  0
   -0.9571   -0.7682   -0.9862 H   0  0  0  0  0  0  0  0  0  0  0  0
    0.2380    0.5901   -3.3052 H   0  0  0  0  0  0  0  0  0  0  0  0
   -1.4991   -1.9461   -3.1599 H   0  0  0  0  0  0  0  0  0  0  0  0
   -0.7125   -1.3314   -4.6188 H   0  0  0  0  0  0  0  0  0  0  0  0
    0.2669   -1.9187   -3.2618 H   0  0  0  0  0  0  0  0  0  0  0  0
   -1.9002    1.2738   -4.5573 N   0  0  0  0  0  0  0  0  0  0  0  0
   -3.0085    2.0130   -5.1151 C   0  0  0  0  0  0  0  0  0  0  0  0
   -1.0746    1.1492   -5.1357 H   0  0  0  0  0  0  0  0  0  0  0  0
   -3.6875    1.3207   -5.6344 H   0  0  0  0  0  0  0  0  0  0  0  0
   -3.5530    2.5229   -4.3067 H   0  0  0  0  0  0  0  0  0  0  0  0
   -2.6293    2.7590   -5.8291 H   0  0  0  0  0  0  0  0  0  0  0  0
  1  3  1  0  0  0  0
  1  7  1  0  0  0  0
  1  2  2  0  0  0  0
 34 35  1  0  0  0  0
 35 43  1  0  0  0  0
 35 36  2  0  0  0  0
  8  9  1  0  0  0  0
  9 17  1  0  0  0  0
  9 10  2  0  0  0  0
 18 19  1  0  0  0  0
 19 33  1  0  0  0  0
 19 20  2  0  0  0  0
 22 23  1  0  0  0  0
 23 24  2  0  0  0  0
 23 25  1  0  0  0  0
 34 37  1  0  0  0  0
  8 11  1  0  0  0  0
 43 44  1  0  0  0  0
 21 22  1  0  0  0  0
 18 21  1  0  0  0  0
 33 34  1  0  0  0  0
  7  8  1  0  0  0  0
 17 18  1  0  0  0  0
  3  4  1  0  0  0  0
  3  5  1  0  0  0  0
  3  6  1  0  0  0  0
 37 40  1  0  0  0  0
 37 41  1  0  0  0  0
 37 42  1  0  0  0  0
 11 14  1  0  0  0  0
 11 15  1  0  0  0  0
 11 16  1  0  0  0  0
 44 46  1  0  0  0  0
 44 47  1  0  0  0  0
 44 48  1  0  0  0  0
 22 30  1  0  0  0  0
 22 31  1  0  0  0  0
 21 28  1  0  0  0  0
 21 29  1  0  0  0  0
 34 39  1  0  0  0  0
  8 13  1  0  0  0  0
 18 27  1  0  0  0  0
 43 45  1  0  0  0  0
  7 12  1  0  0  0  0
 33 38  1  0  0  0  0
 17 26  1  0  0  0  0
 25 32  1  0  0  0  0
M  END
$$$$

  -OEChem-05262214473D

 48 47  0     1  0  0  0  0  0999 V2000
   -5.5827   -1.3473    1.4591 C   0  0  0  0  0  0  0  0  0  0  0  0
   -5.7053   -2.4696    0.9825 O   0  0  0  0  0  0  0  0  0  0  0  0
   -6.7879   -0.6277    1.9670 C   0  0  0  0  0  0  0  0  0  0  0  0
   -7.2718   -0.0164    1.1885 H   0  0  0  0  0  0  0  0  0  0  0  0
   -7.5699   -1.3171    2.3239 H   0  0  0  0  0  0  0  0  0  0  0  0
   -6.6057    0.0628    2.8060 H   0  0  0  0  0  0  0  0  0  0  0  0
   -4.4001   -0.6377    1.5884 N   0  0  0  0  0  0  0  0  0  0  0  0
   -3.1220   -1.1455    1.1644 C   0  0  2  0  0  0  0  0  0  0  0  0
   -2.2017    0.0428    0.9187 C   0  0  0  0  0  0  0  0  0  0  0  0
   -2.6171    1.1750    0.6807 O   0  0  0  0  0  0  0  0  0  0  0  0
   -3.2533   -1.9992   -0.0873 C   0  0  0  0  0  0  0  0  0  0  0  0
   -4.4370    0.2910    2.0047 H   0  0  0  0  0  0  0  0  0  0  0  0
   -2.7302   -1.7467    1.9921 H   0  0  0  0  0  0  0  0  0  0  0  0
   -3.6446   -1.4140   -0.9275 H   0  0  0  0  0  0  0  0  0  0  0  0
   -2.2844   -2.4081   -0.3922 H   0  0  0  0  0  0  0  0  0  0  0  0
   -3.9388   -2.8365    0.0822 H   0  0  0  0  0  0  0  0  0  0  0  0
   -0.8768   -0.3314    0.9568 N   0  0  0  0  0  0  0  0  0  0  0  0
    0.2067    0.6285    0.7375 C   0  0  2  0  0  0  0  0  0  0  0  0
    0.2333    0.9132   -0.7611 C   0  0  0  0  0  0  0  0  0  0  0  0
    1.0543    1.6701   -1.2755 O   0  0  0  0  0  0  0  0  0  0  0  0
    1.5274    0.0266    1.2402 C   0  0  0  0  0  0  0  0  0  0  0  0
    1.5760   -0.1615    2.7564 C   0  0  0  0  0  0  0  0  0  0  0  0
    2.8775   -0.7763    3.2072 C   0  0  0  0  0  0  0  0  0  0  0  0
    3.7332   -1.1991    2.4403 O   0  0  0  0  0  0  0  0  0  0  0  0
    2.9925   -0.8371    4.5569 O   0  0  0  0  0  0  0  0  0  0  0  0
   -0.6087   -1.2764    1.1771 H   0  0  0  0  0  0  0  0  0  0  0  0
   -0.0219    1.5418    1.2966 H   0  0  0  0  0  0  0  0  0  0  0  0
    1.6894   -0.9452    0.7552 H   0  0  0  0  0  0  0  0  0  0  0  0
    2.3703    0.6668    0.9481 H   0  0  0  0  0  0  0  0  0  0  0  0
    1.4972    0.8139    3.2519 H   0  0  0  0  0  0  0  0  0  0  0  0
    0.7265   -0.7465    3.1240 H   0  0  0  0  0  0  0  0  0  0  0  0
    3.8176   -1.2478    4.8922 H   0  0  0  0  0  0  0  0  0  0  0  0
   -0.7402    0.2058   -1.4509 N   0  0  0  0  0  0  0  0  0  0  0  0
   -0.9228    0.2991   -2.8816 C   0  0  2  0  0  0  0  0  0  0  0  0
   -1.9856    1.3558   -3.1521 C   0  0  0  0  0  0  0  0  0  0  0  0
   -2.8223    1.6946   -2.3177 O   0  0  0  0  0  0  0  0  0  0  0  0
   -1.3251   -1.0414   -3.4766 C   0  0  0  0  0  0  0  0  0  0  0  0
   -1.3549   -0.4080   -0.9248 H   0  0  0  0  0  0  0  0  0  0  0  0
    0.0343    0.6269   -3.3018 H   0  0  0  0  0  0  0  0  0  0  0  0
   -2.2818   -1.3861   -3.0674 H   0  0  0  0  0  0  0  0  0  0  0  0
   -1.4352   -0.9757   -4.5641 H   0  0  0  0  0  0  0  0  0  0  0  0
   -0.5739   -1.8072   -3.2555 H   0  0  0  0  0  0  0  0  0  0  0  0
   -1.9170    1.8449   -4.4491 N   0  0  0  0  0  0  0  0  0  0  0  0
   -2.8261    2.8475   -4.9534 C   0  0  0  0  0  0  0  0  0  0  0  0
   -1.1787    1.5209   -5.0669 H   0  0  0  0  0  0  0  0  0  0  0  0
   -3.6828    2.3560   -5.4377 H   0  0  0  0  0  0  0  0  0  0  0  0
   -3.1837    3.4703   -4.1202 H   0  0  0  0  0  0  0  0  0  0  0  0
   -2.3041    3.4802   -5.6864 H   0  0  0  0  0  0  0  0  0  0  0  0
  1  3  1  0  0  0  0
  1  7  1  0  0  0  0
  1  2  2  0  0  0  0
 34 35  1  0  0  0  0
 35 43  1  0  0  0  0
 35 36  2  0  0  0  0
  8  9  1  0  0  0  0
  9 17  1  0  0  0  0
  9 10  2  0  0  0  0
 18 19  1  0  0  0  0
 19 33  1  0  0  0  0
 19 20  2  0  0  0  0
 22 23  1  0  0  0  0
 23 24  2  0  0  0  0
 23 25  1  0  0  0  0
 34 37  1  0  0  0  0
  8 11  1  0  0  0  0
 43 44  1  0  0  0  0
 21 22  1  0  0  0  0
 18 21  1  0  0  0  0
 33 34  1  0  0  0  0
  7  8  1  0  0  0  0
 17 18  1  0  0  0  0
  3  4  1  0  0  0  0
  3  5  1  0  0  0  0
  3  6  1  0  0  0  0
 37 40  1  0  0  0  0
 37 41  1  0  0  0  0
 37 42  1  0  0  0  0
 11 14  1  0  0  0  0
 11 15  1  0  0  0  0
 11 16  1  0  0  0  0
 44 46  1  0  0  0  0
 44 47  1  0  0  0  0
 44 48  1  0  0  0  0
 22 30  1  0  0  0  0
 22 31  1  0  0  0  0
 21 28  1  0  0  0  0
 21 29  1  0  0  0  0
 34 39  1  0  0  0  0
  8 13  1  0  0  0  0
 18 27  1  0  0  0  0
 43 45  1  0  0  0  0
  7 12  1  0  0  0  0
 33 38  1  0  0  0  0
 17 26  1  0  0  0  0
 25 32  1  0  0  0  0
M  END
$$$$

  -OEChem-05262214473D

 48 47  0     1  0  0  0  0  0999 V2000
   -5.5827   -1.3473    1.4591 C   0  0  0  0  0  0  0  0  0  0  0  0
   -5.7053   -2.4696    0.9825 O   0  0  0  0  0  0  0  0  0  0  0  0
   -6.7879   -0.6277    1.9670 C   0  0  0  0  0  0  0  0  0  0  0  0
   -7.2718   -0.0164    1.1885 H   0  0  0  0  0  0  0  0  0  0  0  0
   -7.5699   -1.3171    2.3239 H   0  0  0  0  0  0  0  0  0  0  0  0
   -6.6057    0.0628    2.8060 H   0  0  0  0  0  0  0  0  0  0  0  0
   -4.4001   -0.6377    1.5884 N   0  0  0  0  0  0  0  0  0  0  0  0
   -3.1220   -1.1455    1.1644 C   0  0  2  0  0  0  0  0  0  0  0  0
   -2.2017    0.0428    0.9187 C   0  0  0  0  0  0  0  0  0  0  0  0
   -2.6171    1.1750    0.6807 O   0  0  0  0  0  0  0  0  0  0  0  0
   -3.2533   -1.9992   -0.0873 C   0  0  0  0  0  0  0  0  0  0  0  0
   -4.4370    0.2910    2.0047 H   0  0  0  0  0  0  0  0  0  0  0  0
   -2.7302   -1.7467    1.9921 H   0  0  0  0  0  0  0  0  0  0  0  0
   -3.6446   -1.4140   -0.9275 H   0  0  0  0  0  0  0  0  0  0  0  0
   -2.2844   -2.4081   -0.3922 H   0  0  0  0  0  0  0  0  0  0  0  0
   -3.9388   -2.8365    0.0822 H   0  0  0  0  0  0  0  0  0  0  0  0
   -0.8768   -0.3314    0.9568 N   0  0  0  0  0  0  0  0  0  0  0  0
    0.2067    0.6285    0.7375 C   0  0  2  0  0  0  0  0  0  0  0  0
    0.2333    0.9132   -0.7611 C   0  0  0  0  0  0  0  0  0  0  0  0
    1.1943    1.4421   -1.3163 O   0  0  0  0  0  0  0  0  0  0  0  0
    1.5274    0.0266    1.2402 C   0  0  0  0  0  0  0  0  0  0  0  0
    1.5760   -0.1615    2.7564 C   0  0  0  0  0  0  0  0  0  0  0  0
    2.8775   -0.7763    3.2072 C   0  0  0  0  0  0  0  0  0  0  0  0
    3.7332   -1.1991    2.4403 O   0  0  0  0  0  0  0  0  0  0  0  0
    2.9925   -0.8371    4.5569 O   0  0  0  0  0  0  0  0  0  0  0  0
   -0.6087   -1.2764    1.1771 H   0  0  0  0  0  0  0  0  0  0  0  0
   -0.0219    1.5418    1.2966 H   0  0  0  0  0  0  0  0  0  0  0  0
    1.6894   -0.9452    0.7552 H   0  0  0  0  0  0  0  0  0  0  0  0
    2.3703    0.6668    0.9481 H   0  0  0  0  0  0  0  0  0  0  0  0
    1.4972    0.8139    3.2519 H   0  0  0  0  0  0  0  0  0  0  0  0
    0.7265   -0.7465    3.1240 H   0  0  0  0  0  0  0  0  0  0  0  0
    3.8176   -1.2478    4.8922 H   0  0  0  0  0  0  0  0  0  0  0  0
   -0.9199    0.4838   -1.4013 N   0  0  0  0  0  0  0  0  0  0  0  0
   -1.1407    0.6358   -2.8215 C   0  0  2  0  0  0  0  0  0  0  0  0
   -1.9115    1.9308   -3.0416 C   0  0  0  0  0  0  0  0  0  0  0  0
   -2.5937    2.4622   -2.1679 O   0  0  0  0  0  0  0  0  0  0  0  0
   -1.8987   -0.5519   -3.3938 C   0  0  0  0  0  0  0  0  0  0  0  0
   -1.6446    0.0408   -0.8447 H   0  0  0  0  0  0  0  0  0  0  0  0
   -0.1530    0.7142   -3.2886 H   0  0  0  0  0  0  0  0  0  0  0  0
   -2.8910   -0.6465   -2.9378 H   0  0  0  0  0  0  0  0  0  0  0  0
   -2.0403   -0.4487   -4.4747 H   0  0  0  0  0  0  0  0  0  0  0  0
   -1.3573   -1.4858   -3.2084 H   0  0  0  0  0  0  0  0  0  0  0  0
   -1.7827    2.4003   -4.3412 N   0  0  0  0  0  0  0  0  0  0  0  0
   -2.4299    3.6064   -4.8022 C   0  0  0  0  0  0  0  0  0  0  0  0
   -1.1814    1.9060   -4.9938 H   0  0  0  0  0  0  0  0  0  0  0  0
   -3.4055    3.3540   -5.2432 H   0  0  0  0  0  0  0  0  0  0  0  0
   -2.5772    4.2906   -3.9536 H   0  0  0  0  0  0  0  0  0  0  0  0
   -1.7997    4.0935   -5.5609 H   0  0  0  0  0  0  0  0  0  0  0  0
  1  3  1  0  0  0  0
  1  7  1  0  0  0  0
  1  2  2  0  0  0  0
 34 35  1  0  0  0  0
 35 43  1  0  0  0  0
 35 36  2  0  0  0  0
  8  9  1  0  0  0  0
  9 17  1  0  0  0  0
  9 10  2  0  0  0  0
 18 19  1  0  0  0  0
 19 33  1  0  0  0  0
 19 20  2  0  0  0  0
 22 23  1  0  0  0  0
 23 24  2  0  0  0  0
 23 25  1  0  0  0  0
 34 37  1  0  0  0  0
  8 11  1  0  0  0  0
 43 44  1  0  0  0  0
 21 22  1  0  0  0  0
 18 21  1  0  0  0  0
 33 34  1  0  0  0  0
  7  8  1  0  0  0  0
 17 18  1  0  0  0  0
  3  4  1  0  0  0  0
  3  5  1  0  0  0  0
  3  6  1  0  0  0  0
 37 40  1  0  0  0  0
 37 41  1  0  0  0  0
 37 42  1  0  0  0  0
 11 14  1  0  0  0  0
 11 15  1  0  0  0  0
 11 16  1  0  0  0  0
 44 46  1  0  0  0  0
 44 47  1  0  0  0  0
 44 48  1  0  0  0  0
 22 30  1  0  0  0  0
 22 31  1  0  0  0  0
 21 28  1  0  0  0  0
 21 29  1  0  0  0  0
 34 39  1  0  0  0  0
  8 13  1  0  0  0  0
 18 27  1  0  0  0  0
 43 45  1  0  0  0  0
  7 12  1  0  0  0  0
 33 38  1  0  0  0  0
 17 26  1  0  0  0  0
 25 32  1  0  0  0  0
M  END
$$$$

  -OEChem-05262214473D

 48 47  0     1  0  0  0  0  0999 V2000
   -5.5827   -1.3473    1.4591 C   0  0  0  0  0  0  0  0  0  0  0  0
   -5.7053   -2.4696    0.9825 O   0  0  0  0  0  0  0  0  0  0  0  0
   -6.7879   -0.6277    1.9670 C   0  0  0  0  0  0  0  0  0  0  0  0
   -7.2718   -0.0164    1.1885 H   0  0  0  0  0  0  0  0  0  0  0  0
   -7.5699   -1.3171    2.3239 H   0  0  0  0  0  0  0  0  0  0  0  0
   -6.6057    0.0628    2.8060 H   0  0  0  0  0  0  0  0  0  0  0  0
   -4.4001   -0.6377    1.5884 N   0  0  0  0  0  0  0  0  0  0  0  0
   -3.1220   -1.1455    1.1644 C   0  0  2  0  0  0  0  0  0  0  0  0
   -2.2017    0.0428    0.9187 C   0  0  0  0  0  0  0  0  0  0  0  0
   -2.6171    1.1750    0.6807 O   0  0  0  0  0  0  0  0  0  0  0  0
   -3.2533   -1.9992   -0.0873 C   0  0  0  0  0  0  0  0  0  0  0  0
   -4.4370    0.2910    2.0047 H   0  0  0  0  0  0  0  0  0  0  0  0
   -2.7302   -1.7467    1.9921 H   0  0  0  0  0  0  0  0  0  0  0  0
   -3.6446   -1.4140   -0.9275 H   0  0  0  0  0  0  0  0  0  0  0  0
   -2.2844   -2.4081   -0.3922 H   0  0  0  0  0  0  0  0  0  0  0  0
   -3.9388   -2.8365    0.0822 H   0  0  0  0  0  0  0  0  0  0  0  0
   -0.8768   -0.3314    0.9568 N   0  0  0  0  0  0  0  0  0  0  0  0
    0.2067    0.6285    0.7375 C   0  0  2  0  0  0  0  0  0  0  0  0
    0.2333    0.9132   -0.7611 C   0  0  0  0  0  0  0  0  0  0  0  0
    1.2696    1.1864   -1.3635 O   0  0  0  0  0  0  0  0  0  0  0  0
    1.5274    0.0266    1.2402 C   0  0  0  0  0  0  0  0  0  0  0  0
    1.5760   -0.1615    2.7564 C   0  0  0  0  0  0  0  0  0  0  0  0
    2.8775   -0.7763    3.2072 C   0  0  0  0  0  0  0  0  0  0  0  0
    3.7332   -1.1991    2.4403 O   0  0  0  0  0  0  0  0  0  0  0  0
    2.9925   -0.8371    4.5569 O   0  0  0  0  0  0  0  0  0  0  0  0
   -0.6087   -1.2764    1.1771 H   0  0  0  0  0  0  0  0  0  0  0  0
   -0.0219    1.5418    1.2966 H   0  0  0  0  0  0  0  0  0  0  0  0
    1.6894   -0.9452    0.7552 H   0  0  0  0  0  0  0  0  0  0  0  0
    2.3703    0.6668    0.9481 H   0  0  0  0  0  0  0  0  0  0  0  0
    1.4972    0.8139    3.2519 H   0  0  0  0  0  0  0  0  0  0  0  0
    0.7265   -0.7465    3.1240 H   0  0  0  0  0  0  0  0  0  0  0  0
    3.8176   -1.2478    4.8922 H   0  0  0  0  0  0  0  0  0  0  0  0
   -1.0203    0.7979   -1.3434 N   0  0  0  0  0  0  0  0  0  0  0  0
   -1.2628    1.0163   -2.7514 C   0  0  2  0  0  0  0  0  0  0  0  0
   -1.6884    2.4669   -2.9358 C   0  0  0  0  0  0  0  0  0  0  0  0
   -2.1706    3.1447   -2.0307 O   0  0  0  0  0  0  0  0  0  0  0  0
   -2.3243    0.0664   -3.2839 C   0  0  0  0  0  0  0  0  0  0  0  0
   -1.8065    0.5476   -0.7513 H   0  0  0  0  0  0  0  0  0  0  0  0
   -0.3110    0.8460   -3.2663 H   0  0  0  0  0  0  0  0  0  0  0  0
   -3.2851    0.2221   -2.7798 H   0  0  0  0  0  0  0  0  0  0  0  0
   -2.4864    0.2138   -4.3568 H   0  0  0  0  0  0  0  0  0  0  0  0
   -2.0300   -0.9764   -3.1235 H   0  0  0  0  0  0  0  0  0  0  0  0
   -1.5066    2.9022   -4.2410 N   0  0  0  0  0  0  0  0  0  0  0  0
   -1.8470    4.2381   -4.6719 C   0  0  0  0  0  0  0  0  0  0  0  0
   -1.0827    2.2784   -4.9214 H   0  0  0  0  0  0  0  0  0  0  0  0
   -2.8746    4.2467   -5.0642 H   0  0  0  0  0  0  0  0  0  0  0  0
   -1.7747    4.9281   -3.8183 H   0  0  0  0  0  0  0  0  0  0  0  0
   -1.1506    4.5572   -5.4613 H   0  0  0  0  0  0  0  0  0  0  0  0
  1  3  1  0  0  0  0
  1  7  1  0  0  0  0
  1  2  2  0  0  0  0
 34 35  1  0  0  0  0
 35 43  1  0  0  0  0
 35 36  2  0  0  0  0
  8  9  1  0  0  0  0
  9 17  1  0  0  0  0
  9 10  2  0  0  0  0
 18 19  1  0  0  0  0
 19 33  1  0  0  0  0
 19 20  2  0  0  0  0
 22 23  1  0  0  0  0
 23 24  2  0  0  0  0
 23 25  1  0  0  0  0
 34 37  1  0  0  0  0
  8 11  1  0  0  0  0
 43 44  1  0  0  0  0
 21 22  1  0  0  0  0
 18 21  1  0  0  0  0
 33 34  1  0  0  0  0
  7  8  1  0  0  0  0
 17 18  1  0  0  0  0
  3  4  1  0  0  0  0
  3  5  1  0  0  0  0
  3  6  1  0  0  0  0
 37 40  1  0  0  0  0
 37 41  1  0  0  0  0
 37 42  1  0  0  0  0
 11 14  1  0  0  0  0
 11 15  1  0  0  0  0
 11 16  1  0  0  0  0
 44 46  1  0  0  0  0
 44 47  1  0  0  0  0
 44 48  1  0  0  0  0
 22 30  1  0  0  0  0
 22 31  1  0  0  0  0
 21 28  1  0  0  0  0
 21 29  1  0  0  0  0
 34 39  1  0  0  0  0
  8 13  1  0  0  0  0
 18 27  1  0  0  0  0
 43 45  1  0  0  0  0
  7 12  1  0  0  0  0
 33 38  1  0  0  0  0
 17 26  1  0  0  0  0
 25 32  1  0  0  0  0
M  END
$$$$

  -OEChem-05262214473D

 48 47  0     1  0  0  0  0  0999 V2000
   -5.5827   -1.3473    1.4591 C   0  0  0  0  0  0  0  0  0  0  0  0
   -5.7053   -2.4696    0.9825 O   0  0  0  0  0  0  0  0  0  0  0  0
   -6.7879   -0.6277    1.9670 C   0  0  0  0  0  0  0  0  0  0  0  0
   -7.2718   -0.0164    1.1885 H   0  0  0  0  0  0  0  0  0  0  0  0
   -7.5699   -1.3171    2.3239 H   0  0  0  0  0  0  0  0  0  0  0  0
   -6.6057    0.0628    2.8060 H   0  0  0  0  0  0  0  0  0  0  0  0
   -4.4001   -0.6377    1.5884 N   0  0  0  0  0  0  0  0  0  0  0  0
   -3.1220   -1.1455    1.1644 C   0  0  2  0  0  0  0  0  0  0  0  0
   -2.2017    0.0428    0.9187 C   0  0  0  0  0  0  0  0  0  0  0  0
   -2.6171    1.1750    0.6807 O   0  0  0  0  0  0  0  0  0  0  0  0
   -3.2533   -1.9992   -0.0873 C   0  0  0  0  0  0  0  0  0  0  0  0
   -4.4370    0.2910    2.0047 H   0  0  0  0  0  0  0  0  0  0  0  0
   -2.7302   -1.7467    1.9921 H   0  0  0  0  0  0  0  0  0  0  0  0
   -3.6446   -1.4140   -0.9275 H   0  0  0  0  0  0  0  0  0  0  0  0
   -2.2844   -2.4081   -0.3922 H   0  0  0  0  0  0  0  0  0  0  0  0
   -3.9388   -2.8365    0.0822 H   0  0  0  0  0  0  0  0  0  0  0  0
   -0.8768   -0.3314    0.9568 N   0  0  0  0  0  0  0  0  0  0  0  0
    0.2067    0.6285    0.7375 C   0  0  2  0  0  0  0  0  0  0  0  0
    0.2333    0.9132   -0.7611 C   0  0  0  0  0  0  0  0  0  0  0  0
    1.2750    0.9206   -1.4139 O   0  0  0  0  0  0  0  0  0  0  0  0
    1.5274    0.0266    1.2402 C   0  0  0  0  0  0  0  0  0  0  0  0
    1.5760   -0.1615    2.7564 C   0  0  0  0  0  0  0  0  0  0  0  0
    2.8775   -0.7763    3.2072 C   0  0  0  0  0  0  0  0  0  0  0  0
    3.7332   -1.1991    2.4403 O   0  0  0  0  0  0  0  0  0  0  0  0
    2.9925   -0.8371    4.5569 O   0  0  0  0  0  0  0  0  0  0  0  0
   -0.6087   -1.2764    1.1771 H   0  0  0  0  0  0  0  0  0  0  0  0
   -0.0219    1.5418    1.2966 H   0  0  0  0  0  0  0  0  0  0  0  0
    1.6894   -0.9452    0.7552 H   0  0  0  0  0  0  0  0  0  0  0  0
    2.3703    0.6668    0.9481 H   0  0  0  0  0  0  0  0  0  0  0  0
    1.4972    0.8139    3.2519 H   0  0  0  0  0  0  0  0  0  0  0  0
    0.7265   -0.7465    3.1240 H   0  0  0  0  0  0  0  0  0  0  0  0
    3.8176   -1.2478    4.8922 H   0  0  0  0  0  0  0  0  0  0  0  0
   -1.0348    1.1265   -1.2813 N   0  0  0  0  0  0  0  0  0  0  0  0
   -1.2806    1.4145   -2.6760 C   0  0  2  0  0  0  0  0  0  0  0  0
   -1.3315    2.9275   -2.8420 C   0  0  0  0  0  0  0  0  0  0  0  0
   -1.5817    3.6959   -1.9156 O   0  0  0  0  0  0  0  0  0  0  0  0
   -2.5729    0.7714   -3.1544 C   0  0  0  0  0  0  0  0  0  0  0  0
   -1.8296    1.0779   -0.6510 H   0  0  0  0  0  0  0  0  0  0  0  0
   -0.4291    1.0135   -3.2366 H   0  0  0  0  0  0  0  0  0  0  0  0
   -3.4373    1.1607   -2.6042 H   0  0  0  0  0  0  0  0  0  0  0  0
   -2.7432    0.9666   -4.2183 H   0  0  0  0  0  0  0  0  0  0  0  0
   -2.5462   -0.3137   -3.0068 H   0  0  0  0  0  0  0  0  0  0  0  0
   -1.1074    3.3164   -4.1553 N   0  0  0  0  0  0  0  0  0  0  0  0
   -1.1170    4.6994   -4.5713 C   0  0  0  0  0  0  0  0  0  0  0  0
   -0.8891    2.6126   -4.8544 H   0  0  0  0  0  0  0  0  0  0  0  0
   -2.1262    4.9731   -4.9130 H   0  0  0  0  0  0  0  0  0  0  0  0
   -0.8310    5.3392   -3.7235 H   0  0  0  0  0  0  0  0  0  0  0  0
   -0.4008    4.8395   -5.3944 H   0  0  0  0  0  0  0  0  0  0  0  0
  1  3  1  0  0  0  0
  1  7  1  0  0  0  0
  1  2  2  0  0  0  0
 34 35  1  0  0  0  0
 35 43  1  0  0  0  0
 35 36  2  0  0  0  0
  8  9  1  0  0  0  0
  9 17  1  0  0  0  0
  9 10  2  0  0  0  0
 18 19  1  0  0  0  0
 19 33  1  0  0  0  0
 19 20  2  0  0  0  0
 22 23  1  0  0  0  0
 23 24  2  0  0  0  0
 23 25  1  0  0  0  0
 34 37  1  0  0  0  0
  8 11  1  0  0  0  0
 43 44  1  0  0  0  0
 21 22  1  0  0  0  0
 18 21  1  0  0  0  0
 33 34  1  0  0  0  0
  7  8  1  0  0  0  0
 17 18  1  0  0  0  0
  3  4  1  0  0  0  0
  3  5  1  0  0  0  0
  3  6  1  0  0  0  0
 37 40  1  0  0  0  0
 37 41  1  0  0  0  0
 37 42  1  0  0  0  0
 11 14  1  0  0  0  0
 11 15  1  0  0  0  0
 11 16  1  0  0  0  0
 44 46  1  0  0  0  0
 44 47  1  0  0  0  0
 44 48  1  0  0  0  0
 22 30  1  0  0  0  0
 22 31  1  0  0  0  0
 21 28  1  0  0  0  0
 21 29  1  0  0  0  0
 34 39  1  0  0  0  0
  8 13  1  0  0  0  0
 18 27  1  0  0  0  0
 43 45  1  0  0  0  0
  7 12  1  0  0  0  0
 33 38  1  0  0  0  0
 17 26  1  0  0  0  0
 25 32  1  0  0  0  0
M  END
$$$$

  -OEChem-05262214473D

 48 47  0     1  0  0  0  0  0999 V2000
   -5.5827   -1.3473    1.4591 C   0  0  0  0  0  0  0  0  0  0  0  0
   -5.7053   -2.4696    0.9825 O   0  0  0  0  0  0  0  0  0  0  0  0
   -6.7879   -0.6277    1.9670 C   0  0  0  0  0  0  0  0  0  0  0  0
   -7.2718   -0.0164    1.1885 H   0  0  0  0  0  0  0  0  0  0  0  0
   -7.5699   -1.3171    2.3239 H   0  0  0  0  0  0  0  0  0  0  0  0
   -6.6057    0.0628    2.8060 H   0  0  0  0  0  0  0  0  0  0  0  0
   -4.4001   -0.6377    1.5884 N   0  0  0  0  0  0  0  0  0  0  0  0
   -3.1220   -1.1455    1.1644 C   0  0  2  0  0  0  0  0  0  0  0  0
   -2.2017    0.0428    0.9187 C   0  0  0  0  0  0  0  0  0  0  0  0
   -2.6171    1.1750    0.6807 O   0  0  0  0  0  0  0  0  0  0  0  0
   -3.2533   -1.9992   -0.0873 C   0  0  0  0  0  0  0  0  0  0  0  0
   -4.4370    0.2910    2.0047 H   0  0  0  0  0  0  0  0  0  0  0  0
   -2.7302   -1.7467    1.9921 H   0  0  0  0  0  0  0  0  0  0  0  0
   -3.6446   -1.4140   -0.9275 H   0  0  0  0  0  0  0  0  0  0  0  0
   -2.2844   -2.4081   -0.3922 H   0  0  0  0  0  0  0  0  0  0  0  0
   -3.9388   -2.8365    0.0822 H   0  0  0  0  0  0  0  0  0  0  0  0
   -0.8768   -0.3314    0.9568 N   0  0  0  0  0  0  0  0  0  0  0  0
    0.2067    0.6285    0.7375 C   0  0  2  0  0  0  0  0  0  0  0  0
    0.2333    0.9132   -0.7611 C   0  0  0  0  0  0  0  0  0  0  0  0
    1.2103    0.6626   -1.4641 O   0  0  0  0  0  0  0  0  0  0  0  0
    1.5274    0.0266    1.2402 C   0  0  0  0  0  0  0  0  0  0  0  0
    1.5760   -0.1615    2.7564 C   0  0  0  0  0  0  0  0  0  0  0  0
    2.8775   -0.7763    3.2072 C   0  0  0  0  0  0  0  0  0  0  0  0
    3.7332   -1.1991    2.4403 O   0  0  0  0  0  0  0  0  0  0  0  0
    2.9925   -0.8371    4.5569 O   0  0  0  0  0  0  0  0  0  0  0  0
   -0.6087   -1.2764    1.1771 H   0  0  0  0  0  0  0  0  0  0  0  0
   -0.0219    1.5418    1.2966 H   0  0  0  0  0  0  0  0  0  0  0  0
    1.6894   -0.9452    0.7552 H   0  0  0  0  0  0  0  0  0  0  0  0
    2.3703    0.6668    0.9481 H   0  0  0  0  0  0  0  0  0  0  0  0
    1.4972    0.8139    3.2519 H   0  0  0  0  0  0  0  0  0  0  0  0
    0.7265   -0.7465    3.1240 H   0  0  0  0  0  0  0  0  0  0  0  0
    3.8176   -1.2478    4.8922 H   0  0  0  0  0  0  0  0  0  0  0  0
   -0.9621    1.4473   -1.2191 N   0  0  0  0  0  0  0  0  0  0  0  0
   -1.1929    1.8033   -2.6006 C   0  0  2  0  0  0  0  0  0  0  0  0
   -0.8652    3.2813   -2.7665 C   0  0  0  0  0  0  0  0  0  0  0  0
   -0.8672    4.0780   -1.8304 O   0  0  0  0  0  0  0  0  0  0  0  0
   -2.6276    1.5149   -3.0142 C   0  0  0  0  0  0  0  0  0  0  0  0
   -1.7121    1.5955   -0.5506 H   0  0  0  0  0  0  0  0  0  0  0  0
   -0.4991    1.2051   -3.2014 H   0  0  0  0  0  0  0  0  0  0  0  0
   -3.3373    2.1051   -2.4230 H   0  0  0  0  0  0  0  0  0  0  0  0
   -2.7931    1.7584   -4.0688 H   0  0  0  0  0  0  0  0  0  0  0  0
   -2.8708    0.4572   -2.8661 H   0  0  0  0  0  0  0  0  0  0  0  0
   -0.6124    3.6145   -4.0899 N   0  0  0  0  0  0  0  0  0  0  0  0
   -0.2898    4.9590   -4.5073 C   0  0  0  0  0  0  0  0  0  0  0  0
   -0.6139    2.8860   -4.7976 H   0  0  0  0  0  0  0  0  0  0  0  0
   -1.2113    5.4838   -4.7997 H   0  0  0  0  0  0  0  0  0  0  0  0
    0.1896    5.4960   -3.6756 H   0  0  0  0  0  0  0  0  0  0  0  0
    0.3984    4.9214   -5.3647 H   0  0  0  0  0  0  0  0  0  0  0  0
  1  3  1  0  0  0  0
  1  7  1  0  0  0  0
  1  2  2  0  0  0  0
 34 35  1  0  0  0  0
 35 43  1  0  0  0  0
 35 36  2  0  0  0  0
  8  9  1  0  0  0  0
  9 17  1  0  0  0  0
  9 10  2  0  0  0  0
 18 19  1  0  0  0  0
 19 33  1  0  0  0  0
 19 20  2  0  0  0  0
 22 23  1  0  0  0  0
 23 24  2  0  0  0  0
 23 25  1  0  0  0  0
 34 37  1  0  0  0  0
  8 11  1  0  0  0  0
 43 44  1  0  0  0  0
 21 22  1  0  0  0  0
 18 21  1  0  0  0  0
 33 34  1  0  0  0  0
  7  8  1  0  0  0  0
 17 18  1  0  0  0  0
  3  4  1  0  0  0  0
  3  5  1  0  0  0  0
  3  6  1  0  0  0  0
 37 40  1  0  0  0  0
 37 41  1  0  0  0  0
 37 42  1  0  0  0  0
 11 14  1  0  0  0  0
 11 15  1  0  0  0  0
 11 16  1  0  0  0  0
 44 46  1  0  0  0  0
 44 47  1  0  0  0  0
 44 48  1  0  0  0  0
 22 30  1  0  0  0  0
 22 31  1  0  0  0  0
 21 28  1  0  0  0  0
 21 29  1  0  0  0  0
 34 39  1  0  0  0  0
  8 13  1  0  0  0  0
 18 27  1  0  0  0  0
 43 45  1  0  0  0  0
  7 12  1  0  0  0  0
 33 38  1  0  0  0  0
 17 26  1  0  0  0  0
 25 32  1  0  0  0  0
M  END
$$$$

  -OEChem-05262214473D

 48 47  0     1  0  0  0  0  0999 V2000
   -5.5827   -1.3473    1.4591 C   0  0  0  0  0  0  0  0  0  0  0  0
   -5.7053   -2.4696    0.9825 O   0  0  0  0  0  0  0  0  0  0  0  0
   -6.7879   -0.6277    1.9670 C   0  0  0  0  0  0  0  0  0  0  0  0
   -7.2718   -0.0164    1.1885 H   0  0  0  0  0  0  0  0  0  0  0  0
   -7.5699   -1.3171    2.3239 H   0  0  0  0  0  0  0  0  0  0  0  0
   -6.6057    0.0628    2.8060 H   0  0  0  0  0  0  0  0  0  0  0  0
   -4.4001   -0.6377    1.5884 N   0  0  0  0  0  0  0  0  0  0  0  0
   -3.1220   -1.1455    1.1644 C   0  0  2  0  0  0  0  0  0  0  0  0
   -2.2017    0.0428    0.9187 C   0  0  0  0  0  0  0  0  0  0  0  0
   -2.6171    1.1750    0.6807 O   0  0  0  0  0  0  0  0  0  0  0  0
   -3.2533   -1.9992   -0.0873 C   0  0  0  0  0  0  0  0  0  0  0  0
   -4.4370    0.2910    2.0047 H   0  0  0  0  0  0  0  0  0  0  0  0
   -2.7302   -1.7467    1.9921 H   0  0  0  0  0  0  0  0  0  0  0  0
   -3.6446   -1.4140   -0.9275 H   0  0  0  0  0  0  0  0  0  0  0  0
   -2.2844   -2.4081   -0.3922 H   0  0  0  0  0  0  0  0  0  0  0  0
   -3.9388   -2.8365    0.0822 H   0  0  0  0  0  0  0  0  0  0  0  0
   -0.8768   -0.3314    0.9568 N   0  0  0  0  0  0  0  0  0  0  0  0
    0.2067    0.6285    0.7375 C   0  0  2  0  0  0  0  0  0  0  0  0
    0.2333    0.9132   -0.7611 C   0  0  0  0  0  0  0  0  0  0  0  0
    1.0797    0.4301   -1.5106 O   0  0  0  0  0  0  0  0  0  0  0  0
    1.5274    0.0266    1.2402 C   0  0  0  0  0  0  0  0  0  0  0  0
    1.5760   -0.1615    2.7564 C   0  0  0  0  0  0  0  0  0  0  0  0
    2.8775   -0.7763    3.2072 C   0  0  0  0  0  0  0  0  0  0  0  0
    3.7332   -1.1991    2.4403 O   0  0  0  0  0  0  0  0  0  0  0  0
    2.9925   -0.8371    4.5569 O   0  0  0  0  0  0  0  0  0  0  0  0
   -0.6087   -1.2764    1.1771 H   0  0  0  0  0  0  0  0  0  0  0  0
   -0.0219    1.5418    1.2966 H   0  0  0  0  0  0  0  0  0  0  0  0
    1.6894   -0.9452    0.7552 H   0  0  0  0  0  0  0  0  0  0  0  0
    2.3703    0.6668    0.9481 H   0  0  0  0  0  0  0  0  0  0  0  0
    1.4972    0.8139    3.2519 H   0  0  0  0  0  0  0  0  0  0  0  0
    0.7265   -0.7465    3.1240 H   0  0  0  0  0  0  0  0  0  0  0  0
    3.8176   -1.2478    4.8922 H   0  0  0  0  0  0  0  0  0  0  0  0
   -0.8074    1.7384   -1.1610 N   0  0  0  0  0  0  0  0  0  0  0  0
   -1.0056    2.1562   -2.5303 C   0  0  2  0  0  0  0  0  0  0  0  0
   -0.3211    3.5041   -2.7145 C   0  0  0  0  0  0  0  0  0  0  0  0
   -0.0757    4.2651   -1.7808 O   0  0  0  0  0  0  0  0  0  0  0  0
   -2.4846    2.2463   -2.8727 C   0  0  0  0  0  0  0  0  0  0  0  0
   -1.4623    2.0652   -0.4569 H   0  0  0  0  0  0  0  0  0  0  0  0
   -0.5163    1.4079   -3.1632 H   0  0  0  0  0  0  0  0  0  0  0  0
   -2.9918    2.9912   -2.2486 H   0  0  0  0  0  0  0  0  0  0  0  0
   -2.6329    2.5352   -3.9184 H   0  0  0  0  0  0  0  0  0  0  0  0
   -2.9814    1.2836   -2.7111 H   0  0  0  0  0  0  0  0  0  0  0  0
   -0.0554    3.7764   -4.0492 N   0  0  0  0  0  0  0  0  0  0  0  0
    0.5783    4.9991   -4.4843 C   0  0  0  0  0  0  0  0  0  0  0  0
   -0.2759    3.0798   -4.7548 H   0  0  0  0  0  0  0  0  0  0  0  0
   -0.1922    5.7440   -4.7322 H   0  0  0  0  0  0  0  0  0  0  0  0
    1.2177    5.3877   -3.6779 H   0  0  0  0  0  0  0  0  0  0  0  0
    1.1926    4.7971   -5.3742 H   0  0  0  0  0  0  0  0  0  0  0  0
  1  3  1  0  0  0  0
  1  7  1  0  0  0  0
  1  2  2  0  0  0  0
 34 35  1  0  0  0  0
 35 43  1  0  0  0  0
 35 36  2  0  0  0  0
  8  9  1  0  0  0  0
  9 17  1  0  0  0  0
  9 10  2  0  0  0  0
 18 19  1  0  0  0  0
 19 33  1  0  0  0  0
 19 20  2  0  0  0  0
 22 23  1  0  0  0  0
 23 24  2  0  0  0  0
 23 25  1  0  0  0  0
 34 37  1  0  0  0  0
  8 11  1  0  0  0  0
 43 44  1  0  0  0  0
 21 22  1  0  0  0  0
 18 21  1  0  0  0  0
 33 34  1  0  0  0  0
  7  8  1  0  0  0  0
 17 18  1  0  0  0  0
  3  4  1  0  0  0  0
  3  5  1  0  0  0  0
  3  6  1  0  0  0  0
 37 40  1  0  0  0  0
 37 41  1  0  0  0  0
 37 42  1  0  0  0  0
 11 14  1  0  0  0  0
 11 15  1  0  0  0  0
 11 16  1  0  0  0  0
 44 46  1  0  0  0  0
 44 47  1  0  0  0  0
 44 48  1  0  0  0  0
 22 30  1  0  0  0  0
 22 31  1  0  0  0  0
 21 28  1  0  0  0  0
 21 29  1  0  0  0  0
 34 39  1  0  0  0  0
  8 13  1  0  0  0  0
 18 27  1  0  0  0  0
 43 45  1  0  0  0  0
  7 12  1  0  0  0  0
 33 38  1  0  0  0  0
 17 26  1  0  0  0  0
 25 32  1  0  0  0  0
M  END
$$$$

  -OEChem-05262214473D

 48 47  0     1  0  0  0  0  0999 V2000
   -5.5827   -1.3473    1.4591 C   0  0  0  0  0  0  0  0  0  0  0  0
   -5.7053   -2.4696    0.9825 O   0  0  0  0  0  0  0  0  0  0  0  0
   -6.7879   -0.6277    1.9670 C   0  0  0  0  0  0  0  0  0  0  0  0
   -7.2718   -0.0164    1.1885 H   0  0  0  0  0  0  0  0  0  0  0  0
   -7.5699   -1.3171    2.3239 H   0  0  0  0  0  0  0  0  0  0  0  0
   -6.6057    0.0628    2.8060 H   0  0  0  0  0  0  0  0  0  0  0  0
   -4.4001   -0.6377    1.5884 N   0  0  0  0  0  0  0  0  0  0  0  0
   -3.1220   -1.1455    1.1644 C   0  0  2  0  0  0  0  0  0  0  0  0
   -2.2017    0.0428    0.9187 C   0  0  0  0  0  0  0  0  0  0  0  0
   -2.6171    1.1750    0.6807 O   0  0  0  0  0  0  0  0  0  0  0  0
   -3.2533   -1.9992   -0.0873 C   0  0  0  0  0  0  0  0  0  0  0  0
   -4.4370    0.2910    2.0047 H   0  0  0  0  0  0  0  0  0  0  0  0
   -2.7302   -1.7467    1.9921 H   0  0  0  0  0  0  0  0  0  0  0  0
   -3.6446   -1.4140   -0.9275 H   0  0  0  0  0  0  0  0  0  0  0  0
   -2.2844   -2.4081   -0.3922 H   0  0  0  0  0  0  0  0  0  0  0  0
   -3.9388   -2.8365    0.0822 H   0  0  0  0  0  0  0  0  0  0  0  0
   -0.8768   -0.3314    0.9568 N   0  0  0  0  0  0  0  0  0  0  0  0
    0.2067    0.6285    0.7375 C   0  0  2  0  0  0  0  0  0  0  0  0
    0.2333    0.9132   -0.7611 C   0  0  0  0  0  0  0  0  0  0  0  0
    0.8923    0.2390   -1.5502 O   0  0  0  0  0  0  0  0  0  0  0  0
    1.5274    0.0266    1.2402 C   0  0  0  0  0  0  0  0  0  0  0  0
    1.5760   -0.1615    2.7564 C   0  0  0  0  0  0  0  0  0  0  0  0
    2.8775   -0.7763    3.2072 C   0  0  0  0  0  0  0  0  0  0  0  0
    3.7332   -1.1991    2.4403 O   0  0  0  0  0  0  0  0  0  0  0  0
    2.9925   -0.8371    4.5569 O   0  0  0  0  0  0  0  0  0  0  0  0
   -0.6087   -1.2764    1.1771 H   0  0  0  0  0  0  0  0  0  0  0  0
   -0.0219    1.5418    1.2966 H   0  0  0  0  0  0  0  0  0  0  0  0
    1.6894   -0.9452    0.7552 H   0  0  0  0  0  0  0  0  0  0  0  0
    2.3703    0.6668    0.9481 H   0  0  0  0  0  0  0  0  0  0  0  0
    1.4972    0.8139    3.2519 H   0  0  0  0  0  0  0  0  0  0  0  0
    0.7265   -0.7465    3.1240 H   0  0  0  0  0  0  0  0  0  0  0  0
    3.8176   -1.2478    4.8922 H   0  0  0  0  0  0  0  0  0  0  0  0
   -0.5811    1.9801   -1.1111 N   0  0  0  0  0  0  0  0  0  0  0  0
   -0.7317    2.4492   -2.4698 C   0  0  2  0  0  0  0  0  0  0  0  0
    0.2636    3.5808   -2.6896 C   0  0  0  0  0  0  0  0  0  0  0  0
    0.7387    4.2443   -1.7703 O   0  0  0  0  0  0  0  0  0  0  0  0
   -2.1537    2.9159   -2.7396 C   0  0  0  0  0  0  0  0  0  0  0  0
   -1.0970    2.4549   -0.3764 H   0  0  0  0  0  0  0  0  0  0  0  0
   -0.4796    1.6079   -3.1246 H   0  0  0  0  0  0  0  0  0  0  0  0
   -2.4244    3.7584   -2.0928 H   0  0  0  0  0  0  0  0  0  0  0  0
   -2.2733    3.2442   -3.7774 H   0  0  0  0  0  0  0  0  0  0  0  0
   -2.8708    2.1093   -2.5523 H   0  0  0  0  0  0  0  0  0  0  0  0
    0.5258    3.7909   -4.0362 N   0  0  0  0  0  0  0  0  0  0  0  0
    1.4282    4.8171   -4.5038 C   0  0  0  0  0  0  0  0  0  0  0  0
    0.1020    3.1809   -4.7289 H   0  0  0  0  0  0  0  0  0  0  0  0
    0.8615    5.7359   -4.7151 H   0  0  0  0  0  0  0  0  0  0  0  0
    2.1831    5.0217   -3.7303 H   0  0  0  0  0  0  0  0  0  0  0  0
    1.9277    4.4752   -5.4223 H   0  0  0  0  0  0  0  0  0  0  0  0
  1  3  1  0  0  0  0
  1  7  1  0  0  0  0
  1  2  2  0  0  0  0
 34 35  1  0  0  0  0
 35 43  1  0  0  0  0
 35 36  2  0  0  0  0
  8  9  1  0  0  0  0
  9 17  1  0  0  0  0
  9 10  2  0  0  0  0
 18 19  1  0  0  0  0
 19 33  1  0  0  0  0
 19 20  2  0  0  0  0
 22 23  1  0  0  0  0
 23 24  2  0  0  0  0
 23 25  1  0  0  0  0
 34 37  1  0  0  0  0
  8 11  1  0  0  0  0
 43 44  1  0  0  0  0
 21 22  1  0  0  0  0
 18 21  1  0  0  0  0
 33 34  1  0  0  0  0
  7  8  1  0  0  0  0
 17 18  1  0  0  0  0
  3  4  1  0  0  0  0
  3  5  1  0  0  0  0
  3  6  1  0  0  0  0
 37 40  1  0  0  0  0
 37 41  1  0  0  0  0
 37 42  1  0  0  0  0
 11 14  1  0  0  0  0
 11 15  1  0  0  0  0
 11 16  1  0  0  0  0
 44 46  1  0  0  0  0
 44 47  1  0  0  0  0
 44 48  1  0  0  0  0
 22 30  1  0  0  0  0
 22 31  1  0  0  0  0
 21 28  1  0  0  0  0
 21 29  1  0  0  0  0
 34 39  1  0  0  0  0
  8 13  1  0  0  0  0
 18 27  1  0  0  0  0
 43 45  1  0  0  0  0
  7 12  1  0  0  0  0
 33 38  1  0  0  0  0
 17 26  1  0  0  0  0
 25 32  1  0  0  0  0
M  END
$$$$

  -OEChem-05262214473D

 48 47  0     1  0  0  0  0  0999 V2000
   -5.5827   -1.3473    1.4591 C   0  0  0  0  0  0  0  0  0  0  0  0
   -5.7053   -2.4696    0.9825 O   0  0  0  0  0  0  0  0  0  0  0  0
   -6.7879   -0.6277    1.9670 C   0  0  0  0  0  0  0  0  0  0  0  0
   -7.2718   -0.0164    1.1885 H   0  0  0  0  0  0  0  0  0  0  0  0
   -7.5699   -1.3171    2.3239 H   0  0  0  0  0  0  0  0  0  0  0  0
   -6.6057    0.0628    2.8060 H   0  0  0  0  0  0  0  0  0  0  0  0
   -4.4001   -0.6377    1.5884 N   0  0  0  0  0  0  0  0  0  0  0  0
   -3.1220   -1.1455    1.1644 C   0  0  2  0  0  0  0  0  0  0  0  0
   -2.2017    0.0428    0.9187 C   0  0  0  0  0  0  0  0  0  0  0  0
   -2.6171    1.1750    0.6807 O   0  0  0  0  0  0  0  0  0  0  0  0
   -3.2533   -1.9992   -0.0873 C   0  0  0  0  0  0  0  0  0  0  0  0
   -4.4370    0.2910    2.0047 H   0  0  0  0  0  0  0  0  0  0  0  0
   -2.7302   -1.7467    1.9921 H   0  0  0  0  0  0  0  0  0  0  0  0
   -3.6446   -1.4140   -0.9275 H   0  0  0  0  0  0  0  0  0  0  0  0
   -2.2844   -2.4081   -0.3922 H   0  0  0  0  0  0  0  0  0  0  0  0
   -3.9388   -2.8365    0.0822 H   0  0  0  0  0  0  0  0  0  0  0  0
   -0.8768   -0.3314    0.9568 N   0  0  0  0  0  0  0  0  0  0  0  0
    0.2067    0.6285    0.7375 C   0  0  2  0  0  0  0  0  0  0  0  0
    0.2333    0.9132   -0.7611 C   0  0  0  0  0  0  0  0  0  0  0  0
    0.6607    0.1022   -1.5803 O   0  0  0  0  0  0  0  0  0  0  0  0
    1.5274    0.0266    1.2402 C   0  0  0  0  0  0  0  0  0  0  0  0
    1.5760   -0.1615    2.7564 C   0  0  0  0  0  0  0  0  0  0  0  0
    2.8775   -0.7763    3.2072 C   0  0  0  0  0  0  0  0  0  0  0  0
    3.7332   -1.1991    2.4403 O   0  0  0  0  0  0  0  0  0  0  0  0
    2.9925   -0.8371    4.5569 O   0  0  0  0  0  0  0  0  0  0  0  0
   -0.6087   -1.2764    1.1771 H   0  0  0  0  0  0  0  0  0  0  0  0
   -0.0219    1.5418    1.2966 H   0  0  0  0  0  0  0  0  0  0  0  0
    1.6894   -0.9452    0.7552 H   0  0  0  0  0  0  0  0  0  0  0  0
    2.3703    0.6668    0.9481 H   0  0  0  0  0  0  0  0  0  0  0  0
    1.4972    0.8139    3.2519 H   0  0  0  0  0  0  0  0  0  0  0  0
    0.7265   -0.7465    3.1240 H   0  0  0  0  0  0  0  0  0  0  0  0
    3.8176   -1.2478    4.8922 H   0  0  0  0  0  0  0  0  0  0  0  0
   -0.2987    2.1557   -1.0727 N   0  0  0  0  0  0  0  0  0  0  0  0
   -0.3897    2.6622   -2.4232 C   0  0  2  0  0  0  0  0  0  0  0  0
    0.8490    3.5061   -2.6934 C   0  0  0  0  0  0  0  0  0  0  0  0
    1.5206    4.0172   -1.7996 O   0  0  0  0  0  0  0  0  0  0  0  0
   -1.6574    3.4779   -2.6241 C   0  0  0  0  0  0  0  0  0  0  0  0
   -0.6412    2.7381   -0.3146 H   0  0  0  0  0  0  0  0  0  0  0  0
   -0.3913    1.7917   -3.0881 H   0  0  0  0  0  0  0  0  0  0  0  0
   -1.6737    4.3545   -1.9663 H   0  0  0  0  0  0  0  0  0  0  0  0
   -1.7390    3.8370   -3.6553 H   0  0  0  0  0  0  0  0  0  0  0  0
   -2.5462    2.8780   -2.4005 H   0  0  0  0  0  0  0  0  0  0  0  0
    1.0916    3.6572   -4.0515 N   0  0  0  0  0  0  0  0  0  0  0  0
    2.2019    4.4253   -4.5645 C   0  0  0  0  0  0  0  0  0  0  0  0
    0.4939    3.1823   -4.7217 H   0  0  0  0  0  0  0  0  0  0  0  0
    1.8781    5.4602   -4.7494 H   0  0  0  0  0  0  0  0  0  0  0  0
    3.0200    4.4230   -3.8292 H   0  0  0  0  0  0  0  0  0  0  0  0
    2.5536    3.9776   -5.5057 H   0  0  0  0  0  0  0  0  0  0  0  0
  1  3  1  0  0  0  0
  1  7  1  0  0  0  0
  1  2  2  0  0  0  0
 34 35  1  0  0  0  0
 35 43  1  0  0  0  0
 35 36  2  0  0  0  0
  8  9  1  0  0  0  0
  9 17  1  0  0  0  0
  9 10  2  0  0  0  0
 18 19  1  0  0  0  0
 19 33  1  0  0  0  0
 19 20  2  0  0  0  0
 22 23  1  0  0  0  0
 23 24  2  0  0  0  0
 23 25  1  0  0  0  0
 34 37  1  0  0  0  0
  8 11  1  0  0  0  0
 43 44  1  0  0  0  0
 21 22  1  0  0  0  0
 18 21  1  0  0  0  0
 33 34  1  0  0  0  0
  7  8  1  0  0  0  0
 17 18  1  0  0  0  0
  3  4  1  0  0  0  0
  3  5  1  0  0  0  0
  3  6  1  0  0  0  0
 37 40  1  0  0  0  0
 37 41  1  0  0  0  0
 37 42  1  0  0  0  0
 11 14  1  0  0  0  0
 11 15  1  0  0  0  0
 11 16  1  0  0  0  0
 44 46  1  0  0  0  0
 44 47  1  0  0  0  0
 44 48  1  0  0  0  0
 22 30  1  0  0  0  0
 22 31  1  0  0  0  0
 21 28  1  0  0  0  0
 21 29  1  0  0  0  0
 34 39  1  0  0  0  0
  8 13  1  0  0  0  0
 18 27  1  0  0  0  0
 43 45  1  0  0  0  0
  7 12  1  0  0  0  0
 33 38  1  0  0  0  0
 17 26  1  0  0  0  0
 25 32  1  0  0  0  0
M  END
$$$$

  -OEChem-05262214473D

 48 47  0     1  0  0  0  0  0999 V2000
   -5.5827   -1.3473    1.4591 C   0  0  0  0  0  0  0  0  0  0  0  0
   -5.7053   -2.4696    0.9825 O   0  0  0  0  0  0  0  0  0  0  0  0
   -6.7879   -0.6277    1.9670 C   0  0  0  0  0  0  0  0  0  0  0  0
   -7.2718   -0.0164    1.1885 H   0  0  0  0  0  0  0  0  0  0  0  0
   -7.5699   -1.3171    2.3239 H   0  0  0  0  0  0  0  0  0  0  0  0
   -6.6057    0.0628    2.8060 H   0  0  0  0  0  0  0  0  0  0  0  0
   -4.4001   -0.6377    1.5884 N   0  0  0  0  0  0  0  0  0  0  0  0
   -3.1220   -1.1455    1.1644 C   0  0  2  0  0  0  0  0  0  0  0  0
   -2.2017    0.0428    0.9187 C   0  0  0  0  0  0  0  0  0  0  0  0
   -2.6171    1.1750    0.6807 O   0  0  0  0  0  0  0  0  0  0  0  0
   -3.2533   -1.9992   -0.0873 C   0  0  0  0  0  0  0  0  0  0  0  0
   -4.4370    0.2910    2.0047 H   0  0  0  0  0  0  0  0  0  0  0  0
   -2.7302   -1.7467    1.9921 H   0  0  0  0  0  0  0  0  0  0  0  0
   -3.6446   -1.4140   -0.9275 H   0  0  0  0  0  0  0  0  0  0  0  0
   -2.2844   -2.4081   -0.3922 H   0  0  0  0  0  0  0  0  0  0  0  0
   -3.9388   -2.8365    0.0822 H   0  0  0  0  0  0  0  0  0  0  0  0
   -0.8768   -0.3314    0.9568 N   0  0  0  0  0  0  0  0  0  0  0  0
    0.2067    0.6285    0.7375 C   0  0  2  0  0  0  0  0  0  0  0  0
    0.2333    0.9132   -0.7611 C   0  0  0  0  0  0  0  0  0  0  0  0
    0.4008    0.0290   -1.5988 O   0  0  0  0  0  0  0  0  0  0  0  0
    1.5274    0.0266    1.2402 C   0  0  0  0  0  0  0  0  0  0  0  0
    1.5760   -0.1615    2.7564 C   0  0  0  0  0  0  0  0  0  0  0  0
    2.8775   -0.7763    3.2072 C   0  0  0  0  0  0  0  0  0  0  0  0
    3.7332   -1.1991    2.4403 O   0  0  0  0  0  0  0  0  0  0  0  0
    2.9925   -0.8371    4.5569 O   0  0  0  0  0  0  0  0  0  0  0  0
   -0.6087   -1.2764    1.1771 H   0  0  0  0  0  0  0  0  0  0  0  0
   -0.0219    1.5418    1.2966 H   0  0  0  0  0  0  0  0  0  0  0  0
    1.6894   -0.9452    0.7552 H   0  0  0  0  0  0  0  0  0  0  0  0
    2.3703    0.6668    0.9481 H   0  0  0  0  0  0  0  0  0  0  0  0
    1.4972    0.8139    3.2519 H   0  0  0  0  0  0  0  0  0  0  0  0
    0.7265   -0.7465    3.1240 H   0  0  0  0  0  0  0  0  0  0  0  0
    3.8176   -1.2478    4.8922 H   0  0  0  0  0  0  0  0  0  0  0  0
    0.0205    2.2534   -1.0485 N   0  0  0  0  0  0  0  0  0  0  0  0
   -0.0029    2.7809   -2.3938 C   0  0  2  0  0  0  0  0  0  0  0  0
    1.3954    3.2851   -2.7257 C   0  0  0  0  0  0  0  0  0  0  0  0
    2.2166    3.5991   -1.8666 O   0  0  0  0  0  0  0  0  0  0  0  0
   -1.0296    3.8940   -2.5339 C   0  0  0  0  0  0  0  0  0  0  0  0
   -0.1260    2.8955   -0.2755 H   0  0  0  0  0  0  0  0  0  0  0  0
   -0.2576    1.9465   -3.0563 H   0  0  0  0  0  0  0  0  0  0  0  0
   -0.7910    4.7389   -1.8776 H   0  0  0  0  0  0  0  0  0  0  0  0
   -1.0662    4.2731   -3.5605 H   0  0  0  0  0  0  0  0  0  0  0  0
   -2.0300    3.5374   -2.2661 H   0  0  0  0  0  0  0  0  0  0  0  0
    1.6033    3.3842   -4.0943 N   0  0  0  0  0  0  0  0  0  0  0  0
    2.8466    3.8504   -4.6623 C   0  0  0  0  0  0  0  0  0  0  0  0
    0.8733    3.0840   -4.7336 H   0  0  0  0  0  0  0  0  0  0  0  0
    2.7883    4.9356   -4.8329 H   0  0  0  0  0  0  0  0  0  0  0  0
    3.6714    3.6324   -3.9678 H   0  0  0  0  0  0  0  0  0  0  0  0
    3.0276    3.3382   -5.6188 H   0  0  0  0  0  0  0  0  0  0  0  0
  1  3  1  0  0  0  0
  1  7  1  0  0  0  0
  1  2  2  0  0  0  0
 34 35  1  0  0  0  0
 35 43  1  0  0  0  0
 35 36  2  0  0  0  0
  8  9  1  0  0  0  0
  9 17  1  0  0  0  0
  9 10  2  0  0  0  0
 18 19  1  0  0  0  0
 19 33  1  0  0  0  0
 19 20  2  0  0  0  0
 22 23  1  0  0  0  0
 23 24  2  0  0  0  0
 23 25  1  0  0  0  0
 34 37  1  0  0  0  0
  8 11  1  0  0  0  0
 43 44  1  0  0  0  0
 21 22  1  0  0  0  0
 18 21  1  0  0  0  0
 33 34  1  0  0  0  0
  7  8  1  0  0  0  0
 17 18  1  0  0  0  0
  3  4  1  0  0  0  0
  3  5  1  0  0  0  0
  3  6  1  0  0  0  0
 37 40  1  0  0  0  0
 37 41  1  0  0  0  0
 37 42  1  0  0  0  0
 11 14  1  0  0  0  0
 11 15  1  0  0  0  0
 11 16  1  0  0  0  0
 44 46  1  0  0  0  0
 44 47  1  0  0  0  0
 44 48  1  0  0  0  0
 22 30  1  0  0  0  0
 22 31  1  0  0  0  0
 21 28  1  0  0  0  0
 21 29  1  0  0  0  0
 34 39  1  0  0  0  0
  8 13  1  0  0  0  0
 18 27  1  0  0  0  0
 43 45  1  0  0  0  0
  7 12  1  0  0  0  0
 33 38  1  0  0  0  0
 17 26  1  0  0  0  0
 25 32  1  0  0  0  0
M  END
$$$$

  -OEChem-05262214473D

 48 47  0     1  0  0  0  0  0999 V2000
   -5.5827   -1.3473    1.4591 C   0  0  0  0  0  0  0  0  0  0  0  0
   -5.7053   -2.4696    0.9825 O   0  0  0  0  0  0  0  0  0  0  0  0
   -6.7879   -0.6277    1.9670 C   0  0  0  0  0  0  0  0  0  0  0  0
   -7.2718   -0.0164    1.1885 H   0  0  0  0  0  0  0  0  0  0  0  0
   -7.5699   -1.3171    2.3239 H   0  0  0  0  0  0  0  0  0  0  0  0
   -6.6057    0.0628    2.8060 H   0  0  0  0  0  0  0  0  0  0  0  0
   -4.4001   -0.6377    1.5884 N   0  0  0  0  0  0  0  0  0  0  0  0
   -3.1220   -1.1455    1.1644 C   0  0  2  0  0  0  0  0  0  0  0  0
   -2.2017    0.0428    0.9187 C   0  0  0  0  0  0  0  0  0  0  0  0
   -2.6171    1.1750    0.6807 O   0  0  0  0  0  0  0  0  0  0  0  0
   -3.2533   -1.9992   -0.0873 C   0  0  0  0  0  0  0  0  0  0  0  0
   -4.4370    0.2910    2.0047 H   0  0  0  0  0  0  0  0  0  0  0  0
   -2.7302   -1.7467    1.9921 H   0  0  0  0  0  0  0  0  0  0  0  0
   -3.6446   -1.4140   -0.9275 H   0  0  0  0  0  0  0  0  0  0  0  0
   -2.2844   -2.4081   -0.3922 H   0  0  0  0  0  0  0  0  0  0  0  0
   -3.9388   -2.8365    0.0822 H   0  0  0  0  0  0  0  0  0  0  0  0
   -0.8768   -0.3314    0.9568 N   0  0  0  0  0  0  0  0  0  0  0  0
    0.2067    0.6285    0.7375 C   0  0  2  0  0  0  0  0  0  0  0  0
    0.2333    0.9132   -0.7611 C   0  0  0  0  0  0  0  0  0  0  0  0
    0.1302    0.0245   -1.6044 O   0  0  0  0  0  0  0  0  0  0  0  0
    1.5274    0.0266    1.2402 C   0  0  0  0  0  0  0  0  0  0  0  0
    1.5760   -0.1615    2.7564 C   0  0  0  0  0  0  0  0  0  0  0  0
    2.8775   -0.7763    3.2072 C   0  0  0  0  0  0  0  0  0  0  0  0
    3.7332   -1.1991    2.4403 O   0  0  0  0  0  0  0  0  0  0  0  0
    2.9925   -0.8371    4.5569 O   0  0  0  0  0  0  0  0  0  0  0  0
   -0.6087   -1.2764    1.1771 H   0  0  0  0  0  0  0  0  0  0  0  0
   -0.0219    1.5418    1.2966 H   0  0  0  0  0  0  0  0  0  0  0  0
    1.6894   -0.9452    0.7552 H   0  0  0  0  0  0  0  0  0  0  0  0
    2.3703    0.6668    0.9481 H   0  0  0  0  0  0  0  0  0  0  0  0
    1.4972    0.8139    3.2519 H   0  0  0  0  0  0  0  0  0  0  0  0
    0.7265   -0.7465    3.1240 H   0  0  0  0  0  0  0  0  0  0  0  0
    3.8176   -1.2478    4.8922 H   0  0  0  0  0  0  0  0  0  0  0  0
    0.3549    2.2664   -1.0401 N   0  0  0  0  0  0  0  0  0  0  0  0
    0.4023    2.7970   -2.3836 C   0  0  2  0  0  0  0  0  0  0  0  0
    1.8653    2.9329   -2.7842 C   0  0  0  0  0  0  0  0  0  0  0  0
    2.7795    3.0187   -1.9669 O   0  0  0  0  0  0  0  0  0  0  0  0
   -0.3130    4.1360   -2.4752 C   0  0  0  0  0  0  0  0  0  0  0  0
    0.4136    2.9164   -0.2620 H   0  0  0  0  0  0  0  0  0  0  0  0
   -0.0876    2.0620   -3.0314 H   0  0  0  0  0  0  0  0  0  0  0  0
    0.1637    4.8853   -1.8328 H   0  0  0  0  0  0  0  0  0  0  0  0
   -0.3009    4.5229   -3.4995 H   0  0  0  0  0  0  0  0  0  0  0  0
   -1.3573    4.0424   -2.1583 H   0  0  0  0  0  0  0  0  0  0  0  0
    2.0261    2.9906   -4.1616 N   0  0  0  0  0  0  0  0  0  0  0  0
    3.3186    3.1317   -4.7904 C   0  0  0  0  0  0  0  0  0  0  0  0
    1.2141    2.8927   -4.7639 H   0  0  0  0  0  0  0  0  0  0  0  0
    3.5301    4.1978   -4.9599 H   0  0  0  0  0  0  0  0  0  0  0  0
    4.0929    2.7038   -4.1367 H   0  0  0  0  0  0  0  0  0  0  0  0
    3.3174    2.6006   -5.7537 H   0  0  0  0  0  0  0  0  0  0  0  0
  1  3  1  0  0  0  0
  1  7  1  0  0  0  0
  1  2  2  0  0  0  0
 34 35  1  0  0  0  0
 35 43  1  0  0  0  0
 35 36  2  0  0  0  0
  8  9  1  0  0  0  0
  9 17  1  0  0  0  0
  9 10  2  0  0  0  0
 18 19  1  0  0  0  0
 19 33  1  0  0  0  0
 19 20  2  0  0  0  0
 22 23  1  0  0  0  0
 23 24  2  0  0  0  0
 23 25  1  0  0  0  0
 34 37  1  0  0  0  0
  8 11  1  0  0  0  0
 43 44  1  0  0  0  0
 21 22  1  0  0  0  0
 18 21  1  0  0  0  0
 33 34  1  0  0  0  0
  7  8  1  0  0  0  0
 17 18  1  0  0  0  0
  3  4  1  0  0  0  0
  3  5  1  0  0  0  0
  3  6  1  0  0  0  0
 37 40  1  0  0  0  0
 37 41  1  0  0  0  0
 37 42  1  0  0  0  0
 11 14  1  0  0  0  0
 11 15  1  0  0  0  0
 11 16  1  0  0  0  0
 44 46  1  0  0  0  0
 44 47  1  0  0  0  0
 44 48  1  0  0  0  0
 22 30  1  0  0  0  0
 22 31  1  0  0  0  0
 21 28  1  0  0  0  0
 21 29  1  0  0  0  0
 34 39  1  0  0  0  0
  8 13  1  0  0  0  0
 18 27  1  0  0  0  0
 43 45  1  0  0  0  0
  7 12  1  0  0  0  0
 33 38  1  0  0  0  0
 17 26  1  0  0  0  0
 25 32  1  0  0  0  0
M  END
$$$$

  -OEChem-05262214473D

 48 47  0     1  0  0  0  0  0999 V2000
   -5.5827   -1.3473    1.4591 C   0  0  0  0  0  0  0  0  0  0  0  0
   -5.7053   -2.4696    0.9825 O   0  0  0  0  0  0  0  0  0  0  0  0
   -6.7879   -0.6277    1.9670 C   0  0  0  0  0  0  0  0  0  0  0  0
   -7.2718   -0.0164    1.1885 H   0  0  0  0  0  0  0  0  0  0  0  0
   -7.5699   -1.3171    2.3239 H   0  0  0  0  0  0  0  0  0  0  0  0
   -6.6057    0.0628    2.8060 H   0  0  0  0  0  0  0  0  0  0  0  0
   -4.4001   -0.6377    1.5884 N   0  0  0  0  0  0  0  0  0  0  0  0
   -3.1220   -1.1455    1.1644 C   0  0  2  0  0  0  0  0  0  0  0  0
   -2.2017    0.0428    0.9187 C   0  0  0  0  0  0  0  0  0  0  0  0
   -2.6171    1.1750    0.6807 O   0  0  0  0  0  0  0  0  0  0  0  0
   -3.2533   -1.9992   -0.0873 C   0  0  0  0  0  0  0  0  0  0  0  0
   -4.4370    0.2910    2.0047 H   0  0  0  0  0  0  0  0  0  0  0  0
   -2.7302   -1.7467    1.9921 H   0  0  0  0  0  0  0  0  0  0  0  0
   -3.6446   -1.4140   -0.9275 H   0  0  0  0  0  0  0  0  0  0  0  0
   -2.2844   -2.4081   -0.3922 H   0  0  0  0  0  0  0  0  0  0  0  0
   -3.9388   -2.8365    0.0822 H   0  0  0  0  0  0  0  0  0  0  0  0
   -0.8768   -0.3314    0.9568 N   0  0  0  0  0  0  0  0  0  0  0  0
    0.2067    0.6285    0.7375 C   0  0  2  0  0  0  0  0  0  0  0  0
    0.2333    0.9132   -0.7611 C   0  0  0  0  0  0  0  0  0  0  0  0
   -0.1325    0.0890   -1.5968 O   0  0  0  0  0  0  0  0  0  0  0  0
    1.5274    0.0266    1.2402 C   0  0  0  0  0  0  0  0  0  0  0  0
    1.5760   -0.1615    2.7564 C   0  0  0  0  0  0  0  0  0  0  0  0
    2.8775   -0.7763    3.2072 C   0  0  0  0  0  0  0  0  0  0  0  0
    3.7332   -1.1991    2.4403 O   0  0  0  0  0  0  0  0  0  0  0  0
    2.9925   -0.8371    4.5569 O   0  0  0  0  0  0  0  0  0  0  0  0
   -0.6087   -1.2764    1.1771 H   0  0  0  0  0  0  0  0  0  0  0  0
   -0.0219    1.5418    1.2966 H   0  0  0  0  0  0  0  0  0  0  0  0
    1.6894   -0.9452    0.7552 H   0  0  0  0  0  0  0  0  0  0  0  0
    2.3703    0.6668    0.9481 H   0  0  0  0  0  0  0  0  0  0  0  0
    1.4972    0.8139    3.2519 H   0  0  0  0  0  0  0  0  0  0  0  0
    0.7265   -0.7465    3.1240 H   0  0  0  0  0  0  0  0  0  0  0  0
    3.8176   -1.2478    4.8922 H   0  0  0  0  0  0  0  0  0  0  0  0
    0.6817    2.1940   -1.0481 N   0  0  0  0  0  0  0  0  0  0  0  0
    0.7983    2.7096   -2.3932 C   0  0  2  0  0  0  0  0  0  0  0  0
    2.2269    2.4735   -2.8651 C   0  0  0  0  0  0  0  0  0  0  0  0
    3.1707    2.3153   -2.0935 O   0  0  0  0  0  0  0  0  0  0  0  0
    0.4435    4.1872   -2.4521 C   0  0  0  0  0  0  0  0  0  0  0  0
    0.9408    2.7993   -0.2749 H   0  0  0  0  0  0  0  0  0  0  0  0
    0.1072    2.1301   -3.0150 H   0  0  0  0  0  0  0  0  0  0  0  0
    1.1252    4.7839   -1.8350 H   0  0  0  0  0  0  0  0  0  0  0  0
    0.5047    4.5694   -3.4764 H   0  0  0  0  0  0  0  0  0  0  0  0
   -0.5739    4.3587   -2.0843 H   0  0  0  0  0  0  0  0  0  0  0  0
    2.3312    2.5033   -4.2487 N   0  0  0  0  0  0  0  0  0  0  0  0
    3.5855    2.3180   -4.9403 C   0  0  0  0  0  0  0  0  0  0  0  0
    1.4932    2.6214   -4.8105 H   0  0  0  0  0  0  0  0  0  0  0  0
    4.0529    3.2971   -5.1217 H   0  0  0  0  0  0  0  0  0  0  0  0
    4.2558    1.7004   -4.3244 H   0  0  0  0  0  0  0  0  0  0  0  0
    3.4034    1.8150   -5.9014 H   0  0  0  0  0  0  0  0  0  0  0  0
  1  3  1  0  0  0  0
  1  7  1  0  0  0  0
  1  2  2  0  0  0  0
 34 35  1  0  0  0  0
 35 43  1  0  0  0  0
 35 36  2  0  0  0  0
  8  9  1  0  0  0  0
  9 17  1  0  0  0  0
  9 10  2  0  0  0  0
 18 19  1  0  0  0  0
 19 33  1  0  0  0  0
 19 20  2  0  0  0  0
 22 23  1  0  0  0  0
 23 24  2  0  0  0  0
 23 25  1  0  0  0  0
 34 37  1  0  0  0  0
  8 11  1  0  0  0  0
 43 44  1  0  0  0  0
 21 22  1  0  0  0  0
 18 21  1  0  0  0  0
 33 34  1  0  0  0  0
  7  8  1  0  0  0  0
 17 18  1  0  0  0  0
  3  4  1  0  0  0  0
  3  5  1  0  0  0  0
  3  6  1  0  0  0  0
 37 40  1  0  0  0  0
 37 41  1  0  0  0  0
 37 42  1  0  0  0  0
 11 14  1  0  0  0  0
 11 15  1  0  0  0  0
 11 16  1  0  0  0  0
 44 46  1  0  0  0  0
 44 47  1  0  0  0  0
 44 48  1  0  0  0  0
 22 30  1  0  0  0  0
 22 31  1  0  0  0  0
 21 28  1  0  0  0  0
 21 29  1  0  0  0  0
 34 39  1  0  0  0  0
  8 13  1  0  0  0  0
 18 27  1  0  0  0  0
 43 45  1  0  0  0  0
  7 12  1  0  0  0  0
 33 38  1  0  0  0  0
 17 26  1  0  0  0  0
 25 32  1  0  0  0  0
M  END
$$$$

  -OEChem-05262214473D

 48 47  0     1  0  0  0  0  0999 V2000
   -5.5827   -1.3473    1.4591 C   0  0  0  0  0  0  0  0  0  0  0  0
   -5.7053   -2.4696    0.9825 O   0  0  0  0  0  0  0  0  0  0  0  0
   -6.7879   -0.6277    1.9670 C   0  0  0  0  0  0  0  0  0  0  0  0
   -7.2718   -0.0164    1.1885 H   0  0  0  0  0  0  0  0  0  0  0  0
   -7.5699   -1.3171    2.3239 H   0  0  0  0  0  0  0  0  0  0  0  0
   -6.6057    0.0628    2.8060 H   0  0  0  0  0  0  0  0  0  0  0  0
   -4.4001   -0.6377    1.5884 N   0  0  0  0  0  0  0  0  0  0  0  0
   -3.1220   -1.1455    1.1644 C   0  0  2  0  0  0  0  0  0  0  0  0
   -2.2017    0.0428    0.9187 C   0  0  0  0  0  0  0  0  0  0  0  0
   -2.6171    1.1750    0.6807 O   0  0  0  0  0  0  0  0  0  0  0  0
   -3.2533   -1.9992   -0.0873 C   0  0  0  0  0  0  0  0  0  0  0  0
   -4.4370    0.2910    2.0047 H   0  0  0  0  0  0  0  0  0  0  0  0
   -2.7302   -1.7467    1.9921 H   0  0  0  0  0  0  0  0  0  0  0  0
   -3.6446   -1.4140   -0.9275 H   0  0  0  0  0  0  0  0  0  0  0  0
   -2.2844   -2.4081   -0.3922 H   0  0  0  0  0  0  0  0  0  0  0  0
   -3.9388   -2.8365    0.0822 H   0  0  0  0  0  0  0  0  0  0  0  0
   -0.8768   -0.3314    0.9568 N   0  0  0  0  0  0  0  0  0  0  0  0
    0.2067    0.6285    0.7375 C   0  0  2  0  0  0  0  0  0  0  0  0
    0.2333    0.9132   -0.7611 C   0  0  0  0  0  0  0  0  0  0  0  0
   -0.3696    0.2181   -1.5765 O   0  0  0  0  0  0  0  0  0  0  0  0
    1.5274    0.0266    1.2402 C   0  0  0  0  0  0  0  0  0  0  0  0
    1.5760   -0.1615    2.7564 C   0  0  0  0  0  0  0  0  0  0  0  0
    2.8775   -0.7763    3.2072 C   0  0  0  0  0  0  0  0  0  0  0  0
    3.7332   -1.1991    2.4403 O   0  0  0  0  0  0  0  0  0  0  0  0
    2.9925   -0.8371    4.5569 O   0  0  0  0  0  0  0  0  0  0  0  0
   -0.6087   -1.2764    1.1771 H   0  0  0  0  0  0  0  0  0  0  0  0
   -0.0219    1.5418    1.2966 H   0  0  0  0  0  0  0  0  0  0  0  0
    1.6894   -0.9452    0.7552 H   0  0  0  0  0  0  0  0  0  0  0  0
    2.3703    0.6668    0.9481 H   0  0  0  0  0  0  0  0  0  0  0  0
    1.4972    0.8139    3.2519 H   0  0  0  0  0  0  0  0  0  0  0  0
    0.7265   -0.7465    3.1240 H   0  0  0  0  0  0  0  0  0  0  0  0
    3.8176   -1.2478    4.8922 H   0  0  0  0  0  0  0  0  0  0  0  0
    0.9785    2.0410   -1.0719 N   0  0  0  0  0  0  0  0  0  0  0  0
    1.1581    2.5245   -2.4219 C   0  0  2  0  0  0  0  0  0  0  0  0
    2.4555    1.9382   -2.9627 C   0  0  0  0  0  0  0  0  0  0  0  0
    3.3637    1.5371   -2.2380 O   0  0  0  0  0  0  0  0  0  0  0  0
    1.1884    4.0443   -2.4660 C   0  0  0  0  0  0  0  0  0  0  0  0
    1.4196    2.5522   -0.3133 H   0  0  0  0  0  0  0  0  0  0  0  0
    0.3135    2.1464   -3.0082 H   0  0  0  0  0  0  0  0  0  0  0  0
    2.0281    4.4415   -1.8841 H   0  0  0  0  0  0  0  0  0  0  0  0
    1.2959    4.4094   -3.4927 H   0  0  0  0  0  0  0  0  0  0  0  0
    0.2669    4.4647   -2.0493 H   0  0  0  0  0  0  0  0  0  0  0  0
    2.4977    1.9554   -4.3498 N   0  0  0  0  0  0  0  0  0  0  0  0
    3.6293    1.4649   -5.1015 C   0  0  0  0  0  0  0  0  0  0  0  0
    1.6916    2.2886   -4.8702 H   0  0  0  0  0  0  0  0  0  0  0  0
    4.3211    2.2949   -5.3073 H   0  0  0  0  0  0  0  0  0  0  0  0
    4.1490    0.6906   -4.5181 H   0  0  0  0  0  0  0  0  0  0  0  0
    3.2795    1.0350   -6.0518 H   0  0  0  0  0  0  0  0  0  0  0  0
  1  3  1  0  0  0  0
  1  7  1  0  0  0  0
  1  2  2  0  0  0  0
 34 35  1  0  0  0  0
 35 43  1  0  0  0  0
 35 36  2  0  0  0  0
  8  9  1  0  0  0  0
  9 17  1  0  0  0  0
  9 10  2  0  0  0  0
 18 19  1  0  0  0  0
 19 33  1  0  0  0  0
 19 20  2  0  0  0  0
 22 23  1  0  0  0  0
 23 24  2  0  0  0  0
 23 25  1  0  0  0  0
 34 37  1  0  0  0  0
  8 11  1  0  0  0  0
 43 44  1  0  0  0  0
 21 22  1  0  0  0  0
 18 21  1  0  0  0  0
 33 34  1  0  0  0  0
  7  8  1  0  0  0  0
 17 18  1  0  0  0  0
  3  4  1  0  0  0  0
  3  5  1  0  0  0  0
  3  6  1  0  0  0  0
 37 40  1  0  0  0  0
 37 41  1  0  0  0  0
 37 42  1  0  0  0  0
 11 14  1  0  0  0  0
 11 15  1  0  0  0  0
 11 16  1  0  0  0  0
 44 46  1  0  0  0  0
 44 47  1  0  0  0  0
 44 48  1  0  0  0  0
 22 30  1  0  0  0  0
 22 31  1  0  0  0  0
 21 28  1  0  0  0  0
 21 29  1  0  0  0  0
 34 39  1  0  0  0  0
  8 13  1  0  0  0  0
 18 27  1  0  0  0  0
 43 45  1  0  0  0  0
  7 12  1  0  0  0  0
 33 38  1  0  0  0  0
 17 26  1  0  0  0  0
 25 32  1  0  0  0  0
M  END
$$$$

  -OEChem-05262214473D

 48 47  0     1  0  0  0  0  0999 V2000
   -5.5827   -1.3473    1.4591 C   0  0  0  0  0  0  0  0  0  0  0  0
   -5.7053   -2.4696    0.9825 O   0  0  0  0  0  0  0  0  0  0  0  0
   -6.7879   -0.6277    1.9670 C   0  0  0  0  0  0  0  0  0  0  0  0
   -7.2718   -0.0164    1.1885 H   0  0  0  0  0  0  0  0  0  0  0  0
   -7.5699   -1.3171    2.3239 H   0  0  0  0  0  0  0  0  0  0  0  0
   -6.6057    0.0628    2.8060 H   0  0  0  0  0  0  0  0  0  0  0  0
   -4.4001   -0.6377    1.5884 N   0  0  0  0  0  0  0  0  0  0  0  0
   -3.1220   -1.1455    1.1644 C   0  0  2  0  0  0  0  0  0  0  0  0
   -2.2017    0.0428    0.9187 C   0  0  0  0  0  0  0  0  0  0  0  0
   -2.6171    1.1750    0.6807 O   0  0  0  0  0  0  0  0  0  0  0  0
   -3.2533   -1.9992   -0.0873 C   0  0  0  0  0  0  0  0  0  0  0  0
   -4.4370    0.2910    2.0047 H   0  0  0  0  0  0  0  0  0  0  0  0
   -2.7302   -1.7467    1.9921 H   0  0  0  0  0  0  0  0  0  0  0  0
   -3.6446   -1.4140   -0.9275 H   0  0  0  0  0  0  0  0  0  0  0  0
   -2.2844   -2.4081   -0.3922 H   0  0  0  0  0  0  0  0  0  0  0  0
   -3.9388   -2.8365    0.0822 H   0  0  0  0  0  0  0  0  0  0  0  0
   -0.8768   -0.3314    0.9568 N   0  0  0  0  0  0  0  0  0  0  0  0
    0.2067    0.6285    0.7375 C   0  0  2  0  0  0  0  0  0  0  0  0
   -0.0001    1.1991   -0.6623 C   0  0  0  0  0  0  0  0  0  0  0  0
   -0.9440    0.8692   -1.3775 O   0  0  0  0  0  0  0  0  0  0  0  0
    1.5572   -0.0890    0.8811 C   0  0  0  0  0  0  0  0  0  0  0  0
    1.8462   -0.5701    2.3029 C   0  0  0  0  0  0  0  0  0  0  0  0
    3.1685   -1.2897    2.3973 C   0  0  0  0  0  0  0  0  0  0  0  0
    3.8603   -1.5739    1.4278 O   0  0  0  0  0  0  0  0  0  0  0  0
    3.5022   -1.6149    3.6706 O   0  0  0  0  0  0  0  0  0  0  0  0
   -0.6087   -1.2764    1.1771 H   0  0  0  0  0  0  0  0  0  0  0  0
    0.1249    1.4202    1.4895 H   0  0  0  0  0  0  0  0  0  0  0  0
    1.5824   -0.9511    0.2012 H   0  0  0  0  0  0  0  0  0  0  0  0
    2.3740    0.5769    0.5730 H   0  0  0  0  0  0  0  0  0  0  0  0
    1.9048    0.2916    2.9792 H   0  0  0  0  0  0  0  0  0  0  0  0
    1.0385   -1.1964    2.6956 H   0  0  0  0  0  0  0  0  0  0  0  0
    4.3476   -2.1013    3.7742 H   0  0  0  0  0  0  0  0  0  0  0  0
    0.9687    2.1322   -1.0012 N   0  0  0  0  0  0  0  0  0  0  0  0
    0.9959    2.8196   -2.2722 C   0  0  2  0  0  0  0  0  0  0  0  0
    1.9084    2.0395   -3.2093 C   0  0  0  0  0  0  0  0  0  0  0  0
    2.7840    1.2746   -2.8102 O   0  0  0  0  0  0  0  0  0  0  0  0
    1.4762    4.2540   -2.1152 C   0  0  0  0  0  0  0  0  0  0  0  0
    1.6946    2.3426   -0.3228 H   0  0  0  0  0  0  0  0  0  0  0  0
   -0.0278    2.8046   -2.6619 H   0  0  0  0  0  0  0  0  0  0  0  0
    2.5002    4.2892   -1.7258 H   0  0  0  0  0  0  0  0  0  0  0  0
    1.4691    4.7820   -3.0745 H   0  0  0  0  0  0  0  0  0  0  0  0
    0.8362    4.8052   -1.4178 H   0  0  0  0  0  0  0  0  0  0  0  0
    1.6586    2.3308   -4.5431 N   0  0  0  0  0  0  0  0  0  0  0  0
    2.4013    1.7278   -5.6251 C   0  0  0  0  0  0  0  0  0  0  0  0
    0.9006    2.9629   -4.7830 H   0  0  0  0  0  0  0  0  0  0  0  0
    3.2523    2.3723   -5.8904 H   0  0  0  0  0  0  0  0  0  0  0  0
    2.7727    0.7415   -5.3098 H   0  0  0  0  0  0  0  0  0  0  0  0
    1.7444    1.6097   -6.4995 H   0  0  0  0  0  0  0  0  0  0  0  0
  1  3  1  0  0  0  0
  1  7  1  0  0  0  0
  1  2  2  0  0  0  0
 34 35  1  0  0  0  0
 35 43  1  0  0  0  0
 35 36  2  0  0  0  0
  8  9  1  0  0  0  0
  9 17  1  0  0  0  0
  9 10  2  0  0  0  0
 18 19  1  0  0  0  0
 19 33  1  0  0  0  0
 19 20  2  0  0  0  0
 22 23  1  0  0  0  0
 23 24  2  0  0  0  0
 23 25  1  0  0  0  0
 34 37  1  0  0  0  0
  8 11  1  0  0  0  0
 43 44  1  0  0  0  0
 21 22  1  0  0  0  0
 18 21  1  0  0  0  0
 33 34  1  0  0  0  0
  7  8  1  0  0  0  0
 17 18  1  0  0  0  0
  3  4  1  0  0  0  0
  3  5  1  0  0  0  0
  3  6  1  0  0  0  0
 37 40  1  0  0  0  0
 37 41  1  0  0  0  0
 37 42  1  0  0  0  0
 11 14  1  0  0  0  0
 11 15  1  0  0  0  0
 11 16  1  0  0  0  0
 44 46  1  0  0  0  0
 44 47  1  0  0  0  0
 44 48  1  0  0  0  0
 22 30  1  0  0  0  0
 22 31  1  0  0  0  0
 21 28  1  0  0  0  0
 21 29  1  0  0  0  0
 34 39  1  0  0  0  0
  8 13  1  0  0  0  0
 18 27  1  0  0  0  0
 43 45  1  0  0  0  0
  7 12  1  0  0  0  0
 33 38  1  0  0  0  0
 17 26  1  0  0  0  0
 25 32  1  0  0  0  0
M  END
$$$$

  -OEChem-05262214473D

 48 47  0     1  0  0  0  0  0999 V2000
   -5.5827   -1.3473    1.4591 C   0  0  0  0  0  0  0  0  0  0  0  0
   -5.7053   -2.4696    0.9825 O   0  0  0  0  0  0  0  0  0  0  0  0
   -6.7879   -0.6277    1.9670 C   0  0  0  0  0  0  0  0  0  0  0  0
   -7.2718   -0.0164    1.1885 H   0  0  0  0  0  0  0  0  0  0  0  0
   -7.5699   -1.3171    2.3239 H   0  0  0  0  0  0  0  0  0  0  0  0
   -6.6057    0.0628    2.8060 H   0  0  0  0  0  0  0  0  0  0  0  0
   -4.4001   -0.6377    1.5884 N   0  0  0  0  0  0  0  0  0  0  0  0
   -3.1220   -1.1455    1.1644 C   0  0  2  0  0  0  0  0  0  0  0  0
   -2.2017    0.0428    0.9187 C   0  0  0  0  0  0  0  0  0  0  0  0
   -2.6171    1.1750    0.6807 O   0  0  0  0  0  0  0  0  0  0  0  0
   -3.2533   -1.9992   -0.0873 C   0  0  0  0  0  0  0  0  0  0  0  0
   -4.4370    0.2910    2.0047 H   0  0  0  0  0  0  0  0  0  0  0  0
   -2.7302   -1.7467    1.9921 H   0  0  0  0  0  0  0  0  0  0  0  0
   -3.6446   -1.4140   -0.9275 H   0  0  0  0  0  0  0  0  0  0  0  0
   -2.2844   -2.4081   -0.3922 H   0  0  0  0  0  0  0  0  0  0  0  0
   -3.9388   -2.8365    0.0822 H   0  0  0  0  0  0  0  0  0  0  0  0
   -0.8768   -0.3314    0.9568 N   0  0  0  0  0  0  0  0  0  0  0  0
    0.2067    0.6285    0.7375 C   0  0  2  0  0  0  0  0  0  0  0  0
   -0.0001    1.1991   -0.6623 C   0  0  0  0  0  0  0  0  0  0  0  0
   -1.0625    1.0879   -1.2709 O   0  0  0  0  0  0  0  0  0  0  0  0
    1.5572   -0.0890    0.8811 C   0  0  0  0  0  0  0  0  0  0  0  0
    1.8462   -0.5701    2.3029 C   0  0  0  0  0  0  0  0  0  0  0  0
    3.1685   -1.2897    2.3973 C   0  0  0  0  0  0  0  0  0  0  0  0
    3.8603   -1.5739    1.4278 O   0  0  0  0  0  0  0  0  0  0  0  0
    3.5022   -1.6149    3.6706 O   0  0  0  0  0  0  0  0  0  0  0  0
   -0.6087   -1.2764    1.1771 H   0  0  0  0  0  0  0  0  0  0  0  0
    0.1249    1.4202    1.4895 H   0  0  0  0  0  0  0  0  0  0  0  0
    1.5824   -0.9511    0.2012 H   0  0  0  0  0  0  0  0  0  0  0  0
    2.3740    0.5769    0.5730 H   0  0  0  0  0  0  0  0  0  0  0  0
    1.9048    0.2916    2.9792 H   0  0  0  0  0  0  0  0  0  0  0  0
    1.0385   -1.1964    2.6956 H   0  0  0  0  0  0  0  0  0  0  0  0
    4.3476   -2.1013    3.7742 H   0  0  0  0  0  0  0  0  0  0  0  0
    1.1220    1.8652   -1.1327 N   0  0  0  0  0  0  0  0  0  0  0  0
    1.1820    2.4962   -2.4315 C   0  0  2  0  0  0  0  0  0  0  0  0
    1.7853    1.4988   -3.4116 C   0  0  0  0  0  0  0  0  0  0  0  0
    2.4916    0.5562   -3.0598 O   0  0  0  0  0  0  0  0  0  0  0  0
    2.0002    3.7774   -2.3869 C   0  0  0  0  0  0  0  0  0  0  0  0
    1.9417    1.9117   -0.5350 H   0  0  0  0  0  0  0  0  0  0  0  0
    0.1496    2.7174   -2.7236 H   0  0  0  0  0  0  0  0  0  0  0  0
    3.0376    3.5758   -2.0960 H   0  0  0  0  0  0  0  0  0  0  0  0
    2.0208    4.2692   -3.3650 H   0  0  0  0  0  0  0  0  0  0  0  0
    1.5820    4.4818   -1.6598 H   0  0  0  0  0  0  0  0  0  0  0  0
    1.4778    1.8101   -4.7286 N   0  0  0  0  0  0  0  0  0  0  0  0
    1.9442    1.0218   -5.8454 C   0  0  0  0  0  0  0  0  0  0  0  0
    0.8699    2.5994   -4.9267 H   0  0  0  0  0  0  0  0  0  0  0  0
    2.8918    1.4378   -6.2181 H   0  0  0  0  0  0  0  0  0  0  0  0
    2.1026   -0.0169   -5.5200 H   0  0  0  0  0  0  0  0  0  0  0  0
    1.1931    1.0440   -6.6487 H   0  0  0  0  0  0  0  0  0  0  0  0
  1  3  1  0  0  0  0
  1  7  1  0  0  0  0
  1  2  2  0  0  0  0
 34 35  1  0  0  0  0
 35 43  1  0  0  0  0
 35 36  2  0  0  0  0
  8  9  1  0  0  0  0
  9 17  1  0  0  0  0
  9 10  2  0  0  0  0
 18 19  1  0  0  0  0
 19 33  1  0  0  0  0
 19 20  2  0  0  0  0
 22 23  1  0  0  0  0
 23 24  2  0  0  0  0
 23 25  1  0  0  0  0
 34 37  1  0  0  0  0
  8 11  1  0  0  0  0
 43 44  1  0  0  0  0
 21 22  1  0  0  0  0
 18 21  1  0  0  0  0
 33 34  1  0  0  0  0
  7  8  1  0  0  0  0
 17 18  1  0  0  0  0
  3  4  1  0  0  0  0
  3  5  1  0  0  0  0
  3  6  1  0  0  0  0
 37 40  1  0  0  0  0
 37 41  1  0  0  0  0
 37 42  1  0  0  0  0
 11 14  1  0  0  0  0
 11 15  1  0  0  0  0
 11 16  1  0  0  0  0
 44 46  1  0  0  0  0
 44 47  1  0  0  0  0
 44 48  1  0  0  0  0
 22 30  1  0  0  0  0
 22 31  1  0  0  0  0
 21 28  1  0  0  0  0
 21 29  1  0  0  0  0
 34 39  1  0  0  0  0
  8 13  1  0  0  0  0
 18 27  1  0  0  0  0
 43 45  1  0  0  0  0
  7 12  1  0  0  0  0
 33 38  1  0  0  0  0
 17 26  1  0  0  0  0
 25 32  1  0  0  0  0
M  END
$$$$

  -OEChem-05262214473D

 48 47  0     1  0  0  0  0  0999 V2000
   -5.5827   -1.3473    1.4591 C   0  0  0  0  0  0  0  0  0  0  0  0
   -5.7053   -2.4696    0.9825 O   0  0  0  0  0  0  0  0  0  0  0  0
   -6.7879   -0.6277    1.9670 C   0  0  0  0  0  0  0  0  0  0  0  0
   -7.2718   -0.0164    1.1885 H   0  0  0  0  0  0  0  0  0  0  0  0
   -7.5699   -1.3171    2.3239 H   0  0  0  0  0  0  0  0  0  0  0  0
   -6.6057    0.0628    2.8060 H   0  0  0  0  0  0  0  0  0  0  0  0
   -4.4001   -0.6377    1.5884 N   0  0  0  0  0  0  0  0  0  0  0  0
   -3.1220   -1.1455    1.1644 C   0  0  2  0  0  0  0  0  0  0  0  0
   -2.2017    0.0428    0.9187 C   0  0  0  0  0  0  0  0  0  0  0  0
   -2.6171    1.1750    0.6807 O   0  0  0  0  0  0  0  0  0  0  0  0
   -3.2533   -1.9992   -0.0873 C   0  0  0  0  0  0  0  0  0  0  0  0
   -4.4370    0.2910    2.0047 H   0  0  0  0  0  0  0  0  0  0  0  0
   -2.7302   -1.7467    1.9921 H   0  0  0  0  0  0  0  0  0  0  0  0
   -3.6446   -1.4140   -0.9275 H   0  0  0  0  0  0  0  0  0  0  0  0
   -2.2844   -2.4081   -0.3922 H   0  0  0  0  0  0  0  0  0  0  0  0
   -3.9388   -2.8365    0.0822 H   0  0  0  0  0  0  0  0  0  0  0  0
   -0.8768   -0.3314    0.9568 N   0  0  0  0  0  0  0  0  0  0  0  0
    0.2067    0.6285    0.7375 C   0  0  2  0  0  0  0  0  0  0  0  0
   -0.0001    1.1991   -0.6623 C   0  0  0  0  0  0  0  0  0  0  0  0
   -1.1147    1.3311   -1.1640 O   0  0  0  0  0  0  0  0  0  0  0  0
    1.5572   -0.0890    0.8811 C   0  0  0  0  0  0  0  0  0  0  0  0
    1.8462   -0.5701    2.3029 C   0  0  0  0  0  0  0  0  0  0  0  0
    3.1685   -1.2897    2.3973 C   0  0  0  0  0  0  0  0  0  0  0  0
    3.8603   -1.5739    1.4278 O   0  0  0  0  0  0  0  0  0  0  0  0
    3.5022   -1.6149    3.6706 O   0  0  0  0  0  0  0  0  0  0  0  0
   -0.6087   -1.2764    1.1771 H   0  0  0  0  0  0  0  0  0  0  0  0
    0.1249    1.4202    1.4895 H   0  0  0  0  0  0  0  0  0  0  0  0
    1.5824   -0.9511    0.2012 H   0  0  0  0  0  0  0  0  0  0  0  0
    2.3740    0.5769    0.5730 H   0  0  0  0  0  0  0  0  0  0  0  0
    1.9048    0.2916    2.9792 H   0  0  0  0  0  0  0  0  0  0  0  0
    1.0385   -1.1964    2.6956 H   0  0  0  0  0  0  0  0  0  0  0  0
    4.3476   -2.1013    3.7742 H   0  0  0  0  0  0  0  0  0  0  0  0
    1.1939    1.5663   -1.2651 N   0  0  0  0  0  0  0  0  0  0  0  0
    1.2694    2.1341   -2.5920 C   0  0  2  0  0  0  0  0  0  0  0  0
    1.5185    0.9987   -3.5760 C   0  0  0  0  0  0  0  0  0  0  0  0
    2.0145   -0.0770   -3.2475 O   0  0  0  0  0  0  0  0  0  0  0  0
    2.3668    3.1830   -2.6833 C   0  0  0  0  0  0  0  0  0  0  0  0
    2.0576    1.4293   -0.7488 H   0  0  0  0  0  0  0  0  0  0  0  0
    0.2942    2.5889   -2.7974 H   0  0  0  0  0  0  0  0  0  0  0  0
    3.3514    2.7460   -2.4806 H   0  0  0  0  0  0  0  0  0  0  0  0
    2.4039    3.6326   -3.6811 H   0  0  0  0  0  0  0  0  0  0  0  0
    2.2021    3.9839   -1.9544 H   0  0  0  0  0  0  0  0  0  0  0  0
    1.1615    1.3436   -4.8721 N   0  0  0  0  0  0  0  0  0  0  0  0
    1.3137    0.4408   -5.9891 C   0  0  0  0  0  0  0  0  0  0  0  0
    0.7400    2.2506   -5.0497 H   0  0  0  0  0  0  0  0  0  0  0  0
    2.2900    0.6092   -6.4670 H   0  0  0  0  0  0  0  0  0  0  0  0
    1.2548   -0.5978   -5.6316 H   0  0  0  0  0  0  0  0  0  0  0  0
    0.5117    0.6232   -6.7196 H   0  0  0  0  0  0  0  0  0  0  0  0
  1  3  1  0  0  0  0
  1  7  1  0  0  0  0
  1  2  2  0  0  0  0
 34 35  1  0  0  0  0
 35 43  1  0  0  0  0
 35 36  2  0  0  0  0
  8  9  1  0  0  0  0
  9 17  1  0  0  0  0
  9 10  2  0  0  0  0
 18 19  1  0  0  0  0
 19 33  1  0  0  0  0
 19 20  2  0  0  0  0
 22 23  1  0  0  0  0
 23 24  2  0  0  0  0
 23 25  1  0  0  0  0
 34 37  1  0  0  0  0
  8 11  1  0  0  0  0
 43 44  1  0  0  0  0
 21 22  1  0  0  0  0
 18 21  1  0  0  0  0
 33 34  1  0  0  0  0
  7  8  1  0  0  0  0
 17 18  1  0  0  0  0
  3  4  1  0  0  0  0
  3  5  1  0  0  0  0
  3  6  1  0  0  0  0
 37 40  1  0  0  0  0
 37 41  1  0  0  0  0
 37 42  1  0  0  0  0
 11 14  1  0  0  0  0
 11 15  1  0  0  0  0
 11 16  1  0  0  0  0
 44 46  1  0  0  0  0
 44 47  1  0  0  0  0
 44 48  1  0  0  0  0
 22 30  1  0  0  0  0
 22 31  1  0  0  0  0
 21 28  1  0  0  0  0
 21 29  1  0  0  0  0
 34 39  1  0  0  0  0
  8 13  1  0  0  0  0
 18 27  1  0  0  0  0
 43 45  1  0  0  0  0
  7 12  1  0  0  0  0
 33 38  1  0  0  0  0
 17 26  1  0  0  0  0
 25 32  1  0  0  0  0
M  END
$$$$

  -OEChem-05262214473D

 48 47  0     1  0  0  0  0  0999 V2000
   -5.5827   -1.3473    1.4591 C   0  0  0  0  0  0  0  0  0  0  0  0
   -5.7053   -2.4696    0.9825 O   0  0  0  0  0  0  0  0  0  0  0  0
   -6.7879   -0.6277    1.9670 C   0  0  0  0  0  0  0  0  0  0  0  0
   -7.2718   -0.0164    1.1885 H   0  0  0  0  0  0  0  0  0  0  0  0
   -7.5699   -1.3171    2.3239 H   0  0  0  0  0  0  0  0  0  0  0  0
   -6.6057    0.0628    2.8060 H   0  0  0  0  0  0  0  0  0  0  0  0
   -4.4001   -0.6377    1.5884 N   0  0  0  0  0  0  0  0  0  0  0  0
   -3.1220   -1.1455    1.1644 C   0  0  2  0  0  0  0  0  0  0  0  0
   -2.2017    0.0428    0.9187 C   0  0  0  0  0  0  0  0  0  0  0  0
   -2.6171    1.1750    0.6807 O   0  0  0  0  0  0  0  0  0  0  0  0
   -3.2533   -1.9992   -0.0873 C   0  0  0  0  0  0  0  0  0  0  0  0
   -4.4370    0.2910    2.0047 H   0  0  0  0  0  0  0  0  0  0  0  0
   -2.7302   -1.7467    1.9921 H   0  0  0  0  0  0  0  0  0  0  0  0
   -3.6446   -1.4140   -0.9275 H   0  0  0  0  0  0  0  0  0  0  0  0
   -2.2844   -2.4081   -0.3922 H   0  0  0  0  0  0  0  0  0  0  0  0
   -3.9388   -2.8365    0.0822 H   0  0  0  0  0  0  0  0  0  0  0  0
   -0.8768   -0.3314    0.9568 N   0  0  0  0  0  0  0  0  0  0  0  0
    0.2067    0.6285    0.7375 C   0  0  2  0  0  0  0  0  0  0  0  0
   -0.0001    1.1991   -0.6623 C   0  0  0  0  0  0  0  0  0  0  0  0
   -1.0970    1.5821   -1.0643 O   0  0  0  0  0  0  0  0  0  0  0  0
    1.5572   -0.0890    0.8811 C   0  0  0  0  0  0  0  0  0  0  0  0
    1.8462   -0.5701    2.3029 C   0  0  0  0  0  0  0  0  0  0  0  0
    3.1685   -1.2897    2.3973 C   0  0  0  0  0  0  0  0  0  0  0  0
    3.8603   -1.5739    1.4278 O   0  0  0  0  0  0  0  0  0  0  0  0
    3.5022   -1.6149    3.6706 O   0  0  0  0  0  0  0  0  0  0  0  0
   -0.6087   -1.2764    1.1771 H   0  0  0  0  0  0  0  0  0  0  0  0
    0.1249    1.4202    1.4895 H   0  0  0  0  0  0  0  0  0  0  0  0
    1.5824   -0.9511    0.2012 H   0  0  0  0  0  0  0  0  0  0  0  0
    2.3740    0.5769    0.5730 H   0  0  0  0  0  0  0  0  0  0  0  0
    1.9048    0.2916    2.9792 H   0  0  0  0  0  0  0  0  0  0  0  0
    1.0385   -1.1964    2.6956 H   0  0  0  0  0  0  0  0  0  0  0  0
    4.3476   -2.1013    3.7742 H   0  0  0  0  0  0  0  0  0  0  0  0
    1.1796    1.2558   -1.3896 N   0  0  0  0  0  0  0  0  0  0  0  0
    1.2524    1.7580   -2.7428 C   0  0  2  0  0  0  0  0  0  0  0  0
    1.1260    0.5732   -3.6915 C   0  0  0  0  0  0  0  0  0  0  0  0
    1.3851   -0.5819   -3.3603 O   0  0  0  0  0  0  0  0  0  0  0  0
    2.5511    2.5115   -2.9843 C   0  0  0  0  0  0  0  0  0  0  0  0
    2.0343    0.9284   -0.9495 H   0  0  0  0  0  0  0  0  0  0  0  0
    0.3963    2.4278   -2.8781 H   0  0  0  0  0  0  0  0  0  0  0  0
    3.4202    1.8566   -2.8533 H   0  0  0  0  0  0  0  0  0  0  0  0
    2.5921    2.9157   -4.0011 H   0  0  0  0  0  0  0  0  0  0  0  0
    2.6544    3.3453   -2.2815 H   0  0  0  0  0  0  0  0  0  0  0  0
    0.7314    0.9631   -4.9637 N   0  0  0  0  0  0  0  0  0  0  0  0
    0.5528    0.0243   -6.0465 C   0  0  0  0  0  0  0  0  0  0  0  0
    0.5198    1.9402   -5.1437 H   0  0  0  0  0  0  0  0  0  0  0  0
    1.4879   -0.0570   -6.6200 H   0  0  0  0  0  0  0  0  0  0  0  0
    0.2871   -0.9615   -5.6369 H   0  0  0  0  0  0  0  0  0  0  0  0
   -0.2532    0.3760   -6.7074 H   0  0  0  0  0  0  0  0  0  0  0  0
  1  3  1  0  0  0  0
  1  7  1  0  0  0  0
  1  2  2  0  0  0  0
 34 35  1  0  0  0  0
 35 43  1  0  0  0  0
 35 36  2  0  0  0  0
  8  9  1  0  0  0  0
  9 17  1  0  0  0  0
  9 10  2  0  0  0  0
 18 19  1  0  0  0  0
 19 33  1  0  0  0  0
 19 20  2  0  0  0  0
 22 23  1  0  0  0  0
 23 24  2  0  0  0  0
 23 25  1  0  0  0  0
 34 37  1  0  0  0  0
  8 11  1  0  0  0  0
 43 44  1  0  0  0  0
 21 22  1  0  0  0  0
 18 21  1  0  0  0  0
 33 34  1  0  0  0  0
  7  8  1  0  0  0  0
 17 18  1  0  0  0  0
  3  4  1  0  0  0  0
  3  5  1  0  0  0  0
  3  6  1  0  0  0  0
 37 40  1  0  0  0  0
 37 41  1  0  0  0  0
 37 42  1  0  0  0  0
 11 14  1  0  0  0  0
 11 15  1  0  0  0  0
 11 16  1  0  0  0  0
 44 46  1  0  0  0  0
 44 47  1  0  0  0  0
 44 48  1  0  0  0  0
 22 30  1  0  0  0  0
 22 31  1  0  0  0  0
 21 28  1  0  0  0  0
 21 29  1  0  0  0  0
 34 39  1  0  0  0  0
  8 13  1  0  0  0  0
 18 27  1  0  0  0  0
 43 45  1  0  0  0  0
  7 12  1  0  0  0  0
 33 38  1  0  0  0  0
 17 26  1  0  0  0  0
 25 32  1  0  0  0  0
M  END
$$$$

  -OEChem-05262214473D

 48 47  0     1  0  0  0  0  0999 V2000
   -5.5827   -1.3473    1.4591 C   0  0  0  0  0  0  0  0  0  0  0  0
   -5.7053   -2.4696    0.9825 O   0  0  0  0  0  0  0  0  0  0  0  0
   -6.7879   -0.6277    1.9670 C   0  0  0  0  0  0  0  0  0  0  0  0
   -7.2718   -0.0164    1.1885 H   0  0  0  0  0  0  0  0  0  0  0  0
   -7.5699   -1.3171    2.3239 H   0  0  0  0  0  0  0  0  0  0  0  0
   -6.6057    0.0628    2.8060 H   0  0  0  0  0  0  0  0  0  0  0  0
   -4.4001   -0.6377    1.5884 N   0  0  0  0  0  0  0  0  0  0  0  0
   -3.1220   -1.1455    1.1644 C   0  0  2  0  0  0  0  0  0  0  0  0
   -2.2017    0.0428    0.9187 C   0  0  0  0  0  0  0  0  0  0  0  0
   -2.6171    1.1750    0.6807 O   0  0  0  0  0  0  0  0  0  0  0  0
   -3.2533   -1.9992   -0.0873 C   0  0  0  0  0  0  0  0  0  0  0  0
   -4.4370    0.2910    2.0047 H   0  0  0  0  0  0  0  0  0  0  0  0
   -2.7302   -1.7467    1.9921 H   0  0  0  0  0  0  0  0  0  0  0  0
   -3.6446   -1.4140   -0.9275 H   0  0  0  0  0  0  0  0  0  0  0  0
   -2.2844   -2.4081   -0.3922 H   0  0  0  0  0  0  0  0  0  0  0  0
   -3.9388   -2.8365    0.0822 H   0  0  0  0  0  0  0  0  0  0  0  0
   -0.8768   -0.3314    0.9568 N   0  0  0  0  0  0  0  0  0  0  0  0
    0.2067    0.6285    0.7375 C   0  0  2  0  0  0  0  0  0  0  0  0
   -0.0001    1.1991   -0.6623 C   0  0  0  0  0  0  0  0  0  0  0  0
   -1.0106    1.8238   -0.9785 O   0  0  0  0  0  0  0  0  0  0  0  0
    1.5572   -0.0890    0.8811 C   0  0  0  0  0  0  0  0  0  0  0  0
    1.8462   -0.5701    2.3029 C   0  0  0  0  0  0  0  0  0  0  0  0
    3.1685   -1.2897    2.3973 C   0  0  0  0  0  0  0  0  0  0  0  0
    3.8603   -1.5739    1.4278 O   0  0  0  0  0  0  0  0  0  0  0  0
    3.5022   -1.6149    3.6706 O   0  0  0  0  0  0  0  0  0  0  0  0
   -0.6087   -1.2764    1.1771 H   0  0  0  0  0  0  0  0  0  0  0  0
    0.1249    1.4202    1.4895 H   0  0  0  0  0  0  0  0  0  0  0  0
    1.5824   -0.9511    0.2012 H   0  0  0  0  0  0  0  0  0  0  0  0
    2.3740    0.5769    0.5730 H   0  0  0  0  0  0  0  0  0  0  0  0
    1.9048    0.2916    2.9792 H   0  0  0  0  0  0  0  0  0  0  0  0
    1.0385   -1.1964    2.6956 H   0  0  0  0  0  0  0  0  0  0  0  0
    4.3476   -2.1013    3.7742 H   0  0  0  0  0  0  0  0  0  0  0  0
    1.0801    0.9550   -1.4975 N   0  0  0  0  0  0  0  0  0  0  0  0
    1.1321    1.3934   -2.8737 C   0  0  2  0  0  0  0  0  0  0  0  0
    0.6348    0.2514   -3.7501 C   0  0  0  0  0  0  0  0  0  0  0  0
    0.6463   -0.9241   -3.3907 O   0  0  0  0  0  0  0  0  0  0  0  0
    2.5405    1.8086   -3.2693 C   0  0  0  0  0  0  0  0  0  0  0  0
    1.8734    0.4430   -1.1236 H   0  0  0  0  0  0  0  0  0  0  0  0
    0.4488    2.2452   -2.9603 H   0  0  0  0  0  0  0  0  0  0  0  0
    3.2394    0.9680   -3.1888 H   0  0  0  0  0  0  0  0  0  0  0  0
    2.5727    2.1673   -4.3033 H   0  0  0  0  0  0  0  0  0  0  0  0
    2.9079    2.6096   -2.6188 H   0  0  0  0  0  0  0  0  0  0  0  0
    0.2167    0.6945   -4.9971 N   0  0  0  0  0  0  0  0  0  0  0  0
   -0.2867   -0.1994   -6.0137 C   0  0  0  0  0  0  0  0  0  0  0  0
    0.2243    1.6893   -5.2023 H   0  0  0  0  0  0  0  0  0  0  0  0
    0.5401   -0.5154   -6.6669 H   0  0  0  0  0  0  0  0  0  0  0  0
   -0.7344   -1.0831   -5.5356 H   0  0  0  0  0  0  0  0  0  0  0  0
   -1.0495    0.3193   -6.6129 H   0  0  0  0  0  0  0  0  0  0  0  0
  1  3  1  0  0  0  0
  1  7  1  0  0  0  0
  1  2  2  0  0  0  0
 34 35  1  0  0  0  0
 35 43  1  0  0  0  0
 35 36  2  0  0  0  0
  8  9  1  0  0  0  0
  9 17  1  0  0  0  0
  9 10  2  0  0  0  0
 18 19  1  0  0  0  0
 19 33  1  0  0  0  0
 19 20  2  0  0  0  0
 22 23  1  0  0  0  0
 23 24  2  0  0  0  0
 23 25  1  0  0  0  0
 34 37  1  0  0  0  0
  8 11  1  0  0  0  0
 43 44  1  0  0  0  0
 21 22  1  0  0  0  0
 18 21  1  0  0  0  0
 33 34  1  0  0  0  0
  7  8  1  0  0  0  0
 17 18  1  0  0  0  0
  3  4  1  0  0  0  0
  3  5  1  0  0  0  0
  3  6  1  0  0  0  0
 37 40  1  0  0  0  0
 37 41  1  0  0  0  0
 37 42  1  0  0  0  0
 11 14  1  0  0  0  0
 11 15  1  0  0  0  0
 11 16  1  0  0  0  0
 44 46  1  0  0  0  0
 44 47  1  0  0  0  0
 44 48  1  0  0  0  0
 22 30  1  0  0  0  0
 22 31  1  0  0  0  0
 21 28  1  0  0  0  0
 21 29  1  0  0  0  0
 34 39  1  0  0  0  0
  8 13  1  0  0  0  0
 18 27  1  0  0  0  0
 43 45  1  0  0  0  0
  7 12  1  0  0  0  0
 33 38  1  0  0  0  0
 17 26  1  0  0  0  0
 25 32  1  0  0  0  0
M  END
$$$$

  -OEChem-05262214473D

 48 47  0     1  0  0  0  0  0999 V2000
   -5.5827   -1.3473    1.4591 C   0  0  0  0  0  0  0  0  0  0  0  0
   -5.7053   -2.4696    0.9825 O   0  0  0  0  0  0  0  0  0  0  0  0
   -6.7879   -0.6277    1.9670 C   0  0  0  0  0  0  0  0  0  0  0  0
   -7.2718   -0.0164    1.1885 H   0  0  0  0  0  0  0  0  0  0  0  0
   -7.5699   -1.3171    2.3239 H   0  0  0  0  0  0  0  0  0  0  0  0
   -6.6057    0.0628    2.8060 H   0  0  0  0  0  0  0  0  0  0  0  0
   -4.4001   -0.6377    1.5884 N   0  0  0  0  0  0  0  0  0  0  0  0
   -3.1220   -1.1455    1.1644 C   0  0  2  0  0  0  0  0  0  0  0  0
   -2.2017    0.0428    0.9187 C   0  0  0  0  0  0  0  0  0  0  0  0
   -2.6171    1.1750    0.6807 O   0  0  0  0  0  0  0  0  0  0  0  0
   -3.2533   -1.9992   -0.0873 C   0  0  0  0  0  0  0  0  0  0  0  0
   -4.4370    0.2910    2.0047 H   0  0  0  0  0  0  0  0  0  0  0  0
   -2.7302   -1.7467    1.9921 H   0  0  0  0  0  0  0  0  0  0  0  0
   -3.6446   -1.4140   -0.9275 H   0  0  0  0  0  0  0  0  0  0  0  0
   -2.2844   -2.4081   -0.3922 H   0  0  0  0  0  0  0  0  0  0  0  0
   -3.9388   -2.8365    0.0822 H   0  0  0  0  0  0  0  0  0  0  0  0
   -0.8768   -0.3314    0.9568 N   0  0  0  0  0  0  0  0  0  0  0  0
    0.2067    0.6285    0.7375 C   0  0  2  0  0  0  0  0  0  0  0  0
   -0.0001    1.1991   -0.6623 C   0  0  0  0  0  0  0  0  0  0  0  0
   -0.8615    2.0398   -0.9125 O   0  0  0  0  0  0  0  0  0  0  0  0
    1.5572   -0.0890    0.8811 C   0  0  0  0  0  0  0  0  0  0  0  0
    1.8462   -0.5701    2.3029 C   0  0  0  0  0  0  0  0  0  0  0  0
    3.1685   -1.2897    2.3973 C   0  0  0  0  0  0  0  0  0  0  0  0
    3.8603   -1.5739    1.4278 O   0  0  0  0  0  0  0  0  0  0  0  0
    3.5022   -1.6149    3.6706 O   0  0  0  0  0  0  0  0  0  0  0  0
   -0.6087   -1.2764    1.1771 H   0  0  0  0  0  0  0  0  0  0  0  0
    0.1249    1.4202    1.4895 H   0  0  0  0  0  0  0  0  0  0  0  0
    1.5824   -0.9511    0.2012 H   0  0  0  0  0  0  0  0  0  0  0  0
    2.3740    0.5769    0.5730 H   0  0  0  0  0  0  0  0  0  0  0  0
    1.9048    0.2916    2.9792 H   0  0  0  0  0  0  0  0  0  0  0  0
    1.0385   -1.1964    2.6956 H   0  0  0  0  0  0  0  0  0  0  0  0
    4.3476   -2.1013    3.7742 H   0  0  0  0  0  0  0  0  0  0  0  0
    0.9020    0.6843   -1.5816 N   0  0  0  0  0  0  0  0  0  0  0  0
    0.9165    1.0652   -2.9756 C   0  0  2  0  0  0  0  0  0  0  0  0
    0.0781    0.0551   -3.7479 C   0  0  0  0  0  0  0  0  0  0  0  0
   -0.1515   -1.0802   -3.3365 O   0  0  0  0  0  0  0  0  0  0  0  0
    2.3358    1.1221   -3.5189 C   0  0  0  0  0  0  0  0  0  0  0  0
    1.5859    0.0063   -1.2592 H   0  0  0  0  0  0  0  0  0  0  0  0
    0.4482    2.0535   -3.0383 H   0  0  0  0  0  0  0  0  0  0  0  0
    2.8213    0.1408   -3.4643 H   0  0  0  0  0  0  0  0  0  0  0  0
    2.3470    1.4384   -4.5671 H   0  0  0  0  0  0  0  0  0  0  0  0
    2.9455    1.8270   -2.9434 H   0  0  0  0  0  0  0  0  0  0  0  0
   -0.3475    0.5561   -4.9702 N   0  0  0  0  0  0  0  0  0  0  0  0
   -1.1475   -0.2150   -5.8929 C   0  0  0  0  0  0  0  0  0  0  0  0
   -0.1263    1.5151   -5.2215 H   0  0  0  0  0  0  0  0  0  0  0  0
   -0.4889   -0.7348   -6.6043 H   0  0  0  0  0  0  0  0  0  0  0  0
   -1.7402   -0.9546   -5.3346 H   0  0  0  0  0  0  0  0  0  0  0  0
   -1.8230    0.4570   -6.4425 H   0  0  0  0  0  0  0  0  0  0  0  0
  1  3  1  0  0  0  0
  1  7  1  0  0  0  0
  1  2  2  0  0  0  0
 34 35  1  0  0  0  0
 35 43  1  0  0  0  0
 35 36  2  0  0  0  0
  8  9  1  0  0  0  0
  9 17  1  0  0  0  0
  9 10  2  0  0  0  0
 18 19  1  0  0  0  0
 19 33  1  0  0  0  0
 19 20  2  0  0  0  0
 22 23  1  0  0  0  0
 23 24  2  0  0  0  0
 23 25  1  0  0  0  0
 34 37  1  0  0  0  0
  8 11  1  0  0  0  0
 43 44  1  0  0  0  0
 21 22  1  0  0  0  0
 18 21  1  0  0  0  0
 33 34  1  0  0  0  0
  7  8  1  0  0  0  0
 17 18  1  0  0  0  0
  3  4  1  0  0  0  0
  3  5  1  0  0  0  0
  3  6  1  0  0  0  0
 37 40  1  0  0  0  0
 37 41  1  0  0  0  0
 37 42  1  0  0  0  0
 11 14  1  0  0  0  0
 11 15  1  0  0  0  0
 11 16  1  0  0  0  0
 44 46  1  0  0  0  0
 44 47  1  0  0  0  0
 44 48  1  0  0  0  0
 22 30  1  0  0  0  0
 22 31  1  0  0  0  0
 21 28  1  0  0  0  0
 21 29  1  0  0  0  0
 34 39  1  0  0  0  0
  8 13  1  0  0  0  0
 18 27  1  0  0  0  0
 43 45  1  0  0  0  0
  7 12  1  0  0  0  0
 33 38  1  0  0  0  0
 17 26  1  0  0  0  0
 25 32  1  0  0  0  0
M  END
$$$$

  -OEChem-05262214473D

 48 47  0     1  0  0  0  0  0999 V2000
   -5.5827   -1.3473    1.4591 C   0  0  0  0  0  0  0  0  0  0  0  0
   -5.7053   -2.4696    0.9825 O   0  0  0  0  0  0  0  0  0  0  0  0
   -6.7879   -0.6277    1.9670 C   0  0  0  0  0  0  0  0  0  0  0  0
   -7.2718   -0.0164    1.1885 H   0  0  0  0  0  0  0  0  0  0  0  0
   -7.5699   -1.3171    2.3239 H   0  0  0  0  0  0  0  0  0  0  0  0
   -6.6057    0.0628    2.8060 H   0  0  0  0  0  0  0  0  0  0  0  0
   -4.4001   -0.6377    1.5884 N   0  0  0  0  0  0  0  0  0  0  0  0
   -3.1220   -1.1455    1.1644 C   0  0  2  0  0  0  0  0  0  0  0  0
   -2.2017    0.0428    0.9187 C   0  0  0  0  0  0  0  0  0  0  0  0
   -2.6171    1.1750    0.6807 O   0  0  0  0  0  0  0  0  0  0  0  0
   -3.2533   -1.9992   -0.0873 C   0  0  0  0  0  0  0  0  0  0  0  0
   -4.4370    0.2910    2.0047 H   0  0  0  0  0  0  0  0  0  0  0  0
   -2.7302   -1.7467    1.9921 H   0  0  0  0  0  0  0  0  0  0  0  0
   -3.6446   -1.4140   -0.9275 H   0  0  0  0  0  0  0  0  0  0  0  0
   -2.2844   -2.4081   -0.3922 H   0  0  0  0  0  0  0  0  0  0  0  0
   -3.9388   -2.8365    0.0822 H   0  0  0  0  0  0  0  0  0  0  0  0
   -0.8768   -0.3314    0.9568 N   0  0  0  0  0  0  0  0  0  0  0  0
    0.2067    0.6285    0.7375 C   0  0  2  0  0  0  0  0  0  0  0  0
   -0.0001    1.1991   -0.6623 C   0  0  0  0  0  0  0  0  0  0  0  0
   -0.6598    2.2154   -0.8707 O   0  0  0  0  0  0  0  0  0  0  0  0
    1.5572   -0.0890    0.8811 C   0  0  0  0  0  0  0  0  0  0  0  0
    1.8462   -0.5701    2.3029 C   0  0  0  0  0  0  0  0  0  0  0  0
    3.1685   -1.2897    2.3973 C   0  0  0  0  0  0  0  0  0  0  0  0
    3.8603   -1.5739    1.4278 O   0  0  0  0  0  0  0  0  0  0  0  0
    3.5022   -1.6149    3.6706 O   0  0  0  0  0  0  0  0  0  0  0  0
   -0.6087   -1.2764    1.1771 H   0  0  0  0  0  0  0  0  0  0  0  0
    0.1249    1.4202    1.4895 H   0  0  0  0  0  0  0  0  0  0  0  0
    1.5824   -0.9511    0.2012 H   0  0  0  0  0  0  0  0  0  0  0  0
    2.3740    0.5769    0.5730 H   0  0  0  0  0  0  0  0  0  0  0  0
    1.9048    0.2916    2.9792 H   0  0  0  0  0  0  0  0  0  0  0  0
    1.0385   -1.1964    2.6956 H   0  0  0  0  0  0  0  0  0  0  0  0
    4.3476   -2.1013    3.7742 H   0  0  0  0  0  0  0  0  0  0  0  0
    0.6576    0.4621   -1.6360 N   0  0  0  0  0  0  0  0  0  0  0  0
    0.6206    0.7958   -3.0417 C   0  0  2  0  0  0  0  0  0  0  0  0
   -0.5059   -0.0022   -3.6850 C   0  0  0  0  0  0  0  0  0  0  0  0
   -0.9540   -1.0397   -3.2015 O   0  0  0  0  0  0  0  0  0  0  0  0
    1.9509    0.4988   -3.7161 C   0  0  0  0  0  0  0  0  0  0  0  0
    1.1913   -0.3521   -1.3470 H   0  0  0  0  0  0  0  0  0  0  0  0
    0.3945    1.8657   -3.1070 H   0  0  0  0  0  0  0  0  0  0  0  0
    2.1944   -0.5685   -3.6608 H   0  0  0  0  0  0  0  0  0  0  0  0
    1.9304    0.7787   -4.7745 H   0  0  0  0  0  0  0  0  0  0  0  0
    2.7645    1.0507   -3.2331 H   0  0  0  0  0  0  0  0  0  0  0  0
   -0.9227    0.5573   -4.8848 N   0  0  0  0  0  0  0  0  0  0  0  0
   -1.9709   -0.0214   -5.6924 C   0  0  0  0  0  0  0  0  0  0  0  0
   -0.5083    1.4294   -5.2000 H   0  0  0  0  0  0  0  0  0  0  0  0
   -1.5288   -0.7001   -6.4366 H   0  0  0  0  0  0  0  0  0  0  0  0
   -2.6618   -0.5845   -5.0477 H   0  0  0  0  0  0  0  0  0  0  0  0
   -2.5210    0.7796   -6.2079 H   0  0  0  0  0  0  0  0  0  0  0  0
  1  3  1  0  0  0  0
  1  7  1  0  0  0  0
  1  2  2  0  0  0  0
 34 35  1  0  0  0  0
 35 43  1  0  0  0  0
 35 36  2  0  0  0  0
  8  9  1  0  0  0  0
  9 17  1  0  0  0  0
  9 10  2  0  0  0  0
 18 19  1  0  0  0  0
 19 33  1  0  0  0  0
 19 20  2  0  0  0  0
 22 23  1  0  0  0  0
 23 24  2  0  0  0  0
 23 25  1  0  0  0  0
 34 37  1  0  0  0  0
  8 11  1  0  0  0  0
 43 44  1  0  0  0  0
 21 22  1  0  0  0  0
 18 21  1  0  0  0  0
 33 34  1  0  0  0  0
  7  8  1  0  0  0  0
 17 18  1  0  0  0  0
  3  4  1  0  0  0  0
  3  5  1  0  0  0  0
  3  6  1  0  0  0  0
 37 40  1  0  0  0  0
 37 41  1  0  0  0  0
 37 42  1  0  0  0  0
 11 14  1  0  0  0  0
 11 15  1  0  0  0  0
 11 16  1  0  0  0  0
 44 46  1  0  0  0  0
 44 47  1  0  0  0  0
 44 48  1  0  0  0  0
 22 30  1  0  0  0  0
 22 31  1  0  0  0  0
 21 28  1  0  0  0  0
 21 29  1  0  0  0  0
 34 39  1  0  0  0  0
  8 13  1  0  0  0  0
 18 27  1  0  0  0  0
 43 45  1  0  0  0  0
  7 12  1  0  0  0  0
 33 38  1  0  0  0  0
 17 26  1  0  0  0  0
 25 32  1  0  0  0  0
M  END
$$$$

  -OEChem-05262214473D

 48 47  0     1  0  0  0  0  0999 V2000
   -5.5827   -1.3473    1.4591 C   0  0  0  0  0  0  0  0  0  0  0  0
   -5.7053   -2.4696    0.9825 O   0  0  0  0  0  0  0  0  0  0  0  0
   -6.7879   -0.6277    1.9670 C   0  0  0  0  0  0  0  0  0  0  0  0
   -7.2718   -0.0164    1.1885 H   0  0  0  0  0  0  0  0  0  0  0  0
   -7.5699   -1.3171    2.3239 H   0  0  0  0  0  0  0  0  0  0  0  0
   -6.6057    0.0628    2.8060 H   0  0  0  0  0  0  0  0  0  0  0  0
   -4.4001   -0.6377    1.5884 N   0  0  0  0  0  0  0  0  0  0  0  0
   -3.1220   -1.1455    1.1644 C   0  0  2  0  0  0  0  0  0  0  0  0
   -2.2017    0.0428    0.9187 C   0  0  0  0  0  0  0  0  0  0  0  0
   -2.6171    1.1750    0.6807 O   0  0  0  0  0  0  0  0  0  0  0  0
   -3.2533   -1.9992   -0.0873 C   0  0  0  0  0  0  0  0  0  0  0  0
   -4.4370    0.2910    2.0047 H   0  0  0  0  0  0  0  0  0  0  0  0
   -2.7302   -1.7467    1.9921 H   0  0  0  0  0  0  0  0  0  0  0  0
   -3.6446   -1.4140   -0.9275 H   0  0  0  0  0  0  0  0  0  0  0  0
   -2.2844   -2.4081   -0.3922 H   0  0  0  0  0  0  0  0  0  0  0  0
   -3.9388   -2.8365    0.0822 H   0  0  0  0  0  0  0  0  0  0  0  0
   -0.8768   -0.3314    0.9568 N   0  0  0  0  0  0  0  0  0  0  0  0
    0.2067    0.6285    0.7375 C   0  0  2  0  0  0  0  0  0  0  0  0
   -0.0001    1.1991   -0.6623 C   0  0  0  0  0  0  0  0  0  0  0  0
   -0.4192    2.3385   -0.8561 O   0  0  0  0  0  0  0  0  0  0  0  0
    1.5572   -0.0890    0.8811 C   0  0  0  0  0  0  0  0  0  0  0  0
    1.8462   -0.5701    2.3029 C   0  0  0  0  0  0  0  0  0  0  0  0
    3.1685   -1.2897    2.3973 C   0  0  0  0  0  0  0  0  0  0  0  0
    3.8603   -1.5739    1.4278 O   0  0  0  0  0  0  0  0  0  0  0  0
    3.5022   -1.6149    3.6706 O   0  0  0  0  0  0  0  0  0  0  0  0
   -0.6087   -1.2764    1.1771 H   0  0  0  0  0  0  0  0  0  0  0  0
    0.1249    1.4202    1.4895 H   0  0  0  0  0  0  0  0  0  0  0  0
    1.5824   -0.9511    0.2012 H   0  0  0  0  0  0  0  0  0  0  0  0
    2.3740    0.5769    0.5730 H   0  0  0  0  0  0  0  0  0  0  0  0
    1.9048    0.2916    2.9792 H   0  0  0  0  0  0  0  0  0  0  0  0
    1.0385   -1.1964    2.6956 H   0  0  0  0  0  0  0  0  0  0  0  0
    4.3476   -2.1013    3.7742 H   0  0  0  0  0  0  0  0  0  0  0  0
    0.3634    0.3036   -1.6572 N   0  0  0  0  0  0  0  0  0  0  0  0
    0.2643    0.6035   -3.0675 C   0  0  2  0  0  0  0  0  0  0  0  0
   -1.0776    0.0833   -3.5657 C   0  0  0  0  0  0  0  0  0  0  0  0
   -1.7064   -0.8053   -2.9948 O   0  0  0  0  0  0  0  0  0  0  0  0
    1.4120   -0.0187   -3.8475 C   0  0  0  0  0  0  0  0  0  0  0  0
    0.7166   -0.6076   -1.3810 H   0  0  0  0  0  0  0  0  0  0  0  0
    0.2914    1.6946   -3.1615 H   0  0  0  0  0  0  0  0  0  0  0  0
    1.4013   -1.1117   -3.7651 H   0  0  0  0  0  0  0  0  0  0  0  0
    1.3512    0.2331   -4.9114 H   0  0  0  0  0  0  0  0  0  0  0  0
    2.3773    0.3337   -3.4682 H   0  0  0  0  0  0  0  0  0  0  0  0
   -1.4697    0.6981   -4.7466 N   0  0  0  0  0  0  0  0  0  0  0  0
   -2.7009    0.3681   -5.4258 C   0  0  0  0  0  0  0  0  0  0  0  0
   -0.8954    1.4381   -5.1393 H   0  0  0  0  0  0  0  0  0  0  0  0
   -2.5087   -0.4138   -6.1752 H   0  0  0  0  0  0  0  0  0  0  0  0
   -3.4363    0.0019   -4.6942 H   0  0  0  0  0  0  0  0  0  0  0  0
   -3.0959    1.2652   -5.9250 H   0  0  0  0  0  0  0  0  0  0  0  0
  1  3  1  0  0  0  0
  1  7  1  0  0  0  0
  1  2  2  0  0  0  0
 34 35  1  0  0  0  0
 35 43  1  0  0  0  0
 35 36  2  0  0  0  0
  8  9  1  0  0  0  0
  9 17  1  0  0  0  0
  9 10  2  0  0  0  0
 18 19  1  0  0  0  0
 19 33  1  0  0  0  0
 19 20  2  0  0  0  0
 22 23  1  0  0  0  0
 23 24  2  0  0  0  0
 23 25  1  0  0  0  0
 34 37  1  0  0  0  0
  8 11  1  0  0  0  0
 43 44  1  0  0  0  0
 21 22  1  0  0  0  0
 18 21  1  0  0  0  0
 33 34  1  0  0  0  0
  7  8  1  0  0  0  0
 17 18  1  0  0  0  0
  3  4  1  0  0  0  0
  3  5  1  0  0  0  0
  3  6  1  0  0  0  0
 37 40  1  0  0  0  0
 37 41  1  0  0  0  0
 37 42  1  0  0  0  0
 11 14  1  0  0  0  0
 11 15  1  0  0  0  0
 11 16  1  0  0  0  0
 44 46  1  0  0  0  0
 44 47  1  0  0  0  0
 44 48  1  0  0  0  0
 22 30  1  0  0  0  0
 22 31  1  0  0  0  0
 21 28  1  0  0  0  0
 21 29  1  0  0  0  0
 34 39  1  0  0  0  0
  8 13  1  0  0  0  0
 18 27  1  0  0  0  0
 43 45  1  0  0  0  0
  7 12  1  0  0  0  0
 33 38  1  0  0  0  0
 17 26  1  0  0  0  0
 25 32  1  0  0  0  0
M  END
$$$$

  -OEChem-05262214473D

 48 47  0     1  0  0  0  0  0999 V2000
   -5.5827   -1.3473    1.4591 C   0  0  0  0  0  0  0  0  0  0  0  0
   -5.7053   -2.4696    0.9825 O   0  0  0  0  0  0  0  0  0  0  0  0
   -6.7879   -0.6277    1.9670 C   0  0  0  0  0  0  0  0  0  0  0  0
   -7.2718   -0.0164    1.1885 H   0  0  0  0  0  0  0  0  0  0  0  0
   -7.5699   -1.3171    2.3239 H   0  0  0  0  0  0  0  0  0  0  0  0
   -6.6057    0.0628    2.8060 H   0  0  0  0  0  0  0  0  0  0  0  0
   -4.4001   -0.6377    1.5884 N   0  0  0  0  0  0  0  0  0  0  0  0
   -3.1220   -1.1455    1.1644 C   0  0  2  0  0  0  0  0  0  0  0  0
   -2.2017    0.0428    0.9187 C   0  0  0  0  0  0  0  0  0  0  0  0
   -2.6171    1.1750    0.6807 O   0  0  0  0  0  0  0  0  0  0  0  0
   -3.2533   -1.9992   -0.0873 C   0  0  0  0  0  0  0  0  0  0  0  0
   -4.4370    0.2910    2.0047 H   0  0  0  0  0  0  0  0  0  0  0  0
   -2.7302   -1.7467    1.9921 H   0  0  0  0  0  0  0  0  0  0  0  0
   -3.6446   -1.4140   -0.9275 H   0  0  0  0  0  0  0  0  0  0  0  0
   -2.2844   -2.4081   -0.3922 H   0  0  0  0  0  0  0  0  0  0  0  0
   -3.9388   -2.8365    0.0822 H   0  0  0  0  0  0  0  0  0  0  0  0
   -0.8768   -0.3314    0.9568 N   0  0  0  0  0  0  0  0  0  0  0  0
    0.2067    0.6285    0.7375 C   0  0  2  0  0  0  0  0  0  0  0  0
   -0.0001    1.1991   -0.6623 C   0  0  0  0  0  0  0  0  0  0  0  0
   -0.1562    2.4009   -0.8695 O   0  0  0  0  0  0  0  0  0  0  0  0
    1.5572   -0.0890    0.8811 C   0  0  0  0  0  0  0  0  0  0  0  0
    1.8462   -0.5701    2.3029 C   0  0  0  0  0  0  0  0  0  0  0  0
    3.1685   -1.2897    2.3973 C   0  0  0  0  0  0  0  0  0  0  0  0
    3.8603   -1.5739    1.4278 O   0  0  0  0  0  0  0  0  0  0  0  0
    3.5022   -1.6149    3.6706 O   0  0  0  0  0  0  0  0  0  0  0  0
   -0.6087   -1.2764    1.1771 H   0  0  0  0  0  0  0  0  0  0  0  0
    0.1249    1.4202    1.4895 H   0  0  0  0  0  0  0  0  0  0  0  0
    1.5824   -0.9511    0.2012 H   0  0  0  0  0  0  0  0  0  0  0  0
    2.3740    0.5769    0.5730 H   0  0  0  0  0  0  0  0  0  0  0  0
    1.9048    0.2916    2.9792 H   0  0  0  0  0  0  0  0  0  0  0  0
    1.0385   -1.1964    2.6956 H   0  0  0  0  0  0  0  0  0  0  0  0
    4.3476   -2.1013    3.7742 H   0  0  0  0  0  0  0  0  0  0  0  0
    0.0397    0.2197   -1.6436 N   0  0  0  0  0  0  0  0  0  0  0  0
   -0.1279    0.5015   -3.0511 C   0  0  2  0  0  0  0  0  0  0  0  0
   -1.5979    0.3059   -3.3981 C   0  0  0  0  0  0  0  0  0  0  0  0
   -2.3575   -0.3930   -2.7305 O   0  0  0  0  0  0  0  0  0  0  0  0
    0.7559   -0.3952   -3.9040 C   0  0  0  0  0  0  0  0  0  0  0  0
    0.1941   -0.7429   -1.3590 H   0  0  0  0  0  0  0  0  0  0  0  0
    0.1460    1.5519   -3.1982 H   0  0  0  0  0  0  0  0  0  0  0  0
    0.4962   -1.4517   -3.7700 H   0  0  0  0  0  0  0  0  0  0  0  0
    0.6490   -0.1611   -4.9684 H   0  0  0  0  0  0  0  0  0  0  0  0
    1.8102   -0.2751   -3.6326 H   0  0  0  0  0  0  0  0  0  0  0  0
   -1.9514    0.9688   -4.5651 N   0  0  0  0  0  0  0  0  0  0  0  0
   -3.2878    0.9271   -5.1112 C   0  0  0  0  0  0  0  0  0  0  0  0
   -1.2615    1.5406   -5.0435 H   0  0  0  0  0  0  0  0  0  0  0  0
   -3.3621    0.1046   -5.8378 H   0  0  0  0  0  0  0  0  0  0  0  0
   -4.0110    0.7646   -4.2984 H   0  0  0  0  0  0  0  0  0  0  0  0
   -3.5085    1.8807   -5.6132 H   0  0  0  0  0  0  0  0  0  0  0  0
  1  3  1  0  0  0  0
  1  7  1  0  0  0  0
  1  2  2  0  0  0  0
 34 35  1  0  0  0  0
 35 43  1  0  0  0  0
 35 36  2  0  0  0  0
  8  9  1  0  0  0  0
  9 17  1  0  0  0  0
  9 10  2  0  0  0  0
 18 19  1  0  0  0  0
 19 33  1  0  0  0  0
 19 20  2  0  0  0  0
 22 23  1  0  0  0  0
 23 24  2  0  0  0  0
 23 25  1  0  0  0  0
 34 37  1  0  0  0  0
  8 11  1  0  0  0  0
 43 44  1  0  0  0  0
 21 22  1  0  0  0  0
 18 21  1  0  0  0  0
 33 34  1  0  0  0  0
  7  8  1  0  0  0  0
 17 18  1  0  0  0  0
  3  4  1  0  0  0  0
  3  5  1  0  0  0  0
  3  6  1  0  0  0  0
 37 40  1  0  0  0  0
 37 41  1  0  0  0  0
 37 42  1  0  0  0  0
 11 14  1  0  0  0  0
 11 15  1  0  0  0  0
 11 16  1  0  0  0  0
 44 46  1  0  0  0  0
 44 47  1  0  0  0  0
 44 48  1  0  0  0  0
 22 30  1  0  0  0  0
 22 31  1  0  0  0  0
 21 28  1  0  0  0  0
 21 29  1  0  0  0  0
 34 39  1  0  0  0  0
  8 13  1  0  0  0  0
 18 27  1  0  0  0  0
 43 45  1  0  0  0  0
  7 12  1  0  0  0  0
 33 38  1  0  0  0  0
 17 26  1  0  0  0  0
 25 32  1  0  0  0  0
M  END
$$$$

  -OEChem-05262214473D

 48 47  0     1  0  0  0  0  0999 V2000
   -5.5827   -1.3473    1.4591 C   0  0  0  0  0  0  0  0  0  0  0  0
   -5.7053   -2.4696    0.9825 O   0  0  0  0  0  0  0  0  0  0  0  0
   -6.7879   -0.6277    1.9670 C   0  0  0  0  0  0  0  0  0  0  0  0
   -7.2718   -0.0164    1.1885 H   0  0  0  0  0  0  0  0  0  0  0  0
   -7.5699   -1.3171    2.3239 H   0  0  0  0  0  0  0  0  0  0  0  0
   -6.6057    0.0628    2.8060 H   0  0  0  0  0  0  0  0  0  0  0  0
   -4.4001   -0.6377    1.5884 N   0  0  0  0  0  0  0  0  0  0  0  0
   -3.1220   -1.1455    1.1644 C   0  0  2  0  0  0  0  0  0  0  0  0
   -2.2017    0.0428    0.9187 C   0  0  0  0  0  0  0  0  0  0  0  0
   -2.6171    1.1750    0.6807 O   0  0  0  0  0  0  0  0  0  0  0  0
   -3.2533   -1.9992   -0.0873 C   0  0  0  0  0  0  0  0  0  0  0  0
   -4.4370    0.2910    2.0047 H   0  0  0  0  0  0  0  0  0  0  0  0
   -2.7302   -1.7467    1.9921 H   0  0  0  0  0  0  0  0  0  0  0  0
   -3.6446   -1.4140   -0.9275 H   0  0  0  0  0  0  0  0  0  0  0  0
   -2.2844   -2.4081   -0.3922 H   0  0  0  0  0  0  0  0  0  0  0  0
   -3.9388   -2.8365    0.0822 H   0  0  0  0  0  0  0  0  0  0  0  0
   -0.8768   -0.3314    0.9568 N   0  0  0  0  0  0  0  0  0  0  0  0
    0.2067    0.6285    0.7375 C   0  0  2  0  0  0  0  0  0  0  0  0
   -0.0001    1.1991   -0.6623 C   0  0  0  0  0  0  0  0  0  0  0  0
    0.1114    2.3981   -0.9101 O   0  0  0  0  0  0  0  0  0  0  0  0
    1.5572   -0.0890    0.8811 C   0  0  0  0  0  0  0  0  0  0  0  0
    1.8462   -0.5701    2.3029 C   0  0  0  0  0  0  0  0  0  0  0  0
    3.1685   -1.2897    2.3973 C   0  0  0  0  0  0  0  0  0  0  0  0
    3.8603   -1.5739    1.4278 O   0  0  0  0  0  0  0  0  0  0  0  0
    3.5022   -1.6149    3.6706 O   0  0  0  0  0  0  0  0  0  0  0  0
   -0.6087   -1.2764    1.1771 H   0  0  0  0  0  0  0  0  0  0  0  0
    0.1249    1.4202    1.4895 H   0  0  0  0  0  0  0  0  0  0  0  0
    1.5824   -0.9511    0.2012 H   0  0  0  0  0  0  0  0  0  0  0  0
    2.3740    0.5769    0.5730 H   0  0  0  0  0  0  0  0  0  0  0  0
    1.9048    0.2916    2.9792 H   0  0  0  0  0  0  0  0  0  0  0  0
    1.0385   -1.1964    2.6956 H   0  0  0  0  0  0  0  0  0  0  0  0
    4.3476   -2.1013    3.7742 H   0  0  0  0  0  0  0  0  0  0  0  0
   -0.2917    0.2159   -1.5962 N   0  0  0  0  0  0  0  0  0  0  0  0
   -0.5295    0.4967   -2.9938 C   0  0  2  0  0  0  0  0  0  0  0  0
   -2.0315    0.6503   -3.1937 C   0  0  0  0  0  0  0  0  0  0  0  0
   -2.8629    0.1692   -2.4267 O   0  0  0  0  0  0  0  0  0  0  0  0
    0.0272   -0.6051   -3.8820 C   0  0  0  0  0  0  0  0  0  0  0  0
   -0.3405   -0.7487   -1.2824 H   0  0  0  0  0  0  0  0  0  0  0  0
   -0.0320    1.4473   -3.2145 H   0  0  0  0  0  0  0  0  0  0  0  0
   -0.4593   -1.5654   -3.6752 H   0  0  0  0  0  0  0  0  0  0  0  0
   -0.1284   -0.3772   -4.9416 H   0  0  0  0  0  0  0  0  0  0  0  0
    1.1021   -0.7344   -3.7152 H   0  0  0  0  0  0  0  0  0  0  0  0
   -2.3347    1.3510   -4.3527 N   0  0  0  0  0  0  0  0  0  0  0  0
   -3.6914    1.6174   -4.7702 C   0  0  0  0  0  0  0  0  0  0  0  0
   -1.5815    1.7299   -4.9191 H   0  0  0  0  0  0  0  0  0  0  0  0
   -4.0305    0.8198   -5.4475 H   0  0  0  0  0  0  0  0  0  0  0  0
   -4.3466    1.6517   -3.8873 H   0  0  0  0  0  0  0  0  0  0  0  0
   -3.7307    2.5841   -5.2936 H   0  0  0  0  0  0  0  0  0  0  0  0
  1  3  1  0  0  0  0
  1  7  1  0  0  0  0
  1  2  2  0  0  0  0
 34 35  1  0  0  0  0
 35 43  1  0  0  0  0
 35 36  2  0  0  0  0
  8  9  1  0  0  0  0
  9 17  1  0  0  0  0
  9 10  2  0  0  0  0
 18 19  1  0  0  0  0
 19 33  1  0  0  0  0
 19 20  2  0  0  0  0
 22 23  1  0  0  0  0
 23 24  2  0  0  0  0
 23 25  1  0  0  0  0
 34 37  1  0  0  0  0
  8 11  1  0  0  0  0
 43 44  1  0  0  0  0
 21 22  1  0  0  0  0
 18 21  1  0  0  0  0
 33 34  1  0  0  0  0
  7  8  1  0  0  0  0
 17 18  1  0  0  0  0
  3  4  1  0  0  0  0
  3  5  1  0  0  0  0
  3  6  1  0  0  0  0
 37 40  1  0  0  0  0
 37 41  1  0  0  0  0
 37 42  1  0  0  0  0
 11 14  1  0  0  0  0
 11 15  1  0  0  0  0
 11 16  1  0  0  0  0
 44 46  1  0  0  0  0
 44 47  1  0  0  0  0
 44 48  1  0  0  0  0
 22 30  1  0  0  0  0
 22 31  1  0  0  0  0
 21 28  1  0  0  0  0
 21 29  1  0  0  0  0
 34 39  1  0  0  0  0
  8 13  1  0  0  0  0
 18 27  1  0  0  0  0
 43 45  1  0  0  0  0
  7 12  1  0  0  0  0
 33 38  1  0  0  0  0
 17 26  1  0  0  0  0
 25 32  1  0  0  0  0
M  END
$$$$

  -OEChem-05262214473D

 48 47  0     1  0  0  0  0  0999 V2000
   -5.5827   -1.3473    1.4591 C   0  0  0  0  0  0  0  0  0  0  0  0
   -5.7053   -2.4696    0.9825 O   0  0  0  0  0  0  0  0  0  0  0  0
   -6.7879   -0.6277    1.9670 C   0  0  0  0  0  0  0  0  0  0  0  0
   -7.2718   -0.0164    1.1885 H   0  0  0  0  0  0  0  0  0  0  0  0
   -7.5699   -1.3171    2.3239 H   0  0  0  0  0  0  0  0  0  0  0  0
   -6.6057    0.0628    2.8060 H   0  0  0  0  0  0  0  0  0  0  0  0
   -4.4001   -0.6377    1.5884 N   0  0  0  0  0  0  0  0  0  0  0  0
   -3.1220   -1.1455    1.1644 C   0  0  2  0  0  0  0  0  0  0  0  0
   -2.2017    0.0428    0.9187 C   0  0  0  0  0  0  0  0  0  0  0  0
   -2.6171    1.1750    0.6807 O   0  0  0  0  0  0  0  0  0  0  0  0
   -3.2533   -1.9992   -0.0873 C   0  0  0  0  0  0  0  0  0  0  0  0
   -4.4370    0.2910    2.0047 H   0  0  0  0  0  0  0  0  0  0  0  0
   -2.7302   -1.7467    1.9921 H   0  0  0  0  0  0  0  0  0  0  0  0
   -3.6446   -1.4140   -0.9275 H   0  0  0  0  0  0  0  0  0  0  0  0
   -2.2844   -2.4081   -0.3922 H   0  0  0  0  0  0  0  0  0  0  0  0
   -3.9388   -2.8365    0.0822 H   0  0  0  0  0  0  0  0  0  0  0  0
   -0.8768   -0.3314    0.9568 N   0  0  0  0  0  0  0  0  0  0  0  0
    0.2067    0.6285    0.7375 C   0  0  2  0  0  0  0  0  0  0  0  0
   -0.0001    1.1991   -0.6623 C   0  0  0  0  0  0  0  0  0  0  0  0
    0.3652    2.3305   -0.9752 O   0  0  0  0  0  0  0  0  0  0  0  0
    1.5572   -0.0890    0.8811 C   0  0  0  0  0  0  0  0  0  0  0  0
    1.8462   -0.5701    2.3029 C   0  0  0  0  0  0  0  0  0  0  0  0
    3.1685   -1.2897    2.3973 C   0  0  0  0  0  0  0  0  0  0  0  0
    3.8603   -1.5739    1.4278 O   0  0  0  0  0  0  0  0  0  0  0  0
    3.5022   -1.6149    3.6706 O   0  0  0  0  0  0  0  0  0  0  0  0
   -0.6087   -1.2764    1.1771 H   0  0  0  0  0  0  0  0  0  0  0  0
    0.1249    1.4202    1.4895 H   0  0  0  0  0  0  0  0  0  0  0  0
    1.5824   -0.9511    0.2012 H   0  0  0  0  0  0  0  0  0  0  0  0
    2.3740    0.5769    0.5730 H   0  0  0  0  0  0  0  0  0  0  0  0
    1.9048    0.2916    2.9792 H   0  0  0  0  0  0  0  0  0  0  0  0
    1.0385   -1.1964    2.6956 H   0  0  0  0  0  0  0  0  0  0  0  0
    4.3476   -2.1013    3.7742 H   0  0  0  0  0  0  0  0  0  0  0  0
   -0.6081    0.2927   -1.5182 N   0  0  0  0  0  0  0  0  0  0  0  0
   -0.9129    0.5894   -2.8994 C   0  0  2  0  0  0  0  0  0  0  0  0
   -2.3487    1.0930   -2.9664 C   0  0  0  0  0  0  0  0  0  0  0  0
   -3.1882    0.8428   -2.1041 O   0  0  0  0  0  0  0  0  0  0  0  0
   -0.7243   -0.6341   -3.7828 C   0  0  0  0  0  0  0  0  0  0  0  0
   -0.8510   -0.6247   -1.1564 H   0  0  0  0  0  0  0  0  0  0  0  0
   -0.2303    1.3880   -3.2094 H   0  0  0  0  0  0  0  0  0  0  0  0
   -1.4000   -1.4450   -3.4872 H   0  0  0  0  0  0  0  0  0  0  0  0
   -0.9281   -0.4004   -4.8330 H   0  0  0  0  0  0  0  0  0  0  0  0
    0.3009   -1.0127   -3.7104 H   0  0  0  0  0  0  0  0  0  0  0  0
   -2.5937    1.8187   -4.1238 N   0  0  0  0  0  0  0  0  0  0  0  0
   -3.8844    2.3921   -4.4259 C   0  0  0  0  0  0  0  0  0  0  0  0
   -1.8335    1.9930   -4.7745 H   0  0  0  0  0  0  0  0  0  0  0  0
   -4.4686    1.6831   -5.0309 H   0  0  0  0  0  0  0  0  0  0  0  0
   -4.4204    2.6027   -3.4887 H   0  0  0  0  0  0  0  0  0  0  0  0
   -3.7473    3.3276   -4.9881 H   0  0  0  0  0  0  0  0  0  0  0  0
  1  3  1  0  0  0  0
  1  7  1  0  0  0  0
  1  2  2  0  0  0  0
 34 35  1  0  0  0  0
 35 43  1  0  0  0  0
 35 36  2  0  0  0  0
  8  9  1  0  0  0  0
  9 17  1  0  0  0  0
  9 10  2  0  0  0  0
 18 19  1  0  0  0  0
 19 33  1  0  0  0  0
 19 20  2  0  0  0  0
 22 23  1  0  0  0  0
 23 24  2  0  0  0  0
 23 25  1  0  0  0  0
 34 37  1  0  0  0  0
  8 11  1  0  0  0  0
 43 44  1  0  0  0  0
 21 22  1  0  0  0  0
 18 21  1  0  0  0  0
 33 34  1  0  0  0  0
  7  8  1  0  0  0  0
 17 18  1  0  0  0  0
  3  4  1  0  0  0  0
  3  5  1  0  0  0  0
  3  6  1  0  0  0  0
 37 40  1  0  0  0  0
 37 41  1  0  0  0  0
 37 42  1  0  0  0  0
 11 14  1  0  0  0  0
 11 15  1  0  0  0  0
 11 16  1  0  0  0  0
 44 46  1  0  0  0  0
 44 47  1  0  0  0  0
 44 48  1  0  0  0  0
 22 30  1  0  0  0  0
 22 31  1  0  0  0  0
 21 28  1  0  0  0  0
 21 29  1  0  0  0  0
 34 39  1  0  0  0  0
  8 13  1  0  0  0  0
 18 27  1  0  0  0  0
 43 45  1  0  0  0  0
  7 12  1  0  0  0  0
 33 38  1  0  0  0  0
 17 26  1  0  0  0  0
 25 32  1  0  0  0  0
M  END
$$$$

  -OEChem-05262214473D

 48 47  0     1  0  0  0  0  0999 V2000
   -5.5827   -1.3473    1.4591 C   0  0  0  0  0  0  0  0  0  0  0  0
   -5.7053   -2.4696    0.9825 O   0  0  0  0  0  0  0  0  0  0  0  0
   -6.7879   -0.6277    1.9670 C   0  0  0  0  0  0  0  0  0  0  0  0
   -7.2718   -0.0164    1.1885 H   0  0  0  0  0  0  0  0  0  0  0  0
   -7.5699   -1.3171    2.3239 H   0  0  0  0  0  0  0  0  0  0  0  0
   -6.6057    0.0628    2.8060 H   0  0  0  0  0  0  0  0  0  0  0  0
   -4.4001   -0.6377    1.5884 N   0  0  0  0  0  0  0  0  0  0  0  0
   -3.1220   -1.1455    1.1644 C   0  0  2  0  0  0  0  0  0  0  0  0
   -2.2017    0.0428    0.9187 C   0  0  0  0  0  0  0  0  0  0  0  0
   -2.6171    1.1750    0.6807 O   0  0  0  0  0  0  0  0  0  0  0  0
   -3.2533   -1.9992   -0.0873 C   0  0  0  0  0  0  0  0  0  0  0  0
   -4.4370    0.2910    2.0047 H   0  0  0  0  0  0  0  0  0  0  0  0
   -2.7302   -1.7467    1.9921 H   0  0  0  0  0  0  0  0  0  0  0  0
   -3.6446   -1.4140   -0.9275 H   0  0  0  0  0  0  0  0  0  0  0  0
   -2.2844   -2.4081   -0.3922 H   0  0  0  0  0  0  0  0  0  0  0  0
   -3.9388   -2.8365    0.0822 H   0  0  0  0  0  0  0  0  0  0  0  0
   -0.8768   -0.3314    0.9568 N   0  0  0  0  0  0  0  0  0  0  0  0
    0.2067    0.6285    0.7375 C   0  0  2  0  0  0  0  0  0  0  0  0
   -0.0001    1.1991   -0.6623 C   0  0  0  0  0  0  0  0  0  0  0  0
    0.5881    2.2027   -1.0602 O   0  0  0  0  0  0  0  0  0  0  0  0
    1.5572   -0.0890    0.8811 C   0  0  0  0  0  0  0  0  0  0  0  0
    1.8462   -0.5701    2.3029 C   0  0  0  0  0  0  0  0  0  0  0  0
    3.1685   -1.2897    2.3973 C   0  0  0  0  0  0  0  0  0  0  0  0
    3.8603   -1.5739    1.4278 O   0  0  0  0  0  0  0  0  0  0  0  0
    3.5022   -1.6149    3.6706 O   0  0  0  0  0  0  0  0  0  0  0  0
   -0.6087   -1.2764    1.1771 H   0  0  0  0  0  0  0  0  0  0  0  0
    0.1249    1.4202    1.4895 H   0  0  0  0  0  0  0  0  0  0  0  0
    1.5824   -0.9511    0.2012 H   0  0  0  0  0  0  0  0  0  0  0  0
    2.3740    0.5769    0.5730 H   0  0  0  0  0  0  0  0  0  0  0  0
    1.9048    0.2916    2.9792 H   0  0  0  0  0  0  0  0  0  0  0  0
    1.0385   -1.1964    2.6956 H   0  0  0  0  0  0  0  0  0  0  0  0
    4.3476   -2.1013    3.7742 H   0  0  0  0  0  0  0  0  0  0  0  0
   -0.8879    0.4446   -1.4149 N   0  0  0  0  0  0  0  0  0  0  0  0
   -1.2522    0.7733   -2.7743 C   0  0  2  0  0  0  0  0  0  0  0  0
   -2.5279    1.6040   -2.7316 C   0  0  0  0  0  0  0  0  0  0  0  0
   -3.3113    1.5821   -1.7845 O   0  0  0  0  0  0  0  0  0  0  0  0
   -1.4475   -0.4801   -3.6132 C   0  0  0  0  0  0  0  0  0  0  0  0
   -1.3024   -0.3793   -0.9897 H   0  0  0  0  0  0  0  0  0  0  0  0
   -0.4354    1.3780   -3.1832 H   0  0  0  0  0  0  0  0  0  0  0  0
   -2.2619   -1.0987   -3.2187 H   0  0  0  0  0  0  0  0  0  0  0  0
   -1.6955   -0.2290   -4.6498 H   0  0  0  0  0  0  0  0  0  0  0  0
   -0.5385   -1.0912   -3.6184 H   0  0  0  0  0  0  0  0  0  0  0  0
   -2.7106    2.3399   -3.8940 N   0  0  0  0  0  0  0  0  0  0  0  0
   -3.8535    3.1982   -4.1019 C   0  0  0  0  0  0  0  0  0  0  0  0
   -2.0005    2.3122   -4.6198 H   0  0  0  0  0  0  0  0  0  0  0  0
   -4.6465    2.6356   -4.6164 H   0  0  0  0  0  0  0  0  0  0  0  0
   -4.2272    3.5527   -3.1300 H   0  0  0  0  0  0  0  0  0  0  0  0
   -3.5573    4.0603   -4.7175 H   0  0  0  0  0  0  0  0  0  0  0  0
  1  3  1  0  0  0  0
  1  7  1  0  0  0  0
  1  2  2  0  0  0  0
 34 35  1  0  0  0  0
 35 43  1  0  0  0  0
 35 36  2  0  0  0  0
  8  9  1  0  0  0  0
  9 17  1  0  0  0  0
  9 10  2  0  0  0  0
 18 19  1  0  0  0  0
 19 33  1  0  0  0  0
 19 20  2  0  0  0  0
 22 23  1  0  0  0  0
 23 24  2  0  0  0  0
 23 25  1  0  0  0  0
 34 37  1  0  0  0  0
  8 11  1  0  0  0  0
 43 44  1  0  0  0  0
 21 22  1  0  0  0  0
 18 21  1  0  0  0  0
 33 34  1  0  0  0  0
  7  8  1  0  0  0  0
 17 18  1  0  0  0  0
  3  4  1  0  0  0  0
  3  5  1  0  0  0  0
  3  6  1  0  0  0  0
 37 40  1  0  0  0  0
 37 41  1  0  0  0  0
 37 42  1  0  0  0  0
 11 14  1  0  0  0  0
 11 15  1  0  0  0  0
 11 16  1  0  0  0  0
 44 46  1  0  0  0  0
 44 47  1  0  0  0  0
 44 48  1  0  0  0  0
 22 30  1  0  0  0  0
 22 31  1  0  0  0  0
 21 28  1  0  0  0  0
 21 29  1  0  0  0  0
 34 39  1  0  0  0  0
  8 13  1  0  0  0  0
 18 27  1  0  0  0  0
 43 45  1  0  0  0  0
  7 12  1  0  0  0  0
 33 38  1  0  0  0  0
 17 26  1  0  0  0  0
 25 32  1  0  0  0  0
M  END
$$$$

  -OEChem-05262214473D

 48 47  0     1  0  0  0  0  0999 V2000
   -5.5827   -1.3473    1.4591 C   0  0  0  0  0  0  0  0  0  0  0  0
   -5.7053   -2.4696    0.9825 O   0  0  0  0  0  0  0  0  0  0  0  0
   -6.7879   -0.6277    1.9670 C   0  0  0  0  0  0  0  0  0  0  0  0
   -7.2718   -0.0164    1.1885 H   0  0  0  0  0  0  0  0  0  0  0  0
   -7.5699   -1.3171    2.3239 H   0  0  0  0  0  0  0  0  0  0  0  0
   -6.6057    0.0628    2.8060 H   0  0  0  0  0  0  0  0  0  0  0  0
   -4.4001   -0.6377    1.5884 N   0  0  0  0  0  0  0  0  0  0  0  0
   -3.1220   -1.1455    1.1644 C   0  0  2  0  0  0  0  0  0  0  0  0
   -2.2017    0.0428    0.9187 C   0  0  0  0  0  0  0  0  0  0  0  0
   -2.6171    1.1750    0.6807 O   0  0  0  0  0  0  0  0  0  0  0  0
   -3.2533   -1.9992   -0.0873 C   0  0  0  0  0  0  0  0  0  0  0  0
   -4.4370    0.2910    2.0047 H   0  0  0  0  0  0  0  0  0  0  0  0
   -2.7302   -1.7467    1.9921 H   0  0  0  0  0  0  0  0  0  0  0  0
   -3.6446   -1.4140   -0.9275 H   0  0  0  0  0  0  0  0  0  0  0  0
   -2.2844   -2.4081   -0.3922 H   0  0  0  0  0  0  0  0  0  0  0  0
   -3.9388   -2.8365    0.0822 H   0  0  0  0  0  0  0  0  0  0  0  0
   -0.8768   -0.3314    0.9568 N   0  0  0  0  0  0  0  0  0  0  0  0
    0.2067    0.6285    0.7375 C   0  0  2  0  0  0  0  0  0  0  0  0
   -0.0001    1.1991   -0.6623 C   0  0  0  0  0  0  0  0  0  0  0  0
    0.7648    2.0233   -1.1595 O   0  0  0  0  0  0  0  0  0  0  0  0
    1.5572   -0.0890    0.8811 C   0  0  0  0  0  0  0  0  0  0  0  0
    1.8462   -0.5701    2.3029 C   0  0  0  0  0  0  0  0  0  0  0  0
    3.1685   -1.2897    2.3973 C   0  0  0  0  0  0  0  0  0  0  0  0
    3.8603   -1.5739    1.4278 O   0  0  0  0  0  0  0  0  0  0  0  0
    3.5022   -1.6149    3.6706 O   0  0  0  0  0  0  0  0  0  0  0  0
   -0.6087   -1.2764    1.1771 H   0  0  0  0  0  0  0  0  0  0  0  0
    0.1249    1.4202    1.4895 H   0  0  0  0  0  0  0  0  0  0  0  0
    1.5824   -0.9511    0.2012 H   0  0  0  0  0  0  0  0  0  0  0  0
    2.3740    0.5769    0.5730 H   0  0  0  0  0  0  0  0  0  0  0  0
    1.9048    0.2916    2.9792 H   0  0  0  0  0  0  0  0  0  0  0  0
    1.0385   -1.1964    2.6956 H   0  0  0  0  0  0  0  0  0  0  0  0
    4.3476   -2.1013    3.7742 H   0  0  0  0  0  0  0  0  0  0  0  0
   -1.1121    0.6615   -1.2933 N   0  0  0  0  0  0  0  0  0  0  0  0
   -1.5241    1.0358   -2.6271 C   0  0  2  0  0  0  0  0  0  0  0  0
   -2.5570    2.1484   -2.5054 C   0  0  0  0  0  0  0  0  0  0  0  0
   -3.2236    2.3367   -1.4899 O   0  0  0  0  0  0  0  0  0  0  0  0
   -2.0931   -0.1536   -3.3848 C   0  0  0  0  0  0  0  0  0  0  0  0
   -1.6640   -0.0292   -0.7936 H   0  0  0  0  0  0  0  0  0  0  0  0
   -0.6334    1.4179   -3.1377 H   0  0  0  0  0  0  0  0  0  0  0  0
   -2.9862   -0.5501   -2.8881 H   0  0  0  0  0  0  0  0  0  0  0  0
   -2.3783    0.1251   -4.4045 H   0  0  0  0  0  0  0  0  0  0  0  0
   -1.3591   -0.9644   -3.4455 H   0  0  0  0  0  0  0  0  0  0  0  0
   -2.6776    2.8793   -3.6791 N   0  0  0  0  0  0  0  0  0  0  0  0
   -3.6009    3.9809   -3.8201 C   0  0  0  0  0  0  0  0  0  0  0  0
   -2.0711    2.6655   -4.4653 H   0  0  0  0  0  0  0  0  0  0  0  0
   -4.5519    3.6124   -4.2322 H   0  0  0  0  0  0  0  0  0  0  0  0
   -3.7803    4.4371   -2.8354 H   0  0  0  0  0  0  0  0  0  0  0  0
   -3.1736    4.7325   -4.5002 H   0  0  0  0  0  0  0  0  0  0  0  0
  1  3  1  0  0  0  0
  1  7  1  0  0  0  0
  1  2  2  0  0  0  0
 34 35  1  0  0  0  0
 35 43  1  0  0  0  0
 35 36  2  0  0  0  0
  8  9  1  0  0  0  0
  9 17  1  0  0  0  0
  9 10  2  0  0  0  0
 18 19  1  0  0  0  0
 19 33  1  0  0  0  0
 19 20  2  0  0  0  0
 22 23  1  0  0  0  0
 23 24  2  0  0  0  0
 23 25  1  0  0  0  0
 34 37  1  0  0  0  0
  8 11  1  0  0  0  0
 43 44  1  0  0  0  0
 21 22  1  0  0  0  0
 18 21  1  0  0  0  0
 33 34  1  0  0  0  0
  7  8  1  0  0  0  0
 17 18  1  0  0  0  0
  3  4  1  0  0  0  0
  3  5  1  0  0  0  0
  3  6  1  0  0  0  0
 37 40  1  0  0  0  0
 37 41  1  0  0  0  0
 37 42  1  0  0  0  0
 11 14  1  0  0  0  0
 11 15  1  0  0  0  0
 11 16  1  0  0  0  0
 44 46  1  0  0  0  0
 44 47  1  0  0  0  0
 44 48  1  0  0  0  0
 22 30  1  0  0  0  0
 22 31  1  0  0  0  0
 21 28  1  0  0  0  0
 21 29  1  0  0  0  0
 34 39  1  0  0  0  0
  8 13  1  0  0  0  0
 18 27  1  0  0  0  0
 43 45  1  0  0  0  0
  7 12  1  0  0  0  0
 33 38  1  0  0  0  0
 17 26  1  0  0  0  0
 25 32  1  0  0  0  0
M  END
$$$$

  -OEChem-05262214473D

 48 47  0     1  0  0  0  0  0999 V2000
   -5.5827   -1.3473    1.4591 C   0  0  0  0  0  0  0  0  0  0  0  0
   -5.7053   -2.4696    0.9825 O   0  0  0  0  0  0  0  0  0  0  0  0
   -6.7879   -0.6277    1.9670 C   0  0  0  0  0  0  0  0  0  0  0  0
   -7.2718   -0.0164    1.1885 H   0  0  0  0  0  0  0  0  0  0  0  0
   -7.5699   -1.3171    2.3239 H   0  0  0  0  0  0  0  0  0  0  0  0
   -6.6057    0.0628    2.8060 H   0  0  0  0  0  0  0  0  0  0  0  0
   -4.4001   -0.6377    1.5884 N   0  0  0  0  0  0  0  0  0  0  0  0
   -3.1220   -1.1455    1.1644 C   0  0  2  0  0  0  0  0  0  0  0  0
   -2.2017    0.0428    0.9187 C   0  0  0  0  0  0  0  0  0  0  0  0
   -2.6171    1.1750    0.6807 O   0  0  0  0  0  0  0  0  0  0  0  0
   -3.2533   -1.9992   -0.0873 C   0  0  0  0  0  0  0  0  0  0  0  0
   -4.4370    0.2910    2.0047 H   0  0  0  0  0  0  0  0  0  0  0  0
   -2.7302   -1.7467    1.9921 H   0  0  0  0  0  0  0  0  0  0  0  0
   -3.6446   -1.4140   -0.9275 H   0  0  0  0  0  0  0  0  0  0  0  0
   -2.2844   -2.4081   -0.3922 H   0  0  0  0  0  0  0  0  0  0  0  0
   -3.9388   -2.8365    0.0822 H   0  0  0  0  0  0  0  0  0  0  0  0
   -0.8768   -0.3314    0.9568 N   0  0  0  0  0  0  0  0  0  0  0  0
    0.2067    0.6285    0.7375 C   0  0  2  0  0  0  0  0  0  0  0  0
   -0.0001    1.1991   -0.6623 C   0  0  0  0  0  0  0  0  0  0  0  0
    0.8833    1.8046   -1.2661 O   0  0  0  0  0  0  0  0  0  0  0  0
    1.5572   -0.0890    0.8811 C   0  0  0  0  0  0  0  0  0  0  0  0
    1.8462   -0.5701    2.3029 C   0  0  0  0  0  0  0  0  0  0  0  0
    3.1685   -1.2897    2.3973 C   0  0  0  0  0  0  0  0  0  0  0  0
    3.8603   -1.5739    1.4278 O   0  0  0  0  0  0  0  0  0  0  0  0
    3.5022   -1.6149    3.6706 O   0  0  0  0  0  0  0  0  0  0  0  0
   -0.6087   -1.2764    1.1771 H   0  0  0  0  0  0  0  0  0  0  0  0
    0.1249    1.4202    1.4895 H   0  0  0  0  0  0  0  0  0  0  0  0
    1.5824   -0.9511    0.2012 H   0  0  0  0  0  0  0  0  0  0  0  0
    2.3740    0.5769    0.5730 H   0  0  0  0  0  0  0  0  0  0  0  0
    1.9048    0.2916    2.9792 H   0  0  0  0  0  0  0  0  0  0  0  0
    1.0385   -1.1964    2.6956 H   0  0  0  0  0  0  0  0  0  0  0  0
    4.3476   -2.1013    3.7742 H   0  0  0  0  0  0  0  0  0  0  0  0
   -1.2654    0.9285   -1.1619 N   0  0  0  0  0  0  0  0  0  0  0  0
   -1.7101    1.3592   -2.4678 C   0  0  2  0  0  0  0  0  0  0  0  0
   -2.4339    2.6891   -2.3032 C   0  0  0  0  0  0  0  0  0  0  0  0
   -2.9312    3.0550   -1.2402 O   0  0  0  0  0  0  0  0  0  0  0  0
   -2.6170    0.3230   -3.1131 C   0  0  0  0  0  0  0  0  0  0  0  0
   -1.9111    0.4018   -0.5814 H   0  0  0  0  0  0  0  0  0  0  0  0
   -0.8107    1.5051   -3.0759 H   0  0  0  0  0  0  0  0  0  0  0  0
   -3.5236    0.1634   -2.5179 H   0  0  0  0  0  0  0  0  0  0  0  0
   -2.9300    0.6379   -4.1140 H   0  0  0  0  0  0  0  0  0  0  0  0
   -2.1048   -0.6410   -3.2035 H   0  0  0  0  0  0  0  0  0  0  0  0
   -2.4967    3.3999   -3.4935 N   0  0  0  0  0  0  0  0  0  0  0  0
   -3.1438    4.6868   -3.5999 C   0  0  0  0  0  0  0  0  0  0  0  0
   -2.0404    3.0289   -4.3217 H   0  0  0  0  0  0  0  0  0  0  0  0
   -4.1915    4.5469   -3.9044 H   0  0  0  0  0  0  0  0  0  0  0  0
   -3.1102    5.1956   -2.6253 H   0  0  0  0  0  0  0  0  0  0  0  0
   -2.6223    5.2983   -4.3510 H   0  0  0  0  0  0  0  0  0  0  0  0
  1  3  1  0  0  0  0
  1  7  1  0  0  0  0
  1  2  2  0  0  0  0
 34 35  1  0  0  0  0
 35 43  1  0  0  0  0
 35 36  2  0  0  0  0
  8  9  1  0  0  0  0
  9 17  1  0  0  0  0
  9 10  2  0  0  0  0
 18 19  1  0  0  0  0
 19 33  1  0  0  0  0
 19 20  2  0  0  0  0
 22 23  1  0  0  0  0
 23 24  2  0  0  0  0
 23 25  1  0  0  0  0
 34 37  1  0  0  0  0
  8 11  1  0  0  0  0
 43 44  1  0  0  0  0
 21 22  1  0  0  0  0
 18 21  1  0  0  0  0
 33 34  1  0  0  0  0
  7  8  1  0  0  0  0
 17 18  1  0  0  0  0
  3  4  1  0  0  0  0
  3  5  1  0  0  0  0
  3  6  1  0  0  0  0
 37 40  1  0  0  0  0
 37 41  1  0  0  0  0
 37 42  1  0  0  0  0
 11 14  1  0  0  0  0
 11 15  1  0  0  0  0
 11 16  1  0  0  0  0
 44 46  1  0  0  0  0
 44 47  1  0  0  0  0
 44 48  1  0  0  0  0
 22 30  1  0  0  0  0
 22 31  1  0  0  0  0
 21 28  1  0  0  0  0
 21 29  1  0  0  0  0
 34 39  1  0  0  0  0
  8 13  1  0  0  0  0
 18 27  1  0  0  0  0
 43 45  1  0  0  0  0
  7 12  1  0  0  0  0
 33 38  1  0  0  0  0
 17 26  1  0  0  0  0
 25 32  1  0  0  0  0
M  END
$$$$

  -OEChem-05262214473D

 48 47  0     1  0  0  0  0  0999 V2000
   -5.5827   -1.3473    1.4591 C   0  0  0  0  0  0  0  0  0  0  0  0
   -5.7053   -2.4696    0.9825 O   0  0  0  0  0  0  0  0  0  0  0  0
   -6.7879   -0.6277    1.9670 C   0  0  0  0  0  0  0  0  0  0  0  0
   -7.2718   -0.0164    1.1885 H   0  0  0  0  0  0  0  0  0  0  0  0
   -7.5699   -1.3171    2.3239 H   0  0  0  0  0  0  0  0  0  0  0  0
   -6.6057    0.0628    2.8060 H   0  0  0  0  0  0  0  0  0  0  0  0
   -4.4001   -0.6377    1.5884 N   0  0  0  0  0  0  0  0  0  0  0  0
   -3.1220   -1.1455    1.1644 C   0  0  2  0  0  0  0  0  0  0  0  0
   -2.2017    0.0428    0.9187 C   0  0  0  0  0  0  0  0  0  0  0  0
   -2.6171    1.1750    0.6807 O   0  0  0  0  0  0  0  0  0  0  0  0
   -3.2533   -1.9992   -0.0873 C   0  0  0  0  0  0  0  0  0  0  0  0
   -4.4370    0.2910    2.0047 H   0  0  0  0  0  0  0  0  0  0  0  0
   -2.7302   -1.7467    1.9921 H   0  0  0  0  0  0  0  0  0  0  0  0
   -3.6446   -1.4140   -0.9275 H   0  0  0  0  0  0  0  0  0  0  0  0
   -2.2844   -2.4081   -0.3922 H   0  0  0  0  0  0  0  0  0  0  0  0
   -3.9388   -2.8365    0.0822 H   0  0  0  0  0  0  0  0  0  0  0  0
   -0.8768   -0.3314    0.9568 N   0  0  0  0  0  0  0  0  0  0  0  0
    0.2067    0.6285    0.7375 C   0  0  2  0  0  0  0  0  0  0  0  0
   -0.0001    1.1991   -0.6623 C   0  0  0  0  0  0  0  0  0  0  0  0
    0.9354    1.5614   -1.3729 O   0  0  0  0  0  0  0  0  0  0  0  0
    1.5572   -0.0890    0.8811 C   0  0  0  0  0  0  0  0  0  0  0  0
    1.8462   -0.5701    2.3029 C   0  0  0  0  0  0  0  0  0  0  0  0
    3.1685   -1.2897    2.3973 C   0  0  0  0  0  0  0  0  0  0  0  0
    3.8603   -1.5739    1.4278 O   0  0  0  0  0  0  0  0  0  0  0  0
    3.5022   -1.6149    3.6706 O   0  0  0  0  0  0  0  0  0  0  0  0
   -0.6087   -1.2764    1.1771 H   0  0  0  0  0  0  0  0  0  0  0  0
    0.1249    1.4202    1.4895 H   0  0  0  0  0  0  0  0  0  0  0  0
    1.5824   -0.9511    0.2012 H   0  0  0  0  0  0  0  0  0  0  0  0
    2.3740    0.5769    0.5730 H   0  0  0  0  0  0  0  0  0  0  0  0
    1.9048    0.2916    2.9792 H   0  0  0  0  0  0  0  0  0  0  0  0
    1.0385   -1.1964    2.6956 H   0  0  0  0  0  0  0  0  0  0  0  0
    4.3476   -2.1013    3.7742 H   0  0  0  0  0  0  0  0  0  0  0  0
   -1.3374    1.2274   -1.0294 N   0  0  0  0  0  0  0  0  0  0  0  0
   -1.7976    1.7213   -2.3073 C   0  0  2  0  0  0  0  0  0  0  0  0
   -2.1670    3.1892   -2.1387 C   0  0  0  0  0  0  0  0  0  0  0  0
   -2.4541    3.6882   -1.0526 O   0  0  0  0  0  0  0  0  0  0  0  0
   -2.9837    0.9173   -2.8167 C   0  0  0  0  0  0  0  0  0  0  0  0
   -2.0270    0.8841   -0.3677 H   0  0  0  0  0  0  0  0  0  0  0  0
   -0.9553    1.6336   -3.0022 H   0  0  0  0  0  0  0  0  0  0  0  0
   -3.8374    0.9931   -2.1333 H   0  0  0  0  0  0  0  0  0  0  0  0
   -3.3131    1.2745   -3.7979 H   0  0  0  0  0  0  0  0  0  0  0  0
   -2.7249   -0.1431   -2.9089 H   0  0  0  0  0  0  0  0  0  0  0  0
   -2.1805    3.8664   -3.3501 N   0  0  0  0  0  0  0  0  0  0  0  0
   -2.5133    5.2678   -3.4562 C   0  0  0  0  0  0  0  0  0  0  0  0
   -1.9105    3.3778   -4.1987 H   0  0  0  0  0  0  0  0  0  0  0  0
   -3.5897    5.3755   -3.6556 H   0  0  0  0  0  0  0  0  0  0  0  0
   -2.2624    5.7765   -2.5137 H   0  0  0  0  0  0  0  0  0  0  0  0
   -1.9409    5.7191   -4.2801 H   0  0  0  0  0  0  0  0  0  0  0  0
  1  3  1  0  0  0  0
  1  7  1  0  0  0  0
  1  2  2  0  0  0  0
 34 35  1  0  0  0  0
 35 43  1  0  0  0  0
 35 36  2  0  0  0  0
  8  9  1  0  0  0  0
  9 17  1  0  0  0  0
  9 10  2  0  0  0  0
 18 19  1  0  0  0  0
 19 33  1  0  0  0  0
 19 20  2  0  0  0  0
 22 23  1  0  0  0  0
 23 24  2  0  0  0  0
 23 25  1  0  0  0  0
 34 37  1  0  0  0  0
  8 11  1  0  0  0  0
 43 44  1  0  0  0  0
 21 22  1  0  0  0  0
 18 21  1  0  0  0  0
 33 34  1  0  0  0  0
  7  8  1  0  0  0  0
 17 18  1  0  0  0  0
  3  4  1  0  0  0  0
  3  5  1  0  0  0  0
  3  6  1  0  0  0  0
 37 40  1  0  0  0  0
 37 41  1  0  0  0  0
 37 42  1  0  0  0  0
 11 14  1  0  0  0  0
 11 15  1  0  0  0  0
 11 16  1  0  0  0  0
 44 46  1  0  0  0  0
 44 47  1  0  0  0  0
 44 48  1  0  0  0  0
 22 30  1  0  0  0  0
 22 31  1  0  0  0  0
 21 28  1  0  0  0  0
 21 29  1  0  0  0  0
 34 39  1  0  0  0  0
  8 13  1  0  0  0  0
 18 27  1  0  0  0  0
 43 45  1  0  0  0  0
  7 12  1  0  0  0  0
 33 38  1  0  0  0  0
 17 26  1  0  0  0  0
 25 32  1  0  0  0  0
M  END
$$$$

  -OEChem-05262214473D

 48 47  0     1  0  0  0  0  0999 V2000
   -5.5827   -1.3473    1.4591 C   0  0  0  0  0  0  0  0  0  0  0  0
   -5.7053   -2.4696    0.9825 O   0  0  0  0  0  0  0  0  0  0  0  0
   -6.7879   -0.6277    1.9670 C   0  0  0  0  0  0  0  0  0  0  0  0
   -7.2718   -0.0164    1.1885 H   0  0  0  0  0  0  0  0  0  0  0  0
   -7.5699   -1.3171    2.3239 H   0  0  0  0  0  0  0  0  0  0  0  0
   -6.6057    0.0628    2.8060 H   0  0  0  0  0  0  0  0  0  0  0  0
   -4.4001   -0.6377    1.5884 N   0  0  0  0  0  0  0  0  0  0  0  0
   -3.1220   -1.1455    1.1644 C   0  0  2  0  0  0  0  0  0  0  0  0
   -2.2017    0.0428    0.9187 C   0  0  0  0  0  0  0  0  0  0  0  0
   -2.6171    1.1750    0.6807 O   0  0  0  0  0  0  0  0  0  0  0  0
   -3.2533   -1.9992   -0.0873 C   0  0  0  0  0  0  0  0  0  0  0  0
   -4.4370    0.2910    2.0047 H   0  0  0  0  0  0  0  0  0  0  0  0
   -2.7302   -1.7467    1.9921 H   0  0  0  0  0  0  0  0  0  0  0  0
   -3.6446   -1.4140   -0.9275 H   0  0  0  0  0  0  0  0  0  0  0  0
   -2.2844   -2.4081   -0.3922 H   0  0  0  0  0  0  0  0  0  0  0  0
   -3.9388   -2.8365    0.0822 H   0  0  0  0  0  0  0  0  0  0  0  0
   -0.8768   -0.3314    0.9568 N   0  0  0  0  0  0  0  0  0  0  0  0
    0.2067    0.6285    0.7375 C   0  0  2  0  0  0  0  0  0  0  0  0
   -0.0001    1.1991   -0.6623 C   0  0  0  0  0  0  0  0  0  0  0  0
    0.9177    1.3104   -1.4726 O   0  0  0  0  0  0  0  0  0  0  0  0
    1.5572   -0.0890    0.8811 C   0  0  0  0  0  0  0  0  0  0  0  0
    1.8462   -0.5701    2.3029 C   0  0  0  0  0  0  0  0  0  0  0  0
    3.1685   -1.2897    2.3973 C   0  0  0  0  0  0  0  0  0  0  0  0
    3.8603   -1.5739    1.4278 O   0  0  0  0  0  0  0  0  0  0  0  0
    3.5022   -1.6149    3.6706 O   0  0  0  0  0  0  0  0  0  0  0  0
   -0.6087   -1.2764    1.1771 H   0  0  0  0  0  0  0  0  0  0  0  0
    0.1249    1.4202    1.4895 H   0  0  0  0  0  0  0  0  0  0  0  0
    1.5824   -0.9511    0.2012 H   0  0  0  0  0  0  0  0  0  0  0  0
    2.3740    0.5769    0.5730 H   0  0  0  0  0  0  0  0  0  0  0  0
    1.9048    0.2916    2.9792 H   0  0  0  0  0  0  0  0  0  0  0  0
    1.0385   -1.1964    2.6956 H   0  0  0  0  0  0  0  0  0  0  0  0
    4.3476   -2.1013    3.7742 H   0  0  0  0  0  0  0  0  0  0  0  0
   -1.3231    1.5378   -0.9050 N   0  0  0  0  0  0  0  0  0  0  0  0
   -1.7806    2.0975   -2.1564 C   0  0  2  0  0  0  0  0  0  0  0  0
   -1.7746    3.6146   -2.0233 C   0  0  0  0  0  0  0  0  0  0  0  0
   -1.8247    4.1931   -0.9398 O   0  0  0  0  0  0  0  0  0  0  0  0
   -3.1680    1.5888   -2.5157 C   0  0  0  0  0  0  0  0  0  0  0  0
   -2.0037    1.3851   -0.1669 H   0  0  0  0  0  0  0  0  0  0  0  0
   -1.0574    1.7946   -2.9215 H   0  0  0  0  0  0  0  0  0  0  0  0
   -3.9062    1.8826   -1.7606 H   0  0  0  0  0  0  0  0  0  0  0  0
   -3.5013    1.9914   -3.4779 H   0  0  0  0  0  0  0  0  0  0  0  0
   -3.1772    0.4955   -2.5818 H   0  0  0  0  0  0  0  0  0  0  0  0
   -1.7504    4.2469   -3.2585 N   0  0  0  0  0  0  0  0  0  0  0  0
   -1.7524    5.6843   -3.3988 C   0  0  0  0  0  0  0  0  0  0  0  0
   -1.6904    3.6882   -4.1047 H   0  0  0  0  0  0  0  0  0  0  0  0
   -2.7875    6.0417   -3.5025 H   0  0  0  0  0  0  0  0  0  0  0  0
   -1.2947    6.1401   -2.5084 H   0  0  0  0  0  0  0  0  0  0  0  0
   -1.1760    5.9662   -4.2923 H   0  0  0  0  0  0  0  0  0  0  0  0
  1  3  1  0  0  0  0
  1  7  1  0  0  0  0
  1  2  2  0  0  0  0
 34 35  1  0  0  0  0
 35 43  1  0  0  0  0
 35 36  2  0  0  0  0
  8  9  1  0  0  0  0
  9 17  1  0  0  0  0
  9 10  2  0  0  0  0
 18 19  1  0  0  0  0
 19 33  1  0  0  0  0
 19 20  2  0  0  0  0
 22 23  1  0  0  0  0
 23 24  2  0  0  0  0
 23 25  1  0  0  0  0
 34 37  1  0  0  0  0
  8 11  1  0  0  0  0
 43 44  1  0  0  0  0
 21 22  1  0  0  0  0
 18 21  1  0  0  0  0
 33 34  1  0  0  0  0
  7  8  1  0  0  0  0
 17 18  1  0  0  0  0
  3  4  1  0  0  0  0
  3  5  1  0  0  0  0
  3  6  1  0  0  0  0
 37 40  1  0  0  0  0
 37 41  1  0  0  0  0
 37 42  1  0  0  0  0
 11 14  1  0  0  0  0
 11 15  1  0  0  0  0
 11 16  1  0  0  0  0
 44 46  1  0  0  0  0
 44 47  1  0  0  0  0
 44 48  1  0  0  0  0
 22 30  1  0  0  0  0
 22 31  1  0  0  0  0
 21 28  1  0  0  0  0
 21 29  1  0  0  0  0
 34 39  1  0  0  0  0
  8 13  1  0  0  0  0
 18 27  1  0  0  0  0
 43 45  1  0  0  0  0
  7 12  1  0  0  0  0
 33 38  1  0  0  0  0
 17 26  1  0  0  0  0
 25 32  1  0  0  0  0
M  END
$$$$

  -OEChem-05262214473D

 48 47  0     1  0  0  0  0  0999 V2000
   -5.5827   -1.3473    1.4591 C   0  0  0  0  0  0  0  0  0  0  0  0
   -5.7053   -2.4696    0.9825 O   0  0  0  0  0  0  0  0  0  0  0  0
   -6.7879   -0.6277    1.9670 C   0  0  0  0  0  0  0  0  0  0  0  0
   -7.2718   -0.0164    1.1885 H   0  0  0  0  0  0  0  0  0  0  0  0
   -7.5699   -1.3171    2.3239 H   0  0  0  0  0  0  0  0  0  0  0  0
   -6.6057    0.0628    2.8060 H   0  0  0  0  0  0  0  0  0  0  0  0
   -4.4001   -0.6377    1.5884 N   0  0  0  0  0  0  0  0  0  0  0  0
   -3.1220   -1.1455    1.1644 C   0  0  2  0  0  0  0  0  0  0  0  0
   -2.2017    0.0428    0.9187 C   0  0  0  0  0  0  0  0  0  0  0  0
   -2.6171    1.1750    0.6807 O   0  0  0  0  0  0  0  0  0  0  0  0
   -3.2533   -1.9992   -0.0873 C   0  0  0  0  0  0  0  0  0  0  0  0
   -4.4370    0.2910    2.0047 H   0  0  0  0  0  0  0  0  0  0  0  0
   -2.7302   -1.7467    1.9921 H   0  0  0  0  0  0  0  0  0  0  0  0
   -3.6446   -1.4140   -0.9275 H   0  0  0  0  0  0  0  0  0  0  0  0
   -2.2844   -2.4081   -0.3922 H   0  0  0  0  0  0  0  0  0  0  0  0
   -3.9388   -2.8365    0.0822 H   0  0  0  0  0  0  0  0  0  0  0  0
   -0.8768   -0.3314    0.9568 N   0  0  0  0  0  0  0  0  0  0  0  0
    0.2067    0.6285    0.7375 C   0  0  2  0  0  0  0  0  0  0  0  0
   -0.0001    1.1991   -0.6623 C   0  0  0  0  0  0  0  0  0  0  0  0
    0.8314    1.0687   -1.5584 O   0  0  0  0  0  0  0  0  0  0  0  0
    1.5572   -0.0890    0.8811 C   0  0  0  0  0  0  0  0  0  0  0  0
    1.8462   -0.5701    2.3029 C   0  0  0  0  0  0  0  0  0  0  0  0
    3.1685   -1.2897    2.3973 C   0  0  0  0  0  0  0  0  0  0  0  0
    3.8603   -1.5739    1.4278 O   0  0  0  0  0  0  0  0  0  0  0  0
    3.5022   -1.6149    3.6706 O   0  0  0  0  0  0  0  0  0  0  0  0
   -0.6087   -1.2764    1.1771 H   0  0  0  0  0  0  0  0  0  0  0  0
    0.1249    1.4202    1.4895 H   0  0  0  0  0  0  0  0  0  0  0  0
    1.5824   -0.9511    0.2012 H   0  0  0  0  0  0  0  0  0  0  0  0
    2.3740    0.5769    0.5730 H   0  0  0  0  0  0  0  0  0  0  0  0
    1.9048    0.2916    2.9792 H   0  0  0  0  0  0  0  0  0  0  0  0
    1.0385   -1.1964    2.6956 H   0  0  0  0  0  0  0  0  0  0  0  0
    4.3476   -2.1013    3.7742 H   0  0  0  0  0  0  0  0  0  0  0  0
   -1.2235    1.8387   -0.7970 N   0  0  0  0  0  0  0  0  0  0  0  0
   -1.6602    2.4621   -2.0256 C   0  0  2  0  0  0  0  0  0  0  0  0
   -1.2834    3.9365   -1.9646 C   0  0  0  0  0  0  0  0  0  0  0  0
   -1.0859    4.5353   -0.9094 O   0  0  0  0  0  0  0  0  0  0  0  0
   -3.1574    2.2918   -2.2307 C   0  0  0  0  0  0  0  0  0  0  0  0
   -1.8428    1.8704    0.0072 H   0  0  0  0  0  0  0  0  0  0  0  0
   -1.1099    1.9772   -2.8393 H   0  0  0  0  0  0  0  0  0  0  0  0
   -3.7254    2.7712   -1.4251 H   0  0  0  0  0  0  0  0  0  0  0  0
   -3.4819    2.7398   -3.1757 H   0  0  0  0  0  0  0  0  0  0  0  0
   -3.4307    1.2312   -2.2445 H   0  0  0  0  0  0  0  0  0  0  0  0
   -1.2357    4.5155   -3.2250 N   0  0  0  0  0  0  0  0  0  0  0  0
   -0.9129    5.9080   -3.4316 C   0  0  0  0  0  0  0  0  0  0  0  0
   -1.3949    3.9390   -4.0461 H   0  0  0  0  0  0  0  0  0  0  0  0
   -1.8397    6.5001   -3.4556 H   0  0  0  0  0  0  0  0  0  0  0  0
   -0.2732    6.2618   -2.6097 H   0  0  0  0  0  0  0  0  0  0  0  0
   -0.3797    6.0229   -4.3868 H   0  0  0  0  0  0  0  0  0  0  0  0
  1  3  1  0  0  0  0
  1  7  1  0  0  0  0
  1  2  2  0  0  0  0
 34 35  1  0  0  0  0
 35 43  1  0  0  0  0
 35 36  2  0  0  0  0
  8  9  1  0  0  0  0
  9 17  1  0  0  0  0
  9 10  2  0  0  0  0
 18 19  1  0  0  0  0
 19 33  1  0  0  0  0
 19 20  2  0  0  0  0
 22 23  1  0  0  0  0
 23 24  2  0  0  0  0
 23 25  1  0  0  0  0
 34 37  1  0  0  0  0
  8 11  1  0  0  0  0
 43 44  1  0  0  0  0
 21 22  1  0  0  0  0
 18 21  1  0  0  0  0
 33 34  1  0  0  0  0
  7  8  1  0  0  0  0
 17 18  1  0  0  0  0
  3  4  1  0  0  0  0
  3  5  1  0  0  0  0
  3  6  1  0  0  0  0
 37 40  1  0  0  0  0
 37 41  1  0  0  0  0
 37 42  1  0  0  0  0
 11 14  1  0  0  0  0
 11 15  1  0  0  0  0
 11 16  1  0  0  0  0
 44 46  1  0  0  0  0
 44 47  1  0  0  0  0
 44 48  1  0  0  0  0
 22 30  1  0  0  0  0
 22 31  1  0  0  0  0
 21 28  1  0  0  0  0
 21 29  1  0  0  0  0
 34 39  1  0  0  0  0
  8 13  1  0  0  0  0
 18 27  1  0  0  0  0
 43 45  1  0  0  0  0
  7 12  1  0  0  0  0
 33 38  1  0  0  0  0
 17 26  1  0  0  0  0
 25 32  1  0  0  0  0
M  END
$$$$

  -OEChem-05262214473D

 48 47  0     1  0  0  0  0  0999 V2000
   -5.5827   -1.3473    1.4591 C   0  0  0  0  0  0  0  0  0  0  0  0
   -5.7053   -2.4696    0.9825 O   0  0  0  0  0  0  0  0  0  0  0  0
   -6.7879   -0.6277    1.9670 C   0  0  0  0  0  0  0  0  0  0  0  0
   -7.2718   -0.0164    1.1885 H   0  0  0  0  0  0  0  0  0  0  0  0
   -7.5699   -1.3171    2.3239 H   0  0  0  0  0  0  0  0  0  0  0  0
   -6.6057    0.0628    2.8060 H   0  0  0  0  0  0  0  0  0  0  0  0
   -4.4001   -0.6377    1.5884 N   0  0  0  0  0  0  0  0  0  0  0  0
   -3.1220   -1.1455    1.1644 C   0  0  2  0  0  0  0  0  0  0  0  0
   -2.2017    0.0428    0.9187 C   0  0  0  0  0  0  0  0  0  0  0  0
   -2.6171    1.1750    0.6807 O   0  0  0  0  0  0  0  0  0  0  0  0
   -3.2533   -1.9992   -0.0873 C   0  0  0  0  0  0  0  0  0  0  0  0
   -4.4370    0.2910    2.0047 H   0  0  0  0  0  0  0  0  0  0  0  0
   -2.7302   -1.7467    1.9921 H   0  0  0  0  0  0  0  0  0  0  0  0
   -3.6446   -1.4140   -0.9275 H   0  0  0  0  0  0  0  0  0  0  0  0
   -2.2844   -2.4081   -0.3922 H   0  0  0  0  0  0  0  0  0  0  0  0
   -3.9388   -2.8365    0.0822 H   0  0  0  0  0  0  0  0  0  0  0  0
   -0.8768   -0.3314    0.9568 N   0  0  0  0  0  0  0  0  0  0  0  0
    0.2067    0.6285    0.7375 C   0  0  2  0  0  0  0  0  0  0  0  0
   -0.0001    1.1991   -0.6623 C   0  0  0  0  0  0  0  0  0  0  0  0
    0.6823    0.8527   -1.6245 O   0  0  0  0  0  0  0  0  0  0  0  0
    1.5572   -0.0890    0.8811 C   0  0  0  0  0  0  0  0  0  0  0  0
    1.8462   -0.5701    2.3029 C   0  0  0  0  0  0  0  0  0  0  0  0
    3.1685   -1.2897    2.3973 C   0  0  0  0  0  0  0  0  0  0  0  0
    3.8603   -1.5739    1.4278 O   0  0  0  0  0  0  0  0  0  0  0  0
    3.5022   -1.6149    3.6706 O   0  0  0  0  0  0  0  0  0  0  0  0
   -0.6087   -1.2764    1.1771 H   0  0  0  0  0  0  0  0  0  0  0  0
    0.1249    1.4202    1.4895 H   0  0  0  0  0  0  0  0  0  0  0  0
    1.5824   -0.9511    0.2012 H   0  0  0  0  0  0  0  0  0  0  0  0
    2.3740    0.5769    0.5730 H   0  0  0  0  0  0  0  0  0  0  0  0
    1.9048    0.2916    2.9792 H   0  0  0  0  0  0  0  0  0  0  0  0
    1.0385   -1.1964    2.6956 H   0  0  0  0  0  0  0  0  0  0  0  0
    4.3476   -2.1013    3.7742 H   0  0  0  0  0  0  0  0  0  0  0  0
   -1.0454    2.1094   -0.7130 N   0  0  0  0  0  0  0  0  0  0  0  0
   -1.4447    2.7903   -1.9236 C   0  0  2  0  0  0  0  0  0  0  0  0
   -0.7267    4.1327   -1.9668 C   0  0  0  0  0  0  0  0  0  0  0  0
   -0.2881    4.6915   -0.9636 O   0  0  0  0  0  0  0  0  0  0  0  0
   -2.9527    2.9783   -1.9811 C   0  0  0  0  0  0  0  0  0  0  0  0
   -1.5553    2.3072    0.1427 H   0  0  0  0  0  0  0  0  0  0  0  0
   -1.1093    2.1690   -2.7612 H   0  0  0  0  0  0  0  0  0  0  0  0
   -3.3073    3.5983   -1.1496 H   0  0  0  0  0  0  0  0  0  0  0  0
   -3.2562    3.4687   -2.9119 H   0  0  0  0  0  0  0  0  0  0  0  0
   -3.4683    2.0138   -1.9199 H   0  0  0  0  0  0  0  0  0  0  0  0
   -0.6715    4.6539   -3.2519 N   0  0  0  0  0  0  0  0  0  0  0  0
   -0.0522    5.9236   -3.5524 C   0  0  0  0  0  0  0  0  0  0  0  0
   -1.0442    4.1132   -4.0269 H   0  0  0  0  0  0  0  0  0  0  0  0
   -0.8108    6.7194   -3.5182 H   0  0  0  0  0  0  0  0  0  0  0  0
    0.7326    6.1332   -2.8106 H   0  0  0  0  0  0  0  0  0  0  0  0
    0.3938    5.8853   -4.5572 H   0  0  0  0  0  0  0  0  0  0  0  0
  1  3  1  0  0  0  0
  1  7  1  0  0  0  0
  1  2  2  0  0  0  0
 34 35  1  0  0  0  0
 35 43  1  0  0  0  0
 35 36  2  0  0  0  0
  8  9  1  0  0  0  0
  9 17  1  0  0  0  0
  9 10  2  0  0  0  0
 18 19  1  0  0  0  0
 19 33  1  0  0  0  0
 19 20  2  0  0  0  0
 22 23  1  0  0  0  0
 23 24  2  0  0  0  0
 23 25  1  0  0  0  0
 34 37  1  0  0  0  0
  8 11  1  0  0  0  0
 43 44  1  0  0  0  0
 21 22  1  0  0  0  0
 18 21  1  0  0  0  0
 33 34  1  0  0  0  0
  7  8  1  0  0  0  0
 17 18  1  0  0  0  0
  3  4  1  0  0  0  0
  3  5  1  0  0  0  0
  3  6  1  0  0  0  0
 37 40  1  0  0  0  0
 37 41  1  0  0  0  0
 37 42  1  0  0  0  0
 11 14  1  0  0  0  0
 11 15  1  0  0  0  0
 11 16  1  0  0  0  0
 44 46  1  0  0  0  0
 44 47  1  0  0  0  0
 44 48  1  0  0  0  0
 22 30  1  0  0  0  0
 22 31  1  0  0  0  0
 21 28  1  0  0  0  0
 21 29  1  0  0  0  0
 34 39  1  0  0  0  0
  8 13  1  0  0  0  0
 18 27  1  0  0  0  0
 43 45  1  0  0  0  0
  7 12  1  0  0  0  0
 33 38  1  0  0  0  0
 17 26  1  0  0  0  0
 25 32  1  0  0  0  0
M  END
$$$$

  -OEChem-05262214473D

 48 47  0     1  0  0  0  0  0999 V2000
   -5.5827   -1.3473    1.4591 C   0  0  0  0  0  0  0  0  0  0  0  0
   -5.7053   -2.4696    0.9825 O   0  0  0  0  0  0  0  0  0  0  0  0
   -6.7879   -0.6277    1.9670 C   0  0  0  0  0  0  0  0  0  0  0  0
   -7.2718   -0.0164    1.1885 H   0  0  0  0  0  0  0  0  0  0  0  0
   -7.5699   -1.3171    2.3239 H   0  0  0  0  0  0  0  0  0  0  0  0
   -6.6057    0.0628    2.8060 H   0  0  0  0  0  0  0  0  0  0  0  0
   -4.4001   -0.6377    1.5884 N   0  0  0  0  0  0  0  0  0  0  0  0
   -3.1220   -1.1455    1.1644 C   0  0  2  0  0  0  0  0  0  0  0  0
   -2.2017    0.0428    0.9187 C   0  0  0  0  0  0  0  0  0  0  0  0
   -2.6171    1.1750    0.6807 O   0  0  0  0  0  0  0  0  0  0  0  0
   -3.2533   -1.9992   -0.0873 C   0  0  0  0  0  0  0  0  0  0  0  0
   -4.4370    0.2910    2.0047 H   0  0  0  0  0  0  0  0  0  0  0  0
   -2.7302   -1.7467    1.9921 H   0  0  0  0  0  0  0  0  0  0  0  0
   -3.6446   -1.4140   -0.9275 H   0  0  0  0  0  0  0  0  0  0  0  0
   -2.2844   -2.4081   -0.3922 H   0  0  0  0  0  0  0  0  0  0  0  0
   -3.9388   -2.8365    0.0822 H   0  0  0  0  0  0  0  0  0  0  0  0
   -0.8768   -0.3314    0.9568 N   0  0  0  0  0  0  0  0  0  0  0  0
    0.2067    0.6285    0.7375 C   0  0  2  0  0  0  0  0  0  0  0  0
   -0.0001    1.1991   -0.6623 C   0  0  0  0  0  0  0  0  0  0  0  0
    0.4806    0.6771   -1.6662 O   0  0  0  0  0  0  0  0  0  0  0  0
    1.5572   -0.0890    0.8811 C   0  0  0  0  0  0  0  0  0  0  0  0
    1.8462   -0.5701    2.3029 C   0  0  0  0  0  0  0  0  0  0  0  0
    3.1685   -1.2897    2.3973 C   0  0  0  0  0  0  0  0  0  0  0  0
    3.8603   -1.5739    1.4278 O   0  0  0  0  0  0  0  0  0  0  0  0
    3.5022   -1.6149    3.6706 O   0  0  0  0  0  0  0  0  0  0  0  0
   -0.6087   -1.2764    1.1771 H   0  0  0  0  0  0  0  0  0  0  0  0
    0.1249    1.4202    1.4895 H   0  0  0  0  0  0  0  0  0  0  0  0
    1.5824   -0.9511    0.2012 H   0  0  0  0  0  0  0  0  0  0  0  0
    2.3740    0.5769    0.5730 H   0  0  0  0  0  0  0  0  0  0  0  0
    1.9048    0.2916    2.9792 H   0  0  0  0  0  0  0  0  0  0  0  0
    1.0385   -1.1964    2.6956 H   0  0  0  0  0  0  0  0  0  0  0  0
    4.3476   -2.1013    3.7742 H   0  0  0  0  0  0  0  0  0  0  0  0
   -0.8010    2.3316   -0.6585 N   0  0  0  0  0  0  0  0  0  0  0  0
   -1.1487    3.0597   -1.8575 C   0  0  2  0  0  0  0  0  0  0  0  0
   -0.1427    4.1901   -2.0297 C   0  0  0  0  0  0  0  0  0  0  0  0
    0.5143    4.6510   -1.0986 O   0  0  0  0  0  0  0  0  0  0  0  0
   -2.5678    3.6015   -1.7839 C   0  0  0  0  0  0  0  0  0  0  0  0
   -1.1608    2.6655    0.2305 H   0  0  0  0  0  0  0  0  0  0  0  0
   -1.0557    2.3568   -2.6926 H   0  0  0  0  0  0  0  0  0  0  0  0
   -2.6804    4.3076   -0.9531 H   0  0  0  0  0  0  0  0  0  0  0  0
   -2.8396    4.1284   -2.7045 H   0  0  0  0  0  0  0  0  0  0  0  0
   -3.2873    2.7901   -1.6302 H   0  0  0  0  0  0  0  0  0  0  0  0
   -0.0963    4.6527   -3.3374 N   0  0  0  0  0  0  0  0  0  0  0  0
    0.7713    5.7300   -3.7529 C   0  0  0  0  0  0  0  0  0  0  0  0
   -0.6623    4.1989   -4.0483 H   0  0  0  0  0  0  0  0  0  0  0  0
    0.2291    6.6848   -3.6859 H   0  0  0  0  0  0  0  0  0  0  0  0
    1.6542    5.7631   -3.0976 H   0  0  0  0  0  0  0  0  0  0  0  0
    1.0918    5.5626   -4.7918 H   0  0  0  0  0  0  0  0  0  0  0  0
  1  3  1  0  0  0  0
  1  7  1  0  0  0  0
  1  2  2  0  0  0  0
 34 35  1  0  0  0  0
 35 43  1  0  0  0  0
 35 36  2  0  0  0  0
  8  9  1  0  0  0  0
  9 17  1  0  0  0  0
  9 10  2  0  0  0  0
 18 19  1  0  0  0  0
 19 33  1  0  0  0  0
 19 20  2  0  0  0  0
 22 23  1  0  0  0  0
 23 24  2  0  0  0  0
 23 25  1  0  0  0  0
 34 37  1  0  0  0  0
  8 11  1  0  0  0  0
 43 44  1  0  0  0  0
 21 22  1  0  0  0  0
 18 21  1  0  0  0  0
 33 34  1  0  0  0  0
  7  8  1  0  0  0  0
 17 18  1  0  0  0  0
  3  4  1  0  0  0  0
  3  5  1  0  0  0  0
  3  6  1  0  0  0  0
 37 40  1  0  0  0  0
 37 41  1  0  0  0  0
 37 42  1  0  0  0  0
 11 14  1  0  0  0  0
 11 15  1  0  0  0  0
 11 16  1  0  0  0  0
 44 46  1  0  0  0  0
 44 47  1  0  0  0  0
 44 48  1  0  0  0  0
 22 30  1  0  0  0  0
 22 31  1  0  0  0  0
 21 28  1  0  0  0  0
 21 29  1  0  0  0  0
 34 39  1  0  0  0  0
  8 13  1  0  0  0  0
 18 27  1  0  0  0  0
 43 45  1  0  0  0  0
  7 12  1  0  0  0  0
 33 38  1  0  0  0  0
 17 26  1  0  0  0  0
 25 32  1  0  0  0  0
M  END
$$$$

  -OEChem-05262214473D

 48 47  0     1  0  0  0  0  0999 V2000
   -5.5827   -1.3473    1.4591 C   0  0  0  0  0  0  0  0  0  0  0  0
   -5.7053   -2.4696    0.9825 O   0  0  0  0  0  0  0  0  0  0  0  0
   -6.7879   -0.6277    1.9670 C   0  0  0  0  0  0  0  0  0  0  0  0
   -7.2718   -0.0164    1.1885 H   0  0  0  0  0  0  0  0  0  0  0  0
   -7.5699   -1.3171    2.3239 H   0  0  0  0  0  0  0  0  0  0  0  0
   -6.6057    0.0628    2.8060 H   0  0  0  0  0  0  0  0  0  0  0  0
   -4.4001   -0.6377    1.5884 N   0  0  0  0  0  0  0  0  0  0  0  0
   -3.1220   -1.1455    1.1644 C   0  0  2  0  0  0  0  0  0  0  0  0
   -2.2017    0.0428    0.9187 C   0  0  0  0  0  0  0  0  0  0  0  0
   -2.6171    1.1750    0.6807 O   0  0  0  0  0  0  0  0  0  0  0  0
   -3.2533   -1.9992   -0.0873 C   0  0  0  0  0  0  0  0  0  0  0  0
   -4.4370    0.2910    2.0047 H   0  0  0  0  0  0  0  0  0  0  0  0
   -2.7302   -1.7467    1.9921 H   0  0  0  0  0  0  0  0  0  0  0  0
   -3.6446   -1.4140   -0.9275 H   0  0  0  0  0  0  0  0  0  0  0  0
   -2.2844   -2.4081   -0.3922 H   0  0  0  0  0  0  0  0  0  0  0  0
   -3.9388   -2.8365    0.0822 H   0  0  0  0  0  0  0  0  0  0  0  0
   -0.8768   -0.3314    0.9568 N   0  0  0  0  0  0  0  0  0  0  0  0
    0.2067    0.6285    0.7375 C   0  0  2  0  0  0  0  0  0  0  0  0
   -0.0001    1.1991   -0.6623 C   0  0  0  0  0  0  0  0  0  0  0  0
    0.2400    0.5540   -1.6809 O   0  0  0  0  0  0  0  0  0  0  0  0
    1.5572   -0.0890    0.8811 C   0  0  0  0  0  0  0  0  0  0  0  0
    1.8462   -0.5701    2.3029 C   0  0  0  0  0  0  0  0  0  0  0  0
    3.1685   -1.2897    2.3973 C   0  0  0  0  0  0  0  0  0  0  0  0
    3.8603   -1.5739    1.4278 O   0  0  0  0  0  0  0  0  0  0  0  0
    3.5022   -1.6149    3.6706 O   0  0  0  0  0  0  0  0  0  0  0  0
   -0.6087   -1.2764    1.1771 H   0  0  0  0  0  0  0  0  0  0  0  0
    0.1249    1.4202    1.4895 H   0  0  0  0  0  0  0  0  0  0  0  0
    1.5824   -0.9511    0.2012 H   0  0  0  0  0  0  0  0  0  0  0  0
    2.3740    0.5769    0.5730 H   0  0  0  0  0  0  0  0  0  0  0  0
    1.9048    0.2916    2.9792 H   0  0  0  0  0  0  0  0  0  0  0  0
    1.0385   -1.1964    2.6956 H   0  0  0  0  0  0  0  0  0  0  0  0
    4.3476   -2.1013    3.7742 H   0  0  0  0  0  0  0  0  0  0  0  0
   -0.5069    2.4900   -0.6374 N   0  0  0  0  0  0  0  0  0  0  0  0
   -0.7925    3.2520   -1.8318 C   0  0  2  0  0  0  0  0  0  0  0  0
    0.4290    4.1045   -2.1490 C   0  0  0  0  0  0  0  0  0  0  0  0
    1.2667    4.4166   -1.3053 O   0  0  0  0  0  0  0  0  0  0  0  0
   -2.0289    4.1191   -1.6525 C   0  0  0  0  0  0  0  0  0  0  0  0
   -0.6861    2.9210    0.2646 H   0  0  0  0  0  0  0  0  0  0  0  0
   -0.9526    2.5279   -2.6381 H   0  0  0  0  0  0  0  0  0  0  0  0
   -1.8873    4.8508   -0.8488 H   0  0  0  0  0  0  0  0  0  0  0  0
   -2.2604    4.6740   -2.5677 H   0  0  0  0  0  0  0  0  0  0  0  0
   -2.9001    3.5071   -1.3951 H   0  0  0  0  0  0  0  0  0  0  0  0
    0.4508    4.5120   -3.4756 N   0  0  0  0  0  0  0  0  0  0  0  0
    1.5013    5.3405   -4.0195 C   0  0  0  0  0  0  0  0  0  0  0  0
   -0.2751    4.1902   -4.1091 H   0  0  0  0  0  0  0  0  0  0  0  0
    1.2091    6.3985   -3.9473 H   0  0  0  0  0  0  0  0  0  0  0  0
    2.4287    5.1767   -3.4510 H   0  0  0  0  0  0  0  0  0  0  0  0
    1.6667    5.0770   -5.0746 H   0  0  0  0  0  0  0  0  0  0  0  0
  1  3  1  0  0  0  0
  1  7  1  0  0  0  0
  1  2  2  0  0  0  0
 34 35  1  0  0  0  0
 35 43  1  0  0  0  0
 35 36  2  0  0  0  0
  8  9  1  0  0  0  0
  9 17  1  0  0  0  0
  9 10  2  0  0  0  0
 18 19  1  0  0  0  0
 19 33  1  0  0  0  0
 19 20  2  0  0  0  0
 22 23  1  0  0  0  0
 23 24  2  0  0  0  0
 23 25  1  0  0  0  0
 34 37  1  0  0  0  0
  8 11  1  0  0  0  0
 43 44  1  0  0  0  0
 21 22  1  0  0  0  0
 18 21  1  0  0  0  0
 33 34  1  0  0  0  0
  7  8  1  0  0  0  0
 17 18  1  0  0  0  0
  3  4  1  0  0  0  0
  3  5  1  0  0  0  0
  3  6  1  0  0  0  0
 37 40  1  0  0  0  0
 37 41  1  0  0  0  0
 37 42  1  0  0  0  0
 11 14  1  0  0  0  0
 11 15  1  0  0  0  0
 11 16  1  0  0  0  0
 44 46  1  0  0  0  0
 44 47  1  0  0  0  0
 44 48  1  0  0  0  0
 22 30  1  0  0  0  0
 22 31  1  0  0  0  0
 21 28  1  0  0  0  0
 21 29  1  0  0  0  0
 34 39  1  0  0  0  0
  8 13  1  0  0  0  0
 18 27  1  0  0  0  0
 43 45  1  0  0  0  0
  7 12  1  0  0  0  0
 33 38  1  0  0  0  0
 17 26  1  0  0  0  0
 25 32  1  0  0  0  0
M  END
$$$$

  -OEChem-05262214473D

 48 47  0     1  0  0  0  0  0999 V2000
   -5.5827   -1.3473    1.4591 C   0  0  0  0  0  0  0  0  0  0  0  0
   -5.7053   -2.4696    0.9825 O   0  0  0  0  0  0  0  0  0  0  0  0
   -6.7879   -0.6277    1.9670 C   0  0  0  0  0  0  0  0  0  0  0  0
   -7.2718   -0.0164    1.1885 H   0  0  0  0  0  0  0  0  0  0  0  0
   -7.5699   -1.3171    2.3239 H   0  0  0  0  0  0  0  0  0  0  0  0
   -6.6057    0.0628    2.8060 H   0  0  0  0  0  0  0  0  0  0  0  0
   -4.4001   -0.6377    1.5884 N   0  0  0  0  0  0  0  0  0  0  0  0
   -3.1220   -1.1455    1.1644 C   0  0  2  0  0  0  0  0  0  0  0  0
   -2.2017    0.0428    0.9187 C   0  0  0  0  0  0  0  0  0  0  0  0
   -2.6171    1.1750    0.6807 O   0  0  0  0  0  0  0  0  0  0  0  0
   -3.2533   -1.9992   -0.0873 C   0  0  0  0  0  0  0  0  0  0  0  0
   -4.4370    0.2910    2.0047 H   0  0  0  0  0  0  0  0  0  0  0  0
   -2.7302   -1.7467    1.9921 H   0  0  0  0  0  0  0  0  0  0  0  0
   -3.6446   -1.4140   -0.9275 H   0  0  0  0  0  0  0  0  0  0  0  0
   -2.2844   -2.4081   -0.3922 H   0  0  0  0  0  0  0  0  0  0  0  0
   -3.9388   -2.8365    0.0822 H   0  0  0  0  0  0  0  0  0  0  0  0
   -0.8768   -0.3314    0.9568 N   0  0  0  0  0  0  0  0  0  0  0  0
    0.2067    0.6285    0.7375 C   0  0  2  0  0  0  0  0  0  0  0  0
   -0.0001    1.1991   -0.6623 C   0  0  0  0  0  0  0  0  0  0  0  0
   -0.0230    0.4917   -1.6675 O   0  0  0  0  0  0  0  0  0  0  0  0
    1.5572   -0.0890    0.8811 C   0  0  0  0  0  0  0  0  0  0  0  0
    1.8462   -0.5701    2.3029 C   0  0  0  0  0  0  0  0  0  0  0  0
    3.1685   -1.2897    2.3973 C   0  0  0  0  0  0  0  0  0  0  0  0
    3.8603   -1.5739    1.4278 O   0  0  0  0  0  0  0  0  0  0  0  0
    3.5022   -1.6149    3.6706 O   0  0  0  0  0  0  0  0  0  0  0  0
   -0.6087   -1.2764    1.1771 H   0  0  0  0  0  0  0  0  0  0  0  0
    0.1249    1.4202    1.4895 H   0  0  0  0  0  0  0  0  0  0  0  0
    1.5824   -0.9511    0.2012 H   0  0  0  0  0  0  0  0  0  0  0  0
    2.3740    0.5769    0.5730 H   0  0  0  0  0  0  0  0  0  0  0  0
    1.9048    0.2916    2.9792 H   0  0  0  0  0  0  0  0  0  0  0  0
    1.0385   -1.1964    2.6956 H   0  0  0  0  0  0  0  0  0  0  0  0
    4.3476   -2.1013    3.7742 H   0  0  0  0  0  0  0  0  0  0  0  0
   -0.1831    2.5740   -0.6510 N   0  0  0  0  0  0  0  0  0  0  0  0
   -0.4002    3.3540   -1.8481 C   0  0  2  0  0  0  0  0  0  0  0  0
    0.9493    3.8820   -2.3166 C   0  0  0  0  0  0  0  0  0  0  0  0
    1.9178    4.0042   -1.5695 O   0  0  0  0  0  0  0  0  0  0  0  0
   -1.3728    4.4956   -1.5959 C   0  0  0  0  0  0  0  0  0  0  0  0
   -0.1636    3.0563    0.2425 H   0  0  0  0  0  0  0  0  0  0  0  0
   -0.8071    2.6706   -2.6014 H   0  0  0  0  0  0  0  0  0  0  0  0
   -0.9822    5.1908   -0.8439 H   0  0  0  0  0  0  0  0  0  0  0  0
   -1.5582    5.0682   -2.5107 H   0  0  0  0  0  0  0  0  0  0  0  0
   -2.3331    4.1160   -1.2307 H   0  0  0  0  0  0  0  0  0  0  0  0
    0.9324    4.2412   -3.6571 N   0  0  0  0  0  0  0  0  0  0  0  0
    2.0882    4.7815   -4.3341 C   0  0  0  0  0  0  0  0  0  0  0  0
    0.0910    4.0877   -4.2049 H   0  0  0  0  0  0  0  0  0  0  0  0
    2.0624    5.8801   -4.2847 H   0  0  0  0  0  0  0  0  0  0  0  0
    3.0034    4.4140   -3.8468 H   0  0  0  0  0  0  0  0  0  0  0  0
    2.0793    4.4616   -5.3865 H   0  0  0  0  0  0  0  0  0  0  0  0
  1  3  1  0  0  0  0
  1  7  1  0  0  0  0
  1  2  2  0  0  0  0
 34 35  1  0  0  0  0
 35 43  1  0  0  0  0
 35 36  2  0  0  0  0
  8  9  1  0  0  0  0
  9 17  1  0  0  0  0
  9 10  2  0  0  0  0
 18 19  1  0  0  0  0
 19 33  1  0  0  0  0
 19 20  2  0  0  0  0
 22 23  1  0  0  0  0
 23 24  2  0  0  0  0
 23 25  1  0  0  0  0
 34 37  1  0  0  0  0
  8 11  1  0  0  0  0
 43 44  1  0  0  0  0
 21 22  1  0  0  0  0
 18 21  1  0  0  0  0
 33 34  1  0  0  0  0
  7  8  1  0  0  0  0
 17 18  1  0  0  0  0
  3  4  1  0  0  0  0
  3  5  1  0  0  0  0
  3  6  1  0  0  0  0
 37 40  1  0  0  0  0
 37 41  1  0  0  0  0
 37 42  1  0  0  0  0
 11 14  1  0  0  0  0
 11 15  1  0  0  0  0
 11 16  1  0  0  0  0
 44 46  1  0  0  0  0
 44 47  1  0  0  0  0
 44 48  1  0  0  0  0
 22 30  1  0  0  0  0
 22 31  1  0  0  0  0
 21 28  1  0  0  0  0
 21 29  1  0  0  0  0
 34 39  1  0  0  0  0
  8 13  1  0  0  0  0
 18 27  1  0  0  0  0
 43 45  1  0  0  0  0
  7 12  1  0  0  0  0
 33 38  1  0  0  0  0
 17 26  1  0  0  0  0
 25 32  1  0  0  0  0
M  END
$$$$

  -OEChem-05262214473D

 48 47  0     1  0  0  0  0  0999 V2000
   -5.5827   -1.3473    1.4591 C   0  0  0  0  0  0  0  0  0  0  0  0
   -5.7053   -2.4696    0.9825 O   0  0  0  0  0  0  0  0  0  0  0  0
   -6.7879   -0.6277    1.9670 C   0  0  0  0  0  0  0  0  0  0  0  0
   -7.2718   -0.0164    1.1885 H   0  0  0  0  0  0  0  0  0  0  0  0
   -7.5699   -1.3171    2.3239 H   0  0  0  0  0  0  0  0  0  0  0  0
   -6.6057    0.0628    2.8060 H   0  0  0  0  0  0  0  0  0  0  0  0
   -4.4001   -0.6377    1.5884 N   0  0  0  0  0  0  0  0  0  0  0  0
   -3.1220   -1.1455    1.1644 C   0  0  2  0  0  0  0  0  0  0  0  0
   -2.2017    0.0428    0.9187 C   0  0  0  0  0  0  0  0  0  0  0  0
   -2.6171    1.1750    0.6807 O   0  0  0  0  0  0  0  0  0  0  0  0
   -3.2533   -1.9992   -0.0873 C   0  0  0  0  0  0  0  0  0  0  0  0
   -4.4370    0.2910    2.0047 H   0  0  0  0  0  0  0  0  0  0  0  0
   -2.7302   -1.7467    1.9921 H   0  0  0  0  0  0  0  0  0  0  0  0
   -3.6446   -1.4140   -0.9275 H   0  0  0  0  0  0  0  0  0  0  0  0
   -2.2844   -2.4081   -0.3922 H   0  0  0  0  0  0  0  0  0  0  0  0
   -3.9388   -2.8365    0.0822 H   0  0  0  0  0  0  0  0  0  0  0  0
   -0.8768   -0.3314    0.9568 N   0  0  0  0  0  0  0  0  0  0  0  0
    0.2067    0.6285    0.7375 C   0  0  2  0  0  0  0  0  0  0  0  0
   -0.0001    1.1991   -0.6623 C   0  0  0  0  0  0  0  0  0  0  0  0
   -0.2906    0.4944   -1.6268 O   0  0  0  0  0  0  0  0  0  0  0  0
    1.5572   -0.0890    0.8811 C   0  0  0  0  0  0  0  0  0  0  0  0
    1.8462   -0.5701    2.3029 C   0  0  0  0  0  0  0  0  0  0  0  0
    3.1685   -1.2897    2.3973 C   0  0  0  0  0  0  0  0  0  0  0  0
    3.8603   -1.5739    1.4278 O   0  0  0  0  0  0  0  0  0  0  0  0
    3.5022   -1.6149    3.6706 O   0  0  0  0  0  0  0  0  0  0  0  0
   -0.6087   -1.2764    1.1771 H   0  0  0  0  0  0  0  0  0  0  0  0
    0.1249    1.4202    1.4895 H   0  0  0  0  0  0  0  0  0  0  0  0
    1.5824   -0.9511    0.2012 H   0  0  0  0  0  0  0  0  0  0  0  0
    2.3740    0.5769    0.5730 H   0  0  0  0  0  0  0  0  0  0  0  0
    1.9048    0.2916    2.9792 H   0  0  0  0  0  0  0  0  0  0  0  0
    1.0385   -1.1964    2.6956 H   0  0  0  0  0  0  0  0  0  0  0  0
    4.3476   -2.1013    3.7742 H   0  0  0  0  0  0  0  0  0  0  0  0
    0.1483    2.5778   -0.6984 N   0  0  0  0  0  0  0  0  0  0  0  0
    0.0013    3.3588   -1.9055 C   0  0  2  0  0  0  0  0  0  0  0  0
    1.3829    3.5376   -2.5210 C   0  0  0  0  0  0  0  0  0  0  0  0
    2.4233    3.4421   -1.8733 O   0  0  0  0  0  0  0  0  0  0  0  0
   -0.6441    4.7055   -1.6180 C   0  0  0  0  0  0  0  0  0  0  0  0
    0.3711    3.0621    0.1659 H   0  0  0  0  0  0  0  0  0  0  0  0
   -0.6292    2.7751   -2.5850 H   0  0  0  0  0  0  0  0  0  0  0  0
   -0.0267    5.3045   -0.9387 H   0  0  0  0  0  0  0  0  0  0  0  0
   -0.7808    5.2843   -2.5374 H   0  0  0  0  0  0  0  0  0  0  0  0
   -1.6249    4.5752   -1.1481 H   0  0  0  0  0  0  0  0  0  0  0  0
    1.3158    3.8590   -3.8695 N   0  0  0  0  0  0  0  0  0  0  0  0
    2.4918    4.0912   -4.6751 C   0  0  0  0  0  0  0  0  0  0  0  0
    0.4109    3.8985   -4.3293 H   0  0  0  0  0  0  0  0  0  0  0  0
    2.7309    5.1649   -4.6750 H   0  0  0  0  0  0  0  0  0  0  0  0
    3.3390    3.5270   -4.2580 H   0  0  0  0  0  0  0  0  0  0  0  0
    2.3015    3.7581   -5.7060 H   0  0  0  0  0  0  0  0  0  0  0  0
  1  3  1  0  0  0  0
  1  7  1  0  0  0  0
  1  2  2  0  0  0  0
 34 35  1  0  0  0  0
 35 43  1  0  0  0  0
 35 36  2  0  0  0  0
  8  9  1  0  0  0  0
  9 17  1  0  0  0  0
  9 10  2  0  0  0  0
 18 19  1  0  0  0  0
 19 33  1  0  0  0  0
 19 20  2  0  0  0  0
 22 23  1  0  0  0  0
 23 24  2  0  0  0  0
 23 25  1  0  0  0  0
 34 37  1  0  0  0  0
  8 11  1  0  0  0  0
 43 44  1  0  0  0  0
 21 22  1  0  0  0  0
 18 21  1  0  0  0  0
 33 34  1  0  0  0  0
  7  8  1  0  0  0  0
 17 18  1  0  0  0  0
  3  4  1  0  0  0  0
  3  5  1  0  0  0  0
  3  6  1  0  0  0  0
 37 40  1  0  0  0  0
 37 41  1  0  0  0  0
 37 42  1  0  0  0  0
 11 14  1  0  0  0  0
 11 15  1  0  0  0  0
 11 16  1  0  0  0  0
 44 46  1  0  0  0  0
 44 47  1  0  0  0  0
 44 48  1  0  0  0  0
 22 30  1  0  0  0  0
 22 31  1  0  0  0  0
 21 28  1  0  0  0  0
 21 29  1  0  0  0  0
 34 39  1  0  0  0  0
  8 13  1  0  0  0  0
 18 27  1  0  0  0  0
 43 45  1  0  0  0  0
  7 12  1  0  0  0  0
 33 38  1  0  0  0  0
 17 26  1  0  0  0  0
 25 32  1  0  0  0  0
M  END
$$$$

  -OEChem-05262214473D

 48 47  0     1  0  0  0  0  0999 V2000
   -5.5827   -1.3473    1.4591 C   0  0  0  0  0  0  0  0  0  0  0  0
   -5.7053   -2.4696    0.9825 O   0  0  0  0  0  0  0  0  0  0  0  0
   -6.7879   -0.6277    1.9670 C   0  0  0  0  0  0  0  0  0  0  0  0
   -7.2718   -0.0164    1.1885 H   0  0  0  0  0  0  0  0  0  0  0  0
   -7.5699   -1.3171    2.3239 H   0  0  0  0  0  0  0  0  0  0  0  0
   -6.6057    0.0628    2.8060 H   0  0  0  0  0  0  0  0  0  0  0  0
   -4.4001   -0.6377    1.5884 N   0  0  0  0  0  0  0  0  0  0  0  0
   -3.1220   -1.1455    1.1644 C   0  0  2  0  0  0  0  0  0  0  0  0
   -2.2017    0.0428    0.9187 C   0  0  0  0  0  0  0  0  0  0  0  0
   -2.6171    1.1750    0.6807 O   0  0  0  0  0  0  0  0  0  0  0  0
   -3.2533   -1.9992   -0.0873 C   0  0  0  0  0  0  0  0  0  0  0  0
   -4.4370    0.2910    2.0047 H   0  0  0  0  0  0  0  0  0  0  0  0
   -2.7302   -1.7467    1.9921 H   0  0  0  0  0  0  0  0  0  0  0  0
   -3.6446   -1.4140   -0.9275 H   0  0  0  0  0  0  0  0  0  0  0  0
   -2.2844   -2.4081   -0.3922 H   0  0  0  0  0  0  0  0  0  0  0  0
   -3.9388   -2.8365    0.0822 H   0  0  0  0  0  0  0  0  0  0  0  0
   -0.8768   -0.3314    0.9568 N   0  0  0  0  0  0  0  0  0  0  0  0
    0.2067    0.6285    0.7375 C   0  0  2  0  0  0  0  0  0  0  0  0
   -0.0001    1.1991   -0.6623 C   0  0  0  0  0  0  0  0  0  0  0  0
   -0.5445    0.5620   -1.5618 O   0  0  0  0  0  0  0  0  0  0  0  0
    1.5572   -0.0890    0.8811 C   0  0  0  0  0  0  0  0  0  0  0  0
    1.8462   -0.5701    2.3029 C   0  0  0  0  0  0  0  0  0  0  0  0
    3.1685   -1.2897    2.3973 C   0  0  0  0  0  0  0  0  0  0  0  0
    3.8603   -1.5739    1.4278 O   0  0  0  0  0  0  0  0  0  0  0  0
    3.5022   -1.6149    3.6706 O   0  0  0  0  0  0  0  0  0  0  0  0
   -0.6087   -1.2764    1.1771 H   0  0  0  0  0  0  0  0  0  0  0  0
    0.1249    1.4202    1.4895 H   0  0  0  0  0  0  0  0  0  0  0  0
    1.5824   -0.9511    0.2012 H   0  0  0  0  0  0  0  0  0  0  0  0
    2.3740    0.5769    0.5730 H   0  0  0  0  0  0  0  0  0  0  0  0
    1.9048    0.2916    2.9792 H   0  0  0  0  0  0  0  0  0  0  0  0
    1.0385   -1.1964    2.6956 H   0  0  0  0  0  0  0  0  0  0  0  0
    4.3476   -2.1013    3.7742 H   0  0  0  0  0  0  0  0  0  0  0  0
    0.4647    2.5010   -0.7764 N   0  0  0  0  0  0  0  0  0  0  0  0
    0.3848    3.2661   -1.9999 C   0  0  2  0  0  0  0  0  0  0  0  0
    1.7001    3.0948   -2.7484 C   0  0  0  0  0  0  0  0  0  0  0  0
    2.7486    2.7684   -2.1960 O   0  0  0  0  0  0  0  0  0  0  0  0
    0.1075    4.7344   -1.7172 C   0  0  0  0  0  0  0  0  0  0  0  0
    0.8816    2.9381    0.0400 H   0  0  0  0  0  0  0  0  0  0  0  0
   -0.4309    2.8345   -2.5901 H   0  0  0  0  0  0  0  0  0  0  0  0
    0.9140    5.1841   -1.1267 H   0  0  0  0  0  0  0  0  0  0  0  0
    0.0189    5.3074   -2.6461 H   0  0  0  0  0  0  0  0  0  0  0  0
   -0.8238    4.8535   -1.1529 H   0  0  0  0  0  0  0  0  0  0  0  0
    1.5747    3.3914   -4.0984 N   0  0  0  0  0  0  0  0  0  0  0  0
    2.6848    3.3165   -5.0194 C   0  0  0  0  0  0  0  0  0  0  0  0
    0.6630    3.6353   -4.4738 H   0  0  0  0  0  0  0  0  0  0  0  0
    3.1690    4.3016   -5.0916 H   0  0  0  0  0  0  0  0  0  0  0  0
    3.4128    2.5760   -4.6566 H   0  0  0  0  0  0  0  0  0  0  0  0
    2.3181    3.0147   -6.0116 H   0  0  0  0  0  0  0  0  0  0  0  0
  1  3  1  0  0  0  0
  1  7  1  0  0  0  0
  1  2  2  0  0  0  0
 34 35  1  0  0  0  0
 35 43  1  0  0  0  0
 35 36  2  0  0  0  0
  8  9  1  0  0  0  0
  9 17  1  0  0  0  0
  9 10  2  0  0  0  0
 18 19  1  0  0  0  0
 19 33  1  0  0  0  0
 19 20  2  0  0  0  0
 22 23  1  0  0  0  0
 23 24  2  0  0  0  0
 23 25  1  0  0  0  0
 34 37  1  0  0  0  0
  8 11  1  0  0  0  0
 43 44  1  0  0  0  0
 21 22  1  0  0  0  0
 18 21  1  0  0  0  0
 33 34  1  0  0  0  0
  7  8  1  0  0  0  0
 17 18  1  0  0  0  0
  3  4  1  0  0  0  0
  3  5  1  0  0  0  0
  3  6  1  0  0  0  0
 37 40  1  0  0  0  0
 37 41  1  0  0  0  0
 37 42  1  0  0  0  0
 11 14  1  0  0  0  0
 11 15  1  0  0  0  0
 11 16  1  0  0  0  0
 44 46  1  0  0  0  0
 44 47  1  0  0  0  0
 44 48  1  0  0  0  0
 22 30  1  0  0  0  0
 22 31  1  0  0  0  0
 21 28  1  0  0  0  0
 21 29  1  0  0  0  0
 34 39  1  0  0  0  0
  8 13  1  0  0  0  0
 18 27  1  0  0  0  0
 43 45  1  0  0  0  0
  7 12  1  0  0  0  0
 33 38  1  0  0  0  0
 17 26  1  0  0  0  0
 25 32  1  0  0  0  0
M  END
$$$$

  -OEChem-05262214473D

 48 47  0     1  0  0  0  0  0999 V2000
   -5.5827   -1.3473    1.4591 C   0  0  0  0  0  0  0  0  0  0  0  0
   -5.7053   -2.4696    0.9825 O   0  0  0  0  0  0  0  0  0  0  0  0
   -6.7879   -0.6277    1.9670 C   0  0  0  0  0  0  0  0  0  0  0  0
   -7.2718   -0.0164    1.1885 H   0  0  0  0  0  0  0  0  0  0  0  0
   -7.5699   -1.3171    2.3239 H   0  0  0  0  0  0  0  0  0  0  0  0
   -6.6057    0.0628    2.8060 H   0  0  0  0  0  0  0  0  0  0  0  0
   -4.4001   -0.6377    1.5884 N   0  0  0  0  0  0  0  0  0  0  0  0
   -3.1220   -1.1455    1.1644 C   0  0  2  0  0  0  0  0  0  0  0  0
   -2.2017    0.0428    0.9187 C   0  0  0  0  0  0  0  0  0  0  0  0
   -2.6171    1.1750    0.6807 O   0  0  0  0  0  0  0  0  0  0  0  0
   -3.2533   -1.9992   -0.0873 C   0  0  0  0  0  0  0  0  0  0  0  0
   -4.4370    0.2910    2.0047 H   0  0  0  0  0  0  0  0  0  0  0  0
   -2.7302   -1.7467    1.9921 H   0  0  0  0  0  0  0  0  0  0  0  0
   -3.6446   -1.4140   -0.9275 H   0  0  0  0  0  0  0  0  0  0  0  0
   -2.2844   -2.4081   -0.3922 H   0  0  0  0  0  0  0  0  0  0  0  0
   -3.9388   -2.8365    0.0822 H   0  0  0  0  0  0  0  0  0  0  0  0
   -0.8768   -0.3314    0.9568 N   0  0  0  0  0  0  0  0  0  0  0  0
    0.2067    0.6285    0.7375 C   0  0  2  0  0  0  0  0  0  0  0  0
   -0.0001    1.1991   -0.6623 C   0  0  0  0  0  0  0  0  0  0  0  0
   -0.7673    0.6898   -1.4767 O   0  0  0  0  0  0  0  0  0  0  0  0
    1.5572   -0.0890    0.8811 C   0  0  0  0  0  0  0  0  0  0  0  0
    1.8462   -0.5701    2.3029 C   0  0  0  0  0  0  0  0  0  0  0  0
    3.1685   -1.2897    2.3973 C   0  0  0  0  0  0  0  0  0  0  0  0
    3.8603   -1.5739    1.4278 O   0  0  0  0  0  0  0  0  0  0  0  0
    3.5022   -1.6149    3.6706 O   0  0  0  0  0  0  0  0  0  0  0  0
   -0.6087   -1.2764    1.1771 H   0  0  0  0  0  0  0  0  0  0  0  0
    0.1249    1.4202    1.4895 H   0  0  0  0  0  0  0  0  0  0  0  0
    1.5824   -0.9511    0.2012 H   0  0  0  0  0  0  0  0  0  0  0  0
    2.3740    0.5769    0.5730 H   0  0  0  0  0  0  0  0  0  0  0  0
    1.9048    0.2916    2.9792 H   0  0  0  0  0  0  0  0  0  0  0  0
    1.0385   -1.1964    2.6956 H   0  0  0  0  0  0  0  0  0  0  0  0
    4.3476   -2.1013    3.7742 H   0  0  0  0  0  0  0  0  0  0  0  0
    0.7445    2.3490   -0.8797 N   0  0  0  0  0  0  0  0  0  0  0  0
    0.7240    3.0822   -2.1250 C   0  0  2  0  0  0  0  0  0  0  0  0
    1.8793    2.5839   -2.9831 C   0  0  0  0  0  0  0  0  0  0  0  0
    2.8716    2.0291   -2.5156 O   0  0  0  0  0  0  0  0  0  0  0  0
    0.8306    4.5804   -1.8868 C   0  0  0  0  0  0  0  0  0  0  0  0
    1.3330    2.6927   -0.1267 H   0  0  0  0  0  0  0  0  0  0  0  0
   -0.2257    2.8445   -2.6164 H   0  0  0  0  0  0  0  0  0  0  0  0
    1.7759    4.8378   -1.3952 H   0  0  0  0  0  0  0  0  0  0  0  0
    0.7863    5.1361   -2.8293 H   0  0  0  0  0  0  0  0  0  0  0  0
    0.0157    4.9320   -1.2449 H   0  0  0  0  0  0  0  0  0  0  0  0
    1.6917    2.8701   -4.3281 N   0  0  0  0  0  0  0  0  0  0  0  0
    2.6539    2.5104   -5.3434 C   0  0  0  0  0  0  0  0  0  0  0  0
    0.8300    3.3162   -4.6286 H   0  0  0  0  0  0  0  0  0  0  0  0
    3.3468    3.3491   -5.5061 H   0  0  0  0  0  0  0  0  0  0  0  0
    3.2196    1.6259   -5.0153 H   0  0  0  0  0  0  0  0  0  0  0  0
    2.1281    2.2819   -6.2822 H   0  0  0  0  0  0  0  0  0  0  0  0
  1  3  1  0  0  0  0
  1  7  1  0  0  0  0
  1  2  2  0  0  0  0
 34 35  1  0  0  0  0
 35 43  1  0  0  0  0
 35 36  2  0  0  0  0
  8  9  1  0  0  0  0
  9 17  1  0  0  0  0
  9 10  2  0  0  0  0
 18 19  1  0  0  0  0
 19 33  1  0  0  0  0
 19 20  2  0  0  0  0
 22 23  1  0  0  0  0
 23 24  2  0  0  0  0
 23 25  1  0  0  0  0
 34 37  1  0  0  0  0
  8 11  1  0  0  0  0
 43 44  1  0  0  0  0
 21 22  1  0  0  0  0
 18 21  1  0  0  0  0
 33 34  1  0  0  0  0
  7  8  1  0  0  0  0
 17 18  1  0  0  0  0
  3  4  1  0  0  0  0
  3  5  1  0  0  0  0
  3  6  1  0  0  0  0
 37 40  1  0  0  0  0
 37 41  1  0  0  0  0
 37 42  1  0  0  0  0
 11 14  1  0  0  0  0
 11 15  1  0  0  0  0
 11 16  1  0  0  0  0
 44 46  1  0  0  0  0
 44 47  1  0  0  0  0
 44 48  1  0  0  0  0
 22 30  1  0  0  0  0
 22 31  1  0  0  0  0
 21 28  1  0  0  0  0
 21 29  1  0  0  0  0
 34 39  1  0  0  0  0
  8 13  1  0  0  0  0
 18 27  1  0  0  0  0
 43 45  1  0  0  0  0
  7 12  1  0  0  0  0
 33 38  1  0  0  0  0
 17 26  1  0  0  0  0
 25 32  1  0  0  0  0
M  END
$$$$

  -OEChem-05262214473D

 48 47  0     1  0  0  0  0  0999 V2000
   -5.5827   -1.3473    1.4591 C   0  0  0  0  0  0  0  0  0  0  0  0
   -5.7053   -2.4696    0.9825 O   0  0  0  0  0  0  0  0  0  0  0  0
   -6.7879   -0.6277    1.9670 C   0  0  0  0  0  0  0  0  0  0  0  0
   -7.2718   -0.0164    1.1885 H   0  0  0  0  0  0  0  0  0  0  0  0
   -7.5699   -1.3171    2.3239 H   0  0  0  0  0  0  0  0  0  0  0  0
   -6.6057    0.0628    2.8060 H   0  0  0  0  0  0  0  0  0  0  0  0
   -4.4001   -0.6377    1.5884 N   0  0  0  0  0  0  0  0  0  0  0  0
   -3.1220   -1.1455    1.1644 C   0  0  2  0  0  0  0  0  0  0  0  0
   -2.2017    0.0428    0.9187 C   0  0  0  0  0  0  0  0  0  0  0  0
   -2.6171    1.1750    0.6807 O   0  0  0  0  0  0  0  0  0  0  0  0
   -3.2533   -1.9992   -0.0873 C   0  0  0  0  0  0  0  0  0  0  0  0
   -4.4370    0.2910    2.0047 H   0  0  0  0  0  0  0  0  0  0  0  0
   -2.7302   -1.7467    1.9921 H   0  0  0  0  0  0  0  0  0  0  0  0
   -3.6446   -1.4140   -0.9275 H   0  0  0  0  0  0  0  0  0  0  0  0
   -2.2844   -2.4081   -0.3922 H   0  0  0  0  0  0  0  0  0  0  0  0
   -3.9388   -2.8365    0.0822 H   0  0  0  0  0  0  0  0  0  0  0  0
   -0.8768   -0.3314    0.9568 N   0  0  0  0  0  0  0  0  0  0  0  0
    0.2067    0.6285    0.7375 C   0  0  2  0  0  0  0  0  0  0  0  0
   -0.1976    1.4654   -0.4724 C   0  0  0  0  0  0  0  0  0  0  0  0
   -1.2639    1.3023   -1.0621 O   0  0  0  0  0  0  0  0  0  0  0  0
    1.5205   -0.1331    0.5070 C   0  0  0  0  0  0  0  0  0  0  0  0
    2.0144   -0.8883    1.7408 C   0  0  0  0  0  0  0  0  0  0  0  0
    3.2921   -1.6417    1.4672 C   0  0  0  0  0  0  0  0  0  0  0  0
    3.7968   -1.7468    0.3565 O   0  0  0  0  0  0  0  0  0  0  0  0
    3.8140   -2.2162    2.5790 O   0  0  0  0  0  0  0  0  0  0  0  0
   -0.6087   -1.2764    1.1771 H   0  0  0  0  0  0  0  0  0  0  0  0
    0.2947    1.2601    1.6276 H   0  0  0  0  0  0  0  0  0  0  0  0
    1.3849   -0.8465   -0.3168 H   0  0  0  0  0  0  0  0  0  0  0  0
    2.3104    0.5618    0.1928 H   0  0  0  0  0  0  0  0  0  0  0  0
    2.2319   -0.1765    2.5465 H   0  0  0  0  0  0  0  0  0  0  0  0
    1.2496   -1.5611    2.1426 H   0  0  0  0  0  0  0  0  0  0  0  0
    4.6367   -2.7321    2.4410 H   0  0  0  0  0  0  0  0  0  0  0  0
    0.7516    2.4249   -0.7925 N   0  0  0  0  0  0  0  0  0  0  0  0
    0.6055    3.3460   -1.8965 C   0  0  2  0  0  0  0  0  0  0  0  0
    1.3053    2.7434   -3.1076 C   0  0  0  0  0  0  0  0  0  0  0  0
    2.1913    1.8961   -3.0175 O   0  0  0  0  0  0  0  0  0  0  0  0
    1.1838    4.7113   -1.5582 C   0  0  0  0  0  0  0  0  0  0  0  0
    1.5905    2.4829   -0.2231 H   0  0  0  0  0  0  0  0  0  0  0  0
   -0.4679    3.4300   -2.0985 H   0  0  0  0  0  0  0  0  0  0  0  0
    2.2586    4.6472   -1.3527 H   0  0  0  0  0  0  0  0  0  0  0  0
    1.0468    5.4161   -2.3849 H   0  0  0  0  0  0  0  0  0  0  0  0
    0.6999    5.1301   -0.6692 H   0  0  0  0  0  0  0  0  0  0  0  0
    0.8542    3.2945   -4.2988 N   0  0  0  0  0  0  0  0  0  0  0  0
    1.3725    2.8976   -5.5871 C   0  0  0  0  0  0  0  0  0  0  0  0
    0.1029    3.9779   -4.2802 H   0  0  0  0  0  0  0  0  0  0  0  0
    2.2020    3.5624   -5.8698 H   0  0  0  0  0  0  0  0  0  0  0  0
    1.7360    1.8608   -5.5323 H   0  0  0  0  0  0  0  0  0  0  0  0
    0.5741    2.9669   -6.3406 H   0  0  0  0  0  0  0  0  0  0  0  0
  1  3  1  0  0  0  0
  1  7  1  0  0  0  0
  1  2  2  0  0  0  0
 34 35  1  0  0  0  0
 35 43  1  0  0  0  0
 35 36  2  0  0  0  0
  8  9  1  0  0  0  0
  9 17  1  0  0  0  0
  9 10  2  0  0  0  0
 18 19  1  0  0  0  0
 19 33  1  0  0  0  0
 19 20  2  0  0  0  0
 22 23  1  0  0  0  0
 23 24  2  0  0  0  0
 23 25  1  0  0  0  0
 34 37  1  0  0  0  0
  8 11  1  0  0  0  0
 43 44  1  0  0  0  0
 21 22  1  0  0  0  0
 18 21  1  0  0  0  0
 33 34  1  0  0  0  0
  7  8  1  0  0  0  0
 17 18  1  0  0  0  0
  3  4  1  0  0  0  0
  3  5  1  0  0  0  0
  3  6  1  0  0  0  0
 37 40  1  0  0  0  0
 37 41  1  0  0  0  0
 37 42  1  0  0  0  0
 11 14  1  0  0  0  0
 11 15  1  0  0  0  0
 11 16  1  0  0  0  0
 44 46  1  0  0  0  0
 44 47  1  0  0  0  0
 44 48  1  0  0  0  0
 22 30  1  0  0  0  0
 22 31  1  0  0  0  0
 21 28  1  0  0  0  0
 21 29  1  0  0  0  0
 34 39  1  0  0  0  0
  8 13  1  0  0  0  0
 18 27  1  0  0  0  0
 43 45  1  0  0  0  0
  7 12  1  0  0  0  0
 33 38  1  0  0  0  0
 17 26  1  0  0  0  0
 25 32  1  0  0  0  0
M  END
$$$$

  -OEChem-05262214473D

 48 47  0     1  0  0  0  0  0999 V2000
   -5.5827   -1.3473    1.4591 C   0  0  0  0  0  0  0  0  0  0  0  0
   -5.7053   -2.4696    0.9825 O   0  0  0  0  0  0  0  0  0  0  0  0
   -6.7879   -0.6277    1.9670 C   0  0  0  0  0  0  0  0  0  0  0  0
   -7.2718   -0.0164    1.1885 H   0  0  0  0  0  0  0  0  0  0  0  0
   -7.5699   -1.3171    2.3239 H   0  0  0  0  0  0  0  0  0  0  0  0
   -6.6057    0.0628    2.8060 H   0  0  0  0  0  0  0  0  0  0  0  0
   -4.4001   -0.6377    1.5884 N   0  0  0  0  0  0  0  0  0  0  0  0
   -3.1220   -1.1455    1.1644 C   0  0  2  0  0  0  0  0  0  0  0  0
   -2.2017    0.0428    0.9187 C   0  0  0  0  0  0  0  0  0  0  0  0
   -2.6171    1.1750    0.6807 O   0  0  0  0  0  0  0  0  0  0  0  0
   -3.2533   -1.9992   -0.0873 C   0  0  0  0  0  0  0  0  0  0  0  0
   -4.4370    0.2910    2.0047 H   0  0  0  0  0  0  0  0  0  0  0  0
   -2.7302   -1.7467    1.9921 H   0  0  0  0  0  0  0  0  0  0  0  0
   -3.6446   -1.4140   -0.9275 H   0  0  0  0  0  0  0  0  0  0  0  0
   -2.2844   -2.4081   -0.3922 H   0  0  0  0  0  0  0  0  0  0  0  0
   -3.9388   -2.8365    0.0822 H   0  0  0  0  0  0  0  0  0  0  0  0
   -0.8768   -0.3314    0.9568 N   0  0  0  0  0  0  0  0  0  0  0  0
    0.2067    0.6285    0.7375 C   0  0  2  0  0  0  0  0  0  0  0  0
   -0.1976    1.4654   -0.4724 C   0  0  0  0  0  0  0  0  0  0  0  0
   -1.3508    1.4986   -0.8973 O   0  0  0  0  0  0  0  0  0  0  0  0
    1.5205   -0.1331    0.5070 C   0  0  0  0  0  0  0  0  0  0  0  0
    2.0144   -0.8883    1.7408 C   0  0  0  0  0  0  0  0  0  0  0  0
    3.2921   -1.6417    1.4672 C   0  0  0  0  0  0  0  0  0  0  0  0
    3.7968   -1.7468    0.3565 O   0  0  0  0  0  0  0  0  0  0  0  0
    3.8140   -2.2162    2.5790 O   0  0  0  0  0  0  0  0  0  0  0  0
   -0.6087   -1.2764    1.1771 H   0  0  0  0  0  0  0  0  0  0  0  0
    0.2947    1.2601    1.6276 H   0  0  0  0  0  0  0  0  0  0  0  0
    1.3849   -0.8465   -0.3168 H   0  0  0  0  0  0  0  0  0  0  0  0
    2.3104    0.5618    0.1928 H   0  0  0  0  0  0  0  0  0  0  0  0
    2.2319   -0.1765    2.5465 H   0  0  0  0  0  0  0  0  0  0  0  0
    1.2496   -1.5611    2.1426 H   0  0  0  0  0  0  0  0  0  0  0  0
    4.6367   -2.7321    2.4410 H   0  0  0  0  0  0  0  0  0  0  0  0
    0.8659    2.1853   -0.9964 N   0  0  0  0  0  0  0  0  0  0  0  0
    0.7444    3.0559   -2.1436 C   0  0  2  0  0  0  0  0  0  0  0  0
    1.1207    2.2554   -3.3834 C   0  0  0  0  0  0  0  0  0  0  0  0
    1.8223    1.2468   -3.3433 O   0  0  0  0  0  0  0  0  0  0  0  0
    1.6282    4.2852   -2.0014 C   0  0  0  0  0  0  0  0  0  0  0  0
    1.7748    2.0962   -0.5521 H   0  0  0  0  0  0  0  0  0  0  0  0
   -0.3083    3.3526   -2.2053 H   0  0  0  0  0  0  0  0  0  0  0  0
    2.6868    4.0078   -1.9381 H   0  0  0  0  0  0  0  0  0  0  0  0
    1.5135    4.9576   -2.8580 H   0  0  0  0  0  0  0  0  0  0  0  0
    1.3761    4.8436   -1.0934 H   0  0  0  0  0  0  0  0  0  0  0  0
    0.6166    2.8242   -4.5447 N   0  0  0  0  0  0  0  0  0  0  0  0
    0.8469    2.2585   -5.8535 C   0  0  0  0  0  0  0  0  0  0  0  0
    0.0288    3.6502   -4.4822 H   0  0  0  0  0  0  0  0  0  0  0  0
    1.7411    2.7179   -6.2999 H   0  0  0  0  0  0  0  0  0  0  0  0
    0.9994    1.1729   -5.7620 H   0  0  0  0  0  0  0  0  0  0  0  0
   -0.0247    2.4534   -6.4956 H   0  0  0  0  0  0  0  0  0  0  0  0
  1  3  1  0  0  0  0
  1  7  1  0  0  0  0
  1  2  2  0  0  0  0
 34 35  1  0  0  0  0
 35 43  1  0  0  0  0
 35 36  2  0  0  0  0
  8  9  1  0  0  0  0
  9 17  1  0  0  0  0
  9 10  2  0  0  0  0
 18 19  1  0  0  0  0
 19 33  1  0  0  0  0
 19 20  2  0  0  0  0
 22 23  1  0  0  0  0
 23 24  2  0  0  0  0
 23 25  1  0  0  0  0
 34 37  1  0  0  0  0
  8 11  1  0  0  0  0
 43 44  1  0  0  0  0
 21 22  1  0  0  0  0
 18 21  1  0  0  0  0
 33 34  1  0  0  0  0
  7  8  1  0  0  0  0
 17 18  1  0  0  0  0
  3  4  1  0  0  0  0
  3  5  1  0  0  0  0
  3  6  1  0  0  0  0
 37 40  1  0  0  0  0
 37 41  1  0  0  0  0
 37 42  1  0  0  0  0
 11 14  1  0  0  0  0
 11 15  1  0  0  0  0
 11 16  1  0  0  0  0
 44 46  1  0  0  0  0
 44 47  1  0  0  0  0
 44 48  1  0  0  0  0
 22 30  1  0  0  0  0
 22 31  1  0  0  0  0
 21 28  1  0  0  0  0
 21 29  1  0  0  0  0
 34 39  1  0  0  0  0
  8 13  1  0  0  0  0
 18 27  1  0  0  0  0
 43 45  1  0  0  0  0
  7 12  1  0  0  0  0
 33 38  1  0  0  0  0
 17 26  1  0  0  0  0
 25 32  1  0  0  0  0
M  END
$$$$

  -OEChem-05262214473D

 48 47  0     1  0  0  0  0  0999 V2000
   -5.5827   -1.3473    1.4591 C   0  0  0  0  0  0  0  0  0  0  0  0
   -5.7053   -2.4696    0.9825 O   0  0  0  0  0  0  0  0  0  0  0  0
   -6.7879   -0.6277    1.9670 C   0  0  0  0  0  0  0  0  0  0  0  0
   -7.2718   -0.0164    1.1885 H   0  0  0  0  0  0  0  0  0  0  0  0
   -7.5699   -1.3171    2.3239 H   0  0  0  0  0  0  0  0  0  0  0  0
   -6.6057    0.0628    2.8060 H   0  0  0  0  0  0  0  0  0  0  0  0
   -4.4001   -0.6377    1.5884 N   0  0  0  0  0  0  0  0  0  0  0  0
   -3.1220   -1.1455    1.1644 C   0  0  2  0  0  0  0  0  0  0  0  0
   -2.2017    0.0428    0.9187 C   0  0  0  0  0  0  0  0  0  0  0  0
   -2.6171    1.1750    0.6807 O   0  0  0  0  0  0  0  0  0  0  0  0
   -3.2533   -1.9992   -0.0873 C   0  0  0  0  0  0  0  0  0  0  0  0
   -4.4370    0.2910    2.0047 H   0  0  0  0  0  0  0  0  0  0  0  0
   -2.7302   -1.7467    1.9921 H   0  0  0  0  0  0  0  0  0  0  0  0
   -3.6446   -1.4140   -0.9275 H   0  0  0  0  0  0  0  0  0  0  0  0
   -2.2844   -2.4081   -0.3922 H   0  0  0  0  0  0  0  0  0  0  0  0
   -3.9388   -2.8365    0.0822 H   0  0  0  0  0  0  0  0  0  0  0  0
   -0.8768   -0.3314    0.9568 N   0  0  0  0  0  0  0  0  0  0  0  0
    0.2067    0.6285    0.7375 C   0  0  2  0  0  0  0  0  0  0  0  0
   -0.1976    1.4654   -0.4724 C   0  0  0  0  0  0  0  0  0  0  0  0
   -1.3710    1.7174   -0.7393 O   0  0  0  0  0  0  0  0  0  0  0  0
    1.5205   -0.1331    0.5070 C   0  0  0  0  0  0  0  0  0  0  0  0
    2.0144   -0.8883    1.7408 C   0  0  0  0  0  0  0  0  0  0  0  0
    3.2921   -1.6417    1.4672 C   0  0  0  0  0  0  0  0  0  0  0  0
    3.7968   -1.7468    0.3565 O   0  0  0  0  0  0  0  0  0  0  0  0
    3.8140   -2.2162    2.5790 O   0  0  0  0  0  0  0  0  0  0  0  0
   -0.6087   -1.2764    1.1771 H   0  0  0  0  0  0  0  0  0  0  0  0
    0.2947    1.2601    1.6276 H   0  0  0  0  0  0  0  0  0  0  0  0
    1.3849   -0.8465   -0.3168 H   0  0  0  0  0  0  0  0  0  0  0  0
    2.3104    0.5618    0.1928 H   0  0  0  0  0  0  0  0  0  0  0  0
    2.2319   -0.1765    2.5465 H   0  0  0  0  0  0  0  0  0  0  0  0
    1.2496   -1.5611    2.1426 H   0  0  0  0  0  0  0  0  0  0  0  0
    4.6367   -2.7321    2.4410 H   0  0  0  0  0  0  0  0  0  0  0  0
    0.8983    1.9164   -1.1932 N   0  0  0  0  0  0  0  0  0  0  0  0
    0.7839    2.7301   -2.3821 C   0  0  2  0  0  0  0  0  0  0  0  0
    0.8030    1.8030   -3.5902 C   0  0  0  0  0  0  0  0  0  0  0  0
    1.2864    0.6731   -3.5611 O   0  0  0  0  0  0  0  0  0  0  0  0
    1.9071    3.7521   -2.4634 C   0  0  0  0  0  0  0  0  0  0  0  0
    1.8267    1.6623   -0.8696 H   0  0  0  0  0  0  0  0  0  0  0  0
   -0.1853    3.2377   -2.3259 H   0  0  0  0  0  0  0  0  0  0  0  0
    2.8860    3.2621   -2.5204 H   0  0  0  0  0  0  0  0  0  0  0  0
    1.8030    4.3865   -3.3498 H   0  0  0  0  0  0  0  0  0  0  0  0
    1.9102    4.3989   -1.5794 H   0  0  0  0  0  0  0  0  0  0  0  0
    0.2556    2.4017   -4.7163 N   0  0  0  0  0  0  0  0  0  0  0  0
    0.1701    1.7307   -5.9924 C   0  0  0  0  0  0  0  0  0  0  0  0
   -0.1388    3.3350   -4.6442 H   0  0  0  0  0  0  0  0  0  0  0  0
    1.0614    1.9672   -6.5920 H   0  0  0  0  0  0  0  0  0  0  0  0
    0.1140    0.6439   -5.8320 H   0  0  0  0  0  0  0  0  0  0  0  0
   -0.7306    2.0697   -6.5252 H   0  0  0  0  0  0  0  0  0  0  0  0
  1  3  1  0  0  0  0
  1  7  1  0  0  0  0
  1  2  2  0  0  0  0
 34 35  1  0  0  0  0
 35 43  1  0  0  0  0
 35 36  2  0  0  0  0
  8  9  1  0  0  0  0
  9 17  1  0  0  0  0
  9 10  2  0  0  0  0
 18 19  1  0  0  0  0
 19 33  1  0  0  0  0
 19 20  2  0  0  0  0
 22 23  1  0  0  0  0
 23 24  2  0  0  0  0
 23 25  1  0  0  0  0
 34 37  1  0  0  0  0
  8 11  1  0  0  0  0
 43 44  1  0  0  0  0
 21 22  1  0  0  0  0
 18 21  1  0  0  0  0
 33 34  1  0  0  0  0
  7  8  1  0  0  0  0
 17 18  1  0  0  0  0
  3  4  1  0  0  0  0
  3  5  1  0  0  0  0
  3  6  1  0  0  0  0
 37 40  1  0  0  0  0
 37 41  1  0  0  0  0
 37 42  1  0  0  0  0
 11 14  1  0  0  0  0
 11 15  1  0  0  0  0
 11 16  1  0  0  0  0
 44 46  1  0  0  0  0
 44 47  1  0  0  0  0
 44 48  1  0  0  0  0
 22 30  1  0  0  0  0
 22 31  1  0  0  0  0
 21 28  1  0  0  0  0
 21 29  1  0  0  0  0
 34 39  1  0  0  0  0
  8 13  1  0  0  0  0
 18 27  1  0  0  0  0
 43 45  1  0  0  0  0
  7 12  1  0  0  0  0
 33 38  1  0  0  0  0
 17 26  1  0  0  0  0
 25 32  1  0  0  0  0
M  END
$$$$

  -OEChem-05262214473D

 48 47  0     1  0  0  0  0  0999 V2000
   -5.5827   -1.3473    1.4591 C   0  0  0  0  0  0  0  0  0  0  0  0
   -5.7053   -2.4696    0.9825 O   0  0  0  0  0  0  0  0  0  0  0  0
   -6.7879   -0.6277    1.9670 C   0  0  0  0  0  0  0  0  0  0  0  0
   -7.2718   -0.0164    1.1885 H   0  0  0  0  0  0  0  0  0  0  0  0
   -7.5699   -1.3171    2.3239 H   0  0  0  0  0  0  0  0  0  0  0  0
   -6.6057    0.0628    2.8060 H   0  0  0  0  0  0  0  0  0  0  0  0
   -4.4001   -0.6377    1.5884 N   0  0  0  0  0  0  0  0  0  0  0  0
   -3.1220   -1.1455    1.1644 C   0  0  2  0  0  0  0  0  0  0  0  0
   -2.2017    0.0428    0.9187 C   0  0  0  0  0  0  0  0  0  0  0  0
   -2.6171    1.1750    0.6807 O   0  0  0  0  0  0  0  0  0  0  0  0
   -3.2533   -1.9992   -0.0873 C   0  0  0  0  0  0  0  0  0  0  0  0
   -4.4370    0.2910    2.0047 H   0  0  0  0  0  0  0  0  0  0  0  0
   -2.7302   -1.7467    1.9921 H   0  0  0  0  0  0  0  0  0  0  0  0
   -3.6446   -1.4140   -0.9275 H   0  0  0  0  0  0  0  0  0  0  0  0
   -2.2844   -2.4081   -0.3922 H   0  0  0  0  0  0  0  0  0  0  0  0
   -3.9388   -2.8365    0.0822 H   0  0  0  0  0  0  0  0  0  0  0  0
   -0.8768   -0.3314    0.9568 N   0  0  0  0  0  0  0  0  0  0  0  0
    0.2067    0.6285    0.7375 C   0  0  2  0  0  0  0  0  0  0  0  0
   -0.1976    1.4654   -0.4724 C   0  0  0  0  0  0  0  0  0  0  0  0
   -1.3231    1.9437   -0.5987 O   0  0  0  0  0  0  0  0  0  0  0  0
    1.5205   -0.1331    0.5070 C   0  0  0  0  0  0  0  0  0  0  0  0
    2.0144   -0.8883    1.7408 C   0  0  0  0  0  0  0  0  0  0  0  0
    3.2921   -1.6417    1.4672 C   0  0  0  0  0  0  0  0  0  0  0  0
    3.7968   -1.7468    0.3565 O   0  0  0  0  0  0  0  0  0  0  0  0
    3.8140   -2.2162    2.5790 O   0  0  0  0  0  0  0  0  0  0  0  0
   -0.6087   -1.2764    1.1771 H   0  0  0  0  0  0  0  0  0  0  0  0
    0.2947    1.2601    1.6276 H   0  0  0  0  0  0  0  0  0  0  0  0
    1.3849   -0.8465   -0.3168 H   0  0  0  0  0  0  0  0  0  0  0  0
    2.3104    0.5618    0.1928 H   0  0  0  0  0  0  0  0  0  0  0  0
    2.2319   -0.1765    2.5465 H   0  0  0  0  0  0  0  0  0  0  0  0
    1.2496   -1.5611    2.1426 H   0  0  0  0  0  0  0  0  0  0  0  0
    4.6367   -2.7321    2.4410 H   0  0  0  0  0  0  0  0  0  0  0  0
    0.8464    1.6365   -1.3695 N   0  0  0  0  0  0  0  0  0  0  0  0
    0.7213    2.3910   -2.5958 C   0  0  2  0  0  0  0  0  0  0  0  0
    0.3739    1.4170   -3.7138 C   0  0  0  0  0  0  0  0  0  0  0  0
    0.6200    0.2140   -3.6560 O   0  0  0  0  0  0  0  0  0  0  0  0
    2.0015    3.1481   -2.9127 C   0  0  0  0  0  0  0  0  0  0  0  0
    1.7428    1.2107   -1.1539 H   0  0  0  0  0  0  0  0  0  0  0  0
   -0.1071    3.0933   -2.4519 H   0  0  0  0  0  0  0  0  0  0  0  0
    2.8428    2.4611   -3.0601 H   0  0  0  0  0  0  0  0  0  0  0  0
    1.8956    3.7417   -3.8267 H   0  0  0  0  0  0  0  0  0  0  0  0
    2.2659    3.8264   -2.0943 H   0  0  0  0  0  0  0  0  0  0  0  0
   -0.2041    2.0560   -4.8018 N   0  0  0  0  0  0  0  0  0  0  0  0
   -0.6116    1.3504   -5.9943 C   0  0  0  0  0  0  0  0  0  0  0  0
   -0.3883    3.0538   -4.7553 H   0  0  0  0  0  0  0  0  0  0  0  0
    0.2094    1.3616   -6.7263 H   0  0  0  0  0  0  0  0  0  0  0  0
   -0.8597    0.3099   -5.7378 H   0  0  0  0  0  0  0  0  0  0  0  0
   -1.4953    1.8420   -6.4272 H   0  0  0  0  0  0  0  0  0  0  0  0
  1  3  1  0  0  0  0
  1  7  1  0  0  0  0
  1  2  2  0  0  0  0
 34 35  1  0  0  0  0
 35 43  1  0  0  0  0
 35 36  2  0  0  0  0
  8  9  1  0  0  0  0
  9 17  1  0  0  0  0
  9 10  2  0  0  0  0
 18 19  1  0  0  0  0
 19 33  1  0  0  0  0
 19 20  2  0  0  0  0
 22 23  1  0  0  0  0
 23 24  2  0  0  0  0
 23 25  1  0  0  0  0
 34 37  1  0  0  0  0
  8 11  1  0  0  0  0
 43 44  1  0  0  0  0
 21 22  1  0  0  0  0
 18 21  1  0  0  0  0
 33 34  1  0  0  0  0
  7  8  1  0  0  0  0
 17 18  1  0  0  0  0
  3  4  1  0  0  0  0
  3  5  1  0  0  0  0
  3  6  1  0  0  0  0
 37 40  1  0  0  0  0
 37 41  1  0  0  0  0
 37 42  1  0  0  0  0
 11 14  1  0  0  0  0
 11 15  1  0  0  0  0
 11 16  1  0  0  0  0
 44 46  1  0  0  0  0
 44 47  1  0  0  0  0
 44 48  1  0  0  0  0
 22 30  1  0  0  0  0
 22 31  1  0  0  0  0
 21 28  1  0  0  0  0
 21 29  1  0  0  0  0
 34 39  1  0  0  0  0
  8 13  1  0  0  0  0
 18 27  1  0  0  0  0
 43 45  1  0  0  0  0
  7 12  1  0  0  0  0
 33 38  1  0  0  0  0
 17 26  1  0  0  0  0
 25 32  1  0  0  0  0
M  END
$$$$

  -OEChem-05262214473D

 48 47  0     1  0  0  0  0  0999 V2000
   -5.5827   -1.3473    1.4591 C   0  0  0  0  0  0  0  0  0  0  0  0
   -5.7053   -2.4696    0.9825 O   0  0  0  0  0  0  0  0  0  0  0  0
   -6.7879   -0.6277    1.9670 C   0  0  0  0  0  0  0  0  0  0  0  0
   -7.2718   -0.0164    1.1885 H   0  0  0  0  0  0  0  0  0  0  0  0
   -7.5699   -1.3171    2.3239 H   0  0  0  0  0  0  0  0  0  0  0  0
   -6.6057    0.0628    2.8060 H   0  0  0  0  0  0  0  0  0  0  0  0
   -4.4001   -0.6377    1.5884 N   0  0  0  0  0  0  0  0  0  0  0  0
   -3.1220   -1.1455    1.1644 C   0  0  2  0  0  0  0  0  0  0  0  0
   -2.2017    0.0428    0.9187 C   0  0  0  0  0  0  0  0  0  0  0  0
   -2.6171    1.1750    0.6807 O   0  0  0  0  0  0  0  0  0  0  0  0
   -3.2533   -1.9992   -0.0873 C   0  0  0  0  0  0  0  0  0  0  0  0
   -4.4370    0.2910    2.0047 H   0  0  0  0  0  0  0  0  0  0  0  0
   -2.7302   -1.7467    1.9921 H   0  0  0  0  0  0  0  0  0  0  0  0
   -3.6446   -1.4140   -0.9275 H   0  0  0  0  0  0  0  0  0  0  0  0
   -2.2844   -2.4081   -0.3922 H   0  0  0  0  0  0  0  0  0  0  0  0
   -3.9388   -2.8365    0.0822 H   0  0  0  0  0  0  0  0  0  0  0  0
   -0.8768   -0.3314    0.9568 N   0  0  0  0  0  0  0  0  0  0  0  0
    0.2067    0.6285    0.7375 C   0  0  2  0  0  0  0  0  0  0  0  0
   -0.1976    1.4654   -0.4724 C   0  0  0  0  0  0  0  0  0  0  0  0
   -1.2105    2.1621   -0.4853 O   0  0  0  0  0  0  0  0  0  0  0  0
    1.5205   -0.1331    0.5070 C   0  0  0  0  0  0  0  0  0  0  0  0
    2.0144   -0.8883    1.7408 C   0  0  0  0  0  0  0  0  0  0  0  0
    3.2921   -1.6417    1.4672 C   0  0  0  0  0  0  0  0  0  0  0  0
    3.7968   -1.7468    0.3565 O   0  0  0  0  0  0  0  0  0  0  0  0
    3.8140   -2.2162    2.5790 O   0  0  0  0  0  0  0  0  0  0  0  0
   -0.6087   -1.2764    1.1771 H   0  0  0  0  0  0  0  0  0  0  0  0
    0.2947    1.2601    1.6276 H   0  0  0  0  0  0  0  0  0  0  0  0
    1.3849   -0.8465   -0.3168 H   0  0  0  0  0  0  0  0  0  0  0  0
    2.3104    0.5618    0.1928 H   0  0  0  0  0  0  0  0  0  0  0  0
    2.2319   -0.1765    2.5465 H   0  0  0  0  0  0  0  0  0  0  0  0
    1.2496   -1.5611    2.1426 H   0  0  0  0  0  0  0  0  0  0  0  0
    4.6367   -2.7321    2.4410 H   0  0  0  0  0  0  0  0  0  0  0  0
    0.7138    1.3648   -1.5131 N   0  0  0  0  0  0  0  0  0  0  0  0
    0.5609    2.0617   -2.7700 C   0  0  2  0  0  0  0  0  0  0  0  0
   -0.1373    1.1238   -3.7459 C   0  0  0  0  0  0  0  0  0  0  0  0
   -0.1313   -0.0992   -3.6216 O   0  0  0  0  0  0  0  0  0  0  0  0
    1.9050    2.5146   -3.3186 C   0  0  0  0  0  0  0  0  0  0  0  0
    1.5287    0.7723   -1.3857 H   0  0  0  0  0  0  0  0  0  0  0  0
   -0.0791    2.9291   -2.5749 H   0  0  0  0  0  0  0  0  0  0  0  0
    2.5600    1.6591   -3.5203 H   0  0  0  0  0  0  0  0  0  0  0  0
    1.7849    3.0672   -4.2563 H   0  0  0  0  0  0  0  0  0  0  0  0
    2.4189    3.1652   -2.6028 H   0  0  0  0  0  0  0  0  0  0  0  0
   -0.7313    1.8106   -4.7954 N   0  0  0  0  0  0  0  0  0  0  0  0
   -1.4451    1.1433   -5.8591 C   0  0  0  0  0  0  0  0  0  0  0  0
   -0.7029    2.8259   -4.8079 H   0  0  0  0  0  0  0  0  0  0  0  0
   -0.7569    0.9424   -6.6934 H   0  0  0  0  0  0  0  0  0  0  0  0
   -1.8554    0.1935   -5.4855 H   0  0  0  0  0  0  0  0  0  0  0  0
   -2.2669    1.7857   -6.2083 H   0  0  0  0  0  0  0  0  0  0  0  0
  1  3  1  0  0  0  0
  1  7  1  0  0  0  0
  1  2  2  0  0  0  0
 34 35  1  0  0  0  0
 35 43  1  0  0  0  0
 35 36  2  0  0  0  0
  8  9  1  0  0  0  0
  9 17  1  0  0  0  0
  9 10  2  0  0  0  0
 18 19  1  0  0  0  0
 19 33  1  0  0  0  0
 19 20  2  0  0  0  0
 22 23  1  0  0  0  0
 23 24  2  0  0  0  0
 23 25  1  0  0  0  0
 34 37  1  0  0  0  0
  8 11  1  0  0  0  0
 43 44  1  0  0  0  0
 21 22  1  0  0  0  0
 18 21  1  0  0  0  0
 33 34  1  0  0  0  0
  7  8  1  0  0  0  0
 17 18  1  0  0  0  0
  3  4  1  0  0  0  0
  3  5  1  0  0  0  0
  3  6  1  0  0  0  0
 37 40  1  0  0  0  0
 37 41  1  0  0  0  0
 37 42  1  0  0  0  0
 11 14  1  0  0  0  0
 11 15  1  0  0  0  0
 11 16  1  0  0  0  0
 44 46  1  0  0  0  0
 44 47  1  0  0  0  0
 44 48  1  0  0  0  0
 22 30  1  0  0  0  0
 22 31  1  0  0  0  0
 21 28  1  0  0  0  0
 21 29  1  0  0  0  0
 34 39  1  0  0  0  0
  8 13  1  0  0  0  0
 18 27  1  0  0  0  0
 43 45  1  0  0  0  0
  7 12  1  0  0  0  0
 33 38  1  0  0  0  0
 17 26  1  0  0  0  0
 25 32  1  0  0  0  0
M  END
$$$$

  -OEChem-05262214473D

 48 47  0     1  0  0  0  0  0999 V2000
   -5.5827   -1.3473    1.4591 C   0  0  0  0  0  0  0  0  0  0  0  0
   -5.7053   -2.4696    0.9825 O   0  0  0  0  0  0  0  0  0  0  0  0
   -6.7879   -0.6277    1.9670 C   0  0  0  0  0  0  0  0  0  0  0  0
   -7.2718   -0.0164    1.1885 H   0  0  0  0  0  0  0  0  0  0  0  0
   -7.5699   -1.3171    2.3239 H   0  0  0  0  0  0  0  0  0  0  0  0
   -6.6057    0.0628    2.8060 H   0  0  0  0  0  0  0  0  0  0  0  0
   -4.4001   -0.6377    1.5884 N   0  0  0  0  0  0  0  0  0  0  0  0
   -3.1220   -1.1455    1.1644 C   0  0  2  0  0  0  0  0  0  0  0  0
   -2.2017    0.0428    0.9187 C   0  0  0  0  0  0  0  0  0  0  0  0
   -2.6171    1.1750    0.6807 O   0  0  0  0  0  0  0  0  0  0  0  0
   -3.2533   -1.9992   -0.0873 C   0  0  0  0  0  0  0  0  0  0  0  0
   -4.4370    0.2910    2.0047 H   0  0  0  0  0  0  0  0  0  0  0  0
   -2.7302   -1.7467    1.9921 H   0  0  0  0  0  0  0  0  0  0  0  0
   -3.6446   -1.4140   -0.9275 H   0  0  0  0  0  0  0  0  0  0  0  0
   -2.2844   -2.4081   -0.3922 H   0  0  0  0  0  0  0  0  0  0  0  0
   -3.9388   -2.8365    0.0822 H   0  0  0  0  0  0  0  0  0  0  0  0
   -0.8768   -0.3314    0.9568 N   0  0  0  0  0  0  0  0  0  0  0  0
    0.2067    0.6285    0.7375 C   0  0  2  0  0  0  0  0  0  0  0  0
   -0.1976    1.4654   -0.4724 C   0  0  0  0  0  0  0  0  0  0  0  0
   -1.0408    2.3577   -0.4067 O   0  0  0  0  0  0  0  0  0  0  0  0
    1.5205   -0.1331    0.5070 C   0  0  0  0  0  0  0  0  0  0  0  0
    2.0144   -0.8883    1.7408 C   0  0  0  0  0  0  0  0  0  0  0  0
    3.2921   -1.6417    1.4672 C   0  0  0  0  0  0  0  0  0  0  0  0
    3.7968   -1.7468    0.3565 O   0  0  0  0  0  0  0  0  0  0  0  0
    3.8140   -2.2162    2.5790 O   0  0  0  0  0  0  0  0  0  0  0  0
   -0.6087   -1.2764    1.1771 H   0  0  0  0  0  0  0  0  0  0  0  0
    0.2947    1.2601    1.6276 H   0  0  0  0  0  0  0  0  0  0  0  0
    1.3849   -0.8465   -0.3168 H   0  0  0  0  0  0  0  0  0  0  0  0
    2.3104    0.5618    0.1928 H   0  0  0  0  0  0  0  0  0  0  0  0
    2.2319   -0.1765    2.5465 H   0  0  0  0  0  0  0  0  0  0  0  0
    1.2496   -1.5611    2.1426 H   0  0  0  0  0  0  0  0  0  0  0  0
    4.6367   -2.7321    2.4410 H   0  0  0  0  0  0  0  0  0  0  0  0
    0.5096    1.1197   -1.6144 N   0  0  0  0  0  0  0  0  0  0  0  0
    0.3136    1.7645   -2.8929 C   0  0  2  0  0  0  0  0  0  0  0  0
   -0.6958    0.9433   -3.6841 C   0  0  0  0  0  0  0  0  0  0  0  0
   -0.9165   -0.2451   -3.4602 O   0  0  0  0  0  0  0  0  0  0  0  0
    1.6240    1.8946   -3.6536 C   0  0  0  0  0  0  0  0  0  0  0  0
    1.1989    0.3768   -1.5490 H   0  0  0  0  0  0  0  0  0  0  0  0
   -0.1033    2.7563   -2.6863 H   0  0  0  0  0  0  0  0  0  0  0  0
    2.0568    0.9110   -3.8697 H   0  0  0  0  0  0  0  0  0  0  0  0
    1.4786    2.4089   -4.6093 H   0  0  0  0  0  0  0  0  0  0  0  0
    2.3588    2.4602   -3.0704 H   0  0  0  0  0  0  0  0  0  0  0  0
   -1.2900    1.6821   -4.6976 N   0  0  0  0  0  0  0  0  0  0  0  0
   -2.2734    1.1236   -5.5959 C   0  0  0  0  0  0  0  0  0  0  0  0
   -1.0609    2.6666   -4.7984 H   0  0  0  0  0  0  0  0  0  0  0  0
   -1.7717    0.7380   -6.4957 H   0  0  0  0  0  0  0  0  0  0  0  0
   -2.8053    0.3028   -5.0926 H   0  0  0  0  0  0  0  0  0  0  0  0
   -2.9926    1.9047   -5.8835 H   0  0  0  0  0  0  0  0  0  0  0  0
  1  3  1  0  0  0  0
  1  7  1  0  0  0  0
  1  2  2  0  0  0  0
 34 35  1  0  0  0  0
 35 43  1  0  0  0  0
 35 36  2  0  0  0  0
  8  9  1  0  0  0  0
  9 17  1  0  0  0  0
  9 10  2  0  0  0  0
 18 19  1  0  0  0  0
 19 33  1  0  0  0  0
 19 20  2  0  0  0  0
 22 23  1  0  0  0  0
 23 24  2  0  0  0  0
 23 25  1  0  0  0  0
 34 37  1  0  0  0  0
  8 11  1  0  0  0  0
 43 44  1  0  0  0  0
 21 22  1  0  0  0  0
 18 21  1  0  0  0  0
 33 34  1  0  0  0  0
  7  8  1  0  0  0  0
 17 18  1  0  0  0  0
  3  4  1  0  0  0  0
  3  5  1  0  0  0  0
  3  6  1  0  0  0  0
 37 40  1  0  0  0  0
 37 41  1  0  0  0  0
 37 42  1  0  0  0  0
 11 14  1  0  0  0  0
 11 15  1  0  0  0  0
 11 16  1  0  0  0  0
 44 46  1  0  0  0  0
 44 47  1  0  0  0  0
 44 48  1  0  0  0  0
 22 30  1  0  0  0  0
 22 31  1  0  0  0  0
 21 28  1  0  0  0  0
 21 29  1  0  0  0  0
 34 39  1  0  0  0  0
  8 13  1  0  0  0  0
 18 27  1  0  0  0  0
 43 45  1  0  0  0  0
  7 12  1  0  0  0  0
 33 38  1  0  0  0  0
 17 26  1  0  0  0  0
 25 32  1  0  0  0  0
M  END
$$$$

  -OEChem-05262214473D

 48 47  0     1  0  0  0  0  0999 V2000
   -5.5827   -1.3473    1.4591 C   0  0  0  0  0  0  0  0  0  0  0  0
   -5.7053   -2.4696    0.9825 O   0  0  0  0  0  0  0  0  0  0  0  0
   -6.7879   -0.6277    1.9670 C   0  0  0  0  0  0  0  0  0  0  0  0
   -7.2718   -0.0164    1.1885 H   0  0  0  0  0  0  0  0  0  0  0  0
   -7.5699   -1.3171    2.3239 H   0  0  0  0  0  0  0  0  0  0  0  0
   -6.6057    0.0628    2.8060 H   0  0  0  0  0  0  0  0  0  0  0  0
   -4.4001   -0.6377    1.5884 N   0  0  0  0  0  0  0  0  0  0  0  0
   -3.1220   -1.1455    1.1644 C   0  0  2  0  0  0  0  0  0  0  0  0
   -2.2017    0.0428    0.9187 C   0  0  0  0  0  0  0  0  0  0  0  0
   -2.6171    1.1750    0.6807 O   0  0  0  0  0  0  0  0  0  0  0  0
   -3.2533   -1.9992   -0.0873 C   0  0  0  0  0  0  0  0  0  0  0  0
   -4.4370    0.2910    2.0047 H   0  0  0  0  0  0  0  0  0  0  0  0
   -2.7302   -1.7467    1.9921 H   0  0  0  0  0  0  0  0  0  0  0  0
   -3.6446   -1.4140   -0.9275 H   0  0  0  0  0  0  0  0  0  0  0  0
   -2.2844   -2.4081   -0.3922 H   0  0  0  0  0  0  0  0  0  0  0  0
   -3.9388   -2.8365    0.0822 H   0  0  0  0  0  0  0  0  0  0  0  0
   -0.8768   -0.3314    0.9568 N   0  0  0  0  0  0  0  0  0  0  0  0
    0.2067    0.6285    0.7375 C   0  0  2  0  0  0  0  0  0  0  0  0
   -0.1976    1.4654   -0.4724 C   0  0  0  0  0  0  0  0  0  0  0  0
   -0.8256    2.5172   -0.3682 O   0  0  0  0  0  0  0  0  0  0  0  0
    1.5205   -0.1331    0.5070 C   0  0  0  0  0  0  0  0  0  0  0  0
    2.0144   -0.8883    1.7408 C   0  0  0  0  0  0  0  0  0  0  0  0
    3.2921   -1.6417    1.4672 C   0  0  0  0  0  0  0  0  0  0  0  0
    3.7968   -1.7468    0.3565 O   0  0  0  0  0  0  0  0  0  0  0  0
    3.8140   -2.2162    2.5790 O   0  0  0  0  0  0  0  0  0  0  0  0
   -0.6087   -1.2764    1.1771 H   0  0  0  0  0  0  0  0  0  0  0  0
    0.2947    1.2601    1.6276 H   0  0  0  0  0  0  0  0  0  0  0  0
    1.3849   -0.8465   -0.3168 H   0  0  0  0  0  0  0  0  0  0  0  0
    2.3104    0.5618    0.1928 H   0  0  0  0  0  0  0  0  0  0  0  0
    2.2319   -0.1765    2.5465 H   0  0  0  0  0  0  0  0  0  0  0  0
    1.2496   -1.5611    2.1426 H   0  0  0  0  0  0  0  0  0  0  0  0
    4.6367   -2.7321    2.4410 H   0  0  0  0  0  0  0  0  0  0  0  0
    0.2476    0.9179   -1.6665 N   0  0  0  0  0  0  0  0  0  0  0  0
   -0.0036    1.5198   -2.9562 C   0  0  2  0  0  0  0  0  0  0  0  0
   -1.2636    0.8878   -3.5328 C   0  0  0  0  0  0  0  0  0  0  0  0
   -1.6819   -0.2139   -3.1829 O   0  0  0  0  0  0  0  0  0  0  0  0
    1.1779    1.3305   -3.8948 C   0  0  0  0  0  0  0  0  0  0  0  0
    0.7761    0.0513   -1.6329 H   0  0  0  0  0  0  0  0  0  0  0  0
   -0.1779    2.5867   -2.7787 H   0  0  0  0  0  0  0  0  0  0  0  0
    1.3677    0.2677   -4.0844 H   0  0  0  0  0  0  0  0  0  0  0  0
    0.9975    1.8117   -4.8617 H   0  0  0  0  0  0  0  0  0  0  0  0
    2.0896    1.7595   -3.4651 H   0  0  0  0  0  0  0  0  0  0  0  0
   -1.8421    1.6795   -4.5150 N   0  0  0  0  0  0  0  0  0  0  0  0
   -3.0402    1.2927   -5.2228 C   0  0  0  0  0  0  0  0  0  0  0  0
   -1.4381    2.5869   -4.7275 H   0  0  0  0  0  0  0  0  0  0  0  0
   -2.7659    0.7624   -6.1466 H   0  0  0  0  0  0  0  0  0  0  0  0
   -3.6446    0.6303   -4.5856 H   0  0  0  0  0  0  0  0  0  0  0  0
   -3.6230    2.1908   -5.4749 H   0  0  0  0  0  0  0  0  0  0  0  0
  1  3  1  0  0  0  0
  1  7  1  0  0  0  0
  1  2  2  0  0  0  0
 34 35  1  0  0  0  0
 35 43  1  0  0  0  0
 35 36  2  0  0  0  0
  8  9  1  0  0  0  0
  9 17  1  0  0  0  0
  9 10  2  0  0  0  0
 18 19  1  0  0  0  0
 19 33  1  0  0  0  0
 19 20  2  0  0  0  0
 22 23  1  0  0  0  0
 23 24  2  0  0  0  0
 23 25  1  0  0  0  0
 34 37  1  0  0  0  0
  8 11  1  0  0  0  0
 43 44  1  0  0  0  0
 21 22  1  0  0  0  0
 18 21  1  0  0  0  0
 33 34  1  0  0  0  0
  7  8  1  0  0  0  0
 17 18  1  0  0  0  0
  3  4  1  0  0  0  0
  3  5  1  0  0  0  0
  3  6  1  0  0  0  0
 37 40  1  0  0  0  0
 37 41  1  0  0  0  0
 37 42  1  0  0  0  0
 11 14  1  0  0  0  0
 11 15  1  0  0  0  0
 11 16  1  0  0  0  0
 44 46  1  0  0  0  0
 44 47  1  0  0  0  0
 44 48  1  0  0  0  0
 22 30  1  0  0  0  0
 22 31  1  0  0  0  0
 21 28  1  0  0  0  0
 21 29  1  0  0  0  0
 34 39  1  0  0  0  0
  8 13  1  0  0  0  0
 18 27  1  0  0  0  0
 43 45  1  0  0  0  0
  7 12  1  0  0  0  0
 33 38  1  0  0  0  0
 17 26  1  0  0  0  0
 25 32  1  0  0  0  0
M  END
$$$$

  -OEChem-05262214473D

 48 47  0     1  0  0  0  0  0999 V2000
   -5.5827   -1.3473    1.4591 C   0  0  0  0  0  0  0  0  0  0  0  0
   -5.7053   -2.4696    0.9825 O   0  0  0  0  0  0  0  0  0  0  0  0
   -6.7879   -0.6277    1.9670 C   0  0  0  0  0  0  0  0  0  0  0  0
   -7.2718   -0.0164    1.1885 H   0  0  0  0  0  0  0  0  0  0  0  0
   -7.5699   -1.3171    2.3239 H   0  0  0  0  0  0  0  0  0  0  0  0
   -6.6057    0.0628    2.8060 H   0  0  0  0  0  0  0  0  0  0  0  0
   -4.4001   -0.6377    1.5884 N   0  0  0  0  0  0  0  0  0  0  0  0
   -3.1220   -1.1455    1.1644 C   0  0  2  0  0  0  0  0  0  0  0  0
   -2.2017    0.0428    0.9187 C   0  0  0  0  0  0  0  0  0  0  0  0
   -2.6171    1.1750    0.6807 O   0  0  0  0  0  0  0  0  0  0  0  0
   -3.2533   -1.9992   -0.0873 C   0  0  0  0  0  0  0  0  0  0  0  0
   -4.4370    0.2910    2.0047 H   0  0  0  0  0  0  0  0  0  0  0  0
   -2.7302   -1.7467    1.9921 H   0  0  0  0  0  0  0  0  0  0  0  0
   -3.6446   -1.4140   -0.9275 H   0  0  0  0  0  0  0  0  0  0  0  0
   -2.2844   -2.4081   -0.3922 H   0  0  0  0  0  0  0  0  0  0  0  0
   -3.9388   -2.8365    0.0822 H   0  0  0  0  0  0  0  0  0  0  0  0
   -0.8768   -0.3314    0.9568 N   0  0  0  0  0  0  0  0  0  0  0  0
    0.2067    0.6285    0.7375 C   0  0  2  0  0  0  0  0  0  0  0  0
   -0.1976    1.4654   -0.4724 C   0  0  0  0  0  0  0  0  0  0  0  0
   -0.5795    2.6298   -0.3726 O   0  0  0  0  0  0  0  0  0  0  0  0
    1.5205   -0.1331    0.5070 C   0  0  0  0  0  0  0  0  0  0  0  0
    2.0144   -0.8883    1.7408 C   0  0  0  0  0  0  0  0  0  0  0  0
    3.2921   -1.6417    1.4672 C   0  0  0  0  0  0  0  0  0  0  0  0
    3.7968   -1.7468    0.3565 O   0  0  0  0  0  0  0  0  0  0  0  0
    3.8140   -2.2162    2.5790 O   0  0  0  0  0  0  0  0  0  0  0  0
   -0.6087   -1.2764    1.1771 H   0  0  0  0  0  0  0  0  0  0  0  0
    0.2947    1.2601    1.6276 H   0  0  0  0  0  0  0  0  0  0  0  0
    1.3849   -0.8465   -0.3168 H   0  0  0  0  0  0  0  0  0  0  0  0
    2.3104    0.5618    0.1928 H   0  0  0  0  0  0  0  0  0  0  0  0
    2.2319   -0.1765    2.5465 H   0  0  0  0  0  0  0  0  0  0  0  0
    1.2496   -1.5611    2.1426 H   0  0  0  0  0  0  0  0  0  0  0  0
    4.6367   -2.7321    2.4410 H   0  0  0  0  0  0  0  0  0  0  0  0
   -0.0543    0.7731   -1.6657 N   0  0  0  0  0  0  0  0  0  0  0  0
   -0.3693    1.3442   -2.9554 C   0  0  2  0  0  0  0  0  0  0  0  0
   -1.8019    0.9611   -3.3022 C   0  0  0  0  0  0  0  0  0  0  0  0
   -2.3755   -0.0076   -2.8084 O   0  0  0  0  0  0  0  0  0  0  0  0
    0.5969    0.8606   -4.0256 C   0  0  0  0  0  0  0  0  0  0  0  0
    0.2889   -0.1821   -1.6315 H   0  0  0  0  0  0  0  0  0  0  0  0
   -0.2979    2.4318   -2.8457 H   0  0  0  0  0  0  0  0  0  0  0  0
    0.5396   -0.2270   -4.1498 H   0  0  0  0  0  0  0  0  0  0  0  0
    0.3744    1.3162   -4.9962 H   0  0  0  0  0  0  0  0  0  0  0  0
    1.6297    1.1108   -3.7601 H   0  0  0  0  0  0  0  0  0  0  0  0
   -2.3500    1.8027   -4.2600 N   0  0  0  0  0  0  0  0  0  0  0  0
   -3.6932    1.6389   -4.7650 C   0  0  0  0  0  0  0  0  0  0  0  0
   -1.8088    2.5922   -4.6000 H   0  0  0  0  0  0  0  0  0  0  0  0
   -3.6715    1.0139   -5.6700 H   0  0  0  0  0  0  0  0  0  0  0  0
   -4.3161    1.1536   -3.9992 H   0  0  0  0  0  0  0  0  0  0  0  0
   -4.1153    2.6247   -5.0104 H   0  0  0  0  0  0  0  0  0  0  0  0
  1  3  1  0  0  0  0
  1  7  1  0  0  0  0
  1  2  2  0  0  0  0
 34 35  1  0  0  0  0
 35 43  1  0  0  0  0
 35 36  2  0  0  0  0
  8  9  1  0  0  0  0
  9 17  1  0  0  0  0
  9 10  2  0  0  0  0
 18 19  1  0  0  0  0
 19 33  1  0  0  0  0
 19 20  2  0  0  0  0
 22 23  1  0  0  0  0
 23 24  2  0  0  0  0
 23 25  1  0  0  0  0
 34 37  1  0  0  0  0
  8 11  1  0  0  0  0
 43 44  1  0  0  0  0
 21 22  1  0  0  0  0
 18 21  1  0  0  0  0
 33 34  1  0  0  0  0
  7  8  1  0  0  0  0
 17 18  1  0  0  0  0
  3  4  1  0  0  0  0
  3  5  1  0  0  0  0
  3  6  1  0  0  0  0
 37 40  1  0  0  0  0
 37 41  1  0  0  0  0
 37 42  1  0  0  0  0
 11 14  1  0  0  0  0
 11 15  1  0  0  0  0
 11 16  1  0  0  0  0
 44 46  1  0  0  0  0
 44 47  1  0  0  0  0
 44 48  1  0  0  0  0
 22 30  1  0  0  0  0
 22 31  1  0  0  0  0
 21 28  1  0  0  0  0
 21 29  1  0  0  0  0
 34 39  1  0  0  0  0
  8 13  1  0  0  0  0
 18 27  1  0  0  0  0
 43 45  1  0  0  0  0
  7 12  1  0  0  0  0
 33 38  1  0  0  0  0
 17 26  1  0  0  0  0
 25 32  1  0  0  0  0
M  END
$$$$

  -OEChem-05262214473D

 48 47  0     1  0  0  0  0  0999 V2000
   -5.5827   -1.3473    1.4591 C   0  0  0  0  0  0  0  0  0  0  0  0
   -5.7053   -2.4696    0.9825 O   0  0  0  0  0  0  0  0  0  0  0  0
   -6.7879   -0.6277    1.9670 C   0  0  0  0  0  0  0  0  0  0  0  0
   -7.2718   -0.0164    1.1885 H   0  0  0  0  0  0  0  0  0  0  0  0
   -7.5699   -1.3171    2.3239 H   0  0  0  0  0  0  0  0  0  0  0  0
   -6.6057    0.0628    2.8060 H   0  0  0  0  0  0  0  0  0  0  0  0
   -4.4001   -0.6377    1.5884 N   0  0  0  0  0  0  0  0  0  0  0  0
   -3.1220   -1.1455    1.1644 C   0  0  2  0  0  0  0  0  0  0  0  0
   -2.2017    0.0428    0.9187 C   0  0  0  0  0  0  0  0  0  0  0  0
   -2.6171    1.1750    0.6807 O   0  0  0  0  0  0  0  0  0  0  0  0
   -3.2533   -1.9992   -0.0873 C   0  0  0  0  0  0  0  0  0  0  0  0
   -4.4370    0.2910    2.0047 H   0  0  0  0  0  0  0  0  0  0  0  0
   -2.7302   -1.7467    1.9921 H   0  0  0  0  0  0  0  0  0  0  0  0
   -3.6446   -1.4140   -0.9275 H   0  0  0  0  0  0  0  0  0  0  0  0
   -2.2844   -2.4081   -0.3922 H   0  0  0  0  0  0  0  0  0  0  0  0
   -3.9388   -2.8365    0.0822 H   0  0  0  0  0  0  0  0  0  0  0  0
   -0.8768   -0.3314    0.9568 N   0  0  0  0  0  0  0  0  0  0  0  0
    0.2067    0.6285    0.7375 C   0  0  2  0  0  0  0  0  0  0  0  0
   -0.1976    1.4654   -0.4724 C   0  0  0  0  0  0  0  0  0  0  0  0
   -0.3193    2.6877   -0.4195 O   0  0  0  0  0  0  0  0  0  0  0  0
    1.5205   -0.1331    0.5070 C   0  0  0  0  0  0  0  0  0  0  0  0
    2.0144   -0.8883    1.7408 C   0  0  0  0  0  0  0  0  0  0  0  0
    3.2921   -1.6417    1.4672 C   0  0  0  0  0  0  0  0  0  0  0  0
    3.7968   -1.7468    0.3565 O   0  0  0  0  0  0  0  0  0  0  0  0
    3.8140   -2.2162    2.5790 O   0  0  0  0  0  0  0  0  0  0  0  0
   -0.6087   -1.2764    1.1771 H   0  0  0  0  0  0  0  0  0  0  0  0
    0.2947    1.2601    1.6276 H   0  0  0  0  0  0  0  0  0  0  0  0
    1.3849   -0.8465   -0.3168 H   0  0  0  0  0  0  0  0  0  0  0  0
    2.3104    0.5618    0.1928 H   0  0  0  0  0  0  0  0  0  0  0  0
    2.2319   -0.1765    2.5465 H   0  0  0  0  0  0  0  0  0  0  0  0
    1.2496   -1.5611    2.1426 H   0  0  0  0  0  0  0  0  0  0  0  0
    4.6367   -2.7321    2.4410 H   0  0  0  0  0  0  0  0  0  0  0  0
   -0.3755    0.6954   -1.6122 N   0  0  0  0  0  0  0  0  0  0  0  0
   -0.7584    1.2497   -2.8908 C   0  0  2  0  0  0  0  0  0  0  0  0
   -2.2742    1.1582   -3.0080 C   0  0  0  0  0  0  0  0  0  0  0  0
   -2.9499    0.3597   -2.3624 O   0  0  0  0  0  0  0  0  0  0  0  0
   -0.0794    0.5170   -4.0374 C   0  0  0  0  0  0  0  0  0  0  0  0
   -0.2294   -0.3074   -1.5451 H   0  0  0  0  0  0  0  0  0  0  0  0
   -0.4551    2.3023   -2.8828 H   0  0  0  0  0  0  0  0  0  0  0  0
   -0.3712   -0.5393   -4.0616 H   0  0  0  0  0  0  0  0  0  0  0  0
   -0.3482    0.9564   -5.0037 H   0  0  0  0  0  0  0  0  0  0  0  0
    1.0104    0.5584   -3.9353 H   0  0  0  0  0  0  0  0  0  0  0  0
   -2.7791    2.0435   -3.9501 N   0  0  0  0  0  0  0  0  0  0  0  0
   -4.1879    2.1388   -4.2540 C   0  0  0  0  0  0  0  0  0  0  0  0
   -2.1476    2.6821   -4.4246 H   0  0  0  0  0  0  0  0  0  0  0  0
   -4.4270    1.4755   -5.0983 H   0  0  0  0  0  0  0  0  0  0  0  0
   -4.7740    1.8372   -3.3734 H   0  0  0  0  0  0  0  0  0  0  0  0
   -4.4357    3.1766   -4.5215 H   0  0  0  0  0  0  0  0  0  0  0  0
  1  3  1  0  0  0  0
  1  7  1  0  0  0  0
  1  2  2  0  0  0  0
 34 35  1  0  0  0  0
 35 43  1  0  0  0  0
 35 36  2  0  0  0  0
  8  9  1  0  0  0  0
  9 17  1  0  0  0  0
  9 10  2  0  0  0  0
 18 19  1  0  0  0  0
 19 33  1  0  0  0  0
 19 20  2  0  0  0  0
 22 23  1  0  0  0  0
 23 24  2  0  0  0  0
 23 25  1  0  0  0  0
 34 37  1  0  0  0  0
  8 11  1  0  0  0  0
 43 44  1  0  0  0  0
 21 22  1  0  0  0  0
 18 21  1  0  0  0  0
 33 34  1  0  0  0  0
  7  8  1  0  0  0  0
 17 18  1  0  0  0  0
  3  4  1  0  0  0  0
  3  5  1  0  0  0  0
  3  6  1  0  0  0  0
 37 40  1  0  0  0  0
 37 41  1  0  0  0  0
 37 42  1  0  0  0  0
 11 14  1  0  0  0  0
 11 15  1  0  0  0  0
 11 16  1  0  0  0  0
 44 46  1  0  0  0  0
 44 47  1  0  0  0  0
 44 48  1  0  0  0  0
 22 30  1  0  0  0  0
 22 31  1  0  0  0  0
 21 28  1  0  0  0  0
 21 29  1  0  0  0  0
 34 39  1  0  0  0  0
  8 13  1  0  0  0  0
 18 27  1  0  0  0  0
 43 45  1  0  0  0  0
  7 12  1  0  0  0  0
 33 38  1  0  0  0  0
 17 26  1  0  0  0  0
 25 32  1  0  0  0  0
M  END
$$$$

  -OEChem-05262214473D

 48 47  0     1  0  0  0  0  0999 V2000
   -5.5827   -1.3473    1.4591 C   0  0  0  0  0  0  0  0  0  0  0  0
   -5.7053   -2.4696    0.9825 O   0  0  0  0  0  0  0  0  0  0  0  0
   -6.7879   -0.6277    1.9670 C   0  0  0  0  0  0  0  0  0  0  0  0
   -7.2718   -0.0164    1.1885 H   0  0  0  0  0  0  0  0  0  0  0  0
   -7.5699   -1.3171    2.3239 H   0  0  0  0  0  0  0  0  0  0  0  0
   -6.6057    0.0628    2.8060 H   0  0  0  0  0  0  0  0  0  0  0  0
   -4.4001   -0.6377    1.5884 N   0  0  0  0  0  0  0  0  0  0  0  0
   -3.1220   -1.1455    1.1644 C   0  0  2  0  0  0  0  0  0  0  0  0
   -2.2017    0.0428    0.9187 C   0  0  0  0  0  0  0  0  0  0  0  0
   -2.6171    1.1750    0.6807 O   0  0  0  0  0  0  0  0  0  0  0  0
   -3.2533   -1.9992   -0.0873 C   0  0  0  0  0  0  0  0  0  0  0  0
   -4.4370    0.2910    2.0047 H   0  0  0  0  0  0  0  0  0  0  0  0
   -2.7302   -1.7467    1.9921 H   0  0  0  0  0  0  0  0  0  0  0  0
   -3.6446   -1.4140   -0.9275 H   0  0  0  0  0  0  0  0  0  0  0  0
   -2.2844   -2.4081   -0.3922 H   0  0  0  0  0  0  0  0  0  0  0  0
   -3.9388   -2.8365    0.0822 H   0  0  0  0  0  0  0  0  0  0  0  0
   -0.8768   -0.3314    0.9568 N   0  0  0  0  0  0  0  0  0  0  0  0
    0.2067    0.6285    0.7375 C   0  0  2  0  0  0  0  0  0  0  0  0
   -0.1976    1.4654   -0.4724 C   0  0  0  0  0  0  0  0  0  0  0  0
   -0.0627    2.6870   -0.5057 O   0  0  0  0  0  0  0  0  0  0  0  0
    1.5205   -0.1331    0.5070 C   0  0  0  0  0  0  0  0  0  0  0  0
    2.0144   -0.8883    1.7408 C   0  0  0  0  0  0  0  0  0  0  0  0
    3.2921   -1.6417    1.4672 C   0  0  0  0  0  0  0  0  0  0  0  0
    3.7968   -1.7468    0.3565 O   0  0  0  0  0  0  0  0  0  0  0  0
    3.8140   -2.2162    2.5790 O   0  0  0  0  0  0  0  0  0  0  0  0
   -0.6087   -1.2764    1.1771 H   0  0  0  0  0  0  0  0  0  0  0  0
    0.2947    1.2601    1.6276 H   0  0  0  0  0  0  0  0  0  0  0  0
    1.3849   -0.8465   -0.3168 H   0  0  0  0  0  0  0  0  0  0  0  0
    2.3104    0.5618    0.1928 H   0  0  0  0  0  0  0  0  0  0  0  0
    2.2319   -0.1765    2.5465 H   0  0  0  0  0  0  0  0  0  0  0  0
    1.2496   -1.5611    2.1426 H   0  0  0  0  0  0  0  0  0  0  0  0
    4.6367   -2.7321    2.4410 H   0  0  0  0  0  0  0  0  0  0  0  0
   -0.6941    0.6898   -1.5096 N   0  0  0  0  0  0  0  0  0  0  0  0
   -1.1445    1.2427   -2.7666 C   0  0  2  0  0  0  0  0  0  0  0  0
   -2.6480    1.4657   -2.6704 C   0  0  0  0  0  0  0  0  0  0  0  0
   -3.3660    0.8630   -1.8753 O   0  0  0  0  0  0  0  0  0  0  0  0
   -0.8047    0.3231   -3.9291 C   0  0  0  0  0  0  0  0  0  0  0  0
   -0.7434   -0.3161   -1.3794 H   0  0  0  0  0  0  0  0  0  0  0  0
   -0.6388    2.2069   -2.8874 H   0  0  0  0  0  0  0  0  0  0  0  0
   -1.3025   -0.6480   -3.8256 H   0  0  0  0  0  0  0  0  0  0  0  0
   -1.1212    0.7565   -4.8836 H   0  0  0  0  0  0  0  0  0  0  0  0
    0.2741    0.1399   -3.9787 H   0  0  0  0  0  0  0  0  0  0  0  0
   -3.1002    2.3854   -3.6063 N   0  0  0  0  0  0  0  0  0  0  0  0
   -4.4905    2.7582   -3.7244 C   0  0  0  0  0  0  0  0  0  0  0  0
   -2.4316    2.8506   -4.2132 H   0  0  0  0  0  0  0  0  0  0  0  0
   -4.9809    2.1156   -4.4704 H   0  0  0  0  0  0  0  0  0  0  0  0
   -4.9872    2.6343   -2.7508 H   0  0  0  0  0  0  0  0  0  0  0  0
   -4.5626    3.8090   -4.0417 H   0  0  0  0  0  0  0  0  0  0  0  0
  1  3  1  0  0  0  0
  1  7  1  0  0  0  0
  1  2  2  0  0  0  0
 34 35  1  0  0  0  0
 35 43  1  0  0  0  0
 35 36  2  0  0  0  0
  8  9  1  0  0  0  0
  9 17  1  0  0  0  0
  9 10  2  0  0  0  0
 18 19  1  0  0  0  0
 19 33  1  0  0  0  0
 19 20  2  0  0  0  0
 22 23  1  0  0  0  0
 23 24  2  0  0  0  0
 23 25  1  0  0  0  0
 34 37  1  0  0  0  0
  8 11  1  0  0  0  0
 43 44  1  0  0  0  0
 21 22  1  0  0  0  0
 18 21  1  0  0  0  0
 33 34  1  0  0  0  0
  7  8  1  0  0  0  0
 17 18  1  0  0  0  0
  3  4  1  0  0  0  0
  3  5  1  0  0  0  0
  3  6  1  0  0  0  0
 37 40  1  0  0  0  0
 37 41  1  0  0  0  0
 37 42  1  0  0  0  0
 11 14  1  0  0  0  0
 11 15  1  0  0  0  0
 11 16  1  0  0  0  0
 44 46  1  0  0  0  0
 44 47  1  0  0  0  0
 44 48  1  0  0  0  0
 22 30  1  0  0  0  0
 22 31  1  0  0  0  0
 21 28  1  0  0  0  0
 21 29  1  0  0  0  0
 34 39  1  0  0  0  0
  8 13  1  0  0  0  0
 18 27  1  0  0  0  0
 43 45  1  0  0  0  0
  7 12  1  0  0  0  0
 33 38  1  0  0  0  0
 17 26  1  0  0  0  0
 25 32  1  0  0  0  0
M  END
$$$$

  -OEChem-05262214473D

 48 47  0     1  0  0  0  0  0999 V2000
   -5.5827   -1.3473    1.4591 C   0  0  0  0  0  0  0  0  0  0  0  0
   -5.7053   -2.4696    0.9825 O   0  0  0  0  0  0  0  0  0  0  0  0
   -6.7879   -0.6277    1.9670 C   0  0  0  0  0  0  0  0  0  0  0  0
   -7.2718   -0.0164    1.1885 H   0  0  0  0  0  0  0  0  0  0  0  0
   -7.5699   -1.3171    2.3239 H   0  0  0  0  0  0  0  0  0  0  0  0
   -6.6057    0.0628    2.8060 H   0  0  0  0  0  0  0  0  0  0  0  0
   -4.4001   -0.6377    1.5884 N   0  0  0  0  0  0  0  0  0  0  0  0
   -3.1220   -1.1455    1.1644 C   0  0  2  0  0  0  0  0  0  0  0  0
   -2.2017    0.0428    0.9187 C   0  0  0  0  0  0  0  0  0  0  0  0
   -2.6171    1.1750    0.6807 O   0  0  0  0  0  0  0  0  0  0  0  0
   -3.2533   -1.9992   -0.0873 C   0  0  0  0  0  0  0  0  0  0  0  0
   -4.4370    0.2910    2.0047 H   0  0  0  0  0  0  0  0  0  0  0  0
   -2.7302   -1.7467    1.9921 H   0  0  0  0  0  0  0  0  0  0  0  0
   -3.6446   -1.4140   -0.9275 H   0  0  0  0  0  0  0  0  0  0  0  0
   -2.2844   -2.4081   -0.3922 H   0  0  0  0  0  0  0  0  0  0  0  0
   -3.9388   -2.8365    0.0822 H   0  0  0  0  0  0  0  0  0  0  0  0
   -0.8768   -0.3314    0.9568 N   0  0  0  0  0  0  0  0  0  0  0  0
    0.2067    0.6285    0.7375 C   0  0  2  0  0  0  0  0  0  0  0  0
   -0.1976    1.4654   -0.4724 C   0  0  0  0  0  0  0  0  0  0  0  0
    0.1727    2.6277   -0.6254 O   0  0  0  0  0  0  0  0  0  0  0  0
    1.5205   -0.1331    0.5070 C   0  0  0  0  0  0  0  0  0  0  0  0
    2.0144   -0.8883    1.7408 C   0  0  0  0  0  0  0  0  0  0  0  0
    3.2921   -1.6417    1.4672 C   0  0  0  0  0  0  0  0  0  0  0  0
    3.7968   -1.7468    0.3565 O   0  0  0  0  0  0  0  0  0  0  0  0
    3.8140   -2.2162    2.5790 O   0  0  0  0  0  0  0  0  0  0  0  0
   -0.6087   -1.2764    1.1771 H   0  0  0  0  0  0  0  0  0  0  0  0
    0.2947    1.2601    1.6276 H   0  0  0  0  0  0  0  0  0  0  0  0
    1.3849   -0.8465   -0.3168 H   0  0  0  0  0  0  0  0  0  0  0  0
    2.3104    0.5618    0.1928 H   0  0  0  0  0  0  0  0  0  0  0  0
    2.2319   -0.1765    2.5465 H   0  0  0  0  0  0  0  0  0  0  0  0
    1.2496   -1.5611    2.1426 H   0  0  0  0  0  0  0  0  0  0  0  0
    4.6367   -2.7321    2.4410 H   0  0  0  0  0  0  0  0  0  0  0  0
   -0.9884    0.7569   -1.3649 N   0  0  0  0  0  0  0  0  0  0  0  0
   -1.5013    1.3238   -2.5914 C   0  0  2  0  0  0  0  0  0  0  0  0
   -2.8982    1.8626   -2.3123 C   0  0  0  0  0  0  0  0  0  0  0  0
   -3.5955    1.4679   -1.3801 O   0  0  0  0  0  0  0  0  0  0  0  0
   -1.5298    0.2921   -3.7083 C   0  0  0  0  0  0  0  0  0  0  0  0
   -1.2182   -0.2077   -1.1457 H   0  0  0  0  0  0  0  0  0  0  0  0
   -0.8364    2.1521   -2.8592 H   0  0  0  0  0  0  0  0  0  0  0  0
   -2.1909   -0.5457   -3.4579 H   0  0  0  0  0  0  0  0  0  0  0  0
   -1.8918    0.7304   -4.6442 H   0  0  0  0  0  0  0  0  0  0  0  0
   -0.5293   -0.1161   -3.8874 H   0  0  0  0  0  0  0  0  0  0  0  0
   -3.2913    2.8052   -3.2521 N   0  0  0  0  0  0  0  0  0  0  0  0
   -4.5806    3.4550   -3.2123 C   0  0  0  0  0  0  0  0  0  0  0  0
   -2.6412    3.0861   -3.9802 H   0  0  0  0  0  0  0  0  0  0  0  0
   -5.2954    2.8907   -3.8293 H   0  0  0  0  0  0  0  0  0  0  0  0
   -4.9411    3.4908   -2.1737 H   0  0  0  0  0  0  0  0  0  0  0  0
   -4.4872    4.4788   -3.6035 H   0  0  0  0  0  0  0  0  0  0  0  0
  1  3  1  0  0  0  0
  1  7  1  0  0  0  0
  1  2  2  0  0  0  0
 34 35  1  0  0  0  0
 35 43  1  0  0  0  0
 35 36  2  0  0  0  0
  8  9  1  0  0  0  0
  9 17  1  0  0  0  0
  9 10  2  0  0  0  0
 18 19  1  0  0  0  0
 19 33  1  0  0  0  0
 19 20  2  0  0  0  0
 22 23  1  0  0  0  0
 23 24  2  0  0  0  0
 23 25  1  0  0  0  0
 34 37  1  0  0  0  0
  8 11  1  0  0  0  0
 43 44  1  0  0  0  0
 21 22  1  0  0  0  0
 18 21  1  0  0  0  0
 33 34  1  0  0  0  0
  7  8  1  0  0  0  0
 17 18  1  0  0  0  0
  3  4  1  0  0  0  0
  3  5  1  0  0  0  0
  3  6  1  0  0  0  0
 37 40  1  0  0  0  0
 37 41  1  0  0  0  0
 37 42  1  0  0  0  0
 11 14  1  0  0  0  0
 11 15  1  0  0  0  0
 11 16  1  0  0  0  0
 44 46  1  0  0  0  0
 44 47  1  0  0  0  0
 44 48  1  0  0  0  0
 22 30  1  0  0  0  0
 22 31  1  0  0  0  0
 21 28  1  0  0  0  0
 21 29  1  0  0  0  0
 34 39  1  0  0  0  0
  8 13  1  0  0  0  0
 18 27  1  0  0  0  0
 43 45  1  0  0  0  0
  7 12  1  0  0  0  0
 33 38  1  0  0  0  0
 17 26  1  0  0  0  0
 25 32  1  0  0  0  0
M  END
$$$$

  -OEChem-05262214473D

 48 47  0     1  0  0  0  0  0999 V2000
   -5.5827   -1.3473    1.4591 C   0  0  0  0  0  0  0  0  0  0  0  0
   -5.7053   -2.4696    0.9825 O   0  0  0  0  0  0  0  0  0  0  0  0
   -6.7879   -0.6277    1.9670 C   0  0  0  0  0  0  0  0  0  0  0  0
   -7.2718   -0.0164    1.1885 H   0  0  0  0  0  0  0  0  0  0  0  0
   -7.5699   -1.3171    2.3239 H   0  0  0  0  0  0  0  0  0  0  0  0
   -6.6057    0.0628    2.8060 H   0  0  0  0  0  0  0  0  0  0  0  0
   -4.4001   -0.6377    1.5884 N   0  0  0  0  0  0  0  0  0  0  0  0
   -3.1220   -1.1455    1.1644 C   0  0  2  0  0  0  0  0  0  0  0  0
   -2.2017    0.0428    0.9187 C   0  0  0  0  0  0  0  0  0  0  0  0
   -2.6171    1.1750    0.6807 O   0  0  0  0  0  0  0  0  0  0  0  0
   -3.2533   -1.9992   -0.0873 C   0  0  0  0  0  0  0  0  0  0  0  0
   -4.4370    0.2910    2.0047 H   0  0  0  0  0  0  0  0  0  0  0  0
   -2.7302   -1.7467    1.9921 H   0  0  0  0  0  0  0  0  0  0  0  0
   -3.6446   -1.4140   -0.9275 H   0  0  0  0  0  0  0  0  0  0  0  0
   -2.2844   -2.4081   -0.3922 H   0  0  0  0  0  0  0  0  0  0  0  0
   -3.9388   -2.8365    0.0822 H   0  0  0  0  0  0  0  0  0  0  0  0
   -0.8768   -0.3314    0.9568 N   0  0  0  0  0  0  0  0  0  0  0  0
    0.2067    0.6285    0.7375 C   0  0  2  0  0  0  0  0  0  0  0  0
   -0.1976    1.4654   -0.4724 C   0  0  0  0  0  0  0  0  0  0  0  0
    0.3710    2.5140   -0.7703 O   0  0  0  0  0  0  0  0  0  0  0  0
    1.5205   -0.1331    0.5070 C   0  0  0  0  0  0  0  0  0  0  0  0
    2.0144   -0.8883    1.7408 C   0  0  0  0  0  0  0  0  0  0  0  0
    3.2921   -1.6417    1.4672 C   0  0  0  0  0  0  0  0  0  0  0  0
    3.7968   -1.7468    0.3565 O   0  0  0  0  0  0  0  0  0  0  0  0
    3.8140   -2.2162    2.5790 O   0  0  0  0  0  0  0  0  0  0  0  0
   -0.6087   -1.2764    1.1771 H   0  0  0  0  0  0  0  0  0  0  0  0
    0.2947    1.2601    1.6276 H   0  0  0  0  0  0  0  0  0  0  0  0
    1.3849   -0.8465   -0.3168 H   0  0  0  0  0  0  0  0  0  0  0  0
    2.3104    0.5618    0.1928 H   0  0  0  0  0  0  0  0  0  0  0  0
    2.2319   -0.1765    2.5465 H   0  0  0  0  0  0  0  0  0  0  0  0
    1.2496   -1.5611    2.1426 H   0  0  0  0  0  0  0  0  0  0  0  0
    4.6367   -2.7321    2.4410 H   0  0  0  0  0  0  0  0  0  0  0  0
   -1.2383    0.8920   -1.1879 N   0  0  0  0  0  0  0  0  0  0  0  0
   -1.8044    1.4873   -2.3770 C   0  0  2  0  0  0  0  0  0  0  0  0
   -3.0074    2.3219   -1.9581 C   0  0  0  0  0  0  0  0  0  0  0  0
   -3.6228    2.1333   -0.9108 O   0  0  0  0  0  0  0  0  0  0  0  0
   -2.2052    0.4261   -3.3899 C   0  0  0  0  0  0  0  0  0  0  0  0
   -1.6214    0.0105   -0.8601 H   0  0  0  0  0  0  0  0  0  0  0  0
   -1.0346    2.1418   -2.8002 H   0  0  0  0  0  0  0  0  0  0  0  0
   -2.9758   -0.2393   -2.9837 H   0  0  0  0  0  0  0  0  0  0  0  0
   -2.6075    0.8798   -4.3017 H   0  0  0  0  0  0  0  0  0  0  0  0
   -1.3449   -0.1923   -3.6676 H   0  0  0  0  0  0  0  0  0  0  0  0
   -3.3395    3.2741   -2.9116 N   0  0  0  0  0  0  0  0  0  0  0  0
   -4.4518    4.1816   -2.7527 C   0  0  0  0  0  0  0  0  0  0  0  0
   -2.7623    3.3726   -3.7416 H   0  0  0  0  0  0  0  0  0  0  0  0
   -5.3490    3.7478   -3.2184 H   0  0  0  0  0  0  0  0  0  0  0  0
   -4.6389    4.3482   -1.6816 H   0  0  0  0  0  0  0  0  0  0  0  0
   -4.2147    5.1404   -3.2370 H   0  0  0  0  0  0  0  0  0  0  0  0
  1  3  1  0  0  0  0
  1  7  1  0  0  0  0
  1  2  2  0  0  0  0
 34 35  1  0  0  0  0
 35 43  1  0  0  0  0
 35 36  2  0  0  0  0
  8  9  1  0  0  0  0
  9 17  1  0  0  0  0
  9 10  2  0  0  0  0
 18 19  1  0  0  0  0
 19 33  1  0  0  0  0
 19 20  2  0  0  0  0
 22 23  1  0  0  0  0
 23 24  2  0  0  0  0
 23 25  1  0  0  0  0
 34 37  1  0  0  0  0
  8 11  1  0  0  0  0
 43 44  1  0  0  0  0
 21 22  1  0  0  0  0
 18 21  1  0  0  0  0
 33 34  1  0  0  0  0
  7  8  1  0  0  0  0
 17 18  1  0  0  0  0
  3  4  1  0  0  0  0
  3  5  1  0  0  0  0
  3  6  1  0  0  0  0
 37 40  1  0  0  0  0
 37 41  1  0  0  0  0
 37 42  1  0  0  0  0
 11 14  1  0  0  0  0
 11 15  1  0  0  0  0
 11 16  1  0  0  0  0
 44 46  1  0  0  0  0
 44 47  1  0  0  0  0
 44 48  1  0  0  0  0
 22 30  1  0  0  0  0
 22 31  1  0  0  0  0
 21 28  1  0  0  0  0
 21 29  1  0  0  0  0
 34 39  1  0  0  0  0
  8 13  1  0  0  0  0
 18 27  1  0  0  0  0
 43 45  1  0  0  0  0
  7 12  1  0  0  0  0
 33 38  1  0  0  0  0
 17 26  1  0  0  0  0
 25 32  1  0  0  0  0
M  END
$$$$

  -OEChem-05262214473D

 48 47  0     1  0  0  0  0  0999 V2000
   -5.5827   -1.3473    1.4591 C   0  0  0  0  0  0  0  0  0  0  0  0
   -5.7053   -2.4696    0.9825 O   0  0  0  0  0  0  0  0  0  0  0  0
   -6.7879   -0.6277    1.9670 C   0  0  0  0  0  0  0  0  0  0  0  0
   -7.2718   -0.0164    1.1885 H   0  0  0  0  0  0  0  0  0  0  0  0
   -7.5699   -1.3171    2.3239 H   0  0  0  0  0  0  0  0  0  0  0  0
   -6.6057    0.0628    2.8060 H   0  0  0  0  0  0  0  0  0  0  0  0
   -4.4001   -0.6377    1.5884 N   0  0  0  0  0  0  0  0  0  0  0  0
   -3.1220   -1.1455    1.1644 C   0  0  2  0  0  0  0  0  0  0  0  0
   -2.2017    0.0428    0.9187 C   0  0  0  0  0  0  0  0  0  0  0  0
   -2.6171    1.1750    0.6807 O   0  0  0  0  0  0  0  0  0  0  0  0
   -3.2533   -1.9992   -0.0873 C   0  0  0  0  0  0  0  0  0  0  0  0
   -4.4370    0.2910    2.0047 H   0  0  0  0  0  0  0  0  0  0  0  0
   -2.7302   -1.7467    1.9921 H   0  0  0  0  0  0  0  0  0  0  0  0
   -3.6446   -1.4140   -0.9275 H   0  0  0  0  0  0  0  0  0  0  0  0
   -2.2844   -2.4081   -0.3922 H   0  0  0  0  0  0  0  0  0  0  0  0
   -3.9388   -2.8365    0.0822 H   0  0  0  0  0  0  0  0  0  0  0  0
   -0.8768   -0.3314    0.9568 N   0  0  0  0  0  0  0  0  0  0  0  0
    0.2067    0.6285    0.7375 C   0  0  2  0  0  0  0  0  0  0  0  0
   -0.1976    1.4654   -0.4724 C   0  0  0  0  0  0  0  0  0  0  0  0
    0.5186    2.3535   -0.9306 O   0  0  0  0  0  0  0  0  0  0  0  0
    1.5205   -0.1331    0.5070 C   0  0  0  0  0  0  0  0  0  0  0  0
    2.0144   -0.8883    1.7408 C   0  0  0  0  0  0  0  0  0  0  0  0
    3.2921   -1.6417    1.4672 C   0  0  0  0  0  0  0  0  0  0  0  0
    3.7968   -1.7468    0.3565 O   0  0  0  0  0  0  0  0  0  0  0  0
    3.8140   -2.2162    2.5790 O   0  0  0  0  0  0  0  0  0  0  0  0
   -0.6087   -1.2764    1.1771 H   0  0  0  0  0  0  0  0  0  0  0  0
    0.2947    1.2601    1.6276 H   0  0  0  0  0  0  0  0  0  0  0  0
    1.3849   -0.8465   -0.3168 H   0  0  0  0  0  0  0  0  0  0  0  0
    2.3104    0.5618    0.1928 H   0  0  0  0  0  0  0  0  0  0  0  0
    2.2319   -0.1765    2.5465 H   0  0  0  0  0  0  0  0  0  0  0  0
    1.2496   -1.5611    2.1426 H   0  0  0  0  0  0  0  0  0  0  0  0
    4.6367   -2.7321    2.4410 H   0  0  0  0  0  0  0  0  0  0  0  0
   -1.4269    1.0860   -0.9907 N   0  0  0  0  0  0  0  0  0  0  0  0
   -2.0331    1.7221   -2.1381 C   0  0  2  0  0  0  0  0  0  0  0  0
   -2.9684    2.8123   -1.6319 C   0  0  0  0  0  0  0  0  0  0  0  0
   -3.4459    2.8138   -0.4992 O   0  0  0  0  0  0  0  0  0  0  0  0
   -2.7849    0.7160   -2.9957 C   0  0  0  0  0  0  0  0  0  0  0  0
   -1.9256    0.3236   -0.5418 H   0  0  0  0  0  0  0  0  0  0  0  0
   -1.2198    2.1764   -2.7143 H   0  0  0  0  0  0  0  0  0  0  0  0
   -3.6038    0.2503   -2.4353 H   0  0  0  0  0  0  0  0  0  0  0  0
   -3.2195    1.1944   -3.8796 H   0  0  0  0  0  0  0  0  0  0  0  0
   -2.1171   -0.0834   -3.3343 H   0  0  0  0  0  0  0  0  0  0  0  0
   -3.2415    3.7604   -2.6080 N   0  0  0  0  0  0  0  0  0  0  0  0
   -4.1131    4.8886   -2.3769 C   0  0  0  0  0  0  0  0  0  0  0  0
   -2.7866    3.6905   -3.5136 H   0  0  0  0  0  0  0  0  0  0  0  0
   -5.1382    4.6287   -2.6796 H   0  0  0  0  0  0  0  0  0  0  0  0
   -4.1011    5.1481   -1.3080 H   0  0  0  0  0  0  0  0  0  0  0  0
   -3.7636    5.7486   -2.9670 H   0  0  0  0  0  0  0  0  0  0  0  0
  1  3  1  0  0  0  0
  1  7  1  0  0  0  0
  1  2  2  0  0  0  0
 34 35  1  0  0  0  0
 35 43  1  0  0  0  0
 35 36  2  0  0  0  0
  8  9  1  0  0  0  0
  9 17  1  0  0  0  0
  9 10  2  0  0  0  0
 18 19  1  0  0  0  0
 19 33  1  0  0  0  0
 19 20  2  0  0  0  0
 22 23  1  0  0  0  0
 23 24  2  0  0  0  0
 23 25  1  0  0  0  0
 34 37  1  0  0  0  0
  8 11  1  0  0  0  0
 43 44  1  0  0  0  0
 21 22  1  0  0  0  0
 18 21  1  0  0  0  0
 33 34  1  0  0  0  0
  7  8  1  0  0  0  0
 17 18  1  0  0  0  0
  3  4  1  0  0  0  0
  3  5  1  0  0  0  0
  3  6  1  0  0  0  0
 37 40  1  0  0  0  0
 37 41  1  0  0  0  0
 37 42  1  0  0  0  0
 11 14  1  0  0  0  0
 11 15  1  0  0  0  0
 11 16  1  0  0  0  0
 44 46  1  0  0  0  0
 44 47  1  0  0  0  0
 44 48  1  0  0  0  0
 22 30  1  0  0  0  0
 22 31  1  0  0  0  0
 21 28  1  0  0  0  0
 21 29  1  0  0  0  0
 34 39  1  0  0  0  0
  8 13  1  0  0  0  0
 18 27  1  0  0  0  0
 43 45  1  0  0  0  0
  7 12  1  0  0  0  0
 33 38  1  0  0  0  0
 17 26  1  0  0  0  0
 25 32  1  0  0  0  0
M  END
$$$$

  -OEChem-05262214473D

 48 47  0     1  0  0  0  0  0999 V2000
   -5.5827   -1.3473    1.4591 C   0  0  0  0  0  0  0  0  0  0  0  0
   -5.7053   -2.4696    0.9825 O   0  0  0  0  0  0  0  0  0  0  0  0
   -6.7879   -0.6277    1.9670 C   0  0  0  0  0  0  0  0  0  0  0  0
   -7.2718   -0.0164    1.1885 H   0  0  0  0  0  0  0  0  0  0  0  0
   -7.5699   -1.3171    2.3239 H   0  0  0  0  0  0  0  0  0  0  0  0
   -6.6057    0.0628    2.8060 H   0  0  0  0  0  0  0  0  0  0  0  0
   -4.4001   -0.6377    1.5884 N   0  0  0  0  0  0  0  0  0  0  0  0
   -3.1220   -1.1455    1.1644 C   0  0  2  0  0  0  0  0  0  0  0  0
   -2.2017    0.0428    0.9187 C   0  0  0  0  0  0  0  0  0  0  0  0
   -2.6171    1.1750    0.6807 O   0  0  0  0  0  0  0  0  0  0  0  0
   -3.2533   -1.9992   -0.0873 C   0  0  0  0  0  0  0  0  0  0  0  0
   -4.4370    0.2910    2.0047 H   0  0  0  0  0  0  0  0  0  0  0  0
   -2.7302   -1.7467    1.9921 H   0  0  0  0  0  0  0  0  0  0  0  0
   -3.6446   -1.4140   -0.9275 H   0  0  0  0  0  0  0  0  0  0  0  0
   -2.2844   -2.4081   -0.3922 H   0  0  0  0  0  0  0  0  0  0  0  0
   -3.9388   -2.8365    0.0822 H   0  0  0  0  0  0  0  0  0  0  0  0
   -0.8768   -0.3314    0.9568 N   0  0  0  0  0  0  0  0  0  0  0  0
    0.2067    0.6285    0.7375 C   0  0  2  0  0  0  0  0  0  0  0  0
   -0.1976    1.4654   -0.4724 C   0  0  0  0  0  0  0  0  0  0  0  0
    0.6054    2.1571   -1.0954 O   0  0  0  0  0  0  0  0  0  0  0  0
    1.5205   -0.1331    0.5070 C   0  0  0  0  0  0  0  0  0  0  0  0
    2.0144   -0.8883    1.7408 C   0  0  0  0  0  0  0  0  0  0  0  0
    3.2921   -1.6417    1.4672 C   0  0  0  0  0  0  0  0  0  0  0  0
    3.7968   -1.7468    0.3565 O   0  0  0  0  0  0  0  0  0  0  0  0
    3.8140   -2.2162    2.5790 O   0  0  0  0  0  0  0  0  0  0  0  0
   -0.6087   -1.2764    1.1771 H   0  0  0  0  0  0  0  0  0  0  0  0
    0.2947    1.2601    1.6276 H   0  0  0  0  0  0  0  0  0  0  0  0
    1.3849   -0.8465   -0.3168 H   0  0  0  0  0  0  0  0  0  0  0  0
    2.3104    0.5618    0.1928 H   0  0  0  0  0  0  0  0  0  0  0  0
    2.2319   -0.1765    2.5465 H   0  0  0  0  0  0  0  0  0  0  0  0
    1.2496   -1.5611    2.1426 H   0  0  0  0  0  0  0  0  0  0  0  0
    4.6367   -2.7321    2.4410 H   0  0  0  0  0  0  0  0  0  0  0  0
   -1.5413    1.3255   -0.7868 N   0  0  0  0  0  0  0  0  0  0  0  0
   -2.1720    2.0123   -1.8910 C   0  0  2  0  0  0  0  0  0  0  0  0
   -2.7838    3.3003   -1.3560 C   0  0  0  0  0  0  0  0  0  0  0  0
   -3.0769    3.4630   -0.1734 O   0  0  0  0  0  0  0  0  0  0  0  0
   -3.2293    1.1421   -2.5525 C   0  0  0  0  0  0  0  0  0  0  0  0
   -2.1099    0.7103   -0.2128 H   0  0  0  0  0  0  0  0  0  0  0  0
   -1.3793    2.2538   -2.6075 H   0  0  0  0  0  0  0  0  0  0  0  0
   -4.0319    0.8897   -1.8499 H   0  0  0  0  0  0  0  0  0  0  0  0
   -3.6862    1.6529   -3.4065 H   0  0  0  0  0  0  0  0  0  0  0  0
   -2.7933    0.2031   -2.9101 H   0  0  0  0  0  0  0  0  0  0  0  0
   -3.0039    4.2307   -2.3621 N   0  0  0  0  0  0  0  0  0  0  0  0
   -3.5874    5.5277   -2.1105 C   0  0  0  0  0  0  0  0  0  0  0  0
   -2.7125    4.0182   -3.3116 H   0  0  0  0  0  0  0  0  0  0  0  0
   -4.6772    5.4732   -2.2494 H   0  0  0  0  0  0  0  0  0  0  0  0
   -3.3645    5.8360   -1.0784 H   0  0  0  0  0  0  0  0  0  0  0  0
   -3.1647    6.2621   -2.8119 H   0  0  0  0  0  0  0  0  0  0  0  0
  1  3  1  0  0  0  0
  1  7  1  0  0  0  0
  1  2  2  0  0  0  0
 34 35  1  0  0  0  0
 35 43  1  0  0  0  0
 35 36  2  0  0  0  0
  8  9  1  0  0  0  0
  9 17  1  0  0  0  0
  9 10  2  0  0  0  0
 18 19  1  0  0  0  0
 19 33  1  0  0  0  0
 19 20  2  0  0  0  0
 22 23  1  0  0  0  0
 23 24  2  0  0  0  0
 23 25  1  0  0  0  0
 34 37  1  0  0  0  0
  8 11  1  0  0  0  0
 43 44  1  0  0  0  0
 21 22  1  0  0  0  0
 18 21  1  0  0  0  0
 33 34  1  0  0  0  0
  7  8  1  0  0  0  0
 17 18  1  0  0  0  0
  3  4  1  0  0  0  0
  3  5  1  0  0  0  0
  3  6  1  0  0  0  0
 37 40  1  0  0  0  0
 37 41  1  0  0  0  0
 37 42  1  0  0  0  0
 11 14  1  0  0  0  0
 11 15  1  0  0  0  0
 11 16  1  0  0  0  0
 44 46  1  0  0  0  0
 44 47  1  0  0  0  0
 44 48  1  0  0  0  0
 22 30  1  0  0  0  0
 22 31  1  0  0  0  0
 21 28  1  0  0  0  0
 21 29  1  0  0  0  0
 34 39  1  0  0  0  0
  8 13  1  0  0  0  0
 18 27  1  0  0  0  0
 43 45  1  0  0  0  0
  7 12  1  0  0  0  0
 33 38  1  0  0  0  0
 17 26  1  0  0  0  0
 25 32  1  0  0  0  0
M  END
$$$$

  -OEChem-05262214473D

 48 47  0     1  0  0  0  0  0999 V2000
   -5.5827   -1.3473    1.4591 C   0  0  0  0  0  0  0  0  0  0  0  0
   -5.7053   -2.4696    0.9825 O   0  0  0  0  0  0  0  0  0  0  0  0
   -6.7879   -0.6277    1.9670 C   0  0  0  0  0  0  0  0  0  0  0  0
   -7.2718   -0.0164    1.1885 H   0  0  0  0  0  0  0  0  0  0  0  0
   -7.5699   -1.3171    2.3239 H   0  0  0  0  0  0  0  0  0  0  0  0
   -6.6057    0.0628    2.8060 H   0  0  0  0  0  0  0  0  0  0  0  0
   -4.4001   -0.6377    1.5884 N   0  0  0  0  0  0  0  0  0  0  0  0
   -3.1220   -1.1455    1.1644 C   0  0  2  0  0  0  0  0  0  0  0  0
   -2.2017    0.0428    0.9187 C   0  0  0  0  0  0  0  0  0  0  0  0
   -2.6171    1.1750    0.6807 O   0  0  0  0  0  0  0  0  0  0  0  0
   -3.2533   -1.9992   -0.0873 C   0  0  0  0  0  0  0  0  0  0  0  0
   -4.4370    0.2910    2.0047 H   0  0  0  0  0  0  0  0  0  0  0  0
   -2.7302   -1.7467    1.9921 H   0  0  0  0  0  0  0  0  0  0  0  0
   -3.6446   -1.4140   -0.9275 H   0  0  0  0  0  0  0  0  0  0  0  0
   -2.2844   -2.4081   -0.3922 H   0  0  0  0  0  0  0  0  0  0  0  0
   -3.9388   -2.8365    0.0822 H   0  0  0  0  0  0  0  0  0  0  0  0
   -0.8768   -0.3314    0.9568 N   0  0  0  0  0  0  0  0  0  0  0  0
    0.2067    0.6285    0.7375 C   0  0  2  0  0  0  0  0  0  0  0  0
   -0.1976    1.4654   -0.4724 C   0  0  0  0  0  0  0  0  0  0  0  0
    0.6256    1.9384   -1.2535 O   0  0  0  0  0  0  0  0  0  0  0  0
    1.5205   -0.1331    0.5070 C   0  0  0  0  0  0  0  0  0  0  0  0
    2.0144   -0.8883    1.7408 C   0  0  0  0  0  0  0  0  0  0  0  0
    3.2921   -1.6417    1.4672 C   0  0  0  0  0  0  0  0  0  0  0  0
    3.7968   -1.7468    0.3565 O   0  0  0  0  0  0  0  0  0  0  0  0
    3.8140   -2.2162    2.5790 O   0  0  0  0  0  0  0  0  0  0  0  0
   -0.6087   -1.2764    1.1771 H   0  0  0  0  0  0  0  0  0  0  0  0
    0.2947    1.2601    1.6276 H   0  0  0  0  0  0  0  0  0  0  0  0
    1.3849   -0.8465   -0.3168 H   0  0  0  0  0  0  0  0  0  0  0  0
    2.3104    0.5618    0.1928 H   0  0  0  0  0  0  0  0  0  0  0  0
    2.2319   -0.1765    2.5465 H   0  0  0  0  0  0  0  0  0  0  0  0
    1.2496   -1.5611    2.1426 H   0  0  0  0  0  0  0  0  0  0  0  0
    4.6367   -2.7321    2.4410 H   0  0  0  0  0  0  0  0  0  0  0  0
   -1.5736    1.5944   -0.5900 N   0  0  0  0  0  0  0  0  0  0  0  0
   -2.2115    2.3380   -1.6525 C   0  0  2  0  0  0  0  0  0  0  0  0
   -2.4661    3.7527   -1.1492 C   0  0  0  0  0  0  0  0  0  0  0  0
   -2.5409    4.0368    0.0444 O   0  0  0  0  0  0  0  0  0  0  0  0
   -3.5083    1.6753   -2.0905 C   0  0  0  0  0  0  0  0  0  0  0  0
   -2.1618    1.1442    0.1047 H   0  0  0  0  0  0  0  0  0  0  0  0
   -1.5024    2.3687   -2.4869 H   0  0  0  0  0  0  0  0  0  0  0  0
   -4.2312    1.6354   -1.2675 H   0  0  0  0  0  0  0  0  0  0  0  0
   -3.9757    2.2241   -2.9147 H   0  0  0  0  0  0  0  0  0  0  0  0
   -3.3275    0.6477   -2.4241 H   0  0  0  0  0  0  0  0  0  0  0  0
   -2.6429    4.6531   -2.1905 N   0  0  0  0  0  0  0  0  0  0  0  0
   -2.9106    6.0554   -1.9716 C   0  0  0  0  0  0  0  0  0  0  0  0
   -2.5449    4.3334   -3.1496 H   0  0  0  0  0  0  0  0  0  0  0  0
   -3.9976    6.2238   -1.9573 H   0  0  0  0  0  0  0  0  0  0  0  0
   -2.4791    6.3650   -1.0083 H   0  0  0  0  0  0  0  0  0  0  0  0
   -2.4589    6.6458   -2.7824 H   0  0  0  0  0  0  0  0  0  0  0  0
  1  3  1  0  0  0  0
  1  7  1  0  0  0  0
  1  2  2  0  0  0  0
 34 35  1  0  0  0  0
 35 43  1  0  0  0  0
 35 36  2  0  0  0  0
  8  9  1  0  0  0  0
  9 17  1  0  0  0  0
  9 10  2  0  0  0  0
 18 19  1  0  0  0  0
 19 33  1  0  0  0  0
 19 20  2  0  0  0  0
 22 23  1  0  0  0  0
 23 24  2  0  0  0  0
 23 25  1  0  0  0  0
 34 37  1  0  0  0  0
  8 11  1  0  0  0  0
 43 44  1  0  0  0  0
 21 22  1  0  0  0  0
 18 21  1  0  0  0  0
 33 34  1  0  0  0  0
  7  8  1  0  0  0  0
 17 18  1  0  0  0  0
  3  4  1  0  0  0  0
  3  5  1  0  0  0  0
  3  6  1  0  0  0  0
 37 40  1  0  0  0  0
 37 41  1  0  0  0  0
 37 42  1  0  0  0  0
 11 14  1  0  0  0  0
 11 15  1  0  0  0  0
 11 16  1  0  0  0  0
 44 46  1  0  0  0  0
 44 47  1  0  0  0  0
 44 48  1  0  0  0  0
 22 30  1  0  0  0  0
 22 31  1  0  0  0  0
 21 28  1  0  0  0  0
 21 29  1  0  0  0  0
 34 39  1  0  0  0  0
  8 13  1  0  0  0  0
 18 27  1  0  0  0  0
 43 45  1  0  0  0  0
  7 12  1  0  0  0  0
 33 38  1  0  0  0  0
 17 26  1  0  0  0  0
 25 32  1  0  0  0  0
M  END
$$$$

  -OEChem-05262214473D

 48 47  0     1  0  0  0  0  0999 V2000
   -5.5827   -1.3473    1.4591 C   0  0  0  0  0  0  0  0  0  0  0  0
   -5.7053   -2.4696    0.9825 O   0  0  0  0  0  0  0  0  0  0  0  0
   -6.7879   -0.6277    1.9670 C   0  0  0  0  0  0  0  0  0  0  0  0
   -7.2718   -0.0164    1.1885 H   0  0  0  0  0  0  0  0  0  0  0  0
   -7.5699   -1.3171    2.3239 H   0  0  0  0  0  0  0  0  0  0  0  0
   -6.6057    0.0628    2.8060 H   0  0  0  0  0  0  0  0  0  0  0  0
   -4.4001   -0.6377    1.5884 N   0  0  0  0  0  0  0  0  0  0  0  0
   -3.1220   -1.1455    1.1644 C   0  0  2  0  0  0  0  0  0  0  0  0
   -2.2017    0.0428    0.9187 C   0  0  0  0  0  0  0  0  0  0  0  0
   -2.6171    1.1750    0.6807 O   0  0  0  0  0  0  0  0  0  0  0  0
   -3.2533   -1.9992   -0.0873 C   0  0  0  0  0  0  0  0  0  0  0  0
   -4.4370    0.2910    2.0047 H   0  0  0  0  0  0  0  0  0  0  0  0
   -2.7302   -1.7467    1.9921 H   0  0  0  0  0  0  0  0  0  0  0  0
   -3.6446   -1.4140   -0.9275 H   0  0  0  0  0  0  0  0  0  0  0  0
   -2.2844   -2.4081   -0.3922 H   0  0  0  0  0  0  0  0  0  0  0  0
   -3.9388   -2.8365    0.0822 H   0  0  0  0  0  0  0  0  0  0  0  0
   -0.8768   -0.3314    0.9568 N   0  0  0  0  0  0  0  0  0  0  0  0
    0.2067    0.6285    0.7375 C   0  0  2  0  0  0  0  0  0  0  0  0
   -0.1976    1.4654   -0.4724 C   0  0  0  0  0  0  0  0  0  0  0  0
    0.5778    1.7121   -1.3941 O   0  0  0  0  0  0  0  0  0  0  0  0
    1.5205   -0.1331    0.5070 C   0  0  0  0  0  0  0  0  0  0  0  0
    2.0144   -0.8883    1.7408 C   0  0  0  0  0  0  0  0  0  0  0  0
    3.2921   -1.6417    1.4672 C   0  0  0  0  0  0  0  0  0  0  0  0
    3.7968   -1.7468    0.3565 O   0  0  0  0  0  0  0  0  0  0  0  0
    3.8140   -2.2162    2.5790 O   0  0  0  0  0  0  0  0  0  0  0  0
   -0.6087   -1.2764    1.1771 H   0  0  0  0  0  0  0  0  0  0  0  0
    0.2947    1.2601    1.6276 H   0  0  0  0  0  0  0  0  0  0  0  0
    1.3849   -0.8465   -0.3168 H   0  0  0  0  0  0  0  0  0  0  0  0
    2.3104    0.5618    0.1928 H   0  0  0  0  0  0  0  0  0  0  0  0
    2.2319   -0.1765    2.5465 H   0  0  0  0  0  0  0  0  0  0  0  0
    1.2496   -1.5611    2.1426 H   0  0  0  0  0  0  0  0  0  0  0  0
    4.6367   -2.7321    2.4410 H   0  0  0  0  0  0  0  0  0  0  0  0
   -1.5217    1.8743   -0.4138 N   0  0  0  0  0  0  0  0  0  0  0  0
   -2.1489    2.6771   -1.4388 C   0  0  2  0  0  0  0  0  0  0  0  0
   -2.0370    4.1387   -1.0256 C   0  0  0  0  0  0  0  0  0  0  0  0
   -1.8746    4.4959    0.1393 O   0  0  0  0  0  0  0  0  0  0  0  0
   -3.6026    2.2792   -1.6412 C   0  0  0  0  0  0  0  0  0  0  0  0
   -2.0779    1.5957    0.3890 H   0  0  0  0  0  0  0  0  0  0  0  0
   -1.5805    2.5131   -2.3609 H   0  0  0  0  0  0  0  0  0  0  0  0
   -4.1880    2.4365   -0.7279 H   0  0  0  0  0  0  0  0  0  0  0  0
   -4.0682    2.8688   -2.4378 H   0  0  0  0  0  0  0  0  0  0  0  0
   -3.6832    1.2202   -1.9093 H   0  0  0  0  0  0  0  0  0  0  0  0
   -2.1832    4.9988   -2.1050 N   0  0  0  0  0  0  0  0  0  0  0  0
   -2.1289    6.4358   -1.9697 C   0  0  0  0  0  0  0  0  0  0  0  0
   -2.2954    4.6146   -3.0385 H   0  0  0  0  0  0  0  0  0  0  0  0
   -3.1456    6.8294   -1.8231 H   0  0  0  0  0  0  0  0  0  0  0  0
   -1.5054    6.6990   -1.1026 H   0  0  0  0  0  0  0  0  0  0  0  0
   -1.6941    6.8735   -2.8804 H   0  0  0  0  0  0  0  0  0  0  0  0
  1  3  1  0  0  0  0
  1  7  1  0  0  0  0
  1  2  2  0  0  0  0
 34 35  1  0  0  0  0
 35 43  1  0  0  0  0
 35 36  2  0  0  0  0
  8  9  1  0  0  0  0
  9 17  1  0  0  0  0
  9 10  2  0  0  0  0
 18 19  1  0  0  0  0
 19 33  1  0  0  0  0
 19 20  2  0  0  0  0
 22 23  1  0  0  0  0
 23 24  2  0  0  0  0
 23 25  1  0  0  0  0
 34 37  1  0  0  0  0
  8 11  1  0  0  0  0
 43 44  1  0  0  0  0
 21 22  1  0  0  0  0
 18 21  1  0  0  0  0
 33 34  1  0  0  0  0
  7  8  1  0  0  0  0
 17 18  1  0  0  0  0
  3  4  1  0  0  0  0
  3  5  1  0  0  0  0
  3  6  1  0  0  0  0
 37 40  1  0  0  0  0
 37 41  1  0  0  0  0
 37 42  1  0  0  0  0
 11 14  1  0  0  0  0
 11 15  1  0  0  0  0
 11 16  1  0  0  0  0
 44 46  1  0  0  0  0
 44 47  1  0  0  0  0
 44 48  1  0  0  0  0
 22 30  1  0  0  0  0
 22 31  1  0  0  0  0
 21 28  1  0  0  0  0
 21 29  1  0  0  0  0
 34 39  1  0  0  0  0
  8 13  1  0  0  0  0
 18 27  1  0  0  0  0
 43 45  1  0  0  0  0
  7 12  1  0  0  0  0
 33 38  1  0  0  0  0
 17 26  1  0  0  0  0
 25 32  1  0  0  0  0
M  END
$$$$

  -OEChem-05262214473D

 48 47  0     1  0  0  0  0  0999 V2000
   -5.5827   -1.3473    1.4591 C   0  0  0  0  0  0  0  0  0  0  0  0
   -5.7053   -2.4696    0.9825 O   0  0  0  0  0  0  0  0  0  0  0  0
   -6.7879   -0.6277    1.9670 C   0  0  0  0  0  0  0  0  0  0  0  0
   -7.2718   -0.0164    1.1885 H   0  0  0  0  0  0  0  0  0  0  0  0
   -7.5699   -1.3171    2.3239 H   0  0  0  0  0  0  0  0  0  0  0  0
   -6.6057    0.0628    2.8060 H   0  0  0  0  0  0  0  0  0  0  0  0
   -4.4001   -0.6377    1.5884 N   0  0  0  0  0  0  0  0  0  0  0  0
   -3.1220   -1.1455    1.1644 C   0  0  2  0  0  0  0  0  0  0  0  0
   -2.2017    0.0428    0.9187 C   0  0  0  0  0  0  0  0  0  0  0  0
   -2.6171    1.1750    0.6807 O   0  0  0  0  0  0  0  0  0  0  0  0
   -3.2533   -1.9992   -0.0873 C   0  0  0  0  0  0  0  0  0  0  0  0
   -4.4370    0.2910    2.0047 H   0  0  0  0  0  0  0  0  0  0  0  0
   -2.7302   -1.7467    1.9921 H   0  0  0  0  0  0  0  0  0  0  0  0
   -3.6446   -1.4140   -0.9275 H   0  0  0  0  0  0  0  0  0  0  0  0
   -2.2844   -2.4081   -0.3922 H   0  0  0  0  0  0  0  0  0  0  0  0
   -3.9388   -2.8365    0.0822 H   0  0  0  0  0  0  0  0  0  0  0  0
   -0.8768   -0.3314    0.9568 N   0  0  0  0  0  0  0  0  0  0  0  0
    0.2067    0.6285    0.7375 C   0  0  2  0  0  0  0  0  0  0  0  0
   -0.1976    1.4654   -0.4724 C   0  0  0  0  0  0  0  0  0  0  0  0
    0.4651    1.4937   -1.5075 O   0  0  0  0  0  0  0  0  0  0  0  0
    1.5205   -0.1331    0.5070 C   0  0  0  0  0  0  0  0  0  0  0  0
    2.0144   -0.8883    1.7408 C   0  0  0  0  0  0  0  0  0  0  0  0
    3.2921   -1.6417    1.4672 C   0  0  0  0  0  0  0  0  0  0  0  0
    3.7968   -1.7468    0.3565 O   0  0  0  0  0  0  0  0  0  0  0  0
    3.8140   -2.2162    2.5790 O   0  0  0  0  0  0  0  0  0  0  0  0
   -0.6087   -1.2764    1.1771 H   0  0  0  0  0  0  0  0  0  0  0  0
    0.2947    1.2601    1.6276 H   0  0  0  0  0  0  0  0  0  0  0  0
    1.3849   -0.8465   -0.3168 H   0  0  0  0  0  0  0  0  0  0  0  0
    2.3104    0.5618    0.1928 H   0  0  0  0  0  0  0  0  0  0  0  0
    2.2319   -0.1765    2.5465 H   0  0  0  0  0  0  0  0  0  0  0  0
    1.2496   -1.5611    2.1426 H   0  0  0  0  0  0  0  0  0  0  0  0
    4.6367   -2.7321    2.4410 H   0  0  0  0  0  0  0  0  0  0  0  0
   -1.3891    2.1460   -0.2701 N   0  0  0  0  0  0  0  0  0  0  0  0
   -1.9885    3.0065   -1.2646 C   0  0  2  0  0  0  0  0  0  0  0  0
   -1.5258    4.4319   -0.9936 C   0  0  0  0  0  0  0  0  0  0  0  0
   -1.1232    4.8091    0.1049 O   0  0  0  0  0  0  0  0  0  0  0  0
   -3.5061    2.9127   -1.2352 C   0  0  0  0  0  0  0  0  0  0  0  0
   -1.8637    2.0342    0.6208 H   0  0  0  0  0  0  0  0  0  0  0  0
   -1.6085    2.6774   -2.2379 H   0  0  0  0  0  0  0  0  0  0  0  0
   -3.9051    3.2384   -0.2677 H   0  0  0  0  0  0  0  0  0  0  0  0
   -3.9576    3.5434   -2.0081 H   0  0  0  0  0  0  0  0  0  0  0  0
   -3.8361    1.8815   -1.4007 H   0  0  0  0  0  0  0  0  0  0  0  0
   -1.6560    5.2443   -2.1113 N   0  0  0  0  0  0  0  0  0  0  0  0
   -1.2955    6.6428   -2.1049 C   0  0  0  0  0  0  0  0  0  0  0  0
   -1.9808    4.8426   -2.9859 H   0  0  0  0  0  0  0  0  0  0  0  0
   -2.1792    7.2487   -1.8560 H   0  0  0  0  0  0  0  0  0  0  0  0
   -0.5096    6.8154   -1.3548 H   0  0  0  0  0  0  0  0  0  0  0  0
   -0.9226    6.9298   -3.0992 H   0  0  0  0  0  0  0  0  0  0  0  0
  1  3  1  0  0  0  0
  1  7  1  0  0  0  0
  1  2  2  0  0  0  0
 34 35  1  0  0  0  0
 35 43  1  0  0  0  0
 35 36  2  0  0  0  0
  8  9  1  0  0  0  0
  9 17  1  0  0  0  0
  9 10  2  0  0  0  0
 18 19  1  0  0  0  0
 19 33  1  0  0  0  0
 19 20  2  0  0  0  0
 22 23  1  0  0  0  0
 23 24  2  0  0  0  0
 23 25  1  0  0  0  0
 34 37  1  0  0  0  0
  8 11  1  0  0  0  0
 43 44  1  0  0  0  0
 21 22  1  0  0  0  0
 18 21  1  0  0  0  0
 33 34  1  0  0  0  0
  7  8  1  0  0  0  0
 17 18  1  0  0  0  0
  3  4  1  0  0  0  0
  3  5  1  0  0  0  0
  3  6  1  0  0  0  0
 37 40  1  0  0  0  0
 37 41  1  0  0  0  0
 37 42  1  0  0  0  0
 11 14  1  0  0  0  0
 11 15  1  0  0  0  0
 11 16  1  0  0  0  0
 44 46  1  0  0  0  0
 44 47  1  0  0  0  0
 44 48  1  0  0  0  0
 22 30  1  0  0  0  0
 22 31  1  0  0  0  0
 21 28  1  0  0  0  0
 21 29  1  0  0  0  0
 34 39  1  0  0  0  0
  8 13  1  0  0  0  0
 18 27  1  0  0  0  0
 43 45  1  0  0  0  0
  7 12  1  0  0  0  0
 33 38  1  0  0  0  0
 17 26  1  0  0  0  0
 25 32  1  0  0  0  0
M  END
$$$$

  -OEChem-05262214473D

 48 47  0     1  0  0  0  0  0999 V2000
   -5.5827   -1.3473    1.4591 C   0  0  0  0  0  0  0  0  0  0  0  0
   -5.7053   -2.4696    0.9825 O   0  0  0  0  0  0  0  0  0  0  0  0
   -6.7879   -0.6277    1.9670 C   0  0  0  0  0  0  0  0  0  0  0  0
   -7.2718   -0.0164    1.1885 H   0  0  0  0  0  0  0  0  0  0  0  0
   -7.5699   -1.3171    2.3239 H   0  0  0  0  0  0  0  0  0  0  0  0
   -6.6057    0.0628    2.8060 H   0  0  0  0  0  0  0  0  0  0  0  0
   -4.4001   -0.6377    1.5884 N   0  0  0  0  0  0  0  0  0  0  0  0
   -3.1220   -1.1455    1.1644 C   0  0  2  0  0  0  0  0  0  0  0  0
   -2.2017    0.0428    0.9187 C   0  0  0  0  0  0  0  0  0  0  0  0
   -2.6171    1.1750    0.6807 O   0  0  0  0  0  0  0  0  0  0  0  0
   -3.2533   -1.9992   -0.0873 C   0  0  0  0  0  0  0  0  0  0  0  0
   -4.4370    0.2910    2.0047 H   0  0  0  0  0  0  0  0  0  0  0  0
   -2.7302   -1.7467    1.9921 H   0  0  0  0  0  0  0  0  0  0  0  0
   -3.6446   -1.4140   -0.9275 H   0  0  0  0  0  0  0  0  0  0  0  0
   -2.2844   -2.4081   -0.3922 H   0  0  0  0  0  0  0  0  0  0  0  0
   -3.9388   -2.8365    0.0822 H   0  0  0  0  0  0  0  0  0  0  0  0
   -0.8768   -0.3314    0.9568 N   0  0  0  0  0  0  0  0  0  0  0  0
    0.2067    0.6285    0.7375 C   0  0  2  0  0  0  0  0  0  0  0  0
   -0.1976    1.4654   -0.4724 C   0  0  0  0  0  0  0  0  0  0  0  0
    0.2954    1.2981   -1.5861 O   0  0  0  0  0  0  0  0  0  0  0  0
    1.5205   -0.1331    0.5070 C   0  0  0  0  0  0  0  0  0  0  0  0
    2.0144   -0.8883    1.7408 C   0  0  0  0  0  0  0  0  0  0  0  0
    3.2921   -1.6417    1.4672 C   0  0  0  0  0  0  0  0  0  0  0  0
    3.7968   -1.7468    0.3565 O   0  0  0  0  0  0  0  0  0  0  0  0
    3.8140   -2.2162    2.5790 O   0  0  0  0  0  0  0  0  0  0  0  0
   -0.6087   -1.2764    1.1771 H   0  0  0  0  0  0  0  0  0  0  0  0
    0.2947    1.2601    1.6276 H   0  0  0  0  0  0  0  0  0  0  0  0
    1.3849   -0.8465   -0.3168 H   0  0  0  0  0  0  0  0  0  0  0  0
    2.3104    0.5618    0.1928 H   0  0  0  0  0  0  0  0  0  0  0  0
    2.2319   -0.1765    2.5465 H   0  0  0  0  0  0  0  0  0  0  0  0
    1.2496   -1.5611    2.1426 H   0  0  0  0  0  0  0  0  0  0  0  0
    4.6367   -2.7321    2.4410 H   0  0  0  0  0  0  0  0  0  0  0  0
   -1.1849    2.3911   -0.1688 N   0  0  0  0  0  0  0  0  0  0  0  0
   -1.7412    3.3036   -1.1417 C   0  0  2  0  0  0  0  0  0  0  0  0
   -0.9673    4.6124   -1.0554 C   0  0  0  0  0  0  0  0  0  0  0  0
   -0.3381    4.9550   -0.0565 O   0  0  0  0  0  0  0  0  0  0  0  0
   -3.2251    3.5327   -0.9003 C   0  0  0  0  0  0  0  0  0  0  0  0
   -1.5340    2.4296    0.7841 H   0  0  0  0  0  0  0  0  0  0  0  0
   -1.5844    2.8502   -2.1265 H   0  0  0  0  0  0  0  0  0  0  0  0
   -3.4020    3.9865    0.0817 H   0  0  0  0  0  0  0  0  0  0  0  0
   -3.6513    4.2017   -1.6551 H   0  0  0  0  0  0  0  0  0  0  0  0
   -3.7760    2.5865   -0.9332 H   0  0  0  0  0  0  0  0  0  0  0  0
   -1.0973    5.3727   -2.2092 N   0  0  0  0  0  0  0  0  0  0  0  0
   -0.4672    6.6625   -2.3681 C   0  0  0  0  0  0  0  0  0  0  0  0
   -1.6228    5.0018   -2.9954 H   0  0  0  0  0  0  0  0  0  0  0  0
   -1.1644    7.4531   -2.0537 H   0  0  0  0  0  0  0  0  0  0  0  0
    0.4402    6.7061   -1.7478 H   0  0  0  0  0  0  0  0  0  0  0  0
   -0.1969    6.8108   -3.4240 H   0  0  0  0  0  0  0  0  0  0  0  0
  1  3  1  0  0  0  0
  1  7  1  0  0  0  0
  1  2  2  0  0  0  0
 34 35  1  0  0  0  0
 35 43  1  0  0  0  0
 35 36  2  0  0  0  0
  8  9  1  0  0  0  0
  9 17  1  0  0  0  0
  9 10  2  0  0  0  0
 18 19  1  0  0  0  0
 19 33  1  0  0  0  0
 19 20  2  0  0  0  0
 22 23  1  0  0  0  0
 23 24  2  0  0  0  0
 23 25  1  0  0  0  0
 34 37  1  0  0  0  0
  8 11  1  0  0  0  0
 43 44  1  0  0  0  0
 21 22  1  0  0  0  0
 18 21  1  0  0  0  0
 33 34  1  0  0  0  0
  7  8  1  0  0  0  0
 17 18  1  0  0  0  0
  3  4  1  0  0  0  0
  3  5  1  0  0  0  0
  3  6  1  0  0  0  0
 37 40  1  0  0  0  0
 37 41  1  0  0  0  0
 37 42  1  0  0  0  0
 11 14  1  0  0  0  0
 11 15  1  0  0  0  0
 11 16  1  0  0  0  0
 44 46  1  0  0  0  0
 44 47  1  0  0  0  0
 44 48  1  0  0  0  0
 22 30  1  0  0  0  0
 22 31  1  0  0  0  0
 21 28  1  0  0  0  0
 21 29  1  0  0  0  0
 34 39  1  0  0  0  0
  8 13  1  0  0  0  0
 18 27  1  0  0  0  0
 43 45  1  0  0  0  0
  7 12  1  0  0  0  0
 33 38  1  0  0  0  0
 17 26  1  0  0  0  0
 25 32  1  0  0  0  0
M  END
$$$$

  -OEChem-05262214473D

 48 47  0     1  0  0  0  0  0999 V2000
   -5.5827   -1.3473    1.4591 C   0  0  0  0  0  0  0  0  0  0  0  0
   -5.7053   -2.4696    0.9825 O   0  0  0  0  0  0  0  0  0  0  0  0
   -6.7879   -0.6277    1.9670 C   0  0  0  0  0  0  0  0  0  0  0  0
   -7.2718   -0.0164    1.1885 H   0  0  0  0  0  0  0  0  0  0  0  0
   -7.5699   -1.3171    2.3239 H   0  0  0  0  0  0  0  0  0  0  0  0
   -6.6057    0.0628    2.8060 H   0  0  0  0  0  0  0  0  0  0  0  0
   -4.4001   -0.6377    1.5884 N   0  0  0  0  0  0  0  0  0  0  0  0
   -3.1220   -1.1455    1.1644 C   0  0  2  0  0  0  0  0  0  0  0  0
   -2.2017    0.0428    0.9187 C   0  0  0  0  0  0  0  0  0  0  0  0
   -2.6171    1.1750    0.6807 O   0  0  0  0  0  0  0  0  0  0  0  0
   -3.2533   -1.9992   -0.0873 C   0  0  0  0  0  0  0  0  0  0  0  0
   -4.4370    0.2910    2.0047 H   0  0  0  0  0  0  0  0  0  0  0  0
   -2.7302   -1.7467    1.9921 H   0  0  0  0  0  0  0  0  0  0  0  0
   -3.6446   -1.4140   -0.9275 H   0  0  0  0  0  0  0  0  0  0  0  0
   -2.2844   -2.4081   -0.3922 H   0  0  0  0  0  0  0  0  0  0  0  0
   -3.9388   -2.8365    0.0822 H   0  0  0  0  0  0  0  0  0  0  0  0
   -0.8768   -0.3314    0.9568 N   0  0  0  0  0  0  0  0  0  0  0  0
    0.2067    0.6285    0.7375 C   0  0  2  0  0  0  0  0  0  0  0  0
   -0.1976    1.4654   -0.4724 C   0  0  0  0  0  0  0  0  0  0  0  0
    0.0802    1.1385   -1.6245 O   0  0  0  0  0  0  0  0  0  0  0  0
    1.5205   -0.1331    0.5070 C   0  0  0  0  0  0  0  0  0  0  0  0
    2.0144   -0.8883    1.7408 C   0  0  0  0  0  0  0  0  0  0  0  0
    3.2921   -1.6417    1.4672 C   0  0  0  0  0  0  0  0  0  0  0  0
    3.7968   -1.7468    0.3565 O   0  0  0  0  0  0  0  0  0  0  0  0
    3.8140   -2.2162    2.5790 O   0  0  0  0  0  0  0  0  0  0  0  0
   -0.6087   -1.2764    1.1771 H   0  0  0  0  0  0  0  0  0  0  0  0
    0.2947    1.2601    1.6276 H   0  0  0  0  0  0  0  0  0  0  0  0
    1.3849   -0.8465   -0.3168 H   0  0  0  0  0  0  0  0  0  0  0  0
    2.3104    0.5618    0.1928 H   0  0  0  0  0  0  0  0  0  0  0  0
    2.2319   -0.1765    2.5465 H   0  0  0  0  0  0  0  0  0  0  0  0
    1.2496   -1.5611    2.1426 H   0  0  0  0  0  0  0  0  0  0  0  0
    4.6367   -2.7321    2.4410 H   0  0  0  0  0  0  0  0  0  0  0  0
   -0.9229    2.5930   -0.1167 N   0  0  0  0  0  0  0  0  0  0  0  0
   -1.4240    3.5483   -1.0784 C   0  0  2  0  0  0  0  0  0  0  0  0
   -0.3995    4.6679   -1.2067 C   0  0  0  0  0  0  0  0  0  0  0  0
    0.4273    4.9238   -0.3338 O   0  0  0  0  0  0  0  0  0  0  0  0
   -2.7790    4.0968   -0.6591 C   0  0  0  0  0  0  0  0  0  0  0  0
   -1.1112    2.7551    0.8680 H   0  0  0  0  0  0  0  0  0  0  0  0
   -1.5098    3.0198   -2.0341 H   0  0  0  0  0  0  0  0  0  0  0  0
   -2.7129    4.6298    0.2964 H   0  0  0  0  0  0  0  0  0  0  0  0
   -3.1702    4.7989   -1.4028 H   0  0  0  0  0  0  0  0  0  0  0  0
   -3.5068    3.2872   -0.5384 H   0  0  0  0  0  0  0  0  0  0  0  0
   -0.5452    5.3754   -2.3918 N   0  0  0  0  0  0  0  0  0  0  0  0
    0.2996    6.4935   -2.7412 C   0  0  0  0  0  0  0  0  0  0  0  0
   -1.2455    5.0815   -3.0663 H   0  0  0  0  0  0  0  0  0  0  0  0
   -0.1703    7.4287   -2.4027 H   0  0  0  0  0  0  0  0  0  0  0  0
    1.2795    6.3786   -2.2547 H   0  0  0  0  0  0  0  0  0  0  0  0
    0.4336    6.5247   -3.8326 H   0  0  0  0  0  0  0  0  0  0  0  0
  1  3  1  0  0  0  0
  1  7  1  0  0  0  0
  1  2  2  0  0  0  0
 34 35  1  0  0  0  0
 35 43  1  0  0  0  0
 35 36  2  0  0  0  0
  8  9  1  0  0  0  0
  9 17  1  0  0  0  0
  9 10  2  0  0  0  0
 18 19  1  0  0  0  0
 19 33  1  0  0  0  0
 19 20  2  0  0  0  0
 22 23  1  0  0  0  0
 23 24  2  0  0  0  0
 23 25  1  0  0  0  0
 34 37  1  0  0  0  0
  8 11  1  0  0  0  0
 43 44  1  0  0  0  0
 21 22  1  0  0  0  0
 18 21  1  0  0  0  0
 33 34  1  0  0  0  0
  7  8  1  0  0  0  0
 17 18  1  0  0  0  0
  3  4  1  0  0  0  0
  3  5  1  0  0  0  0
  3  6  1  0  0  0  0
 37 40  1  0  0  0  0
 37 41  1  0  0  0  0
 37 42  1  0  0  0  0
 11 14  1  0  0  0  0
 11 15  1  0  0  0  0
 11 16  1  0  0  0  0
 44 46  1  0  0  0  0
 44 47  1  0  0  0  0
 44 48  1  0  0  0  0
 22 30  1  0  0  0  0
 22 31  1  0  0  0  0
 21 28  1  0  0  0  0
 21 29  1  0  0  0  0
 34 39  1  0  0  0  0
  8 13  1  0  0  0  0
 18 27  1  0  0  0  0
 43 45  1  0  0  0  0
  7 12  1  0  0  0  0
 33 38  1  0  0  0  0
 17 26  1  0  0  0  0
 25 32  1  0  0  0  0
M  END
$$$$

  -OEChem-05262214473D

 48 47  0     1  0  0  0  0  0999 V2000
   -5.5827   -1.3473    1.4591 C   0  0  0  0  0  0  0  0  0  0  0  0
   -5.7053   -2.4696    0.9825 O   0  0  0  0  0  0  0  0  0  0  0  0
   -6.7879   -0.6277    1.9670 C   0  0  0  0  0  0  0  0  0  0  0  0
   -7.2718   -0.0164    1.1885 H   0  0  0  0  0  0  0  0  0  0  0  0
   -7.5699   -1.3171    2.3239 H   0  0  0  0  0  0  0  0  0  0  0  0
   -6.6057    0.0628    2.8060 H   0  0  0  0  0  0  0  0  0  0  0  0
   -4.4001   -0.6377    1.5884 N   0  0  0  0  0  0  0  0  0  0  0  0
   -3.1220   -1.1455    1.1644 C   0  0  2  0  0  0  0  0  0  0  0  0
   -2.2017    0.0428    0.9187 C   0  0  0  0  0  0  0  0  0  0  0  0
   -2.6171    1.1750    0.6807 O   0  0  0  0  0  0  0  0  0  0  0  0
   -3.2533   -1.9992   -0.0873 C   0  0  0  0  0  0  0  0  0  0  0  0
   -4.4370    0.2910    2.0047 H   0  0  0  0  0  0  0  0  0  0  0  0
   -2.7302   -1.7467    1.9921 H   0  0  0  0  0  0  0  0  0  0  0  0
   -3.6446   -1.4140   -0.9275 H   0  0  0  0  0  0  0  0  0  0  0  0
   -2.2844   -2.4081   -0.3922 H   0  0  0  0  0  0  0  0  0  0  0  0
   -3.9388   -2.8365    0.0822 H   0  0  0  0  0  0  0  0  0  0  0  0
   -0.8768   -0.3314    0.9568 N   0  0  0  0  0  0  0  0  0  0  0  0
    0.2067    0.6285    0.7375 C   0  0  2  0  0  0  0  0  0  0  0  0
   -0.1976    1.4654   -0.4724 C   0  0  0  0  0  0  0  0  0  0  0  0
   -0.1659    1.0260   -1.6202 O   0  0  0  0  0  0  0  0  0  0  0  0
    1.5205   -0.1331    0.5070 C   0  0  0  0  0  0  0  0  0  0  0  0
    2.0144   -0.8883    1.7408 C   0  0  0  0  0  0  0  0  0  0  0  0
    3.2921   -1.6417    1.4672 C   0  0  0  0  0  0  0  0  0  0  0  0
    3.7968   -1.7468    0.3565 O   0  0  0  0  0  0  0  0  0  0  0  0
    3.8140   -2.2162    2.5790 O   0  0  0  0  0  0  0  0  0  0  0  0
   -0.6087   -1.2764    1.1771 H   0  0  0  0  0  0  0  0  0  0  0  0
    0.2947    1.2601    1.6276 H   0  0  0  0  0  0  0  0  0  0  0  0
    1.3849   -0.8465   -0.3168 H   0  0  0  0  0  0  0  0  0  0  0  0
    2.3104    0.5618    0.1928 H   0  0  0  0  0  0  0  0  0  0  0  0
    2.2319   -0.1765    2.5465 H   0  0  0  0  0  0  0  0  0  0  0  0
    1.2496   -1.5611    2.1426 H   0  0  0  0  0  0  0  0  0  0  0  0
    4.6367   -2.7321    2.4410 H   0  0  0  0  0  0  0  0  0  0  0  0
   -0.6211    2.7377   -0.1175 N   0  0  0  0  0  0  0  0  0  0  0  0
   -1.0583    3.7239   -1.0792 C   0  0  2  0  0  0  0  0  0  0  0  0
    0.1388    4.5946   -1.4373 C   0  0  0  0  0  0  0  0  0  0  0  0
    1.1209    4.7175   -0.7083 O   0  0  0  0  0  0  0  0  0  0  0  0
   -2.1980    4.5667   -0.5282 C   0  0  0  0  0  0  0  0  0  0  0  0
   -0.6240    2.9885    0.8666 H   0  0  0  0  0  0  0  0  0  0  0  0
   -1.3898    3.1746   -1.9671 H   0  0  0  0  0  0  0  0  0  0  0  0
   -1.8848    5.1245    0.3619 H   0  0  0  0  0  0  0  0  0  0  0  0
   -2.5471    5.2943   -1.2683 H   0  0  0  0  0  0  0  0  0  0  0  0
   -3.0469    3.9358   -0.2434 H   0  0  0  0  0  0  0  0  0  0  0  0
   -0.0373    5.2521   -2.6468 N   0  0  0  0  0  0  0  0  0  0  0  0
    0.9526    6.1472   -3.1989 C   0  0  0  0  0  0  0  0  0  0  0  0
   -0.8749    5.0762   -3.1938 H   0  0  0  0  0  0  0  0  0  0  0  0
    0.7354    7.1771   -2.8794 H   0  0  0  0  0  0  0  0  0  0  0  0
    1.9510    5.8553   -2.8411 H   0  0  0  0  0  0  0  0  0  0  0  0
    0.9258    6.0908   -4.2972 H   0  0  0  0  0  0  0  0  0  0  0  0
  1  3  1  0  0  0  0
  1  7  1  0  0  0  0
  1  2  2  0  0  0  0
 34 35  1  0  0  0  0
 35 43  1  0  0  0  0
 35 36  2  0  0  0  0
  8  9  1  0  0  0  0
  9 17  1  0  0  0  0
  9 10  2  0  0  0  0
 18 19  1  0  0  0  0
 19 33  1  0  0  0  0
 19 20  2  0  0  0  0
 22 23  1  0  0  0  0
 23 24  2  0  0  0  0
 23 25  1  0  0  0  0
 34 37  1  0  0  0  0
  8 11  1  0  0  0  0
 43 44  1  0  0  0  0
 21 22  1  0  0  0  0
 18 21  1  0  0  0  0
 33 34  1  0  0  0  0
  7  8  1  0  0  0  0
 17 18  1  0  0  0  0
  3  4  1  0  0  0  0
  3  5  1  0  0  0  0
  3  6  1  0  0  0  0
 37 40  1  0  0  0  0
 37 41  1  0  0  0  0
 37 42  1  0  0  0  0
 11 14  1  0  0  0  0
 11 15  1  0  0  0  0
 11 16  1  0  0  0  0
 44 46  1  0  0  0  0
 44 47  1  0  0  0  0
 44 48  1  0  0  0  0
 22 30  1  0  0  0  0
 22 31  1  0  0  0  0
 21 28  1  0  0  0  0
 21 29  1  0  0  0  0
 34 39  1  0  0  0  0
  8 13  1  0  0  0  0
 18 27  1  0  0  0  0
 43 45  1  0  0  0  0
  7 12  1  0  0  0  0
 33 38  1  0  0  0  0
 17 26  1  0  0  0  0
 25 32  1  0  0  0  0
M  END
$$$$

  -OEChem-05262214473D

 48 47  0     1  0  0  0  0  0999 V2000
   -5.5827   -1.3473    1.4591 C   0  0  0  0  0  0  0  0  0  0  0  0
   -5.7053   -2.4696    0.9825 O   0  0  0  0  0  0  0  0  0  0  0  0
   -6.7879   -0.6277    1.9670 C   0  0  0  0  0  0  0  0  0  0  0  0
   -7.2718   -0.0164    1.1885 H   0  0  0  0  0  0  0  0  0  0  0  0
   -7.5699   -1.3171    2.3239 H   0  0  0  0  0  0  0  0  0  0  0  0
   -6.6057    0.0628    2.8060 H   0  0  0  0  0  0  0  0  0  0  0  0
   -4.4001   -0.6377    1.5884 N   0  0  0  0  0  0  0  0  0  0  0  0
   -3.1220   -1.1455    1.1644 C   0  0  2  0  0  0  0  0  0  0  0  0
   -2.2017    0.0428    0.9187 C   0  0  0  0  0  0  0  0  0  0  0  0
   -2.6171    1.1750    0.6807 O   0  0  0  0  0  0  0  0  0  0  0  0
   -3.2533   -1.9992   -0.0873 C   0  0  0  0  0  0  0  0  0  0  0  0
   -4.4370    0.2910    2.0047 H   0  0  0  0  0  0  0  0  0  0  0  0
   -2.7302   -1.7467    1.9921 H   0  0  0  0  0  0  0  0  0  0  0  0
   -3.6446   -1.4140   -0.9275 H   0  0  0  0  0  0  0  0  0  0  0  0
   -2.2844   -2.4081   -0.3922 H   0  0  0  0  0  0  0  0  0  0  0  0
   -3.9388   -2.8365    0.0822 H   0  0  0  0  0  0  0  0  0  0  0  0
   -0.8768   -0.3314    0.9568 N   0  0  0  0  0  0  0  0  0  0  0  0
    0.2067    0.6285    0.7375 C   0  0  2  0  0  0  0  0  0  0  0  0
   -0.1976    1.4654   -0.4724 C   0  0  0  0  0  0  0  0  0  0  0  0
   -0.4261    0.9681   -1.5733 O   0  0  0  0  0  0  0  0  0  0  0  0
    1.5205   -0.1331    0.5070 C   0  0  0  0  0  0  0  0  0  0  0  0
    2.0144   -0.8883    1.7408 C   0  0  0  0  0  0  0  0  0  0  0  0
    3.2921   -1.6417    1.4672 C   0  0  0  0  0  0  0  0  0  0  0  0
    3.7968   -1.7468    0.3565 O   0  0  0  0  0  0  0  0  0  0  0  0
    3.8140   -2.2162    2.5790 O   0  0  0  0  0  0  0  0  0  0  0  0
   -0.6087   -1.2764    1.1771 H   0  0  0  0  0  0  0  0  0  0  0  0
    0.2947    1.2601    1.6276 H   0  0  0  0  0  0  0  0  0  0  0  0
    1.3849   -0.8465   -0.3168 H   0  0  0  0  0  0  0  0  0  0  0  0
    2.3104    0.5618    0.1928 H   0  0  0  0  0  0  0  0  0  0  0  0
    2.2319   -0.1765    2.5465 H   0  0  0  0  0  0  0  0  0  0  0  0
    1.2496   -1.5611    2.1426 H   0  0  0  0  0  0  0  0  0  0  0  0
    4.6367   -2.7321    2.4410 H   0  0  0  0  0  0  0  0  0  0  0  0
   -0.2999    2.8155   -0.1710 N   0  0  0  0  0  0  0  0  0  0  0  0
   -0.6692    3.8184   -1.1438 C   0  0  2  0  0  0  0  0  0  0  0  0
    0.6110    4.3975   -1.7314 C   0  0  0  0  0  0  0  0  0  0  0  0
    1.6953    4.3502   -1.1543 O   0  0  0  0  0  0  0  0  0  0  0  0
   -1.5217    4.9103   -0.5165 C   0  0  0  0  0  0  0  0  0  0  0  0
   -0.1057    3.1138    0.7801 H   0  0  0  0  0  0  0  0  0  0  0  0
   -1.2326    3.3041   -1.9300 H   0  0  0  0  0  0  0  0  0  0  0  0
   -0.9740    5.4368    0.2736 H   0  0  0  0  0  0  0  0  0  0  0  0
   -1.8245    5.6542   -1.2608 H   0  0  0  0  0  0  0  0  0  0  0  0
   -2.4277    4.4882   -0.0682 H   0  0  0  0  0  0  0  0  0  0  0  0
    0.3918    5.0113   -2.9567 N   0  0  0  0  0  0  0  0  0  0  0  0
    1.4473    5.6473   -3.7100 C   0  0  0  0  0  0  0  0  0  0  0  0
   -0.5360    4.9863   -3.3692 H   0  0  0  0  0  0  0  0  0  0  0  0
    1.4909    6.7155   -3.4511 H   0  0  0  0  0  0  0  0  0  0  0  0
    2.4089    5.1717   -3.4669 H   0  0  0  0  0  0  0  0  0  0  0  0
    1.2462    5.5389   -4.7860 H   0  0  0  0  0  0  0  0  0  0  0  0
  1  3  1  0  0  0  0
  1  7  1  0  0  0  0
  1  2  2  0  0  0  0
 34 35  1  0  0  0  0
 35 43  1  0  0  0  0
 35 36  2  0  0  0  0
  8  9  1  0  0  0  0
  9 17  1  0  0  0  0
  9 10  2  0  0  0  0
 18 19  1  0  0  0  0
 19 33  1  0  0  0  0
 19 20  2  0  0  0  0
 22 23  1  0  0  0  0
 23 24  2  0  0  0  0
 23 25  1  0  0  0  0
 34 37  1  0  0  0  0
  8 11  1  0  0  0  0
 43 44  1  0  0  0  0
 21 22  1  0  0  0  0
 18 21  1  0  0  0  0
 33 34  1  0  0  0  0
  7  8  1  0  0  0  0
 17 18  1  0  0  0  0
  3  4  1  0  0  0  0
  3  5  1  0  0  0  0
  3  6  1  0  0  0  0
 37 40  1  0  0  0  0
 37 41  1  0  0  0  0
 37 42  1  0  0  0  0
 11 14  1  0  0  0  0
 11 15  1  0  0  0  0
 11 16  1  0  0  0  0
 44 46  1  0  0  0  0
 44 47  1  0  0  0  0
 44 48  1  0  0  0  0
 22 30  1  0  0  0  0
 22 31  1  0  0  0  0
 21 28  1  0  0  0  0
 21 29  1  0  0  0  0
 34 39  1  0  0  0  0
  8 13  1  0  0  0  0
 18 27  1  0  0  0  0
 43 45  1  0  0  0  0
  7 12  1  0  0  0  0
 33 38  1  0  0  0  0
 17 26  1  0  0  0  0
 25 32  1  0  0  0  0
M  END
$$$$

  -OEChem-05262214473D

 48 47  0     1  0  0  0  0  0999 V2000
   -5.5827   -1.3473    1.4591 C   0  0  0  0  0  0  0  0  0  0  0  0
   -5.7053   -2.4696    0.9825 O   0  0  0  0  0  0  0  0  0  0  0  0
   -6.7879   -0.6277    1.9670 C   0  0  0  0  0  0  0  0  0  0  0  0
   -7.2718   -0.0164    1.1885 H   0  0  0  0  0  0  0  0  0  0  0  0
   -7.5699   -1.3171    2.3239 H   0  0  0  0  0  0  0  0  0  0  0  0
   -6.6057    0.0628    2.8060 H   0  0  0  0  0  0  0  0  0  0  0  0
   -4.4001   -0.6377    1.5884 N   0  0  0  0  0  0  0  0  0  0  0  0
   -3.1220   -1.1455    1.1644 C   0  0  2  0  0  0  0  0  0  0  0  0
   -2.2017    0.0428    0.9187 C   0  0  0  0  0  0  0  0  0  0  0  0
   -2.6171    1.1750    0.6807 O   0  0  0  0  0  0  0  0  0  0  0  0
   -3.2533   -1.9992   -0.0873 C   0  0  0  0  0  0  0  0  0  0  0  0
   -4.4370    0.2910    2.0047 H   0  0  0  0  0  0  0  0  0  0  0  0
   -2.7302   -1.7467    1.9921 H   0  0  0  0  0  0  0  0  0  0  0  0
   -3.6446   -1.4140   -0.9275 H   0  0  0  0  0  0  0  0  0  0  0  0
   -2.2844   -2.4081   -0.3922 H   0  0  0  0  0  0  0  0  0  0  0  0
   -3.9388   -2.8365    0.0822 H   0  0  0  0  0  0  0  0  0  0  0  0
   -0.8768   -0.3314    0.9568 N   0  0  0  0  0  0  0  0  0  0  0  0
    0.2067    0.6285    0.7375 C   0  0  2  0  0  0  0  0  0  0  0  0
   -0.1976    1.4654   -0.4724 C   0  0  0  0  0  0  0  0  0  0  0  0
   -0.6826    0.9688   -1.4871 O   0  0  0  0  0  0  0  0  0  0  0  0
    1.5205   -0.1331    0.5070 C   0  0  0  0  0  0  0  0  0  0  0  0
    2.0144   -0.8883    1.7408 C   0  0  0  0  0  0  0  0  0  0  0  0
    3.2921   -1.6417    1.4672 C   0  0  0  0  0  0  0  0  0  0  0  0
    3.7968   -1.7468    0.3565 O   0  0  0  0  0  0  0  0  0  0  0  0
    3.8140   -2.2162    2.5790 O   0  0  0  0  0  0  0  0  0  0  0  0
   -0.6087   -1.2764    1.1771 H   0  0  0  0  0  0  0  0  0  0  0  0
    0.2947    1.2601    1.6276 H   0  0  0  0  0  0  0  0  0  0  0  0
    1.3849   -0.8465   -0.3168 H   0  0  0  0  0  0  0  0  0  0  0  0
    2.3104    0.5618    0.1928 H   0  0  0  0  0  0  0  0  0  0  0  0
    2.2319   -0.1765    2.5465 H   0  0  0  0  0  0  0  0  0  0  0  0
    1.2496   -1.5611    2.1426 H   0  0  0  0  0  0  0  0  0  0  0  0
    4.6367   -2.7321    2.4410 H   0  0  0  0  0  0  0  0  0  0  0  0
    0.0187    2.8210   -0.2736 N   0  0  0  0  0  0  0  0  0  0  0  0
   -0.2831    3.8254   -1.2680 C   0  0  2  0  0  0  0  0  0  0  0  0
    0.9849    4.0900   -2.0691 C   0  0  0  0  0  0  0  0  0  0  0  0
    2.1115    3.8469   -1.6414 O   0  0  0  0  0  0  0  0  0  0  0  0
   -0.7964    5.1042   -0.6247 C   0  0  0  0  0  0  0  0  0  0  0  0
    0.4083    3.1226    0.6144 H   0  0  0  0  0  0  0  0  0  0  0  0
   -1.0489    3.3995   -1.9254 H   0  0  0  0  0  0  0  0  0  0  0  0
   -0.0427    5.5455    0.0376 H   0  0  0  0  0  0  0  0  0  0  0  0
   -1.0515    5.8540   -1.3809 H   0  0  0  0  0  0  0  0  0  0  0  0
   -1.6913    4.9067   -0.0248 H   0  0  0  0  0  0  0  0  0  0  0  0
    0.7129    4.6694   -3.3005 N   0  0  0  0  0  0  0  0  0  0  0  0
    1.7500    5.0279   -4.2396 C   0  0  0  0  0  0  0  0  0  0  0  0
   -0.2521    4.8178   -3.5806 H   0  0  0  0  0  0  0  0  0  0  0  0
    2.0448    6.0754   -4.0789 H   0  0  0  0  0  0  0  0  0  0  0  0
    2.6221    4.3746   -4.0896 H   0  0  0  0  0  0  0  0  0  0  0  0
    1.3731    4.9065   -5.2659 H   0  0  0  0  0  0  0  0  0  0  0  0
  1  3  1  0  0  0  0
  1  7  1  0  0  0  0
  1  2  2  0  0  0  0
 34 35  1  0  0  0  0
 35 43  1  0  0  0  0
 35 36  2  0  0  0  0
  8  9  1  0  0  0  0
  9 17  1  0  0  0  0
  9 10  2  0  0  0  0
 18 19  1  0  0  0  0
 19 33  1  0  0  0  0
 19 20  2  0  0  0  0
 22 23  1  0  0  0  0
 23 24  2  0  0  0  0
 23 25  1  0  0  0  0
 34 37  1  0  0  0  0
  8 11  1  0  0  0  0
 43 44  1  0  0  0  0
 21 22  1  0  0  0  0
 18 21  1  0  0  0  0
 33 34  1  0  0  0  0
  7  8  1  0  0  0  0
 17 18  1  0  0  0  0
  3  4  1  0  0  0  0
  3  5  1  0  0  0  0
  3  6  1  0  0  0  0
 37 40  1  0  0  0  0
 37 41  1  0  0  0  0
 37 42  1  0  0  0  0
 11 14  1  0  0  0  0
 11 15  1  0  0  0  0
 11 16  1  0  0  0  0
 44 46  1  0  0  0  0
 44 47  1  0  0  0  0
 44 48  1  0  0  0  0
 22 30  1  0  0  0  0
 22 31  1  0  0  0  0
 21 28  1  0  0  0  0
 21 29  1  0  0  0  0
 34 39  1  0  0  0  0
  8 13  1  0  0  0  0
 18 27  1  0  0  0  0
 43 45  1  0  0  0  0
  7 12  1  0  0  0  0
 33 38  1  0  0  0  0
 17 26  1  0  0  0  0
 25 32  1  0  0  0  0
M  END
$$$$

  -OEChem-05262214473D

 48 47  0     1  0  0  0  0  0999 V2000
   -5.5827   -1.3473    1.4591 C   0  0  0  0  0  0  0  0  0  0  0  0
   -5.7053   -2.4696    0.9825 O   0  0  0  0  0  0  0  0  0  0  0  0
   -6.7879   -0.6277    1.9670 C   0  0  0  0  0  0  0  0  0  0  0  0
   -7.2718   -0.0164    1.1885 H   0  0  0  0  0  0  0  0  0  0  0  0
   -7.5699   -1.3171    2.3239 H   0  0  0  0  0  0  0  0  0  0  0  0
   -6.6057    0.0628    2.8060 H   0  0  0  0  0  0  0  0  0  0  0  0
   -4.4001   -0.6377    1.5884 N   0  0  0  0  0  0  0  0  0  0  0  0
   -3.1220   -1.1455    1.1644 C   0  0  2  0  0  0  0  0  0  0  0  0
   -2.2017    0.0428    0.9187 C   0  0  0  0  0  0  0  0  0  0  0  0
   -2.6171    1.1750    0.6807 O   0  0  0  0  0  0  0  0  0  0  0  0
   -3.2533   -1.9992   -0.0873 C   0  0  0  0  0  0  0  0  0  0  0  0
   -4.4370    0.2910    2.0047 H   0  0  0  0  0  0  0  0  0  0  0  0
   -2.7302   -1.7467    1.9921 H   0  0  0  0  0  0  0  0  0  0  0  0
   -3.6446   -1.4140   -0.9275 H   0  0  0  0  0  0  0  0  0  0  0  0
   -2.2844   -2.4081   -0.3922 H   0  0  0  0  0  0  0  0  0  0  0  0
   -3.9388   -2.8365    0.0822 H   0  0  0  0  0  0  0  0  0  0  0  0
   -0.8768   -0.3314    0.9568 N   0  0  0  0  0  0  0  0  0  0  0  0
    0.2067    0.6285    0.7375 C   0  0  2  0  0  0  0  0  0  0  0  0
   -0.1976    1.4654   -0.4724 C   0  0  0  0  0  0  0  0  0  0  0  0
   -0.9181    1.0280   -1.3674 O   0  0  0  0  0  0  0  0  0  0  0  0
    1.5205   -0.1331    0.5070 C   0  0  0  0  0  0  0  0  0  0  0  0
    2.0144   -0.8883    1.7408 C   0  0  0  0  0  0  0  0  0  0  0  0
    3.2921   -1.6417    1.4672 C   0  0  0  0  0  0  0  0  0  0  0  0
    3.7968   -1.7468    0.3565 O   0  0  0  0  0  0  0  0  0  0  0  0
    3.8140   -2.2162    2.5790 O   0  0  0  0  0  0  0  0  0  0  0  0
   -0.6087   -1.2764    1.1771 H   0  0  0  0  0  0  0  0  0  0  0  0
    0.2947    1.2601    1.6276 H   0  0  0  0  0  0  0  0  0  0  0  0
    1.3849   -0.8465   -0.3168 H   0  0  0  0  0  0  0  0  0  0  0  0
    2.3104    0.5618    0.1928 H   0  0  0  0  0  0  0  0  0  0  0  0
    2.2319   -0.1765    2.5465 H   0  0  0  0  0  0  0  0  0  0  0  0
    1.2496   -1.5611    2.1426 H   0  0  0  0  0  0  0  0  0  0  0  0
    4.6367   -2.7321    2.4410 H   0  0  0  0  0  0  0  0  0  0  0  0
    0.3130    2.7539   -0.4183 N   0  0  0  0  0  0  0  0  0  0  0  0
    0.0737    3.7444   -1.4432 C   0  0  2  0  0  0  0  0  0  0  0  0
    1.2350    3.6931   -2.4272 C   0  0  0  0  0  0  0  0  0  0  0  0
    2.3410    3.2420   -2.1366 O   0  0  0  0  0  0  0  0  0  0  0  0
   -0.0713    5.1352   -0.8456 C   0  0  0  0  0  0  0  0  0  0  0  0
    0.8831    3.0142    0.3808 H   0  0  0  0  0  0  0  0  0  0  0  0
   -0.8512    3.4543   -1.9536 H   0  0  0  0  0  0  0  0  0  0  0  0
    0.8457    5.4432   -0.3300 H   0  0  0  0  0  0  0  0  0  0  0  0
   -0.2809    5.8801   -1.6203 H   0  0  0  0  0  0  0  0  0  0  0  0
   -0.8879    5.1628   -0.1161 H   0  0  0  0  0  0  0  0  0  0  0  0
    0.9040    4.2497   -3.6547 N   0  0  0  0  0  0  0  0  0  0  0  0
    1.8400    4.3311   -4.7516 C   0  0  0  0  0  0  0  0  0  0  0  0
   -0.0425    4.5823   -3.8136 H   0  0  0  0  0  0  0  0  0  0  0  0
    2.3592    5.3004   -4.7201 H   0  0  0  0  0  0  0  0  0  0  0  0
    2.5760    3.5181   -4.6666 H   0  0  0  0  0  0  0  0  0  0  0  0
    1.2977    4.2367   -5.7040 H   0  0  0  0  0  0  0  0  0  0  0  0
  1  3  1  0  0  0  0
  1  7  1  0  0  0  0
  1  2  2  0  0  0  0
 34 35  1  0  0  0  0
 35 43  1  0  0  0  0
 35 36  2  0  0  0  0
  8  9  1  0  0  0  0
  9 17  1  0  0  0  0
  9 10  2  0  0  0  0
 18 19  1  0  0  0  0
 19 33  1  0  0  0  0
 19 20  2  0  0  0  0
 22 23  1  0  0  0  0
 23 24  2  0  0  0  0
 23 25  1  0  0  0  0
 34 37  1  0  0  0  0
  8 11  1  0  0  0  0
 43 44  1  0  0  0  0
 21 22  1  0  0  0  0
 18 21  1  0  0  0  0
 33 34  1  0  0  0  0
  7  8  1  0  0  0  0
 17 18  1  0  0  0  0
  3  4  1  0  0  0  0
  3  5  1  0  0  0  0
  3  6  1  0  0  0  0
 37 40  1  0  0  0  0
 37 41  1  0  0  0  0
 37 42  1  0  0  0  0
 11 14  1  0  0  0  0
 11 15  1  0  0  0  0
 11 16  1  0  0  0  0
 44 46  1  0  0  0  0
 44 47  1  0  0  0  0
 44 48  1  0  0  0  0
 22 30  1  0  0  0  0
 22 31  1  0  0  0  0
 21 28  1  0  0  0  0
 21 29  1  0  0  0  0
 34 39  1  0  0  0  0
  8 13  1  0  0  0  0
 18 27  1  0  0  0  0
 43 45  1  0  0  0  0
  7 12  1  0  0  0  0
 33 38  1  0  0  0  0
 17 26  1  0  0  0  0
 25 32  1  0  0  0  0
M  END
$$$$

  -OEChem-05262214473D

 48 47  0     1  0  0  0  0  0999 V2000
   -5.5827   -1.3473    1.4591 C   0  0  0  0  0  0  0  0  0  0  0  0
   -5.7053   -2.4696    0.9825 O   0  0  0  0  0  0  0  0  0  0  0  0
   -6.7879   -0.6277    1.9670 C   0  0  0  0  0  0  0  0  0  0  0  0
   -7.2718   -0.0164    1.1885 H   0  0  0  0  0  0  0  0  0  0  0  0
   -7.5699   -1.3171    2.3239 H   0  0  0  0  0  0  0  0  0  0  0  0
   -6.6057    0.0628    2.8060 H   0  0  0  0  0  0  0  0  0  0  0  0
   -4.4001   -0.6377    1.5884 N   0  0  0  0  0  0  0  0  0  0  0  0
   -3.1220   -1.1455    1.1644 C   0  0  2  0  0  0  0  0  0  0  0  0
   -2.2017    0.0428    0.9187 C   0  0  0  0  0  0  0  0  0  0  0  0
   -2.6171    1.1750    0.6807 O   0  0  0  0  0  0  0  0  0  0  0  0
   -3.2533   -1.9992   -0.0873 C   0  0  0  0  0  0  0  0  0  0  0  0
   -4.4370    0.2910    2.0047 H   0  0  0  0  0  0  0  0  0  0  0  0
   -2.7302   -1.7467    1.9921 H   0  0  0  0  0  0  0  0  0  0  0  0
   -3.6446   -1.4140   -0.9275 H   0  0  0  0  0  0  0  0  0  0  0  0
   -2.2844   -2.4081   -0.3922 H   0  0  0  0  0  0  0  0  0  0  0  0
   -3.9388   -2.8365    0.0822 H   0  0  0  0  0  0  0  0  0  0  0  0
   -0.8768   -0.3314    0.9568 N   0  0  0  0  0  0  0  0  0  0  0  0
    0.2067    0.6285    0.7375 C   0  0  2  0  0  0  0  0  0  0  0  0
   -0.1976    1.4654   -0.4724 C   0  0  0  0  0  0  0  0  0  0  0  0
   -1.1163    1.1418   -1.2225 O   0  0  0  0  0  0  0  0  0  0  0  0
    1.5205   -0.1331    0.5070 C   0  0  0  0  0  0  0  0  0  0  0  0
    2.0144   -0.8883    1.7408 C   0  0  0  0  0  0  0  0  0  0  0  0
    3.2921   -1.6417    1.4672 C   0  0  0  0  0  0  0  0  0  0  0  0
    3.7968   -1.7468    0.3565 O   0  0  0  0  0  0  0  0  0  0  0  0
    3.8140   -2.2162    2.5790 O   0  0  0  0  0  0  0  0  0  0  0  0
   -0.6087   -1.2764    1.1771 H   0  0  0  0  0  0  0  0  0  0  0  0
    0.2947    1.2601    1.6276 H   0  0  0  0  0  0  0  0  0  0  0  0
    1.3849   -0.8465   -0.3168 H   0  0  0  0  0  0  0  0  0  0  0  0
    2.3104    0.5618    0.1928 H   0  0  0  0  0  0  0  0  0  0  0  0
    2.2319   -0.1765    2.5465 H   0  0  0  0  0  0  0  0  0  0  0  0
    1.2496   -1.5611    2.1426 H   0  0  0  0  0  0  0  0  0  0  0  0
    4.6367   -2.7321    2.4410 H   0  0  0  0  0  0  0  0  0  0  0  0
    0.5630    2.6188   -0.5953 N   0  0  0  0  0  0  0  0  0  0  0  0
    0.3768    3.5809   -1.6576 C   0  0  2  0  0  0  0  0  0  0  0  0
    1.3443    3.2338   -2.7814 C   0  0  0  0  0  0  0  0  0  0  0  0
    2.3682    2.5766   -2.6059 O   0  0  0  0  0  0  0  0  0  0  0  0
    0.6041    5.0012   -1.1640 C   0  0  0  0  0  0  0  0  0  0  0  0
    1.2863    2.7960    0.0951 H   0  0  0  0  0  0  0  0  0  0  0  0
   -0.6530    3.4647   -2.0126 H   0  0  0  0  0  0  0  0  0  0  0  0
    1.6306    5.1368   -0.8042 H   0  0  0  0  0  0  0  0  0  0  0  0
    0.4348    5.7308   -1.9627 H   0  0  0  0  0  0  0  0  0  0  0  0
   -0.0724    5.2390   -0.3359 H   0  0  0  0  0  0  0  0  0  0  0  0
    0.9522    3.7807   -3.9952 N   0  0  0  0  0  0  0  0  0  0  0  0
    1.7113    3.6045   -5.2112 C   0  0  0  0  0  0  0  0  0  0  0  0
    0.0786    4.2959   -4.0522 H   0  0  0  0  0  0  0  0  0  0  0  0
    2.4129    4.4432   -5.3309 H   0  0  0  0  0  0  0  0  0  0  0  0
    2.2738    2.6607   -5.1587 H   0  0  0  0  0  0  0  0  0  0  0  0
    1.0252    3.5751   -6.0706 H   0  0  0  0  0  0  0  0  0  0  0  0
  1  3  1  0  0  0  0
  1  7  1  0  0  0  0
  1  2  2  0  0  0  0
 34 35  1  0  0  0  0
 35 43  1  0  0  0  0
 35 36  2  0  0  0  0
  8  9  1  0  0  0  0
  9 17  1  0  0  0  0
  9 10  2  0  0  0  0
 18 19  1  0  0  0  0
 19 33  1  0  0  0  0
 19 20  2  0  0  0  0
 22 23  1  0  0  0  0
 23 24  2  0  0  0  0
 23 25  1  0  0  0  0
 34 37  1  0  0  0  0
  8 11  1  0  0  0  0
 43 44  1  0  0  0  0
 21 22  1  0  0  0  0
 18 21  1  0  0  0  0
 33 34  1  0  0  0  0
  7  8  1  0  0  0  0
 17 18  1  0  0  0  0
  3  4  1  0  0  0  0
  3  5  1  0  0  0  0
  3  6  1  0  0  0  0
 37 40  1  0  0  0  0
 37 41  1  0  0  0  0
 37 42  1  0  0  0  0
 11 14  1  0  0  0  0
 11 15  1  0  0  0  0
 11 16  1  0  0  0  0
 44 46  1  0  0  0  0
 44 47  1  0  0  0  0
 44 48  1  0  0  0  0
 22 30  1  0  0  0  0
 22 31  1  0  0  0  0
 21 28  1  0  0  0  0
 21 29  1  0  0  0  0
 34 39  1  0  0  0  0
  8 13  1  0  0  0  0
 18 27  1  0  0  0  0
 43 45  1  0  0  0  0
  7 12  1  0  0  0  0
 33 38  1  0  0  0  0
 17 26  1  0  0  0  0
 25 32  1  0  0  0  0
M  END
$$$$

  -OEChem-05262214473D

 48 47  0     1  0  0  0  0  0999 V2000
   -5.5827   -1.3473    1.4591 C   0  0  0  0  0  0  0  0  0  0  0  0
   -5.7053   -2.4696    0.9825 O   0  0  0  0  0  0  0  0  0  0  0  0
   -6.7879   -0.6277    1.9670 C   0  0  0  0  0  0  0  0  0  0  0  0
   -7.2718   -0.0164    1.1885 H   0  0  0  0  0  0  0  0  0  0  0  0
   -7.5699   -1.3171    2.3239 H   0  0  0  0  0  0  0  0  0  0  0  0
   -6.6057    0.0628    2.8060 H   0  0  0  0  0  0  0  0  0  0  0  0
   -4.4001   -0.6377    1.5884 N   0  0  0  0  0  0  0  0  0  0  0  0
   -3.1220   -1.1455    1.1644 C   0  0  2  0  0  0  0  0  0  0  0  0
   -2.2017    0.0428    0.9187 C   0  0  0  0  0  0  0  0  0  0  0  0
   -2.6171    1.1750    0.6807 O   0  0  0  0  0  0  0  0  0  0  0  0
   -3.2533   -1.9992   -0.0873 C   0  0  0  0  0  0  0  0  0  0  0  0
   -4.4370    0.2910    2.0047 H   0  0  0  0  0  0  0  0  0  0  0  0
   -2.7302   -1.7467    1.9921 H   0  0  0  0  0  0  0  0  0  0  0  0
   -3.6446   -1.4140   -0.9275 H   0  0  0  0  0  0  0  0  0  0  0  0
   -2.2844   -2.4081   -0.3922 H   0  0  0  0  0  0  0  0  0  0  0  0
   -3.9388   -2.8365    0.0822 H   0  0  0  0  0  0  0  0  0  0  0  0
   -0.8768   -0.3314    0.9568 N   0  0  0  0  0  0  0  0  0  0  0  0
    0.2067    0.6285    0.7375 C   0  0  2  0  0  0  0  0  0  0  0  0
   -0.3458    1.6939   -0.2045 C   0  0  0  0  0  0  0  0  0  0  0  0
   -1.5026    1.6726   -0.6203 O   0  0  0  0  0  0  0  0  0  0  0  0
    1.4199   -0.1025    0.1434 C   0  0  0  0  0  0  0  0  0  0  0  0
    2.0691   -1.0946    1.1083 C   0  0  0  0  0  0  0  0  0  0  0  0
    3.2401   -1.8084    0.4804 C   0  0  0  0  0  0  0  0  0  0  0  0
    3.5469   -1.7063   -0.7006 O   0  0  0  0  0  0  0  0  0  0  0  0
    3.9067   -2.6000    1.3565 O   0  0  0  0  0  0  0  0  0  0  0  0
   -0.6087   -1.2764    1.1771 H   0  0  0  0  0  0  0  0  0  0  0  0
    0.4759    1.0724    1.7015 H   0  0  0  0  0  0  0  0  0  0  0  0
    1.1102   -0.6386   -0.7637 H   0  0  0  0  0  0  0  0  0  0  0  0
    2.1839    0.6225   -0.1666 H   0  0  0  0  0  0  0  0  0  0  0  0
    2.4564   -0.5584    1.9834 H   0  0  0  0  0  0  0  0  0  0  0  0
    1.3456   -1.8156    1.5028 H   0  0  0  0  0  0  0  0  0  0  0  0
    4.6652   -3.0973    0.9833 H   0  0  0  0  0  0  0  0  0  0  0  0
    0.5887    2.6760   -0.4980 N   0  0  0  0  0  0  0  0  0  0  0  0
    0.3126    3.7977   -1.3666 C   0  0  2  0  0  0  0  0  0  0  0  0
    0.7673    3.4272   -2.7721 C   0  0  0  0  0  0  0  0  0  0  0  0
    1.6077    2.5591   -2.9982 O   0  0  0  0  0  0  0  0  0  0  0  0
    1.0136    5.0576   -0.8829 C   0  0  0  0  0  0  0  0  0  0  0  0
    1.5123    2.6033   -0.0822 H   0  0  0  0  0  0  0  0  0  0  0  0
   -0.7731    3.9432   -1.3598 H   0  0  0  0  0  0  0  0  0  0  0  0
    2.1023    4.9309   -0.8828 H   0  0  0  0  0  0  0  0  0  0  0  0
    0.7805    5.9129   -1.5257 H   0  0  0  0  0  0  0  0  0  0  0  0
    0.7078    5.3058    0.1392 H   0  0  0  0  0  0  0  0  0  0  0  0
    0.1560    4.2098   -3.7416 N   0  0  0  0  0  0  0  0  0  0  0  0
    0.4306    4.0601   -5.1516 C   0  0  0  0  0  0  0  0  0  0  0  0
   -0.5428    4.8930   -3.4648 H   0  0  0  0  0  0  0  0  0  0  0  0
    1.2372    4.7487   -5.4437 H   0  0  0  0  0  0  0  0  0  0  0  0
    0.7403    3.0247   -5.3569 H   0  0  0  0  0  0  0  0  0  0  0  0
   -0.4767    4.2926   -5.7285 H   0  0  0  0  0  0  0  0  0  0  0  0
  1  3  1  0  0  0  0
  1  7  1  0  0  0  0
  1  2  2  0  0  0  0
 34 35  1  0  0  0  0
 35 43  1  0  0  0  0
 35 36  2  0  0  0  0
  8  9  1  0  0  0  0
  9 17  1  0  0  0  0
  9 10  2  0  0  0  0
 18 19  1  0  0  0  0
 19 33  1  0  0  0  0
 19 20  2  0  0  0  0
 22 23  1  0  0  0  0
 23 24  2  0  0  0  0
 23 25  1  0  0  0  0
 34 37  1  0  0  0  0
  8 11  1  0  0  0  0
 43 44  1  0  0  0  0
 21 22  1  0  0  0  0
 18 21  1  0  0  0  0
 33 34  1  0  0  0  0
  7  8  1  0  0  0  0
 17 18  1  0  0  0  0
  3  4  1  0  0  0  0
  3  5  1  0  0  0  0
  3  6  1  0  0  0  0
 37 40  1  0  0  0  0
 37 41  1  0  0  0  0
 37 42  1  0  0  0  0
 11 14  1  0  0  0  0
 11 15  1  0  0  0  0
 11 16  1  0  0  0  0
 44 46  1  0  0  0  0
 44 47  1  0  0  0  0
 44 48  1  0  0  0  0
 22 30  1  0  0  0  0
 22 31  1  0  0  0  0
 21 28  1  0  0  0  0
 21 29  1  0  0  0  0
 34 39  1  0  0  0  0
  8 13  1  0  0  0  0
 18 27  1  0  0  0  0
 43 45  1  0  0  0  0
  7 12  1  0  0  0  0
 33 38  1  0  0  0  0
 17 26  1  0  0  0  0
 25 32  1  0  0  0  0
M  END
$$$$

  -OEChem-05262214473D

 48 47  0     1  0  0  0  0  0999 V2000
   -5.5827   -1.3473    1.4591 C   0  0  0  0  0  0  0  0  0  0  0  0
   -5.7053   -2.4696    0.9825 O   0  0  0  0  0  0  0  0  0  0  0  0
   -6.7879   -0.6277    1.9670 C   0  0  0  0  0  0  0  0  0  0  0  0
   -7.2718   -0.0164    1.1885 H   0  0  0  0  0  0  0  0  0  0  0  0
   -7.5699   -1.3171    2.3239 H   0  0  0  0  0  0  0  0  0  0  0  0
   -6.6057    0.0628    2.8060 H   0  0  0  0  0  0  0  0  0  0  0  0
   -4.4001   -0.6377    1.5884 N   0  0  0  0  0  0  0  0  0  0  0  0
   -3.1220   -1.1455    1.1644 C   0  0  2  0  0  0  0  0  0  0  0  0
   -2.2017    0.0428    0.9187 C   0  0  0  0  0  0  0  0  0  0  0  0
   -2.6171    1.1750    0.6807 O   0  0  0  0  0  0  0  0  0  0  0  0
   -3.2533   -1.9992   -0.0873 C   0  0  0  0  0  0  0  0  0  0  0  0
   -4.4370    0.2910    2.0047 H   0  0  0  0  0  0  0  0  0  0  0  0
   -2.7302   -1.7467    1.9921 H   0  0  0  0  0  0  0  0  0  0  0  0
   -3.6446   -1.4140   -0.9275 H   0  0  0  0  0  0  0  0  0  0  0  0
   -2.2844   -2.4081   -0.3922 H   0  0  0  0  0  0  0  0  0  0  0  0
   -3.9388   -2.8365    0.0822 H   0  0  0  0  0  0  0  0  0  0  0  0
   -0.8768   -0.3314    0.9568 N   0  0  0  0  0  0  0  0  0  0  0  0
    0.2067    0.6285    0.7375 C   0  0  2  0  0  0  0  0  0  0  0  0
   -0.3458    1.6939   -0.2045 C   0  0  0  0  0  0  0  0  0  0  0  0
   -1.5499    1.8349   -0.4089 O   0  0  0  0  0  0  0  0  0  0  0  0
    1.4199   -0.1025    0.1434 C   0  0  0  0  0  0  0  0  0  0  0  0
    2.0691   -1.0946    1.1083 C   0  0  0  0  0  0  0  0  0  0  0  0
    3.2401   -1.8084    0.4804 C   0  0  0  0  0  0  0  0  0  0  0  0
    3.5469   -1.7063   -0.7006 O   0  0  0  0  0  0  0  0  0  0  0  0
    3.9067   -2.6000    1.3565 O   0  0  0  0  0  0  0  0  0  0  0  0
   -0.6087   -1.2764    1.1771 H   0  0  0  0  0  0  0  0  0  0  0  0
    0.4759    1.0724    1.7015 H   0  0  0  0  0  0  0  0  0  0  0  0
    1.1102   -0.6386   -0.7637 H   0  0  0  0  0  0  0  0  0  0  0  0
    2.1839    0.6225   -0.1666 H   0  0  0  0  0  0  0  0  0  0  0  0
    2.4564   -0.5584    1.9834 H   0  0  0  0  0  0  0  0  0  0  0  0
    1.3456   -1.8156    1.5028 H   0  0  0  0  0  0  0  0  0  0  0  0
    4.6652   -3.0973    0.9833 H   0  0  0  0  0  0  0  0  0  0  0  0
    0.6542    2.4783   -0.7601 N   0  0  0  0  0  0  0  0  0  0  0  0
    0.3923    3.5582   -1.6841 C   0  0  2  0  0  0  0  0  0  0  0  0
    0.5128    3.0066   -3.0986 C   0  0  0  0  0  0  0  0  0  0  0  0
    1.1545    1.9942   -3.3713 O   0  0  0  0  0  0  0  0  0  0  0  0
    1.3541    4.7163   -1.4686 C   0  0  0  0  0  0  0  0  0  0  0  0
    1.6178    2.2841   -0.5050 H   0  0  0  0  0  0  0  0  0  0  0  0
   -0.6380    3.8846   -1.5053 H   0  0  0  0  0  0  0  0  0  0  0  0
    2.3915    4.4084   -1.6432 H   0  0  0  0  0  0  0  0  0  0  0  0
    1.1361    5.5452   -2.1502 H   0  0  0  0  0  0  0  0  0  0  0  0
    1.2874    5.0925   -0.4421 H   0  0  0  0  0  0  0  0  0  0  0  0
   -0.1448    3.8018   -4.0267 N   0  0  0  0  0  0  0  0  0  0  0  0
   -0.1665    3.4970   -5.4383 C   0  0  0  0  0  0  0  0  0  0  0  0
   -0.6675    4.6127   -3.7088 H   0  0  0  0  0  0  0  0  0  0  0  0
    0.6653    4.0146   -5.9385 H   0  0  0  0  0  0  0  0  0  0  0  0
   -0.0612    2.4113   -5.5805 H   0  0  0  0  0  0  0  0  0  0  0  0
   -1.1204    3.8327   -5.8711 H   0  0  0  0  0  0  0  0  0  0  0  0
  1  3  1  0  0  0  0
  1  7  1  0  0  0  0
  1  2  2  0  0  0  0
 34 35  1  0  0  0  0
 35 43  1  0  0  0  0
 35 36  2  0  0  0  0
  8  9  1  0  0  0  0
  9 17  1  0  0  0  0
  9 10  2  0  0  0  0
 18 19  1  0  0  0  0
 19 33  1  0  0  0  0
 19 20  2  0  0  0  0
 22 23  1  0  0  0  0
 23 24  2  0  0  0  0
 23 25  1  0  0  0  0
 34 37  1  0  0  0  0
  8 11  1  0  0  0  0
 43 44  1  0  0  0  0
 21 22  1  0  0  0  0
 18 21  1  0  0  0  0
 33 34  1  0  0  0  0
  7  8  1  0  0  0  0
 17 18  1  0  0  0  0
  3  4  1  0  0  0  0
  3  5  1  0  0  0  0
  3  6  1  0  0  0  0
 37 40  1  0  0  0  0
 37 41  1  0  0  0  0
 37 42  1  0  0  0  0
 11 14  1  0  0  0  0
 11 15  1  0  0  0  0
 11 16  1  0  0  0  0
 44 46  1  0  0  0  0
 44 47  1  0  0  0  0
 44 48  1  0  0  0  0
 22 30  1  0  0  0  0
 22 31  1  0  0  0  0
 21 28  1  0  0  0  0
 21 29  1  0  0  0  0
 34 39  1  0  0  0  0
  8 13  1  0  0  0  0
 18 27  1  0  0  0  0
 43 45  1  0  0  0  0
  7 12  1  0  0  0  0
 33 38  1  0  0  0  0
 17 26  1  0  0  0  0
 25 32  1  0  0  0  0
M  END
$$$$

  -OEChem-05262214473D

 48 47  0     1  0  0  0  0  0999 V2000
   -5.5827   -1.3473    1.4591 C   0  0  0  0  0  0  0  0  0  0  0  0
   -5.7053   -2.4696    0.9825 O   0  0  0  0  0  0  0  0  0  0  0  0
   -6.7879   -0.6277    1.9670 C   0  0  0  0  0  0  0  0  0  0  0  0
   -7.2718   -0.0164    1.1885 H   0  0  0  0  0  0  0  0  0  0  0  0
   -7.5699   -1.3171    2.3239 H   0  0  0  0  0  0  0  0  0  0  0  0
   -6.6057    0.0628    2.8060 H   0  0  0  0  0  0  0  0  0  0  0  0
   -4.4001   -0.6377    1.5884 N   0  0  0  0  0  0  0  0  0  0  0  0
   -3.1220   -1.1455    1.1644 C   0  0  2  0  0  0  0  0  0  0  0  0
   -2.2017    0.0428    0.9187 C   0  0  0  0  0  0  0  0  0  0  0  0
   -2.6171    1.1750    0.6807 O   0  0  0  0  0  0  0  0  0  0  0  0
   -3.2533   -1.9992   -0.0873 C   0  0  0  0  0  0  0  0  0  0  0  0
   -4.4370    0.2910    2.0047 H   0  0  0  0  0  0  0  0  0  0  0  0
   -2.7302   -1.7467    1.9921 H   0  0  0  0  0  0  0  0  0  0  0  0
   -3.6446   -1.4140   -0.9275 H   0  0  0  0  0  0  0  0  0  0  0  0
   -2.2844   -2.4081   -0.3922 H   0  0  0  0  0  0  0  0  0  0  0  0
   -3.9388   -2.8365    0.0822 H   0  0  0  0  0  0  0  0  0  0  0  0
   -0.8768   -0.3314    0.9568 N   0  0  0  0  0  0  0  0  0  0  0  0
    0.2067    0.6285    0.7375 C   0  0  2  0  0  0  0  0  0  0  0  0
   -0.3458    1.6939   -0.2045 C   0  0  0  0  0  0  0  0  0  0  0  0
   -1.5315    2.0191   -0.2115 O   0  0  0  0  0  0  0  0  0  0  0  0
    1.4199   -0.1025    0.1434 C   0  0  0  0  0  0  0  0  0  0  0  0
    2.0691   -1.0946    1.1083 C   0  0  0  0  0  0  0  0  0  0  0  0
    3.2401   -1.8084    0.4804 C   0  0  0  0  0  0  0  0  0  0  0  0
    3.5469   -1.7063   -0.7006 O   0  0  0  0  0  0  0  0  0  0  0  0
    3.9067   -2.6000    1.3565 O   0  0  0  0  0  0  0  0  0  0  0  0
   -0.6087   -1.2764    1.1771 H   0  0  0  0  0  0  0  0  0  0  0  0
    0.4759    1.0724    1.7015 H   0  0  0  0  0  0  0  0  0  0  0  0
    1.1102   -0.6386   -0.7637 H   0  0  0  0  0  0  0  0  0  0  0  0
    2.1839    0.6225   -0.1666 H   0  0  0  0  0  0  0  0  0  0  0  0
    2.4564   -0.5584    1.9834 H   0  0  0  0  0  0  0  0  0  0  0  0
    1.3456   -1.8156    1.5028 H   0  0  0  0  0  0  0  0  0  0  0  0
    4.6652   -3.0973    0.9833 H   0  0  0  0  0  0  0  0  0  0  0  0
    0.6385    2.2523   -1.0065 N   0  0  0  0  0  0  0  0  0  0  0  0
    0.3736    3.2844   -1.9828 C   0  0  2  0  0  0  0  0  0  0  0  0
    0.1406    2.6103   -3.3285 C   0  0  0  0  0  0  0  0  0  0  0  0
    0.5589    1.4860   -3.5968 O   0  0  0  0  0  0  0  0  0  0  0  0
    1.5225    4.2774   -2.0640 C   0  0  0  0  0  0  0  0  0  0  0  0
    1.5923    1.9194   -0.9026 H   0  0  0  0  0  0  0  0  0  0  0  0
   -0.5432    3.7928   -1.6648 H   0  0  0  0  0  0  0  0  0  0  0  0
    2.4498    3.7863   -2.3811 H   0  0  0  0  0  0  0  0  0  0  0  0
    1.3080    5.0745   -2.7833 H   0  0  0  0  0  0  0  0  0  0  0  0
    1.7080    4.7393   -1.0883 H   0  0  0  0  0  0  0  0  0  0  0  0
   -0.5520    3.4290   -4.2094 N   0  0  0  0  0  0  0  0  0  0  0  0
   -0.8851    3.0217   -5.5545 C   0  0  0  0  0  0  0  0  0  0  0  0
   -0.8767    4.3389   -3.8957 H   0  0  0  0  0  0  0  0  0  0  0  0
   -0.0939    3.3506   -6.2443 H   0  0  0  0  0  0  0  0  0  0  0  0
   -0.9738    1.9260   -5.5942 H   0  0  0  0  0  0  0  0  0  0  0  0
   -1.8415    3.4779   -5.8494 H   0  0  0  0  0  0  0  0  0  0  0  0
  1  3  1  0  0  0  0
  1  7  1  0  0  0  0
  1  2  2  0  0  0  0
 34 35  1  0  0  0  0
 35 43  1  0  0  0  0
 35 36  2  0  0  0  0
  8  9  1  0  0  0  0
  9 17  1  0  0  0  0
  9 10  2  0  0  0  0
 18 19  1  0  0  0  0
 19 33  1  0  0  0  0
 19 20  2  0  0  0  0
 22 23  1  0  0  0  0
 23 24  2  0  0  0  0
 23 25  1  0  0  0  0
 34 37  1  0  0  0  0
  8 11  1  0  0  0  0
 43 44  1  0  0  0  0
 21 22  1  0  0  0  0
 18 21  1  0  0  0  0
 33 34  1  0  0  0  0
  7  8  1  0  0  0  0
 17 18  1  0  0  0  0
  3  4  1  0  0  0  0
  3  5  1  0  0  0  0
  3  6  1  0  0  0  0
 37 40  1  0  0  0  0
 37 41  1  0  0  0  0
 37 42  1  0  0  0  0
 11 14  1  0  0  0  0
 11 15  1  0  0  0  0
 11 16  1  0  0  0  0
 44 46  1  0  0  0  0
 44 47  1  0  0  0  0
 44 48  1  0  0  0  0
 22 30  1  0  0  0  0
 22 31  1  0  0  0  0
 21 28  1  0  0  0  0
 21 29  1  0  0  0  0
 34 39  1  0  0  0  0
  8 13  1  0  0  0  0
 18 27  1  0  0  0  0
 43 45  1  0  0  0  0
  7 12  1  0  0  0  0
 33 38  1  0  0  0  0
 17 26  1  0  0  0  0
 25 32  1  0  0  0  0
M  END
$$$$

  -OEChem-05262214473D

 48 47  0     1  0  0  0  0  0999 V2000
   -5.5827   -1.3473    1.4591 C   0  0  0  0  0  0  0  0  0  0  0  0
   -5.7053   -2.4696    0.9825 O   0  0  0  0  0  0  0  0  0  0  0  0
   -6.7879   -0.6277    1.9670 C   0  0  0  0  0  0  0  0  0  0  0  0
   -7.2718   -0.0164    1.1885 H   0  0  0  0  0  0  0  0  0  0  0  0
   -7.5699   -1.3171    2.3239 H   0  0  0  0  0  0  0  0  0  0  0  0
   -6.6057    0.0628    2.8060 H   0  0  0  0  0  0  0  0  0  0  0  0
   -4.4001   -0.6377    1.5884 N   0  0  0  0  0  0  0  0  0  0  0  0
   -3.1220   -1.1455    1.1644 C   0  0  2  0  0  0  0  0  0  0  0  0
   -2.2017    0.0428    0.9187 C   0  0  0  0  0  0  0  0  0  0  0  0
   -2.6171    1.1750    0.6807 O   0  0  0  0  0  0  0  0  0  0  0  0
   -3.2533   -1.9992   -0.0873 C   0  0  0  0  0  0  0  0  0  0  0  0
   -4.4370    0.2910    2.0047 H   0  0  0  0  0  0  0  0  0  0  0  0
   -2.7302   -1.7467    1.9921 H   0  0  0  0  0  0  0  0  0  0  0  0
   -3.6446   -1.4140   -0.9275 H   0  0  0  0  0  0  0  0  0  0  0  0
   -2.2844   -2.4081   -0.3922 H   0  0  0  0  0  0  0  0  0  0  0  0
   -3.9388   -2.8365    0.0822 H   0  0  0  0  0  0  0  0  0  0  0  0
   -0.8768   -0.3314    0.9568 N   0  0  0  0  0  0  0  0  0  0  0  0
    0.2067    0.6285    0.7375 C   0  0  2  0  0  0  0  0  0  0  0  0
   -0.3458    1.6939   -0.2045 C   0  0  0  0  0  0  0  0  0  0  0  0
   -1.4485    2.2125   -0.0413 O   0  0  0  0  0  0  0  0  0  0  0  0
    1.4199   -0.1025    0.1434 C   0  0  0  0  0  0  0  0  0  0  0  0
    2.0691   -1.0946    1.1083 C   0  0  0  0  0  0  0  0  0  0  0  0
    3.2401   -1.8084    0.4804 C   0  0  0  0  0  0  0  0  0  0  0  0
    3.5469   -1.7063   -0.7006 O   0  0  0  0  0  0  0  0  0  0  0  0
    3.9067   -2.6000    1.3565 O   0  0  0  0  0  0  0  0  0  0  0  0
   -0.6087   -1.2764    1.1771 H   0  0  0  0  0  0  0  0  0  0  0  0
    0.4759    1.0724    1.7015 H   0  0  0  0  0  0  0  0  0  0  0  0
    1.1102   -0.6386   -0.7637 H   0  0  0  0  0  0  0  0  0  0  0  0
    2.1839    0.6225   -0.1666 H   0  0  0  0  0  0  0  0  0  0  0  0
    2.4564   -0.5584    1.9834 H   0  0  0  0  0  0  0  0  0  0  0  0
    1.3456   -1.8156    1.5028 H   0  0  0  0  0  0  0  0  0  0  0  0
    4.6652   -3.0973    0.9833 H   0  0  0  0  0  0  0  0  0  0  0  0
    0.5427    2.0133   -1.2206 N   0  0  0  0  0  0  0  0  0  0  0  0
    0.2577    2.9949   -2.2423 C   0  0  2  0  0  0  0  0  0  0  0  0
   -0.3237    2.2655   -3.4462 C   0  0  0  0  0  0  0  0  0  0  0  0
   -0.1383    1.0691   -3.6594 O   0  0  0  0  0  0  0  0  0  0  0  0
    1.5075    3.7706   -2.6283 C   0  0  0  0  0  0  0  0  0  0  0  0
    1.4375    1.5338   -1.2479 H   0  0  0  0  0  0  0  0  0  0  0  0
   -0.4952    3.6739   -1.8274 H   0  0  0  0  0  0  0  0  0  0  0  0
    2.2734    3.1069   -3.0460 H   0  0  0  0  0  0  0  0  0  0  0  0
    1.2844    4.5332   -3.3818 H   0  0  0  0  0  0  0  0  0  0  0  0
    1.9412    4.2704   -1.7554 H   0  0  0  0  0  0  0  0  0  0  0  0
   -1.0380    3.1169   -4.2774 N   0  0  0  0  0  0  0  0  0  0  0  0
   -1.6761    2.6664   -5.4923 C   0  0  0  0  0  0  0  0  0  0  0  0
   -1.1564    4.0904   -4.0127 H   0  0  0  0  0  0  0  0  0  0  0  0
   -0.9885    2.8019   -6.3401 H   0  0  0  0  0  0  0  0  0  0  0  0
   -1.9353    1.6017   -5.3970 H   0  0  0  0  0  0  0  0  0  0  0  0
   -2.5908    3.2525   -5.6649 H   0  0  0  0  0  0  0  0  0  0  0  0
  1  3  1  0  0  0  0
  1  7  1  0  0  0  0
  1  2  2  0  0  0  0
 34 35  1  0  0  0  0
 35 43  1  0  0  0  0
 35 36  2  0  0  0  0
  8  9  1  0  0  0  0
  9 17  1  0  0  0  0
  9 10  2  0  0  0  0
 18 19  1  0  0  0  0
 19 33  1  0  0  0  0
 19 20  2  0  0  0  0
 22 23  1  0  0  0  0
 23 24  2  0  0  0  0
 23 25  1  0  0  0  0
 34 37  1  0  0  0  0
  8 11  1  0  0  0  0
 43 44  1  0  0  0  0
 21 22  1  0  0  0  0
 18 21  1  0  0  0  0
 33 34  1  0  0  0  0
  7  8  1  0  0  0  0
 17 18  1  0  0  0  0
  3  4  1  0  0  0  0
  3  5  1  0  0  0  0
  3  6  1  0  0  0  0
 37 40  1  0  0  0  0
 37 41  1  0  0  0  0
 37 42  1  0  0  0  0
 11 14  1  0  0  0  0
 11 15  1  0  0  0  0
 11 16  1  0  0  0  0
 44 46  1  0  0  0  0
 44 47  1  0  0  0  0
 44 48  1  0  0  0  0
 22 30  1  0  0  0  0
 22 31  1  0  0  0  0
 21 28  1  0  0  0  0
 21 29  1  0  0  0  0
 34 39  1  0  0  0  0
  8 13  1  0  0  0  0
 18 27  1  0  0  0  0
 43 45  1  0  0  0  0
  7 12  1  0  0  0  0
 33 38  1  0  0  0  0
 17 26  1  0  0  0  0
 25 32  1  0  0  0  0
M  END
$$$$

  -OEChem-05262214473D

 48 47  0     1  0  0  0  0  0999 V2000
   -5.5827   -1.3473    1.4591 C   0  0  0  0  0  0  0  0  0  0  0  0
   -5.7053   -2.4696    0.9825 O   0  0  0  0  0  0  0  0  0  0  0  0
   -6.7879   -0.6277    1.9670 C   0  0  0  0  0  0  0  0  0  0  0  0
   -7.2718   -0.0164    1.1885 H   0  0  0  0  0  0  0  0  0  0  0  0
   -7.5699   -1.3171    2.3239 H   0  0  0  0  0  0  0  0  0  0  0  0
   -6.6057    0.0628    2.8060 H   0  0  0  0  0  0  0  0  0  0  0  0
   -4.4001   -0.6377    1.5884 N   0  0  0  0  0  0  0  0  0  0  0  0
   -3.1220   -1.1455    1.1644 C   0  0  2  0  0  0  0  0  0  0  0  0
   -2.2017    0.0428    0.9187 C   0  0  0  0  0  0  0  0  0  0  0  0
   -2.6171    1.1750    0.6807 O   0  0  0  0  0  0  0  0  0  0  0  0
   -3.2533   -1.9992   -0.0873 C   0  0  0  0  0  0  0  0  0  0  0  0
   -4.4370    0.2910    2.0047 H   0  0  0  0  0  0  0  0  0  0  0  0
   -2.7302   -1.7467    1.9921 H   0  0  0  0  0  0  0  0  0  0  0  0
   -3.6446   -1.4140   -0.9275 H   0  0  0  0  0  0  0  0  0  0  0  0
   -2.2844   -2.4081   -0.3922 H   0  0  0  0  0  0  0  0  0  0  0  0
   -3.9388   -2.8365    0.0822 H   0  0  0  0  0  0  0  0  0  0  0  0
   -0.8768   -0.3314    0.9568 N   0  0  0  0  0  0  0  0  0  0  0  0
    0.2067    0.6285    0.7375 C   0  0  2  0  0  0  0  0  0  0  0  0
   -0.3458    1.6939   -0.2045 C   0  0  0  0  0  0  0  0  0  0  0  0
   -1.3067    2.4021    0.0899 O   0  0  0  0  0  0  0  0  0  0  0  0
    1.4199   -0.1025    0.1434 C   0  0  0  0  0  0  0  0  0  0  0  0
    2.0691   -1.0946    1.1083 C   0  0  0  0  0  0  0  0  0  0  0  0
    3.2401   -1.8084    0.4804 C   0  0  0  0  0  0  0  0  0  0  0  0
    3.5469   -1.7063   -0.7006 O   0  0  0  0  0  0  0  0  0  0  0  0
    3.9067   -2.6000    1.3565 O   0  0  0  0  0  0  0  0  0  0  0  0
   -0.6087   -1.2764    1.1771 H   0  0  0  0  0  0  0  0  0  0  0  0
    0.4759    1.0724    1.7015 H   0  0  0  0  0  0  0  0  0  0  0  0
    1.1102   -0.6386   -0.7637 H   0  0  0  0  0  0  0  0  0  0  0  0
    2.1839    0.6225   -0.1666 H   0  0  0  0  0  0  0  0  0  0  0  0
    2.4564   -0.5584    1.9834 H   0  0  0  0  0  0  0  0  0  0  0  0
    1.3456   -1.8156    1.5028 H   0  0  0  0  0  0  0  0  0  0  0  0
    4.6652   -3.0973    0.9833 H   0  0  0  0  0  0  0  0  0  0  0  0
    0.3733    1.7778   -1.3876 N   0  0  0  0  0  0  0  0  0  0  0  0
    0.0527    2.7095   -2.4449 C   0  0  2  0  0  0  0  0  0  0  0  0
   -0.8485    1.9955   -3.4437 C   0  0  0  0  0  0  0  0  0  0  0  0
   -0.8896    0.7720   -3.5547 O   0  0  0  0  0  0  0  0  0  0  0  0
    1.3101    3.2307   -3.1232 C   0  0  0  0  0  0  0  0  0  0  0  0
    1.1639    1.1538   -1.5172 H   0  0  0  0  0  0  0  0  0  0  0  0
   -0.4971    3.5362   -1.9820 H   0  0  0  0  0  0  0  0  0  0  0  0
    1.8742    2.4166   -3.5928 H   0  0  0  0  0  0  0  0  0  0  0  0
    1.0669    3.9579   -3.9048 H   0  0  0  0  0  0  0  0  0  0  0  0
    1.9708    3.7177   -2.3979 H   0  0  0  0  0  0  0  0  0  0  0  0
   -1.5695    2.8867   -4.2260 N   0  0  0  0  0  0  0  0  0  0  0  0
   -2.4857    2.4556   -5.2559 C   0  0  0  0  0  0  0  0  0  0  0  0
   -1.4875    3.8841   -4.0519 H   0  0  0  0  0  0  0  0  0  0  0  0
   -1.9577    2.4058   -6.2196 H   0  0  0  0  0  0  0  0  0  0  0  0
   -2.8803    1.4606   -5.0024 H   0  0  0  0  0  0  0  0  0  0  0  0
   -3.3172    3.1718   -5.3301 H   0  0  0  0  0  0  0  0  0  0  0  0
  1  3  1  0  0  0  0
  1  7  1  0  0  0  0
  1  2  2  0  0  0  0
 34 35  1  0  0  0  0
 35 43  1  0  0  0  0
 35 36  2  0  0  0  0
  8  9  1  0  0  0  0
  9 17  1  0  0  0  0
  9 10  2  0  0  0  0
 18 19  1  0  0  0  0
 19 33  1  0  0  0  0
 19 20  2  0  0  0  0
 22 23  1  0  0  0  0
 23 24  2  0  0  0  0
 23 25  1  0  0  0  0
 34 37  1  0  0  0  0
  8 11  1  0  0  0  0
 43 44  1  0  0  0  0
 21 22  1  0  0  0  0
 18 21  1  0  0  0  0
 33 34  1  0  0  0  0
  7  8  1  0  0  0  0
 17 18  1  0  0  0  0
  3  4  1  0  0  0  0
  3  5  1  0  0  0  0
  3  6  1  0  0  0  0
 37 40  1  0  0  0  0
 37 41  1  0  0  0  0
 37 42  1  0  0  0  0
 11 14  1  0  0  0  0
 11 15  1  0  0  0  0
 11 16  1  0  0  0  0
 44 46  1  0  0  0  0
 44 47  1  0  0  0  0
 44 48  1  0  0  0  0
 22 30  1  0  0  0  0
 22 31  1  0  0  0  0
 21 28  1  0  0  0  0
 21 29  1  0  0  0  0
 34 39  1  0  0  0  0
  8 13  1  0  0  0  0
 18 27  1  0  0  0  0
 43 45  1  0  0  0  0
  7 12  1  0  0  0  0
 33 38  1  0  0  0  0
 17 26  1  0  0  0  0
 25 32  1  0  0  0  0
M  END
$$$$

  -OEChem-05262214473D

 48 47  0     1  0  0  0  0  0999 V2000
   -5.5827   -1.3473    1.4591 C   0  0  0  0  0  0  0  0  0  0  0  0
   -5.7053   -2.4696    0.9825 O   0  0  0  0  0  0  0  0  0  0  0  0
   -6.7879   -0.6277    1.9670 C   0  0  0  0  0  0  0  0  0  0  0  0
   -7.2718   -0.0164    1.1885 H   0  0  0  0  0  0  0  0  0  0  0  0
   -7.5699   -1.3171    2.3239 H   0  0  0  0  0  0  0  0  0  0  0  0
   -6.6057    0.0628    2.8060 H   0  0  0  0  0  0  0  0  0  0  0  0
   -4.4001   -0.6377    1.5884 N   0  0  0  0  0  0  0  0  0  0  0  0
   -3.1220   -1.1455    1.1644 C   0  0  2  0  0  0  0  0  0  0  0  0
   -2.2017    0.0428    0.9187 C   0  0  0  0  0  0  0  0  0  0  0  0
   -2.6171    1.1750    0.6807 O   0  0  0  0  0  0  0  0  0  0  0  0
   -3.2533   -1.9992   -0.0873 C   0  0  0  0  0  0  0  0  0  0  0  0
   -4.4370    0.2910    2.0047 H   0  0  0  0  0  0  0  0  0  0  0  0
   -2.7302   -1.7467    1.9921 H   0  0  0  0  0  0  0  0  0  0  0  0
   -3.6446   -1.4140   -0.9275 H   0  0  0  0  0  0  0  0  0  0  0  0
   -2.2844   -2.4081   -0.3922 H   0  0  0  0  0  0  0  0  0  0  0  0
   -3.9388   -2.8365    0.0822 H   0  0  0  0  0  0  0  0  0  0  0  0
   -0.8768   -0.3314    0.9568 N   0  0  0  0  0  0  0  0  0  0  0  0
    0.2067    0.6285    0.7375 C   0  0  2  0  0  0  0  0  0  0  0  0
   -0.3458    1.6939   -0.2045 C   0  0  0  0  0  0  0  0  0  0  0  0
   -1.1158    2.5748    0.1733 O   0  0  0  0  0  0  0  0  0  0  0  0
    1.4199   -0.1025    0.1434 C   0  0  0  0  0  0  0  0  0  0  0  0
    2.0691   -1.0946    1.1083 C   0  0  0  0  0  0  0  0  0  0  0  0
    3.2401   -1.8084    0.4804 C   0  0  0  0  0  0  0  0  0  0  0  0
    3.5469   -1.7063   -0.7006 O   0  0  0  0  0  0  0  0  0  0  0  0
    3.9067   -2.6000    1.3565 O   0  0  0  0  0  0  0  0  0  0  0  0
   -0.6087   -1.2764    1.1771 H   0  0  0  0  0  0  0  0  0  0  0  0
    0.4759    1.0724    1.7015 H   0  0  0  0  0  0  0  0  0  0  0  0
    1.1102   -0.6386   -0.7637 H   0  0  0  0  0  0  0  0  0  0  0  0
    2.1839    0.6225   -0.1666 H   0  0  0  0  0  0  0  0  0  0  0  0
    2.4564   -0.5584    1.9834 H   0  0  0  0  0  0  0  0  0  0  0  0
    1.3456   -1.8156    1.5028 H   0  0  0  0  0  0  0  0  0  0  0  0
    4.6652   -3.0973    0.9833 H   0  0  0  0  0  0  0  0  0  0  0  0
    0.1418    1.5617   -1.4962 N   0  0  0  0  0  0  0  0  0  0  0  0
   -0.2276    2.4476   -2.5768 C   0  0  2  0  0  0  0  0  0  0  0  0
   -1.3982    1.8189   -3.3210 C   0  0  0  0  0  0  0  0  0  0  0  0
   -1.6440    0.6149   -3.2900 O   0  0  0  0  0  0  0  0  0  0  0  0
    0.9436    2.6943   -3.5150 C   0  0  0  0  0  0  0  0  0  0  0  0
    0.7903    0.8052   -1.6924 H   0  0  0  0  0  0  0  0  0  0  0  0
   -0.5489    3.3891   -2.1181 H   0  0  0  0  0  0  0  0  0  0  0  0
    1.2795    1.7623   -3.9840 H   0  0  0  0  0  0  0  0  0  0  0  0
    0.6703    3.3880   -4.3169 H   0  0  0  0  0  0  0  0  0  0  0  0
    1.7950    3.1188   -2.9722 H   0  0  0  0  0  0  0  0  0  0  0  0
   -2.1105    2.7541   -4.0586 N   0  0  0  0  0  0  0  0  0  0  0  0
   -3.2587    2.4034   -4.8615 C   0  0  0  0  0  0  0  0  0  0  0  0
   -1.8472    3.7340   -4.0106 H   0  0  0  0  0  0  0  0  0  0  0  0
   -2.9354    2.1894   -5.8909 H   0  0  0  0  0  0  0  0  0  0  0  0
   -3.7443    1.5123   -4.4371 H   0  0  0  0  0  0  0  0  0  0  0  0
   -3.9713    3.2413   -4.8678 H   0  0  0  0  0  0  0  0  0  0  0  0
  1  3  1  0  0  0  0
  1  7  1  0  0  0  0
  1  2  2  0  0  0  0
 34 35  1  0  0  0  0
 35 43  1  0  0  0  0
 35 36  2  0  0  0  0
  8  9  1  0  0  0  0
  9 17  1  0  0  0  0
  9 10  2  0  0  0  0
 18 19  1  0  0  0  0
 19 33  1  0  0  0  0
 19 20  2  0  0  0  0
 22 23  1  0  0  0  0
 23 24  2  0  0  0  0
 23 25  1  0  0  0  0
 34 37  1  0  0  0  0
  8 11  1  0  0  0  0
 43 44  1  0  0  0  0
 21 22  1  0  0  0  0
 18 21  1  0  0  0  0
 33 34  1  0  0  0  0
  7  8  1  0  0  0  0
 17 18  1  0  0  0  0
  3  4  1  0  0  0  0
  3  5  1  0  0  0  0
  3  6  1  0  0  0  0
 37 40  1  0  0  0  0
 37 41  1  0  0  0  0
 37 42  1  0  0  0  0
 11 14  1  0  0  0  0
 11 15  1  0  0  0  0
 11 16  1  0  0  0  0
 44 46  1  0  0  0  0
 44 47  1  0  0  0  0
 44 48  1  0  0  0  0
 22 30  1  0  0  0  0
 22 31  1  0  0  0  0
 21 28  1  0  0  0  0
 21 29  1  0  0  0  0
 34 39  1  0  0  0  0
  8 13  1  0  0  0  0
 18 27  1  0  0  0  0
 43 45  1  0  0  0  0
  7 12  1  0  0  0  0
 33 38  1  0  0  0  0
 17 26  1  0  0  0  0
 25 32  1  0  0  0  0
M  END
$$$$

  -OEChem-05262214473D

 48 47  0     1  0  0  0  0  0999 V2000
   -5.5827   -1.3473    1.4591 C   0  0  0  0  0  0  0  0  0  0  0  0
   -5.7053   -2.4696    0.9825 O   0  0  0  0  0  0  0  0  0  0  0  0
   -6.7879   -0.6277    1.9670 C   0  0  0  0  0  0  0  0  0  0  0  0
   -7.2718   -0.0164    1.1885 H   0  0  0  0  0  0  0  0  0  0  0  0
   -7.5699   -1.3171    2.3239 H   0  0  0  0  0  0  0  0  0  0  0  0
   -6.6057    0.0628    2.8060 H   0  0  0  0  0  0  0  0  0  0  0  0
   -4.4001   -0.6377    1.5884 N   0  0  0  0  0  0  0  0  0  0  0  0
   -3.1220   -1.1455    1.1644 C   0  0  2  0  0  0  0  0  0  0  0  0
   -2.2017    0.0428    0.9187 C   0  0  0  0  0  0  0  0  0  0  0  0
   -2.6171    1.1750    0.6807 O   0  0  0  0  0  0  0  0  0  0  0  0
   -3.2533   -1.9992   -0.0873 C   0  0  0  0  0  0  0  0  0  0  0  0
   -4.4370    0.2910    2.0047 H   0  0  0  0  0  0  0  0  0  0  0  0
   -2.7302   -1.7467    1.9921 H   0  0  0  0  0  0  0  0  0  0  0  0
   -3.6446   -1.4140   -0.9275 H   0  0  0  0  0  0  0  0  0  0  0  0
   -2.2844   -2.4081   -0.3922 H   0  0  0  0  0  0  0  0  0  0  0  0
   -3.9388   -2.8365    0.0822 H   0  0  0  0  0  0  0  0  0  0  0  0
   -0.8768   -0.3314    0.9568 N   0  0  0  0  0  0  0  0  0  0  0  0
    0.2067    0.6285    0.7375 C   0  0  2  0  0  0  0  0  0  0  0  0
   -0.3458    1.6939   -0.2045 C   0  0  0  0  0  0  0  0  0  0  0  0
   -0.8887    2.7190    0.2031 O   0  0  0  0  0  0  0  0  0  0  0  0
    1.4199   -0.1025    0.1434 C   0  0  0  0  0  0  0  0  0  0  0  0
    2.0691   -1.0946    1.1083 C   0  0  0  0  0  0  0  0  0  0  0  0
    3.2401   -1.8084    0.4804 C   0  0  0  0  0  0  0  0  0  0  0  0
    3.5469   -1.7063   -0.7006 O   0  0  0  0  0  0  0  0  0  0  0  0
    3.9067   -2.6000    1.3565 O   0  0  0  0  0  0  0  0  0  0  0  0
   -0.6087   -1.2764    1.1771 H   0  0  0  0  0  0  0  0  0  0  0  0
    0.4759    1.0724    1.7015 H   0  0  0  0  0  0  0  0  0  0  0  0
    1.1102   -0.6386   -0.7637 H   0  0  0  0  0  0  0  0  0  0  0  0
    2.1839    0.6225   -0.1666 H   0  0  0  0  0  0  0  0  0  0  0  0
    2.4564   -0.5584    1.9834 H   0  0  0  0  0  0  0  0  0  0  0  0
    1.3456   -1.8156    1.5028 H   0  0  0  0  0  0  0  0  0  0  0  0
    4.6652   -3.0973    0.9833 H   0  0  0  0  0  0  0  0  0  0  0  0
   -0.1359    1.3798   -1.5391 N   0  0  0  0  0  0  0  0  0  0  0  0
   -0.5640    2.2270   -2.6289 C   0  0  2  0  0  0  0  0  0  0  0  0
   -1.9352    1.7476   -3.0867 C   0  0  0  0  0  0  0  0  0  0  0  0
   -2.3499    0.6084   -2.8832 O   0  0  0  0  0  0  0  0  0  0  0  0
    0.4331    2.1980   -3.7768 C   0  0  0  0  0  0  0  0  0  0  0  0
    0.3421    0.5118   -1.7613 H   0  0  0  0  0  0  0  0  0  0  0  0
   -0.6471    3.2424   -2.2264 H   0  0  0  0  0  0  0  0  0  0  0  0
    0.5298    1.1886   -4.1931 H   0  0  0  0  0  0  0  0  0  0  0  0
    0.1217    2.8623   -4.5897 H   0  0  0  0  0  0  0  0  0  0  0  0
    1.4258    2.5146   -3.4389 H   0  0  0  0  0  0  0  0  0  0  0  0
   -2.6239    2.7282   -3.7868 N   0  0  0  0  0  0  0  0  0  0  0  0
   -3.9424    2.5135   -4.3360 C   0  0  0  0  0  0  0  0  0  0  0  0
   -2.2113    3.6504   -3.8916 H   0  0  0  0  0  0  0  0  0  0  0  0
   -3.8549    2.1674   -5.3765 H   0  0  0  0  0  0  0  0  0  0  0  0
   -4.4684    1.7532   -3.7398 H   0  0  0  0  0  0  0  0  0  0  0  0
   -4.5084    3.4563   -4.3096 H   0  0  0  0  0  0  0  0  0  0  0  0
  1  3  1  0  0  0  0
  1  7  1  0  0  0  0
  1  2  2  0  0  0  0
 34 35  1  0  0  0  0
 35 43  1  0  0  0  0
 35 36  2  0  0  0  0
  8  9  1  0  0  0  0
  9 17  1  0  0  0  0
  9 10  2  0  0  0  0
 18 19  1  0  0  0  0
 19 33  1  0  0  0  0
 19 20  2  0  0  0  0
 22 23  1  0  0  0  0
 23 24  2  0  0  0  0
 23 25  1  0  0  0  0
 34 37  1  0  0  0  0
  8 11  1  0  0  0  0
 43 44  1  0  0  0  0
 21 22  1  0  0  0  0
 18 21  1  0  0  0  0
 33 34  1  0  0  0  0
  7  8  1  0  0  0  0
 17 18  1  0  0  0  0
  3  4  1  0  0  0  0
  3  5  1  0  0  0  0
  3  6  1  0  0  0  0
 37 40  1  0  0  0  0
 37 41  1  0  0  0  0
 37 42  1  0  0  0  0
 11 14  1  0  0  0  0
 11 15  1  0  0  0  0
 11 16  1  0  0  0  0
 44 46  1  0  0  0  0
 44 47  1  0  0  0  0
 44 48  1  0  0  0  0
 22 30  1  0  0  0  0
 22 31  1  0  0  0  0
 21 28  1  0  0  0  0
 21 29  1  0  0  0  0
 34 39  1  0  0  0  0
  8 13  1  0  0  0  0
 18 27  1  0  0  0  0
 43 45  1  0  0  0  0
  7 12  1  0  0  0  0
 33 38  1  0  0  0  0
 17 26  1  0  0  0  0
 25 32  1  0  0  0  0
M  END
$$$$

  -OEChem-05262214473D

 48 47  0     1  0  0  0  0  0999 V2000
   -5.5827   -1.3473    1.4591 C   0  0  0  0  0  0  0  0  0  0  0  0
   -5.7053   -2.4696    0.9825 O   0  0  0  0  0  0  0  0  0  0  0  0
   -6.7879   -0.6277    1.9670 C   0  0  0  0  0  0  0  0  0  0  0  0
   -7.2718   -0.0164    1.1885 H   0  0  0  0  0  0  0  0  0  0  0  0
   -7.5699   -1.3171    2.3239 H   0  0  0  0  0  0  0  0  0  0  0  0
   -6.6057    0.0628    2.8060 H   0  0  0  0  0  0  0  0  0  0  0  0
   -4.4001   -0.6377    1.5884 N   0  0  0  0  0  0  0  0  0  0  0  0
   -3.1220   -1.1455    1.1644 C   0  0  2  0  0  0  0  0  0  0  0  0
   -2.2017    0.0428    0.9187 C   0  0  0  0  0  0  0  0  0  0  0  0
   -2.6171    1.1750    0.6807 O   0  0  0  0  0  0  0  0  0  0  0  0
   -3.2533   -1.9992   -0.0873 C   0  0  0  0  0  0  0  0  0  0  0  0
   -4.4370    0.2910    2.0047 H   0  0  0  0  0  0  0  0  0  0  0  0
   -2.7302   -1.7467    1.9921 H   0  0  0  0  0  0  0  0  0  0  0  0
   -3.6446   -1.4140   -0.9275 H   0  0  0  0  0  0  0  0  0  0  0  0
   -2.2844   -2.4081   -0.3922 H   0  0  0  0  0  0  0  0  0  0  0  0
   -3.9388   -2.8365    0.0822 H   0  0  0  0  0  0  0  0  0  0  0  0
   -0.8768   -0.3314    0.9568 N   0  0  0  0  0  0  0  0  0  0  0  0
    0.2067    0.6285    0.7375 C   0  0  2  0  0  0  0  0  0  0  0  0
   -0.3458    1.6939   -0.2045 C   0  0  0  0  0  0  0  0  0  0  0  0
   -0.6409    2.8247    0.1774 O   0  0  0  0  0  0  0  0  0  0  0  0
    1.4199   -0.1025    0.1434 C   0  0  0  0  0  0  0  0  0  0  0  0
    2.0691   -1.0946    1.1083 C   0  0  0  0  0  0  0  0  0  0  0  0
    3.2401   -1.8084    0.4804 C   0  0  0  0  0  0  0  0  0  0  0  0
    3.5469   -1.7063   -0.7006 O   0  0  0  0  0  0  0  0  0  0  0  0
    3.9067   -2.6000    1.3565 O   0  0  0  0  0  0  0  0  0  0  0  0
   -0.6087   -1.2764    1.1771 H   0  0  0  0  0  0  0  0  0  0  0  0
    0.4759    1.0724    1.7015 H   0  0  0  0  0  0  0  0  0  0  0  0
    1.1102   -0.6386   -0.7637 H   0  0  0  0  0  0  0  0  0  0  0  0
    2.1839    0.6225   -0.1666 H   0  0  0  0  0  0  0  0  0  0  0  0
    2.4564   -0.5584    1.9834 H   0  0  0  0  0  0  0  0  0  0  0  0
    1.3456   -1.8156    1.5028 H   0  0  0  0  0  0  0  0  0  0  0  0
    4.6652   -3.0973    0.9833 H   0  0  0  0  0  0  0  0  0  0  0  0
   -0.4410    1.2445   -1.5132 N   0  0  0  0  0  0  0  0  0  0  0  0
   -0.9336    2.0628   -2.5978 C   0  0  2  0  0  0  0  0  0  0  0  0
   -2.4229    1.7865   -2.7566 C   0  0  0  0  0  0  0  0  0  0  0  0
   -2.9592    0.7532   -2.3621 O   0  0  0  0  0  0  0  0  0  0  0  0
   -0.1866    1.7756   -3.8910 C   0  0  0  0  0  0  0  0  0  0  0  0
   -0.1503    0.2935   -1.7194 H   0  0  0  0  0  0  0  0  0  0  0  0
   -0.7849    3.1063   -2.2995 H   0  0  0  0  0  0  0  0  0  0  0  0
   -0.3238    0.7347   -4.2058 H   0  0  0  0  0  0  0  0  0  0  0  0
   -0.5415    2.4165   -4.7049 H   0  0  0  0  0  0  0  0  0  0  0  0
    0.8881    1.9463   -3.7664 H   0  0  0  0  0  0  0  0  0  0  0  0
   -3.0749    2.8107   -3.4290 N   0  0  0  0  0  0  0  0  0  0  0  0
   -4.4902    2.7783   -3.7151 C   0  0  0  0  0  0  0  0  0  0  0  0
   -2.5548    3.6390   -3.7030 H   0  0  0  0  0  0  0  0  0  0  0  0
   -4.6536    2.3414   -4.7112 H   0  0  0  0  0  0  0  0  0  0  0  0
   -5.0033    2.1671   -2.9580 H   0  0  0  0  0  0  0  0  0  0  0  0
   -4.8920    3.8021   -3.6935 H   0  0  0  0  0  0  0  0  0  0  0  0
  1  3  1  0  0  0  0
  1  7  1  0  0  0  0
  1  2  2  0  0  0  0
 34 35  1  0  0  0  0
 35 43  1  0  0  0  0
 35 36  2  0  0  0  0
  8  9  1  0  0  0  0
  9 17  1  0  0  0  0
  9 10  2  0  0  0  0
 18 19  1  0  0  0  0
 19 33  1  0  0  0  0
 19 20  2  0  0  0  0
 22 23  1  0  0  0  0
 23 24  2  0  0  0  0
 23 25  1  0  0  0  0
 34 37  1  0  0  0  0
  8 11  1  0  0  0  0
 43 44  1  0  0  0  0
 21 22  1  0  0  0  0
 18 21  1  0  0  0  0
 33 34  1  0  0  0  0
  7  8  1  0  0  0  0
 17 18  1  0  0  0  0
  3  4  1  0  0  0  0
  3  5  1  0  0  0  0
  3  6  1  0  0  0  0
 37 40  1  0  0  0  0
 37 41  1  0  0  0  0
 37 42  1  0  0  0  0
 11 14  1  0  0  0  0
 11 15  1  0  0  0  0
 11 16  1  0  0  0  0
 44 46  1  0  0  0  0
 44 47  1  0  0  0  0
 44 48  1  0  0  0  0
 22 30  1  0  0  0  0
 22 31  1  0  0  0  0
 21 28  1  0  0  0  0
 21 29  1  0  0  0  0
 34 39  1  0  0  0  0
  8 13  1  0  0  0  0
 18 27  1  0  0  0  0
 43 45  1  0  0  0  0
  7 12  1  0  0  0  0
 33 38  1  0  0  0  0
 17 26  1  0  0  0  0
 25 32  1  0  0  0  0
M  END
$$$$

  -OEChem-05262214473D

 48 47  0     1  0  0  0  0  0999 V2000
   -5.5827   -1.3473    1.4591 C   0  0  0  0  0  0  0  0  0  0  0  0
   -5.7053   -2.4696    0.9825 O   0  0  0  0  0  0  0  0  0  0  0  0
   -6.7879   -0.6277    1.9670 C   0  0  0  0  0  0  0  0  0  0  0  0
   -7.2718   -0.0164    1.1885 H   0  0  0  0  0  0  0  0  0  0  0  0
   -7.5699   -1.3171    2.3239 H   0  0  0  0  0  0  0  0  0  0  0  0
   -6.6057    0.0628    2.8060 H   0  0  0  0  0  0  0  0  0  0  0  0
   -4.4001   -0.6377    1.5884 N   0  0  0  0  0  0  0  0  0  0  0  0
   -3.1220   -1.1455    1.1644 C   0  0  2  0  0  0  0  0  0  0  0  0
   -2.2017    0.0428    0.9187 C   0  0  0  0  0  0  0  0  0  0  0  0
   -2.6171    1.1750    0.6807 O   0  0  0  0  0  0  0  0  0  0  0  0
   -3.2533   -1.9992   -0.0873 C   0  0  0  0  0  0  0  0  0  0  0  0
   -4.4370    0.2910    2.0047 H   0  0  0  0  0  0  0  0  0  0  0  0
   -2.7302   -1.7467    1.9921 H   0  0  0  0  0  0  0  0  0  0  0  0
   -3.6446   -1.4140   -0.9275 H   0  0  0  0  0  0  0  0  0  0  0  0
   -2.2844   -2.4081   -0.3922 H   0  0  0  0  0  0  0  0  0  0  0  0
   -3.9388   -2.8365    0.0822 H   0  0  0  0  0  0  0  0  0  0  0  0
   -0.8768   -0.3314    0.9568 N   0  0  0  0  0  0  0  0  0  0  0  0
    0.2067    0.6285    0.7375 C   0  0  2  0  0  0  0  0  0  0  0  0
   -0.3458    1.6939   -0.2045 C   0  0  0  0  0  0  0  0  0  0  0  0
   -0.3893    2.8848    0.0978 O   0  0  0  0  0  0  0  0  0  0  0  0
    1.4199   -0.1025    0.1434 C   0  0  0  0  0  0  0  0  0  0  0  0
    2.0691   -1.0946    1.1083 C   0  0  0  0  0  0  0  0  0  0  0  0
    3.2401   -1.8084    0.4804 C   0  0  0  0  0  0  0  0  0  0  0  0
    3.5469   -1.7063   -0.7006 O   0  0  0  0  0  0  0  0  0  0  0  0
    3.9067   -2.6000    1.3565 O   0  0  0  0  0  0  0  0  0  0  0  0
   -0.6087   -1.2764    1.1771 H   0  0  0  0  0  0  0  0  0  0  0  0
    0.4759    1.0724    1.7015 H   0  0  0  0  0  0  0  0  0  0  0  0
    1.1102   -0.6386   -0.7637 H   0  0  0  0  0  0  0  0  0  0  0  0
    2.1839    0.6225   -0.1666 H   0  0  0  0  0  0  0  0  0  0  0  0
    2.4564   -0.5584    1.9834 H   0  0  0  0  0  0  0  0  0  0  0  0
    1.3456   -1.8156    1.5028 H   0  0  0  0  0  0  0  0  0  0  0  0
    4.6652   -3.0973    0.9833 H   0  0  0  0  0  0  0  0  0  0  0  0
   -0.7527    1.1649   -1.4204 N   0  0  0  0  0  0  0  0  0  0  0  0
   -1.3112    1.9662   -2.4856 C   0  0  2  0  0  0  0  0  0  0  0  0
   -2.8281    1.9330   -2.3532 C   0  0  0  0  0  0  0  0  0  0  0  0
   -3.4305    1.0392   -1.7622 O   0  0  0  0  0  0  0  0  0  0  0  0
   -0.8734    1.4560   -3.8497 C   0  0  0  0  0  0  0  0  0  0  0  0
   -0.6531    0.1653   -1.5695 H   0  0  0  0  0  0  0  0  0  0  0  0
   -0.9530    2.9900   -2.3324 H   0  0  0  0  0  0  0  0  0  0  0  0
   -1.2232    0.4315   -4.0212 H   0  0  0  0  0  0  0  0  0  0  0  0
   -1.2742    2.0812   -4.6545 H   0  0  0  0  0  0  0  0  0  0  0  0
    0.2188    1.4525   -3.9323 H   0  0  0  0  0  0  0  0  0  0  0  0
   -3.4326    2.9959   -3.0097 N   0  0  0  0  0  0  0  0  0  0  0  0
   -4.8648    3.1799   -3.0411 C   0  0  0  0  0  0  0  0  0  0  0  0
   -2.8543    3.7006   -3.4577 H   0  0  0  0  0  0  0  0  0  0  0  0
   -5.2771    2.6993   -3.9406 H   0  0  0  0  0  0  0  0  0  0  0  0
   -5.3125    2.7255   -2.1450 H   0  0  0  0  0  0  0  0  0  0  0  0
   -5.0959    4.2552   -3.0615 H   0  0  0  0  0  0  0  0  0  0  0  0
  1  3  1  0  0  0  0
  1  7  1  0  0  0  0
  1  2  2  0  0  0  0
 34 35  1  0  0  0  0
 35 43  1  0  0  0  0
 35 36  2  0  0  0  0
  8  9  1  0  0  0  0
  9 17  1  0  0  0  0
  9 10  2  0  0  0  0
 18 19  1  0  0  0  0
 19 33  1  0  0  0  0
 19 20  2  0  0  0  0
 22 23  1  0  0  0  0
 23 24  2  0  0  0  0
 23 25  1  0  0  0  0
 34 37  1  0  0  0  0
  8 11  1  0  0  0  0
 43 44  1  0  0  0  0
 21 22  1  0  0  0  0
 18 21  1  0  0  0  0
 33 34  1  0  0  0  0
  7  8  1  0  0  0  0
 17 18  1  0  0  0  0
  3  4  1  0  0  0  0
  3  5  1  0  0  0  0
  3  6  1  0  0  0  0
 37 40  1  0  0  0  0
 37 41  1  0  0  0  0
 37 42  1  0  0  0  0
 11 14  1  0  0  0  0
 11 15  1  0  0  0  0
 11 16  1  0  0  0  0
 44 46  1  0  0  0  0
 44 47  1  0  0  0  0
 44 48  1  0  0  0  0
 22 30  1  0  0  0  0
 22 31  1  0  0  0  0
 21 28  1  0  0  0  0
 21 29  1  0  0  0  0
 34 39  1  0  0  0  0
  8 13  1  0  0  0  0
 18 27  1  0  0  0  0
 43 45  1  0  0  0  0
  7 12  1  0  0  0  0
 33 38  1  0  0  0  0
 17 26  1  0  0  0  0
 25 32  1  0  0  0  0
M  END
$$$$

  -OEChem-05262214473D

 48 47  0     1  0  0  0  0  0999 V2000
   -5.5827   -1.3473    1.4591 C   0  0  0  0  0  0  0  0  0  0  0  0
   -5.7053   -2.4696    0.9825 O   0  0  0  0  0  0  0  0  0  0  0  0
   -6.7879   -0.6277    1.9670 C   0  0  0  0  0  0  0  0  0  0  0  0
   -7.2718   -0.0164    1.1885 H   0  0  0  0  0  0  0  0  0  0  0  0
   -7.5699   -1.3171    2.3239 H   0  0  0  0  0  0  0  0  0  0  0  0
   -6.6057    0.0628    2.8060 H   0  0  0  0  0  0  0  0  0  0  0  0
   -4.4001   -0.6377    1.5884 N   0  0  0  0  0  0  0  0  0  0  0  0
   -3.1220   -1.1455    1.1644 C   0  0  2  0  0  0  0  0  0  0  0  0
   -2.2017    0.0428    0.9187 C   0  0  0  0  0  0  0  0  0  0  0  0
   -2.6171    1.1750    0.6807 O   0  0  0  0  0  0  0  0  0  0  0  0
   -3.2533   -1.9992   -0.0873 C   0  0  0  0  0  0  0  0  0  0  0  0
   -4.4370    0.2910    2.0047 H   0  0  0  0  0  0  0  0  0  0  0  0
   -2.7302   -1.7467    1.9921 H   0  0  0  0  0  0  0  0  0  0  0  0
   -3.6446   -1.4140   -0.9275 H   0  0  0  0  0  0  0  0  0  0  0  0
   -2.2844   -2.4081   -0.3922 H   0  0  0  0  0  0  0  0  0  0  0  0
   -3.9388   -2.8365    0.0822 H   0  0  0  0  0  0  0  0  0  0  0  0
   -0.8768   -0.3314    0.9568 N   0  0  0  0  0  0  0  0  0  0  0  0
    0.2067    0.6285    0.7375 C   0  0  2  0  0  0  0  0  0  0  0  0
   -0.3458    1.6939   -0.2045 C   0  0  0  0  0  0  0  0  0  0  0  0
   -0.1510    2.8952   -0.0302 O   0  0  0  0  0  0  0  0  0  0  0  0
    1.4199   -0.1025    0.1434 C   0  0  0  0  0  0  0  0  0  0  0  0
    2.0691   -1.0946    1.1083 C   0  0  0  0  0  0  0  0  0  0  0  0
    3.2401   -1.8084    0.4804 C   0  0  0  0  0  0  0  0  0  0  0  0
    3.5469   -1.7063   -0.7006 O   0  0  0  0  0  0  0  0  0  0  0  0
    3.9067   -2.6000    1.3565 O   0  0  0  0  0  0  0  0  0  0  0  0
   -0.6087   -1.2764    1.1771 H   0  0  0  0  0  0  0  0  0  0  0  0
    0.4759    1.0724    1.7015 H   0  0  0  0  0  0  0  0  0  0  0  0
    1.1102   -0.6386   -0.7637 H   0  0  0  0  0  0  0  0  0  0  0  0
    2.1839    0.6225   -0.1666 H   0  0  0  0  0  0  0  0  0  0  0  0
    2.4564   -0.5584    1.9834 H   0  0  0  0  0  0  0  0  0  0  0  0
    1.3456   -1.8156    1.5028 H   0  0  0  0  0  0  0  0  0  0  0  0
    4.6652   -3.0973    0.9833 H   0  0  0  0  0  0  0  0  0  0  0  0
   -1.0496    1.1466   -1.2670 N   0  0  0  0  0  0  0  0  0  0  0  0
   -1.6712    1.9437   -2.2999 C   0  0  2  0  0  0  0  0  0  0  0  0
   -3.1232    2.1771   -1.9041 C   0  0  0  0  0  0  0  0  0  0  0  0
   -3.7315    1.4470   -1.1243 O   0  0  0  0  0  0  0  0  0  0  0  0
   -1.5804    1.2609   -3.6557 C   0  0  0  0  0  0  0  0  0  0  0  0
   -1.1323    0.1359   -1.3218 H   0  0  0  0  0  0  0  0  0  0  0  0
   -1.1399    2.9015   -2.3230 H   0  0  0  0  0  0  0  0  0  0  0  0
   -2.1070    0.2996   -3.6520 H   0  0  0  0  0  0  0  0  0  0  0  0
   -2.0263    1.8790   -4.4419 H   0  0  0  0  0  0  0  0  0  0  0  0
   -0.5365    1.0670   -3.9253 H   0  0  0  0  0  0  0  0  0  0  0  0
   -3.6728    3.2713   -2.5573 N   0  0  0  0  0  0  0  0  0  0  0  0
   -5.0407    3.6908   -2.3601 C   0  0  0  0  0  0  0  0  0  0  0  0
   -3.0895    3.8309   -3.1724 H   0  0  0  0  0  0  0  0  0  0  0  0
   -5.6828    3.2170   -3.1172 H   0  0  0  0  0  0  0  0  0  0  0  0
   -5.3750    3.3906   -1.3561 H   0  0  0  0  0  0  0  0  0  0  0  0
   -5.1062    4.7846   -2.4566 H   0  0  0  0  0  0  0  0  0  0  0  0
  1  3  1  0  0  0  0
  1  7  1  0  0  0  0
  1  2  2  0  0  0  0
 34 35  1  0  0  0  0
 35 43  1  0  0  0  0
 35 36  2  0  0  0  0
  8  9  1  0  0  0  0
  9 17  1  0  0  0  0
  9 10  2  0  0  0  0
 18 19  1  0  0  0  0
 19 33  1  0  0  0  0
 19 20  2  0  0  0  0
 22 23  1  0  0  0  0
 23 24  2  0  0  0  0
 23 25  1  0  0  0  0
 34 37  1  0  0  0  0
  8 11  1  0  0  0  0
 43 44  1  0  0  0  0
 21 22  1  0  0  0  0
 18 21  1  0  0  0  0
 33 34  1  0  0  0  0
  7  8  1  0  0  0  0
 17 18  1  0  0  0  0
  3  4  1  0  0  0  0
  3  5  1  0  0  0  0
  3  6  1  0  0  0  0
 37 40  1  0  0  0  0
 37 41  1  0  0  0  0
 37 42  1  0  0  0  0
 11 14  1  0  0  0  0
 11 15  1  0  0  0  0
 11 16  1  0  0  0  0
 44 46  1  0  0  0  0
 44 47  1  0  0  0  0
 44 48  1  0  0  0  0
 22 30  1  0  0  0  0
 22 31  1  0  0  0  0
 21 28  1  0  0  0  0
 21 29  1  0  0  0  0
 34 39  1  0  0  0  0
  8 13  1  0  0  0  0
 18 27  1  0  0  0  0
 43 45  1  0  0  0  0
  7 12  1  0  0  0  0
 33 38  1  0  0  0  0
 17 26  1  0  0  0  0
 25 32  1  0  0  0  0
M  END
$$$$

  -OEChem-05262214473D

 48 47  0     1  0  0  0  0  0999 V2000
   -5.5827   -1.3473    1.4591 C   0  0  0  0  0  0  0  0  0  0  0  0
   -5.7053   -2.4696    0.9825 O   0  0  0  0  0  0  0  0  0  0  0  0
   -6.7879   -0.6277    1.9670 C   0  0  0  0  0  0  0  0  0  0  0  0
   -7.2718   -0.0164    1.1885 H   0  0  0  0  0  0  0  0  0  0  0  0
   -7.5699   -1.3171    2.3239 H   0  0  0  0  0  0  0  0  0  0  0  0
   -6.6057    0.0628    2.8060 H   0  0  0  0  0  0  0  0  0  0  0  0
   -4.4001   -0.6377    1.5884 N   0  0  0  0  0  0  0  0  0  0  0  0
   -3.1220   -1.1455    1.1644 C   0  0  2  0  0  0  0  0  0  0  0  0
   -2.2017    0.0428    0.9187 C   0  0  0  0  0  0  0  0  0  0  0  0
   -2.6171    1.1750    0.6807 O   0  0  0  0  0  0  0  0  0  0  0  0
   -3.2533   -1.9992   -0.0873 C   0  0  0  0  0  0  0  0  0  0  0  0
   -4.4370    0.2910    2.0047 H   0  0  0  0  0  0  0  0  0  0  0  0
   -2.7302   -1.7467    1.9921 H   0  0  0  0  0  0  0  0  0  0  0  0
   -3.6446   -1.4140   -0.9275 H   0  0  0  0  0  0  0  0  0  0  0  0
   -2.2844   -2.4081   -0.3922 H   0  0  0  0  0  0  0  0  0  0  0  0
   -3.9388   -2.8365    0.0822 H   0  0  0  0  0  0  0  0  0  0  0  0
   -0.8768   -0.3314    0.9568 N   0  0  0  0  0  0  0  0  0  0  0  0
    0.2067    0.6285    0.7375 C   0  0  2  0  0  0  0  0  0  0  0  0
   -0.3458    1.6939   -0.2045 C   0  0  0  0  0  0  0  0  0  0  0  0
    0.0577    2.8552   -0.1978 O   0  0  0  0  0  0  0  0  0  0  0  0
    1.4199   -0.1025    0.1434 C   0  0  0  0  0  0  0  0  0  0  0  0
    2.0691   -1.0946    1.1083 C   0  0  0  0  0  0  0  0  0  0  0  0
    3.2401   -1.8084    0.4804 C   0  0  0  0  0  0  0  0  0  0  0  0
    3.5469   -1.7063   -0.7006 O   0  0  0  0  0  0  0  0  0  0  0  0
    3.9067   -2.6000    1.3565 O   0  0  0  0  0  0  0  0  0  0  0  0
   -0.6087   -1.2764    1.1771 H   0  0  0  0  0  0  0  0  0  0  0  0
    0.4759    1.0724    1.7015 H   0  0  0  0  0  0  0  0  0  0  0  0
    1.1102   -0.6386   -0.7637 H   0  0  0  0  0  0  0  0  0  0  0  0
    2.1839    0.6225   -0.1666 H   0  0  0  0  0  0  0  0  0  0  0  0
    2.4564   -0.5584    1.9834 H   0  0  0  0  0  0  0  0  0  0  0  0
    1.3456   -1.8156    1.5028 H   0  0  0  0  0  0  0  0  0  0  0  0
    4.6652   -3.0973    0.9833 H   0  0  0  0  0  0  0  0  0  0  0  0
   -1.3117    1.1907   -1.0634 N   0  0  0  0  0  0  0  0  0  0  0  0
   -1.9889    1.9970   -2.0533 C   0  0  2  0  0  0  0  0  0  0  0  0
   -3.2881    2.5020   -1.4398 C   0  0  0  0  0  0  0  0  0  0  0  0
   -3.8419    1.9488   -0.4920 O   0  0  0  0  0  0  0  0  0  0  0  0
   -2.2593    1.2036   -3.3223 C   0  0  0  0  0  0  0  0  0  0  0  0
   -1.5550    0.2072   -0.9932 H   0  0  0  0  0  0  0  0  0  0  0  0
   -1.3329    2.8467   -2.2717 H   0  0  0  0  0  0  0  0  0  0  0  0
   -2.9150    0.3481   -3.1232 H   0  0  0  0  0  0  0  0  0  0  0  0
   -2.7467    1.8239   -4.0817 H   0  0  0  0  0  0  0  0  0  0  0  0
   -1.3265    0.8160   -3.7458 H   0  0  0  0  0  0  0  0  0  0  0  0
   -3.7790    3.6181   -2.1027 N   0  0  0  0  0  0  0  0  0  0  0  0
   -5.0059    4.2763   -1.7184 C   0  0  0  0  0  0  0  0  0  0  0  0
   -3.2442    4.0210   -2.8665 H   0  0  0  0  0  0  0  0  0  0  0  0
   -5.8432    3.8590   -2.2969 H   0  0  0  0  0  0  0  0  0  0  0  0
   -5.1865    4.1170   -0.6451 H   0  0  0  0  0  0  0  0  0  0  0  0
   -4.9222    5.3544   -1.9201 H   0  0  0  0  0  0  0  0  0  0  0  0
  1  3  1  0  0  0  0
  1  7  1  0  0  0  0
  1  2  2  0  0  0  0
 34 35  1  0  0  0  0
 35 43  1  0  0  0  0
 35 36  2  0  0  0  0
  8  9  1  0  0  0  0
  9 17  1  0  0  0  0
  9 10  2  0  0  0  0
 18 19  1  0  0  0  0
 19 33  1  0  0  0  0
 19 20  2  0  0  0  0
 22 23  1  0  0  0  0
 23 24  2  0  0  0  0
 23 25  1  0  0  0  0
 34 37  1  0  0  0  0
  8 11  1  0  0  0  0
 43 44  1  0  0  0  0
 21 22  1  0  0  0  0
 18 21  1  0  0  0  0
 33 34  1  0  0  0  0
  7  8  1  0  0  0  0
 17 18  1  0  0  0  0
  3  4  1  0  0  0  0
  3  5  1  0  0  0  0
  3  6  1  0  0  0  0
 37 40  1  0  0  0  0
 37 41  1  0  0  0  0
 37 42  1  0  0  0  0
 11 14  1  0  0  0  0
 11 15  1  0  0  0  0
 11 16  1  0  0  0  0
 44 46  1  0  0  0  0
 44 47  1  0  0  0  0
 44 48  1  0  0  0  0
 22 30  1  0  0  0  0
 22 31  1  0  0  0  0
 21 28  1  0  0  0  0
 21 29  1  0  0  0  0
 34 39  1  0  0  0  0
  8 13  1  0  0  0  0
 18 27  1  0  0  0  0
 43 45  1  0  0  0  0
  7 12  1  0  0  0  0
 33 38  1  0  0  0  0
 17 26  1  0  0  0  0
 25 32  1  0  0  0  0
M  END
$$$$

  -OEChem-05262214473D

 48 47  0     1  0  0  0  0  0999 V2000
   -5.5827   -1.3473    1.4591 C   0  0  0  0  0  0  0  0  0  0  0  0
   -5.7053   -2.4696    0.9825 O   0  0  0  0  0  0  0  0  0  0  0  0
   -6.7879   -0.6277    1.9670 C   0  0  0  0  0  0  0  0  0  0  0  0
   -7.2718   -0.0164    1.1885 H   0  0  0  0  0  0  0  0  0  0  0  0
   -7.5699   -1.3171    2.3239 H   0  0  0  0  0  0  0  0  0  0  0  0
   -6.6057    0.0628    2.8060 H   0  0  0  0  0  0  0  0  0  0  0  0
   -4.4001   -0.6377    1.5884 N   0  0  0  0  0  0  0  0  0  0  0  0
   -3.1220   -1.1455    1.1644 C   0  0  2  0  0  0  0  0  0  0  0  0
   -2.2017    0.0428    0.9187 C   0  0  0  0  0  0  0  0  0  0  0  0
   -2.6171    1.1750    0.6807 O   0  0  0  0  0  0  0  0  0  0  0  0
   -3.2533   -1.9992   -0.0873 C   0  0  0  0  0  0  0  0  0  0  0  0
   -4.4370    0.2910    2.0047 H   0  0  0  0  0  0  0  0  0  0  0  0
   -2.7302   -1.7467    1.9921 H   0  0  0  0  0  0  0  0  0  0  0  0
   -3.6446   -1.4140   -0.9275 H   0  0  0  0  0  0  0  0  0  0  0  0
   -2.2844   -2.4081   -0.3922 H   0  0  0  0  0  0  0  0  0  0  0  0
   -3.9388   -2.8365    0.0822 H   0  0  0  0  0  0  0  0  0  0  0  0
   -0.8768   -0.3314    0.9568 N   0  0  0  0  0  0  0  0  0  0  0  0
    0.2067    0.6285    0.7375 C   0  0  2  0  0  0  0  0  0  0  0  0
   -0.3458    1.6939   -0.2045 C   0  0  0  0  0  0  0  0  0  0  0  0
    0.2225    2.7675   -0.3937 O   0  0  0  0  0  0  0  0  0  0  0  0
    1.4199   -0.1025    0.1434 C   0  0  0  0  0  0  0  0  0  0  0  0
    2.0691   -1.0946    1.1083 C   0  0  0  0  0  0  0  0  0  0  0  0
    3.2401   -1.8084    0.4804 C   0  0  0  0  0  0  0  0  0  0  0  0
    3.5469   -1.7063   -0.7006 O   0  0  0  0  0  0  0  0  0  0  0  0
    3.9067   -2.6000    1.3565 O   0  0  0  0  0  0  0  0  0  0  0  0
   -0.6087   -1.2764    1.1771 H   0  0  0  0  0  0  0  0  0  0  0  0
    0.4759    1.0724    1.7015 H   0  0  0  0  0  0  0  0  0  0  0  0
    1.1102   -0.6386   -0.7637 H   0  0  0  0  0  0  0  0  0  0  0  0
    2.1839    0.6225   -0.1666 H   0  0  0  0  0  0  0  0  0  0  0  0
    2.4564   -0.5584    1.9834 H   0  0  0  0  0  0  0  0  0  0  0  0
    1.3456   -1.8156    1.5028 H   0  0  0  0  0  0  0  0  0  0  0  0
    4.6652   -3.0973    0.9833 H   0  0  0  0  0  0  0  0  0  0  0  0
   -1.5210    1.2942   -0.8235 N   0  0  0  0  0  0  0  0  0  0  0  0
   -2.2427    2.1222   -1.7628 C   0  0  2  0  0  0  0  0  0  0  0  0
   -3.3115    2.8858   -0.9920 C   0  0  0  0  0  0  0  0  0  0  0  0
   -3.7540    2.5104    0.0917 O   0  0  0  0  0  0  0  0  0  0  0  0
   -2.8641    1.2880   -2.8721 C   0  0  0  0  0  0  0  0  0  0  0  0
   -1.8925    0.3744   -0.6060 H   0  0  0  0  0  0  0  0  0  0  0  0
   -1.5188    2.8294   -2.1822 H   0  0  0  0  0  0  0  0  0  0  0  0
   -3.5922    0.5735   -2.4710 H   0  0  0  0  0  0  0  0  0  0  0  0
   -3.3863    1.9195   -3.5984 H   0  0  0  0  0  0  0  0  0  0  0  0
   -2.0973    0.7166   -3.4062 H   0  0  0  0  0  0  0  0  0  0  0  0
   -3.7440    4.0127   -1.6770 N   0  0  0  0  0  0  0  0  0  0  0  0
   -4.7627    4.8963   -1.1597 C   0  0  0  0  0  0  0  0  0  0  0  0
   -3.3080    4.2581   -2.5610 H   0  0  0  0  0  0  0  0  0  0  0  0
   -5.7473    4.5817   -1.5358 H   0  0  0  0  0  0  0  0  0  0  0  0
   -4.7599    4.8551   -0.0605 H   0  0  0  0  0  0  0  0  0  0  0  0
   -4.5565    5.9256   -1.4885 H   0  0  0  0  0  0  0  0  0  0  0  0
  1  3  1  0  0  0  0
  1  7  1  0  0  0  0
  1  2  2  0  0  0  0
 34 35  1  0  0  0  0
 35 43  1  0  0  0  0
 35 36  2  0  0  0  0
  8  9  1  0  0  0  0
  9 17  1  0  0  0  0
  9 10  2  0  0  0  0
 18 19  1  0  0  0  0
 19 33  1  0  0  0  0
 19 20  2  0  0  0  0
 22 23  1  0  0  0  0
 23 24  2  0  0  0  0
 23 25  1  0  0  0  0
 34 37  1  0  0  0  0
  8 11  1  0  0  0  0
 43 44  1  0  0  0  0
 21 22  1  0  0  0  0
 18 21  1  0  0  0  0
 33 34  1  0  0  0  0
  7  8  1  0  0  0  0
 17 18  1  0  0  0  0
  3  4  1  0  0  0  0
  3  5  1  0  0  0  0
  3  6  1  0  0  0  0
 37 40  1  0  0  0  0
 37 41  1  0  0  0  0
 37 42  1  0  0  0  0
 11 14  1  0  0  0  0
 11 15  1  0  0  0  0
 11 16  1  0  0  0  0
 44 46  1  0  0  0  0
 44 47  1  0  0  0  0
 44 48  1  0  0  0  0
 22 30  1  0  0  0  0
 22 31  1  0  0  0  0
 21 28  1  0  0  0  0
 21 29  1  0  0  0  0
 34 39  1  0  0  0  0
  8 13  1  0  0  0  0
 18 27  1  0  0  0  0
 43 45  1  0  0  0  0
  7 12  1  0  0  0  0
 33 38  1  0  0  0  0
 17 26  1  0  0  0  0
 25 32  1  0  0  0  0
M  END
$$$$

  -OEChem-05262214473D

 48 47  0     1  0  0  0  0  0999 V2000
   -5.5827   -1.3473    1.4591 C   0  0  0  0  0  0  0  0  0  0  0  0
   -5.7053   -2.4696    0.9825 O   0  0  0  0  0  0  0  0  0  0  0  0
   -6.7879   -0.6277    1.9670 C   0  0  0  0  0  0  0  0  0  0  0  0
   -7.2718   -0.0164    1.1885 H   0  0  0  0  0  0  0  0  0  0  0  0
   -7.5699   -1.3171    2.3239 H   0  0  0  0  0  0  0  0  0  0  0  0
   -6.6057    0.0628    2.8060 H   0  0  0  0  0  0  0  0  0  0  0  0
   -4.4001   -0.6377    1.5884 N   0  0  0  0  0  0  0  0  0  0  0  0
   -3.1220   -1.1455    1.1644 C   0  0  2  0  0  0  0  0  0  0  0  0
   -2.2017    0.0428    0.9187 C   0  0  0  0  0  0  0  0  0  0  0  0
   -2.6171    1.1750    0.6807 O   0  0  0  0  0  0  0  0  0  0  0  0
   -3.2533   -1.9992   -0.0873 C   0  0  0  0  0  0  0  0  0  0  0  0
   -4.4370    0.2910    2.0047 H   0  0  0  0  0  0  0  0  0  0  0  0
   -2.7302   -1.7467    1.9921 H   0  0  0  0  0  0  0  0  0  0  0  0
   -3.6446   -1.4140   -0.9275 H   0  0  0  0  0  0  0  0  0  0  0  0
   -2.2844   -2.4081   -0.3922 H   0  0  0  0  0  0  0  0  0  0  0  0
   -3.9388   -2.8365    0.0822 H   0  0  0  0  0  0  0  0  0  0  0  0
   -0.8768   -0.3314    0.9568 N   0  0  0  0  0  0  0  0  0  0  0  0
    0.2067    0.6285    0.7375 C   0  0  2  0  0  0  0  0  0  0  0  0
   -0.3458    1.6939   -0.2045 C   0  0  0  0  0  0  0  0  0  0  0  0
    0.3324    2.6381   -0.6046 O   0  0  0  0  0  0  0  0  0  0  0  0
    1.4199   -0.1025    0.1434 C   0  0  0  0  0  0  0  0  0  0  0  0
    2.0691   -1.0946    1.1083 C   0  0  0  0  0  0  0  0  0  0  0  0
    3.2401   -1.8084    0.4804 C   0  0  0  0  0  0  0  0  0  0  0  0
    3.5469   -1.7063   -0.7006 O   0  0  0  0  0  0  0  0  0  0  0  0
    3.9067   -2.6000    1.3565 O   0  0  0  0  0  0  0  0  0  0  0  0
   -0.6087   -1.2764    1.1771 H   0  0  0  0  0  0  0  0  0  0  0  0
    0.4759    1.0724    1.7015 H   0  0  0  0  0  0  0  0  0  0  0  0
    1.1102   -0.6386   -0.7637 H   0  0  0  0  0  0  0  0  0  0  0  0
    2.1839    0.6225   -0.1666 H   0  0  0  0  0  0  0  0  0  0  0  0
    2.4564   -0.5584    1.9834 H   0  0  0  0  0  0  0  0  0  0  0  0
    1.3456   -1.8156    1.5028 H   0  0  0  0  0  0  0  0  0  0  0  0
    4.6652   -3.0973    0.9833 H   0  0  0  0  0  0  0  0  0  0  0  0
   -1.6632    1.4502   -0.5637 N   0  0  0  0  0  0  0  0  0  0  0  0
   -2.4153    2.3111   -1.4480 C   0  0  2  0  0  0  0  0  0  0  0  0
   -3.1919    3.3022   -0.5912 C   0  0  0  0  0  0  0  0  0  0  0  0
   -3.4739    3.0936    0.5869 O   0  0  0  0  0  0  0  0  0  0  0  0
   -3.3534    1.5084   -2.3359 C   0  0  0  0  0  0  0  0  0  0  0  0
   -2.1218    0.6262   -0.1867 H   0  0  0  0  0  0  0  0  0  0  0  0
   -1.6849    2.8508   -2.0606 H   0  0  0  0  0  0  0  0  0  0  0  0
   -4.0924    0.9607   -1.7397 H   0  0  0  0  0  0  0  0  0  0  0  0
   -3.9015    2.1594   -3.0249 H   0  0  0  0  0  0  0  0  0  0  0  0
   -2.7962    0.7756   -2.9295 H   0  0  0  0  0  0  0  0  0  0  0  0
   -3.5702    4.4281   -1.3090 N   0  0  0  0  0  0  0  0  0  0  0  0
   -4.3277    5.5088   -0.7221 C   0  0  0  0  0  0  0  0  0  0  0  0
   -3.2765    4.5260   -2.2765 H   0  0  0  0  0  0  0  0  0  0  0  0
   -5.4016    5.3357   -0.8858 H   0  0  0  0  0  0  0  0  0  0  0  0
   -4.1242    5.5547    0.3579 H   0  0  0  0  0  0  0  0  0  0  0  0
   -4.0339    6.4594   -1.1913 H   0  0  0  0  0  0  0  0  0  0  0  0
  1  3  1  0  0  0  0
  1  7  1  0  0  0  0
  1  2  2  0  0  0  0
 34 35  1  0  0  0  0
 35 43  1  0  0  0  0
 35 36  2  0  0  0  0
  8  9  1  0  0  0  0
  9 17  1  0  0  0  0
  9 10  2  0  0  0  0
 18 19  1  0  0  0  0
 19 33  1  0  0  0  0
 19 20  2  0  0  0  0
 22 23  1  0  0  0  0
 23 24  2  0  0  0  0
 23 25  1  0  0  0  0
 34 37  1  0  0  0  0
  8 11  1  0  0  0  0
 43 44  1  0  0  0  0
 21 22  1  0  0  0  0
 18 21  1  0  0  0  0
 33 34  1  0  0  0  0
  7  8  1  0  0  0  0
 17 18  1  0  0  0  0
  3  4  1  0  0  0  0
  3  5  1  0  0  0  0
  3  6  1  0  0  0  0
 37 40  1  0  0  0  0
 37 41  1  0  0  0  0
 37 42  1  0  0  0  0
 11 14  1  0  0  0  0
 11 15  1  0  0  0  0
 11 16  1  0  0  0  0
 44 46  1  0  0  0  0
 44 47  1  0  0  0  0
 44 48  1  0  0  0  0
 22 30  1  0  0  0  0
 22 31  1  0  0  0  0
 21 28  1  0  0  0  0
 21 29  1  0  0  0  0
 34 39  1  0  0  0  0
  8 13  1  0  0  0  0
 18 27  1  0  0  0  0
 43 45  1  0  0  0  0
  7 12  1  0  0  0  0
 33 38  1  0  0  0  0
 17 26  1  0  0  0  0
 25 32  1  0  0  0  0
M  END
$$$$

  -OEChem-05262214473D

 48 47  0     1  0  0  0  0  0999 V2000
   -5.5827   -1.3473    1.4591 C   0  0  0  0  0  0  0  0  0  0  0  0
   -5.7053   -2.4696    0.9825 O   0  0  0  0  0  0  0  0  0  0  0  0
   -6.7879   -0.6277    1.9670 C   0  0  0  0  0  0  0  0  0  0  0  0
   -7.2718   -0.0164    1.1885 H   0  0  0  0  0  0  0  0  0  0  0  0
   -7.5699   -1.3171    2.3239 H   0  0  0  0  0  0  0  0  0  0  0  0
   -6.6057    0.0628    2.8060 H   0  0  0  0  0  0  0  0  0  0  0  0
   -4.4001   -0.6377    1.5884 N   0  0  0  0  0  0  0  0  0  0  0  0
   -3.1220   -1.1455    1.1644 C   0  0  2  0  0  0  0  0  0  0  0  0
   -2.2017    0.0428    0.9187 C   0  0  0  0  0  0  0  0  0  0  0  0
   -2.6171    1.1750    0.6807 O   0  0  0  0  0  0  0  0  0  0  0  0
   -3.2533   -1.9992   -0.0873 C   0  0  0  0  0  0  0  0  0  0  0  0
   -4.4370    0.2910    2.0047 H   0  0  0  0  0  0  0  0  0  0  0  0
   -2.7302   -1.7467    1.9921 H   0  0  0  0  0  0  0  0  0  0  0  0
   -3.6446   -1.4140   -0.9275 H   0  0  0  0  0  0  0  0  0  0  0  0
   -2.2844   -2.4081   -0.3922 H   0  0  0  0  0  0  0  0  0  0  0  0
   -3.9388   -2.8365    0.0822 H   0  0  0  0  0  0  0  0  0  0  0  0
   -0.8768   -0.3314    0.9568 N   0  0  0  0  0  0  0  0  0  0  0  0
    0.2067    0.6285    0.7375 C   0  0  2  0  0  0  0  0  0  0  0  0
   -0.3458    1.6939   -0.2045 C   0  0  0  0  0  0  0  0  0  0  0  0
    0.3797    2.4758   -0.8159 O   0  0  0  0  0  0  0  0  0  0  0  0
    1.4199   -0.1025    0.1434 C   0  0  0  0  0  0  0  0  0  0  0  0
    2.0691   -1.0946    1.1083 C   0  0  0  0  0  0  0  0  0  0  0  0
    3.2401   -1.8084    0.4804 C   0  0  0  0  0  0  0  0  0  0  0  0
    3.5469   -1.7063   -0.7006 O   0  0  0  0  0  0  0  0  0  0  0  0
    3.9067   -2.6000    1.3565 O   0  0  0  0  0  0  0  0  0  0  0  0
   -0.6087   -1.2764    1.1771 H   0  0  0  0  0  0  0  0  0  0  0  0
    0.4759    1.0724    1.7015 H   0  0  0  0  0  0  0  0  0  0  0  0
    1.1102   -0.6386   -0.7637 H   0  0  0  0  0  0  0  0  0  0  0  0
    2.1839    0.6225   -0.1666 H   0  0  0  0  0  0  0  0  0  0  0  0
    2.4564   -0.5584    1.9834 H   0  0  0  0  0  0  0  0  0  0  0  0
    1.3456   -1.8156    1.5028 H   0  0  0  0  0  0  0  0  0  0  0  0
    4.6652   -3.0973    0.9833 H   0  0  0  0  0  0  0  0  0  0  0  0
   -1.7287    1.6479   -0.3016 N   0  0  0  0  0  0  0  0  0  0  0  0
   -2.4949    2.5505   -1.1304 C   0  0  2  0  0  0  0  0  0  0  0  0
   -2.9373    3.7229   -0.2647 C   0  0  0  0  0  0  0  0  0  0  0  0
   -3.0206    3.6585    0.9600 O   0  0  0  0  0  0  0  0  0  0  0  0
   -3.6939    1.8496   -1.7501 C   0  0  0  0  0  0  0  0  0  0  0  0
   -2.2273    0.9454    0.2361 H   0  0  0  0  0  0  0  0  0  0  0  0
   -1.8200    2.9094   -1.9150 H   0  0  0  0  0  0  0  0  0  0  0  0
   -4.3815    1.4831   -0.9792 H   0  0  0  0  0  0  0  0  0  0  0  0
   -4.2571    2.5272   -2.4003 H   0  0  0  0  0  0  0  0  0  0  0  0
   -3.3758    0.9889   -2.3483 H   0  0  0  0  0  0  0  0  0  0  0  0
   -3.2695    4.8361   -1.0240 N   0  0  0  0  0  0  0  0  0  0  0  0
   -3.7306    6.0719   -0.4355 C   0  0  0  0  0  0  0  0  0  0  0  0
   -3.1519    4.8064   -2.0325 H   0  0  0  0  0  0  0  0  0  0  0  0
   -4.8297    6.0697   -0.3910 H   0  0  0  0  0  0  0  0  0  0  0  0
   -3.3227    6.1681    0.5816 H   0  0  0  0  0  0  0  0  0  0  0  0
   -3.3902    6.9193   -1.0486 H   0  0  0  0  0  0  0  0  0  0  0  0
  1  3  1  0  0  0  0
  1  7  1  0  0  0  0
  1  2  2  0  0  0  0
 34 35  1  0  0  0  0
 35 43  1  0  0  0  0
 35 36  2  0  0  0  0
  8  9  1  0  0  0  0
  9 17  1  0  0  0  0
  9 10  2  0  0  0  0
 18 19  1  0  0  0  0
 19 33  1  0  0  0  0
 19 20  2  0  0  0  0
 22 23  1  0  0  0  0
 23 24  2  0  0  0  0
 23 25  1  0  0  0  0
 34 37  1  0  0  0  0
  8 11  1  0  0  0  0
 43 44  1  0  0  0  0
 21 22  1  0  0  0  0
 18 21  1  0  0  0  0
 33 34  1  0  0  0  0
  7  8  1  0  0  0  0
 17 18  1  0  0  0  0
  3  4  1  0  0  0  0
  3  5  1  0  0  0  0
  3  6  1  0  0  0  0
 37 40  1  0  0  0  0
 37 41  1  0  0  0  0
 37 42  1  0  0  0  0
 11 14  1  0  0  0  0
 11 15  1  0  0  0  0
 11 16  1  0  0  0  0
 44 46  1  0  0  0  0
 44 47  1  0  0  0  0
 44 48  1  0  0  0  0
 22 30  1  0  0  0  0
 22 31  1  0  0  0  0
 21 28  1  0  0  0  0
 21 29  1  0  0  0  0
 34 39  1  0  0  0  0
  8 13  1  0  0  0  0
 18 27  1  0  0  0  0
 43 45  1  0  0  0  0
  7 12  1  0  0  0  0
 33 38  1  0  0  0  0
 17 26  1  0  0  0  0
 25 32  1  0  0  0  0
M  END
$$$$

  -OEChem-05262214473D

 48 47  0     1  0  0  0  0  0999 V2000
   -5.5827   -1.3473    1.4591 C   0  0  0  0  0  0  0  0  0  0  0  0
   -5.7053   -2.4696    0.9825 O   0  0  0  0  0  0  0  0  0  0  0  0
   -6.7879   -0.6277    1.9670 C   0  0  0  0  0  0  0  0  0  0  0  0
   -7.2718   -0.0164    1.1885 H   0  0  0  0  0  0  0  0  0  0  0  0
   -7.5699   -1.3171    2.3239 H   0  0  0  0  0  0  0  0  0  0  0  0
   -6.6057    0.0628    2.8060 H   0  0  0  0  0  0  0  0  0  0  0  0
   -4.4001   -0.6377    1.5884 N   0  0  0  0  0  0  0  0  0  0  0  0
   -3.1220   -1.1455    1.1644 C   0  0  2  0  0  0  0  0  0  0  0  0
   -2.2017    0.0428    0.9187 C   0  0  0  0  0  0  0  0  0  0  0  0
   -2.6171    1.1750    0.6807 O   0  0  0  0  0  0  0  0  0  0  0  0
   -3.2533   -1.9992   -0.0873 C   0  0  0  0  0  0  0  0  0  0  0  0
   -4.4370    0.2910    2.0047 H   0  0  0  0  0  0  0  0  0  0  0  0
   -2.7302   -1.7467    1.9921 H   0  0  0  0  0  0  0  0  0  0  0  0
   -3.6446   -1.4140   -0.9275 H   0  0  0  0  0  0  0  0  0  0  0  0
   -2.2844   -2.4081   -0.3922 H   0  0  0  0  0  0  0  0  0  0  0  0
   -3.9388   -2.8365    0.0822 H   0  0  0  0  0  0  0  0  0  0  0  0
   -0.8768   -0.3314    0.9568 N   0  0  0  0  0  0  0  0  0  0  0  0
    0.2067    0.6285    0.7375 C   0  0  2  0  0  0  0  0  0  0  0  0
   -0.3458    1.6939   -0.2045 C   0  0  0  0  0  0  0  0  0  0  0  0
    0.3612    2.2916   -1.0134 O   0  0  0  0  0  0  0  0  0  0  0  0
    1.4199   -0.1025    0.1434 C   0  0  0  0  0  0  0  0  0  0  0  0
    2.0691   -1.0946    1.1083 C   0  0  0  0  0  0  0  0  0  0  0  0
    3.2401   -1.8084    0.4804 C   0  0  0  0  0  0  0  0  0  0  0  0
    3.5469   -1.7063   -0.7006 O   0  0  0  0  0  0  0  0  0  0  0  0
    3.9067   -2.6000    1.3565 O   0  0  0  0  0  0  0  0  0  0  0  0
   -0.6087   -1.2764    1.1771 H   0  0  0  0  0  0  0  0  0  0  0  0
    0.4759    1.0724    1.7015 H   0  0  0  0  0  0  0  0  0  0  0  0
    1.1102   -0.6386   -0.7637 H   0  0  0  0  0  0  0  0  0  0  0  0
    2.1839    0.6225   -0.1666 H   0  0  0  0  0  0  0  0  0  0  0  0
    2.4564   -0.5584    1.9834 H   0  0  0  0  0  0  0  0  0  0  0  0
    1.3456   -1.8156    1.5028 H   0  0  0  0  0  0  0  0  0  0  0  0
    4.6652   -3.0973    0.9833 H   0  0  0  0  0  0  0  0  0  0  0  0
   -1.7130    1.8739   -0.0552 N   0  0  0  0  0  0  0  0  0  0  0  0
   -2.4762    2.8243   -0.8317 C   0  0  2  0  0  0  0  0  0  0  0  0
   -2.5652    4.1191   -0.0348 C   0  0  0  0  0  0  0  0  0  0  0  0
   -2.4251    4.1667    1.1855 O   0  0  0  0  0  0  0  0  0  0  0  0
   -3.8623    2.2886   -1.1548 C   0  0  0  0  0  0  0  0  0  0  0  0
   -2.2018    1.3101    0.6337 H   0  0  0  0  0  0  0  0  0  0  0  0
   -1.9148    3.0013   -1.7555 H   0  0  0  0  0  0  0  0  0  0  0  0
   -4.4398    2.1052   -0.2414 H   0  0  0  0  0  0  0  0  0  0  0  0
   -4.4290    2.9978   -1.7672 H   0  0  0  0  0  0  0  0  0  0  0  0
   -3.7965    1.3420   -1.7021 H   0  0  0  0  0  0  0  0  0  0  0  0
   -2.8622    5.2089   -0.8412 N   0  0  0  0  0  0  0  0  0  0  0  0
   -3.0120    6.5472   -0.3193 C   0  0  0  0  0  0  0  0  0  0  0  0
   -2.9426    5.0801   -1.8456 H   0  0  0  0  0  0  0  0  0  0  0  0
   -4.0705    6.7338   -0.0852 H   0  0  0  0  0  0  0  0  0  0  0  0
   -2.4102    6.6534    0.5953 H   0  0  0  0  0  0  0  0  0  0  0  0
   -2.6691    7.2741   -1.0703 H   0  0  0  0  0  0  0  0  0  0  0  0
  1  3  1  0  0  0  0
  1  7  1  0  0  0  0
  1  2  2  0  0  0  0
 34 35  1  0  0  0  0
 35 43  1  0  0  0  0
 35 36  2  0  0  0  0
  8  9  1  0  0  0  0
  9 17  1  0  0  0  0
  9 10  2  0  0  0  0
 18 19  1  0  0  0  0
 19 33  1  0  0  0  0
 19 20  2  0  0  0  0
 22 23  1  0  0  0  0
 23 24  2  0  0  0  0
 23 25  1  0  0  0  0
 34 37  1  0  0  0  0
  8 11  1  0  0  0  0
 43 44  1  0  0  0  0
 21 22  1  0  0  0  0
 18 21  1  0  0  0  0
 33 34  1  0  0  0  0
  7  8  1  0  0  0  0
 17 18  1  0  0  0  0
  3  4  1  0  0  0  0
  3  5  1  0  0  0  0
  3  6  1  0  0  0  0
 37 40  1  0  0  0  0
 37 41  1  0  0  0  0
 37 42  1  0  0  0  0
 11 14  1  0  0  0  0
 11 15  1  0  0  0  0
 11 16  1  0  0  0  0
 44 46  1  0  0  0  0
 44 47  1  0  0  0  0
 44 48  1  0  0  0  0
 22 30  1  0  0  0  0
 22 31  1  0  0  0  0
 21 28  1  0  0  0  0
 21 29  1  0  0  0  0
 34 39  1  0  0  0  0
  8 13  1  0  0  0  0
 18 27  1  0  0  0  0
 43 45  1  0  0  0  0
  7 12  1  0  0  0  0
 33 38  1  0  0  0  0
 17 26  1  0  0  0  0
 25 32  1  0  0  0  0
M  END
$$$$

  -OEChem-05262214473D

 48 47  0     1  0  0  0  0  0999 V2000
   -5.5827   -1.3473    1.4591 C   0  0  0  0  0  0  0  0  0  0  0  0
   -5.7053   -2.4696    0.9825 O   0  0  0  0  0  0  0  0  0  0  0  0
   -6.7879   -0.6277    1.9670 C   0  0  0  0  0  0  0  0  0  0  0  0
   -7.2718   -0.0164    1.1885 H   0  0  0  0  0  0  0  0  0  0  0  0
   -7.5699   -1.3171    2.3239 H   0  0  0  0  0  0  0  0  0  0  0  0
   -6.6057    0.0628    2.8060 H   0  0  0  0  0  0  0  0  0  0  0  0
   -4.4001   -0.6377    1.5884 N   0  0  0  0  0  0  0  0  0  0  0  0
   -3.1220   -1.1455    1.1644 C   0  0  2  0  0  0  0  0  0  0  0  0
   -2.2017    0.0428    0.9187 C   0  0  0  0  0  0  0  0  0  0  0  0
   -2.6171    1.1750    0.6807 O   0  0  0  0  0  0  0  0  0  0  0  0
   -3.2533   -1.9992   -0.0873 C   0  0  0  0  0  0  0  0  0  0  0  0
   -4.4370    0.2910    2.0047 H   0  0  0  0  0  0  0  0  0  0  0  0
   -2.7302   -1.7467    1.9921 H   0  0  0  0  0  0  0  0  0  0  0  0
   -3.6446   -1.4140   -0.9275 H   0  0  0  0  0  0  0  0  0  0  0  0
   -2.2844   -2.4081   -0.3922 H   0  0  0  0  0  0  0  0  0  0  0  0
   -3.9388   -2.8365    0.0822 H   0  0  0  0  0  0  0  0  0  0  0  0
   -0.8768   -0.3314    0.9568 N   0  0  0  0  0  0  0  0  0  0  0  0
    0.2067    0.6285    0.7375 C   0  0  2  0  0  0  0  0  0  0  0  0
   -0.3458    1.6939   -0.2045 C   0  0  0  0  0  0  0  0  0  0  0  0
    0.2783    2.0982   -1.1835 O   0  0  0  0  0  0  0  0  0  0  0  0
    1.4199   -0.1025    0.1434 C   0  0  0  0  0  0  0  0  0  0  0  0
    2.0691   -1.0946    1.1083 C   0  0  0  0  0  0  0  0  0  0  0  0
    3.2401   -1.8084    0.4804 C   0  0  0  0  0  0  0  0  0  0  0  0
    3.5469   -1.7063   -0.7006 O   0  0  0  0  0  0  0  0  0  0  0  0
    3.9067   -2.6000    1.3565 O   0  0  0  0  0  0  0  0  0  0  0  0
   -0.6087   -1.2764    1.1771 H   0  0  0  0  0  0  0  0  0  0  0  0
    0.4759    1.0724    1.7015 H   0  0  0  0  0  0  0  0  0  0  0  0
    1.1102   -0.6386   -0.7637 H   0  0  0  0  0  0  0  0  0  0  0  0
    2.1839    0.6225   -0.1666 H   0  0  0  0  0  0  0  0  0  0  0  0
    2.4564   -0.5584    1.9834 H   0  0  0  0  0  0  0  0  0  0  0  0
    1.3456   -1.8156    1.5028 H   0  0  0  0  0  0  0  0  0  0  0  0
    4.6652   -3.0973    0.9833 H   0  0  0  0  0  0  0  0  0  0  0  0
   -1.6172    2.1129    0.1589 N   0  0  0  0  0  0  0  0  0  0  0  0
   -2.3604    3.1138   -0.5722 C   0  0  2  0  0  0  0  0  0  0  0  0
   -2.1009    4.4640    0.0829 C   0  0  0  0  0  0  0  0  0  0  0  0
   -1.7279    4.5836    1.2481 O   0  0  0  0  0  0  0  0  0  0  0  0
   -3.8473    2.7954   -0.5905 C   0  0  0  0  0  0  0  0  0  0  0  0
   -2.0470    1.6957    0.9790 H   0  0  0  0  0  0  0  0  0  0  0  0
   -1.9629    3.1201   -1.5930 H   0  0  0  0  0  0  0  0  0  0  0  0
   -4.2634    2.7846    0.4236 H   0  0  0  0  0  0  0  0  0  0  0  0
   -4.4053    3.5392   -1.1688 H   0  0  0  0  0  0  0  0  0  0  0  0
   -4.0296    1.8110   -1.0349 H   0  0  0  0  0  0  0  0  0  0  0  0
   -2.3763    5.5210   -0.7733 N   0  0  0  0  0  0  0  0  0  0  0  0
   -2.2210    6.9025   -0.3815 C   0  0  0  0  0  0  0  0  0  0  0  0
   -2.6629    5.3286   -1.7285 H   0  0  0  0  0  0  0  0  0  0  0  0
   -3.1759    7.2825    0.0107 H   0  0  0  0  0  0  0  0  0  0  0  0
   -1.4486    6.9777    0.3981 H   0  0  0  0  0  0  0  0  0  0  0  0
   -1.9198    7.4995   -1.2549 H   0  0  0  0  0  0  0  0  0  0  0  0
  1  3  1  0  0  0  0
  1  7  1  0  0  0  0
  1  2  2  0  0  0  0
 34 35  1  0  0  0  0
 35 43  1  0  0  0  0
 35 36  2  0  0  0  0
  8  9  1  0  0  0  0
  9 17  1  0  0  0  0
  9 10  2  0  0  0  0
 18 19  1  0  0  0  0
 19 33  1  0  0  0  0
 19 20  2  0  0  0  0
 22 23  1  0  0  0  0
 23 24  2  0  0  0  0
 23 25  1  0  0  0  0
 34 37  1  0  0  0  0
  8 11  1  0  0  0  0
 43 44  1  0  0  0  0
 21 22  1  0  0  0  0
 18 21  1  0  0  0  0
 33 34  1  0  0  0  0
  7  8  1  0  0  0  0
 17 18  1  0  0  0  0
  3  4  1  0  0  0  0
  3  5  1  0  0  0  0
  3  6  1  0  0  0  0
 37 40  1  0  0  0  0
 37 41  1  0  0  0  0
 37 42  1  0  0  0  0
 11 14  1  0  0  0  0
 11 15  1  0  0  0  0
 11 16  1  0  0  0  0
 44 46  1  0  0  0  0
 44 47  1  0  0  0  0
 44 48  1  0  0  0  0
 22 30  1  0  0  0  0
 22 31  1  0  0  0  0
 21 28  1  0  0  0  0
 21 29  1  0  0  0  0
 34 39  1  0  0  0  0
  8 13  1  0  0  0  0
 18 27  1  0  0  0  0
 43 45  1  0  0  0  0
  7 12  1  0  0  0  0
 33 38  1  0  0  0  0
 17 26  1  0  0  0  0
 25 32  1  0  0  0  0
M  END
$$$$

  -OEChem-05262214473D

 48 47  0     1  0  0  0  0  0999 V2000
   -5.5827   -1.3473    1.4591 C   0  0  0  0  0  0  0  0  0  0  0  0
   -5.7053   -2.4696    0.9825 O   0  0  0  0  0  0  0  0  0  0  0  0
   -6.7879   -0.6277    1.9670 C   0  0  0  0  0  0  0  0  0  0  0  0
   -7.2718   -0.0164    1.1885 H   0  0  0  0  0  0  0  0  0  0  0  0
   -7.5699   -1.3171    2.3239 H   0  0  0  0  0  0  0  0  0  0  0  0
   -6.6057    0.0628    2.8060 H   0  0  0  0  0  0  0  0  0  0  0  0
   -4.4001   -0.6377    1.5884 N   0  0  0  0  0  0  0  0  0  0  0  0
   -3.1220   -1.1455    1.1644 C   0  0  2  0  0  0  0  0  0  0  0  0
   -2.2017    0.0428    0.9187 C   0  0  0  0  0  0  0  0  0  0  0  0
   -2.6171    1.1750    0.6807 O   0  0  0  0  0  0  0  0  0  0  0  0
   -3.2533   -1.9992   -0.0873 C   0  0  0  0  0  0  0  0  0  0  0  0
   -4.4370    0.2910    2.0047 H   0  0  0  0  0  0  0  0  0  0  0  0
   -2.7302   -1.7467    1.9921 H   0  0  0  0  0  0  0  0  0  0  0  0
   -3.6446   -1.4140   -0.9275 H   0  0  0  0  0  0  0  0  0  0  0  0
   -2.2844   -2.4081   -0.3922 H   0  0  0  0  0  0  0  0  0  0  0  0
   -3.9388   -2.8365    0.0822 H   0  0  0  0  0  0  0  0  0  0  0  0
   -0.8768   -0.3314    0.9568 N   0  0  0  0  0  0  0  0  0  0  0  0
    0.2067    0.6285    0.7375 C   0  0  2  0  0  0  0  0  0  0  0  0
   -0.3458    1.6939   -0.2045 C   0  0  0  0  0  0  0  0  0  0  0  0
    0.1365    1.9086   -1.3147 O   0  0  0  0  0  0  0  0  0  0  0  0
    1.4199   -0.1025    0.1434 C   0  0  0  0  0  0  0  0  0  0  0  0
    2.0691   -1.0946    1.1083 C   0  0  0  0  0  0  0  0  0  0  0  0
    3.2401   -1.8084    0.4804 C   0  0  0  0  0  0  0  0  0  0  0  0
    3.5469   -1.7063   -0.7006 O   0  0  0  0  0  0  0  0  0  0  0  0
    3.9067   -2.6000    1.3565 O   0  0  0  0  0  0  0  0  0  0  0  0
   -0.6087   -1.2764    1.1771 H   0  0  0  0  0  0  0  0  0  0  0  0
    0.4759    1.0724    1.7015 H   0  0  0  0  0  0  0  0  0  0  0  0
    1.1102   -0.6386   -0.7637 H   0  0  0  0  0  0  0  0  0  0  0  0
    2.1839    0.6225   -0.1666 H   0  0  0  0  0  0  0  0  0  0  0  0
    2.4564   -0.5584    1.9834 H   0  0  0  0  0  0  0  0  0  0  0  0
    1.3456   -1.8156    1.5028 H   0  0  0  0  0  0  0  0  0  0  0  0
    4.6652   -3.0973    0.9833 H   0  0  0  0  0  0  0  0  0  0  0  0
   -1.4478    2.3484    0.3259 N   0  0  0  0  0  0  0  0  0  0  0  0
   -2.1554    3.3992   -0.3696 C   0  0  2  0  0  0  0  0  0  0  0  0
   -1.5760    4.7339    0.0804 C   0  0  0  0  0  0  0  0  0  0  0  0
   -0.9765    4.8807    1.1434 O   0  0  0  0  0  0  0  0  0  0  0  0
   -3.6499    3.3353   -0.0956 C   0  0  0  0  0  0  0  0  0  0  0  0
   -1.7735    2.0757    1.2483 H   0  0  0  0  0  0  0  0  0  0  0  0
   -1.9609    3.2578   -1.4384 H   0  0  0  0  0  0  0  0  0  0  0  0
   -3.8642    3.4750    0.9703 H   0  0  0  0  0  0  0  0  0  0  0  0
   -4.1878    4.1144   -0.6457 H   0  0  0  0  0  0  0  0  0  0  0  0
   -4.0593    2.3637   -0.3924 H   0  0  0  0  0  0  0  0  0  0  0  0
   -1.8447    5.7512   -0.8247 N   0  0  0  0  0  0  0  0  0  0  0  0
   -1.4114    7.1133   -0.6178 C   0  0  0  0  0  0  0  0  0  0  0  0
   -2.3319    5.5350   -1.6894 H   0  0  0  0  0  0  0  0  0  0  0  0
   -2.2067    7.6785   -0.1098 H   0  0  0  0  0  0  0  0  0  0  0  0
   -0.5037    7.1188    0.0035 H   0  0  0  0  0  0  0  0  0  0  0  0
   -1.1934    7.5802   -1.5897 H   0  0  0  0  0  0  0  0  0  0  0  0
  1  3  1  0  0  0  0
  1  7  1  0  0  0  0
  1  2  2  0  0  0  0
 34 35  1  0  0  0  0
 35 43  1  0  0  0  0
 35 36  2  0  0  0  0
  8  9  1  0  0  0  0
  9 17  1  0  0  0  0
  9 10  2  0  0  0  0
 18 19  1  0  0  0  0
 19 33  1  0  0  0  0
 19 20  2  0  0  0  0
 22 23  1  0  0  0  0
 23 24  2  0  0  0  0
 23 25  1  0  0  0  0
 34 37  1  0  0  0  0
  8 11  1  0  0  0  0
 43 44  1  0  0  0  0
 21 22  1  0  0  0  0
 18 21  1  0  0  0  0
 33 34  1  0  0  0  0
  7  8  1  0  0  0  0
 17 18  1  0  0  0  0
  3  4  1  0  0  0  0
  3  5  1  0  0  0  0
  3  6  1  0  0  0  0
 37 40  1  0  0  0  0
 37 41  1  0  0  0  0
 37 42  1  0  0  0  0
 11 14  1  0  0  0  0
 11 15  1  0  0  0  0
 11 16  1  0  0  0  0
 44 46  1  0  0  0  0
 44 47  1  0  0  0  0
 44 48  1  0  0  0  0
 22 30  1  0  0  0  0
 22 31  1  0  0  0  0
 21 28  1  0  0  0  0
 21 29  1  0  0  0  0
 34 39  1  0  0  0  0
  8 13  1  0  0  0  0
 18 27  1  0  0  0  0
 43 45  1  0  0  0  0
  7 12  1  0  0  0  0
 33 38  1  0  0  0  0
 17 26  1  0  0  0  0
 25 32  1  0  0  0  0
M  END
$$$$

  -OEChem-05262214473D

 48 47  0     1  0  0  0  0  0999 V2000
   -5.5827   -1.3473    1.4591 C   0  0  0  0  0  0  0  0  0  0  0  0
   -5.7053   -2.4696    0.9825 O   0  0  0  0  0  0  0  0  0  0  0  0
   -6.7879   -0.6277    1.9670 C   0  0  0  0  0  0  0  0  0  0  0  0
   -7.2718   -0.0164    1.1885 H   0  0  0  0  0  0  0  0  0  0  0  0
   -7.5699   -1.3171    2.3239 H   0  0  0  0  0  0  0  0  0  0  0  0
   -6.6057    0.0628    2.8060 H   0  0  0  0  0  0  0  0  0  0  0  0
   -4.4001   -0.6377    1.5884 N   0  0  0  0  0  0  0  0  0  0  0  0
   -3.1220   -1.1455    1.1644 C   0  0  2  0  0  0  0  0  0  0  0  0
   -2.2017    0.0428    0.9187 C   0  0  0  0  0  0  0  0  0  0  0  0
   -2.6171    1.1750    0.6807 O   0  0  0  0  0  0  0  0  0  0  0  0
   -3.2533   -1.9992   -0.0873 C   0  0  0  0  0  0  0  0  0  0  0  0
   -4.4370    0.2910    2.0047 H   0  0  0  0  0  0  0  0  0  0  0  0
   -2.7302   -1.7467    1.9921 H   0  0  0  0  0  0  0  0  0  0  0  0
   -3.6446   -1.4140   -0.9275 H   0  0  0  0  0  0  0  0  0  0  0  0
   -2.2844   -2.4081   -0.3922 H   0  0  0  0  0  0  0  0  0  0  0  0
   -3.9388   -2.8365    0.0822 H   0  0  0  0  0  0  0  0  0  0  0  0
   -0.8768   -0.3314    0.9568 N   0  0  0  0  0  0  0  0  0  0  0  0
    0.2067    0.6285    0.7375 C   0  0  2  0  0  0  0  0  0  0  0  0
   -0.3458    1.6939   -0.2045 C   0  0  0  0  0  0  0  0  0  0  0  0
   -0.0545    1.7359   -1.3981 O   0  0  0  0  0  0  0  0  0  0  0  0
    1.4199   -0.1025    0.1434 C   0  0  0  0  0  0  0  0  0  0  0  0
    2.0691   -1.0946    1.1083 C   0  0  0  0  0  0  0  0  0  0  0  0
    3.2401   -1.8084    0.4804 C   0  0  0  0  0  0  0  0  0  0  0  0
    3.5469   -1.7063   -0.7006 O   0  0  0  0  0  0  0  0  0  0  0  0
    3.9067   -2.6000    1.3565 O   0  0  0  0  0  0  0  0  0  0  0  0
   -0.6087   -1.2764    1.1771 H   0  0  0  0  0  0  0  0  0  0  0  0
    0.4759    1.0724    1.7015 H   0  0  0  0  0  0  0  0  0  0  0  0
    1.1102   -0.6386   -0.7637 H   0  0  0  0  0  0  0  0  0  0  0  0
    2.1839    0.6225   -0.1666 H   0  0  0  0  0  0  0  0  0  0  0  0
    2.4564   -0.5584    1.9834 H   0  0  0  0  0  0  0  0  0  0  0  0
    1.3456   -1.8156    1.5028 H   0  0  0  0  0  0  0  0  0  0  0  0
    4.6652   -3.0973    0.9833 H   0  0  0  0  0  0  0  0  0  0  0  0
   -1.2164    2.5645    0.4345 N   0  0  0  0  0  0  0  0  0  0  0  0
   -1.8751    3.6612   -0.2378 C   0  0  2  0  0  0  0  0  0  0  0  0
   -1.0264    4.9105   -0.0423 C   0  0  0  0  0  0  0  0  0  0  0  0
   -0.2222    5.0378    0.8787 O   0  0  0  0  0  0  0  0  0  0  0  0
   -3.2834    3.8717    0.2962 C   0  0  0  0  0  0  0  0  0  0  0  0
   -1.3998    2.4243    1.4235 H   0  0  0  0  0  0  0  0  0  0  0  0
   -1.9091    3.4049   -1.3023 H   0  0  0  0  0  0  0  0  0  0  0  0
   -3.2695    4.1293    1.3615 H   0  0  0  0  0  0  0  0  0  0  0  0
   -3.7913    4.6843   -0.2337 H   0  0  0  0  0  0  0  0  0  0  0  0
   -3.8835    2.9626    0.1819 H   0  0  0  0  0  0  0  0  0  0  0  0
   -1.3038    5.8838   -0.9920 N   0  0  0  0  0  0  0  0  0  0  0  0
   -0.6384    7.1655   -1.0122 C   0  0  0  0  0  0  0  0  0  0  0  0
   -1.9721    5.6850   -1.7307 H   0  0  0  0  0  0  0  0  0  0  0  0
   -1.2290    7.8949   -0.4385 H   0  0  0  0  0  0  0  0  0  0  0  0
    0.3603    7.0672   -0.5618 H   0  0  0  0  0  0  0  0  0  0  0  0
   -0.5393    7.5107   -2.0519 H   0  0  0  0  0  0  0  0  0  0  0  0
  1  3  1  0  0  0  0
  1  7  1  0  0  0  0
  1  2  2  0  0  0  0
 34 35  1  0  0  0  0
 35 43  1  0  0  0  0
 35 36  2  0  0  0  0
  8  9  1  0  0  0  0
  9 17  1  0  0  0  0
  9 10  2  0  0  0  0
 18 19  1  0  0  0  0
 19 33  1  0  0  0  0
 19 20  2  0  0  0  0
 22 23  1  0  0  0  0
 23 24  2  0  0  0  0
 23 25  1  0  0  0  0
 34 37  1  0  0  0  0
  8 11  1  0  0  0  0
 43 44  1  0  0  0  0
 21 22  1  0  0  0  0
 18 21  1  0  0  0  0
 33 34  1  0  0  0  0
  7  8  1  0  0  0  0
 17 18  1  0  0  0  0
  3  4  1  0  0  0  0
  3  5  1  0  0  0  0
  3  6  1  0  0  0  0
 37 40  1  0  0  0  0
 37 41  1  0  0  0  0
 37 42  1  0  0  0  0
 11 14  1  0  0  0  0
 11 15  1  0  0  0  0
 11 16  1  0  0  0  0
 44 46  1  0  0  0  0
 44 47  1  0  0  0  0
 44 48  1  0  0  0  0
 22 30  1  0  0  0  0
 22 31  1  0  0  0  0
 21 28  1  0  0  0  0
 21 29  1  0  0  0  0
 34 39  1  0  0  0  0
  8 13  1  0  0  0  0
 18 27  1  0  0  0  0
 43 45  1  0  0  0  0
  7 12  1  0  0  0  0
 33 38  1  0  0  0  0
 17 26  1  0  0  0  0
 25 32  1  0  0  0  0
M  END
$$$$

  -OEChem-05262214473D

 48 47  0     1  0  0  0  0  0999 V2000
   -5.5827   -1.3473    1.4591 C   0  0  0  0  0  0  0  0  0  0  0  0
   -5.7053   -2.4696    0.9825 O   0  0  0  0  0  0  0  0  0  0  0  0
   -6.7879   -0.6277    1.9670 C   0  0  0  0  0  0  0  0  0  0  0  0
   -7.2718   -0.0164    1.1885 H   0  0  0  0  0  0  0  0  0  0  0  0
   -7.5699   -1.3171    2.3239 H   0  0  0  0  0  0  0  0  0  0  0  0
   -6.6057    0.0628    2.8060 H   0  0  0  0  0  0  0  0  0  0  0  0
   -4.4001   -0.6377    1.5884 N   0  0  0  0  0  0  0  0  0  0  0  0
   -3.1220   -1.1455    1.1644 C   0  0  2  0  0  0  0  0  0  0  0  0
   -2.2017    0.0428    0.9187 C   0  0  0  0  0  0  0  0  0  0  0  0
   -2.6171    1.1750    0.6807 O   0  0  0  0  0  0  0  0  0  0  0  0
   -3.2533   -1.9992   -0.0873 C   0  0  0  0  0  0  0  0  0  0  0  0
   -4.4370    0.2910    2.0047 H   0  0  0  0  0  0  0  0  0  0  0  0
   -2.7302   -1.7467    1.9921 H   0  0  0  0  0  0  0  0  0  0  0  0
   -3.6446   -1.4140   -0.9275 H   0  0  0  0  0  0  0  0  0  0  0  0
   -2.2844   -2.4081   -0.3922 H   0  0  0  0  0  0  0  0  0  0  0  0
   -3.9388   -2.8365    0.0822 H   0  0  0  0  0  0  0  0  0  0  0  0
   -0.8768   -0.3314    0.9568 N   0  0  0  0  0  0  0  0  0  0  0  0
    0.2067    0.6285    0.7375 C   0  0  2  0  0  0  0  0  0  0  0  0
   -0.3458    1.6939   -0.2045 C   0  0  0  0  0  0  0  0  0  0  0  0
   -0.2816    1.5918   -1.4279 O   0  0  0  0  0  0  0  0  0  0  0  0
    1.4199   -0.1025    0.1434 C   0  0  0  0  0  0  0  0  0  0  0  0
    2.0691   -1.0946    1.1083 C   0  0  0  0  0  0  0  0  0  0  0  0
    3.2401   -1.8084    0.4804 C   0  0  0  0  0  0  0  0  0  0  0  0
    3.5469   -1.7063   -0.7006 O   0  0  0  0  0  0  0  0  0  0  0  0
    3.9067   -2.6000    1.3565 O   0  0  0  0  0  0  0  0  0  0  0  0
   -0.6087   -1.2764    1.1771 H   0  0  0  0  0  0  0  0  0  0  0  0
    0.4759    1.0724    1.7015 H   0  0  0  0  0  0  0  0  0  0  0  0
    1.1102   -0.6386   -0.7637 H   0  0  0  0  0  0  0  0  0  0  0  0
    2.1839    0.6225   -0.1666 H   0  0  0  0  0  0  0  0  0  0  0  0
    2.4564   -0.5584    1.9834 H   0  0  0  0  0  0  0  0  0  0  0  0
    1.3456   -1.8156    1.5028 H   0  0  0  0  0  0  0  0  0  0  0  0
    4.6652   -3.0973    0.9833 H   0  0  0  0  0  0  0  0  0  0  0  0
   -0.9386    2.7464    0.4774 N   0  0  0  0  0  0  0  0  0  0  0  0
   -1.5387    3.8817   -0.1856 C   0  0  2  0  0  0  0  0  0  0  0  0
   -0.4894    4.9818   -0.2766 C   0  0  0  0  0  0  0  0  0  0  0  0
    0.4837    5.0442    0.4719 O   0  0  0  0  0  0  0  0  0  0  0  0
   -2.7729    4.3680    0.5581 C   0  0  0  0  0  0  0  0  0  0  0  0
   -0.9516    2.7177    1.4924 H   0  0  0  0  0  0  0  0  0  0  0  0
   -1.8110    3.5516   -1.1940 H   0  0  0  0  0  0  0  0  0  0  0  0
   -2.5198    4.7029    1.5706 H   0  0  0  0  0  0  0  0  0  0  0  0
   -3.2427    5.2101    0.0392 H   0  0  0  0  0  0  0  0  0  0  0  0
   -3.5142    3.5667    0.6486 H   0  0  0  0  0  0  0  0  0  0  0  0
   -0.7904    5.9097   -1.2638 N   0  0  0  0  0  0  0  0  0  0  0  0
    0.0453    7.0554   -1.5378 C   0  0  0  0  0  0  0  0  0  0  0  0
   -1.6081    5.7686   -1.8497 H   0  0  0  0  0  0  0  0  0  0  0  0
   -0.3095    7.9169   -0.9530 H   0  0  0  0  0  0  0  0  0  0  0  0
    1.0844    6.8262   -1.2591 H   0  0  0  0  0  0  0  0  0  0  0  0
   -0.0022    7.2957   -2.6102 H   0  0  0  0  0  0  0  0  0  0  0  0
  1  3  1  0  0  0  0
  1  7  1  0  0  0  0
  1  2  2  0  0  0  0
 34 35  1  0  0  0  0
 35 43  1  0  0  0  0
 35 36  2  0  0  0  0
  8  9  1  0  0  0  0
  9 17  1  0  0  0  0
  9 10  2  0  0  0  0
 18 19  1  0  0  0  0
 19 33  1  0  0  0  0
 19 20  2  0  0  0  0
 22 23  1  0  0  0  0
 23 24  2  0  0  0  0
 23 25  1  0  0  0  0
 34 37  1  0  0  0  0
  8 11  1  0  0  0  0
 43 44  1  0  0  0  0
 21 22  1  0  0  0  0
 18 21  1  0  0  0  0
 33 34  1  0  0  0  0
  7  8  1  0  0  0  0
 17 18  1  0  0  0  0
  3  4  1  0  0  0  0
  3  5  1  0  0  0  0
  3  6  1  0  0  0  0
 37 40  1  0  0  0  0
 37 41  1  0  0  0  0
 37 42  1  0  0  0  0
 11 14  1  0  0  0  0
 11 15  1  0  0  0  0
 11 16  1  0  0  0  0
 44 46  1  0  0  0  0
 44 47  1  0  0  0  0
 44 48  1  0  0  0  0
 22 30  1  0  0  0  0
 22 31  1  0  0  0  0
 21 28  1  0  0  0  0
 21 29  1  0  0  0  0
 34 39  1  0  0  0  0
  8 13  1  0  0  0  0
 18 27  1  0  0  0  0
 43 45  1  0  0  0  0
  7 12  1  0  0  0  0
 33 38  1  0  0  0  0
 17 26  1  0  0  0  0
 25 32  1  0  0  0  0
M  END
$$$$

  -OEChem-05262214473D

 48 47  0     1  0  0  0  0  0999 V2000
   -5.5827   -1.3473    1.4591 C   0  0  0  0  0  0  0  0  0  0  0  0
   -5.7053   -2.4696    0.9825 O   0  0  0  0  0  0  0  0  0  0  0  0
   -6.7879   -0.6277    1.9670 C   0  0  0  0  0  0  0  0  0  0  0  0
   -7.2718   -0.0164    1.1885 H   0  0  0  0  0  0  0  0  0  0  0  0
   -7.5699   -1.3171    2.3239 H   0  0  0  0  0  0  0  0  0  0  0  0
   -6.6057    0.0628    2.8060 H   0  0  0  0  0  0  0  0  0  0  0  0
   -4.4001   -0.6377    1.5884 N   0  0  0  0  0  0  0  0  0  0  0  0
   -3.1220   -1.1455    1.1644 C   0  0  2  0  0  0  0  0  0  0  0  0
   -2.2017    0.0428    0.9187 C   0  0  0  0  0  0  0  0  0  0  0  0
   -2.6171    1.1750    0.6807 O   0  0  0  0  0  0  0  0  0  0  0  0
   -3.2533   -1.9992   -0.0873 C   0  0  0  0  0  0  0  0  0  0  0  0
   -4.4370    0.2910    2.0047 H   0  0  0  0  0  0  0  0  0  0  0  0
   -2.7302   -1.7467    1.9921 H   0  0  0  0  0  0  0  0  0  0  0  0
   -3.6446   -1.4140   -0.9275 H   0  0  0  0  0  0  0  0  0  0  0  0
   -2.2844   -2.4081   -0.3922 H   0  0  0  0  0  0  0  0  0  0  0  0
   -3.9388   -2.8365    0.0822 H   0  0  0  0  0  0  0  0  0  0  0  0
   -0.8768   -0.3314    0.9568 N   0  0  0  0  0  0  0  0  0  0  0  0
    0.2067    0.6285    0.7375 C   0  0  2  0  0  0  0  0  0  0  0  0
   -0.3458    1.6939   -0.2045 C   0  0  0  0  0  0  0  0  0  0  0  0
   -0.5294    1.4860   -1.4022 O   0  0  0  0  0  0  0  0  0  0  0  0
    1.4199   -0.1025    0.1434 C   0  0  0  0  0  0  0  0  0  0  0  0
    2.0691   -1.0946    1.1083 C   0  0  0  0  0  0  0  0  0  0  0  0
    3.2401   -1.8084    0.4804 C   0  0  0  0  0  0  0  0  0  0  0  0
    3.5469   -1.7063   -0.7006 O   0  0  0  0  0  0  0  0  0  0  0  0
    3.9067   -2.6000    1.3565 O   0  0  0  0  0  0  0  0  0  0  0  0
   -0.6087   -1.2764    1.1771 H   0  0  0  0  0  0  0  0  0  0  0  0
    0.4759    1.0724    1.7015 H   0  0  0  0  0  0  0  0  0  0  0  0
    1.1102   -0.6386   -0.7637 H   0  0  0  0  0  0  0  0  0  0  0  0
    2.1839    0.6225   -0.1666 H   0  0  0  0  0  0  0  0  0  0  0  0
    2.4564   -0.5584    1.9834 H   0  0  0  0  0  0  0  0  0  0  0  0
    1.3456   -1.8156    1.5028 H   0  0  0  0  0  0  0  0  0  0  0  0
    4.6652   -3.0973    0.9833 H   0  0  0  0  0  0  0  0  0  0  0  0
   -0.6335    2.8817    0.4515 N   0  0  0  0  0  0  0  0  0  0  0  0
   -1.1691    4.0459   -0.2167 C   0  0  2  0  0  0  0  0  0  0  0  0
   -0.0017    4.9429   -0.6067 C   0  0  0  0  0  0  0  0  0  0  0  0
    1.0930    4.8995   -0.0492 O   0  0  0  0  0  0  0  0  0  0  0  0
   -2.1531    4.7903    0.6722 C   0  0  0  0  0  0  0  0  0  0  0  0
   -0.4593    2.9360    1.4505 H   0  0  0  0  0  0  0  0  0  0  0  0
   -1.6731    3.6877   -1.1209 H   0  0  0  0  0  0  0  0  0  0  0  0
   -1.6662    5.1568    1.5833 H   0  0  0  0  0  0  0  0  0  0  0  0
   -2.5795    5.6558    0.1543 H   0  0  0  0  0  0  0  0  0  0  0  0
   -2.9766    4.1351    0.9761 H   0  0  0  0  0  0  0  0  0  0  0  0
   -0.3394    5.8273   -1.6216 N   0  0  0  0  0  0  0  0  0  0  0  0
    0.5931    6.7906   -2.1587 C   0  0  0  0  0  0  0  0  0  0  0  0
   -1.2646    5.7800   -2.0382 H   0  0  0  0  0  0  0  0  0  0  0  0
    0.4892    7.7430   -1.6182 H   0  0  0  0  0  0  0  0  0  0  0  0
    1.6193    6.4124   -2.0409 H   0  0  0  0  0  0  0  0  0  0  0  0
    0.3814    6.9499   -3.2263 H   0  0  0  0  0  0  0  0  0  0  0  0
  1  3  1  0  0  0  0
  1  7  1  0  0  0  0
  1  2  2  0  0  0  0
 34 35  1  0  0  0  0
 35 43  1  0  0  0  0
 35 36  2  0  0  0  0
  8  9  1  0  0  0  0
  9 17  1  0  0  0  0
  9 10  2  0  0  0  0
 18 19  1  0  0  0  0
 19 33  1  0  0  0  0
 19 20  2  0  0  0  0
 22 23  1  0  0  0  0
 23 24  2  0  0  0  0
 23 25  1  0  0  0  0
 34 37  1  0  0  0  0
  8 11  1  0  0  0  0
 43 44  1  0  0  0  0
 21 22  1  0  0  0  0
 18 21  1  0  0  0  0
 33 34  1  0  0  0  0
  7  8  1  0  0  0  0
 17 18  1  0  0  0  0
  3  4  1  0  0  0  0
  3  5  1  0  0  0  0
  3  6  1  0  0  0  0
 37 40  1  0  0  0  0
 37 41  1  0  0  0  0
 37 42  1  0  0  0  0
 11 14  1  0  0  0  0
 11 15  1  0  0  0  0
 11 16  1  0  0  0  0
 44 46  1  0  0  0  0
 44 47  1  0  0  0  0
 44 48  1  0  0  0  0
 22 30  1  0  0  0  0
 22 31  1  0  0  0  0
 21 28  1  0  0  0  0
 21 29  1  0  0  0  0
 34 39  1  0  0  0  0
  8 13  1  0  0  0  0
 18 27  1  0  0  0  0
 43 45  1  0  0  0  0
  7 12  1  0  0  0  0
 33 38  1  0  0  0  0
 17 26  1  0  0  0  0
 25 32  1  0  0  0  0
M  END
$$$$

  -OEChem-05262214473D

 48 47  0     1  0  0  0  0  0999 V2000
   -5.5827   -1.3473    1.4591 C   0  0  0  0  0  0  0  0  0  0  0  0
   -5.7053   -2.4696    0.9825 O   0  0  0  0  0  0  0  0  0  0  0  0
   -6.7879   -0.6277    1.9670 C   0  0  0  0  0  0  0  0  0  0  0  0
   -7.2718   -0.0164    1.1885 H   0  0  0  0  0  0  0  0  0  0  0  0
   -7.5699   -1.3171    2.3239 H   0  0  0  0  0  0  0  0  0  0  0  0
   -6.6057    0.0628    2.8060 H   0  0  0  0  0  0  0  0  0  0  0  0
   -4.4001   -0.6377    1.5884 N   0  0  0  0  0  0  0  0  0  0  0  0
   -3.1220   -1.1455    1.1644 C   0  0  2  0  0  0  0  0  0  0  0  0
   -2.2017    0.0428    0.9187 C   0  0  0  0  0  0  0  0  0  0  0  0
   -2.6171    1.1750    0.6807 O   0  0  0  0  0  0  0  0  0  0  0  0
   -3.2533   -1.9992   -0.0873 C   0  0  0  0  0  0  0  0  0  0  0  0
   -4.4370    0.2910    2.0047 H   0  0  0  0  0  0  0  0  0  0  0  0
   -2.7302   -1.7467    1.9921 H   0  0  0  0  0  0  0  0  0  0  0  0
   -3.6446   -1.4140   -0.9275 H   0  0  0  0  0  0  0  0  0  0  0  0
   -2.2844   -2.4081   -0.3922 H   0  0  0  0  0  0  0  0  0  0  0  0
   -3.9388   -2.8365    0.0822 H   0  0  0  0  0  0  0  0  0  0  0  0
   -0.8768   -0.3314    0.9568 N   0  0  0  0  0  0  0  0  0  0  0  0
    0.2067    0.6285    0.7375 C   0  0  2  0  0  0  0  0  0  0  0  0
   -0.3458    1.6939   -0.2045 C   0  0  0  0  0  0  0  0  0  0  0  0
   -0.7810    1.4259   -1.3226 O   0  0  0  0  0  0  0  0  0  0  0  0
    1.4199   -0.1025    0.1434 C   0  0  0  0  0  0  0  0  0  0  0  0
    2.0691   -1.0946    1.1083 C   0  0  0  0  0  0  0  0  0  0  0  0
    3.2401   -1.8084    0.4804 C   0  0  0  0  0  0  0  0  0  0  0  0
    3.5469   -1.7063   -0.7006 O   0  0  0  0  0  0  0  0  0  0  0  0
    3.9067   -2.6000    1.3565 O   0  0  0  0  0  0  0  0  0  0  0  0
   -0.6087   -1.2764    1.1771 H   0  0  0  0  0  0  0  0  0  0  0  0
    0.4759    1.0724    1.7015 H   0  0  0  0  0  0  0  0  0  0  0  0
    1.1102   -0.6386   -0.7637 H   0  0  0  0  0  0  0  0  0  0  0  0
    2.1839    0.6225   -0.1666 H   0  0  0  0  0  0  0  0  0  0  0  0
    2.4564   -0.5584    1.9834 H   0  0  0  0  0  0  0  0  0  0  0  0
    1.3456   -1.8156    1.5028 H   0  0  0  0  0  0  0  0  0  0  0  0
    4.6652   -3.0973    0.9833 H   0  0  0  0  0  0  0  0  0  0  0  0
   -0.3219    2.9613    0.3587 N   0  0  0  0  0  0  0  0  0  0  0  0
   -0.7914    4.1426   -0.3289 C   0  0  2  0  0  0  0  0  0  0  0  0
    0.4035    4.7964   -1.0101 C   0  0  0  0  0  0  0  0  0  0  0  0
    1.5643    4.6135   -0.6491 O   0  0  0  0  0  0  0  0  0  0  0  0
   -1.4664    5.1100    0.6309 C   0  0  0  0  0  0  0  0  0  0  0  0
    0.0436    3.0642    1.3006 H   0  0  0  0  0  0  0  0  0  0  0  0
   -1.5050    3.8040   -1.0880 H   0  0  0  0  0  0  0  0  0  0  0  0
   -0.7669    5.4601    1.3987 H   0  0  0  0  0  0  0  0  0  0  0  0
   -1.8468    5.9912    0.1039 H   0  0  0  0  0  0  0  0  0  0  0  0
   -2.3073    4.6288    1.1420 H   0  0  0  0  0  0  0  0  0  0  0  0
    0.0184    5.6420   -2.0410 N   0  0  0  0  0  0  0  0  0  0  0  0
    0.9678    6.3890   -2.8326 C   0  0  0  0  0  0  0  0  0  0  0  0
   -0.9650    5.7185   -2.2835 H   0  0  0  0  0  0  0  0  0  0  0  0
    1.1127    7.3850   -2.3888 H   0  0  0  0  0  0  0  0  0  0  0  0
    1.9286    5.8539   -2.8539 H   0  0  0  0  0  0  0  0  0  0  0  0
    0.5853    6.4968   -3.8583 H   0  0  0  0  0  0  0  0  0  0  0  0
  1  3  1  0  0  0  0
  1  7  1  0  0  0  0
  1  2  2  0  0  0  0
 34 35  1  0  0  0  0
 35 43  1  0  0  0  0
 35 36  2  0  0  0  0
  8  9  1  0  0  0  0
  9 17  1  0  0  0  0
  9 10  2  0  0  0  0
 18 19  1  0  0  0  0
 19 33  1  0  0  0  0
 19 20  2  0  0  0  0
 22 23  1  0  0  0  0
 23 24  2  0  0  0  0
 23 25  1  0  0  0  0
 34 37  1  0  0  0  0
  8 11  1  0  0  0  0
 43 44  1  0  0  0  0
 21 22  1  0  0  0  0
 18 21  1  0  0  0  0
 33 34  1  0  0  0  0
  7  8  1  0  0  0  0
 17 18  1  0  0  0  0
  3  4  1  0  0  0  0
  3  5  1  0  0  0  0
  3  6  1  0  0  0  0
 37 40  1  0  0  0  0
 37 41  1  0  0  0  0
 37 42  1  0  0  0  0
 11 14  1  0  0  0  0
 11 15  1  0  0  0  0
 11 16  1  0  0  0  0
 44 46  1  0  0  0  0
 44 47  1  0  0  0  0
 44 48  1  0  0  0  0
 22 30  1  0  0  0  0
 22 31  1  0  0  0  0
 21 28  1  0  0  0  0
 21 29  1  0  0  0  0
 34 39  1  0  0  0  0
  8 13  1  0  0  0  0
 18 27  1  0  0  0  0
 43 45  1  0  0  0  0
  7 12  1  0  0  0  0
 33 38  1  0  0  0  0
 17 26  1  0  0  0  0
 25 32  1  0  0  0  0
M  END
$$$$

  -OEChem-05262214473D

 48 47  0     1  0  0  0  0  0999 V2000
   -5.5827   -1.3473    1.4591 C   0  0  0  0  0  0  0  0  0  0  0  0
   -5.7053   -2.4696    0.9825 O   0  0  0  0  0  0  0  0  0  0  0  0
   -6.7879   -0.6277    1.9670 C   0  0  0  0  0  0  0  0  0  0  0  0
   -7.2718   -0.0164    1.1885 H   0  0  0  0  0  0  0  0  0  0  0  0
   -7.5699   -1.3171    2.3239 H   0  0  0  0  0  0  0  0  0  0  0  0
   -6.6057    0.0628    2.8060 H   0  0  0  0  0  0  0  0  0  0  0  0
   -4.4001   -0.6377    1.5884 N   0  0  0  0  0  0  0  0  0  0  0  0
   -3.1220   -1.1455    1.1644 C   0  0  2  0  0  0  0  0  0  0  0  0
   -2.2017    0.0428    0.9187 C   0  0  0  0  0  0  0  0  0  0  0  0
   -2.6171    1.1750    0.6807 O   0  0  0  0  0  0  0  0  0  0  0  0
   -3.2533   -1.9992   -0.0873 C   0  0  0  0  0  0  0  0  0  0  0  0
   -4.4370    0.2910    2.0047 H   0  0  0  0  0  0  0  0  0  0  0  0
   -2.7302   -1.7467    1.9921 H   0  0  0  0  0  0  0  0  0  0  0  0
   -3.6446   -1.4140   -0.9275 H   0  0  0  0  0  0  0  0  0  0  0  0
   -2.2844   -2.4081   -0.3922 H   0  0  0  0  0  0  0  0  0  0  0  0
   -3.9388   -2.8365    0.0822 H   0  0  0  0  0  0  0  0  0  0  0  0
   -0.8768   -0.3314    0.9568 N   0  0  0  0  0  0  0  0  0  0  0  0
    0.2067    0.6285    0.7375 C   0  0  2  0  0  0  0  0  0  0  0  0
   -0.3458    1.6939   -0.2045 C   0  0  0  0  0  0  0  0  0  0  0  0
   -1.0192    1.4155   -1.1946 O   0  0  0  0  0  0  0  0  0  0  0  0
    1.4199   -0.1025    0.1434 C   0  0  0  0  0  0  0  0  0  0  0  0
    2.0691   -1.0946    1.1083 C   0  0  0  0  0  0  0  0  0  0  0  0
    3.2401   -1.8084    0.4804 C   0  0  0  0  0  0  0  0  0  0  0  0
    3.5469   -1.7063   -0.7006 O   0  0  0  0  0  0  0  0  0  0  0  0
    3.9067   -2.6000    1.3565 O   0  0  0  0  0  0  0  0  0  0  0  0
   -0.6087   -1.2764    1.1771 H   0  0  0  0  0  0  0  0  0  0  0  0
    0.4759    1.0724    1.7015 H   0  0  0  0  0  0  0  0  0  0  0  0
    1.1102   -0.6386   -0.7637 H   0  0  0  0  0  0  0  0  0  0  0  0
    2.1839    0.6225   -0.1666 H   0  0  0  0  0  0  0  0  0  0  0  0
    2.4564   -0.5584    1.9834 H   0  0  0  0  0  0  0  0  0  0  0  0
    1.3456   -1.8156    1.5028 H   0  0  0  0  0  0  0  0  0  0  0  0
    4.6652   -3.0973    0.9833 H   0  0  0  0  0  0  0  0  0  0  0  0
   -0.0249    2.9796    0.2053 N   0  0  0  0  0  0  0  0  0  0  0  0
   -0.4315    4.1650   -0.5146 C   0  0  2  0  0  0  0  0  0  0  0  0
    0.6987    4.5524   -1.4592 C   0  0  0  0  0  0  0  0  0  0  0  0
    1.8654    4.2057   -1.2870 O   0  0  0  0  0  0  0  0  0  0  0  0
   -0.7594    5.3051    0.4369 C   0  0  0  0  0  0  0  0  0  0  0  0
    0.5227    3.0936    1.0529 H   0  0  0  0  0  0  0  0  0  0  0  0
   -1.3181    3.8926   -1.0974 H   0  0  0  0  0  0  0  0  0  0  0  0
    0.1169    5.5919    1.0295 H   0  0  0  0  0  0  0  0  0  0  0  0
   -1.0946    6.1933   -0.1087 H   0  0  0  0  0  0  0  0  0  0  0  0
   -1.5519    5.0144    1.1350 H   0  0  0  0  0  0  0  0  0  0  0  0
    0.2585    5.3666   -2.4934 N   0  0  0  0  0  0  0  0  0  0  0  0
    1.1436    5.8781   -3.5136 C   0  0  0  0  0  0  0  0  0  0  0  0
   -0.7299    5.5882   -2.5688 H   0  0  0  0  0  0  0  0  0  0  0  0
    1.5185    6.8674   -3.2123 H   0  0  0  0  0  0  0  0  0  0  0  0
    1.9911    5.1888   -3.6429 H   0  0  0  0  0  0  0  0  0  0  0  0
    0.5956    5.9674   -4.4632 H   0  0  0  0  0  0  0  0  0  0  0  0
  1  3  1  0  0  0  0
  1  7  1  0  0  0  0
  1  2  2  0  0  0  0
 34 35  1  0  0  0  0
 35 43  1  0  0  0  0
 35 36  2  0  0  0  0
  8  9  1  0  0  0  0
  9 17  1  0  0  0  0
  9 10  2  0  0  0  0
 18 19  1  0  0  0  0
 19 33  1  0  0  0  0
 19 20  2  0  0  0  0
 22 23  1  0  0  0  0
 23 24  2  0  0  0  0
 23 25  1  0  0  0  0
 34 37  1  0  0  0  0
  8 11  1  0  0  0  0
 43 44  1  0  0  0  0
 21 22  1  0  0  0  0
 18 21  1  0  0  0  0
 33 34  1  0  0  0  0
  7  8  1  0  0  0  0
 17 18  1  0  0  0  0
  3  4  1  0  0  0  0
  3  5  1  0  0  0  0
  3  6  1  0  0  0  0
 37 40  1  0  0  0  0
 37 41  1  0  0  0  0
 37 42  1  0  0  0  0
 11 14  1  0  0  0  0
 11 15  1  0  0  0  0
 11 16  1  0  0  0  0
 44 46  1  0  0  0  0
 44 47  1  0  0  0  0
 44 48  1  0  0  0  0
 22 30  1  0  0  0  0
 22 31  1  0  0  0  0
 21 28  1  0  0  0  0
 21 29  1  0  0  0  0
 34 39  1  0  0  0  0
  8 13  1  0  0  0  0
 18 27  1  0  0  0  0
 43 45  1  0  0  0  0
  7 12  1  0  0  0  0
 33 38  1  0  0  0  0
 17 26  1  0  0  0  0
 25 32  1  0  0  0  0
M  END
$$$$

  -OEChem-05262214473D

 48 47  0     1  0  0  0  0  0999 V2000
   -5.5827   -1.3473    1.4591 C   0  0  0  0  0  0  0  0  0  0  0  0
   -5.7053   -2.4696    0.9825 O   0  0  0  0  0  0  0  0  0  0  0  0
   -6.7879   -0.6277    1.9670 C   0  0  0  0  0  0  0  0  0  0  0  0
   -7.2718   -0.0164    1.1885 H   0  0  0  0  0  0  0  0  0  0  0  0
   -7.5699   -1.3171    2.3239 H   0  0  0  0  0  0  0  0  0  0  0  0
   -6.6057    0.0628    2.8060 H   0  0  0  0  0  0  0  0  0  0  0  0
   -4.4001   -0.6377    1.5884 N   0  0  0  0  0  0  0  0  0  0  0  0
   -3.1220   -1.1455    1.1644 C   0  0  2  0  0  0  0  0  0  0  0  0
   -2.2017    0.0428    0.9187 C   0  0  0  0  0  0  0  0  0  0  0  0
   -2.6171    1.1750    0.6807 O   0  0  0  0  0  0  0  0  0  0  0  0
   -3.2533   -1.9992   -0.0873 C   0  0  0  0  0  0  0  0  0  0  0  0
   -4.4370    0.2910    2.0047 H   0  0  0  0  0  0  0  0  0  0  0  0
   -2.7302   -1.7467    1.9921 H   0  0  0  0  0  0  0  0  0  0  0  0
   -3.6446   -1.4140   -0.9275 H   0  0  0  0  0  0  0  0  0  0  0  0
   -2.2844   -2.4081   -0.3922 H   0  0  0  0  0  0  0  0  0  0  0  0
   -3.9388   -2.8365    0.0822 H   0  0  0  0  0  0  0  0  0  0  0  0
   -0.8768   -0.3314    0.9568 N   0  0  0  0  0  0  0  0  0  0  0  0
    0.2067    0.6285    0.7375 C   0  0  2  0  0  0  0  0  0  0  0  0
   -0.3458    1.6939   -0.2045 C   0  0  0  0  0  0  0  0  0  0  0  0
   -1.2279    1.4555   -1.0270 O   0  0  0  0  0  0  0  0  0  0  0  0
    1.4199   -0.1025    0.1434 C   0  0  0  0  0  0  0  0  0  0  0  0
    2.0691   -1.0946    1.1083 C   0  0  0  0  0  0  0  0  0  0  0  0
    3.2401   -1.8084    0.4804 C   0  0  0  0  0  0  0  0  0  0  0  0
    3.5469   -1.7063   -0.7006 O   0  0  0  0  0  0  0  0  0  0  0  0
    3.9067   -2.6000    1.3565 O   0  0  0  0  0  0  0  0  0  0  0  0
   -0.6087   -1.2764    1.1771 H   0  0  0  0  0  0  0  0  0  0  0  0
    0.4759    1.0724    1.7015 H   0  0  0  0  0  0  0  0  0  0  0  0
    1.1102   -0.6386   -0.7637 H   0  0  0  0  0  0  0  0  0  0  0  0
    2.1839    0.6225   -0.1666 H   0  0  0  0  0  0  0  0  0  0  0  0
    2.4564   -0.5584    1.9834 H   0  0  0  0  0  0  0  0  0  0  0  0
    1.3456   -1.8156    1.5028 H   0  0  0  0  0  0  0  0  0  0  0  0
    4.6652   -3.0973    0.9833 H   0  0  0  0  0  0  0  0  0  0  0  0
    0.2371    2.9355    0.0017 N   0  0  0  0  0  0  0  0  0  0  0  0
   -0.1138    4.1118   -0.7612 C   0  0  2  0  0  0  0  0  0  0  0  0
    0.8635    4.2274   -1.9235 C   0  0  0  0  0  0  0  0  0  0  0  0
    1.9757    3.7039   -1.9193 O   0  0  0  0  0  0  0  0  0  0  0  0
   -0.0805    5.3624    0.1035 C   0  0  0  0  0  0  0  0  0  0  0  0
    0.9454    3.0223    0.7243 H   0  0  0  0  0  0  0  0  0  0  0  0
   -1.1252    3.9473   -1.1486 H   0  0  0  0  0  0  0  0  0  0  0  0
    0.9250    5.5435    0.5007 H   0  0  0  0  0  0  0  0  0  0  0  0
   -0.3742    6.2484   -0.4689 H   0  0  0  0  0  0  0  0  0  0  0  0
   -0.7620    5.2654    0.9555 H   0  0  0  0  0  0  0  0  0  0  0  0
    0.3647    5.0198   -2.9479 N   0  0  0  0  0  0  0  0  0  0  0  0
    1.1088    5.2926   -4.1554 C   0  0  0  0  0  0  0  0  0  0  0  0
   -0.5751    5.3980   -2.8747 H   0  0  0  0  0  0  0  0  0  0  0  0
    1.6788    6.2254   -4.0325 H   0  0  0  0  0  0  0  0  0  0  0  0
    1.8026    4.4624   -4.3538 H   0  0  0  0  0  0  0  0  0  0  0  0
    0.4116    5.3976   -4.9997 H   0  0  0  0  0  0  0  0  0  0  0  0
  1  3  1  0  0  0  0
  1  7  1  0  0  0  0
  1  2  2  0  0  0  0
 34 35  1  0  0  0  0
 35 43  1  0  0  0  0
 35 36  2  0  0  0  0
  8  9  1  0  0  0  0
  9 17  1  0  0  0  0
  9 10  2  0  0  0  0
 18 19  1  0  0  0  0
 19 33  1  0  0  0  0
 19 20  2  0  0  0  0
 22 23  1  0  0  0  0
 23 24  2  0  0  0  0
 23 25  1  0  0  0  0
 34 37  1  0  0  0  0
  8 11  1  0  0  0  0
 43 44  1  0  0  0  0
 21 22  1  0  0  0  0
 18 21  1  0  0  0  0
 33 34  1  0  0  0  0
  7  8  1  0  0  0  0
 17 18  1  0  0  0  0
  3  4  1  0  0  0  0
  3  5  1  0  0  0  0
  3  6  1  0  0  0  0
 37 40  1  0  0  0  0
 37 41  1  0  0  0  0
 37 42  1  0  0  0  0
 11 14  1  0  0  0  0
 11 15  1  0  0  0  0
 11 16  1  0  0  0  0
 44 46  1  0  0  0  0
 44 47  1  0  0  0  0
 44 48  1  0  0  0  0
 22 30  1  0  0  0  0
 22 31  1  0  0  0  0
 21 28  1  0  0  0  0
 21 29  1  0  0  0  0
 34 39  1  0  0  0  0
  8 13  1  0  0  0  0
 18 27  1  0  0  0  0
 43 45  1  0  0  0  0
  7 12  1  0  0  0  0
 33 38  1  0  0  0  0
 17 26  1  0  0  0  0
 25 32  1  0  0  0  0
M  END
$$$$

  -OEChem-05262214473D

 48 47  0     1  0  0  0  0  0999 V2000
   -5.5827   -1.3473    1.4591 C   0  0  0  0  0  0  0  0  0  0  0  0
   -5.7053   -2.4696    0.9825 O   0  0  0  0  0  0  0  0  0  0  0  0
   -6.7879   -0.6277    1.9670 C   0  0  0  0  0  0  0  0  0  0  0  0
   -7.2718   -0.0164    1.1885 H   0  0  0  0  0  0  0  0  0  0  0  0
   -7.5699   -1.3171    2.3239 H   0  0  0  0  0  0  0  0  0  0  0  0
   -6.6057    0.0628    2.8060 H   0  0  0  0  0  0  0  0  0  0  0  0
   -4.4001   -0.6377    1.5884 N   0  0  0  0  0  0  0  0  0  0  0  0
   -3.1220   -1.1455    1.1644 C   0  0  2  0  0  0  0  0  0  0  0  0
   -2.2017    0.0428    0.9187 C   0  0  0  0  0  0  0  0  0  0  0  0
   -2.6171    1.1750    0.6807 O   0  0  0  0  0  0  0  0  0  0  0  0
   -3.2533   -1.9992   -0.0873 C   0  0  0  0  0  0  0  0  0  0  0  0
   -4.4370    0.2910    2.0047 H   0  0  0  0  0  0  0  0  0  0  0  0
   -2.7302   -1.7467    1.9921 H   0  0  0  0  0  0  0  0  0  0  0  0
   -3.6446   -1.4140   -0.9275 H   0  0  0  0  0  0  0  0  0  0  0  0
   -2.2844   -2.4081   -0.3922 H   0  0  0  0  0  0  0  0  0  0  0  0
   -3.9388   -2.8365    0.0822 H   0  0  0  0  0  0  0  0  0  0  0  0
   -0.8768   -0.3314    0.9568 N   0  0  0  0  0  0  0  0  0  0  0  0
    0.2067    0.6285    0.7375 C   0  0  2  0  0  0  0  0  0  0  0  0
   -0.3458    1.6939   -0.2045 C   0  0  0  0  0  0  0  0  0  0  0  0
   -1.3928    1.5432   -0.8311 O   0  0  0  0  0  0  0  0  0  0  0  0
    1.4199   -0.1025    0.1434 C   0  0  0  0  0  0  0  0  0  0  0  0
    2.0691   -1.0946    1.1083 C   0  0  0  0  0  0  0  0  0  0  0  0
    3.2401   -1.8084    0.4804 C   0  0  0  0  0  0  0  0  0  0  0  0
    3.5469   -1.7063   -0.7006 O   0  0  0  0  0  0  0  0  0  0  0  0
    3.9067   -2.6000    1.3565 O   0  0  0  0  0  0  0  0  0  0  0  0
   -0.6087   -1.2764    1.1771 H   0  0  0  0  0  0  0  0  0  0  0  0
    0.4759    1.0724    1.7015 H   0  0  0  0  0  0  0  0  0  0  0  0
    1.1102   -0.6386   -0.7637 H   0  0  0  0  0  0  0  0  0  0  0  0
    2.1839    0.6225   -0.1666 H   0  0  0  0  0  0  0  0  0  0  0  0
    2.4564   -0.5584    1.9834 H   0  0  0  0  0  0  0  0  0  0  0  0
    1.3456   -1.8156    1.5028 H   0  0  0  0  0  0  0  0  0  0  0  0
    4.6652   -3.0973    0.9833 H   0  0  0  0  0  0  0  0  0  0  0  0
    0.4464    2.8320   -0.2382 N   0  0  0  0  0  0  0  0  0  0  0  0
    0.1400    3.9865   -1.0517 C   0  0  2  0  0  0  0  0  0  0  0  0
    0.8869    3.8436   -2.3713 C   0  0  0  0  0  0  0  0  0  0  0  0
    1.8879    3.1423   -2.5030 O   0  0  0  0  0  0  0  0  0  0  0  0
    0.5243    5.2780   -0.3467 C   0  0  0  0  0  0  0  0  0  0  0  0
    1.2830    2.8551    0.3371 H   0  0  0  0  0  0  0  0  0  0  0  0
   -0.9393    3.9646   -1.2381 H   0  0  0  0  0  0  0  0  0  0  0  0
    1.6021    5.3180   -0.1515 H   0  0  0  0  0  0  0  0  0  0  0  0
    0.2654    6.1528   -0.9522 H   0  0  0  0  0  0  0  0  0  0  0  0
    0.0088    5.3648    0.6159 H   0  0  0  0  0  0  0  0  0  0  0  0
    0.3298    4.6252   -3.3737 N   0  0  0  0  0  0  0  0  0  0  0  0
    0.8656    4.6726   -4.7141 C   0  0  0  0  0  0  0  0  0  0  0  0
   -0.5113    5.1609   -3.1803 H   0  0  0  0  0  0  0  0  0  0  0  0
    1.5829    5.5027   -4.7936 H   0  0  0  0  0  0  0  0  0  0  0  0
    1.3760    3.7243   -4.9385 H   0  0  0  0  0  0  0  0  0  0  0  0
    0.0459    4.8264   -5.4313 H   0  0  0  0  0  0  0  0  0  0  0  0
  1  3  1  0  0  0  0
  1  7  1  0  0  0  0
  1  2  2  0  0  0  0
 34 35  1  0  0  0  0
 35 43  1  0  0  0  0
 35 36  2  0  0  0  0
  8  9  1  0  0  0  0
  9 17  1  0  0  0  0
  9 10  2  0  0  0  0
 18 19  1  0  0  0  0
 19 33  1  0  0  0  0
 19 20  2  0  0  0  0
 22 23  1  0  0  0  0
 23 24  2  0  0  0  0
 23 25  1  0  0  0  0
 34 37  1  0  0  0  0
  8 11  1  0  0  0  0
 43 44  1  0  0  0  0
 21 22  1  0  0  0  0
 18 21  1  0  0  0  0
 33 34  1  0  0  0  0
  7  8  1  0  0  0  0
 17 18  1  0  0  0  0
  3  4  1  0  0  0  0
  3  5  1  0  0  0  0
  3  6  1  0  0  0  0
 37 40  1  0  0  0  0
 37 41  1  0  0  0  0
 37 42  1  0  0  0  0
 11 14  1  0  0  0  0
 11 15  1  0  0  0  0
 11 16  1  0  0  0  0
 44 46  1  0  0  0  0
 44 47  1  0  0  0  0
 44 48  1  0  0  0  0
 22 30  1  0  0  0  0
 22 31  1  0  0  0  0
 21 28  1  0  0  0  0
 21 29  1  0  0  0  0
 34 39  1  0  0  0  0
  8 13  1  0  0  0  0
 18 27  1  0  0  0  0
 43 45  1  0  0  0  0
  7 12  1  0  0  0  0
 33 38  1  0  0  0  0
 17 26  1  0  0  0  0
 25 32  1  0  0  0  0
M  END
$$$$

  -OEChem-05262214473D

 48 47  0     1  0  0  0  0  0999 V2000
   -5.5827   -1.3473    1.4591 C   0  0  0  0  0  0  0  0  0  0  0  0
   -5.7053   -2.4696    0.9825 O   0  0  0  0  0  0  0  0  0  0  0  0
   -6.7879   -0.6277    1.9670 C   0  0  0  0  0  0  0  0  0  0  0  0
   -7.2718   -0.0164    1.1885 H   0  0  0  0  0  0  0  0  0  0  0  0
   -7.5699   -1.3171    2.3239 H   0  0  0  0  0  0  0  0  0  0  0  0
   -6.6057    0.0628    2.8060 H   0  0  0  0  0  0  0  0  0  0  0  0
   -4.4001   -0.6377    1.5884 N   0  0  0  0  0  0  0  0  0  0  0  0
   -3.1220   -1.1455    1.1644 C   0  0  2  0  0  0  0  0  0  0  0  0
   -2.2017    0.0428    0.9187 C   0  0  0  0  0  0  0  0  0  0  0  0
   -2.6171    1.1750    0.6807 O   0  0  0  0  0  0  0  0  0  0  0  0
   -3.2533   -1.9992   -0.0873 C   0  0  0  0  0  0  0  0  0  0  0  0
   -4.4370    0.2910    2.0047 H   0  0  0  0  0  0  0  0  0  0  0  0
   -2.7302   -1.7467    1.9921 H   0  0  0  0  0  0  0  0  0  0  0  0
   -3.6446   -1.4140   -0.9275 H   0  0  0  0  0  0  0  0  0  0  0  0
   -2.2844   -2.4081   -0.3922 H   0  0  0  0  0  0  0  0  0  0  0  0
   -3.9388   -2.8365    0.0822 H   0  0  0  0  0  0  0  0  0  0  0  0
   -0.8768   -0.3314    0.9568 N   0  0  0  0  0  0  0  0  0  0  0  0
    0.2067    0.6285    0.7375 C   0  0  2  0  0  0  0  0  0  0  0  0
   -0.4347    1.8691    0.1233 C   0  0  0  0  0  0  0  0  0  0  0  0
   -1.6438    1.9549   -0.0821 O   0  0  0  0  0  0  0  0  0  0  0  0
    1.2622    0.0005   -0.1849 C   0  0  0  0  0  0  0  0  0  0  0  0
    2.0066   -1.1748    0.4486 C   0  0  0  0  0  0  0  0  0  0  0  0
    3.0159   -1.7784   -0.4959 C   0  0  0  0  0  0  0  0  0  0  0  0
    3.1277   -1.4549   -1.6715 O   0  0  0  0  0  0  0  0  0  0  0  0
    3.7738   -2.7401    0.0864 O   0  0  0  0  0  0  0  0  0  0  0  0
   -0.6087   -1.2764    1.1771 H   0  0  0  0  0  0  0  0  0  0  0  0
    0.6563    0.8699    1.7062 H   0  0  0  0  0  0  0  0  0  0  0  0
    0.7772   -0.3415   -1.1089 H   0  0  0  0  0  0  0  0  0  0  0  0
    2.0031    0.7549   -0.4806 H   0  0  0  0  0  0  0  0  0  0  0  0
    2.5628   -0.8282    1.3282 H   0  0  0  0  0  0  0  0  0  0  0  0
    1.3199   -1.9425    0.8198 H   0  0  0  0  0  0  0  0  0  0  0  0
    4.4312   -3.1719   -0.4995 H   0  0  0  0  0  0  0  0  0  0  0  0
    0.4910    2.8685   -0.1378 N   0  0  0  0  0  0  0  0  0  0  0  0
    0.1371    4.1438   -0.7184 C   0  0  2  0  0  0  0  0  0  0  0  0
    0.3311    4.0443   -2.2258 C   0  0  0  0  0  0  0  0  0  0  0  0
    1.0731    3.2185   -2.7535 O   0  0  0  0  0  0  0  0  0  0  0  0
    0.9772    5.2694   -0.1354 C   0  0  0  0  0  0  0  0  0  0  0  0
    1.4654    2.6956    0.0902 H   0  0  0  0  0  0  0  0  0  0  0  0
   -0.9227    4.3093   -0.4962 H   0  0  0  0  0  0  0  0  0  0  0  0
    2.0422    5.1209   -0.3480 H   0  0  0  0  0  0  0  0  0  0  0  0
    0.6884    6.2386   -0.5554 H   0  0  0  0  0  0  0  0  0  0  0  0
    0.8594    5.3204    0.9524 H   0  0  0  0  0  0  0  0  0  0  0  0
   -0.3884    5.0142   -2.9097 N   0  0  0  0  0  0  0  0  0  0  0  0
   -0.3602    5.1361   -4.3485 C   0  0  0  0  0  0  0  0  0  0  0  0
   -0.9927    5.6458   -2.3923 H   0  0  0  0  0  0  0  0  0  0  0  0
    0.4235    5.8503   -4.6413 H   0  0  0  0  0  0  0  0  0  0  0  0
   -0.1467    4.1540   -4.7955 H   0  0  0  0  0  0  0  0  0  0  0  0
   -1.3364    5.4968   -4.7050 H   0  0  0  0  0  0  0  0  0  0  0  0
  1  3  1  0  0  0  0
  1  7  1  0  0  0  0
  1  2  2  0  0  0  0
 34 35  1  0  0  0  0
 35 43  1  0  0  0  0
 35 36  2  0  0  0  0
  8  9  1  0  0  0  0
  9 17  1  0  0  0  0
  9 10  2  0  0  0  0
 18 19  1  0  0  0  0
 19 33  1  0  0  0  0
 19 20  2  0  0  0  0
 22 23  1  0  0  0  0
 23 24  2  0  0  0  0
 23 25  1  0  0  0  0
 34 37  1  0  0  0  0
  8 11  1  0  0  0  0
 43 44  1  0  0  0  0
 21 22  1  0  0  0  0
 18 21  1  0  0  0  0
 33 34  1  0  0  0  0
  7  8  1  0  0  0  0
 17 18  1  0  0  0  0
  3  4  1  0  0  0  0
  3  5  1  0  0  0  0
  3  6  1  0  0  0  0
 37 40  1  0  0  0  0
 37 41  1  0  0  0  0
 37 42  1  0  0  0  0
 11 14  1  0  0  0  0
 11 15  1  0  0  0  0
 11 16  1  0  0  0  0
 44 46  1  0  0  0  0
 44 47  1  0  0  0  0
 44 48  1  0  0  0  0
 22 30  1  0  0  0  0
 22 31  1  0  0  0  0
 21 28  1  0  0  0  0
 21 29  1  0  0  0  0
 34 39  1  0  0  0  0
  8 13  1  0  0  0  0
 18 27  1  0  0  0  0
 43 45  1  0  0  0  0
  7 12  1  0  0  0  0
 33 38  1  0  0  0  0
 17 26  1  0  0  0  0
 25 32  1  0  0  0  0
M  END
$$$$

  -OEChem-05262214473D

 48 47  0     1  0  0  0  0  0999 V2000
   -5.5827   -1.3473    1.4591 C   0  0  0  0  0  0  0  0  0  0  0  0
   -5.7053   -2.4696    0.9825 O   0  0  0  0  0  0  0  0  0  0  0  0
   -6.7879   -0.6277    1.9670 C   0  0  0  0  0  0  0  0  0  0  0  0
   -7.2718   -0.0164    1.1885 H   0  0  0  0  0  0  0  0  0  0  0  0
   -7.5699   -1.3171    2.3239 H   0  0  0  0  0  0  0  0  0  0  0  0
   -6.6057    0.0628    2.8060 H   0  0  0  0  0  0  0  0  0  0  0  0
   -4.4001   -0.6377    1.5884 N   0  0  0  0  0  0  0  0  0  0  0  0
   -3.1220   -1.1455    1.1644 C   0  0  2  0  0  0  0  0  0  0  0  0
   -2.2017    0.0428    0.9187 C   0  0  0  0  0  0  0  0  0  0  0  0
   -2.6171    1.1750    0.6807 O   0  0  0  0  0  0  0  0  0  0  0  0
   -3.2533   -1.9992   -0.0873 C   0  0  0  0  0  0  0  0  0  0  0  0
   -4.4370    0.2910    2.0047 H   0  0  0  0  0  0  0  0  0  0  0  0
   -2.7302   -1.7467    1.9921 H   0  0  0  0  0  0  0  0  0  0  0  0
   -3.6446   -1.4140   -0.9275 H   0  0  0  0  0  0  0  0  0  0  0  0
   -2.2844   -2.4081   -0.3922 H   0  0  0  0  0  0  0  0  0  0  0  0
   -3.9388   -2.8365    0.0822 H   0  0  0  0  0  0  0  0  0  0  0  0
   -0.8768   -0.3314    0.9568 N   0  0  0  0  0  0  0  0  0  0  0  0
    0.2067    0.6285    0.7375 C   0  0  2  0  0  0  0  0  0  0  0  0
   -0.4347    1.8691    0.1233 C   0  0  0  0  0  0  0  0  0  0  0  0
   -1.6463    2.0740    0.1610 O   0  0  0  0  0  0  0  0  0  0  0  0
    1.2622    0.0005   -0.1849 C   0  0  0  0  0  0  0  0  0  0  0  0
    2.0066   -1.1748    0.4486 C   0  0  0  0  0  0  0  0  0  0  0  0
    3.0159   -1.7784   -0.4959 C   0  0  0  0  0  0  0  0  0  0  0  0
    3.1277   -1.4549   -1.6715 O   0  0  0  0  0  0  0  0  0  0  0  0
    3.7738   -2.7401    0.0864 O   0  0  0  0  0  0  0  0  0  0  0  0
   -0.6087   -1.2764    1.1771 H   0  0  0  0  0  0  0  0  0  0  0  0
    0.6563    0.8699    1.7062 H   0  0  0  0  0  0  0  0  0  0  0  0
    0.7772   -0.3415   -1.1089 H   0  0  0  0  0  0  0  0  0  0  0  0
    2.0031    0.7549   -0.4806 H   0  0  0  0  0  0  0  0  0  0  0  0
    2.5628   -0.8282    1.3282 H   0  0  0  0  0  0  0  0  0  0  0  0
    1.3199   -1.9425    0.8198 H   0  0  0  0  0  0  0  0  0  0  0  0
    4.4312   -3.1719   -0.4995 H   0  0  0  0  0  0  0  0  0  0  0  0
    0.5011    2.7243   -0.4397 N   0  0  0  0  0  0  0  0  0  0  0  0
    0.1496    3.9691   -1.0843 C   0  0  2  0  0  0  0  0  0  0  0  0
    0.0030    3.7011   -2.5764 C   0  0  0  0  0  0  0  0  0  0  0  0
    0.5336    2.7473   -3.1419 O   0  0  0  0  0  0  0  0  0  0  0  0
    1.1964    5.0414   -0.8249 C   0  0  0  0  0  0  0  0  0  0  0  0
    1.4814    2.4627   -0.3969 H   0  0  0  0  0  0  0  0  0  0  0  0
   -0.8171    4.2772   -0.6713 H   0  0  0  0  0  0  0  0  0  0  0  0
    2.1718    4.7504   -1.2316 H   0  0  0  0  0  0  0  0  0  0  0  0
    0.9145    5.9918   -1.2900 H   0  0  0  0  0  0  0  0  0  0  0  0
    1.3218    5.2116    0.2498 H   0  0  0  0  0  0  0  0  0  0  0  0
   -0.7544    4.6764   -3.2098 N   0  0  0  0  0  0  0  0  0  0  0  0
   -1.0269    4.6531   -4.6280 C   0  0  0  0  0  0  0  0  0  0  0  0
   -1.1714    5.4212   -2.6593 H   0  0  0  0  0  0  0  0  0  0  0  0
   -0.2623    5.2397   -5.1585 H   0  0  0  0  0  0  0  0  0  0  0  0
   -1.0068    3.6139   -4.9881 H   0  0  0  0  0  0  0  0  0  0  0  0
   -2.0193    5.0879   -4.8178 H   0  0  0  0  0  0  0  0  0  0  0  0
  1  3  1  0  0  0  0
  1  7  1  0  0  0  0
  1  2  2  0  0  0  0
 34 35  1  0  0  0  0
 35 43  1  0  0  0  0
 35 36  2  0  0  0  0
  8  9  1  0  0  0  0
  9 17  1  0  0  0  0
  9 10  2  0  0  0  0
 18 19  1  0  0  0  0
 19 33  1  0  0  0  0
 19 20  2  0  0  0  0
 22 23  1  0  0  0  0
 23 24  2  0  0  0  0
 23 25  1  0  0  0  0
 34 37  1  0  0  0  0
  8 11  1  0  0  0  0
 43 44  1  0  0  0  0
 21 22  1  0  0  0  0
 18 21  1  0  0  0  0
 33 34  1  0  0  0  0
  7  8  1  0  0  0  0
 17 18  1  0  0  0  0
  3  4  1  0  0  0  0
  3  5  1  0  0  0  0
  3  6  1  0  0  0  0
 37 40  1  0  0  0  0
 37 41  1  0  0  0  0
 37 42  1  0  0  0  0
 11 14  1  0  0  0  0
 11 15  1  0  0  0  0
 11 16  1  0  0  0  0
 44 46  1  0  0  0  0
 44 47  1  0  0  0  0
 44 48  1  0  0  0  0
 22 30  1  0  0  0  0
 22 31  1  0  0  0  0
 21 28  1  0  0  0  0
 21 29  1  0  0  0  0
 34 39  1  0  0  0  0
  8 13  1  0  0  0  0
 18 27  1  0  0  0  0
 43 45  1  0  0  0  0
  7 12  1  0  0  0  0
 33 38  1  0  0  0  0
 17 26  1  0  0  0  0
 25 32  1  0  0  0  0
M  END
$$$$

  -OEChem-05262214473D

 48 47  0     1  0  0  0  0  0999 V2000
   -5.5827   -1.3473    1.4591 C   0  0  0  0  0  0  0  0  0  0  0  0
   -5.7053   -2.4696    0.9825 O   0  0  0  0  0  0  0  0  0  0  0  0
   -6.7879   -0.6277    1.9670 C   0  0  0  0  0  0  0  0  0  0  0  0
   -7.2718   -0.0164    1.1885 H   0  0  0  0  0  0  0  0  0  0  0  0
   -7.5699   -1.3171    2.3239 H   0  0  0  0  0  0  0  0  0  0  0  0
   -6.6057    0.0628    2.8060 H   0  0  0  0  0  0  0  0  0  0  0  0
   -4.4001   -0.6377    1.5884 N   0  0  0  0  0  0  0  0  0  0  0  0
   -3.1220   -1.1455    1.1644 C   0  0  2  0  0  0  0  0  0  0  0  0
   -2.2017    0.0428    0.9187 C   0  0  0  0  0  0  0  0  0  0  0  0
   -2.6171    1.1750    0.6807 O   0  0  0  0  0  0  0  0  0  0  0  0
   -3.2533   -1.9992   -0.0873 C   0  0  0  0  0  0  0  0  0  0  0  0
   -4.4370    0.2910    2.0047 H   0  0  0  0  0  0  0  0  0  0  0  0
   -2.7302   -1.7467    1.9921 H   0  0  0  0  0  0  0  0  0  0  0  0
   -3.6446   -1.4140   -0.9275 H   0  0  0  0  0  0  0  0  0  0  0  0
   -2.2844   -2.4081   -0.3922 H   0  0  0  0  0  0  0  0  0  0  0  0
   -3.9388   -2.8365    0.0822 H   0  0  0  0  0  0  0  0  0  0  0  0
   -0.8768   -0.3314    0.9568 N   0  0  0  0  0  0  0  0  0  0  0  0
    0.2067    0.6285    0.7375 C   0  0  2  0  0  0  0  0  0  0  0  0
   -0.4347    1.8691    0.1233 C   0  0  0  0  0  0  0  0  0  0  0  0
   -1.5852    2.2157    0.3834 O   0  0  0  0  0  0  0  0  0  0  0  0
    1.2622    0.0005   -0.1849 C   0  0  0  0  0  0  0  0  0  0  0  0
    2.0066   -1.1748    0.4486 C   0  0  0  0  0  0  0  0  0  0  0  0
    3.0159   -1.7784   -0.4959 C   0  0  0  0  0  0  0  0  0  0  0  0
    3.1277   -1.4549   -1.6715 O   0  0  0  0  0  0  0  0  0  0  0  0
    3.7738   -2.7401    0.0864 O   0  0  0  0  0  0  0  0  0  0  0  0
   -0.6087   -1.2764    1.1771 H   0  0  0  0  0  0  0  0  0  0  0  0
    0.6563    0.8699    1.7062 H   0  0  0  0  0  0  0  0  0  0  0  0
    0.7772   -0.3415   -1.1089 H   0  0  0  0  0  0  0  0  0  0  0  0
    2.0031    0.7549   -0.4806 H   0  0  0  0  0  0  0  0  0  0  0  0
    2.5628   -0.8282    1.3282 H   0  0  0  0  0  0  0  0  0  0  0  0
    1.3199   -1.9425    0.8198 H   0  0  0  0  0  0  0  0  0  0  0  0
    4.4312   -3.1719   -0.4995 H   0  0  0  0  0  0  0  0  0  0  0  0
    0.4322    2.5510   -0.7178 N   0  0  0  0  0  0  0  0  0  0  0  0
    0.0665    3.7593   -1.4214 C   0  0  2  0  0  0  0  0  0  0  0  0
   -0.4234    3.3657   -2.8087 C   0  0  0  0  0  0  0  0  0  0  0  0
   -0.1182    2.3062   -3.3522 O   0  0  0  0  0  0  0  0  0  0  0  0
    1.2392    4.7232   -1.5123 C   0  0  0  0  0  0  0  0  0  0  0  0
    1.3702    2.1831   -0.8454 H   0  0  0  0  0  0  0  0  0  0  0  0
   -0.7553    4.2161   -0.8592 H   0  0  0  0  0  0  0  0  0  0  0  0
    2.0724    4.2829   -2.0721 H   0  0  0  0  0  0  0  0  0  0  0  0
    0.9527    5.6498   -2.0204 H   0  0  0  0  0  0  0  0  0  0  0  0
    1.6093    4.9819   -0.5143 H   0  0  0  0  0  0  0  0  0  0  0  0
   -1.2063    4.3556   -3.3860 N   0  0  0  0  0  0  0  0  0  0  0  0
   -1.7799    4.2256   -4.7051 C   0  0  0  0  0  0  0  0  0  0  0  0
   -1.4236    5.1938   -2.8551 H   0  0  0  0  0  0  0  0  0  0  0  0
   -1.0972    4.6650   -5.4473 H   0  0  0  0  0  0  0  0  0  0  0  0
   -1.9344    3.1609   -4.9344 H   0  0  0  0  0  0  0  0  0  0  0  0
   -2.7453    4.7518   -4.7385 H   0  0  0  0  0  0  0  0  0  0  0  0
  1  3  1  0  0  0  0
  1  7  1  0  0  0  0
  1  2  2  0  0  0  0
 34 35  1  0  0  0  0
 35 43  1  0  0  0  0
 35 36  2  0  0  0  0
  8  9  1  0  0  0  0
  9 17  1  0  0  0  0
  9 10  2  0  0  0  0
 18 19  1  0  0  0  0
 19 33  1  0  0  0  0
 19 20  2  0  0  0  0
 22 23  1  0  0  0  0
 23 24  2  0  0  0  0
 23 25  1  0  0  0  0
 34 37  1  0  0  0  0
  8 11  1  0  0  0  0
 43 44  1  0  0  0  0
 21 22  1  0  0  0  0
 18 21  1  0  0  0  0
 33 34  1  0  0  0  0
  7  8  1  0  0  0  0
 17 18  1  0  0  0  0
  3  4  1  0  0  0  0
  3  5  1  0  0  0  0
  3  6  1  0  0  0  0
 37 40  1  0  0  0  0
 37 41  1  0  0  0  0
 37 42  1  0  0  0  0
 11 14  1  0  0  0  0
 11 15  1  0  0  0  0
 11 16  1  0  0  0  0
 44 46  1  0  0  0  0
 44 47  1  0  0  0  0
 44 48  1  0  0  0  0
 22 30  1  0  0  0  0
 22 31  1  0  0  0  0
 21 28  1  0  0  0  0
 21 29  1  0  0  0  0
 34 39  1  0  0  0  0
  8 13  1  0  0  0  0
 18 27  1  0  0  0  0
 43 45  1  0  0  0  0
  7 12  1  0  0  0  0
 33 38  1  0  0  0  0
 17 26  1  0  0  0  0
 25 32  1  0  0  0  0
M  END
$$$$

  -OEChem-05262214473D

 48 47  0     1  0  0  0  0  0999 V2000
   -5.5827   -1.3473    1.4591 C   0  0  0  0  0  0  0  0  0  0  0  0
   -5.7053   -2.4696    0.9825 O   0  0  0  0  0  0  0  0  0  0  0  0
   -6.7879   -0.6277    1.9670 C   0  0  0  0  0  0  0  0  0  0  0  0
   -7.2718   -0.0164    1.1885 H   0  0  0  0  0  0  0  0  0  0  0  0
   -7.5699   -1.3171    2.3239 H   0  0  0  0  0  0  0  0  0  0  0  0
   -6.6057    0.0628    2.8060 H   0  0  0  0  0  0  0  0  0  0  0  0
   -4.4001   -0.6377    1.5884 N   0  0  0  0  0  0  0  0  0  0  0  0
   -3.1220   -1.1455    1.1644 C   0  0  2  0  0  0  0  0  0  0  0  0
   -2.2017    0.0428    0.9187 C   0  0  0  0  0  0  0  0  0  0  0  0
   -2.6171    1.1750    0.6807 O   0  0  0  0  0  0  0  0  0  0  0  0
   -3.2533   -1.9992   -0.0873 C   0  0  0  0  0  0  0  0  0  0  0  0
   -4.4370    0.2910    2.0047 H   0  0  0  0  0  0  0  0  0  0  0  0
   -2.7302   -1.7467    1.9921 H   0  0  0  0  0  0  0  0  0  0  0  0
   -3.6446   -1.4140   -0.9275 H   0  0  0  0  0  0  0  0  0  0  0  0
   -2.2844   -2.4081   -0.3922 H   0  0  0  0  0  0  0  0  0  0  0  0
   -3.9388   -2.8365    0.0822 H   0  0  0  0  0  0  0  0  0  0  0  0
   -0.8768   -0.3314    0.9568 N   0  0  0  0  0  0  0  0  0  0  0  0
    0.2067    0.6285    0.7375 C   0  0  2  0  0  0  0  0  0  0  0  0
   -0.4347    1.8691    0.1233 C   0  0  0  0  0  0  0  0  0  0  0  0
   -1.4646    2.3703    0.5699 O   0  0  0  0  0  0  0  0  0  0  0  0
    1.2622    0.0005   -0.1849 C   0  0  0  0  0  0  0  0  0  0  0  0
    2.0066   -1.1748    0.4486 C   0  0  0  0  0  0  0  0  0  0  0  0
    3.0159   -1.7784   -0.4959 C   0  0  0  0  0  0  0  0  0  0  0  0
    3.1277   -1.4549   -1.6715 O   0  0  0  0  0  0  0  0  0  0  0  0
    3.7738   -2.7401    0.0864 O   0  0  0  0  0  0  0  0  0  0  0  0
   -0.6087   -1.2764    1.1771 H   0  0  0  0  0  0  0  0  0  0  0  0
    0.6563    0.8699    1.7062 H   0  0  0  0  0  0  0  0  0  0  0  0
    0.7772   -0.3415   -1.1089 H   0  0  0  0  0  0  0  0  0  0  0  0
    2.0031    0.7549   -0.4806 H   0  0  0  0  0  0  0  0  0  0  0  0
    2.5628   -0.8282    1.3282 H   0  0  0  0  0  0  0  0  0  0  0  0
    1.3199   -1.9425    0.8198 H   0  0  0  0  0  0  0  0  0  0  0  0
    4.4312   -3.1719   -0.4995 H   0  0  0  0  0  0  0  0  0  0  0  0
    0.2892    2.3606   -0.9530 N   0  0  0  0  0  0  0  0  0  0  0  0
   -0.1066    3.5285   -1.7066 C   0  0  2  0  0  0  0  0  0  0  0  0
   -0.9192    3.0608   -2.9068 C   0  0  0  0  0  0  0  0  0  0  0  0
   -0.8381    1.9251   -3.3702 O   0  0  0  0  0  0  0  0  0  0  0  0
    1.1028    4.3366   -2.1506 C   0  0  0  0  0  0  0  0  0  0  0  0
    1.1391    1.8758   -1.2249 H   0  0  0  0  0  0  0  0  0  0  0  0
   -0.7415    4.1302   -1.0471 H   0  0  0  0  0  0  0  0  0  0  0  0
    1.7508    3.7502   -2.8121 H   0  0  0  0  0  0  0  0  0  0  0  0
    0.8002    5.2361   -2.6967 H   0  0  0  0  0  0  0  0  0  0  0  0
    1.7022    4.6469   -1.2879 H   0  0  0  0  0  0  0  0  0  0  0  0
   -1.7133    4.0736   -3.4261 N   0  0  0  0  0  0  0  0  0  0  0  0
   -2.5681    3.8828   -4.5746 C   0  0  0  0  0  0  0  0  0  0  0  0
   -1.7322    4.9792   -2.9665 H   0  0  0  0  0  0  0  0  0  0  0  0
   -2.0243    4.1655   -5.4881 H   0  0  0  0  0  0  0  0  0  0  0  0
   -2.8664    2.8259   -4.6380 H   0  0  0  0  0  0  0  0  0  0  0  0
   -3.4649    4.5114   -4.4725 H   0  0  0  0  0  0  0  0  0  0  0  0
  1  3  1  0  0  0  0
  1  7  1  0  0  0  0
  1  2  2  0  0  0  0
 34 35  1  0  0  0  0
 35 43  1  0  0  0  0
 35 36  2  0  0  0  0
  8  9  1  0  0  0  0
  9 17  1  0  0  0  0
  9 10  2  0  0  0  0
 18 19  1  0  0  0  0
 19 33  1  0  0  0  0
 19 20  2  0  0  0  0
 22 23  1  0  0  0  0
 23 24  2  0  0  0  0
 23 25  1  0  0  0  0
 34 37  1  0  0  0  0
  8 11  1  0  0  0  0
 43 44  1  0  0  0  0
 21 22  1  0  0  0  0
 18 21  1  0  0  0  0
 33 34  1  0  0  0  0
  7  8  1  0  0  0  0
 17 18  1  0  0  0  0
  3  4  1  0  0  0  0
  3  5  1  0  0  0  0
  3  6  1  0  0  0  0
 37 40  1  0  0  0  0
 37 41  1  0  0  0  0
 37 42  1  0  0  0  0
 11 14  1  0  0  0  0
 11 15  1  0  0  0  0
 11 16  1  0  0  0  0
 44 46  1  0  0  0  0
 44 47  1  0  0  0  0
 44 48  1  0  0  0  0
 22 30  1  0  0  0  0
 22 31  1  0  0  0  0
 21 28  1  0  0  0  0
 21 29  1  0  0  0  0
 34 39  1  0  0  0  0
  8 13  1  0  0  0  0
 18 27  1  0  0  0  0
 43 45  1  0  0  0  0
  7 12  1  0  0  0  0
 33 38  1  0  0  0  0
 17 26  1  0  0  0  0
 25 32  1  0  0  0  0
M  END
$$$$

  -OEChem-05262214473D

 48 47  0     1  0  0  0  0  0999 V2000
   -5.5827   -1.3473    1.4591 C   0  0  0  0  0  0  0  0  0  0  0  0
   -5.7053   -2.4696    0.9825 O   0  0  0  0  0  0  0  0  0  0  0  0
   -6.7879   -0.6277    1.9670 C   0  0  0  0  0  0  0  0  0  0  0  0
   -7.2718   -0.0164    1.1885 H   0  0  0  0  0  0  0  0  0  0  0  0
   -7.5699   -1.3171    2.3239 H   0  0  0  0  0  0  0  0  0  0  0  0
   -6.6057    0.0628    2.8060 H   0  0  0  0  0  0  0  0  0  0  0  0
   -4.4001   -0.6377    1.5884 N   0  0  0  0  0  0  0  0  0  0  0  0
   -3.1220   -1.1455    1.1644 C   0  0  2  0  0  0  0  0  0  0  0  0
   -2.2017    0.0428    0.9187 C   0  0  0  0  0  0  0  0  0  0  0  0
   -2.6171    1.1750    0.6807 O   0  0  0  0  0  0  0  0  0  0  0  0
   -3.2533   -1.9992   -0.0873 C   0  0  0  0  0  0  0  0  0  0  0  0
   -4.4370    0.2910    2.0047 H   0  0  0  0  0  0  0  0  0  0  0  0
   -2.7302   -1.7467    1.9921 H   0  0  0  0  0  0  0  0  0  0  0  0
   -3.6446   -1.4140   -0.9275 H   0  0  0  0  0  0  0  0  0  0  0  0
   -2.2844   -2.4081   -0.3922 H   0  0  0  0  0  0  0  0  0  0  0  0
   -3.9388   -2.8365    0.0822 H   0  0  0  0  0  0  0  0  0  0  0  0
   -0.8768   -0.3314    0.9568 N   0  0  0  0  0  0  0  0  0  0  0  0
    0.2067    0.6285    0.7375 C   0  0  2  0  0  0  0  0  0  0  0  0
   -0.4347    1.8691    0.1233 C   0  0  0  0  0  0  0  0  0  0  0  0
   -1.2928    2.5275    0.7078 O   0  0  0  0  0  0  0  0  0  0  0  0
    1.2622    0.0005   -0.1849 C   0  0  0  0  0  0  0  0  0  0  0  0
    2.0066   -1.1748    0.4486 C   0  0  0  0  0  0  0  0  0  0  0  0
    3.0159   -1.7784   -0.4959 C   0  0  0  0  0  0  0  0  0  0  0  0
    3.1277   -1.4549   -1.6715 O   0  0  0  0  0  0  0  0  0  0  0  0
    3.7738   -2.7401    0.0864 O   0  0  0  0  0  0  0  0  0  0  0  0
   -0.6087   -1.2764    1.1771 H   0  0  0  0  0  0  0  0  0  0  0  0
    0.6563    0.8699    1.7062 H   0  0  0  0  0  0  0  0  0  0  0  0
    0.7772   -0.3415   -1.1089 H   0  0  0  0  0  0  0  0  0  0  0  0
    2.0031    0.7549   -0.4806 H   0  0  0  0  0  0  0  0  0  0  0  0
    2.5628   -0.8282    1.3282 H   0  0  0  0  0  0  0  0  0  0  0  0
    1.3199   -1.9425    0.8198 H   0  0  0  0  0  0  0  0  0  0  0  0
    4.4312   -3.1719   -0.4995 H   0  0  0  0  0  0  0  0  0  0  0  0
    0.0816    2.1659   -1.1294 N   0  0  0  0  0  0  0  0  0  0  0  0
   -0.3579    3.2927   -1.9206 C   0  0  2  0  0  0  0  0  0  0  0  0
   -1.4504    2.8072   -2.8641 C   0  0  0  0  0  0  0  0  0  0  0  0
   -1.5770    1.6300   -3.1946 O   0  0  0  0  0  0  0  0  0  0  0  0
    0.7964    3.9080   -2.6963 C   0  0  0  0  0  0  0  0  0  0  0  0
    0.8041    1.5618   -1.5093 H   0  0  0  0  0  0  0  0  0  0  0  0
   -0.7767    4.0254   -1.2221 H   0  0  0  0  0  0  0  0  0  0  0  0
    1.2289    3.1886   -3.4013 H   0  0  0  0  0  0  0  0  0  0  0  0
    0.4674    4.7788   -3.2729 H   0  0  0  0  0  0  0  0  0  0  0  0
    1.5942    4.2295   -2.0182 H   0  0  0  0  0  0  0  0  0  0  0  0
   -2.2409    3.8496   -3.3275 N   0  0  0  0  0  0  0  0  0  0  0  0
   -3.3376    3.6479   -4.2454 C   0  0  0  0  0  0  0  0  0  0  0  0
   -2.0760    4.7919   -2.9858 H   0  0  0  0  0  0  0  0  0  0  0  0
   -2.9804    3.7752   -5.2780 H   0  0  0  0  0  0  0  0  0  0  0  0
   -3.7391    2.6316   -4.1191 H   0  0  0  0  0  0  0  0  0  0  0  0
   -4.1291    4.3832   -4.0380 H   0  0  0  0  0  0  0  0  0  0  0  0
  1  3  1  0  0  0  0
  1  7  1  0  0  0  0
  1  2  2  0  0  0  0
 34 35  1  0  0  0  0
 35 43  1  0  0  0  0
 35 36  2  0  0  0  0
  8  9  1  0  0  0  0
  9 17  1  0  0  0  0
  9 10  2  0  0  0  0
 18 19  1  0  0  0  0
 19 33  1  0  0  0  0
 19 20  2  0  0  0  0
 22 23  1  0  0  0  0
 23 24  2  0  0  0  0
 23 25  1  0  0  0  0
 34 37  1  0  0  0  0
  8 11  1  0  0  0  0
 43 44  1  0  0  0  0
 21 22  1  0  0  0  0
 18 21  1  0  0  0  0
 33 34  1  0  0  0  0
  7  8  1  0  0  0  0
 17 18  1  0  0  0  0
  3  4  1  0  0  0  0
  3  5  1  0  0  0  0
  3  6  1  0  0  0  0
 37 40  1  0  0  0  0
 37 41  1  0  0  0  0
 37 42  1  0  0  0  0
 11 14  1  0  0  0  0
 11 15  1  0  0  0  0
 11 16  1  0  0  0  0
 44 46  1  0  0  0  0
 44 47  1  0  0  0  0
 44 48  1  0  0  0  0
 22 30  1  0  0  0  0
 22 31  1  0  0  0  0
 21 28  1  0  0  0  0
 21 29  1  0  0  0  0
 34 39  1  0  0  0  0
  8 13  1  0  0  0  0
 18 27  1  0  0  0  0
 43 45  1  0  0  0  0
  7 12  1  0  0  0  0
 33 38  1  0  0  0  0
 17 26  1  0  0  0  0
 25 32  1  0  0  0  0
M  END
$$$$

  -OEChem-05262214473D

 48 47  0     1  0  0  0  0  0999 V2000
   -5.5827   -1.3473    1.4591 C   0  0  0  0  0  0  0  0  0  0  0  0
   -5.7053   -2.4696    0.9825 O   0  0  0  0  0  0  0  0  0  0  0  0
   -6.7879   -0.6277    1.9670 C   0  0  0  0  0  0  0  0  0  0  0  0
   -7.2718   -0.0164    1.1885 H   0  0  0  0  0  0  0  0  0  0  0  0
   -7.5699   -1.3171    2.3239 H   0  0  0  0  0  0  0  0  0  0  0  0
   -6.6057    0.0628    2.8060 H   0  0  0  0  0  0  0  0  0  0  0  0
   -4.4001   -0.6377    1.5884 N   0  0  0  0  0  0  0  0  0  0  0  0
   -3.1220   -1.1455    1.1644 C   0  0  2  0  0  0  0  0  0  0  0  0
   -2.2017    0.0428    0.9187 C   0  0  0  0  0  0  0  0  0  0  0  0
   -2.6171    1.1750    0.6807 O   0  0  0  0  0  0  0  0  0  0  0  0
   -3.2533   -1.9992   -0.0873 C   0  0  0  0  0  0  0  0  0  0  0  0
   -4.4370    0.2910    2.0047 H   0  0  0  0  0  0  0  0  0  0  0  0
   -2.7302   -1.7467    1.9921 H   0  0  0  0  0  0  0  0  0  0  0  0
   -3.6446   -1.4140   -0.9275 H   0  0  0  0  0  0  0  0  0  0  0  0
   -2.2844   -2.4081   -0.3922 H   0  0  0  0  0  0  0  0  0  0  0  0
   -3.9388   -2.8365    0.0822 H   0  0  0  0  0  0  0  0  0  0  0  0
   -0.8768   -0.3314    0.9568 N   0  0  0  0  0  0  0  0  0  0  0  0
    0.2067    0.6285    0.7375 C   0  0  2  0  0  0  0  0  0  0  0  0
   -0.4347    1.8691    0.1233 C   0  0  0  0  0  0  0  0  0  0  0  0
   -1.0814    2.6764    0.7878 O   0  0  0  0  0  0  0  0  0  0  0  0
    1.2622    0.0005   -0.1849 C   0  0  0  0  0  0  0  0  0  0  0  0
    2.0066   -1.1748    0.4486 C   0  0  0  0  0  0  0  0  0  0  0  0
    3.0159   -1.7784   -0.4959 C   0  0  0  0  0  0  0  0  0  0  0  0
    3.1277   -1.4549   -1.6715 O   0  0  0  0  0  0  0  0  0  0  0  0
    3.7738   -2.7401    0.0864 O   0  0  0  0  0  0  0  0  0  0  0  0
   -0.6087   -1.2764    1.1771 H   0  0  0  0  0  0  0  0  0  0  0  0
    0.6563    0.8699    1.7062 H   0  0  0  0  0  0  0  0  0  0  0  0
    0.7772   -0.3415   -1.1089 H   0  0  0  0  0  0  0  0  0  0  0  0
    2.0031    0.7549   -0.4806 H   0  0  0  0  0  0  0  0  0  0  0  0
    2.5628   -0.8282    1.3282 H   0  0  0  0  0  0  0  0  0  0  0  0
    1.3199   -1.9425    0.8198 H   0  0  0  0  0  0  0  0  0  0  0  0
    4.4312   -3.1719   -0.4995 H   0  0  0  0  0  0  0  0  0  0  0  0
   -0.1762    1.9804   -1.2349 N   0  0  0  0  0  0  0  0  0  0  0  0
   -0.6702    3.0678   -2.0487 C   0  0  2  0  0  0  0  0  0  0  0  0
   -1.9810    2.6224   -2.6834 C   0  0  0  0  0  0  0  0  0  0  0  0
   -2.2845    1.4411   -2.8374 O   0  0  0  0  0  0  0  0  0  0  0  0
    0.3409    3.4665   -3.1124 C   0  0  0  0  0  0  0  0  0  0  0  0
    0.3879    1.2624   -1.6794 H   0  0  0  0  0  0  0  0  0  0  0  0
   -0.8584    3.9087   -1.3724 H   0  0  0  0  0  0  0  0  0  0  0  0
    0.5422    2.6365   -3.7995 H   0  0  0  0  0  0  0  0  0  0  0  0
   -0.0229    4.3091   -3.7096 H   0  0  0  0  0  0  0  0  0  0  0  0
    1.2927    3.7581   -2.6555 H   0  0  0  0  0  0  0  0  0  0  0  0
   -2.7530    3.6990   -3.0969 N   0  0  0  0  0  0  0  0  0  0  0  0
   -4.0361    3.5371   -3.7398 C   0  0  0  0  0  0  0  0  0  0  0  0
   -2.4317    4.6447   -2.9117 H   0  0  0  0  0  0  0  0  0  0  0  0
   -3.9005    3.5207   -4.8313 H   0  0  0  0  0  0  0  0  0  0  0  0
   -4.4931    2.5914   -3.4131 H   0  0  0  0  0  0  0  0  0  0  0  0
   -4.6925    4.3758   -3.4646 H   0  0  0  0  0  0  0  0  0  0  0  0
  1  3  1  0  0  0  0
  1  7  1  0  0  0  0
  1  2  2  0  0  0  0
 34 35  1  0  0  0  0
 35 43  1  0  0  0  0
 35 36  2  0  0  0  0
  8  9  1  0  0  0  0
  9 17  1  0  0  0  0
  9 10  2  0  0  0  0
 18 19  1  0  0  0  0
 19 33  1  0  0  0  0
 19 20  2  0  0  0  0
 22 23  1  0  0  0  0
 23 24  2  0  0  0  0
 23 25  1  0  0  0  0
 34 37  1  0  0  0  0
  8 11  1  0  0  0  0
 43 44  1  0  0  0  0
 21 22  1  0  0  0  0
 18 21  1  0  0  0  0
 33 34  1  0  0  0  0
  7  8  1  0  0  0  0
 17 18  1  0  0  0  0
  3  4  1  0  0  0  0
  3  5  1  0  0  0  0
  3  6  1  0  0  0  0
 37 40  1  0  0  0  0
 37 41  1  0  0  0  0
 37 42  1  0  0  0  0
 11 14  1  0  0  0  0
 11 15  1  0  0  0  0
 11 16  1  0  0  0  0
 44 46  1  0  0  0  0
 44 47  1  0  0  0  0
 44 48  1  0  0  0  0
 22 30  1  0  0  0  0
 22 31  1  0  0  0  0
 21 28  1  0  0  0  0
 21 29  1  0  0  0  0
 34 39  1  0  0  0  0
  8 13  1  0  0  0  0
 18 27  1  0  0  0  0
 43 45  1  0  0  0  0
  7 12  1  0  0  0  0
 33 38  1  0  0  0  0
 17 26  1  0  0  0  0
 25 32  1  0  0  0  0
M  END
$$$$

  -OEChem-05262214473D

 48 47  0     1  0  0  0  0  0999 V2000
   -5.5827   -1.3473    1.4591 C   0  0  0  0  0  0  0  0  0  0  0  0
   -5.7053   -2.4696    0.9825 O   0  0  0  0  0  0  0  0  0  0  0  0
   -6.7879   -0.6277    1.9670 C   0  0  0  0  0  0  0  0  0  0  0  0
   -7.2718   -0.0164    1.1885 H   0  0  0  0  0  0  0  0  0  0  0  0
   -7.5699   -1.3171    2.3239 H   0  0  0  0  0  0  0  0  0  0  0  0
   -6.6057    0.0628    2.8060 H   0  0  0  0  0  0  0  0  0  0  0  0
   -4.4001   -0.6377    1.5884 N   0  0  0  0  0  0  0  0  0  0  0  0
   -3.1220   -1.1455    1.1644 C   0  0  2  0  0  0  0  0  0  0  0  0
   -2.2017    0.0428    0.9187 C   0  0  0  0  0  0  0  0  0  0  0  0
   -2.6171    1.1750    0.6807 O   0  0  0  0  0  0  0  0  0  0  0  0
   -3.2533   -1.9992   -0.0873 C   0  0  0  0  0  0  0  0  0  0  0  0
   -4.4370    0.2910    2.0047 H   0  0  0  0  0  0  0  0  0  0  0  0
   -2.7302   -1.7467    1.9921 H   0  0  0  0  0  0  0  0  0  0  0  0
   -3.6446   -1.4140   -0.9275 H   0  0  0  0  0  0  0  0  0  0  0  0
   -2.2844   -2.4081   -0.3922 H   0  0  0  0  0  0  0  0  0  0  0  0
   -3.9388   -2.8365    0.0822 H   0  0  0  0  0  0  0  0  0  0  0  0
   -0.8768   -0.3314    0.9568 N   0  0  0  0  0  0  0  0  0  0  0  0
    0.2067    0.6285    0.7375 C   0  0  2  0  0  0  0  0  0  0  0  0
   -0.4347    1.8691    0.1233 C   0  0  0  0  0  0  0  0  0  0  0  0
   -0.8449    2.8069    0.8043 O   0  0  0  0  0  0  0  0  0  0  0  0
    1.2622    0.0005   -0.1849 C   0  0  0  0  0  0  0  0  0  0  0  0
    2.0066   -1.1748    0.4486 C   0  0  0  0  0  0  0  0  0  0  0  0
    3.0159   -1.7784   -0.4959 C   0  0  0  0  0  0  0  0  0  0  0  0
    3.1277   -1.4549   -1.6715 O   0  0  0  0  0  0  0  0  0  0  0  0
    3.7738   -2.7401    0.0864 O   0  0  0  0  0  0  0  0  0  0  0  0
   -0.6087   -1.2764    1.1771 H   0  0  0  0  0  0  0  0  0  0  0  0
    0.6563    0.8699    1.7062 H   0  0  0  0  0  0  0  0  0  0  0  0
    0.7772   -0.3415   -1.1089 H   0  0  0  0  0  0  0  0  0  0  0  0
    2.0031    0.7549   -0.4806 H   0  0  0  0  0  0  0  0  0  0  0  0
    2.5628   -0.8282    1.3282 H   0  0  0  0  0  0  0  0  0  0  0  0
    1.3199   -1.9425    0.8198 H   0  0  0  0  0  0  0  0  0  0  0  0
    4.4312   -3.1719   -0.4995 H   0  0  0  0  0  0  0  0  0  0  0  0
   -0.4669    1.8165   -1.2624 N   0  0  0  0  0  0  0  0  0  0  0  0
   -1.0223    2.8691   -2.0823 C   0  0  2  0  0  0  0  0  0  0  0  0
   -2.4748    2.5187   -2.3771 C   0  0  0  0  0  0  0  0  0  0  0  0
   -2.9123    1.3713   -2.3229 O   0  0  0  0  0  0  0  0  0  0  0  0
   -0.2326    3.0422   -3.3704 C   0  0  0  0  0  0  0  0  0  0  0  0
   -0.0811    0.9980   -1.7236 H   0  0  0  0  0  0  0  0  0  0  0  0
   -0.9812    3.7882   -1.4876 H   0  0  0  0  0  0  0  0  0  0  0  0
   -0.2623    2.1314   -3.9795 H   0  0  0  0  0  0  0  0  0  0  0  0
   -0.6374    3.8589   -3.9772 H   0  0  0  0  0  0  0  0  0  0  0  0
    0.8183    3.2648   -3.1564 H   0  0  0  0  0  0  0  0  0  0  0  0
   -3.2149    3.6320   -2.7499 N   0  0  0  0  0  0  0  0  0  0  0  0
   -4.6160    3.5578   -3.0925 C   0  0  0  0  0  0  0  0  0  0  0  0
   -2.7750    4.5476   -2.7492 H   0  0  0  0  0  0  0  0  0  0  0  0
   -4.7217    3.4193   -4.1786 H   0  0  0  0  0  0  0  0  0  0  0  0
   -5.0770    2.7079   -2.5680 H   0  0  0  0  0  0  0  0  0  0  0  0
   -5.1168    4.4898   -2.7914 H   0  0  0  0  0  0  0  0  0  0  0  0
  1  3  1  0  0  0  0
  1  7  1  0  0  0  0
  1  2  2  0  0  0  0
 34 35  1  0  0  0  0
 35 43  1  0  0  0  0
 35 36  2  0  0  0  0
  8  9  1  0  0  0  0
  9 17  1  0  0  0  0
  9 10  2  0  0  0  0
 18 19  1  0  0  0  0
 19 33  1  0  0  0  0
 19 20  2  0  0  0  0
 22 23  1  0  0  0  0
 23 24  2  0  0  0  0
 23 25  1  0  0  0  0
 34 37  1  0  0  0  0
  8 11  1  0  0  0  0
 43 44  1  0  0  0  0
 21 22  1  0  0  0  0
 18 21  1  0  0  0  0
 33 34  1  0  0  0  0
  7  8  1  0  0  0  0
 17 18  1  0  0  0  0
  3  4  1  0  0  0  0
  3  5  1  0  0  0  0
  3  6  1  0  0  0  0
 37 40  1  0  0  0  0
 37 41  1  0  0  0  0
 37 42  1  0  0  0  0
 11 14  1  0  0  0  0
 11 15  1  0  0  0  0
 11 16  1  0  0  0  0
 44 46  1  0  0  0  0
 44 47  1  0  0  0  0
 44 48  1  0  0  0  0
 22 30  1  0  0  0  0
 22 31  1  0  0  0  0
 21 28  1  0  0  0  0
 21 29  1  0  0  0  0
 34 39  1  0  0  0  0
  8 13  1  0  0  0  0
 18 27  1  0  0  0  0
 43 45  1  0  0  0  0
  7 12  1  0  0  0  0
 33 38  1  0  0  0  0
 17 26  1  0  0  0  0
 25 32  1  0  0  0  0
M  END
$$$$

  -OEChem-05262214473D

 48 47  0     1  0  0  0  0  0999 V2000
   -5.5827   -1.3473    1.4591 C   0  0  0  0  0  0  0  0  0  0  0  0
   -5.7053   -2.4696    0.9825 O   0  0  0  0  0  0  0  0  0  0  0  0
   -6.7879   -0.6277    1.9670 C   0  0  0  0  0  0  0  0  0  0  0  0
   -7.2718   -0.0164    1.1885 H   0  0  0  0  0  0  0  0  0  0  0  0
   -7.5699   -1.3171    2.3239 H   0  0  0  0  0  0  0  0  0  0  0  0
   -6.6057    0.0628    2.8060 H   0  0  0  0  0  0  0  0  0  0  0  0
   -4.4001   -0.6377    1.5884 N   0  0  0  0  0  0  0  0  0  0  0  0
   -3.1220   -1.1455    1.1644 C   0  0  2  0  0  0  0  0  0  0  0  0
   -2.2017    0.0428    0.9187 C   0  0  0  0  0  0  0  0  0  0  0  0
   -2.6171    1.1750    0.6807 O   0  0  0  0  0  0  0  0  0  0  0  0
   -3.2533   -1.9992   -0.0873 C   0  0  0  0  0  0  0  0  0  0  0  0
   -4.4370    0.2910    2.0047 H   0  0  0  0  0  0  0  0  0  0  0  0
   -2.7302   -1.7467    1.9921 H   0  0  0  0  0  0  0  0  0  0  0  0
   -3.6446   -1.4140   -0.9275 H   0  0  0  0  0  0  0  0  0  0  0  0
   -2.2844   -2.4081   -0.3922 H   0  0  0  0  0  0  0  0  0  0  0  0
   -3.9388   -2.8365    0.0822 H   0  0  0  0  0  0  0  0  0  0  0  0
   -0.8768   -0.3314    0.9568 N   0  0  0  0  0  0  0  0  0  0  0  0
    0.2067    0.6285    0.7375 C   0  0  2  0  0  0  0  0  0  0  0  0
   -0.4347    1.8691    0.1233 C   0  0  0  0  0  0  0  0  0  0  0  0
   -0.5993    2.9101    0.7563 O   0  0  0  0  0  0  0  0  0  0  0  0
    1.2622    0.0005   -0.1849 C   0  0  0  0  0  0  0  0  0  0  0  0
    2.0066   -1.1748    0.4486 C   0  0  0  0  0  0  0  0  0  0  0  0
    3.0159   -1.7784   -0.4959 C   0  0  0  0  0  0  0  0  0  0  0  0
    3.1277   -1.4549   -1.6715 O   0  0  0  0  0  0  0  0  0  0  0  0
    3.7738   -2.7401    0.0864 O   0  0  0  0  0  0  0  0  0  0  0  0
   -0.6087   -1.2764    1.1771 H   0  0  0  0  0  0  0  0  0  0  0  0
    0.6563    0.8699    1.7062 H   0  0  0  0  0  0  0  0  0  0  0  0
    0.7772   -0.3415   -1.1089 H   0  0  0  0  0  0  0  0  0  0  0  0
    2.0031    0.7549   -0.4806 H   0  0  0  0  0  0  0  0  0  0  0  0
    2.5628   -0.8282    1.3282 H   0  0  0  0  0  0  0  0  0  0  0  0
    1.3199   -1.9425    0.8198 H   0  0  0  0  0  0  0  0  0  0  0  0
    4.4312   -3.1719   -0.4995 H   0  0  0  0  0  0  0  0  0  0  0  0
   -0.7704    1.6855   -1.2100 N   0  0  0  0  0  0  0  0  0  0  0  0
   -1.3901    2.7103   -2.0190 C   0  0  2  0  0  0  0  0  0  0  0  0
   -2.8981    2.5034   -1.9661 C   0  0  0  0  0  0  0  0  0  0  0  0
   -3.4178    1.4252   -1.6862 O   0  0  0  0  0  0  0  0  0  0  0  0
   -0.8851    2.6641   -3.4527 C   0  0  0  0  0  0  0  0  0  0  0  0
   -0.5710    0.7868   -1.6387 H   0  0  0  0  0  0  0  0  0  0  0  0
   -1.1365    3.6721   -1.5600 H   0  0  0  0  0  0  0  0  0  0  0  0
   -1.1300    1.7078   -3.9291 H   0  0  0  0  0  0  0  0  0  0  0  0
   -1.3341    3.4590   -4.0573 H   0  0  0  0  0  0  0  0  0  0  0  0
    0.2032    2.7833   -3.4866 H   0  0  0  0  0  0  0  0  0  0  0  0
   -3.5950    3.6532   -2.3103 N   0  0  0  0  0  0  0  0  0  0  0  0
   -5.0377    3.7087   -2.3474 C   0  0  0  0  0  0  0  0  0  0  0  0
   -3.0825    4.5073   -2.5095 H   0  0  0  0  0  0  0  0  0  0  0  0
   -5.3881    3.4780   -3.3643 H   0  0  0  0  0  0  0  0  0  0  0  0
   -5.4511    2.9732   -1.6416 H   0  0  0  0  0  0  0  0  0  0  0  0
   -5.3731    4.7173   -2.0642 H   0  0  0  0  0  0  0  0  0  0  0  0
  1  3  1  0  0  0  0
  1  7  1  0  0  0  0
  1  2  2  0  0  0  0
 34 35  1  0  0  0  0
 35 43  1  0  0  0  0
 35 36  2  0  0  0  0
  8  9  1  0  0  0  0
  9 17  1  0  0  0  0
  9 10  2  0  0  0  0
 18 19  1  0  0  0  0
 19 33  1  0  0  0  0
 19 20  2  0  0  0  0
 22 23  1  0  0  0  0
 23 24  2  0  0  0  0
 23 25  1  0  0  0  0
 34 37  1  0  0  0  0
  8 11  1  0  0  0  0
 43 44  1  0  0  0  0
 21 22  1  0  0  0  0
 18 21  1  0  0  0  0
 33 34  1  0  0  0  0
  7  8  1  0  0  0  0
 17 18  1  0  0  0  0
  3  4  1  0  0  0  0
  3  5  1  0  0  0  0
  3  6  1  0  0  0  0
 37 40  1  0  0  0  0
 37 41  1  0  0  0  0
 37 42  1  0  0  0  0
 11 14  1  0  0  0  0
 11 15  1  0  0  0  0
 11 16  1  0  0  0  0
 44 46  1  0  0  0  0
 44 47  1  0  0  0  0
 44 48  1  0  0  0  0
 22 30  1  0  0  0  0
 22 31  1  0  0  0  0
 21 28  1  0  0  0  0
 21 29  1  0  0  0  0
 34 39  1  0  0  0  0
  8 13  1  0  0  0  0
 18 27  1  0  0  0  0
 43 45  1  0  0  0  0
  7 12  1  0  0  0  0
 33 38  1  0  0  0  0
 17 26  1  0  0  0  0
 25 32  1  0  0  0  0
M  END
$$$$

  -OEChem-05262214473D

 48 47  0     1  0  0  0  0  0999 V2000
   -5.5827   -1.3473    1.4591 C   0  0  0  0  0  0  0  0  0  0  0  0
   -5.7053   -2.4696    0.9825 O   0  0  0  0  0  0  0  0  0  0  0  0
   -6.7879   -0.6277    1.9670 C   0  0  0  0  0  0  0  0  0  0  0  0
   -7.2718   -0.0164    1.1885 H   0  0  0  0  0  0  0  0  0  0  0  0
   -7.5699   -1.3171    2.3239 H   0  0  0  0  0  0  0  0  0  0  0  0
   -6.6057    0.0628    2.8060 H   0  0  0  0  0  0  0  0  0  0  0  0
   -4.4001   -0.6377    1.5884 N   0  0  0  0  0  0  0  0  0  0  0  0
   -3.1220   -1.1455    1.1644 C   0  0  2  0  0  0  0  0  0  0  0  0
   -2.2017    0.0428    0.9187 C   0  0  0  0  0  0  0  0  0  0  0  0
   -2.6171    1.1750    0.6807 O   0  0  0  0  0  0  0  0  0  0  0  0
   -3.2533   -1.9992   -0.0873 C   0  0  0  0  0  0  0  0  0  0  0  0
   -4.4370    0.2910    2.0047 H   0  0  0  0  0  0  0  0  0  0  0  0
   -2.7302   -1.7467    1.9921 H   0  0  0  0  0  0  0  0  0  0  0  0
   -3.6446   -1.4140   -0.9275 H   0  0  0  0  0  0  0  0  0  0  0  0
   -2.2844   -2.4081   -0.3922 H   0  0  0  0  0  0  0  0  0  0  0  0
   -3.9388   -2.8365    0.0822 H   0  0  0  0  0  0  0  0  0  0  0  0
   -0.8768   -0.3314    0.9568 N   0  0  0  0  0  0  0  0  0  0  0  0
    0.2067    0.6285    0.7375 C   0  0  2  0  0  0  0  0  0  0  0  0
   -0.4347    1.8691    0.1233 C   0  0  0  0  0  0  0  0  0  0  0  0
   -0.3615    2.9789    0.6471 O   0  0  0  0  0  0  0  0  0  0  0  0
    1.2622    0.0005   -0.1849 C   0  0  0  0  0  0  0  0  0  0  0  0
    2.0066   -1.1748    0.4486 C   0  0  0  0  0  0  0  0  0  0  0  0
    3.0159   -1.7784   -0.4959 C   0  0  0  0  0  0  0  0  0  0  0  0
    3.1277   -1.4549   -1.6715 O   0  0  0  0  0  0  0  0  0  0  0  0
    3.7738   -2.7401    0.0864 O   0  0  0  0  0  0  0  0  0  0  0  0
   -0.6087   -1.2764    1.1771 H   0  0  0  0  0  0  0  0  0  0  0  0
    0.6563    0.8699    1.7062 H   0  0  0  0  0  0  0  0  0  0  0  0
    0.7772   -0.3415   -1.1089 H   0  0  0  0  0  0  0  0  0  0  0  0
    2.0031    0.7549   -0.4806 H   0  0  0  0  0  0  0  0  0  0  0  0
    2.5628   -0.8282    1.3282 H   0  0  0  0  0  0  0  0  0  0  0  0
    1.3199   -1.9425    0.8198 H   0  0  0  0  0  0  0  0  0  0  0  0
    4.4312   -3.1719   -0.4995 H   0  0  0  0  0  0  0  0  0  0  0  0
   -1.0663    1.5964   -1.0812 N   0  0  0  0  0  0  0  0  0  0  0  0
   -1.7487    2.6021   -1.8632 C   0  0  2  0  0  0  0  0  0  0  0  0
   -3.2220    2.5775   -1.4783 C   0  0  0  0  0  0  0  0  0  0  0  0
   -3.7665    1.5992   -0.9707 O   0  0  0  0  0  0  0  0  0  0  0  0
   -1.5721    2.3579   -3.3538 C   0  0  0  0  0  0  0  0  0  0  0  0
   -1.0483    0.6430   -1.4307 H   0  0  0  0  0  0  0  0  0  0  0  0
   -1.3139    3.5682   -1.5846 H   0  0  0  0  0  0  0  0  0  0  0  0
   -2.0016    1.3945   -3.6518 H   0  0  0  0  0  0  0  0  0  0  0  0
   -2.0657    3.1366   -3.9446 H   0  0  0  0  0  0  0  0  0  0  0  0
   -0.5106    2.3463   -3.6238 H   0  0  0  0  0  0  0  0  0  0  0  0
   -3.8674    3.7611   -1.8080 N   0  0  0  0  0  0  0  0  0  0  0  0
   -5.2725    3.9795   -1.5553 C   0  0  0  0  0  0  0  0  0  0  0  0
   -3.3334    4.5265   -2.2088 H   0  0  0  0  0  0  0  0  0  0  0  0
   -5.8543    3.6927   -2.4438 H   0  0  0  0  0  0  0  0  0  0  0  0
   -5.5898    3.3692   -0.6969 H   0  0  0  0  0  0  0  0  0  0  0  0
   -5.4439    5.0430   -1.3325 H   0  0  0  0  0  0  0  0  0  0  0  0
  1  3  1  0  0  0  0
  1  7  1  0  0  0  0
  1  2  2  0  0  0  0
 34 35  1  0  0  0  0
 35 43  1  0  0  0  0
 35 36  2  0  0  0  0
  8  9  1  0  0  0  0
  9 17  1  0  0  0  0
  9 10  2  0  0  0  0
 18 19  1  0  0  0  0
 19 33  1  0  0  0  0
 19 20  2  0  0  0  0
 22 23  1  0  0  0  0
 23 24  2  0  0  0  0
 23 25  1  0  0  0  0
 34 37  1  0  0  0  0
  8 11  1  0  0  0  0
 43 44  1  0  0  0  0
 21 22  1  0  0  0  0
 18 21  1  0  0  0  0
 33 34  1  0  0  0  0
  7  8  1  0  0  0  0
 17 18  1  0  0  0  0
  3  4  1  0  0  0  0
  3  5  1  0  0  0  0
  3  6  1  0  0  0  0
 37 40  1  0  0  0  0
 37 41  1  0  0  0  0
 37 42  1  0  0  0  0
 11 14  1  0  0  0  0
 11 15  1  0  0  0  0
 11 16  1  0  0  0  0
 44 46  1  0  0  0  0
 44 47  1  0  0  0  0
 44 48  1  0  0  0  0
 22 30  1  0  0  0  0
 22 31  1  0  0  0  0
 21 28  1  0  0  0  0
 21 29  1  0  0  0  0
 34 39  1  0  0  0  0
  8 13  1  0  0  0  0
 18 27  1  0  0  0  0
 43 45  1  0  0  0  0
  7 12  1  0  0  0  0
 33 38  1  0  0  0  0
 17 26  1  0  0  0  0
 25 32  1  0  0  0  0
M  END
$$$$

  -OEChem-05262214473D

 48 47  0     1  0  0  0  0  0999 V2000
   -5.5827   -1.3473    1.4591 C   0  0  0  0  0  0  0  0  0  0  0  0
   -5.7053   -2.4696    0.9825 O   0  0  0  0  0  0  0  0  0  0  0  0
   -6.7879   -0.6277    1.9670 C   0  0  0  0  0  0  0  0  0  0  0  0
   -7.2718   -0.0164    1.1885 H   0  0  0  0  0  0  0  0  0  0  0  0
   -7.5699   -1.3171    2.3239 H   0  0  0  0  0  0  0  0  0  0  0  0
   -6.6057    0.0628    2.8060 H   0  0  0  0  0  0  0  0  0  0  0  0
   -4.4001   -0.6377    1.5884 N   0  0  0  0  0  0  0  0  0  0  0  0
   -3.1220   -1.1455    1.1644 C   0  0  2  0  0  0  0  0  0  0  0  0
   -2.2017    0.0428    0.9187 C   0  0  0  0  0  0  0  0  0  0  0  0
   -2.6171    1.1750    0.6807 O   0  0  0  0  0  0  0  0  0  0  0  0
   -3.2533   -1.9992   -0.0873 C   0  0  0  0  0  0  0  0  0  0  0  0
   -4.4370    0.2910    2.0047 H   0  0  0  0  0  0  0  0  0  0  0  0
   -2.7302   -1.7467    1.9921 H   0  0  0  0  0  0  0  0  0  0  0  0
   -3.6446   -1.4140   -0.9275 H   0  0  0  0  0  0  0  0  0  0  0  0
   -2.2844   -2.4081   -0.3922 H   0  0  0  0  0  0  0  0  0  0  0  0
   -3.9388   -2.8365    0.0822 H   0  0  0  0  0  0  0  0  0  0  0  0
   -0.8768   -0.3314    0.9568 N   0  0  0  0  0  0  0  0  0  0  0  0
    0.2067    0.6285    0.7375 C   0  0  2  0  0  0  0  0  0  0  0  0
   -0.4347    1.8691    0.1233 C   0  0  0  0  0  0  0  0  0  0  0  0
   -0.1475    3.0088    0.4840 O   0  0  0  0  0  0  0  0  0  0  0  0
    1.2622    0.0005   -0.1849 C   0  0  0  0  0  0  0  0  0  0  0  0
    2.0066   -1.1748    0.4486 C   0  0  0  0  0  0  0  0  0  0  0  0
    3.0159   -1.7784   -0.4959 C   0  0  0  0  0  0  0  0  0  0  0  0
    3.1277   -1.4549   -1.6715 O   0  0  0  0  0  0  0  0  0  0  0  0
    3.7738   -2.7401    0.0864 O   0  0  0  0  0  0  0  0  0  0  0  0
   -0.6087   -1.2764    1.1771 H   0  0  0  0  0  0  0  0  0  0  0  0
    0.6563    0.8699    1.7062 H   0  0  0  0  0  0  0  0  0  0  0  0
    0.7772   -0.3415   -1.1089 H   0  0  0  0  0  0  0  0  0  0  0  0
    2.0031    0.7549   -0.4806 H   0  0  0  0  0  0  0  0  0  0  0  0
    2.5628   -0.8282    1.3282 H   0  0  0  0  0  0  0  0  0  0  0  0
    1.3199   -1.9425    0.8198 H   0  0  0  0  0  0  0  0  0  0  0  0
    4.4312   -3.1719   -0.4995 H   0  0  0  0  0  0  0  0  0  0  0  0
   -1.3342    1.5551   -0.8848 N   0  0  0  0  0  0  0  0  0  0  0  0
   -2.0735    2.5518   -1.6254 C   0  0  2  0  0  0  0  0  0  0  0  0
   -3.4246    2.7358   -0.9470 C   0  0  0  0  0  0  0  0  0  0  0  0
   -3.9345    1.8815   -0.2251 O   0  0  0  0  0  0  0  0  0  0  0  0
   -2.2468    2.1445   -3.0804 C   0  0  0  0  0  0  0  0  0  0  0  0
   -1.4805    0.5765   -1.1136 H   0  0  0  0  0  0  0  0  0  0  0  0
   -1.5013    3.4837   -1.5597 H   0  0  0  0  0  0  0  0  0  0  0  0
   -2.8178    1.2129   -3.1663 H   0  0  0  0  0  0  0  0  0  0  0  0
   -2.7822    2.9137   -3.6467 H   0  0  0  0  0  0  0  0  0  0  0  0
   -1.2745    1.9837   -3.5585 H   0  0  0  0  0  0  0  0  0  0  0  0
   -4.0136    3.9483   -1.2772 N   0  0  0  0  0  0  0  0  0  0  0  0
   -5.3045    4.3516   -0.7703 C   0  0  0  0  0  0  0  0  0  0  0  0
   -3.5103    4.6039   -1.8677 H   0  0  0  0  0  0  0  0  0  0  0  0
   -6.0885    4.0488   -1.4799 H   0  0  0  0  0  0  0  0  0  0  0  0
   -5.4836    3.8690    0.2018 H   0  0  0  0  0  0  0  0  0  0  0  0
   -5.3245    5.4445   -0.6464 H   0  0  0  0  0  0  0  0  0  0  0  0
  1  3  1  0  0  0  0
  1  7  1  0  0  0  0
  1  2  2  0  0  0  0
 34 35  1  0  0  0  0
 35 43  1  0  0  0  0
 35 36  2  0  0  0  0
  8  9  1  0  0  0  0
  9 17  1  0  0  0  0
  9 10  2  0  0  0  0
 18 19  1  0  0  0  0
 19 33  1  0  0  0  0
 19 20  2  0  0  0  0
 22 23  1  0  0  0  0
 23 24  2  0  0  0  0
 23 25  1  0  0  0  0
 34 37  1  0  0  0  0
  8 11  1  0  0  0  0
 43 44  1  0  0  0  0
 21 22  1  0  0  0  0
 18 21  1  0  0  0  0
 33 34  1  0  0  0  0
  7  8  1  0  0  0  0
 17 18  1  0  0  0  0
  3  4  1  0  0  0  0
  3  5  1  0  0  0  0
  3  6  1  0  0  0  0
 37 40  1  0  0  0  0
 37 41  1  0  0  0  0
 37 42  1  0  0  0  0
 11 14  1  0  0  0  0
 11 15  1  0  0  0  0
 11 16  1  0  0  0  0
 44 46  1  0  0  0  0
 44 47  1  0  0  0  0
 44 48  1  0  0  0  0
 22 30  1  0  0  0  0
 22 31  1  0  0  0  0
 21 28  1  0  0  0  0
 21 29  1  0  0  0  0
 34 39  1  0  0  0  0
  8 13  1  0  0  0  0
 18 27  1  0  0  0  0
 43 45  1  0  0  0  0
  7 12  1  0  0  0  0
 33 38  1  0  0  0  0
 17 26  1  0  0  0  0
 25 32  1  0  0  0  0
M  END
$$$$

  -OEChem-05262214473D

 48 47  0     1  0  0  0  0  0999 V2000
   -5.5827   -1.3473    1.4591 C   0  0  0  0  0  0  0  0  0  0  0  0
   -5.7053   -2.4696    0.9825 O   0  0  0  0  0  0  0  0  0  0  0  0
   -6.7879   -0.6277    1.9670 C   0  0  0  0  0  0  0  0  0  0  0  0
   -7.2718   -0.0164    1.1885 H   0  0  0  0  0  0  0  0  0  0  0  0
   -7.5699   -1.3171    2.3239 H   0  0  0  0  0  0  0  0  0  0  0  0
   -6.6057    0.0628    2.8060 H   0  0  0  0  0  0  0  0  0  0  0  0
   -4.4001   -0.6377    1.5884 N   0  0  0  0  0  0  0  0  0  0  0  0
   -3.1220   -1.1455    1.1644 C   0  0  2  0  0  0  0  0  0  0  0  0
   -2.2017    0.0428    0.9187 C   0  0  0  0  0  0  0  0  0  0  0  0
   -2.6171    1.1750    0.6807 O   0  0  0  0  0  0  0  0  0  0  0  0
   -3.2533   -1.9992   -0.0873 C   0  0  0  0  0  0  0  0  0  0  0  0
   -4.4370    0.2910    2.0047 H   0  0  0  0  0  0  0  0  0  0  0  0
   -2.7302   -1.7467    1.9921 H   0  0  0  0  0  0  0  0  0  0  0  0
   -3.6446   -1.4140   -0.9275 H   0  0  0  0  0  0  0  0  0  0  0  0
   -2.2844   -2.4081   -0.3922 H   0  0  0  0  0  0  0  0  0  0  0  0
   -3.9388   -2.8365    0.0822 H   0  0  0  0  0  0  0  0  0  0  0  0
   -0.8768   -0.3314    0.9568 N   0  0  0  0  0  0  0  0  0  0  0  0
    0.2067    0.6285    0.7375 C   0  0  2  0  0  0  0  0  0  0  0  0
   -0.4347    1.8691    0.1233 C   0  0  0  0  0  0  0  0  0  0  0  0
    0.0279    2.9976    0.2782 O   0  0  0  0  0  0  0  0  0  0  0  0
    1.2622    0.0005   -0.1849 C   0  0  0  0  0  0  0  0  0  0  0  0
    2.0066   -1.1748    0.4486 C   0  0  0  0  0  0  0  0  0  0  0  0
    3.0159   -1.7784   -0.4959 C   0  0  0  0  0  0  0  0  0  0  0  0
    3.1277   -1.4549   -1.6715 O   0  0  0  0  0  0  0  0  0  0  0  0
    3.7738   -2.7401    0.0864 O   0  0  0  0  0  0  0  0  0  0  0  0
   -0.6087   -1.2764    1.1771 H   0  0  0  0  0  0  0  0  0  0  0  0
    0.6563    0.8699    1.7062 H   0  0  0  0  0  0  0  0  0  0  0  0
    0.7772   -0.3415   -1.1089 H   0  0  0  0  0  0  0  0  0  0  0  0
    2.0031    0.7549   -0.4806 H   0  0  0  0  0  0  0  0  0  0  0  0
    2.5628   -0.8282    1.3282 H   0  0  0  0  0  0  0  0  0  0  0  0
    1.3199   -1.9425    0.8198 H   0  0  0  0  0  0  0  0  0  0  0  0
    4.4312   -3.1719   -0.4995 H   0  0  0  0  0  0  0  0  0  0  0  0
   -1.5560    1.5645   -0.6342 N   0  0  0  0  0  0  0  0  0  0  0  0
   -2.3424    2.5631   -1.3220 C   0  0  2  0  0  0  0  0  0  0  0  0
   -3.4919    2.9676   -0.4085 C   0  0  0  0  0  0  0  0  0  0  0  0
   -3.9105    2.2528    0.4997 O   0  0  0  0  0  0  0  0  0  0  0  0
   -2.8632    2.0384   -2.6510 C   0  0  0  0  0  0  0  0  0  0  0  0
   -1.8383    0.5918   -0.7092 H   0  0  0  0  0  0  0  0  0  0  0  0
   -1.6858    3.4242   -1.4870 H   0  0  0  0  0  0  0  0  0  0  0  0
   -3.5230    1.1753   -2.5059 H   0  0  0  0  0  0  0  0  0  0  0  0
   -3.4348    2.8055   -3.1839 H   0  0  0  0  0  0  0  0  0  0  0  0
   -2.0364    1.7202   -3.2952 H   0  0  0  0  0  0  0  0  0  0  0  0
   -4.0235    4.2022   -0.7541 N   0  0  0  0  0  0  0  0  0  0  0  0
   -5.1313    4.7999   -0.0458 C   0  0  0  0  0  0  0  0  0  0  0  0
   -3.6014    4.7342   -1.5094 H   0  0  0  0  0  0  0  0  0  0  0  0
   -6.0748    4.5221   -0.5384 H   0  0  0  0  0  0  0  0  0  0  0  0
   -5.1399    4.4385    0.9931 H   0  0  0  0  0  0  0  0  0  0  0  0
   -5.0228    5.8945   -0.0524 H   0  0  0  0  0  0  0  0  0  0  0  0
  1  3  1  0  0  0  0
  1  7  1  0  0  0  0
  1  2  2  0  0  0  0
 34 35  1  0  0  0  0
 35 43  1  0  0  0  0
 35 36  2  0  0  0  0
  8  9  1  0  0  0  0
  9 17  1  0  0  0  0
  9 10  2  0  0  0  0
 18 19  1  0  0  0  0
 19 33  1  0  0  0  0
 19 20  2  0  0  0  0
 22 23  1  0  0  0  0
 23 24  2  0  0  0  0
 23 25  1  0  0  0  0
 34 37  1  0  0  0  0
  8 11  1  0  0  0  0
 43 44  1  0  0  0  0
 21 22  1  0  0  0  0
 18 21  1  0  0  0  0
 33 34  1  0  0  0  0
  7  8  1  0  0  0  0
 17 18  1  0  0  0  0
  3  4  1  0  0  0  0
  3  5  1  0  0  0  0
  3  6  1  0  0  0  0
 37 40  1  0  0  0  0
 37 41  1  0  0  0  0
 37 42  1  0  0  0  0
 11 14  1  0  0  0  0
 11 15  1  0  0  0  0
 11 16  1  0  0  0  0
 44 46  1  0  0  0  0
 44 47  1  0  0  0  0
 44 48  1  0  0  0  0
 22 30  1  0  0  0  0
 22 31  1  0  0  0  0
 21 28  1  0  0  0  0
 21 29  1  0  0  0  0
 34 39  1  0  0  0  0
  8 13  1  0  0  0  0
 18 27  1  0  0  0  0
 43 45  1  0  0  0  0
  7 12  1  0  0  0  0
 33 38  1  0  0  0  0
 17 26  1  0  0  0  0
 25 32  1  0  0  0  0
M  END
$$$$

  -OEChem-05262214473D

 48 47  0     1  0  0  0  0  0999 V2000
   -5.5827   -1.3473    1.4591 C   0  0  0  0  0  0  0  0  0  0  0  0
   -5.7053   -2.4696    0.9825 O   0  0  0  0  0  0  0  0  0  0  0  0
   -6.7879   -0.6277    1.9670 C   0  0  0  0  0  0  0  0  0  0  0  0
   -7.2718   -0.0164    1.1885 H   0  0  0  0  0  0  0  0  0  0  0  0
   -7.5699   -1.3171    2.3239 H   0  0  0  0  0  0  0  0  0  0  0  0
   -6.6057    0.0628    2.8060 H   0  0  0  0  0  0  0  0  0  0  0  0
   -4.4001   -0.6377    1.5884 N   0  0  0  0  0  0  0  0  0  0  0  0
   -3.1220   -1.1455    1.1644 C   0  0  2  0  0  0  0  0  0  0  0  0
   -2.2017    0.0428    0.9187 C   0  0  0  0  0  0  0  0  0  0  0  0
   -2.6171    1.1750    0.6807 O   0  0  0  0  0  0  0  0  0  0  0  0
   -3.2533   -1.9992   -0.0873 C   0  0  0  0  0  0  0  0  0  0  0  0
   -4.4370    0.2910    2.0047 H   0  0  0  0  0  0  0  0  0  0  0  0
   -2.7302   -1.7467    1.9921 H   0  0  0  0  0  0  0  0  0  0  0  0
   -3.6446   -1.4140   -0.9275 H   0  0  0  0  0  0  0  0  0  0  0  0
   -2.2844   -2.4081   -0.3922 H   0  0  0  0  0  0  0  0  0  0  0  0
   -3.9388   -2.8365    0.0822 H   0  0  0  0  0  0  0  0  0  0  0  0
   -0.8768   -0.3314    0.9568 N   0  0  0  0  0  0  0  0  0  0  0  0
    0.2067    0.6285    0.7375 C   0  0  2  0  0  0  0  0  0  0  0  0
   -0.4347    1.8691    0.1233 C   0  0  0  0  0  0  0  0  0  0  0  0
    0.1529    2.9461    0.0437 O   0  0  0  0  0  0  0  0  0  0  0  0
    1.2622    0.0005   -0.1849 C   0  0  0  0  0  0  0  0  0  0  0  0
    2.0066   -1.1748    0.4486 C   0  0  0  0  0  0  0  0  0  0  0  0
    3.0159   -1.7784   -0.4959 C   0  0  0  0  0  0  0  0  0  0  0  0
    3.1277   -1.4549   -1.6715 O   0  0  0  0  0  0  0  0  0  0  0  0
    3.7738   -2.7401    0.0864 O   0  0  0  0  0  0  0  0  0  0  0  0
   -0.6087   -1.2764    1.1771 H   0  0  0  0  0  0  0  0  0  0  0  0
    0.6563    0.8699    1.7062 H   0  0  0  0  0  0  0  0  0  0  0  0
    0.7772   -0.3415   -1.1089 H   0  0  0  0  0  0  0  0  0  0  0  0
    2.0031    0.7549   -0.4806 H   0  0  0  0  0  0  0  0  0  0  0  0
    2.5628   -0.8282    1.3282 H   0  0  0  0  0  0  0  0  0  0  0  0
    1.3199   -1.9425    0.8198 H   0  0  0  0  0  0  0  0  0  0  0  0
    4.4312   -3.1719   -0.4995 H   0  0  0  0  0  0  0  0  0  0  0  0
   -1.7165    1.6239   -0.3465 N   0  0  0  0  0  0  0  0  0  0  0  0
   -2.5372    2.6349   -0.9735 C   0  0  2  0  0  0  0  0  0  0  0  0
   -3.4194    3.2572    0.1007 C   0  0  0  0  0  0  0  0  0  0  0  0
   -3.6961    2.6878    1.1544 O   0  0  0  0  0  0  0  0  0  0  0  0
   -3.3792    2.0469   -2.0950 C   0  0  0  0  0  0  0  0  0  0  0  0
   -2.0971    0.6879   -0.2449 H   0  0  0  0  0  0  0  0  0  0  0  0
   -1.8549    3.3940   -1.3715 H   0  0  0  0  0  0  0  0  0  0  0  0
   -4.0690    1.2843   -1.7154 H   0  0  0  0  0  0  0  0  0  0  0  0
   -3.9790    2.8193   -2.5877 H   0  0  0  0  0  0  0  0  0  0  0  0
   -2.7444    1.5736   -2.8519 H   0  0  0  0  0  0  0  0  0  0  0  0
   -3.8966    4.5053   -0.2743 N   0  0  0  0  0  0  0  0  0  0  0  0
   -4.7649    5.2936    0.5687 C   0  0  0  0  0  0  0  0  0  0  0  0
   -3.6004    4.9086   -1.1583 H   0  0  0  0  0  0  0  0  0  0  0  0
   -5.8141    5.0803    0.3167 H   0  0  0  0  0  0  0  0  0  0  0  0
   -4.5820    5.0389    1.6231 H   0  0  0  0  0  0  0  0  0  0  0  0
   -4.5595    6.3624    0.4088 H   0  0  0  0  0  0  0  0  0  0  0  0
  1  3  1  0  0  0  0
  1  7  1  0  0  0  0
  1  2  2  0  0  0  0
 34 35  1  0  0  0  0
 35 43  1  0  0  0  0
 35 36  2  0  0  0  0
  8  9  1  0  0  0  0
  9 17  1  0  0  0  0
  9 10  2  0  0  0  0
 18 19  1  0  0  0  0
 19 33  1  0  0  0  0
 19 20  2  0  0  0  0
 22 23  1  0  0  0  0
 23 24  2  0  0  0  0
 23 25  1  0  0  0  0
 34 37  1  0  0  0  0
  8 11  1  0  0  0  0
 43 44  1  0  0  0  0
 21 22  1  0  0  0  0
 18 21  1  0  0  0  0
 33 34  1  0  0  0  0
  7  8  1  0  0  0  0
 17 18  1  0  0  0  0
  3  4  1  0  0  0  0
  3  5  1  0  0  0  0
  3  6  1  0  0  0  0
 37 40  1  0  0  0  0
 37 41  1  0  0  0  0
 37 42  1  0  0  0  0
 11 14  1  0  0  0  0
 11 15  1  0  0  0  0
 11 16  1  0  0  0  0
 44 46  1  0  0  0  0
 44 47  1  0  0  0  0
 44 48  1  0  0  0  0
 22 30  1  0  0  0  0
 22 31  1  0  0  0  0
 21 28  1  0  0  0  0
 21 29  1  0  0  0  0
 34 39  1  0  0  0  0
  8 13  1  0  0  0  0
 18 27  1  0  0  0  0
 43 45  1  0  0  0  0
  7 12  1  0  0  0  0
 33 38  1  0  0  0  0
 17 26  1  0  0  0  0
 25 32  1  0  0  0  0
M  END
$$$$

  -OEChem-05262214473D

 48 47  0     1  0  0  0  0  0999 V2000
   -5.5827   -1.3473    1.4591 C   0  0  0  0  0  0  0  0  0  0  0  0
   -5.7053   -2.4696    0.9825 O   0  0  0  0  0  0  0  0  0  0  0  0
   -6.7879   -0.6277    1.9670 C   0  0  0  0  0  0  0  0  0  0  0  0
   -7.2718   -0.0164    1.1885 H   0  0  0  0  0  0  0  0  0  0  0  0
   -7.5699   -1.3171    2.3239 H   0  0  0  0  0  0  0  0  0  0  0  0
   -6.6057    0.0628    2.8060 H   0  0  0  0  0  0  0  0  0  0  0  0
   -4.4001   -0.6377    1.5884 N   0  0  0  0  0  0  0  0  0  0  0  0
   -3.1220   -1.1455    1.1644 C   0  0  2  0  0  0  0  0  0  0  0  0
   -2.2017    0.0428    0.9187 C   0  0  0  0  0  0  0  0  0  0  0  0
   -2.6171    1.1750    0.6807 O   0  0  0  0  0  0  0  0  0  0  0  0
   -3.2533   -1.9992   -0.0873 C   0  0  0  0  0  0  0  0  0  0  0  0
   -4.4370    0.2910    2.0047 H   0  0  0  0  0  0  0  0  0  0  0  0
   -2.7302   -1.7467    1.9921 H   0  0  0  0  0  0  0  0  0  0  0  0
   -3.6446   -1.4140   -0.9275 H   0  0  0  0  0  0  0  0  0  0  0  0
   -2.2844   -2.4081   -0.3922 H   0  0  0  0  0  0  0  0  0  0  0  0
   -3.9388   -2.8365    0.0822 H   0  0  0  0  0  0  0  0  0  0  0  0
   -0.8768   -0.3314    0.9568 N   0  0  0  0  0  0  0  0  0  0  0  0
    0.2067    0.6285    0.7375 C   0  0  2  0  0  0  0  0  0  0  0  0
   -0.4347    1.8691    0.1233 C   0  0  0  0  0  0  0  0  0  0  0  0
    0.2189    2.8578   -0.2035 O   0  0  0  0  0  0  0  0  0  0  0  0
    1.2622    0.0005   -0.1849 C   0  0  0  0  0  0  0  0  0  0  0  0
    2.0066   -1.1748    0.4486 C   0  0  0  0  0  0  0  0  0  0  0  0
    3.0159   -1.7784   -0.4959 C   0  0  0  0  0  0  0  0  0  0  0  0
    3.1277   -1.4549   -1.6715 O   0  0  0  0  0  0  0  0  0  0  0  0
    3.7738   -2.7401    0.0864 O   0  0  0  0  0  0  0  0  0  0  0  0
   -0.6087   -1.2764    1.1771 H   0  0  0  0  0  0  0  0  0  0  0  0
    0.6563    0.8699    1.7062 H   0  0  0  0  0  0  0  0  0  0  0  0
    0.7772   -0.3415   -1.1089 H   0  0  0  0  0  0  0  0  0  0  0  0
    2.0031    0.7549   -0.4806 H   0  0  0  0  0  0  0  0  0  0  0  0
    2.5628   -0.8282    1.3282 H   0  0  0  0  0  0  0  0  0  0  0  0
    1.3199   -1.9425    0.8198 H   0  0  0  0  0  0  0  0  0  0  0  0
    4.4312   -3.1719   -0.4995 H   0  0  0  0  0  0  0  0  0  0  0  0
   -1.8048    1.7294   -0.0413 N   0  0  0  0  0  0  0  0  0  0  0  0
   -2.6445    2.7626   -0.6037 C   0  0  2  0  0  0  0  0  0  0  0  0
   -3.2121    3.5848    0.5458 C   0  0  0  0  0  0  0  0  0  0  0  0
   -3.3059    3.1568    1.6943 O   0  0  0  0  0  0  0  0  0  0  0  0
   -3.7598    2.1694   -1.4503 C   0  0  0  0  0  0  0  0  0  0  0  0
   -2.2394    0.8581    0.2476 H   0  0  0  0  0  0  0  0  0  0  0  0
   -1.9972    3.3950   -1.2210 H   0  0  0  0  0  0  0  0  0  0  0  0
   -4.4188    1.5326   -0.8489 H   0  0  0  0  0  0  0  0  0  0  0  0
   -4.3778    2.9542   -1.8988 H   0  0  0  0  0  0  0  0  0  0  0  0
   -3.3503    1.5541   -2.2588 H   0  0  0  0  0  0  0  0  0  0  0  0
   -3.6415    4.8371    0.1294 N   0  0  0  0  0  0  0  0  0  0  0  0
   -4.2301    5.7992    1.0315 C   0  0  0  0  0  0  0  0  0  0  0  0
   -3.5074    5.1151   -0.8383 H   0  0  0  0  0  0  0  0  0  0  0  0
   -5.3242    5.6853    1.0271 H   0  0  0  0  0  0  0  0  0  0  0  0
   -3.8480    5.6292    2.0489 H   0  0  0  0  0  0  0  0  0  0  0  0
   -3.9662    6.8163    0.7059 H   0  0  0  0  0  0  0  0  0  0  0  0
  1  3  1  0  0  0  0
  1  7  1  0  0  0  0
  1  2  2  0  0  0  0
 34 35  1  0  0  0  0
 35 43  1  0  0  0  0
 35 36  2  0  0  0  0
  8  9  1  0  0  0  0
  9 17  1  0  0  0  0
  9 10  2  0  0  0  0
 18 19  1  0  0  0  0
 19 33  1  0  0  0  0
 19 20  2  0  0  0  0
 22 23  1  0  0  0  0
 23 24  2  0  0  0  0
 23 25  1  0  0  0  0
 34 37  1  0  0  0  0
  8 11  1  0  0  0  0
 43 44  1  0  0  0  0
 21 22  1  0  0  0  0
 18 21  1  0  0  0  0
 33 34  1  0  0  0  0
  7  8  1  0  0  0  0
 17 18  1  0  0  0  0
  3  4  1  0  0  0  0
  3  5  1  0  0  0  0
  3  6  1  0  0  0  0
 37 40  1  0  0  0  0
 37 41  1  0  0  0  0
 37 42  1  0  0  0  0
 11 14  1  0  0  0  0
 11 15  1  0  0  0  0
 11 16  1  0  0  0  0
 44 46  1  0  0  0  0
 44 47  1  0  0  0  0
 44 48  1  0  0  0  0
 22 30  1  0  0  0  0
 22 31  1  0  0  0  0
 21 28  1  0  0  0  0
 21 29  1  0  0  0  0
 34 39  1  0  0  0  0
  8 13  1  0  0  0  0
 18 27  1  0  0  0  0
 43 45  1  0  0  0  0
  7 12  1  0  0  0  0
 33 38  1  0  0  0  0
 17 26  1  0  0  0  0
 25 32  1  0  0  0  0
M  END
$$$$

  -OEChem-05262214473D

 48 47  0     1  0  0  0  0  0999 V2000
   -5.5827   -1.3473    1.4591 C   0  0  0  0  0  0  0  0  0  0  0  0
   -5.7053   -2.4696    0.9825 O   0  0  0  0  0  0  0  0  0  0  0  0
   -6.7879   -0.6277    1.9670 C   0  0  0  0  0  0  0  0  0  0  0  0
   -7.2718   -0.0164    1.1885 H   0  0  0  0  0  0  0  0  0  0  0  0
   -7.5699   -1.3171    2.3239 H   0  0  0  0  0  0  0  0  0  0  0  0
   -6.6057    0.0628    2.8060 H   0  0  0  0  0  0  0  0  0  0  0  0
   -4.4001   -0.6377    1.5884 N   0  0  0  0  0  0  0  0  0  0  0  0
   -3.1220   -1.1455    1.1644 C   0  0  2  0  0  0  0  0  0  0  0  0
   -2.2017    0.0428    0.9187 C   0  0  0  0  0  0  0  0  0  0  0  0
   -2.6171    1.1750    0.6807 O   0  0  0  0  0  0  0  0  0  0  0  0
   -3.2533   -1.9992   -0.0873 C   0  0  0  0  0  0  0  0  0  0  0  0
   -4.4370    0.2910    2.0047 H   0  0  0  0  0  0  0  0  0  0  0  0
   -2.7302   -1.7467    1.9921 H   0  0  0  0  0  0  0  0  0  0  0  0
   -3.6446   -1.4140   -0.9275 H   0  0  0  0  0  0  0  0  0  0  0  0
   -2.2844   -2.4081   -0.3922 H   0  0  0  0  0  0  0  0  0  0  0  0
   -3.9388   -2.8365    0.0822 H   0  0  0  0  0  0  0  0  0  0  0  0
   -0.8768   -0.3314    0.9568 N   0  0  0  0  0  0  0  0  0  0  0  0
    0.2067    0.6285    0.7375 C   0  0  2  0  0  0  0  0  0  0  0  0
   -0.4347    1.8691    0.1233 C   0  0  0  0  0  0  0  0  0  0  0  0
    0.2214    2.7388   -0.4465 O   0  0  0  0  0  0  0  0  0  0  0  0
    1.2622    0.0005   -0.1849 C   0  0  0  0  0  0  0  0  0  0  0  0
    2.0066   -1.1748    0.4486 C   0  0  0  0  0  0  0  0  0  0  0  0
    3.0159   -1.7784   -0.4959 C   0  0  0  0  0  0  0  0  0  0  0  0
    3.1277   -1.4549   -1.6715 O   0  0  0  0  0  0  0  0  0  0  0  0
    3.7738   -2.7401    0.0864 O   0  0  0  0  0  0  0  0  0  0  0  0
   -0.6087   -1.2764    1.1771 H   0  0  0  0  0  0  0  0  0  0  0  0
    0.6563    0.8699    1.7062 H   0  0  0  0  0  0  0  0  0  0  0  0
    0.7772   -0.3415   -1.1089 H   0  0  0  0  0  0  0  0  0  0  0  0
    2.0031    0.7549   -0.4806 H   0  0  0  0  0  0  0  0  0  0  0  0
    2.5628   -0.8282    1.3282 H   0  0  0  0  0  0  0  0  0  0  0  0
    1.3199   -1.9425    0.8198 H   0  0  0  0  0  0  0  0  0  0  0  0
    4.4312   -3.1719   -0.4995 H   0  0  0  0  0  0  0  0  0  0  0  0
   -1.8149    1.8736    0.2606 N   0  0  0  0  0  0  0  0  0  0  0  0
   -2.6570    2.9373   -0.2378 C   0  0  2  0  0  0  0  0  0  0  0  0
   -2.8840    3.9280    0.8964 C   0  0  0  0  0  0  0  0  0  0  0  0
   -2.7664    3.6280    2.0827 O   0  0  0  0  0  0  0  0  0  0  0  0
   -3.9790    2.3974   -0.7608 C   0  0  0  0  0  0  0  0  0  0  0  0
   -2.2555    1.0910    0.7347 H   0  0  0  0  0  0  0  0  0  0  0  0
   -2.1028    3.4271   -1.0459 H   0  0  0  0  0  0  0  0  0  0  0  0
   -4.5484    1.9031    0.0347 H   0  0  0  0  0  0  0  0  0  0  0  0
   -4.6040    3.2010   -1.1641 H   0  0  0  0  0  0  0  0  0  0  0  0
   -3.8127    1.6629   -1.5562 H   0  0  0  0  0  0  0  0  0  0  0  0
   -3.2755    5.1750    0.4296 N   0  0  0  0  0  0  0  0  0  0  0  0
   -3.5635    6.2823    1.3110 C   0  0  0  0  0  0  0  0  0  0  0  0
   -3.3287    5.3397   -0.5713 H   0  0  0  0  0  0  0  0  0  0  0  0
   -4.6384    6.2959    1.5443 H   0  0  0  0  0  0  0  0  0  0  0  0
   -2.9879    6.1693    2.2416 H   0  0  0  0  0  0  0  0  0  0  0  0
   -3.2833    7.2252    0.8187 H   0  0  0  0  0  0  0  0  0  0  0  0
  1  3  1  0  0  0  0
  1  7  1  0  0  0  0
  1  2  2  0  0  0  0
 34 35  1  0  0  0  0
 35 43  1  0  0  0  0
 35 36  2  0  0  0  0
  8  9  1  0  0  0  0
  9 17  1  0  0  0  0
  9 10  2  0  0  0  0
 18 19  1  0  0  0  0
 19 33  1  0  0  0  0
 19 20  2  0  0  0  0
 22 23  1  0  0  0  0
 23 24  2  0  0  0  0
 23 25  1  0  0  0  0
 34 37  1  0  0  0  0
  8 11  1  0  0  0  0
 43 44  1  0  0  0  0
 21 22  1  0  0  0  0
 18 21  1  0  0  0  0
 33 34  1  0  0  0  0
  7  8  1  0  0  0  0
 17 18  1  0  0  0  0
  3  4  1  0  0  0  0
  3  5  1  0  0  0  0
  3  6  1  0  0  0  0
 37 40  1  0  0  0  0
 37 41  1  0  0  0  0
 37 42  1  0  0  0  0
 11 14  1  0  0  0  0
 11 15  1  0  0  0  0
 11 16  1  0  0  0  0
 44 46  1  0  0  0  0
 44 47  1  0  0  0  0
 44 48  1  0  0  0  0
 22 30  1  0  0  0  0
 22 31  1  0  0  0  0
 21 28  1  0  0  0  0
 21 29  1  0  0  0  0
 34 39  1  0  0  0  0
  8 13  1  0  0  0  0
 18 27  1  0  0  0  0
 43 45  1  0  0  0  0
  7 12  1  0  0  0  0
 33 38  1  0  0  0  0
 17 26  1  0  0  0  0
 25 32  1  0  0  0  0
M  END
$$$$

  -OEChem-05262214473D

 48 47  0     1  0  0  0  0  0999 V2000
   -5.5827   -1.3473    1.4591 C   0  0  0  0  0  0  0  0  0  0  0  0
   -5.7053   -2.4696    0.9825 O   0  0  0  0  0  0  0  0  0  0  0  0
   -6.7879   -0.6277    1.9670 C   0  0  0  0  0  0  0  0  0  0  0  0
   -7.2718   -0.0164    1.1885 H   0  0  0  0  0  0  0  0  0  0  0  0
   -7.5699   -1.3171    2.3239 H   0  0  0  0  0  0  0  0  0  0  0  0
   -6.6057    0.0628    2.8060 H   0  0  0  0  0  0  0  0  0  0  0  0
   -4.4001   -0.6377    1.5884 N   0  0  0  0  0  0  0  0  0  0  0  0
   -3.1220   -1.1455    1.1644 C   0  0  2  0  0  0  0  0  0  0  0  0
   -2.2017    0.0428    0.9187 C   0  0  0  0  0  0  0  0  0  0  0  0
   -2.6171    1.1750    0.6807 O   0  0  0  0  0  0  0  0  0  0  0  0
   -3.2533   -1.9992   -0.0873 C   0  0  0  0  0  0  0  0  0  0  0  0
   -4.4370    0.2910    2.0047 H   0  0  0  0  0  0  0  0  0  0  0  0
   -2.7302   -1.7467    1.9921 H   0  0  0  0  0  0  0  0  0  0  0  0
   -3.6446   -1.4140   -0.9275 H   0  0  0  0  0  0  0  0  0  0  0  0
   -2.2844   -2.4081   -0.3922 H   0  0  0  0  0  0  0  0  0  0  0  0
   -3.9388   -2.8365    0.0822 H   0  0  0  0  0  0  0  0  0  0  0  0
   -0.8768   -0.3314    0.9568 N   0  0  0  0  0  0  0  0  0  0  0  0
    0.2067    0.6285    0.7375 C   0  0  2  0  0  0  0  0  0  0  0  0
   -0.4347    1.8691    0.1233 C   0  0  0  0  0  0  0  0  0  0  0  0
    0.1603    2.5971   -0.6689 O   0  0  0  0  0  0  0  0  0  0  0  0
    1.2622    0.0005   -0.1849 C   0  0  0  0  0  0  0  0  0  0  0  0
    2.0066   -1.1748    0.4486 C   0  0  0  0  0  0  0  0  0  0  0  0
    3.0159   -1.7784   -0.4959 C   0  0  0  0  0  0  0  0  0  0  0  0
    3.1277   -1.4549   -1.6715 O   0  0  0  0  0  0  0  0  0  0  0  0
    3.7738   -2.7401    0.0864 O   0  0  0  0  0  0  0  0  0  0  0  0
   -0.6087   -1.2764    1.1771 H   0  0  0  0  0  0  0  0  0  0  0  0
    0.6563    0.8699    1.7062 H   0  0  0  0  0  0  0  0  0  0  0  0
    0.7772   -0.3415   -1.1089 H   0  0  0  0  0  0  0  0  0  0  0  0
    2.0031    0.7549   -0.4806 H   0  0  0  0  0  0  0  0  0  0  0  0
    2.5628   -0.8282    1.3282 H   0  0  0  0  0  0  0  0  0  0  0  0
    1.3199   -1.9425    0.8198 H   0  0  0  0  0  0  0  0  0  0  0  0
    4.4312   -3.1719   -0.4995 H   0  0  0  0  0  0  0  0  0  0  0  0
   -1.7461    2.0469    0.5386 N   0  0  0  0  0  0  0  0  0  0  0  0
   -2.5738    3.1471    0.0992 C   0  0  2  0  0  0  0  0  0  0  0  0
   -2.4576    4.2635    1.1287 C   0  0  0  0  0  0  0  0  0  0  0  0
   -2.1146    4.0692    2.2930 O   0  0  0  0  0  0  0  0  0  0  0  0
   -4.0218    2.7156   -0.0735 C   0  0  0  0  0  0  0  0  0  0  0  0
   -2.1442    1.3707    1.1833 H   0  0  0  0  0  0  0  0  0  0  0  0
   -2.1646    3.4882   -0.8580 H   0  0  0  0  0  0  0  0  0  0  0  0
   -4.4490    2.3706    0.8752 H   0  0  0  0  0  0  0  0  0  0  0  0
   -4.6421    3.5429   -0.4338 H   0  0  0  0  0  0  0  0  0  0  0  0
   -4.1001    1.8926   -0.7921 H   0  0  0  0  0  0  0  0  0  0  0  0
   -2.8236    5.4958    0.6057 N   0  0  0  0  0  0  0  0  0  0  0  0
   -2.8105    6.7098    1.3881 C   0  0  0  0  0  0  0  0  0  0  0  0
   -3.0765    5.5671   -0.3755 H   0  0  0  0  0  0  0  0  0  0  0  0
   -3.8035    6.8706    1.8331 H   0  0  0  0  0  0  0  0  0  0  0  0
   -2.0602    6.6223    2.1878 H   0  0  0  0  0  0  0  0  0  0  0  0
   -2.5573    7.5612    0.7394 H   0  0  0  0  0  0  0  0  0  0  0  0
  1  3  1  0  0  0  0
  1  7  1  0  0  0  0
  1  2  2  0  0  0  0
 34 35  1  0  0  0  0
 35 43  1  0  0  0  0
 35 36  2  0  0  0  0
  8  9  1  0  0  0  0
  9 17  1  0  0  0  0
  9 10  2  0  0  0  0
 18 19  1  0  0  0  0
 19 33  1  0  0  0  0
 19 20  2  0  0  0  0
 22 23  1  0  0  0  0
 23 24  2  0  0  0  0
 23 25  1  0  0  0  0
 34 37  1  0  0  0  0
  8 11  1  0  0  0  0
 43 44  1  0  0  0  0
 21 22  1  0  0  0  0
 18 21  1  0  0  0  0
 33 34  1  0  0  0  0
  7  8  1  0  0  0  0
 17 18  1  0  0  0  0
  3  4  1  0  0  0  0
  3  5  1  0  0  0  0
  3  6  1  0  0  0  0
 37 40  1  0  0  0  0
 37 41  1  0  0  0  0
 37 42  1  0  0  0  0
 11 14  1  0  0  0  0
 11 15  1  0  0  0  0
 11 16  1  0  0  0  0
 44 46  1  0  0  0  0
 44 47  1  0  0  0  0
 44 48  1  0  0  0  0
 22 30  1  0  0  0  0
 22 31  1  0  0  0  0
 21 28  1  0  0  0  0
 21 29  1  0  0  0  0
 34 39  1  0  0  0  0
  8 13  1  0  0  0  0
 18 27  1  0  0  0  0
 43 45  1  0  0  0  0
  7 12  1  0  0  0  0
 33 38  1  0  0  0  0
 17 26  1  0  0  0  0
 25 32  1  0  0  0  0
M  END
$$$$

  -OEChem-05262214473D

 48 47  0     1  0  0  0  0  0999 V2000
   -5.5827   -1.3473    1.4591 C   0  0  0  0  0  0  0  0  0  0  0  0
   -5.7053   -2.4696    0.9825 O   0  0  0  0  0  0  0  0  0  0  0  0
   -6.7879   -0.6277    1.9670 C   0  0  0  0  0  0  0  0  0  0  0  0
   -7.2718   -0.0164    1.1885 H   0  0  0  0  0  0  0  0  0  0  0  0
   -7.5699   -1.3171    2.3239 H   0  0  0  0  0  0  0  0  0  0  0  0
   -6.6057    0.0628    2.8060 H   0  0  0  0  0  0  0  0  0  0  0  0
   -4.4001   -0.6377    1.5884 N   0  0  0  0  0  0  0  0  0  0  0  0
   -3.1220   -1.1455    1.1644 C   0  0  2  0  0  0  0  0  0  0  0  0
   -2.2017    0.0428    0.9187 C   0  0  0  0  0  0  0  0  0  0  0  0
   -2.6171    1.1750    0.6807 O   0  0  0  0  0  0  0  0  0  0  0  0
   -3.2533   -1.9992   -0.0873 C   0  0  0  0  0  0  0  0  0  0  0  0
   -4.4370    0.2910    2.0047 H   0  0  0  0  0  0  0  0  0  0  0  0
   -2.7302   -1.7467    1.9921 H   0  0  0  0  0  0  0  0  0  0  0  0
   -3.6446   -1.4140   -0.9275 H   0  0  0  0  0  0  0  0  0  0  0  0
   -2.2844   -2.4081   -0.3922 H   0  0  0  0  0  0  0  0  0  0  0  0
   -3.9388   -2.8365    0.0822 H   0  0  0  0  0  0  0  0  0  0  0  0
   -0.8768   -0.3314    0.9568 N   0  0  0  0  0  0  0  0  0  0  0  0
    0.2067    0.6285    0.7375 C   0  0  2  0  0  0  0  0  0  0  0  0
   -0.4347    1.8691    0.1233 C   0  0  0  0  0  0  0  0  0  0  0  0
    0.0397    2.4424   -0.8554 O   0  0  0  0  0  0  0  0  0  0  0  0
    1.2622    0.0005   -0.1849 C   0  0  0  0  0  0  0  0  0  0  0  0
    2.0066   -1.1748    0.4486 C   0  0  0  0  0  0  0  0  0  0  0  0
    3.0159   -1.7784   -0.4959 C   0  0  0  0  0  0  0  0  0  0  0  0
    3.1277   -1.4549   -1.6715 O   0  0  0  0  0  0  0  0  0  0  0  0
    3.7738   -2.7401    0.0864 O   0  0  0  0  0  0  0  0  0  0  0  0
   -0.6087   -1.2764    1.1771 H   0  0  0  0  0  0  0  0  0  0  0  0
    0.6563    0.8699    1.7062 H   0  0  0  0  0  0  0  0  0  0  0  0
    0.7772   -0.3415   -1.1089 H   0  0  0  0  0  0  0  0  0  0  0  0
    2.0031    0.7549   -0.4806 H   0  0  0  0  0  0  0  0  0  0  0  0
    2.5628   -0.8282    1.3282 H   0  0  0  0  0  0  0  0  0  0  0  0
    1.3199   -1.9425    0.8198 H   0  0  0  0  0  0  0  0  0  0  0  0
    4.4312   -3.1719   -0.4995 H   0  0  0  0  0  0  0  0  0  0  0  0
   -1.6030    2.2373    0.7739 N   0  0  0  0  0  0  0  0  0  0  0  0
   -2.4007    3.3778    0.3845 C   0  0  2  0  0  0  0  0  0  0  0  0
   -1.9619    4.5683    1.2268 C   0  0  0  0  0  0  0  0  0  0  0  0
   -1.3947    4.4503    2.3110 O   0  0  0  0  0  0  0  0  0  0  0  0
   -3.8854    3.1022    0.5648 C   0  0  0  0  0  0  0  0  0  0  0  0
   -1.9132    1.6780    1.5627 H   0  0  0  0  0  0  0  0  0  0  0  0
   -2.1784    3.5741   -0.6701 H   0  0  0  0  0  0  0  0  0  0  0  0
   -4.1274    2.9033    1.6152 H   0  0  0  0  0  0  0  0  0  0  0  0
   -4.4896    3.9566    0.2425 H   0  0  0  0  0  0  0  0  0  0  0  0
   -4.1931    2.2276   -0.0185 H   0  0  0  0  0  0  0  0  0  0  0  0
   -2.3166    5.7778    0.6459 N   0  0  0  0  0  0  0  0  0  0  0  0
   -2.0223    7.0526    1.2576 C   0  0  0  0  0  0  0  0  0  0  0  0
   -2.7680    5.7817   -0.2641 H   0  0  0  0  0  0  0  0  0  0  0  0
   -2.8764    7.3701    1.8739 H   0  0  0  0  0  0  0  0  0  0  0  0
   -1.1283    6.9573    1.8914 H   0  0  0  0  0  0  0  0  0  0  0  0
   -1.8377    7.8016    0.4734 H   0  0  0  0  0  0  0  0  0  0  0  0
  1  3  1  0  0  0  0
  1  7  1  0  0  0  0
  1  2  2  0  0  0  0
 34 35  1  0  0  0  0
 35 43  1  0  0  0  0
 35 36  2  0  0  0  0
  8  9  1  0  0  0  0
  9 17  1  0  0  0  0
  9 10  2  0  0  0  0
 18 19  1  0  0  0  0
 19 33  1  0  0  0  0
 19 20  2  0  0  0  0
 22 23  1  0  0  0  0
 23 24  2  0  0  0  0
 23 25  1  0  0  0  0
 34 37  1  0  0  0  0
  8 11  1  0  0  0  0
 43 44  1  0  0  0  0
 21 22  1  0  0  0  0
 18 21  1  0  0  0  0
 33 34  1  0  0  0  0
  7  8  1  0  0  0  0
 17 18  1  0  0  0  0
  3  4  1  0  0  0  0
  3  5  1  0  0  0  0
  3  6  1  0  0  0  0
 37 40  1  0  0  0  0
 37 41  1  0  0  0  0
 37 42  1  0  0  0  0
 11 14  1  0  0  0  0
 11 15  1  0  0  0  0
 11 16  1  0  0  0  0
 44 46  1  0  0  0  0
 44 47  1  0  0  0  0
 44 48  1  0  0  0  0
 22 30  1  0  0  0  0
 22 31  1  0  0  0  0
 21 28  1  0  0  0  0
 21 29  1  0  0  0  0
 34 39  1  0  0  0  0
  8 13  1  0  0  0  0
 18 27  1  0  0  0  0
 43 45  1  0  0  0  0
  7 12  1  0  0  0  0
 33 38  1  0  0  0  0
 17 26  1  0  0  0  0
 25 32  1  0  0  0  0
M  END
$$$$

  -OEChem-05262214473D

 48 47  0     1  0  0  0  0  0999 V2000
   -5.5827   -1.3473    1.4591 C   0  0  0  0  0  0  0  0  0  0  0  0
   -5.7053   -2.4696    0.9825 O   0  0  0  0  0  0  0  0  0  0  0  0
   -6.7879   -0.6277    1.9670 C   0  0  0  0  0  0  0  0  0  0  0  0
   -7.2718   -0.0164    1.1885 H   0  0  0  0  0  0  0  0  0  0  0  0
   -7.5699   -1.3171    2.3239 H   0  0  0  0  0  0  0  0  0  0  0  0
   -6.6057    0.0628    2.8060 H   0  0  0  0  0  0  0  0  0  0  0  0
   -4.4001   -0.6377    1.5884 N   0  0  0  0  0  0  0  0  0  0  0  0
   -3.1220   -1.1455    1.1644 C   0  0  2  0  0  0  0  0  0  0  0  0
   -2.2017    0.0428    0.9187 C   0  0  0  0  0  0  0  0  0  0  0  0
   -2.6171    1.1750    0.6807 O   0  0  0  0  0  0  0  0  0  0  0  0
   -3.2533   -1.9992   -0.0873 C   0  0  0  0  0  0  0  0  0  0  0  0
   -4.4370    0.2910    2.0047 H   0  0  0  0  0  0  0  0  0  0  0  0
   -2.7302   -1.7467    1.9921 H   0  0  0  0  0  0  0  0  0  0  0  0
   -3.6446   -1.4140   -0.9275 H   0  0  0  0  0  0  0  0  0  0  0  0
   -2.2844   -2.4081   -0.3922 H   0  0  0  0  0  0  0  0  0  0  0  0
   -3.9388   -2.8365    0.0822 H   0  0  0  0  0  0  0  0  0  0  0  0
   -0.8768   -0.3314    0.9568 N   0  0  0  0  0  0  0  0  0  0  0  0
    0.2067    0.6285    0.7375 C   0  0  2  0  0  0  0  0  0  0  0  0
   -0.4347    1.8691    0.1233 C   0  0  0  0  0  0  0  0  0  0  0  0
   -0.1322    2.2853   -0.9933 O   0  0  0  0  0  0  0  0  0  0  0  0
    1.2622    0.0005   -0.1849 C   0  0  0  0  0  0  0  0  0  0  0  0
    2.0066   -1.1748    0.4486 C   0  0  0  0  0  0  0  0  0  0  0  0
    3.0159   -1.7784   -0.4959 C   0  0  0  0  0  0  0  0  0  0  0  0
    3.1277   -1.4549   -1.6715 O   0  0  0  0  0  0  0  0  0  0  0  0
    3.7738   -2.7401    0.0864 O   0  0  0  0  0  0  0  0  0  0  0  0
   -0.6087   -1.2764    1.1771 H   0  0  0  0  0  0  0  0  0  0  0  0
    0.6563    0.8699    1.7062 H   0  0  0  0  0  0  0  0  0  0  0  0
    0.7772   -0.3415   -1.1089 H   0  0  0  0  0  0  0  0  0  0  0  0
    2.0031    0.7549   -0.4806 H   0  0  0  0  0  0  0  0  0  0  0  0
    2.5628   -0.8282    1.3282 H   0  0  0  0  0  0  0  0  0  0  0  0
    1.3199   -1.9425    0.8198 H   0  0  0  0  0  0  0  0  0  0  0  0
    4.4312   -3.1719   -0.4995 H   0  0  0  0  0  0  0  0  0  0  0  0
   -1.3955    2.4320    0.9503 N   0  0  0  0  0  0  0  0  0  0  0  0
   -2.1495    3.6137    0.5984 C   0  0  2  0  0  0  0  0  0  0  0  0
   -1.4306    4.8219    1.1841 C   0  0  0  0  0  0  0  0  0  0  0  0
   -0.6558    4.7453    2.1354 O   0  0  0  0  0  0  0  0  0  0  0  0
   -3.5790    3.5308    1.1106 C   0  0  0  0  0  0  0  0  0  0  0  0
   -1.5782    1.9920    1.8472 H   0  0  0  0  0  0  0  0  0  0  0  0
   -2.1432    3.6789   -0.4951 H   0  0  0  0  0  0  0  0  0  0  0  0
   -3.6055    3.4648    2.2044 H   0  0  0  0  0  0  0  0  0  0  0  0
   -4.1568    4.4139    0.8187 H   0  0  0  0  0  0  0  0  0  0  0  0
   -4.0851    2.6450    0.7119 H   0  0  0  0  0  0  0  0  0  0  0  0
   -1.7891    6.0017    0.5473 N   0  0  0  0  0  0  0  0  0  0  0  0
   -1.2527    7.2875    0.9284 C   0  0  0  0  0  0  0  0  0  0  0  0
   -2.4241    5.9690   -0.2448 H   0  0  0  0  0  0  0  0  0  0  0  0
   -1.9202    7.7604    1.6638 H   0  0  0  0  0  0  0  0  0  0  0  0
   -0.2556    7.1516    1.3725 H   0  0  0  0  0  0  0  0  0  0  0  0
   -1.1735    7.9298    0.0389 H   0  0  0  0  0  0  0  0  0  0  0  0
  1  3  1  0  0  0  0
  1  7  1  0  0  0  0
  1  2  2  0  0  0  0
 34 35  1  0  0  0  0
 35 43  1  0  0  0  0
 35 36  2  0  0  0  0
  8  9  1  0  0  0  0
  9 17  1  0  0  0  0
  9 10  2  0  0  0  0
 18 19  1  0  0  0  0
 19 33  1  0  0  0  0
 19 20  2  0  0  0  0
 22 23  1  0  0  0  0
 23 24  2  0  0  0  0
 23 25  1  0  0  0  0
 34 37  1  0  0  0  0
  8 11  1  0  0  0  0
 43 44  1  0  0  0  0
 21 22  1  0  0  0  0
 18 21  1  0  0  0  0
 33 34  1  0  0  0  0
  7  8  1  0  0  0  0
 17 18  1  0  0  0  0
  3  4  1  0  0  0  0
  3  5  1  0  0  0  0
  3  6  1  0  0  0  0
 37 40  1  0  0  0  0
 37 41  1  0  0  0  0
 37 42  1  0  0  0  0
 11 14  1  0  0  0  0
 11 15  1  0  0  0  0
 11 16  1  0  0  0  0
 44 46  1  0  0  0  0
 44 47  1  0  0  0  0
 44 48  1  0  0  0  0
 22 30  1  0  0  0  0
 22 31  1  0  0  0  0
 21 28  1  0  0  0  0
 21 29  1  0  0  0  0
 34 39  1  0  0  0  0
  8 13  1  0  0  0  0
 18 27  1  0  0  0  0
 43 45  1  0  0  0  0
  7 12  1  0  0  0  0
 33 38  1  0  0  0  0
 17 26  1  0  0  0  0
 25 32  1  0  0  0  0
M  END
$$$$

  -OEChem-05262214473D

 48 47  0     1  0  0  0  0  0999 V2000
   -5.5827   -1.3473    1.4591 C   0  0  0  0  0  0  0  0  0  0  0  0
   -5.7053   -2.4696    0.9825 O   0  0  0  0  0  0  0  0  0  0  0  0
   -6.7879   -0.6277    1.9670 C   0  0  0  0  0  0  0  0  0  0  0  0
   -7.2718   -0.0164    1.1885 H   0  0  0  0  0  0  0  0  0  0  0  0
   -7.5699   -1.3171    2.3239 H   0  0  0  0  0  0  0  0  0  0  0  0
   -6.6057    0.0628    2.8060 H   0  0  0  0  0  0  0  0  0  0  0  0
   -4.4001   -0.6377    1.5884 N   0  0  0  0  0  0  0  0  0  0  0  0
   -3.1220   -1.1455    1.1644 C   0  0  2  0  0  0  0  0  0  0  0  0
   -2.2017    0.0428    0.9187 C   0  0  0  0  0  0  0  0  0  0  0  0
   -2.6171    1.1750    0.6807 O   0  0  0  0  0  0  0  0  0  0  0  0
   -3.2533   -1.9992   -0.0873 C   0  0  0  0  0  0  0  0  0  0  0  0
   -4.4370    0.2910    2.0047 H   0  0  0  0  0  0  0  0  0  0  0  0
   -2.7302   -1.7467    1.9921 H   0  0  0  0  0  0  0  0  0  0  0  0
   -3.6446   -1.4140   -0.9275 H   0  0  0  0  0  0  0  0  0  0  0  0
   -2.2844   -2.4081   -0.3922 H   0  0  0  0  0  0  0  0  0  0  0  0
   -3.9388   -2.8365    0.0822 H   0  0  0  0  0  0  0  0  0  0  0  0
   -0.8768   -0.3314    0.9568 N   0  0  0  0  0  0  0  0  0  0  0  0
    0.2067    0.6285    0.7375 C   0  0  2  0  0  0  0  0  0  0  0  0
   -0.4347    1.8691    0.1233 C   0  0  0  0  0  0  0  0  0  0  0  0
   -0.3435    2.1364   -1.0733 O   0  0  0  0  0  0  0  0  0  0  0  0
    1.2622    0.0005   -0.1849 C   0  0  0  0  0  0  0  0  0  0  0  0
    2.0066   -1.1748    0.4486 C   0  0  0  0  0  0  0  0  0  0  0  0
    3.0159   -1.7784   -0.4959 C   0  0  0  0  0  0  0  0  0  0  0  0
    3.1277   -1.4549   -1.6715 O   0  0  0  0  0  0  0  0  0  0  0  0
    3.7738   -2.7401    0.0864 O   0  0  0  0  0  0  0  0  0  0  0  0
   -0.6087   -1.2764    1.1771 H   0  0  0  0  0  0  0  0  0  0  0  0
    0.6563    0.8699    1.7062 H   0  0  0  0  0  0  0  0  0  0  0  0
    0.7772   -0.3415   -1.1089 H   0  0  0  0  0  0  0  0  0  0  0  0
    2.0031    0.7549   -0.4806 H   0  0  0  0  0  0  0  0  0  0  0  0
    2.5628   -0.8282    1.3282 H   0  0  0  0  0  0  0  0  0  0  0  0
    1.3199   -1.9425    0.8198 H   0  0  0  0  0  0  0  0  0  0  0  0
    4.4312   -3.1719   -0.4995 H   0  0  0  0  0  0  0  0  0  0  0  0
   -1.1376    2.6175    1.0558 N   0  0  0  0  0  0  0  0  0  0  0  0
   -1.8371    3.8386    0.7266 C   0  0  2  0  0  0  0  0  0  0  0  0
   -0.9000    5.0067    1.0034 C   0  0  0  0  0  0  0  0  0  0  0  0
    0.0517    4.9342    1.7782 O   0  0  0  0  0  0  0  0  0  0  0  0
   -3.1235    3.9723    1.5267 C   0  0  0  0  0  0  0  0  0  0  0  0
   -1.1620    2.2914    2.0173 H   0  0  0  0  0  0  0  0  0  0  0  0
   -2.0614    3.7956   -0.3448 H   0  0  0  0  0  0  0  0  0  0  0  0
   -2.9188    4.0170    2.6026 H   0  0  0  0  0  0  0  0  0  0  0  0
   -3.6665    4.8837    1.2554 H   0  0  0  0  0  0  0  0  0  0  0  0
   -3.7836    3.1164    1.3492 H   0  0  0  0  0  0  0  0  0  0  0  0
   -1.2769    6.1523    0.3166 N   0  0  0  0  0  0  0  0  0  0  0  0
   -0.5542    7.3983    0.4228 C   0  0  0  0  0  0  0  0  0  0  0  0
   -2.0684    6.1162   -0.3189 H   0  0  0  0  0  0  0  0  0  0  0  0
   -1.0002    8.0149    1.2171 H   0  0  0  0  0  0  0  0  0  0  0  0
    0.4984    7.1919    0.6665 H   0  0  0  0  0  0  0  0  0  0  0  0
   -0.6101    7.9372   -0.5345 H   0  0  0  0  0  0  0  0  0  0  0  0
  1  3  1  0  0  0  0
  1  7  1  0  0  0  0
  1  2  2  0  0  0  0
 34 35  1  0  0  0  0
 35 43  1  0  0  0  0
 35 36  2  0  0  0  0
  8  9  1  0  0  0  0
  9 17  1  0  0  0  0
  9 10  2  0  0  0  0
 18 19  1  0  0  0  0
 19 33  1  0  0  0  0
 19 20  2  0  0  0  0
 22 23  1  0  0  0  0
 23 24  2  0  0  0  0
 23 25  1  0  0  0  0
 34 37  1  0  0  0  0
  8 11  1  0  0  0  0
 43 44  1  0  0  0  0
 21 22  1  0  0  0  0
 18 21  1  0  0  0  0
 33 34  1  0  0  0  0
  7  8  1  0  0  0  0
 17 18  1  0  0  0  0
  3  4  1  0  0  0  0
  3  5  1  0  0  0  0
  3  6  1  0  0  0  0
 37 40  1  0  0  0  0
 37 41  1  0  0  0  0
 37 42  1  0  0  0  0
 11 14  1  0  0  0  0
 11 15  1  0  0  0  0
 11 16  1  0  0  0  0
 44 46  1  0  0  0  0
 44 47  1  0  0  0  0
 44 48  1  0  0  0  0
 22 30  1  0  0  0  0
 22 31  1  0  0  0  0
 21 28  1  0  0  0  0
 21 29  1  0  0  0  0
 34 39  1  0  0  0  0
  8 13  1  0  0  0  0
 18 27  1  0  0  0  0
 43 45  1  0  0  0  0
  7 12  1  0  0  0  0
 33 38  1  0  0  0  0
 17 26  1  0  0  0  0
 25 32  1  0  0  0  0
M  END
$$$$

  -OEChem-05262214473D

 48 47  0     1  0  0  0  0  0999 V2000
   -5.5827   -1.3473    1.4591 C   0  0  0  0  0  0  0  0  0  0  0  0
   -5.7053   -2.4696    0.9825 O   0  0  0  0  0  0  0  0  0  0  0  0
   -6.7879   -0.6277    1.9670 C   0  0  0  0  0  0  0  0  0  0  0  0
   -7.2718   -0.0164    1.1885 H   0  0  0  0  0  0  0  0  0  0  0  0
   -7.5699   -1.3171    2.3239 H   0  0  0  0  0  0  0  0  0  0  0  0
   -6.6057    0.0628    2.8060 H   0  0  0  0  0  0  0  0  0  0  0  0
   -4.4001   -0.6377    1.5884 N   0  0  0  0  0  0  0  0  0  0  0  0
   -3.1220   -1.1455    1.1644 C   0  0  2  0  0  0  0  0  0  0  0  0
   -2.2017    0.0428    0.9187 C   0  0  0  0  0  0  0  0  0  0  0  0
   -2.6171    1.1750    0.6807 O   0  0  0  0  0  0  0  0  0  0  0  0
   -3.2533   -1.9992   -0.0873 C   0  0  0  0  0  0  0  0  0  0  0  0
   -4.4370    0.2910    2.0047 H   0  0  0  0  0  0  0  0  0  0  0  0
   -2.7302   -1.7467    1.9921 H   0  0  0  0  0  0  0  0  0  0  0  0
   -3.6446   -1.4140   -0.9275 H   0  0  0  0  0  0  0  0  0  0  0  0
   -2.2844   -2.4081   -0.3922 H   0  0  0  0  0  0  0  0  0  0  0  0
   -3.9388   -2.8365    0.0822 H   0  0  0  0  0  0  0  0  0  0  0  0
   -0.8768   -0.3314    0.9568 N   0  0  0  0  0  0  0  0  0  0  0  0
    0.2067    0.6285    0.7375 C   0  0  2  0  0  0  0  0  0  0  0  0
   -0.4347    1.8691    0.1233 C   0  0  0  0  0  0  0  0  0  0  0  0
   -0.5801    2.0059   -1.0898 O   0  0  0  0  0  0  0  0  0  0  0  0
    1.2622    0.0005   -0.1849 C   0  0  0  0  0  0  0  0  0  0  0  0
    2.0066   -1.1748    0.4486 C   0  0  0  0  0  0  0  0  0  0  0  0
    3.0159   -1.7784   -0.4959 C   0  0  0  0  0  0  0  0  0  0  0  0
    3.1277   -1.4549   -1.6715 O   0  0  0  0  0  0  0  0  0  0  0  0
    3.7738   -2.7401    0.0864 O   0  0  0  0  0  0  0  0  0  0  0  0
   -0.6087   -1.2764    1.1771 H   0  0  0  0  0  0  0  0  0  0  0  0
    0.6563    0.8699    1.7062 H   0  0  0  0  0  0  0  0  0  0  0  0
    0.7772   -0.3415   -1.1089 H   0  0  0  0  0  0  0  0  0  0  0  0
    2.0031    0.7549   -0.4806 H   0  0  0  0  0  0  0  0  0  0  0  0
    2.5628   -0.8282    1.3282 H   0  0  0  0  0  0  0  0  0  0  0  0
    1.3199   -1.9425    0.8198 H   0  0  0  0  0  0  0  0  0  0  0  0
    4.4312   -3.1719   -0.4995 H   0  0  0  0  0  0  0  0  0  0  0  0
   -0.8470    2.7814    1.0833 N   0  0  0  0  0  0  0  0  0  0  0  0
   -1.4851    4.0372    0.7602 C   0  0  2  0  0  0  0  0  0  0  0  0
   -0.4062    5.1104    0.6972 C   0  0  0  0  0  0  0  0  0  0  0  0
    0.6795    5.0041    1.2637 O   0  0  0  0  0  0  0  0  0  0  0  0
   -2.5500    4.3966    1.7847 C   0  0  0  0  0  0  0  0  0  0  0  0
   -0.6929    2.5557    2.0614 H   0  0  0  0  0  0  0  0  0  0  0  0
   -1.9387    3.9161   -0.2296 H   0  0  0  0  0  0  0  0  0  0  0  0
   -2.1143    4.5221    2.7826 H   0  0  0  0  0  0  0  0  0  0  0  0
   -3.0520    5.3338    1.5230 H   0  0  0  0  0  0  0  0  0  0  0  0
   -3.3092    3.6097    1.8500 H   0  0  0  0  0  0  0  0  0  0  0  0
   -0.8150    6.2193   -0.0303 N   0  0  0  0  0  0  0  0  0  0  0  0
    0.0257    7.3776   -0.2245 C   0  0  0  0  0  0  0  0  0  0  0  0
   -1.7251    6.2133   -0.4814 H   0  0  0  0  0  0  0  0  0  0  0  0
   -0.1790    8.1163    0.5644 H   0  0  0  0  0  0  0  0  0  0  0  0
    1.0823    7.0754   -0.1785 H   0  0  0  0  0  0  0  0  0  0  0  0
   -0.1858    7.8232   -1.2077 H   0  0  0  0  0  0  0  0  0  0  0  0
  1  3  1  0  0  0  0
  1  7  1  0  0  0  0
  1  2  2  0  0  0  0
 34 35  1  0  0  0  0
 35 43  1  0  0  0  0
 35 36  2  0  0  0  0
  8  9  1  0  0  0  0
  9 17  1  0  0  0  0
  9 10  2  0  0  0  0
 18 19  1  0  0  0  0
 19 33  1  0  0  0  0
 19 20  2  0  0  0  0
 22 23  1  0  0  0  0
 23 24  2  0  0  0  0
 23 25  1  0  0  0  0
 34 37  1  0  0  0  0
  8 11  1  0  0  0  0
 43 44  1  0  0  0  0
 21 22  1  0  0  0  0
 18 21  1  0  0  0  0
 33 34  1  0  0  0  0
  7  8  1  0  0  0  0
 17 18  1  0  0  0  0
  3  4  1  0  0  0  0
  3  5  1  0  0  0  0
  3  6  1  0  0  0  0
 37 40  1  0  0  0  0
 37 41  1  0  0  0  0
 37 42  1  0  0  0  0
 11 14  1  0  0  0  0
 11 15  1  0  0  0  0
 11 16  1  0  0  0  0
 44 46  1  0  0  0  0
 44 47  1  0  0  0  0
 44 48  1  0  0  0  0
 22 30  1  0  0  0  0
 22 31  1  0  0  0  0
 21 28  1  0  0  0  0
 21 29  1  0  0  0  0
 34 39  1  0  0  0  0
  8 13  1  0  0  0  0
 18 27  1  0  0  0  0
 43 45  1  0  0  0  0
  7 12  1  0  0  0  0
 33 38  1  0  0  0  0
 17 26  1  0  0  0  0
 25 32  1  0  0  0  0
M  END
$$$$

  -OEChem-05262214473D

 48 47  0     1  0  0  0  0  0999 V2000
   -5.5827   -1.3473    1.4591 C   0  0  0  0  0  0  0  0  0  0  0  0
   -5.7053   -2.4696    0.9825 O   0  0  0  0  0  0  0  0  0  0  0  0
   -6.7879   -0.6277    1.9670 C   0  0  0  0  0  0  0  0  0  0  0  0
   -7.2718   -0.0164    1.1885 H   0  0  0  0  0  0  0  0  0  0  0  0
   -7.5699   -1.3171    2.3239 H   0  0  0  0  0  0  0  0  0  0  0  0
   -6.6057    0.0628    2.8060 H   0  0  0  0  0  0  0  0  0  0  0  0
   -4.4001   -0.6377    1.5884 N   0  0  0  0  0  0  0  0  0  0  0  0
   -3.1220   -1.1455    1.1644 C   0  0  2  0  0  0  0  0  0  0  0  0
   -2.2017    0.0428    0.9187 C   0  0  0  0  0  0  0  0  0  0  0  0
   -2.6171    1.1750    0.6807 O   0  0  0  0  0  0  0  0  0  0  0  0
   -3.2533   -1.9992   -0.0873 C   0  0  0  0  0  0  0  0  0  0  0  0
   -4.4370    0.2910    2.0047 H   0  0  0  0  0  0  0  0  0  0  0  0
   -2.7302   -1.7467    1.9921 H   0  0  0  0  0  0  0  0  0  0  0  0
   -3.6446   -1.4140   -0.9275 H   0  0  0  0  0  0  0  0  0  0  0  0
   -2.2844   -2.4081   -0.3922 H   0  0  0  0  0  0  0  0  0  0  0  0
   -3.9388   -2.8365    0.0822 H   0  0  0  0  0  0  0  0  0  0  0  0
   -0.8768   -0.3314    0.9568 N   0  0  0  0  0  0  0  0  0  0  0  0
    0.2067    0.6285    0.7375 C   0  0  2  0  0  0  0  0  0  0  0  0
   -0.4347    1.8691    0.1233 C   0  0  0  0  0  0  0  0  0  0  0  0
   -0.8256    1.9027   -1.0419 O   0  0  0  0  0  0  0  0  0  0  0  0
    1.2622    0.0005   -0.1849 C   0  0  0  0  0  0  0  0  0  0  0  0
    2.0066   -1.1748    0.4486 C   0  0  0  0  0  0  0  0  0  0  0  0
    3.0159   -1.7784   -0.4959 C   0  0  0  0  0  0  0  0  0  0  0  0
    3.1277   -1.4549   -1.6715 O   0  0  0  0  0  0  0  0  0  0  0  0
    3.7738   -2.7401    0.0864 O   0  0  0  0  0  0  0  0  0  0  0  0
   -0.6087   -1.2764    1.1771 H   0  0  0  0  0  0  0  0  0  0  0  0
    0.6563    0.8699    1.7062 H   0  0  0  0  0  0  0  0  0  0  0  0
    0.7772   -0.3415   -1.1089 H   0  0  0  0  0  0  0  0  0  0  0  0
    2.0031    0.7549   -0.4806 H   0  0  0  0  0  0  0  0  0  0  0  0
    2.5628   -0.8282    1.3282 H   0  0  0  0  0  0  0  0  0  0  0  0
    1.3199   -1.9425    0.8198 H   0  0  0  0  0  0  0  0  0  0  0  0
    4.4312   -3.1719   -0.4995 H   0  0  0  0  0  0  0  0  0  0  0  0
   -0.5434    2.9124    1.0308 N   0  0  0  0  0  0  0  0  0  0  0  0
   -1.1172    4.1961    0.6969 C   0  0  2  0  0  0  0  0  0  0  0  0
    0.0171    5.1257    0.2861 C   0  0  0  0  0  0  0  0  0  0  0  0
    1.1850    4.9502    0.6270 O   0  0  0  0  0  0  0  0  0  0  0  0
   -1.8975    4.7747    1.8670 C   0  0  0  0  0  0  0  0  0  0  0  0
   -0.2031    2.7670    1.9765 H   0  0  0  0  0  0  0  0  0  0  0  0
   -1.7833    4.0322   -0.1572 H   0  0  0  0  0  0  0  0  0  0  0  0
   -1.2466    4.9457    2.7322 H   0  0  0  0  0  0  0  0  0  0  0  0
   -2.3553    5.7337    1.6031 H   0  0  0  0  0  0  0  0  0  0  0  0
   -2.6941    4.0912    2.1803 H   0  0  0  0  0  0  0  0  0  0  0  0
   -0.4349    6.1982   -0.4699 N   0  0  0  0  0  0  0  0  0  0  0  0
    0.4474    7.2267   -0.9696 C   0  0  0  0  0  0  0  0  0  0  0  0
   -1.4176    6.2536   -0.7211 H   0  0  0  0  0  0  0  0  0  0  0  0
    0.4874    8.0576   -0.2499 H   0  0  0  0  0  0  0  0  0  0  0  0
    1.4564    6.8101   -1.1050 H   0  0  0  0  0  0  0  0  0  0  0  0
    0.0705    7.5957   -1.9349 H   0  0  0  0  0  0  0  0  0  0  0  0
  1  3  1  0  0  0  0
  1  7  1  0  0  0  0
  1  2  2  0  0  0  0
 34 35  1  0  0  0  0
 35 43  1  0  0  0  0
 35 36  2  0  0  0  0
  8  9  1  0  0  0  0
  9 17  1  0  0  0  0
  9 10  2  0  0  0  0
 18 19  1  0  0  0  0
 19 33  1  0  0  0  0
 19 20  2  0  0  0  0
 22 23  1  0  0  0  0
 23 24  2  0  0  0  0
 23 25  1  0  0  0  0
 34 37  1  0  0  0  0
  8 11  1  0  0  0  0
 43 44  1  0  0  0  0
 21 22  1  0  0  0  0
 18 21  1  0  0  0  0
 33 34  1  0  0  0  0
  7  8  1  0  0  0  0
 17 18  1  0  0  0  0
  3  4  1  0  0  0  0
  3  5  1  0  0  0  0
  3  6  1  0  0  0  0
 37 40  1  0  0  0  0
 37 41  1  0  0  0  0
 37 42  1  0  0  0  0
 11 14  1  0  0  0  0
 11 15  1  0  0  0  0
 11 16  1  0  0  0  0
 44 46  1  0  0  0  0
 44 47  1  0  0  0  0
 44 48  1  0  0  0  0
 22 30  1  0  0  0  0
 22 31  1  0  0  0  0
 21 28  1  0  0  0  0
 21 29  1  0  0  0  0
 34 39  1  0  0  0  0
  8 13  1  0  0  0  0
 18 27  1  0  0  0  0
 43 45  1  0  0  0  0
  7 12  1  0  0  0  0
 33 38  1  0  0  0  0
 17 26  1  0  0  0  0
 25 32  1  0  0  0  0
M  END
$$$$

  -OEChem-05262214473D

 48 47  0     1  0  0  0  0  0999 V2000
   -5.5827   -1.3473    1.4591 C   0  0  0  0  0  0  0  0  0  0  0  0
   -5.7053   -2.4696    0.9825 O   0  0  0  0  0  0  0  0  0  0  0  0
   -6.7879   -0.6277    1.9670 C   0  0  0  0  0  0  0  0  0  0  0  0
   -7.2718   -0.0164    1.1885 H   0  0  0  0  0  0  0  0  0  0  0  0
   -7.5699   -1.3171    2.3239 H   0  0  0  0  0  0  0  0  0  0  0  0
   -6.6057    0.0628    2.8060 H   0  0  0  0  0  0  0  0  0  0  0  0
   -4.4001   -0.6377    1.5884 N   0  0  0  0  0  0  0  0  0  0  0  0
   -3.1220   -1.1455    1.1644 C   0  0  2  0  0  0  0  0  0  0  0  0
   -2.2017    0.0428    0.9187 C   0  0  0  0  0  0  0  0  0  0  0  0
   -2.6171    1.1750    0.6807 O   0  0  0  0  0  0  0  0  0  0  0  0
   -3.2533   -1.9992   -0.0873 C   0  0  0  0  0  0  0  0  0  0  0  0
   -4.4370    0.2910    2.0047 H   0  0  0  0  0  0  0  0  0  0  0  0
   -2.7302   -1.7467    1.9921 H   0  0  0  0  0  0  0  0  0  0  0  0
   -3.6446   -1.4140   -0.9275 H   0  0  0  0  0  0  0  0  0  0  0  0
   -2.2844   -2.4081   -0.3922 H   0  0  0  0  0  0  0  0  0  0  0  0
   -3.9388   -2.8365    0.0822 H   0  0  0  0  0  0  0  0  0  0  0  0
   -0.8768   -0.3314    0.9568 N   0  0  0  0  0  0  0  0  0  0  0  0
    0.2067    0.6285    0.7375 C   0  0  2  0  0  0  0  0  0  0  0  0
   -0.4347    1.8691    0.1233 C   0  0  0  0  0  0  0  0  0  0  0  0
   -1.0635    1.8338   -0.9326 O   0  0  0  0  0  0  0  0  0  0  0  0
    1.2622    0.0005   -0.1849 C   0  0  0  0  0  0  0  0  0  0  0  0
    2.0066   -1.1748    0.4486 C   0  0  0  0  0  0  0  0  0  0  0  0
    3.0159   -1.7784   -0.4959 C   0  0  0  0  0  0  0  0  0  0  0  0
    3.1277   -1.4549   -1.6715 O   0  0  0  0  0  0  0  0  0  0  0  0
    3.7738   -2.7401    0.0864 O   0  0  0  0  0  0  0  0  0  0  0  0
   -0.6087   -1.2764    1.1771 H   0  0  0  0  0  0  0  0  0  0  0  0
    0.6563    0.8699    1.7062 H   0  0  0  0  0  0  0  0  0  0  0  0
    0.7772   -0.3415   -1.1089 H   0  0  0  0  0  0  0  0  0  0  0  0
    2.0031    0.7549   -0.4806 H   0  0  0  0  0  0  0  0  0  0  0  0
    2.5628   -0.8282    1.3282 H   0  0  0  0  0  0  0  0  0  0  0  0
    1.3199   -1.9425    0.8198 H   0  0  0  0  0  0  0  0  0  0  0  0
    4.4312   -3.1719   -0.4995 H   0  0  0  0  0  0  0  0  0  0  0  0
   -0.2476    3.0015    0.9020 N   0  0  0  0  0  0  0  0  0  0  0  0
   -0.7587    4.3043    0.5411 C   0  0  2  0  0  0  0  0  0  0  0  0
    0.3410    5.0517   -0.2017 C   0  0  0  0  0  0  0  0  0  0  0  0
    1.5337    4.7761   -0.0885 O   0  0  0  0  0  0  0  0  0  0  0  0
   -1.2105    5.0809    1.7681 C   0  0  0  0  0  0  0  0  0  0  0  0
    0.2742    2.9108    1.7685 H   0  0  0  0  0  0  0  0  0  0  0  0
   -1.6059    4.1361   -0.1326 H   0  0  0  0  0  0  0  0  0  0  0  0
   -0.3750    5.2590    2.4548 H   0  0  0  0  0  0  0  0  0  0  0  0
   -1.6238    6.0561    1.4904 H   0  0  0  0  0  0  0  0  0  0  0  0
   -1.9802    4.5282    2.3174 H   0  0  0  0  0  0  0  0  0  0  0  0
   -0.1625    6.0903   -0.9723 N   0  0  0  0  0  0  0  0  0  0  0  0
    0.6822    6.9559   -1.7617 C   0  0  0  0  0  0  0  0  0  0  0  0
   -1.1668    6.2344   -1.0218 H   0  0  0  0  0  0  0  0  0  0  0  0
    0.9536    7.8429   -1.1704 H   0  0  0  0  0  0  0  0  0  0  0  0
    1.5951    6.4140   -2.0497 H   0  0  0  0  0  0  0  0  0  0  0  0
    0.1414    7.2701   -2.6665 H   0  0  0  0  0  0  0  0  0  0  0  0
  1  3  1  0  0  0  0
  1  7  1  0  0  0  0
  1  2  2  0  0  0  0
 34 35  1  0  0  0  0
 35 43  1  0  0  0  0
 35 36  2  0  0  0  0
  8  9  1  0  0  0  0
  9 17  1  0  0  0  0
  9 10  2  0  0  0  0
 18 19  1  0  0  0  0
 19 33  1  0  0  0  0
 19 20  2  0  0  0  0
 22 23  1  0  0  0  0
 23 24  2  0  0  0  0
 23 25  1  0  0  0  0
 34 37  1  0  0  0  0
  8 11  1  0  0  0  0
 43 44  1  0  0  0  0
 21 22  1  0  0  0  0
 18 21  1  0  0  0  0
 33 34  1  0  0  0  0
  7  8  1  0  0  0  0
 17 18  1  0  0  0  0
  3  4  1  0  0  0  0
  3  5  1  0  0  0  0
  3  6  1  0  0  0  0
 37 40  1  0  0  0  0
 37 41  1  0  0  0  0
 37 42  1  0  0  0  0
 11 14  1  0  0  0  0
 11 15  1  0  0  0  0
 11 16  1  0  0  0  0
 44 46  1  0  0  0  0
 44 47  1  0  0  0  0
 44 48  1  0  0  0  0
 22 30  1  0  0  0  0
 22 31  1  0  0  0  0
 21 28  1  0  0  0  0
 21 29  1  0  0  0  0
 34 39  1  0  0  0  0
  8 13  1  0  0  0  0
 18 27  1  0  0  0  0
 43 45  1  0  0  0  0
  7 12  1  0  0  0  0
 33 38  1  0  0  0  0
 17 26  1  0  0  0  0
 25 32  1  0  0  0  0
M  END
$$$$

  -OEChem-05262214473D

 48 47  0     1  0  0  0  0  0999 V2000
   -5.5827   -1.3473    1.4591 C   0  0  0  0  0  0  0  0  0  0  0  0
   -5.7053   -2.4696    0.9825 O   0  0  0  0  0  0  0  0  0  0  0  0
   -6.7879   -0.6277    1.9670 C   0  0  0  0  0  0  0  0  0  0  0  0
   -7.2718   -0.0164    1.1885 H   0  0  0  0  0  0  0  0  0  0  0  0
   -7.5699   -1.3171    2.3239 H   0  0  0  0  0  0  0  0  0  0  0  0
   -6.6057    0.0628    2.8060 H   0  0  0  0  0  0  0  0  0  0  0  0
   -4.4001   -0.6377    1.5884 N   0  0  0  0  0  0  0  0  0  0  0  0
   -3.1220   -1.1455    1.1644 C   0  0  2  0  0  0  0  0  0  0  0  0
   -2.2017    0.0428    0.9187 C   0  0  0  0  0  0  0  0  0  0  0  0
   -2.6171    1.1750    0.6807 O   0  0  0  0  0  0  0  0  0  0  0  0
   -3.2533   -1.9992   -0.0873 C   0  0  0  0  0  0  0  0  0  0  0  0
   -4.4370    0.2910    2.0047 H   0  0  0  0  0  0  0  0  0  0  0  0
   -2.7302   -1.7467    1.9921 H   0  0  0  0  0  0  0  0  0  0  0  0
   -3.6446   -1.4140   -0.9275 H   0  0  0  0  0  0  0  0  0  0  0  0
   -2.2844   -2.4081   -0.3922 H   0  0  0  0  0  0  0  0  0  0  0  0
   -3.9388   -2.8365    0.0822 H   0  0  0  0  0  0  0  0  0  0  0  0
   -0.8768   -0.3314    0.9568 N   0  0  0  0  0  0  0  0  0  0  0  0
    0.2067    0.6285    0.7375 C   0  0  2  0  0  0  0  0  0  0  0  0
   -0.4347    1.8691    0.1233 C   0  0  0  0  0  0  0  0  0  0  0  0
   -1.2774    1.8040   -0.7695 O   0  0  0  0  0  0  0  0  0  0  0  0
    1.2622    0.0005   -0.1849 C   0  0  0  0  0  0  0  0  0  0  0  0
    2.0066   -1.1748    0.4486 C   0  0  0  0  0  0  0  0  0  0  0  0
    3.0159   -1.7784   -0.4959 C   0  0  0  0  0  0  0  0  0  0  0  0
    3.1277   -1.4549   -1.6715 O   0  0  0  0  0  0  0  0  0  0  0  0
    3.7738   -2.7401    0.0864 O   0  0  0  0  0  0  0  0  0  0  0  0
   -0.6087   -1.2764    1.1771 H   0  0  0  0  0  0  0  0  0  0  0  0
    0.6563    0.8699    1.7062 H   0  0  0  0  0  0  0  0  0  0  0  0
    0.7772   -0.3415   -1.1089 H   0  0  0  0  0  0  0  0  0  0  0  0
    2.0031    0.7549   -0.4806 H   0  0  0  0  0  0  0  0  0  0  0  0
    2.5628   -0.8282    1.3282 H   0  0  0  0  0  0  0  0  0  0  0  0
    1.3199   -1.9425    0.8198 H   0  0  0  0  0  0  0  0  0  0  0  0
    4.4312   -3.1719   -0.4995 H   0  0  0  0  0  0  0  0  0  0  0  0
    0.0204    3.0428    0.7056 N   0  0  0  0  0  0  0  0  0  0  0  0
   -0.4339    4.3545    0.3033 C   0  0  2  0  0  0  0  0  0  0  0  0
    0.5436    4.8933   -0.7329 C   0  0  0  0  0  0  0  0  0  0  0  0
    1.7017    4.4939   -0.8341 O   0  0  0  0  0  0  0  0  0  0  0  0
   -0.5358    5.2943    1.4946 C   0  0  0  0  0  0  0  0  0  0  0  0
    0.7065    2.9773    1.4515 H   0  0  0  0  0  0  0  0  0  0  0  0
   -1.4186    4.2206   -0.1575 H   0  0  0  0  0  0  0  0  0  0  0  0
    0.4412    5.4406    1.9694 H   0  0  0  0  0  0  0  0  0  0  0  0
   -0.9073    6.2790    1.1925 H   0  0  0  0  0  0  0  0  0  0  0  0
   -1.2163    4.8908    2.2522 H   0  0  0  0  0  0  0  0  0  0  0  0
   -0.0164    5.9030   -1.5031 N   0  0  0  0  0  0  0  0  0  0  0  0
    0.7141    6.5837   -2.5467 C   0  0  0  0  0  0  0  0  0  0  0  0
   -0.9898    6.1570   -1.3629 H   0  0  0  0  0  0  0  0  0  0  0  0
    1.1879    7.4868   -2.1342 H   0  0  0  0  0  0  0  0  0  0  0  0
    1.4890    5.9142   -2.9483 H   0  0  0  0  0  0  0  0  0  0  0  0
    0.0219    6.8686   -3.3527 H   0  0  0  0  0  0  0  0  0  0  0  0
  1  3  1  0  0  0  0
  1  7  1  0  0  0  0
  1  2  2  0  0  0  0
 34 35  1  0  0  0  0
 35 43  1  0  0  0  0
 35 36  2  0  0  0  0
  8  9  1  0  0  0  0
  9 17  1  0  0  0  0
  9 10  2  0  0  0  0
 18 19  1  0  0  0  0
 19 33  1  0  0  0  0
 19 20  2  0  0  0  0
 22 23  1  0  0  0  0
 23 24  2  0  0  0  0
 23 25  1  0  0  0  0
 34 37  1  0  0  0  0
  8 11  1  0  0  0  0
 43 44  1  0  0  0  0
 21 22  1  0  0  0  0
 18 21  1  0  0  0  0
 33 34  1  0  0  0  0
  7  8  1  0  0  0  0
 17 18  1  0  0  0  0
  3  4  1  0  0  0  0
  3  5  1  0  0  0  0
  3  6  1  0  0  0  0
 37 40  1  0  0  0  0
 37 41  1  0  0  0  0
 37 42  1  0  0  0  0
 11 14  1  0  0  0  0
 11 15  1  0  0  0  0
 11 16  1  0  0  0  0
 44 46  1  0  0  0  0
 44 47  1  0  0  0  0
 44 48  1  0  0  0  0
 22 30  1  0  0  0  0
 22 31  1  0  0  0  0
 21 28  1  0  0  0  0
 21 29  1  0  0  0  0
 34 39  1  0  0  0  0
  8 13  1  0  0  0  0
 18 27  1  0  0  0  0
 43 45  1  0  0  0  0
  7 12  1  0  0  0  0
 33 38  1  0  0  0  0
 17 26  1  0  0  0  0
 25 32  1  0  0  0  0
M  END
$$$$

  -OEChem-05262214473D

 48 47  0     1  0  0  0  0  0999 V2000
   -5.5827   -1.3473    1.4591 C   0  0  0  0  0  0  0  0  0  0  0  0
   -5.7053   -2.4696    0.9825 O   0  0  0  0  0  0  0  0  0  0  0  0
   -6.7879   -0.6277    1.9670 C   0  0  0  0  0  0  0  0  0  0  0  0
   -7.2718   -0.0164    1.1885 H   0  0  0  0  0  0  0  0  0  0  0  0
   -7.5699   -1.3171    2.3239 H   0  0  0  0  0  0  0  0  0  0  0  0
   -6.6057    0.0628    2.8060 H   0  0  0  0  0  0  0  0  0  0  0  0
   -4.4001   -0.6377    1.5884 N   0  0  0  0  0  0  0  0  0  0  0  0
   -3.1220   -1.1455    1.1644 C   0  0  2  0  0  0  0  0  0  0  0  0
   -2.2017    0.0428    0.9187 C   0  0  0  0  0  0  0  0  0  0  0  0
   -2.6171    1.1750    0.6807 O   0  0  0  0  0  0  0  0  0  0  0  0
   -3.2533   -1.9992   -0.0873 C   0  0  0  0  0  0  0  0  0  0  0  0
   -4.4370    0.2910    2.0047 H   0  0  0  0  0  0  0  0  0  0  0  0
   -2.7302   -1.7467    1.9921 H   0  0  0  0  0  0  0  0  0  0  0  0
   -3.6446   -1.4140   -0.9275 H   0  0  0  0  0  0  0  0  0  0  0  0
   -2.2844   -2.4081   -0.3922 H   0  0  0  0  0  0  0  0  0  0  0  0
   -3.9388   -2.8365    0.0822 H   0  0  0  0  0  0  0  0  0  0  0  0
   -0.8768   -0.3314    0.9568 N   0  0  0  0  0  0  0  0  0  0  0  0
    0.2067    0.6285    0.7375 C   0  0  2  0  0  0  0  0  0  0  0  0
   -0.4347    1.8691    0.1233 C   0  0  0  0  0  0  0  0  0  0  0  0
   -1.4528    1.8152   -0.5637 O   0  0  0  0  0  0  0  0  0  0  0  0
    1.2622    0.0005   -0.1849 C   0  0  0  0  0  0  0  0  0  0  0  0
    2.0066   -1.1748    0.4486 C   0  0  0  0  0  0  0  0  0  0  0  0
    3.0159   -1.7784   -0.4959 C   0  0  0  0  0  0  0  0  0  0  0  0
    3.1277   -1.4549   -1.6715 O   0  0  0  0  0  0  0  0  0  0  0  0
    3.7738   -2.7401    0.0864 O   0  0  0  0  0  0  0  0  0  0  0  0
   -0.6087   -1.2764    1.1771 H   0  0  0  0  0  0  0  0  0  0  0  0
    0.6563    0.8699    1.7062 H   0  0  0  0  0  0  0  0  0  0  0  0
    0.7772   -0.3415   -1.1089 H   0  0  0  0  0  0  0  0  0  0  0  0
    2.0031    0.7549   -0.4806 H   0  0  0  0  0  0  0  0  0  0  0  0
    2.5628   -0.8282    1.3282 H   0  0  0  0  0  0  0  0  0  0  0  0
    1.3199   -1.9425    0.8198 H   0  0  0  0  0  0  0  0  0  0  0  0
    4.4312   -3.1719   -0.4995 H   0  0  0  0  0  0  0  0  0  0  0  0
    0.2422    3.0334    0.4551 N   0  0  0  0  0  0  0  0  0  0  0  0
   -0.1649    4.3433   -0.0001 C   0  0  2  0  0  0  0  0  0  0  0  0
    0.6109    4.6615   -1.2715 C   0  0  0  0  0  0  0  0  0  0  0  0
    1.6777    4.1226   -1.5589 O   0  0  0  0  0  0  0  0  0  0  0  0
    0.0805    5.4004    1.0653 C   0  0  0  0  0  0  0  0  0  0  0  0
    1.0642    2.9620    1.0470 H   0  0  0  0  0  0  0  0  0  0  0  0
   -1.2341    4.2801   -0.2302 H   0  0  0  0  0  0  0  0  0  0  0  0
    1.1464    5.4782    1.3090 H   0  0  0  0  0  0  0  0  0  0  0  0
   -0.2547    6.3873    0.7297 H   0  0  0  0  0  0  0  0  0  0  0  0
   -0.4544    5.1544    1.9889 H   0  0  0  0  0  0  0  0  0  0  0  0
   -0.0064    5.6492   -2.0262 N   0  0  0  0  0  0  0  0  0  0  0  0
    0.5409    6.1355   -3.2712 C   0  0  0  0  0  0  0  0  0  0  0  0
   -0.8987    6.0267   -1.7212 H   0  0  0  0  0  0  0  0  0  0  0  0
    1.1742    7.0135   -3.0758 H   0  0  0  0  0  0  0  0  0  0  0  0
    1.1452    5.3447   -3.7396 H   0  0  0  0  0  0  0  0  0  0  0  0
   -0.2798    6.4185   -3.9466 H   0  0  0  0  0  0  0  0  0  0  0  0
  1  3  1  0  0  0  0
  1  7  1  0  0  0  0
  1  2  2  0  0  0  0
 34 35  1  0  0  0  0
 35 43  1  0  0  0  0
 35 36  2  0  0  0  0
  8  9  1  0  0  0  0
  9 17  1  0  0  0  0
  9 10  2  0  0  0  0
 18 19  1  0  0  0  0
 19 33  1  0  0  0  0
 19 20  2  0  0  0  0
 22 23  1  0  0  0  0
 23 24  2  0  0  0  0
 23 25  1  0  0  0  0
 34 37  1  0  0  0  0
  8 11  1  0  0  0  0
 43 44  1  0  0  0  0
 21 22  1  0  0  0  0
 18 21  1  0  0  0  0
 33 34  1  0  0  0  0
  7  8  1  0  0  0  0
 17 18  1  0  0  0  0
  3  4  1  0  0  0  0
  3  5  1  0  0  0  0
  3  6  1  0  0  0  0
 37 40  1  0  0  0  0
 37 41  1  0  0  0  0
 37 42  1  0  0  0  0
 11 14  1  0  0  0  0
 11 15  1  0  0  0  0
 11 16  1  0  0  0  0
 44 46  1  0  0  0  0
 44 47  1  0  0  0  0
 44 48  1  0  0  0  0
 22 30  1  0  0  0  0
 22 31  1  0  0  0  0
 21 28  1  0  0  0  0
 21 29  1  0  0  0  0
 34 39  1  0  0  0  0
  8 13  1  0  0  0  0
 18 27  1  0  0  0  0
 43 45  1  0  0  0  0
  7 12  1  0  0  0  0
 33 38  1  0  0  0  0
 17 26  1  0  0  0  0
 25 32  1  0  0  0  0
M  END
$$$$

  -OEChem-05262214473D

 48 47  0     1  0  0  0  0  0999 V2000
   -5.5827   -1.3473    1.4591 C   0  0  0  0  0  0  0  0  0  0  0  0
   -5.7053   -2.4696    0.9825 O   0  0  0  0  0  0  0  0  0  0  0  0
   -6.7879   -0.6277    1.9670 C   0  0  0  0  0  0  0  0  0  0  0  0
   -7.2718   -0.0164    1.1885 H   0  0  0  0  0  0  0  0  0  0  0  0
   -7.5699   -1.3171    2.3239 H   0  0  0  0  0  0  0  0  0  0  0  0
   -6.6057    0.0628    2.8060 H   0  0  0  0  0  0  0  0  0  0  0  0
   -4.4001   -0.6377    1.5884 N   0  0  0  0  0  0  0  0  0  0  0  0
   -3.1220   -1.1455    1.1644 C   0  0  2  0  0  0  0  0  0  0  0  0
   -2.2017    0.0428    0.9187 C   0  0  0  0  0  0  0  0  0  0  0  0
   -2.6171    1.1750    0.6807 O   0  0  0  0  0  0  0  0  0  0  0  0
   -3.2533   -1.9992   -0.0873 C   0  0  0  0  0  0  0  0  0  0  0  0
   -4.4370    0.2910    2.0047 H   0  0  0  0  0  0  0  0  0  0  0  0
   -2.7302   -1.7467    1.9921 H   0  0  0  0  0  0  0  0  0  0  0  0
   -3.6446   -1.4140   -0.9275 H   0  0  0  0  0  0  0  0  0  0  0  0
   -2.2844   -2.4081   -0.3922 H   0  0  0  0  0  0  0  0  0  0  0  0
   -3.9388   -2.8365    0.0822 H   0  0  0  0  0  0  0  0  0  0  0  0
   -0.8768   -0.3314    0.9568 N   0  0  0  0  0  0  0  0  0  0  0  0
    0.2067    0.6285    0.7375 C   0  0  2  0  0  0  0  0  0  0  0  0
   -0.4347    1.8691    0.1233 C   0  0  0  0  0  0  0  0  0  0  0  0
   -1.5778    1.8667   -0.3292 O   0  0  0  0  0  0  0  0  0  0  0  0
    1.2622    0.0005   -0.1849 C   0  0  0  0  0  0  0  0  0  0  0  0
    2.0066   -1.1748    0.4486 C   0  0  0  0  0  0  0  0  0  0  0  0
    3.0159   -1.7784   -0.4959 C   0  0  0  0  0  0  0  0  0  0  0  0
    3.1277   -1.4549   -1.6715 O   0  0  0  0  0  0  0  0  0  0  0  0
    3.7738   -2.7401    0.0864 O   0  0  0  0  0  0  0  0  0  0  0  0
   -0.6087   -1.2764    1.1771 H   0  0  0  0  0  0  0  0  0  0  0  0
    0.6563    0.8699    1.7062 H   0  0  0  0  0  0  0  0  0  0  0  0
    0.7772   -0.3415   -1.1089 H   0  0  0  0  0  0  0  0  0  0  0  0
    2.0031    0.7549   -0.4806 H   0  0  0  0  0  0  0  0  0  0  0  0
    2.5628   -0.8282    1.3282 H   0  0  0  0  0  0  0  0  0  0  0  0
    1.3199   -1.9425    0.8198 H   0  0  0  0  0  0  0  0  0  0  0  0
    4.4312   -3.1719   -0.4995 H   0  0  0  0  0  0  0  0  0  0  0  0
    0.4027    2.9740    0.1674 N   0  0  0  0  0  0  0  0  0  0  0  0
    0.0298    4.2714   -0.3487 C   0  0  2  0  0  0  0  0  0  0  0  0
    0.5384    4.3719   -1.7807 C   0  0  0  0  0  0  0  0  0  0  0  0
    1.4633    3.6876   -2.2136 O   0  0  0  0  0  0  0  0  0  0  0  0
    0.5966    5.3919    0.5093 C   0  0  0  0  0  0  0  0  0  0  0  0
    1.3231    2.8659    0.5827 H   0  0  0  0  0  0  0  0  0  0  0  0
   -1.0649    4.3103   -0.3457 H   0  0  0  0  0  0  0  0  0  0  0  0
    1.6924    5.3691    0.5185 H   0  0  0  0  0  0  0  0  0  0  0  0
    0.2896    6.3735    0.1335 H   0  0  0  0  0  0  0  0  0  0  0  0
    0.2536    5.3009    1.5456 H   0  0  0  0  0  0  0  0  0  0  0  0
   -0.1333    5.3460   -2.5060 N   0  0  0  0  0  0  0  0  0  0  0  0
    0.1745    5.6418   -3.8857 C   0  0  0  0  0  0  0  0  0  0  0  0
   -0.8997    5.8523   -2.0723 H   0  0  0  0  0  0  0  0  0  0  0  0
    0.9135    6.4553   -3.9309 H   0  0  0  0  0  0  0  0  0  0  0  0
    0.5874    4.7443   -4.3696 H   0  0  0  0  0  0  0  0  0  0  0  0
   -0.7431    5.9506   -4.4079 H   0  0  0  0  0  0  0  0  0  0  0  0
  1  3  1  0  0  0  0
  1  7  1  0  0  0  0
  1  2  2  0  0  0  0
 34 35  1  0  0  0  0
 35 43  1  0  0  0  0
 35 36  2  0  0  0  0
  8  9  1  0  0  0  0
  9 17  1  0  0  0  0
  9 10  2  0  0  0  0
 18 19  1  0  0  0  0
 19 33  1  0  0  0  0
 19 20  2  0  0  0  0
 22 23  1  0  0  0  0
 23 24  2  0  0  0  0
 23 25  1  0  0  0  0
 34 37  1  0  0  0  0
  8 11  1  0  0  0  0
 43 44  1  0  0  0  0
 21 22  1  0  0  0  0
 18 21  1  0  0  0  0
 33 34  1  0  0  0  0
  7  8  1  0  0  0  0
 17 18  1  0  0  0  0
  3  4  1  0  0  0  0
  3  5  1  0  0  0  0
  3  6  1  0  0  0  0
 37 40  1  0  0  0  0
 37 41  1  0  0  0  0
 37 42  1  0  0  0  0
 11 14  1  0  0  0  0
 11 15  1  0  0  0  0
 11 16  1  0  0  0  0
 44 46  1  0  0  0  0
 44 47  1  0  0  0  0
 44 48  1  0  0  0  0
 22 30  1  0  0  0  0
 22 31  1  0  0  0  0
 21 28  1  0  0  0  0
 21 29  1  0  0  0  0
 34 39  1  0  0  0  0
  8 13  1  0  0  0  0
 18 27  1  0  0  0  0
 43 45  1  0  0  0  0
  7 12  1  0  0  0  0
 33 38  1  0  0  0  0
 17 26  1  0  0  0  0
 25 32  1  0  0  0  0
M  END
$$$$

  -OEChem-05262214473D

 48 47  0     1  0  0  0  0  0999 V2000
   -5.5827   -1.3473    1.4591 C   0  0  0  0  0  0  0  0  0  0  0  0
   -5.7053   -2.4696    0.9825 O   0  0  0  0  0  0  0  0  0  0  0  0
   -6.7879   -0.6277    1.9670 C   0  0  0  0  0  0  0  0  0  0  0  0
   -7.2718   -0.0164    1.1885 H   0  0  0  0  0  0  0  0  0  0  0  0
   -7.5699   -1.3171    2.3239 H   0  0  0  0  0  0  0  0  0  0  0  0
   -6.6057    0.0628    2.8060 H   0  0  0  0  0  0  0  0  0  0  0  0
   -4.4001   -0.6377    1.5884 N   0  0  0  0  0  0  0  0  0  0  0  0
   -3.1220   -1.1455    1.1644 C   0  0  2  0  0  0  0  0  0  0  0  0
   -2.2017    0.0428    0.9187 C   0  0  0  0  0  0  0  0  0  0  0  0
   -2.6171    1.1750    0.6807 O   0  0  0  0  0  0  0  0  0  0  0  0
   -3.2533   -1.9992   -0.0873 C   0  0  0  0  0  0  0  0  0  0  0  0
   -4.4370    0.2910    2.0047 H   0  0  0  0  0  0  0  0  0  0  0  0
   -2.7302   -1.7467    1.9921 H   0  0  0  0  0  0  0  0  0  0  0  0
   -3.6446   -1.4140   -0.9275 H   0  0  0  0  0  0  0  0  0  0  0  0
   -2.2844   -2.4081   -0.3922 H   0  0  0  0  0  0  0  0  0  0  0  0
   -3.9388   -2.8365    0.0822 H   0  0  0  0  0  0  0  0  0  0  0  0
   -0.8768   -0.3314    0.9568 N   0  0  0  0  0  0  0  0  0  0  0  0
    0.2067    0.6285    0.7375 C   0  0  2  0  0  0  0  0  0  0  0  0
   -0.4581    1.9790    0.4884 C   0  0  0  0  0  0  0  0  0  0  0  0
   -1.6779    2.1300    0.5159 O   0  0  0  0  0  0  0  0  0  0  0  0
    1.0582    0.1689   -0.4554 C   0  0  0  0  0  0  0  0  0  0  0  0
    1.8312   -1.1234   -0.1934 C   0  0  0  0  0  0  0  0  0  0  0  0
    2.6349   -1.5537   -1.3951 C   0  0  0  0  0  0  0  0  0  0  0  0
    2.5677   -1.0099   -2.4901 O   0  0  0  0  0  0  0  0  0  0  0  0
    3.4245   -2.6271   -1.1447 O   0  0  0  0  0  0  0  0  0  0  0  0
   -0.6087   -1.2764    1.1771 H   0  0  0  0  0  0  0  0  0  0  0  0
    0.8235    0.6664    1.6414 H   0  0  0  0  0  0  0  0  0  0  0  0
    0.4084    0.0245   -1.3289 H   0  0  0  0  0  0  0  0  0  0  0  0
    1.7803    0.9499   -0.7279 H   0  0  0  0  0  0  0  0  0  0  0  0
    2.5439   -0.9674    0.6257 H   0  0  0  0  0  0  0  0  0  0  0  0
    1.1742   -1.9334    0.1401 H   0  0  0  0  0  0  0  0  0  0  0  0
    3.9507   -2.9509   -1.9064 H   0  0  0  0  0  0  0  0  0  0  0  0
    0.4652    2.9893    0.2636 N   0  0  0  0  0  0  0  0  0  0  0  0
    0.0910    4.3608    0.0037 C   0  0  2  0  0  0  0  0  0  0  0  0
    0.0264    4.5527   -1.5058 C   0  0  0  0  0  0  0  0  0  0  0  0
    0.6237    3.8293   -2.3001 O   0  0  0  0  0  0  0  0  0  0  0  0
    1.0771    5.3323    0.6334 C   0  0  0  0  0  0  0  0  0  0  0  0
    1.4529    2.7536    0.2825 H   0  0  0  0  0  0  0  0  0  0  0  0
   -0.9065    4.5034    0.4335 H   0  0  0  0  0  0  0  0  0  0  0  0
    2.0822    5.2044    0.2151 H   0  0  0  0  0  0  0  0  0  0  0  0
    0.7767    6.3708    0.4599 H   0  0  0  0  0  0  0  0  0  0  0  0
    1.1445    5.1729    1.7150 H   0  0  0  0  0  0  0  0  0  0  0  0
   -0.7419    5.6530   -1.8596 N   0  0  0  0  0  0  0  0  0  0  0  0
   -0.9462    6.0524   -3.2325 C   0  0  0  0  0  0  0  0  0  0  0  0
   -1.2161    6.1849   -1.1357 H   0  0  0  0  0  0  0  0  0  0  0  0
   -0.1835    6.7923   -3.5170 H   0  0  0  0  0  0  0  0  0  0  0  0
   -0.8643    5.1716   -3.8864 H   0  0  0  0  0  0  0  0  0  0  0  0
   -1.9465    6.4971   -3.3399 H   0  0  0  0  0  0  0  0  0  0  0  0
  1  3  1  0  0  0  0
  1  7  1  0  0  0  0
  1  2  2  0  0  0  0
 34 35  1  0  0  0  0
 35 43  1  0  0  0  0
 35 36  2  0  0  0  0
  8  9  1  0  0  0  0
  9 17  1  0  0  0  0
  9 10  2  0  0  0  0
 18 19  1  0  0  0  0
 19 33  1  0  0  0  0
 19 20  2  0  0  0  0
 22 23  1  0  0  0  0
 23 24  2  0  0  0  0
 23 25  1  0  0  0  0
 34 37  1  0  0  0  0
  8 11  1  0  0  0  0
 43 44  1  0  0  0  0
 21 22  1  0  0  0  0
 18 21  1  0  0  0  0
 33 34  1  0  0  0  0
  7  8  1  0  0  0  0
 17 18  1  0  0  0  0
  3  4  1  0  0  0  0
  3  5  1  0  0  0  0
  3  6  1  0  0  0  0
 37 40  1  0  0  0  0
 37 41  1  0  0  0  0
 37 42  1  0  0  0  0
 11 14  1  0  0  0  0
 11 15  1  0  0  0  0
 11 16  1  0  0  0  0
 44 46  1  0  0  0  0
 44 47  1  0  0  0  0
 44 48  1  0  0  0  0
 22 30  1  0  0  0  0
 22 31  1  0  0  0  0
 21 28  1  0  0  0  0
 21 29  1  0  0  0  0
 34 39  1  0  0  0  0
  8 13  1  0  0  0  0
 18 27  1  0  0  0  0
 43 45  1  0  0  0  0
  7 12  1  0  0  0  0
 33 38  1  0  0  0  0
 17 26  1  0  0  0  0
 25 32  1  0  0  0  0
M  END
$$$$

  -OEChem-05262214473D

 48 47  0     1  0  0  0  0  0999 V2000
   -5.5827   -1.3473    1.4591 C   0  0  0  0  0  0  0  0  0  0  0  0
   -5.7053   -2.4696    0.9825 O   0  0  0  0  0  0  0  0  0  0  0  0
   -6.7879   -0.6277    1.9670 C   0  0  0  0  0  0  0  0  0  0  0  0
   -7.2718   -0.0164    1.1885 H   0  0  0  0  0  0  0  0  0  0  0  0
   -7.5699   -1.3171    2.3239 H   0  0  0  0  0  0  0  0  0  0  0  0
   -6.6057    0.0628    2.8060 H   0  0  0  0  0  0  0  0  0  0  0  0
   -4.4001   -0.6377    1.5884 N   0  0  0  0  0  0  0  0  0  0  0  0
   -3.1220   -1.1455    1.1644 C   0  0  2  0  0  0  0  0  0  0  0  0
   -2.2017    0.0428    0.9187 C   0  0  0  0  0  0  0  0  0  0  0  0
   -2.6171    1.1750    0.6807 O   0  0  0  0  0  0  0  0  0  0  0  0
   -3.2533   -1.9992   -0.0873 C   0  0  0  0  0  0  0  0  0  0  0  0
   -4.4370    0.2910    2.0047 H   0  0  0  0  0  0  0  0  0  0  0  0
   -2.7302   -1.7467    1.9921 H   0  0  0  0  0  0  0  0  0  0  0  0
   -3.6446   -1.4140   -0.9275 H   0  0  0  0  0  0  0  0  0  0  0  0
   -2.2844   -2.4081   -0.3922 H   0  0  0  0  0  0  0  0  0  0  0  0
   -3.9388   -2.8365    0.0822 H   0  0  0  0  0  0  0  0  0  0  0  0
   -0.8768   -0.3314    0.9568 N   0  0  0  0  0  0  0  0  0  0  0  0
    0.2067    0.6285    0.7375 C   0  0  2  0  0  0  0  0  0  0  0  0
   -0.4581    1.9790    0.4884 C   0  0  0  0  0  0  0  0  0  0  0  0
   -1.6335    2.1994    0.7737 O   0  0  0  0  0  0  0  0  0  0  0  0
    1.0582    0.1689   -0.4554 C   0  0  0  0  0  0  0  0  0  0  0  0
    1.8312   -1.1234   -0.1934 C   0  0  0  0  0  0  0  0  0  0  0  0
    2.6349   -1.5537   -1.3951 C   0  0  0  0  0  0  0  0  0  0  0  0
    2.5677   -1.0099   -2.4901 O   0  0  0  0  0  0  0  0  0  0  0  0
    3.4245   -2.6271   -1.1447 O   0  0  0  0  0  0  0  0  0  0  0  0
   -0.6087   -1.2764    1.1771 H   0  0  0  0  0  0  0  0  0  0  0  0
    0.8235    0.6664    1.6414 H   0  0  0  0  0  0  0  0  0  0  0  0
    0.4084    0.0245   -1.3289 H   0  0  0  0  0  0  0  0  0  0  0  0
    1.7803    0.9499   -0.7279 H   0  0  0  0  0  0  0  0  0  0  0  0
    2.5439   -0.9674    0.6257 H   0  0  0  0  0  0  0  0  0  0  0  0
    1.1742   -1.9334    0.1401 H   0  0  0  0  0  0  0  0  0  0  0  0
    3.9507   -2.9509   -1.9064 H   0  0  0  0  0  0  0  0  0  0  0  0
    0.4171    2.9064   -0.0572 N   0  0  0  0  0  0  0  0  0  0  0  0
    0.0329    4.2605   -0.3851 C   0  0  2  0  0  0  0  0  0  0  0  0
   -0.3738    4.2918   -1.8524 C   0  0  0  0  0  0  0  0  0  0  0  0
    0.0021    3.4549   -2.6707 O   0  0  0  0  0  0  0  0  0  0  0  0
    1.1659    5.2381   -0.1141 C   0  0  0  0  0  0  0  0  0  0  0  0
    1.3750    2.6198   -0.2351 H   0  0  0  0  0  0  0  0  0  0  0  0
   -0.8333    4.5036    0.2398 H   0  0  0  0  0  0  0  0  0  0  0  0
    2.0427    5.0104   -0.7313 H   0  0  0  0  0  0  0  0  0  0  0  0
    0.8638    6.2670   -0.3360 H   0  0  0  0  0  0  0  0  0  0  0  0
    1.4772    5.1928    0.9351 H   0  0  0  0  0  0  0  0  0  0  0  0
   -1.1707    5.3884   -2.1499 N   0  0  0  0  0  0  0  0  0  0  0  0
   -1.6756    5.6480   -3.4779 C   0  0  0  0  0  0  0  0  0  0  0  0
   -1.4488    6.0207   -1.4051 H   0  0  0  0  0  0  0  0  0  0  0  0
   -0.9784    6.3095   -4.0130 H   0  0  0  0  0  0  0  0  0  0  0  0
   -1.7730    4.6987   -4.0251 H   0  0  0  0  0  0  0  0  0  0  0  0
   -2.6602    6.1333   -3.4074 H   0  0  0  0  0  0  0  0  0  0  0  0
  1  3  1  0  0  0  0
  1  7  1  0  0  0  0
  1  2  2  0  0  0  0
 34 35  1  0  0  0  0
 35 43  1  0  0  0  0
 35 36  2  0  0  0  0
  8  9  1  0  0  0  0
  9 17  1  0  0  0  0
  9 10  2  0  0  0  0
 18 19  1  0  0  0  0
 19 33  1  0  0  0  0
 19 20  2  0  0  0  0
 22 23  1  0  0  0  0
 23 24  2  0  0  0  0
 23 25  1  0  0  0  0
 34 37  1  0  0  0  0
  8 11  1  0  0  0  0
 43 44  1  0  0  0  0
 21 22  1  0  0  0  0
 18 21  1  0  0  0  0
 33 34  1  0  0  0  0
  7  8  1  0  0  0  0
 17 18  1  0  0  0  0
  3  4  1  0  0  0  0
  3  5  1  0  0  0  0
  3  6  1  0  0  0  0
 37 40  1  0  0  0  0
 37 41  1  0  0  0  0
 37 42  1  0  0  0  0
 11 14  1  0  0  0  0
 11 15  1  0  0  0  0
 11 16  1  0  0  0  0
 44 46  1  0  0  0  0
 44 47  1  0  0  0  0
 44 48  1  0  0  0  0
 22 30  1  0  0  0  0
 22 31  1  0  0  0  0
 21 28  1  0  0  0  0
 21 29  1  0  0  0  0
 34 39  1  0  0  0  0
  8 13  1  0  0  0  0
 18 27  1  0  0  0  0
 43 45  1  0  0  0  0
  7 12  1  0  0  0  0
 33 38  1  0  0  0  0
 17 26  1  0  0  0  0
 25 32  1  0  0  0  0
M  END
$$$$

  -OEChem-05262214473D

 48 47  0     1  0  0  0  0  0999 V2000
   -5.5827   -1.3473    1.4591 C   0  0  0  0  0  0  0  0  0  0  0  0
   -5.7053   -2.4696    0.9825 O   0  0  0  0  0  0  0  0  0  0  0  0
   -6.7879   -0.6277    1.9670 C   0  0  0  0  0  0  0  0  0  0  0  0
   -7.2718   -0.0164    1.1885 H   0  0  0  0  0  0  0  0  0  0  0  0
   -7.5699   -1.3171    2.3239 H   0  0  0  0  0  0  0  0  0  0  0  0
   -6.6057    0.0628    2.8060 H   0  0  0  0  0  0  0  0  0  0  0  0
   -4.4001   -0.6377    1.5884 N   0  0  0  0  0  0  0  0  0  0  0  0
   -3.1220   -1.1455    1.1644 C   0  0  2  0  0  0  0  0  0  0  0  0
   -2.2017    0.0428    0.9187 C   0  0  0  0  0  0  0  0  0  0  0  0
   -2.6171    1.1750    0.6807 O   0  0  0  0  0  0  0  0  0  0  0  0
   -3.2533   -1.9992   -0.0873 C   0  0  0  0  0  0  0  0  0  0  0  0
   -4.4370    0.2910    2.0047 H   0  0  0  0  0  0  0  0  0  0  0  0
   -2.7302   -1.7467    1.9921 H   0  0  0  0  0  0  0  0  0  0  0  0
   -3.6446   -1.4140   -0.9275 H   0  0  0  0  0  0  0  0  0  0  0  0
   -2.2844   -2.4081   -0.3922 H   0  0  0  0  0  0  0  0  0  0  0  0
   -3.9388   -2.8365    0.0822 H   0  0  0  0  0  0  0  0  0  0  0  0
   -0.8768   -0.3314    0.9568 N   0  0  0  0  0  0  0  0  0  0  0  0
    0.2067    0.6285    0.7375 C   0  0  2  0  0  0  0  0  0  0  0  0
   -0.4581    1.9790    0.4884 C   0  0  0  0  0  0  0  0  0  0  0  0
   -1.5286    2.2937    1.0047 O   0  0  0  0  0  0  0  0  0  0  0  0
    1.0582    0.1689   -0.4554 C   0  0  0  0  0  0  0  0  0  0  0  0
    1.8312   -1.1234   -0.1934 C   0  0  0  0  0  0  0  0  0  0  0  0
    2.6349   -1.5537   -1.3951 C   0  0  0  0  0  0  0  0  0  0  0  0
    2.5677   -1.0099   -2.4901 O   0  0  0  0  0  0  0  0  0  0  0  0
    3.4245   -2.6271   -1.1447 O   0  0  0  0  0  0  0  0  0  0  0  0
   -0.6087   -1.2764    1.1771 H   0  0  0  0  0  0  0  0  0  0  0  0
    0.8235    0.6664    1.6414 H   0  0  0  0  0  0  0  0  0  0  0  0
    0.4084    0.0245   -1.3289 H   0  0  0  0  0  0  0  0  0  0  0  0
    1.7803    0.9499   -0.7279 H   0  0  0  0  0  0  0  0  0  0  0  0
    2.5439   -0.9674    0.6257 H   0  0  0  0  0  0  0  0  0  0  0  0
    1.1742   -1.9334    0.1401 H   0  0  0  0  0  0  0  0  0  0  0  0
    3.9507   -2.9509   -1.9064 H   0  0  0  0  0  0  0  0  0  0  0  0
    0.2936    2.7922   -0.3467 N   0  0  0  0  0  0  0  0  0  0  0  0
   -0.1165    4.1223   -0.7360 C   0  0  2  0  0  0  0  0  0  0  0  0
   -0.8507    4.0176   -2.0661 C   0  0  0  0  0  0  0  0  0  0  0  0
   -0.6991    3.0778   -2.8439 O   0  0  0  0  0  0  0  0  0  0  0  0
    1.0764    5.0591   -0.8459 C   0  0  0  0  0  0  0  0  0  0  0  0
    1.1755    2.4355   -0.7020 H   0  0  0  0  0  0  0  0  0  0  0  0
   -0.8070    4.4790    0.0360 H   0  0  0  0  0  0  0  0  0  0  0  0
    1.7795    4.7179   -1.6145 H   0  0  0  0  0  0  0  0  0  0  0  0
    0.7612    6.0732   -1.1130 H   0  0  0  0  0  0  0  0  0  0  0  0
    1.6207    5.1101    0.1033 H   0  0  0  0  0  0  0  0  0  0  0  0
   -1.6626    5.1182   -2.3021 N   0  0  0  0  0  0  0  0  0  0  0  0
   -2.4534    5.2606   -3.5023 C   0  0  0  0  0  0  0  0  0  0  0  0
   -1.7422    5.8415   -1.5935 H   0  0  0  0  0  0  0  0  0  0  0  0
   -1.8801    5.8209   -4.2555 H   0  0  0  0  0  0  0  0  0  0  0  0
   -2.7025    4.2647   -3.8974 H   0  0  0  0  0  0  0  0  0  0  0  0
   -3.3804    5.8045   -3.2680 H   0  0  0  0  0  0  0  0  0  0  0  0
  1  3  1  0  0  0  0
  1  7  1  0  0  0  0
  1  2  2  0  0  0  0
 34 35  1  0  0  0  0
 35 43  1  0  0  0  0
 35 36  2  0  0  0  0
  8  9  1  0  0  0  0
  9 17  1  0  0  0  0
  9 10  2  0  0  0  0
 18 19  1  0  0  0  0
 19 33  1  0  0  0  0
 19 20  2  0  0  0  0
 22 23  1  0  0  0  0
 23 24  2  0  0  0  0
 23 25  1  0  0  0  0
 34 37  1  0  0  0  0
  8 11  1  0  0  0  0
 43 44  1  0  0  0  0
 21 22  1  0  0  0  0
 18 21  1  0  0  0  0
 33 34  1  0  0  0  0
  7  8  1  0  0  0  0
 17 18  1  0  0  0  0
  3  4  1  0  0  0  0
  3  5  1  0  0  0  0
  3  6  1  0  0  0  0
 37 40  1  0  0  0  0
 37 41  1  0  0  0  0
 37 42  1  0  0  0  0
 11 14  1  0  0  0  0
 11 15  1  0  0  0  0
 11 16  1  0  0  0  0
 44 46  1  0  0  0  0
 44 47  1  0  0  0  0
 44 48  1  0  0  0  0
 22 30  1  0  0  0  0
 22 31  1  0  0  0  0
 21 28  1  0  0  0  0
 21 29  1  0  0  0  0
 34 39  1  0  0  0  0
  8 13  1  0  0  0  0
 18 27  1  0  0  0  0
 43 45  1  0  0  0  0
  7 12  1  0  0  0  0
 33 38  1  0  0  0  0
 17 26  1  0  0  0  0
 25 32  1  0  0  0  0
M  END
$$$$

  -OEChem-05262214473D

 48 47  0     1  0  0  0  0  0999 V2000
   -5.5827   -1.3473    1.4591 C   0  0  0  0  0  0  0  0  0  0  0  0
   -5.7053   -2.4696    0.9825 O   0  0  0  0  0  0  0  0  0  0  0  0
   -6.7879   -0.6277    1.9670 C   0  0  0  0  0  0  0  0  0  0  0  0
   -7.2718   -0.0164    1.1885 H   0  0  0  0  0  0  0  0  0  0  0  0
   -7.5699   -1.3171    2.3239 H   0  0  0  0  0  0  0  0  0  0  0  0
   -6.6057    0.0628    2.8060 H   0  0  0  0  0  0  0  0  0  0  0  0
   -4.4001   -0.6377    1.5884 N   0  0  0  0  0  0  0  0  0  0  0  0
   -3.1220   -1.1455    1.1644 C   0  0  2  0  0  0  0  0  0  0  0  0
   -2.2017    0.0428    0.9187 C   0  0  0  0  0  0  0  0  0  0  0  0
   -2.6171    1.1750    0.6807 O   0  0  0  0  0  0  0  0  0  0  0  0
   -3.2533   -1.9992   -0.0873 C   0  0  0  0  0  0  0  0  0  0  0  0
   -4.4370    0.2910    2.0047 H   0  0  0  0  0  0  0  0  0  0  0  0
   -2.7302   -1.7467    1.9921 H   0  0  0  0  0  0  0  0  0  0  0  0
   -3.6446   -1.4140   -0.9275 H   0  0  0  0  0  0  0  0  0  0  0  0
   -2.2844   -2.4081   -0.3922 H   0  0  0  0  0  0  0  0  0  0  0  0
   -3.9388   -2.8365    0.0822 H   0  0  0  0  0  0  0  0  0  0  0  0
   -0.8768   -0.3314    0.9568 N   0  0  0  0  0  0  0  0  0  0  0  0
    0.2067    0.6285    0.7375 C   0  0  2  0  0  0  0  0  0  0  0  0
   -0.4581    1.9790    0.4884 C   0  0  0  0  0  0  0  0  0  0  0  0
   -1.3704    2.4063    1.1932 O   0  0  0  0  0  0  0  0  0  0  0  0
    1.0582    0.1689   -0.4554 C   0  0  0  0  0  0  0  0  0  0  0  0
    1.8312   -1.1234   -0.1934 C   0  0  0  0  0  0  0  0  0  0  0  0
    2.6349   -1.5537   -1.3951 C   0  0  0  0  0  0  0  0  0  0  0  0
    2.5677   -1.0099   -2.4901 O   0  0  0  0  0  0  0  0  0  0  0  0
    3.4245   -2.6271   -1.1447 O   0  0  0  0  0  0  0  0  0  0  0  0
   -0.6087   -1.2764    1.1771 H   0  0  0  0  0  0  0  0  0  0  0  0
    0.8235    0.6664    1.6414 H   0  0  0  0  0  0  0  0  0  0  0  0
    0.4084    0.0245   -1.3289 H   0  0  0  0  0  0  0  0  0  0  0  0
    1.7803    0.9499   -0.7279 H   0  0  0  0  0  0  0  0  0  0  0  0
    2.5439   -0.9674    0.6257 H   0  0  0  0  0  0  0  0  0  0  0  0
    1.1742   -1.9334    0.1401 H   0  0  0  0  0  0  0  0  0  0  0  0
    3.9507   -2.9509   -1.9064 H   0  0  0  0  0  0  0  0  0  0  0  0
    0.1032    2.6545   -0.5851 N   0  0  0  0  0  0  0  0  0  0  0  0
   -0.3470    3.9555   -1.0251 C   0  0  2  0  0  0  0  0  0  0  0  0
   -1.3720    3.7487   -2.1324 C   0  0  0  0  0  0  0  0  0  0  0  0
   -1.4319    2.7236   -2.8081 O   0  0  0  0  0  0  0  0  0  0  0  0
    0.8148    4.8075   -1.5120 C   0  0  0  0  0  0  0  0  0  0  0  0
    0.8681    2.2133   -1.0866 H   0  0  0  0  0  0  0  0  0  0  0  0
   -0.8294    4.4311   -0.1642 H   0  0  0  0  0  0  0  0  0  0  0  0
    1.3106    4.3470   -2.3743 H   0  0  0  0  0  0  0  0  0  0  0  0
    0.4760    5.8027   -1.8182 H   0  0  0  0  0  0  0  0  0  0  0  0
    1.5653    4.9303   -0.7236 H   0  0  0  0  0  0  0  0  0  0  0  0
   -2.1841    4.8607   -2.3061 N   0  0  0  0  0  0  0  0  0  0  0  0
   -3.2268    4.9165   -3.3039 C   0  0  0  0  0  0  0  0  0  0  0  0
   -2.0763    5.6596   -1.6880 H   0  0  0  0  0  0  0  0  0  0  0  0
   -2.8273    5.3597   -4.2280 H   0  0  0  0  0  0  0  0  0  0  0  0
   -3.5894    3.8991   -3.5123 H   0  0  0  0  0  0  0  0  0  0  0  0
   -4.0581    5.5330   -2.9313 H   0  0  0  0  0  0  0  0  0  0  0  0
  1  3  1  0  0  0  0
  1  7  1  0  0  0  0
  1  2  2  0  0  0  0
 34 35  1  0  0  0  0
 35 43  1  0  0  0  0
 35 36  2  0  0  0  0
  8  9  1  0  0  0  0
  9 17  1  0  0  0  0
  9 10  2  0  0  0  0
 18 19  1  0  0  0  0
 19 33  1  0  0  0  0
 19 20  2  0  0  0  0
 22 23  1  0  0  0  0
 23 24  2  0  0  0  0
 23 25  1  0  0  0  0
 34 37  1  0  0  0  0
  8 11  1  0  0  0  0
 43 44  1  0  0  0  0
 21 22  1  0  0  0  0
 18 21  1  0  0  0  0
 33 34  1  0  0  0  0
  7  8  1  0  0  0  0
 17 18  1  0  0  0  0
  3  4  1  0  0  0  0
  3  5  1  0  0  0  0
  3  6  1  0  0  0  0
 37 40  1  0  0  0  0
 37 41  1  0  0  0  0
 37 42  1  0  0  0  0
 11 14  1  0  0  0  0
 11 15  1  0  0  0  0
 11 16  1  0  0  0  0
 44 46  1  0  0  0  0
 44 47  1  0  0  0  0
 44 48  1  0  0  0  0
 22 30  1  0  0  0  0
 22 31  1  0  0  0  0
 21 28  1  0  0  0  0
 21 29  1  0  0  0  0
 34 39  1  0  0  0  0
  8 13  1  0  0  0  0
 18 27  1  0  0  0  0
 43 45  1  0  0  0  0
  7 12  1  0  0  0  0
 33 38  1  0  0  0  0
 17 26  1  0  0  0  0
 25 32  1  0  0  0  0
M  END
$$$$

  -OEChem-05262214473D

 48 47  0     1  0  0  0  0  0999 V2000
   -5.5827   -1.3473    1.4591 C   0  0  0  0  0  0  0  0  0  0  0  0
   -5.7053   -2.4696    0.9825 O   0  0  0  0  0  0  0  0  0  0  0  0
   -6.7879   -0.6277    1.9670 C   0  0  0  0  0  0  0  0  0  0  0  0
   -7.2718   -0.0164    1.1885 H   0  0  0  0  0  0  0  0  0  0  0  0
   -7.5699   -1.3171    2.3239 H   0  0  0  0  0  0  0  0  0  0  0  0
   -6.6057    0.0628    2.8060 H   0  0  0  0  0  0  0  0  0  0  0  0
   -4.4001   -0.6377    1.5884 N   0  0  0  0  0  0  0  0  0  0  0  0
   -3.1220   -1.1455    1.1644 C   0  0  2  0  0  0  0  0  0  0  0  0
   -2.2017    0.0428    0.9187 C   0  0  0  0  0  0  0  0  0  0  0  0
   -2.6171    1.1750    0.6807 O   0  0  0  0  0  0  0  0  0  0  0  0
   -3.2533   -1.9992   -0.0873 C   0  0  0  0  0  0  0  0  0  0  0  0
   -4.4370    0.2910    2.0047 H   0  0  0  0  0  0  0  0  0  0  0  0
   -2.7302   -1.7467    1.9921 H   0  0  0  0  0  0  0  0  0  0  0  0
   -3.6446   -1.4140   -0.9275 H   0  0  0  0  0  0  0  0  0  0  0  0
   -2.2844   -2.4081   -0.3922 H   0  0  0  0  0  0  0  0  0  0  0  0
   -3.9388   -2.8365    0.0822 H   0  0  0  0  0  0  0  0  0  0  0  0
   -0.8768   -0.3314    0.9568 N   0  0  0  0  0  0  0  0  0  0  0  0
    0.2067    0.6285    0.7375 C   0  0  2  0  0  0  0  0  0  0  0  0
   -0.4581    1.9790    0.4884 C   0  0  0  0  0  0  0  0  0  0  0  0
   -1.1696    2.5297    1.3263 O   0  0  0  0  0  0  0  0  0  0  0  0
    1.0582    0.1689   -0.4554 C   0  0  0  0  0  0  0  0  0  0  0  0
    1.8312   -1.1234   -0.1934 C   0  0  0  0  0  0  0  0  0  0  0  0
    2.6349   -1.5537   -1.3951 C   0  0  0  0  0  0  0  0  0  0  0  0
    2.5677   -1.0099   -2.4901 O   0  0  0  0  0  0  0  0  0  0  0  0
    3.4245   -2.6271   -1.1447 O   0  0  0  0  0  0  0  0  0  0  0  0
   -0.6087   -1.2764    1.1771 H   0  0  0  0  0  0  0  0  0  0  0  0
    0.8235    0.6664    1.6414 H   0  0  0  0  0  0  0  0  0  0  0  0
    0.4084    0.0245   -1.3289 H   0  0  0  0  0  0  0  0  0  0  0  0
    1.7803    0.9499   -0.7279 H   0  0  0  0  0  0  0  0  0  0  0  0
    2.5439   -0.9674    0.6257 H   0  0  0  0  0  0  0  0  0  0  0  0
    1.1742   -1.9334    0.1401 H   0  0  0  0  0  0  0  0  0  0  0  0
    3.9507   -2.9509   -1.9064 H   0  0  0  0  0  0  0  0  0  0  0  0
   -0.1412    2.5027   -0.7562 N   0  0  0  0  0  0  0  0  0  0  0  0
   -0.6429    3.7715   -1.2327 C   0  0  2  0  0  0  0  0  0  0  0  0
   -1.9020    3.5036   -2.0466 C   0  0  0  0  0  0  0  0  0  0  0  0
   -2.1466    2.4165   -2.5657 O   0  0  0  0  0  0  0  0  0  0  0  0
    0.3989    4.5003   -2.0671 C   0  0  0  0  0  0  0  0  0  0  0  0
    0.4737    1.9682   -1.3625 H   0  0  0  0  0  0  0  0  0  0  0  0
   -0.8989    4.3632   -0.3470 H   0  0  0  0  0  0  0  0  0  0  0  0
    0.6679    3.9228   -2.9590 H   0  0  0  0  0  0  0  0  0  0  0  0
    0.0275    5.4740   -2.4035 H   0  0  0  0  0  0  0  0  0  0  0  0
    1.3147    4.6657   -1.4895 H   0  0  0  0  0  0  0  0  0  0  0  0
   -2.6995    4.6337   -2.1614 N   0  0  0  0  0  0  0  0  0  0  0  0
   -3.9428    4.6391   -2.8963 C   0  0  0  0  0  0  0  0  0  0  0  0
   -2.4284    5.4873   -1.6823 H   0  0  0  0  0  0  0  0  0  0  0  0
   -3.7554    4.9572   -3.9325 H   0  0  0  0  0  0  0  0  0  0  0  0
   -4.3733    3.6269   -2.8958 H   0  0  0  0  0  0  0  0  0  0  0  0
   -4.6470    5.3373   -2.4202 H   0  0  0  0  0  0  0  0  0  0  0  0
  1  3  1  0  0  0  0
  1  7  1  0  0  0  0
  1  2  2  0  0  0  0
 34 35  1  0  0  0  0
 35 43  1  0  0  0  0
 35 36  2  0  0  0  0
  8  9  1  0  0  0  0
  9 17  1  0  0  0  0
  9 10  2  0  0  0  0
 18 19  1  0  0  0  0
 19 33  1  0  0  0  0
 19 20  2  0  0  0  0
 22 23  1  0  0  0  0
 23 24  2  0  0  0  0
 23 25  1  0  0  0  0
 34 37  1  0  0  0  0
  8 11  1  0  0  0  0
 43 44  1  0  0  0  0
 21 22  1  0  0  0  0
 18 21  1  0  0  0  0
 33 34  1  0  0  0  0
  7  8  1  0  0  0  0
 17 18  1  0  0  0  0
  3  4  1  0  0  0  0
  3  5  1  0  0  0  0
  3  6  1  0  0  0  0
 37 40  1  0  0  0  0
 37 41  1  0  0  0  0
 37 42  1  0  0  0  0
 11 14  1  0  0  0  0
 11 15  1  0  0  0  0
 11 16  1  0  0  0  0
 44 46  1  0  0  0  0
 44 47  1  0  0  0  0
 44 48  1  0  0  0  0
 22 30  1  0  0  0  0
 22 31  1  0  0  0  0
 21 28  1  0  0  0  0
 21 29  1  0  0  0  0
 34 39  1  0  0  0  0
  8 13  1  0  0  0  0
 18 27  1  0  0  0  0
 43 45  1  0  0  0  0
  7 12  1  0  0  0  0
 33 38  1  0  0  0  0
 17 26  1  0  0  0  0
 25 32  1  0  0  0  0
M  END
$$$$

  -OEChem-05262214473D

 48 47  0     1  0  0  0  0  0999 V2000
   -5.5827   -1.3473    1.4591 C   0  0  0  0  0  0  0  0  0  0  0  0
   -5.7053   -2.4696    0.9825 O   0  0  0  0  0  0  0  0  0  0  0  0
   -6.7879   -0.6277    1.9670 C   0  0  0  0  0  0  0  0  0  0  0  0
   -7.2718   -0.0164    1.1885 H   0  0  0  0  0  0  0  0  0  0  0  0
   -7.5699   -1.3171    2.3239 H   0  0  0  0  0  0  0  0  0  0  0  0
   -6.6057    0.0628    2.8060 H   0  0  0  0  0  0  0  0  0  0  0  0
   -4.4001   -0.6377    1.5884 N   0  0  0  0  0  0  0  0  0  0  0  0
   -3.1220   -1.1455    1.1644 C   0  0  2  0  0  0  0  0  0  0  0  0
   -2.2017    0.0428    0.9187 C   0  0  0  0  0  0  0  0  0  0  0  0
   -2.6171    1.1750    0.6807 O   0  0  0  0  0  0  0  0  0  0  0  0
   -3.2533   -1.9992   -0.0873 C   0  0  0  0  0  0  0  0  0  0  0  0
   -4.4370    0.2910    2.0047 H   0  0  0  0  0  0  0  0  0  0  0  0
   -2.7302   -1.7467    1.9921 H   0  0  0  0  0  0  0  0  0  0  0  0
   -3.6446   -1.4140   -0.9275 H   0  0  0  0  0  0  0  0  0  0  0  0
   -2.2844   -2.4081   -0.3922 H   0  0  0  0  0  0  0  0  0  0  0  0
   -3.9388   -2.8365    0.0822 H   0  0  0  0  0  0  0  0  0  0  0  0
   -0.8768   -0.3314    0.9568 N   0  0  0  0  0  0  0  0  0  0  0  0
    0.2067    0.6285    0.7375 C   0  0  2  0  0  0  0  0  0  0  0  0
   -0.4581    1.9790    0.4884 C   0  0  0  0  0  0  0  0  0  0  0  0
   -0.9400    2.6554    1.3949 O   0  0  0  0  0  0  0  0  0  0  0  0
    1.0582    0.1689   -0.4554 C   0  0  0  0  0  0  0  0  0  0  0  0
    1.8312   -1.1234   -0.1934 C   0  0  0  0  0  0  0  0  0  0  0  0
    2.6349   -1.5537   -1.3951 C   0  0  0  0  0  0  0  0  0  0  0  0
    2.5677   -1.0099   -2.4901 O   0  0  0  0  0  0  0  0  0  0  0  0
    3.4245   -2.6271   -1.1447 O   0  0  0  0  0  0  0  0  0  0  0  0
   -0.6087   -1.2764    1.1771 H   0  0  0  0  0  0  0  0  0  0  0  0
    0.8235    0.6664    1.6414 H   0  0  0  0  0  0  0  0  0  0  0  0
    0.4084    0.0245   -1.3289 H   0  0  0  0  0  0  0  0  0  0  0  0
    1.7803    0.9499   -0.7279 H   0  0  0  0  0  0  0  0  0  0  0  0
    2.5439   -0.9674    0.6257 H   0  0  0  0  0  0  0  0  0  0  0  0
    1.1742   -1.9334    0.1401 H   0  0  0  0  0  0  0  0  0  0  0  0
    3.9507   -2.9509   -1.9064 H   0  0  0  0  0  0  0  0  0  0  0  0
   -0.4229    2.3470   -0.8484 N   0  0  0  0  0  0  0  0  0  0  0  0
   -0.9841    3.5829   -1.3447 C   0  0  2  0  0  0  0  0  0  0  0  0
   -2.4047    3.2989   -1.8147 C   0  0  0  0  0  0  0  0  0  0  0  0
   -2.7943    2.1774   -2.1332 O   0  0  0  0  0  0  0  0  0  0  0  0
   -0.1431    4.1586   -2.4734 C   0  0  0  0  0  0  0  0  0  0  0  0
    0.0191    1.7170   -1.5111 H   0  0  0  0  0  0  0  0  0  0  0  0
   -1.0107    4.2799   -0.5001 H   0  0  0  0  0  0  0  0  0  0  0  0
   -0.1047    3.4742   -3.3287 H   0  0  0  0  0  0  0  0  0  0  0  0
   -0.5537    5.1094   -2.8290 H   0  0  0  0  0  0  0  0  0  0  0  0
    0.8861    4.3344   -2.1420 H   0  0  0  0  0  0  0  0  0  0  0  0
   -3.1738    4.4524   -1.8779 N   0  0  0  0  0  0  0  0  0  0  0  0
   -4.5528    4.4475   -2.3073 C   0  0  0  0  0  0  0  0  0  0  0  0
   -2.7744    5.3365   -1.5767 H   0  0  0  0  0  0  0  0  0  0  0  0
   -4.6012    4.6411   -3.3891 H   0  0  0  0  0  0  0  0  0  0  0  0
   -5.0008    3.4666   -2.0901 H   0  0  0  0  0  0  0  0  0  0  0  0
   -5.1070    5.2308   -1.7695 H   0  0  0  0  0  0  0  0  0  0  0  0
  1  3  1  0  0  0  0
  1  7  1  0  0  0  0
  1  2  2  0  0  0  0
 34 35  1  0  0  0  0
 35 43  1  0  0  0  0
 35 36  2  0  0  0  0
  8  9  1  0  0  0  0
  9 17  1  0  0  0  0
  9 10  2  0  0  0  0
 18 19  1  0  0  0  0
 19 33  1  0  0  0  0
 19 20  2  0  0  0  0
 22 23  1  0  0  0  0
 23 24  2  0  0  0  0
 23 25  1  0  0  0  0
 34 37  1  0  0  0  0
  8 11  1  0  0  0  0
 43 44  1  0  0  0  0
 21 22  1  0  0  0  0
 18 21  1  0  0  0  0
 33 34  1  0  0  0  0
  7  8  1  0  0  0  0
 17 18  1  0  0  0  0
  3  4  1  0  0  0  0
  3  5  1  0  0  0  0
  3  6  1  0  0  0  0
 37 40  1  0  0  0  0
 37 41  1  0  0  0  0
 37 42  1  0  0  0  0
 11 14  1  0  0  0  0
 11 15  1  0  0  0  0
 11 16  1  0  0  0  0
 44 46  1  0  0  0  0
 44 47  1  0  0  0  0
 44 48  1  0  0  0  0
 22 30  1  0  0  0  0
 22 31  1  0  0  0  0
 21 28  1  0  0  0  0
 21 29  1  0  0  0  0
 34 39  1  0  0  0  0
  8 13  1  0  0  0  0
 18 27  1  0  0  0  0
 43 45  1  0  0  0  0
  7 12  1  0  0  0  0
 33 38  1  0  0  0  0
 17 26  1  0  0  0  0
 25 32  1  0  0  0  0
M  END
$$$$

  -OEChem-05262214473D

 48 47  0     1  0  0  0  0  0999 V2000
   -5.5827   -1.3473    1.4591 C   0  0  0  0  0  0  0  0  0  0  0  0
   -5.7053   -2.4696    0.9825 O   0  0  0  0  0  0  0  0  0  0  0  0
   -6.7879   -0.6277    1.9670 C   0  0  0  0  0  0  0  0  0  0  0  0
   -7.2718   -0.0164    1.1885 H   0  0  0  0  0  0  0  0  0  0  0  0
   -7.5699   -1.3171    2.3239 H   0  0  0  0  0  0  0  0  0  0  0  0
   -6.6057    0.0628    2.8060 H   0  0  0  0  0  0  0  0  0  0  0  0
   -4.4001   -0.6377    1.5884 N   0  0  0  0  0  0  0  0  0  0  0  0
   -3.1220   -1.1455    1.1644 C   0  0  2  0  0  0  0  0  0  0  0  0
   -2.2017    0.0428    0.9187 C   0  0  0  0  0  0  0  0  0  0  0  0
   -2.6171    1.1750    0.6807 O   0  0  0  0  0  0  0  0  0  0  0  0
   -3.2533   -1.9992   -0.0873 C   0  0  0  0  0  0  0  0  0  0  0  0
   -4.4370    0.2910    2.0047 H   0  0  0  0  0  0  0  0  0  0  0  0
   -2.7302   -1.7467    1.9921 H   0  0  0  0  0  0  0  0  0  0  0  0
   -3.6446   -1.4140   -0.9275 H   0  0  0  0  0  0  0  0  0  0  0  0
   -2.2844   -2.4081   -0.3922 H   0  0  0  0  0  0  0  0  0  0  0  0
   -3.9388   -2.8365    0.0822 H   0  0  0  0  0  0  0  0  0  0  0  0
   -0.8768   -0.3314    0.9568 N   0  0  0  0  0  0  0  0  0  0  0  0
    0.2067    0.6285    0.7375 C   0  0  2  0  0  0  0  0  0  0  0  0
   -0.4581    1.9790    0.4884 C   0  0  0  0  0  0  0  0  0  0  0  0
   -0.6971    2.7749    1.3944 O   0  0  0  0  0  0  0  0  0  0  0  0
    1.0582    0.1689   -0.4554 C   0  0  0  0  0  0  0  0  0  0  0  0
    1.8312   -1.1234   -0.1934 C   0  0  0  0  0  0  0  0  0  0  0  0
    2.6349   -1.5537   -1.3951 C   0  0  0  0  0  0  0  0  0  0  0  0
    2.5677   -1.0099   -2.4901 O   0  0  0  0  0  0  0  0  0  0  0  0
    3.4245   -2.6271   -1.1447 O   0  0  0  0  0  0  0  0  0  0  0  0
   -0.6087   -1.2764    1.1771 H   0  0  0  0  0  0  0  0  0  0  0  0
    0.8235    0.6664    1.6414 H   0  0  0  0  0  0  0  0  0  0  0  0
    0.4084    0.0245   -1.3289 H   0  0  0  0  0  0  0  0  0  0  0  0
    1.7803    0.9499   -0.7279 H   0  0  0  0  0  0  0  0  0  0  0  0
    2.5439   -0.9674    0.6257 H   0  0  0  0  0  0  0  0  0  0  0  0
    1.1742   -1.9334    0.1401 H   0  0  0  0  0  0  0  0  0  0  0  0
    3.9507   -2.9509   -1.9064 H   0  0  0  0  0  0  0  0  0  0  0  0
   -0.7226    2.1982   -0.8554 N   0  0  0  0  0  0  0  0  0  0  0  0
   -1.3473    3.4024   -1.3535 C   0  0  2  0  0  0  0  0  0  0  0  0
   -2.8457    3.1486   -1.4525 C   0  0  0  0  0  0  0  0  0  0  0  0
   -3.3310    2.0226   -1.5401 O   0  0  0  0  0  0  0  0  0  0  0  0
   -0.7740    3.8057   -2.7031 C   0  0  0  0  0  0  0  0  0  0  0  0
   -0.4646    1.4769   -1.5221 H   0  0  0  0  0  0  0  0  0  0  0  0
   -1.1573    4.1869   -0.6128 H   0  0  0  0  0  0  0  0  0  0  0  0
   -0.9547    3.0319   -3.4582 H   0  0  0  0  0  0  0  0  0  0  0  0
   -1.2280    4.7338   -3.0658 H   0  0  0  0  0  0  0  0  0  0  0  0
    0.3085    3.9588   -2.6366 H   0  0  0  0  0  0  0  0  0  0  0  0
   -3.5747    4.3294   -1.4750 N   0  0  0  0  0  0  0  0  0  0  0  0
   -5.0152    4.3545   -1.5770 C   0  0  0  0  0  0  0  0  0  0  0  0
   -3.0909    5.2173   -1.3783 H   0  0  0  0  0  0  0  0  0  0  0  0
   -5.3071    4.4327   -2.6347 H   0  0  0  0  0  0  0  0  0  0  0  0
   -5.4291    3.4291   -1.1500 H   0  0  0  0  0  0  0  0  0  0  0  0
   -5.4068    5.2208   -1.0237 H   0  0  0  0  0  0  0  0  0  0  0  0
  1  3  1  0  0  0  0
  1  7  1  0  0  0  0
  1  2  2  0  0  0  0
 34 35  1  0  0  0  0
 35 43  1  0  0  0  0
 35 36  2  0  0  0  0
  8  9  1  0  0  0  0
  9 17  1  0  0  0  0
  9 10  2  0  0  0  0
 18 19  1  0  0  0  0
 19 33  1  0  0  0  0
 19 20  2  0  0  0  0
 22 23  1  0  0  0  0
 23 24  2  0  0  0  0
 23 25  1  0  0  0  0
 34 37  1  0  0  0  0
  8 11  1  0  0  0  0
 43 44  1  0  0  0  0
 21 22  1  0  0  0  0
 18 21  1  0  0  0  0
 33 34  1  0  0  0  0
  7  8  1  0  0  0  0
 17 18  1  0  0  0  0
  3  4  1  0  0  0  0
  3  5  1  0  0  0  0
  3  6  1  0  0  0  0
 37 40  1  0  0  0  0
 37 41  1  0  0  0  0
 37 42  1  0  0  0  0
 11 14  1  0  0  0  0
 11 15  1  0  0  0  0
 11 16  1  0  0  0  0
 44 46  1  0  0  0  0
 44 47  1  0  0  0  0
 44 48  1  0  0  0  0
 22 30  1  0  0  0  0
 22 31  1  0  0  0  0
 21 28  1  0  0  0  0
 21 29  1  0  0  0  0
 34 39  1  0  0  0  0
  8 13  1  0  0  0  0
 18 27  1  0  0  0  0
 43 45  1  0  0  0  0
  7 12  1  0  0  0  0
 33 38  1  0  0  0  0
 17 26  1  0  0  0  0
 25 32  1  0  0  0  0
M  END
$$$$

  -OEChem-05262214473D

 48 47  0     1  0  0  0  0  0999 V2000
   -5.5827   -1.3473    1.4591 C   0  0  0  0  0  0  0  0  0  0  0  0
   -5.7053   -2.4696    0.9825 O   0  0  0  0  0  0  0  0  0  0  0  0
   -6.7879   -0.6277    1.9670 C   0  0  0  0  0  0  0  0  0  0  0  0
   -7.2718   -0.0164    1.1885 H   0  0  0  0  0  0  0  0  0  0  0  0
   -7.5699   -1.3171    2.3239 H   0  0  0  0  0  0  0  0  0  0  0  0
   -6.6057    0.0628    2.8060 H   0  0  0  0  0  0  0  0  0  0  0  0
   -4.4001   -0.6377    1.5884 N   0  0  0  0  0  0  0  0  0  0  0  0
   -3.1220   -1.1455    1.1644 C   0  0  2  0  0  0  0  0  0  0  0  0
   -2.2017    0.0428    0.9187 C   0  0  0  0  0  0  0  0  0  0  0  0
   -2.6171    1.1750    0.6807 O   0  0  0  0  0  0  0  0  0  0  0  0
   -3.2533   -1.9992   -0.0873 C   0  0  0  0  0  0  0  0  0  0  0  0
   -4.4370    0.2910    2.0047 H   0  0  0  0  0  0  0  0  0  0  0  0
   -2.7302   -1.7467    1.9921 H   0  0  0  0  0  0  0  0  0  0  0  0
   -3.6446   -1.4140   -0.9275 H   0  0  0  0  0  0  0  0  0  0  0  0
   -2.2844   -2.4081   -0.3922 H   0  0  0  0  0  0  0  0  0  0  0  0
   -3.9388   -2.8365    0.0822 H   0  0  0  0  0  0  0  0  0  0  0  0
   -0.8768   -0.3314    0.9568 N   0  0  0  0  0  0  0  0  0  0  0  0
    0.2067    0.6285    0.7375 C   0  0  2  0  0  0  0  0  0  0  0  0
   -0.4581    1.9790    0.4884 C   0  0  0  0  0  0  0  0  0  0  0  0
   -0.4576    2.8800    1.3249 O   0  0  0  0  0  0  0  0  0  0  0  0
    1.0582    0.1689   -0.4554 C   0  0  0  0  0  0  0  0  0  0  0  0
    1.8312   -1.1234   -0.1934 C   0  0  0  0  0  0  0  0  0  0  0  0
    2.6349   -1.5537   -1.3951 C   0  0  0  0  0  0  0  0  0  0  0  0
    2.5677   -1.0099   -2.4901 O   0  0  0  0  0  0  0  0  0  0  0  0
    3.4245   -2.6271   -1.1447 O   0  0  0  0  0  0  0  0  0  0  0  0
   -0.6087   -1.2764    1.1771 H   0  0  0  0  0  0  0  0  0  0  0  0
    0.8235    0.6664    1.6414 H   0  0  0  0  0  0  0  0  0  0  0  0
    0.4084    0.0245   -1.3289 H   0  0  0  0  0  0  0  0  0  0  0  0
    1.7803    0.9499   -0.7279 H   0  0  0  0  0  0  0  0  0  0  0  0
    2.5439   -0.9674    0.6257 H   0  0  0  0  0  0  0  0  0  0  0  0
    1.1742   -1.9334    0.1401 H   0  0  0  0  0  0  0  0  0  0  0  0
    3.9507   -2.9509   -1.9064 H   0  0  0  0  0  0  0  0  0  0  0  0
   -1.0201    2.0662   -0.7767 N   0  0  0  0  0  0  0  0  0  0  0  0
   -1.7078    3.2425   -1.2584 C   0  0  2  0  0  0  0  0  0  0  0  0
   -3.1951    3.0629   -0.9846 C   0  0  0  0  0  0  0  0  0  0  0  0
   -3.7200    1.9626   -0.8267 O   0  0  0  0  0  0  0  0  0  0  0  0
   -1.4510    3.4654   -2.7407 C   0  0  0  0  0  0  0  0  0  0  0  0
   -0.9445    1.2641   -1.3949 H   0  0  0  0  0  0  0  0  0  0  0  0
   -1.3287    4.0905   -0.6777 H   0  0  0  0  0  0  0  0  0  0  0  0
   -1.8240    2.6260   -3.3387 H   0  0  0  0  0  0  0  0  0  0  0  0
   -1.9494    4.3727   -3.0976 H   0  0  0  0  0  0  0  0  0  0  0  0
   -0.3785    3.5647   -2.9398 H   0  0  0  0  0  0  0  0  0  0  0  0
   -3.8748    4.2729   -0.9801 N   0  0  0  0  0  0  0  0  0  0  0  0
   -5.2984    4.3666   -0.7552 C   0  0  0  0  0  0  0  0  0  0  0  0
   -3.3561    5.1379   -1.1008 H   0  0  0  0  0  0  0  0  0  0  0  0
   -5.8249    4.3464   -1.7208 H   0  0  0  0  0  0  0  0  0  0  0  0
   -5.6290    3.5170   -0.1396 H   0  0  0  0  0  0  0  0  0  0  0  0
   -5.5259    5.3079   -0.2334 H   0  0  0  0  0  0  0  0  0  0  0  0
  1  3  1  0  0  0  0
  1  7  1  0  0  0  0
  1  2  2  0  0  0  0
 34 35  1  0  0  0  0
 35 43  1  0  0  0  0
 35 36  2  0  0  0  0
  8  9  1  0  0  0  0
  9 17  1  0  0  0  0
  9 10  2  0  0  0  0
 18 19  1  0  0  0  0
 19 33  1  0  0  0  0
 19 20  2  0  0  0  0
 22 23  1  0  0  0  0
 23 24  2  0  0  0  0
 23 25  1  0  0  0  0
 34 37  1  0  0  0  0
  8 11  1  0  0  0  0
 43 44  1  0  0  0  0
 21 22  1  0  0  0  0
 18 21  1  0  0  0  0
 33 34  1  0  0  0  0
  7  8  1  0  0  0  0
 17 18  1  0  0  0  0
  3  4  1  0  0  0  0
  3  5  1  0  0  0  0
  3  6  1  0  0  0  0
 37 40  1  0  0  0  0
 37 41  1  0  0  0  0
 37 42  1  0  0  0  0
 11 14  1  0  0  0  0
 11 15  1  0  0  0  0
 11 16  1  0  0  0  0
 44 46  1  0  0  0  0
 44 47  1  0  0  0  0
 44 48  1  0  0  0  0
 22 30  1  0  0  0  0
 22 31  1  0  0  0  0
 21 28  1  0  0  0  0
 21 29  1  0  0  0  0
 34 39  1  0  0  0  0
  8 13  1  0  0  0  0
 18 27  1  0  0  0  0
 43 45  1  0  0  0  0
  7 12  1  0  0  0  0
 33 38  1  0  0  0  0
 17 26  1  0  0  0  0
 25 32  1  0  0  0  0
M  END
$$$$

  -OEChem-05262214473D

 48 47  0     1  0  0  0  0  0999 V2000
   -5.5827   -1.3473    1.4591 C   0  0  0  0  0  0  0  0  0  0  0  0
   -5.7053   -2.4696    0.9825 O   0  0  0  0  0  0  0  0  0  0  0  0
   -6.7879   -0.6277    1.9670 C   0  0  0  0  0  0  0  0  0  0  0  0
   -7.2718   -0.0164    1.1885 H   0  0  0  0  0  0  0  0  0  0  0  0
   -7.5699   -1.3171    2.3239 H   0  0  0  0  0  0  0  0  0  0  0  0
   -6.6057    0.0628    2.8060 H   0  0  0  0  0  0  0  0  0  0  0  0
   -4.4001   -0.6377    1.5884 N   0  0  0  0  0  0  0  0  0  0  0  0
   -3.1220   -1.1455    1.1644 C   0  0  2  0  0  0  0  0  0  0  0  0
   -2.2017    0.0428    0.9187 C   0  0  0  0  0  0  0  0  0  0  0  0
   -2.6171    1.1750    0.6807 O   0  0  0  0  0  0  0  0  0  0  0  0
   -3.2533   -1.9992   -0.0873 C   0  0  0  0  0  0  0  0  0  0  0  0
   -4.4370    0.2910    2.0047 H   0  0  0  0  0  0  0  0  0  0  0  0
   -2.7302   -1.7467    1.9921 H   0  0  0  0  0  0  0  0  0  0  0  0
   -3.6446   -1.4140   -0.9275 H   0  0  0  0  0  0  0  0  0  0  0  0
   -2.2844   -2.4081   -0.3922 H   0  0  0  0  0  0  0  0  0  0  0  0
   -3.9388   -2.8365    0.0822 H   0  0  0  0  0  0  0  0  0  0  0  0
   -0.8768   -0.3314    0.9568 N   0  0  0  0  0  0  0  0  0  0  0  0
    0.2067    0.6285    0.7375 C   0  0  2  0  0  0  0  0  0  0  0  0
   -0.4581    1.9790    0.4884 C   0  0  0  0  0  0  0  0  0  0  0  0
   -0.2377    2.9635    1.1910 O   0  0  0  0  0  0  0  0  0  0  0  0
    1.0582    0.1689   -0.4554 C   0  0  0  0  0  0  0  0  0  0  0  0
    1.8312   -1.1234   -0.1934 C   0  0  0  0  0  0  0  0  0  0  0  0
    2.6349   -1.5537   -1.3951 C   0  0  0  0  0  0  0  0  0  0  0  0
    2.5677   -1.0099   -2.4901 O   0  0  0  0  0  0  0  0  0  0  0  0
    3.4245   -2.6271   -1.1447 O   0  0  0  0  0  0  0  0  0  0  0  0
   -0.6087   -1.2764    1.1771 H   0  0  0  0  0  0  0  0  0  0  0  0
    0.8235    0.6664    1.6414 H   0  0  0  0  0  0  0  0  0  0  0  0
    0.4084    0.0245   -1.3289 H   0  0  0  0  0  0  0  0  0  0  0  0
    1.7803    0.9499   -0.7279 H   0  0  0  0  0  0  0  0  0  0  0  0
    2.5439   -0.9674    0.6257 H   0  0  0  0  0  0  0  0  0  0  0  0
    1.1742   -1.9334    0.1401 H   0  0  0  0  0  0  0  0  0  0  0  0
    3.9507   -2.9509   -1.9064 H   0  0  0  0  0  0  0  0  0  0  0  0
   -1.2949    1.9603   -0.6176 N   0  0  0  0  0  0  0  0  0  0  0  0
   -2.0409    3.1140   -1.0659 C   0  0  2  0  0  0  0  0  0  0  0  0
   -3.4291    3.0476   -0.4429 C   0  0  0  0  0  0  0  0  0  0  0  0
   -3.9350    2.0016   -0.0418 O   0  0  0  0  0  0  0  0  0  0  0  0
   -2.1279    3.1612   -2.5835 C   0  0  0  0  0  0  0  0  0  0  0  0
   -1.3879    1.0932   -1.1380 H   0  0  0  0  0  0  0  0  0  0  0  0
   -1.5132    3.9974   -0.6902 H   0  0  0  0  0  0  0  0  0  0  0  0
   -2.6535    2.2841   -2.9783 H   0  0  0  0  0  0  0  0  0  0  0  0
   -2.6688    4.0509   -2.9224 H   0  0  0  0  0  0  0  0  0  0  0  0
   -1.1282    3.1788   -3.0308 H   0  0  0  0  0  0  0  0  0  0  0  0
   -4.0537    4.2869   -0.4269 N   0  0  0  0  0  0  0  0  0  0  0  0
   -5.3832    4.4830    0.1022 C   0  0  0  0  0  0  0  0  0  0  0  0
   -3.5521    5.1037   -0.7630 H   0  0  0  0  0  0  0  0  0  0  0  0
   -6.1193    4.3879   -0.7097 H   0  0  0  0  0  0  0  0  0  0  0  0
   -5.5869    3.7244    0.8723 H   0  0  0  0  0  0  0  0  0  0  0  0
   -5.4562    5.4862    0.5474 H   0  0  0  0  0  0  0  0  0  0  0  0
  1  3  1  0  0  0  0
  1  7  1  0  0  0  0
  1  2  2  0  0  0  0
 34 35  1  0  0  0  0
 35 43  1  0  0  0  0
 35 36  2  0  0  0  0
  8  9  1  0  0  0  0
  9 17  1  0  0  0  0
  9 10  2  0  0  0  0
 18 19  1  0  0  0  0
 19 33  1  0  0  0  0
 19 20  2  0  0  0  0
 22 23  1  0  0  0  0
 23 24  2  0  0  0  0
 23 25  1  0  0  0  0
 34 37  1  0  0  0  0
  8 11  1  0  0  0  0
 43 44  1  0  0  0  0
 21 22  1  0  0  0  0
 18 21  1  0  0  0  0
 33 34  1  0  0  0  0
  7  8  1  0  0  0  0
 17 18  1  0  0  0  0
  3  4  1  0  0  0  0
  3  5  1  0  0  0  0
  3  6  1  0  0  0  0
 37 40  1  0  0  0  0
 37 41  1  0  0  0  0
 37 42  1  0  0  0  0
 11 14  1  0  0  0  0
 11 15  1  0  0  0  0
 11 16  1  0  0  0  0
 44 46  1  0  0  0  0
 44 47  1  0  0  0  0
 44 48  1  0  0  0  0
 22 30  1  0  0  0  0
 22 31  1  0  0  0  0
 21 28  1  0  0  0  0
 21 29  1  0  0  0  0
 34 39  1  0  0  0  0
  8 13  1  0  0  0  0
 18 27  1  0  0  0  0
 43 45  1  0  0  0  0
  7 12  1  0  0  0  0
 33 38  1  0  0  0  0
 17 26  1  0  0  0  0
 25 32  1  0  0  0  0
M  END
$$$$

  -OEChem-05262214473D

 48 47  0     1  0  0  0  0  0999 V2000
   -5.5827   -1.3473    1.4591 C   0  0  0  0  0  0  0  0  0  0  0  0
   -5.7053   -2.4696    0.9825 O   0  0  0  0  0  0  0  0  0  0  0  0
   -6.7879   -0.6277    1.9670 C   0  0  0  0  0  0  0  0  0  0  0  0
   -7.2718   -0.0164    1.1885 H   0  0  0  0  0  0  0  0  0  0  0  0
   -7.5699   -1.3171    2.3239 H   0  0  0  0  0  0  0  0  0  0  0  0
   -6.6057    0.0628    2.8060 H   0  0  0  0  0  0  0  0  0  0  0  0
   -4.4001   -0.6377    1.5884 N   0  0  0  0  0  0  0  0  0  0  0  0
   -3.1220   -1.1455    1.1644 C   0  0  2  0  0  0  0  0  0  0  0  0
   -2.2017    0.0428    0.9187 C   0  0  0  0  0  0  0  0  0  0  0  0
   -2.6171    1.1750    0.6807 O   0  0  0  0  0  0  0  0  0  0  0  0
   -3.2533   -1.9992   -0.0873 C   0  0  0  0  0  0  0  0  0  0  0  0
   -4.4370    0.2910    2.0047 H   0  0  0  0  0  0  0  0  0  0  0  0
   -2.7302   -1.7467    1.9921 H   0  0  0  0  0  0  0  0  0  0  0  0
   -3.6446   -1.4140   -0.9275 H   0  0  0  0  0  0  0  0  0  0  0  0
   -2.2844   -2.4081   -0.3922 H   0  0  0  0  0  0  0  0  0  0  0  0
   -3.9388   -2.8365    0.0822 H   0  0  0  0  0  0  0  0  0  0  0  0
   -0.8768   -0.3314    0.9568 N   0  0  0  0  0  0  0  0  0  0  0  0
    0.2067    0.6285    0.7375 C   0  0  2  0  0  0  0  0  0  0  0  0
   -0.4581    1.9790    0.4884 C   0  0  0  0  0  0  0  0  0  0  0  0
   -0.0525    3.0198    1.0018 O   0  0  0  0  0  0  0  0  0  0  0  0
    1.0582    0.1689   -0.4554 C   0  0  0  0  0  0  0  0  0  0  0  0
    1.8312   -1.1234   -0.1934 C   0  0  0  0  0  0  0  0  0  0  0  0
    2.6349   -1.5537   -1.3951 C   0  0  0  0  0  0  0  0  0  0  0  0
    2.5677   -1.0099   -2.4901 O   0  0  0  0  0  0  0  0  0  0  0  0
    3.4245   -2.6271   -1.1447 O   0  0  0  0  0  0  0  0  0  0  0  0
   -0.6087   -1.2764    1.1771 H   0  0  0  0  0  0  0  0  0  0  0  0
    0.8235    0.6664    1.6414 H   0  0  0  0  0  0  0  0  0  0  0  0
    0.4084    0.0245   -1.3289 H   0  0  0  0  0  0  0  0  0  0  0  0
    1.7803    0.9499   -0.7279 H   0  0  0  0  0  0  0  0  0  0  0  0
    2.5439   -0.9674    0.6257 H   0  0  0  0  0  0  0  0  0  0  0  0
    1.1742   -1.9334    0.1401 H   0  0  0  0  0  0  0  0  0  0  0  0
    3.9507   -2.9509   -1.9064 H   0  0  0  0  0  0  0  0  0  0  0  0
   -1.5284    1.8875   -0.3891 N   0  0  0  0  0  0  0  0  0  0  0  0
   -2.3241    3.0257   -0.7892 C   0  0  2  0  0  0  0  0  0  0  0  0
   -3.5316    3.1039    0.1356 C   0  0  0  0  0  0  0  0  0  0  0  0
   -3.9611    2.1368    0.7612 O   0  0  0  0  0  0  0  0  0  0  0  0
   -2.7586    2.9136   -2.2423 C   0  0  0  0  0  0  0  0  0  0  0  0
   -1.7646    0.9758   -0.7691 H   0  0  0  0  0  0  0  0  0  0  0  0
   -1.6982    3.9138   -0.6496 H   0  0  0  0  0  0  0  0  0  0  0  0
   -3.3866    2.0295   -2.4016 H   0  0  0  0  0  0  0  0  0  0  0  0
   -3.3372    3.7902   -2.5521 H   0  0  0  0  0  0  0  0  0  0  0  0
   -1.8896    2.8275   -2.9034 H   0  0  0  0  0  0  0  0  0  0  0  0
   -4.0992    4.3703    0.1468 N   0  0  0  0  0  0  0  0  0  0  0  0
   -5.2638    4.6957    0.9366 C   0  0  0  0  0  0  0  0  0  0  0  0
   -3.6655    5.1170   -0.3880 H   0  0  0  0  0  0  0  0  0  0  0  0
   -6.1703    4.5545    0.3297 H   0  0  0  0  0  0  0  0  0  0  0  0
   -5.3056    4.0370    1.8166 H   0  0  0  0  0  0  0  0  0  0  0  0
   -5.2025    5.7436    1.2655 H   0  0  0  0  0  0  0  0  0  0  0  0
  1  3  1  0  0  0  0
  1  7  1  0  0  0  0
  1  2  2  0  0  0  0
 34 35  1  0  0  0  0
 35 43  1  0  0  0  0
 35 36  2  0  0  0  0
  8  9  1  0  0  0  0
  9 17  1  0  0  0  0
  9 10  2  0  0  0  0
 18 19  1  0  0  0  0
 19 33  1  0  0  0  0
 19 20  2  0  0  0  0
 22 23  1  0  0  0  0
 23 24  2  0  0  0  0
 23 25  1  0  0  0  0
 34 37  1  0  0  0  0
  8 11  1  0  0  0  0
 43 44  1  0  0  0  0
 21 22  1  0  0  0  0
 18 21  1  0  0  0  0
 33 34  1  0  0  0  0
  7  8  1  0  0  0  0
 17 18  1  0  0  0  0
  3  4  1  0  0  0  0
  3  5  1  0  0  0  0
  3  6  1  0  0  0  0
 37 40  1  0  0  0  0
 37 41  1  0  0  0  0
 37 42  1  0  0  0  0
 11 14  1  0  0  0  0
 11 15  1  0  0  0  0
 11 16  1  0  0  0  0
 44 46  1  0  0  0  0
 44 47  1  0  0  0  0
 44 48  1  0  0  0  0
 22 30  1  0  0  0  0
 22 31  1  0  0  0  0
 21 28  1  0  0  0  0
 21 29  1  0  0  0  0
 34 39  1  0  0  0  0
  8 13  1  0  0  0  0
 18 27  1  0  0  0  0
 43 45  1  0  0  0  0
  7 12  1  0  0  0  0
 33 38  1  0  0  0  0
 17 26  1  0  0  0  0
 25 32  1  0  0  0  0
M  END
$$$$

  -OEChem-05262214473D

 48 47  0     1  0  0  0  0  0999 V2000
   -5.5827   -1.3473    1.4591 C   0  0  0  0  0  0  0  0  0  0  0  0
   -5.7053   -2.4696    0.9825 O   0  0  0  0  0  0  0  0  0  0  0  0
   -6.7879   -0.6277    1.9670 C   0  0  0  0  0  0  0  0  0  0  0  0
   -7.2718   -0.0164    1.1885 H   0  0  0  0  0  0  0  0  0  0  0  0
   -7.5699   -1.3171    2.3239 H   0  0  0  0  0  0  0  0  0  0  0  0
   -6.6057    0.0628    2.8060 H   0  0  0  0  0  0  0  0  0  0  0  0
   -4.4001   -0.6377    1.5884 N   0  0  0  0  0  0  0  0  0  0  0  0
   -3.1220   -1.1455    1.1644 C   0  0  2  0  0  0  0  0  0  0  0  0
   -2.2017    0.0428    0.9187 C   0  0  0  0  0  0  0  0  0  0  0  0
   -2.6171    1.1750    0.6807 O   0  0  0  0  0  0  0  0  0  0  0  0
   -3.2533   -1.9992   -0.0873 C   0  0  0  0  0  0  0  0  0  0  0  0
   -4.4370    0.2910    2.0047 H   0  0  0  0  0  0  0  0  0  0  0  0
   -2.7302   -1.7467    1.9921 H   0  0  0  0  0  0  0  0  0  0  0  0
   -3.6446   -1.4140   -0.9275 H   0  0  0  0  0  0  0  0  0  0  0  0
   -2.2844   -2.4081   -0.3922 H   0  0  0  0  0  0  0  0  0  0  0  0
   -3.9388   -2.8365    0.0822 H   0  0  0  0  0  0  0  0  0  0  0  0
   -0.8768   -0.3314    0.9568 N   0  0  0  0  0  0  0  0  0  0  0  0
    0.2067    0.6285    0.7375 C   0  0  2  0  0  0  0  0  0  0  0  0
   -0.4581    1.9790    0.4884 C   0  0  0  0  0  0  0  0  0  0  0  0
    0.0854    3.0450    0.7703 O   0  0  0  0  0  0  0  0  0  0  0  0
    1.0582    0.1689   -0.4554 C   0  0  0  0  0  0  0  0  0  0  0  0
    1.8312   -1.1234   -0.1934 C   0  0  0  0  0  0  0  0  0  0  0  0
    2.6349   -1.5537   -1.3951 C   0  0  0  0  0  0  0  0  0  0  0  0
    2.5677   -1.0099   -2.4901 O   0  0  0  0  0  0  0  0  0  0  0  0
    3.4245   -2.6271   -1.1447 O   0  0  0  0  0  0  0  0  0  0  0  0
   -0.6087   -1.2764    1.1771 H   0  0  0  0  0  0  0  0  0  0  0  0
    0.8235    0.6664    1.6414 H   0  0  0  0  0  0  0  0  0  0  0  0
    0.4084    0.0245   -1.3289 H   0  0  0  0  0  0  0  0  0  0  0  0
    1.7803    0.9499   -0.7279 H   0  0  0  0  0  0  0  0  0  0  0  0
    2.5439   -0.9674    0.6257 H   0  0  0  0  0  0  0  0  0  0  0  0
    1.1742   -1.9334    0.1401 H   0  0  0  0  0  0  0  0  0  0  0  0
    3.9507   -2.9509   -1.9064 H   0  0  0  0  0  0  0  0  0  0  0  0
   -1.7047    1.8528   -0.1066 N   0  0  0  0  0  0  0  0  0  0  0  0
   -2.5379    2.9835   -0.4471 C   0  0  2  0  0  0  0  0  0  0  0  0
   -3.4957    3.2278    0.7115 C   0  0  0  0  0  0  0  0  0  0  0  0
   -3.7967    2.3591    1.5276 O   0  0  0  0  0  0  0  0  0  0  0  0
   -3.3001    2.7396   -1.7403 C   0  0  0  0  0  0  0  0  0  0  0  0
   -2.0488    0.9199   -0.3132 H   0  0  0  0  0  0  0  0  0  0  0  0
   -1.8711    3.8455   -0.5585 H   0  0  0  0  0  0  0  0  0  0  0  0
   -3.9734    1.8796   -1.6479 H   0  0  0  0  0  0  0  0  0  0  0  0
   -3.9089    3.6083   -2.0118 H   0  0  0  0  0  0  0  0  0  0  0  0
   -2.6106    2.5347   -2.5663 H   0  0  0  0  0  0  0  0  0  0  0  0
   -4.0082    4.5175    0.7020 N   0  0  0  0  0  0  0  0  0  0  0  0
   -4.9483    4.9902    1.6913 C   0  0  0  0  0  0  0  0  0  0  0  0
   -3.6885    5.1770   -0.0013 H   0  0  0  0  0  0  0  0  0  0  0  0
   -5.9744    4.8348    1.3265 H   0  0  0  0  0  0  0  0  0  0  0  0
   -4.8044    4.4336    2.6291 H   0  0  0  0  0  0  0  0  0  0  0  0
   -4.7821    6.0624    1.8721 H   0  0  0  0  0  0  0  0  0  0  0  0
  1  3  1  0  0  0  0
  1  7  1  0  0  0  0
  1  2  2  0  0  0  0
 34 35  1  0  0  0  0
 35 43  1  0  0  0  0
 35 36  2  0  0  0  0
  8  9  1  0  0  0  0
  9 17  1  0  0  0  0
  9 10  2  0  0  0  0
 18 19  1  0  0  0  0
 19 33  1  0  0  0  0
 19 20  2  0  0  0  0
 22 23  1  0  0  0  0
 23 24  2  0  0  0  0
 23 25  1  0  0  0  0
 34 37  1  0  0  0  0
  8 11  1  0  0  0  0
 43 44  1  0  0  0  0
 21 22  1  0  0  0  0
 18 21  1  0  0  0  0
 33 34  1  0  0  0  0
  7  8  1  0  0  0  0
 17 18  1  0  0  0  0
  3  4  1  0  0  0  0
  3  5  1  0  0  0  0
  3  6  1  0  0  0  0
 37 40  1  0  0  0  0
 37 41  1  0  0  0  0
 37 42  1  0  0  0  0
 11 14  1  0  0  0  0
 11 15  1  0  0  0  0
 11 16  1  0  0  0  0
 44 46  1  0  0  0  0
 44 47  1  0  0  0  0
 44 48  1  0  0  0  0
 22 30  1  0  0  0  0
 22 31  1  0  0  0  0
 21 28  1  0  0  0  0
 21 29  1  0  0  0  0
 34 39  1  0  0  0  0
  8 13  1  0  0  0  0
 18 27  1  0  0  0  0
 43 45  1  0  0  0  0
  7 12  1  0  0  0  0
 33 38  1  0  0  0  0
 17 26  1  0  0  0  0
 25 32  1  0  0  0  0
M  END
$$$$

  -OEChem-05262214473D

 48 47  0     1  0  0  0  0  0999 V2000
   -5.5827   -1.3473    1.4591 C   0  0  0  0  0  0  0  0  0  0  0  0
   -5.7053   -2.4696    0.9825 O   0  0  0  0  0  0  0  0  0  0  0  0
   -6.7879   -0.6277    1.9670 C   0  0  0  0  0  0  0  0  0  0  0  0
   -7.2718   -0.0164    1.1885 H   0  0  0  0  0  0  0  0  0  0  0  0
   -7.5699   -1.3171    2.3239 H   0  0  0  0  0  0  0  0  0  0  0  0
   -6.6057    0.0628    2.8060 H   0  0  0  0  0  0  0  0  0  0  0  0
   -4.4001   -0.6377    1.5884 N   0  0  0  0  0  0  0  0  0  0  0  0
   -3.1220   -1.1455    1.1644 C   0  0  2  0  0  0  0  0  0  0  0  0
   -2.2017    0.0428    0.9187 C   0  0  0  0  0  0  0  0  0  0  0  0
   -2.6171    1.1750    0.6807 O   0  0  0  0  0  0  0  0  0  0  0  0
   -3.2533   -1.9992   -0.0873 C   0  0  0  0  0  0  0  0  0  0  0  0
   -4.4370    0.2910    2.0047 H   0  0  0  0  0  0  0  0  0  0  0  0
   -2.7302   -1.7467    1.9921 H   0  0  0  0  0  0  0  0  0  0  0  0
   -3.6446   -1.4140   -0.9275 H   0  0  0  0  0  0  0  0  0  0  0  0
   -2.2844   -2.4081   -0.3922 H   0  0  0  0  0  0  0  0  0  0  0  0
   -3.9388   -2.8365    0.0822 H   0  0  0  0  0  0  0  0  0  0  0  0
   -0.8768   -0.3314    0.9568 N   0  0  0  0  0  0  0  0  0  0  0  0
    0.2067    0.6285    0.7375 C   0  0  2  0  0  0  0  0  0  0  0  0
   -0.4581    1.9790    0.4884 C   0  0  0  0  0  0  0  0  0  0  0  0
    0.1667    3.0375    0.5123 O   0  0  0  0  0  0  0  0  0  0  0  0
    1.0582    0.1689   -0.4554 C   0  0  0  0  0  0  0  0  0  0  0  0
    1.8312   -1.1234   -0.1934 C   0  0  0  0  0  0  0  0  0  0  0  0
    2.6349   -1.5537   -1.3951 C   0  0  0  0  0  0  0  0  0  0  0  0
    2.5677   -1.0099   -2.4901 O   0  0  0  0  0  0  0  0  0  0  0  0
    3.4245   -2.6271   -1.1447 O   0  0  0  0  0  0  0  0  0  0  0  0
   -0.6087   -1.2764    1.1771 H   0  0  0  0  0  0  0  0  0  0  0  0
    0.8235    0.6664    1.6414 H   0  0  0  0  0  0  0  0  0  0  0  0
    0.4084    0.0245   -1.3289 H   0  0  0  0  0  0  0  0  0  0  0  0
    1.7803    0.9499   -0.7279 H   0  0  0  0  0  0  0  0  0  0  0  0
    2.5439   -0.9674    0.6257 H   0  0  0  0  0  0  0  0  0  0  0  0
    1.1742   -1.9334    0.1401 H   0  0  0  0  0  0  0  0  0  0  0  0
    3.9507   -2.9509   -1.9064 H   0  0  0  0  0  0  0  0  0  0  0  0
   -1.8117    1.8586    0.2105 N   0  0  0  0  0  0  0  0  0  0  0  0
   -2.6678    2.9904   -0.0629 C   0  0  2  0  0  0  0  0  0  0  0  0
   -3.3238    3.4109    1.2457 C   0  0  0  0  0  0  0  0  0  0  0  0
   -3.4529    2.6533    2.2051 O   0  0  0  0  0  0  0  0  0  0  0  0
   -3.7155    2.6511   -1.1117 C   0  0  0  0  0  0  0  0  0  0  0  0
   -2.2213    0.9294    0.1986 H   0  0  0  0  0  0  0  0  0  0  0  0
   -2.0202    3.7971   -0.4232 H   0  0  0  0  0  0  0  0  0  0  0  0
   -4.3739    1.8447   -0.7686 H   0  0  0  0  0  0  0  0  0  0  0  0
   -4.3451    3.5178   -1.3385 H   0  0  0  0  0  0  0  0  0  0  0  0
   -3.2423    2.3204   -2.0425 H   0  0  0  0  0  0  0  0  0  0  0  0
   -3.7869    4.7184    1.2008 N   0  0  0  0  0  0  0  0  0  0  0  0
   -4.4583    5.3464    2.3147 C   0  0  0  0  0  0  0  0  0  0  0  0
   -3.6196    5.2795    0.3708 H   0  0  0  0  0  0  0  0  0  0  0  0
   -5.5450    5.2096    2.2130 H   0  0  0  0  0  0  0  0  0  0  0  0
   -4.1174    4.8871    3.2543 H   0  0  0  0  0  0  0  0  0  0  0  0
   -4.2235    6.4210    2.3256 H   0  0  0  0  0  0  0  0  0  0  0  0
  1  3  1  0  0  0  0
  1  7  1  0  0  0  0
  1  2  2  0  0  0  0
 34 35  1  0  0  0  0
 35 43  1  0  0  0  0
 35 36  2  0  0  0  0
  8  9  1  0  0  0  0
  9 17  1  0  0  0  0
  9 10  2  0  0  0  0
 18 19  1  0  0  0  0
 19 33  1  0  0  0  0
 19 20  2  0  0  0  0
 22 23  1  0  0  0  0
 23 24  2  0  0  0  0
 23 25  1  0  0  0  0
 34 37  1  0  0  0  0
  8 11  1  0  0  0  0
 43 44  1  0  0  0  0
 21 22  1  0  0  0  0
 18 21  1  0  0  0  0
 33 34  1  0  0  0  0
  7  8  1  0  0  0  0
 17 18  1  0  0  0  0
  3  4  1  0  0  0  0
  3  5  1  0  0  0  0
  3  6  1  0  0  0  0
 37 40  1  0  0  0  0
 37 41  1  0  0  0  0
 37 42  1  0  0  0  0
 11 14  1  0  0  0  0
 11 15  1  0  0  0  0
 11 16  1  0  0  0  0
 44 46  1  0  0  0  0
 44 47  1  0  0  0  0
 44 48  1  0  0  0  0
 22 30  1  0  0  0  0
 22 31  1  0  0  0  0
 21 28  1  0  0  0  0
 21 29  1  0  0  0  0
 34 39  1  0  0  0  0
  8 13  1  0  0  0  0
 18 27  1  0  0  0  0
 43 45  1  0  0  0  0
  7 12  1  0  0  0  0
 33 38  1  0  0  0  0
 17 26  1  0  0  0  0
 25 32  1  0  0  0  0
M  END
$$$$

  -OEChem-05262214473D

 48 47  0     1  0  0  0  0  0999 V2000
   -5.5827   -1.3473    1.4591 C   0  0  0  0  0  0  0  0  0  0  0  0
   -5.7053   -2.4696    0.9825 O   0  0  0  0  0  0  0  0  0  0  0  0
   -6.7879   -0.6277    1.9670 C   0  0  0  0  0  0  0  0  0  0  0  0
   -7.2718   -0.0164    1.1885 H   0  0  0  0  0  0  0  0  0  0  0  0
   -7.5699   -1.3171    2.3239 H   0  0  0  0  0  0  0  0  0  0  0  0
   -6.6057    0.0628    2.8060 H   0  0  0  0  0  0  0  0  0  0  0  0
   -4.4001   -0.6377    1.5884 N   0  0  0  0  0  0  0  0  0  0  0  0
   -3.1220   -1.1455    1.1644 C   0  0  2  0  0  0  0  0  0  0  0  0
   -2.2017    0.0428    0.9187 C   0  0  0  0  0  0  0  0  0  0  0  0
   -2.6171    1.1750    0.6807 O   0  0  0  0  0  0  0  0  0  0  0  0
   -3.2533   -1.9992   -0.0873 C   0  0  0  0  0  0  0  0  0  0  0  0
   -4.4370    0.2910    2.0047 H   0  0  0  0  0  0  0  0  0  0  0  0
   -2.7302   -1.7467    1.9921 H   0  0  0  0  0  0  0  0  0  0  0  0
   -3.6446   -1.4140   -0.9275 H   0  0  0  0  0  0  0  0  0  0  0  0
   -2.2844   -2.4081   -0.3922 H   0  0  0  0  0  0  0  0  0  0  0  0
   -3.9388   -2.8365    0.0822 H   0  0  0  0  0  0  0  0  0  0  0  0
   -0.8768   -0.3314    0.9568 N   0  0  0  0  0  0  0  0  0  0  0  0
    0.2067    0.6285    0.7375 C   0  0  2  0  0  0  0  0  0  0  0  0
   -0.4581    1.9790    0.4884 C   0  0  0  0  0  0  0  0  0  0  0  0
    0.1858    2.9976    0.2453 O   0  0  0  0  0  0  0  0  0  0  0  0
    1.0582    0.1689   -0.4554 C   0  0  0  0  0  0  0  0  0  0  0  0
    1.8312   -1.1234   -0.1934 C   0  0  0  0  0  0  0  0  0  0  0  0
    2.6349   -1.5537   -1.3951 C   0  0  0  0  0  0  0  0  0  0  0  0
    2.5677   -1.0099   -2.4901 O   0  0  0  0  0  0  0  0  0  0  0  0
    3.4245   -2.6271   -1.1447 O   0  0  0  0  0  0  0  0  0  0  0  0
   -0.6087   -1.2764    1.1771 H   0  0  0  0  0  0  0  0  0  0  0  0
    0.8235    0.6664    1.6414 H   0  0  0  0  0  0  0  0  0  0  0  0
    0.4084    0.0245   -1.3289 H   0  0  0  0  0  0  0  0  0  0  0  0
    1.7803    0.9499   -0.7279 H   0  0  0  0  0  0  0  0  0  0  0  0
    2.5439   -0.9674    0.6257 H   0  0  0  0  0  0  0  0  0  0  0  0
    1.1742   -1.9334    0.1401 H   0  0  0  0  0  0  0  0  0  0  0  0
    3.9507   -2.9509   -1.9064 H   0  0  0  0  0  0  0  0  0  0  0  0
   -1.8422    1.9045    0.5407 N   0  0  0  0  0  0  0  0  0  0  0  0
   -2.7050    3.0459    0.3372 C   0  0  2  0  0  0  0  0  0  0  0  0
   -3.0277    3.6407    1.7016 C   0  0  0  0  0  0  0  0  0  0  0  0
   -2.9531    2.9993    2.7476 O   0  0  0  0  0  0  0  0  0  0  0  0
   -3.9765    2.6540   -0.3994 C   0  0  0  0  0  0  0  0  0  0  0  0
   -2.2703    1.0035    0.7315 H   0  0  0  0  0  0  0  0  0  0  0  0
   -2.1352    3.7719   -0.2529 H   0  0  0  0  0  0  0  0  0  0  0  0
   -4.5607    1.9270    0.1765 H   0  0  0  0  0  0  0  0  0  0  0  0
   -4.6160    3.5247   -0.5780 H   0  0  0  0  0  0  0  0  0  0  0  0
   -3.7414    2.1991   -1.3677 H   0  0  0  0  0  0  0  0  0  0  0  0
   -3.4503    4.9594    1.6092 N   0  0  0  0  0  0  0  0  0  0  0  0
   -3.8270    5.7401    2.7645 C   0  0  0  0  0  0  0  0  0  0  0  0
   -3.4635    5.4176    0.7028 H   0  0  0  0  0  0  0  0  0  0  0  0
   -4.9113    5.6536    2.9285 H   0  0  0  0  0  0  0  0  0  0  0  0
   -3.2914    5.3667    3.6497 H   0  0  0  0  0  0  0  0  0  0  0  0
   -3.5649    6.7950    2.5953 H   0  0  0  0  0  0  0  0  0  0  0  0
  1  3  1  0  0  0  0
  1  7  1  0  0  0  0
  1  2  2  0  0  0  0
 34 35  1  0  0  0  0
 35 43  1  0  0  0  0
 35 36  2  0  0  0  0
  8  9  1  0  0  0  0
  9 17  1  0  0  0  0
  9 10  2  0  0  0  0
 18 19  1  0  0  0  0
 19 33  1  0  0  0  0
 19 20  2  0  0  0  0
 22 23  1  0  0  0  0
 23 24  2  0  0  0  0
 23 25  1  0  0  0  0
 34 37  1  0  0  0  0
  8 11  1  0  0  0  0
 43 44  1  0  0  0  0
 21 22  1  0  0  0  0
 18 21  1  0  0  0  0
 33 34  1  0  0  0  0
  7  8  1  0  0  0  0
 17 18  1  0  0  0  0
  3  4  1  0  0  0  0
  3  5  1  0  0  0  0
  3  6  1  0  0  0  0
 37 40  1  0  0  0  0
 37 41  1  0  0  0  0
 37 42  1  0  0  0  0
 11 14  1  0  0  0  0
 11 15  1  0  0  0  0
 11 16  1  0  0  0  0
 44 46  1  0  0  0  0
 44 47  1  0  0  0  0
 44 48  1  0  0  0  0
 22 30  1  0  0  0  0
 22 31  1  0  0  0  0
 21 28  1  0  0  0  0
 21 29  1  0  0  0  0
 34 39  1  0  0  0  0
  8 13  1  0  0  0  0
 18 27  1  0  0  0  0
 43 45  1  0  0  0  0
  7 12  1  0  0  0  0
 33 38  1  0  0  0  0
 17 26  1  0  0  0  0
 25 32  1  0  0  0  0
M  END
$$$$

  -OEChem-05262214473D

 48 47  0     1  0  0  0  0  0999 V2000
   -5.5827   -1.3473    1.4591 C   0  0  0  0  0  0  0  0  0  0  0  0
   -5.7053   -2.4696    0.9825 O   0  0  0  0  0  0  0  0  0  0  0  0
   -6.7879   -0.6277    1.9670 C   0  0  0  0  0  0  0  0  0  0  0  0
   -7.2718   -0.0164    1.1885 H   0  0  0  0  0  0  0  0  0  0  0  0
   -7.5699   -1.3171    2.3239 H   0  0  0  0  0  0  0  0  0  0  0  0
   -6.6057    0.0628    2.8060 H   0  0  0  0  0  0  0  0  0  0  0  0
   -4.4001   -0.6377    1.5884 N   0  0  0  0  0  0  0  0  0  0  0  0
   -3.1220   -1.1455    1.1644 C   0  0  2  0  0  0  0  0  0  0  0  0
   -2.2017    0.0428    0.9187 C   0  0  0  0  0  0  0  0  0  0  0  0
   -2.6171    1.1750    0.6807 O   0  0  0  0  0  0  0  0  0  0  0  0
   -3.2533   -1.9992   -0.0873 C   0  0  0  0  0  0  0  0  0  0  0  0
   -4.4370    0.2910    2.0047 H   0  0  0  0  0  0  0  0  0  0  0  0
   -2.7302   -1.7467    1.9921 H   0  0  0  0  0  0  0  0  0  0  0  0
   -3.6446   -1.4140   -0.9275 H   0  0  0  0  0  0  0  0  0  0  0  0
   -2.2844   -2.4081   -0.3922 H   0  0  0  0  0  0  0  0  0  0  0  0
   -3.9388   -2.8365    0.0822 H   0  0  0  0  0  0  0  0  0  0  0  0
   -0.8768   -0.3314    0.9568 N   0  0  0  0  0  0  0  0  0  0  0  0
    0.2067    0.6285    0.7375 C   0  0  2  0  0  0  0  0  0  0  0  0
   -0.4581    1.9790    0.4884 C   0  0  0  0  0  0  0  0  0  0  0  0
    0.1414    2.9282   -0.0125 O   0  0  0  0  0  0  0  0  0  0  0  0
    1.0582    0.1689   -0.4554 C   0  0  0  0  0  0  0  0  0  0  0  0
    1.8312   -1.1234   -0.1934 C   0  0  0  0  0  0  0  0  0  0  0  0
    2.6349   -1.5537   -1.3951 C   0  0  0  0  0  0  0  0  0  0  0  0
    2.5677   -1.0099   -2.4901 O   0  0  0  0  0  0  0  0  0  0  0  0
    3.4245   -2.6271   -1.1447 O   0  0  0  0  0  0  0  0  0  0  0  0
   -0.6087   -1.2764    1.1771 H   0  0  0  0  0  0  0  0  0  0  0  0
    0.8235    0.6664    1.6414 H   0  0  0  0  0  0  0  0  0  0  0  0
    0.4084    0.0245   -1.3289 H   0  0  0  0  0  0  0  0  0  0  0  0
    1.7803    0.9499   -0.7279 H   0  0  0  0  0  0  0  0  0  0  0  0
    2.5439   -0.9674    0.6257 H   0  0  0  0  0  0  0  0  0  0  0  0
    1.1742   -1.9334    0.1401 H   0  0  0  0  0  0  0  0  0  0  0  0
    3.9507   -2.9509   -1.9064 H   0  0  0  0  0  0  0  0  0  0  0  0
   -1.7940    1.9873    0.8615 N   0  0  0  0  0  0  0  0  0  0  0  0
   -2.6470    3.1461    0.7259 C   0  0  2  0  0  0  0  0  0  0  0  0
   -2.6276    3.9016    2.0482 C   0  0  0  0  0  0  0  0  0  0  0  0
   -2.3315    3.3737    3.1181 O   0  0  0  0  0  0  0  0  0  0  0  0
   -4.0653    2.7481    0.3481 C   0  0  0  0  0  0  0  0  0  0  0  0
   -2.1924    1.1373    1.2490 H   0  0  0  0  0  0  0  0  0  0  0  0
   -2.2083    3.7716   -0.0592 H   0  0  0  0  0  0  0  0  0  0  0  0
   -4.5212    2.1210    1.1229 H   0  0  0  0  0  0  0  0  0  0  0  0
   -4.7031    3.6286    0.2179 H   0  0  0  0  0  0  0  0  0  0  0  0
   -4.0741    2.1791   -0.5878 H   0  0  0  0  0  0  0  0  0  0  0  0
   -3.0215    5.2241    1.8995 N   0  0  0  0  0  0  0  0  0  0  0  0
   -3.0976    6.1445    3.0099 C   0  0  0  0  0  0  0  0  0  0  0  0
   -3.2309    5.5818    0.9722 H   0  0  0  0  0  0  0  0  0  0  0  0
   -4.1165    6.1363    3.4245 H   0  0  0  0  0  0  0  0  0  0  0  0
   -2.3827    5.8396    3.7884 H   0  0  0  0  0  0  0  0  0  0  0  0
   -2.8512    7.1588    2.6628 H   0  0  0  0  0  0  0  0  0  0  0  0
  1  3  1  0  0  0  0
  1  7  1  0  0  0  0
  1  2  2  0  0  0  0
 34 35  1  0  0  0  0
 35 43  1  0  0  0  0
 35 36  2  0  0  0  0
  8  9  1  0  0  0  0
  9 17  1  0  0  0  0
  9 10  2  0  0  0  0
 18 19  1  0  0  0  0
 19 33  1  0  0  0  0
 19 20  2  0  0  0  0
 22 23  1  0  0  0  0
 23 24  2  0  0  0  0
 23 25  1  0  0  0  0
 34 37  1  0  0  0  0
  8 11  1  0  0  0  0
 43 44  1  0  0  0  0
 21 22  1  0  0  0  0
 18 21  1  0  0  0  0
 33 34  1  0  0  0  0
  7  8  1  0  0  0  0
 17 18  1  0  0  0  0
  3  4  1  0  0  0  0
  3  5  1  0  0  0  0
  3  6  1  0  0  0  0
 37 40  1  0  0  0  0
 37 41  1  0  0  0  0
 37 42  1  0  0  0  0
 11 14  1  0  0  0  0
 11 15  1  0  0  0  0
 11 16  1  0  0  0  0
 44 46  1  0  0  0  0
 44 47  1  0  0  0  0
 44 48  1  0  0  0  0
 22 30  1  0  0  0  0
 22 31  1  0  0  0  0
 21 28  1  0  0  0  0
 21 29  1  0  0  0  0
 34 39  1  0  0  0  0
  8 13  1  0  0  0  0
 18 27  1  0  0  0  0
 43 45  1  0  0  0  0
  7 12  1  0  0  0  0
 33 38  1  0  0  0  0
 17 26  1  0  0  0  0
 25 32  1  0  0  0  0
M  END
$$$$

  -OEChem-05262214473D

 48 47  0     1  0  0  0  0  0999 V2000
   -5.5827   -1.3473    1.4591 C   0  0  0  0  0  0  0  0  0  0  0  0
   -5.7053   -2.4696    0.9825 O   0  0  0  0  0  0  0  0  0  0  0  0
   -6.7879   -0.6277    1.9670 C   0  0  0  0  0  0  0  0  0  0  0  0
   -7.2718   -0.0164    1.1885 H   0  0  0  0  0  0  0  0  0  0  0  0
   -7.5699   -1.3171    2.3239 H   0  0  0  0  0  0  0  0  0  0  0  0
   -6.6057    0.0628    2.8060 H   0  0  0  0  0  0  0  0  0  0  0  0
   -4.4001   -0.6377    1.5884 N   0  0  0  0  0  0  0  0  0  0  0  0
   -3.1220   -1.1455    1.1644 C   0  0  2  0  0  0  0  0  0  0  0  0
   -2.2017    0.0428    0.9187 C   0  0  0  0  0  0  0  0  0  0  0  0
   -2.6171    1.1750    0.6807 O   0  0  0  0  0  0  0  0  0  0  0  0
   -3.2533   -1.9992   -0.0873 C   0  0  0  0  0  0  0  0  0  0  0  0
   -4.4370    0.2910    2.0047 H   0  0  0  0  0  0  0  0  0  0  0  0
   -2.7302   -1.7467    1.9921 H   0  0  0  0  0  0  0  0  0  0  0  0
   -3.6446   -1.4140   -0.9275 H   0  0  0  0  0  0  0  0  0  0  0  0
   -2.2844   -2.4081   -0.3922 H   0  0  0  0  0  0  0  0  0  0  0  0
   -3.9388   -2.8365    0.0822 H   0  0  0  0  0  0  0  0  0  0  0  0
   -0.8768   -0.3314    0.9568 N   0  0  0  0  0  0  0  0  0  0  0  0
    0.2067    0.6285    0.7375 C   0  0  2  0  0  0  0  0  0  0  0  0
   -0.4581    1.9790    0.4884 C   0  0  0  0  0  0  0  0  0  0  0  0
    0.0365    2.8340   -0.2435 O   0  0  0  0  0  0  0  0  0  0  0  0
    1.0582    0.1689   -0.4554 C   0  0  0  0  0  0  0  0  0  0  0  0
    1.8312   -1.1234   -0.1934 C   0  0  0  0  0  0  0  0  0  0  0  0
    2.6349   -1.5537   -1.3951 C   0  0  0  0  0  0  0  0  0  0  0  0
    2.5677   -1.0099   -2.4901 O   0  0  0  0  0  0  0  0  0  0  0  0
    3.4245   -2.6271   -1.1447 O   0  0  0  0  0  0  0  0  0  0  0  0
   -0.6087   -1.2764    1.1771 H   0  0  0  0  0  0  0  0  0  0  0  0
    0.8235    0.6664    1.6414 H   0  0  0  0  0  0  0  0  0  0  0  0
    0.4084    0.0245   -1.3289 H   0  0  0  0  0  0  0  0  0  0  0  0
    1.7803    0.9499   -0.7279 H   0  0  0  0  0  0  0  0  0  0  0  0
    2.5439   -0.9674    0.6257 H   0  0  0  0  0  0  0  0  0  0  0  0
    1.1742   -1.9334    0.1401 H   0  0  0  0  0  0  0  0  0  0  0  0
    3.9507   -2.9509   -1.9064 H   0  0  0  0  0  0  0  0  0  0  0  0
   -1.6706    2.1015    1.1509 N   0  0  0  0  0  0  0  0  0  0  0  0
   -2.4976    3.2844    1.0768 C   0  0  2  0  0  0  0  0  0  0  0  0
   -2.1506    4.1758    2.2619 C   0  0  0  0  0  0  0  0  0  0  0  0
   -1.6304    3.7508    3.2914 O   0  0  0  0  0  0  0  0  0  0  0  0
   -3.9758    2.9271    1.0798 C   0  0  0  0  0  0  0  0  0  0  0  0
   -1.9930    1.3216    1.7159 H   0  0  0  0  0  0  0  0  0  0  0  0
   -2.2346    3.7963    0.1447 H   0  0  0  0  0  0  0  0  0  0  0  0
   -4.2580    2.4134    2.0061 H   0  0  0  0  0  0  0  0  0  0  0  0
   -4.6005    3.8224    0.9949 H   0  0  0  0  0  0  0  0  0  0  0  0
   -4.2177    2.2619    0.2439 H   0  0  0  0  0  0  0  0  0  0  0  0
   -2.5296    5.4943    2.0518 N   0  0  0  0  0  0  0  0  0  0  0  0
   -2.3197    6.5319    3.0343 C   0  0  0  0  0  0  0  0  0  0  0  0
   -2.9375    5.7610    1.1605 H   0  0  0  0  0  0  0  0  0  0  0  0
   -3.2147    6.6250    3.6670 H   0  0  0  0  0  0  0  0  0  0  0  0
   -1.4532    6.2736    3.6607 H   0  0  0  0  0  0  0  0  0  0  0  0
   -2.1310    7.4876    2.5235 H   0  0  0  0  0  0  0  0  0  0  0  0
  1  3  1  0  0  0  0
  1  7  1  0  0  0  0
  1  2  2  0  0  0  0
 34 35  1  0  0  0  0
 35 43  1  0  0  0  0
 35 36  2  0  0  0  0
  8  9  1  0  0  0  0
  9 17  1  0  0  0  0
  9 10  2  0  0  0  0
 18 19  1  0  0  0  0
 19 33  1  0  0  0  0
 19 20  2  0  0  0  0
 22 23  1  0  0  0  0
 23 24  2  0  0  0  0
 23 25  1  0  0  0  0
 34 37  1  0  0  0  0
  8 11  1  0  0  0  0
 43 44  1  0  0  0  0
 21 22  1  0  0  0  0
 18 21  1  0  0  0  0
 33 34  1  0  0  0  0
  7  8  1  0  0  0  0
 17 18  1  0  0  0  0
  3  4  1  0  0  0  0
  3  5  1  0  0  0  0
  3  6  1  0  0  0  0
 37 40  1  0  0  0  0
 37 41  1  0  0  0  0
 37 42  1  0  0  0  0
 11 14  1  0  0  0  0
 11 15  1  0  0  0  0
 11 16  1  0  0  0  0
 44 46  1  0  0  0  0
 44 47  1  0  0  0  0
 44 48  1  0  0  0  0
 22 30  1  0  0  0  0
 22 31  1  0  0  0  0
 21 28  1  0  0  0  0
 21 29  1  0  0  0  0
 34 39  1  0  0  0  0
  8 13  1  0  0  0  0
 18 27  1  0  0  0  0
 43 45  1  0  0  0  0
  7 12  1  0  0  0  0
 33 38  1  0  0  0  0
 17 26  1  0  0  0  0
 25 32  1  0  0  0  0
M  END
$$$$

  -OEChem-05262214473D

 48 47  0     1  0  0  0  0  0999 V2000
   -5.5827   -1.3473    1.4591 C   0  0  0  0  0  0  0  0  0  0  0  0
   -5.7053   -2.4696    0.9825 O   0  0  0  0  0  0  0  0  0  0  0  0
   -6.7879   -0.6277    1.9670 C   0  0  0  0  0  0  0  0  0  0  0  0
   -7.2718   -0.0164    1.1885 H   0  0  0  0  0  0  0  0  0  0  0  0
   -7.5699   -1.3171    2.3239 H   0  0  0  0  0  0  0  0  0  0  0  0
   -6.6057    0.0628    2.8060 H   0  0  0  0  0  0  0  0  0  0  0  0
   -4.4001   -0.6377    1.5884 N   0  0  0  0  0  0  0  0  0  0  0  0
   -3.1220   -1.1455    1.1644 C   0  0  2  0  0  0  0  0  0  0  0  0
   -2.2017    0.0428    0.9187 C   0  0  0  0  0  0  0  0  0  0  0  0
   -2.6171    1.1750    0.6807 O   0  0  0  0  0  0  0  0  0  0  0  0
   -3.2533   -1.9992   -0.0873 C   0  0  0  0  0  0  0  0  0  0  0  0
   -4.4370    0.2910    2.0047 H   0  0  0  0  0  0  0  0  0  0  0  0
   -2.7302   -1.7467    1.9921 H   0  0  0  0  0  0  0  0  0  0  0  0
   -3.6446   -1.4140   -0.9275 H   0  0  0  0  0  0  0  0  0  0  0  0
   -2.2844   -2.4081   -0.3922 H   0  0  0  0  0  0  0  0  0  0  0  0
   -3.9388   -2.8365    0.0822 H   0  0  0  0  0  0  0  0  0  0  0  0
   -0.8768   -0.3314    0.9568 N   0  0  0  0  0  0  0  0  0  0  0  0
    0.2067    0.6285    0.7375 C   0  0  2  0  0  0  0  0  0  0  0  0
   -0.4581    1.9790    0.4884 C   0  0  0  0  0  0  0  0  0  0  0  0
   -0.1217    2.7213   -0.4320 O   0  0  0  0  0  0  0  0  0  0  0  0
    1.0582    0.1689   -0.4554 C   0  0  0  0  0  0  0  0  0  0  0  0
    1.8312   -1.1234   -0.1934 C   0  0  0  0  0  0  0  0  0  0  0  0
    2.6349   -1.5537   -1.3951 C   0  0  0  0  0  0  0  0  0  0  0  0
    2.5677   -1.0099   -2.4901 O   0  0  0  0  0  0  0  0  0  0  0  0
    3.4245   -2.6271   -1.1447 O   0  0  0  0  0  0  0  0  0  0  0  0
   -0.6087   -1.2764    1.1771 H   0  0  0  0  0  0  0  0  0  0  0  0
    0.8235    0.6664    1.6414 H   0  0  0  0  0  0  0  0  0  0  0  0
    0.4084    0.0245   -1.3289 H   0  0  0  0  0  0  0  0  0  0  0  0
    1.7803    0.9499   -0.7279 H   0  0  0  0  0  0  0  0  0  0  0  0
    2.5439   -0.9674    0.6257 H   0  0  0  0  0  0  0  0  0  0  0  0
    1.1742   -1.9334    0.1401 H   0  0  0  0  0  0  0  0  0  0  0  0
    3.9507   -2.9509   -1.9064 H   0  0  0  0  0  0  0  0  0  0  0  0
   -1.4801    2.2392    1.3894 N   0  0  0  0  0  0  0  0  0  0  0  0
   -2.2671    3.4512    1.3659 C   0  0  2  0  0  0  0  0  0  0  0  0
   -1.6294    4.4447    2.3281 C   0  0  0  0  0  0  0  0  0  0  0  0
   -0.8976    4.1050    3.2556 O   0  0  0  0  0  0  0  0  0  0  0  0
   -3.7142    3.1787    1.7460 C   0  0  0  0  0  0  0  0  0  0  0  0
   -1.6856    1.5439    2.1005 H   0  0  0  0  0  0  0  0  0  0  0  0
   -2.2123    3.8442    0.3449 H   0  0  0  0  0  0  0  0  0  0  0  0
   -3.7891    2.7844    2.7659 H   0  0  0  0  0  0  0  0  0  0  0  0
   -4.3153    4.0928    1.7000 H   0  0  0  0  0  0  0  0  0  0  0  0
   -4.1623    2.4417    1.0709 H   0  0  0  0  0  0  0  0  0  0  0  0
   -2.0082    5.7517    2.0557 N   0  0  0  0  0  0  0  0  0  0  0  0
   -1.5464    6.8760    2.8359 C   0  0  0  0  0  0  0  0  0  0  0  0
   -2.6033    5.9429    1.2551 H   0  0  0  0  0  0  0  0  0  0  0  0
   -2.2675    7.0862    3.6395 H   0  0  0  0  0  0  0  0  0  0  0  0
   -0.5663    6.6392    3.2756 H   0  0  0  0  0  0  0  0  0  0  0  0
   -1.4533    7.7592    2.1867 H   0  0  0  0  0  0  0  0  0  0  0  0
  1  3  1  0  0  0  0
  1  7  1  0  0  0  0
  1  2  2  0  0  0  0
 34 35  1  0  0  0  0
 35 43  1  0  0  0  0
 35 36  2  0  0  0  0
  8  9  1  0  0  0  0
  9 17  1  0  0  0  0
  9 10  2  0  0  0  0
 18 19  1  0  0  0  0
 19 33  1  0  0  0  0
 19 20  2  0  0  0  0
 22 23  1  0  0  0  0
 23 24  2  0  0  0  0
 23 25  1  0  0  0  0
 34 37  1  0  0  0  0
  8 11  1  0  0  0  0
 43 44  1  0  0  0  0
 21 22  1  0  0  0  0
 18 21  1  0  0  0  0
 33 34  1  0  0  0  0
  7  8  1  0  0  0  0
 17 18  1  0  0  0  0
  3  4  1  0  0  0  0
  3  5  1  0  0  0  0
  3  6  1  0  0  0  0
 37 40  1  0  0  0  0
 37 41  1  0  0  0  0
 37 42  1  0  0  0  0
 11 14  1  0  0  0  0
 11 15  1  0  0  0  0
 11 16  1  0  0  0  0
 44 46  1  0  0  0  0
 44 47  1  0  0  0  0
 44 48  1  0  0  0  0
 22 30  1  0  0  0  0
 22 31  1  0  0  0  0
 21 28  1  0  0  0  0
 21 29  1  0  0  0  0
 34 39  1  0  0  0  0
  8 13  1  0  0  0  0
 18 27  1  0  0  0  0
 43 45  1  0  0  0  0
  7 12  1  0  0  0  0
 33 38  1  0  0  0  0
 17 26  1  0  0  0  0
 25 32  1  0  0  0  0
M  END
$$$$

  -OEChem-05262214473D

 48 47  0     1  0  0  0  0  0999 V2000
   -5.5827   -1.3473    1.4591 C   0  0  0  0  0  0  0  0  0  0  0  0
   -5.7053   -2.4696    0.9825 O   0  0  0  0  0  0  0  0  0  0  0  0
   -6.7879   -0.6277    1.9670 C   0  0  0  0  0  0  0  0  0  0  0  0
   -7.2718   -0.0164    1.1885 H   0  0  0  0  0  0  0  0  0  0  0  0
   -7.5699   -1.3171    2.3239 H   0  0  0  0  0  0  0  0  0  0  0  0
   -6.6057    0.0628    2.8060 H   0  0  0  0  0  0  0  0  0  0  0  0
   -4.4001   -0.6377    1.5884 N   0  0  0  0  0  0  0  0  0  0  0  0
   -3.1220   -1.1455    1.1644 C   0  0  2  0  0  0  0  0  0  0  0  0
   -2.2017    0.0428    0.9187 C   0  0  0  0  0  0  0  0  0  0  0  0
   -2.6171    1.1750    0.6807 O   0  0  0  0  0  0  0  0  0  0  0  0
   -3.2533   -1.9992   -0.0873 C   0  0  0  0  0  0  0  0  0  0  0  0
   -4.4370    0.2910    2.0047 H   0  0  0  0  0  0  0  0  0  0  0  0
   -2.7302   -1.7467    1.9921 H   0  0  0  0  0  0  0  0  0  0  0  0
   -3.6446   -1.4140   -0.9275 H   0  0  0  0  0  0  0  0  0  0  0  0
   -2.2844   -2.4081   -0.3922 H   0  0  0  0  0  0  0  0  0  0  0  0
   -3.9388   -2.8365    0.0822 H   0  0  0  0  0  0  0  0  0  0  0  0
   -0.8768   -0.3314    0.9568 N   0  0  0  0  0  0  0  0  0  0  0  0
    0.2067    0.6285    0.7375 C   0  0  2  0  0  0  0  0  0  0  0  0
   -0.4581    1.9790    0.4884 C   0  0  0  0  0  0  0  0  0  0  0  0
   -0.3225    2.5979   -0.5651 O   0  0  0  0  0  0  0  0  0  0  0  0
    1.0582    0.1689   -0.4554 C   0  0  0  0  0  0  0  0  0  0  0  0
    1.8312   -1.1234   -0.1934 C   0  0  0  0  0  0  0  0  0  0  0  0
    2.6349   -1.5537   -1.3951 C   0  0  0  0  0  0  0  0  0  0  0  0
    2.5677   -1.0099   -2.4901 O   0  0  0  0  0  0  0  0  0  0  0  0
    3.4245   -2.6271   -1.1447 O   0  0  0  0  0  0  0  0  0  0  0  0
   -0.6087   -1.2764    1.1771 H   0  0  0  0  0  0  0  0  0  0  0  0
    0.8235    0.6664    1.6414 H   0  0  0  0  0  0  0  0  0  0  0  0
    0.4084    0.0245   -1.3289 H   0  0  0  0  0  0  0  0  0  0  0  0
    1.7803    0.9499   -0.7279 H   0  0  0  0  0  0  0  0  0  0  0  0
    2.5439   -0.9674    0.6257 H   0  0  0  0  0  0  0  0  0  0  0  0
    1.1742   -1.9334    0.1401 H   0  0  0  0  0  0  0  0  0  0  0  0
    3.9507   -2.9509   -1.9064 H   0  0  0  0  0  0  0  0  0  0  0  0
   -1.2358    2.3911    1.5605 N   0  0  0  0  0  0  0  0  0  0  0  0
   -1.9711    3.6352    1.5736 C   0  0  2  0  0  0  0  0  0  0  0  0
   -1.0994    4.6898    2.2424 C   0  0  0  0  0  0  0  0  0  0  0  0
   -0.1829    4.4121    3.0132 O   0  0  0  0  0  0  0  0  0  0  0  0
   -3.2982    3.4859    2.3011 C   0  0  0  0  0  0  0  0  0  0  0  0
   -1.2911    1.7890    2.3764 H   0  0  0  0  0  0  0  0  0  0  0  0
   -2.1428    3.9121    0.5277 H   0  0  0  0  0  0  0  0  0  0  0  0
   -3.1465    3.2086    3.3506 H   0  0  0  0  0  0  0  0  0  0  0  0
   -3.8668    4.4216    2.2853 H   0  0  0  0  0  0  0  0  0  0  0  0
   -3.9117    2.7062    1.8367 H   0  0  0  0  0  0  0  0  0  0  0  0
   -1.4927    5.9788    1.9110 N   0  0  0  0  0  0  0  0  0  0  0  0
   -0.8303    7.1534    2.4283 C   0  0  0  0  0  0  0  0  0  0  0  0
   -2.2513    6.1152    1.2493 H   0  0  0  0  0  0  0  0  0  0  0  0
   -1.3394    7.4886    3.3440 H   0  0  0  0  0  0  0  0  0  0  0  0
    0.2176    6.9114    2.6591 H   0  0  0  0  0  0  0  0  0  0  0  0
   -0.8644    7.9548    1.6757 H   0  0  0  0  0  0  0  0  0  0  0  0
  1  3  1  0  0  0  0
  1  7  1  0  0  0  0
  1  2  2  0  0  0  0
 34 35  1  0  0  0  0
 35 43  1  0  0  0  0
 35 36  2  0  0  0  0
  8  9  1  0  0  0  0
  9 17  1  0  0  0  0
  9 10  2  0  0  0  0
 18 19  1  0  0  0  0
 19 33  1  0  0  0  0
 19 20  2  0  0  0  0
 22 23  1  0  0  0  0
 23 24  2  0  0  0  0
 23 25  1  0  0  0  0
 34 37  1  0  0  0  0
  8 11  1  0  0  0  0
 43 44  1  0  0  0  0
 21 22  1  0  0  0  0
 18 21  1  0  0  0  0
 33 34  1  0  0  0  0
  7  8  1  0  0  0  0
 17 18  1  0  0  0  0
  3  4  1  0  0  0  0
  3  5  1  0  0  0  0
  3  6  1  0  0  0  0
 37 40  1  0  0  0  0
 37 41  1  0  0  0  0
 37 42  1  0  0  0  0
 11 14  1  0  0  0  0
 11 15  1  0  0  0  0
 11 16  1  0  0  0  0
 44 46  1  0  0  0  0
 44 47  1  0  0  0  0
 44 48  1  0  0  0  0
 22 30  1  0  0  0  0
 22 31  1  0  0  0  0
 21 28  1  0  0  0  0
 21 29  1  0  0  0  0
 34 39  1  0  0  0  0
  8 13  1  0  0  0  0
 18 27  1  0  0  0  0
 43 45  1  0  0  0  0
  7 12  1  0  0  0  0
 33 38  1  0  0  0  0
 17 26  1  0  0  0  0
 25 32  1  0  0  0  0
M  END
$$$$

  -OEChem-05262214473D

 48 47  0     1  0  0  0  0  0999 V2000
   -5.5827   -1.3473    1.4591 C   0  0  0  0  0  0  0  0  0  0  0  0
   -5.7053   -2.4696    0.9825 O   0  0  0  0  0  0  0  0  0  0  0  0
   -6.7879   -0.6277    1.9670 C   0  0  0  0  0  0  0  0  0  0  0  0
   -7.2718   -0.0164    1.1885 H   0  0  0  0  0  0  0  0  0  0  0  0
   -7.5699   -1.3171    2.3239 H   0  0  0  0  0  0  0  0  0  0  0  0
   -6.6057    0.0628    2.8060 H   0  0  0  0  0  0  0  0  0  0  0  0
   -4.4001   -0.6377    1.5884 N   0  0  0  0  0  0  0  0  0  0  0  0
   -3.1220   -1.1455    1.1644 C   0  0  2  0  0  0  0  0  0  0  0  0
   -2.2017    0.0428    0.9187 C   0  0  0  0  0  0  0  0  0  0  0  0
   -2.6171    1.1750    0.6807 O   0  0  0  0  0  0  0  0  0  0  0  0
   -3.2533   -1.9992   -0.0873 C   0  0  0  0  0  0  0  0  0  0  0  0
   -4.4370    0.2910    2.0047 H   0  0  0  0  0  0  0  0  0  0  0  0
   -2.7302   -1.7467    1.9921 H   0  0  0  0  0  0  0  0  0  0  0  0
   -3.6446   -1.4140   -0.9275 H   0  0  0  0  0  0  0  0  0  0  0  0
   -2.2844   -2.4081   -0.3922 H   0  0  0  0  0  0  0  0  0  0  0  0
   -3.9388   -2.8365    0.0822 H   0  0  0  0  0  0  0  0  0  0  0  0
   -0.8768   -0.3314    0.9568 N   0  0  0  0  0  0  0  0  0  0  0  0
    0.2067    0.6285    0.7375 C   0  0  2  0  0  0  0  0  0  0  0  0
   -0.4581    1.9790    0.4884 C   0  0  0  0  0  0  0  0  0  0  0  0
   -0.5521    2.4722   -0.6338 O   0  0  0  0  0  0  0  0  0  0  0  0
    1.0582    0.1689   -0.4554 C   0  0  0  0  0  0  0  0  0  0  0  0
    1.8312   -1.1234   -0.1934 C   0  0  0  0  0  0  0  0  0  0  0  0
    2.6349   -1.5537   -1.3951 C   0  0  0  0  0  0  0  0  0  0  0  0
    2.5677   -1.0099   -2.4901 O   0  0  0  0  0  0  0  0  0  0  0  0
    3.4245   -2.6271   -1.1447 O   0  0  0  0  0  0  0  0  0  0  0  0
   -0.6087   -1.2764    1.1771 H   0  0  0  0  0  0  0  0  0  0  0  0
    0.8235    0.6664    1.6414 H   0  0  0  0  0  0  0  0  0  0  0  0
    0.4084    0.0245   -1.3289 H   0  0  0  0  0  0  0  0  0  0  0  0
    1.7803    0.9499   -0.7279 H   0  0  0  0  0  0  0  0  0  0  0  0
    2.5439   -0.9674    0.6257 H   0  0  0  0  0  0  0  0  0  0  0  0
    1.1742   -1.9334    0.1401 H   0  0  0  0  0  0  0  0  0  0  0  0
    3.9507   -2.9509   -1.9064 H   0  0  0  0  0  0  0  0  0  0  0  0
   -0.9541    2.5467    1.6527 N   0  0  0  0  0  0  0  0  0  0  0  0
   -1.6299    3.8238    1.6856 C   0  0  2  0  0  0  0  0  0  0  0  0
   -0.5967    4.8945    2.0105 C   0  0  0  0  0  0  0  0  0  0  0  0
    0.4648    4.6512    2.5807 O   0  0  0  0  0  0  0  0  0  0  0  0
   -2.7563    3.8276    2.7074 C   0  0  0  0  0  0  0  0  0  0  0  0
   -0.8366    2.0401    2.5250 H   0  0  0  0  0  0  0  0  0  0  0  0
   -2.0309    3.9954    0.6807 H   0  0  0  0  0  0  0  0  0  0  0  0
   -2.3738    3.6572    3.7203 H   0  0  0  0  0  0  0  0  0  0  0  0
   -3.2856    4.7862    2.7109 H   0  0  0  0  0  0  0  0  0  0  0  0
   -3.4830    3.0376    2.4892 H   0  0  0  0  0  0  0  0  0  0  0  0
   -1.0184    6.1600    1.6275 N   0  0  0  0  0  0  0  0  0  0  0  0
   -0.2203    7.3450    1.8393 C   0  0  0  0  0  0  0  0  0  0  0  0
   -1.9052    6.2661    1.1437 H   0  0  0  0  0  0  0  0  0  0  0  0
   -0.4936    7.8048    2.8006 H   0  0  0  0  0  0  0  0  0  0  0  0
    0.8451    7.0717    1.8534 H   0  0  0  0  0  0  0  0  0  0  0  0
   -0.4044    8.0613    1.0250 H   0  0  0  0  0  0  0  0  0  0  0  0
  1  3  1  0  0  0  0
  1  7  1  0  0  0  0
  1  2  2  0  0  0  0
 34 35  1  0  0  0  0
 35 43  1  0  0  0  0
 35 36  2  0  0  0  0
  8  9  1  0  0  0  0
  9 17  1  0  0  0  0
  9 10  2  0  0  0  0
 18 19  1  0  0  0  0
 19 33  1  0  0  0  0
 19 20  2  0  0  0  0
 22 23  1  0  0  0  0
 23 24  2  0  0  0  0
 23 25  1  0  0  0  0
 34 37  1  0  0  0  0
  8 11  1  0  0  0  0
 43 44  1  0  0  0  0
 21 22  1  0  0  0  0
 18 21  1  0  0  0  0
 33 34  1  0  0  0  0
  7  8  1  0  0  0  0
 17 18  1  0  0  0  0
  3  4  1  0  0  0  0
  3  5  1  0  0  0  0
  3  6  1  0  0  0  0
 37 40  1  0  0  0  0
 37 41  1  0  0  0  0
 37 42  1  0  0  0  0
 11 14  1  0  0  0  0
 11 15  1  0  0  0  0
 11 16  1  0  0  0  0
 44 46  1  0  0  0  0
 44 47  1  0  0  0  0
 44 48  1  0  0  0  0
 22 30  1  0  0  0  0
 22 31  1  0  0  0  0
 21 28  1  0  0  0  0
 21 29  1  0  0  0  0
 34 39  1  0  0  0  0
  8 13  1  0  0  0  0
 18 27  1  0  0  0  0
 43 45  1  0  0  0  0
  7 12  1  0  0  0  0
 33 38  1  0  0  0  0
 17 26  1  0  0  0  0
 25 32  1  0  0  0  0
M  END
$$$$

  -OEChem-05262214473D

 48 47  0     1  0  0  0  0  0999 V2000
   -5.5827   -1.3473    1.4591 C   0  0  0  0  0  0  0  0  0  0  0  0
   -5.7053   -2.4696    0.9825 O   0  0  0  0  0  0  0  0  0  0  0  0
   -6.7879   -0.6277    1.9670 C   0  0  0  0  0  0  0  0  0  0  0  0
   -7.2718   -0.0164    1.1885 H   0  0  0  0  0  0  0  0  0  0  0  0
   -7.5699   -1.3171    2.3239 H   0  0  0  0  0  0  0  0  0  0  0  0
   -6.6057    0.0628    2.8060 H   0  0  0  0  0  0  0  0  0  0  0  0
   -4.4001   -0.6377    1.5884 N   0  0  0  0  0  0  0  0  0  0  0  0
   -3.1220   -1.1455    1.1644 C   0  0  2  0  0  0  0  0  0  0  0  0
   -2.2017    0.0428    0.9187 C   0  0  0  0  0  0  0  0  0  0  0  0
   -2.6171    1.1750    0.6807 O   0  0  0  0  0  0  0  0  0  0  0  0
   -3.2533   -1.9992   -0.0873 C   0  0  0  0  0  0  0  0  0  0  0  0
   -4.4370    0.2910    2.0047 H   0  0  0  0  0  0  0  0  0  0  0  0
   -2.7302   -1.7467    1.9921 H   0  0  0  0  0  0  0  0  0  0  0  0
   -3.6446   -1.4140   -0.9275 H   0  0  0  0  0  0  0  0  0  0  0  0
   -2.2844   -2.4081   -0.3922 H   0  0  0  0  0  0  0  0  0  0  0  0
   -3.9388   -2.8365    0.0822 H   0  0  0  0  0  0  0  0  0  0  0  0
   -0.8768   -0.3314    0.9568 N   0  0  0  0  0  0  0  0  0  0  0  0
    0.2067    0.6285    0.7375 C   0  0  2  0  0  0  0  0  0  0  0  0
   -0.4581    1.9790    0.4884 C   0  0  0  0  0  0  0  0  0  0  0  0
   -0.7950    2.3527   -0.6333 O   0  0  0  0  0  0  0  0  0  0  0  0
    1.0582    0.1689   -0.4554 C   0  0  0  0  0  0  0  0  0  0  0  0
    1.8312   -1.1234   -0.1934 C   0  0  0  0  0  0  0  0  0  0  0  0
    2.6349   -1.5537   -1.3951 C   0  0  0  0  0  0  0  0  0  0  0  0
    2.5677   -1.0099   -2.4901 O   0  0  0  0  0  0  0  0  0  0  0  0
    3.4245   -2.6271   -1.1447 O   0  0  0  0  0  0  0  0  0  0  0  0
   -0.6087   -1.2764    1.1771 H   0  0  0  0  0  0  0  0  0  0  0  0
    0.8235    0.6664    1.6414 H   0  0  0  0  0  0  0  0  0  0  0  0
    0.4084    0.0245   -1.3289 H   0  0  0  0  0  0  0  0  0  0  0  0
    1.7803    0.9499   -0.7279 H   0  0  0  0  0  0  0  0  0  0  0  0
    2.5439   -0.9674    0.6257 H   0  0  0  0  0  0  0  0  0  0  0  0
    1.1742   -1.9334    0.1401 H   0  0  0  0  0  0  0  0  0  0  0  0
    3.9507   -2.9509   -1.9064 H   0  0  0  0  0  0  0  0  0  0  0  0
   -0.6543    2.6956    1.6597 N   0  0  0  0  0  0  0  0  0  0  0  0
   -1.2667    4.0042    1.6944 C   0  0  2  0  0  0  0  0  0  0  0  0
   -0.1556    5.0448    1.6482 C   0  0  0  0  0  0  0  0  0  0  0  0
    1.0015    4.8060    1.9875 O   0  0  0  0  0  0  0  0  0  0  0  0
   -2.1254    4.1806    2.9371 C   0  0  0  0  0  0  0  0  0  0  0  0
   -0.3528    2.2803    2.5360 H   0  0  0  0  0  0  0  0  0  0  0  0
   -1.8843    4.0884    0.7935 H   0  0  0  0  0  0  0  0  0  0  0  0
   -1.5239    4.0995    3.8498 H   0  0  0  0  0  0  0  0  0  0  0  0
   -2.6113    5.1618    2.9476 H   0  0  0  0  0  0  0  0  0  0  0  0
   -2.9055    3.4131    2.9839 H   0  0  0  0  0  0  0  0  0  0  0  0
   -0.6175    6.2831    1.2246 N   0  0  0  0  0  0  0  0  0  0  0  0
    0.2420    7.4380    1.1090 C   0  0  0  0  0  0  0  0  0  0  0  0
   -1.5888    6.3853    0.9454 H   0  0  0  0  0  0  0  0  0  0  0  0
    0.2123    8.0131    2.0462 H   0  0  0  0  0  0  0  0  0  0  0  0
    1.2733    7.1092    0.9133 H   0  0  0  0  0  0  0  0  0  0  0  0
   -0.1046    8.0713    0.2791 H   0  0  0  0  0  0  0  0  0  0  0  0
  1  3  1  0  0  0  0
  1  7  1  0  0  0  0
  1  2  2  0  0  0  0
 34 35  1  0  0  0  0
 35 43  1  0  0  0  0
 35 36  2  0  0  0  0
  8  9  1  0  0  0  0
  9 17  1  0  0  0  0
  9 10  2  0  0  0  0
 18 19  1  0  0  0  0
 19 33  1  0  0  0  0
 19 20  2  0  0  0  0
 22 23  1  0  0  0  0
 23 24  2  0  0  0  0
 23 25  1  0  0  0  0
 34 37  1  0  0  0  0
  8 11  1  0  0  0  0
 43 44  1  0  0  0  0
 21 22  1  0  0  0  0
 18 21  1  0  0  0  0
 33 34  1  0  0  0  0
  7  8  1  0  0  0  0
 17 18  1  0  0  0  0
  3  4  1  0  0  0  0
  3  5  1  0  0  0  0
  3  6  1  0  0  0  0
 37 40  1  0  0  0  0
 37 41  1  0  0  0  0
 37 42  1  0  0  0  0
 11 14  1  0  0  0  0
 11 15  1  0  0  0  0
 11 16  1  0  0  0  0
 44 46  1  0  0  0  0
 44 47  1  0  0  0  0
 44 48  1  0  0  0  0
 22 30  1  0  0  0  0
 22 31  1  0  0  0  0
 21 28  1  0  0  0  0
 21 29  1  0  0  0  0
 34 39  1  0  0  0  0
  8 13  1  0  0  0  0
 18 27  1  0  0  0  0
 43 45  1  0  0  0  0
  7 12  1  0  0  0  0
 33 38  1  0  0  0  0
 17 26  1  0  0  0  0
 25 32  1  0  0  0  0
M  END
$$$$

  -OEChem-05262214473D

 48 47  0     1  0  0  0  0  0999 V2000
   -5.5827   -1.3473    1.4591 C   0  0  0  0  0  0  0  0  0  0  0  0
   -5.7053   -2.4696    0.9825 O   0  0  0  0  0  0  0  0  0  0  0  0
   -6.7879   -0.6277    1.9670 C   0  0  0  0  0  0  0  0  0  0  0  0
   -7.2718   -0.0164    1.1885 H   0  0  0  0  0  0  0  0  0  0  0  0
   -7.5699   -1.3171    2.3239 H   0  0  0  0  0  0  0  0  0  0  0  0
   -6.6057    0.0628    2.8060 H   0  0  0  0  0  0  0  0  0  0  0  0
   -4.4001   -0.6377    1.5884 N   0  0  0  0  0  0  0  0  0  0  0  0
   -3.1220   -1.1455    1.1644 C   0  0  2  0  0  0  0  0  0  0  0  0
   -2.2017    0.0428    0.9187 C   0  0  0  0  0  0  0  0  0  0  0  0
   -2.6171    1.1750    0.6807 O   0  0  0  0  0  0  0  0  0  0  0  0
   -3.2533   -1.9992   -0.0873 C   0  0  0  0  0  0  0  0  0  0  0  0
   -4.4370    0.2910    2.0047 H   0  0  0  0  0  0  0  0  0  0  0  0
   -2.7302   -1.7467    1.9921 H   0  0  0  0  0  0  0  0  0  0  0  0
   -3.6446   -1.4140   -0.9275 H   0  0  0  0  0  0  0  0  0  0  0  0
   -2.2844   -2.4081   -0.3922 H   0  0  0  0  0  0  0  0  0  0  0  0
   -3.9388   -2.8365    0.0822 H   0  0  0  0  0  0  0  0  0  0  0  0
   -0.8768   -0.3314    0.9568 N   0  0  0  0  0  0  0  0  0  0  0  0
    0.2067    0.6285    0.7375 C   0  0  2  0  0  0  0  0  0  0  0  0
   -0.4581    1.9790    0.4884 C   0  0  0  0  0  0  0  0  0  0  0  0
   -1.0345    2.2477   -0.5637 O   0  0  0  0  0  0  0  0  0  0  0  0
    1.0582    0.1689   -0.4554 C   0  0  0  0  0  0  0  0  0  0  0  0
    1.8312   -1.1234   -0.1934 C   0  0  0  0  0  0  0  0  0  0  0  0
    2.6349   -1.5537   -1.3951 C   0  0  0  0  0  0  0  0  0  0  0  0
    2.5677   -1.0099   -2.4901 O   0  0  0  0  0  0  0  0  0  0  0  0
    3.4245   -2.6271   -1.1447 O   0  0  0  0  0  0  0  0  0  0  0  0
   -0.6087   -1.2764    1.1771 H   0  0  0  0  0  0  0  0  0  0  0  0
    0.8235    0.6664    1.6414 H   0  0  0  0  0  0  0  0  0  0  0  0
    0.4084    0.0245   -1.3289 H   0  0  0  0  0  0  0  0  0  0  0  0
    1.7803    0.9499   -0.7279 H   0  0  0  0  0  0  0  0  0  0  0  0
    2.5439   -0.9674    0.6257 H   0  0  0  0  0  0  0  0  0  0  0  0
    1.1742   -1.9334    0.1401 H   0  0  0  0  0  0  0  0  0  0  0  0
    3.9507   -2.9509   -1.9064 H   0  0  0  0  0  0  0  0  0  0  0  0
   -0.3569    2.8275    1.5810 N   0  0  0  0  0  0  0  0  0  0  0  0
   -0.9063    4.1641    1.5993 C   0  0  2  0  0  0  0  0  0  0  0  0
    0.1938    5.1305    1.1804 C   0  0  0  0  0  0  0  0  0  0  0  0
    1.3906    4.8660    1.2742 O   0  0  0  0  0  0  0  0  0  0  0  0
   -1.4483    4.5208    2.9746 C   0  0  0  0  0  0  0  0  0  0  0  0
    0.1271    2.4931    2.4088 H   0  0  0  0  0  0  0  0  0  0  0  0
   -1.7129    4.1847    0.8584 H   0  0  0  0  0  0  0  0  0  0  0  0
   -0.6545    4.5054    3.7303 H   0  0  0  0  0  0  0  0  0  0  0  0
   -1.8899    5.5228    2.9795 H   0  0  0  0  0  0  0  0  0  0  0  0
   -2.2185    3.8073    3.2871 H   0  0  0  0  0  0  0  0  0  0  0  0
   -0.3174    6.3395    0.7297 N   0  0  0  0  0  0  0  0  0  0  0  0
    0.5253    7.4258    0.2872 C   0  0  0  0  0  0  0  0  0  0  0  0
   -1.3235    6.4647    0.6678 H   0  0  0  0  0  0  0  0  0  0  0  0
    0.7301    8.0995    1.1323 H   0  0  0  0  0  0  0  0  0  0  0  0
    1.4732    7.0212   -0.0971 H   0  0  0  0  0  0  0  0  0  0  0  0
    0.0145    7.9842   -0.5112 H   0  0  0  0  0  0  0  0  0  0  0  0
  1  3  1  0  0  0  0
  1  7  1  0  0  0  0
  1  2  2  0  0  0  0
 34 35  1  0  0  0  0
 35 43  1  0  0  0  0
 35 36  2  0  0  0  0
  8  9  1  0  0  0  0
  9 17  1  0  0  0  0
  9 10  2  0  0  0  0
 18 19  1  0  0  0  0
 19 33  1  0  0  0  0
 19 20  2  0  0  0  0
 22 23  1  0  0  0  0
 23 24  2  0  0  0  0
 23 25  1  0  0  0  0
 34 37  1  0  0  0  0
  8 11  1  0  0  0  0
 43 44  1  0  0  0  0
 21 22  1  0  0  0  0
 18 21  1  0  0  0  0
 33 34  1  0  0  0  0
  7  8  1  0  0  0  0
 17 18  1  0  0  0  0
  3  4  1  0  0  0  0
  3  5  1  0  0  0  0
  3  6  1  0  0  0  0
 37 40  1  0  0  0  0
 37 41  1  0  0  0  0
 37 42  1  0  0  0  0
 11 14  1  0  0  0  0
 11 15  1  0  0  0  0
 11 16  1  0  0  0  0
 44 46  1  0  0  0  0
 44 47  1  0  0  0  0
 44 48  1  0  0  0  0
 22 30  1  0  0  0  0
 22 31  1  0  0  0  0
 21 28  1  0  0  0  0
 21 29  1  0  0  0  0
 34 39  1  0  0  0  0
  8 13  1  0  0  0  0
 18 27  1  0  0  0  0
 43 45  1  0  0  0  0
  7 12  1  0  0  0  0
 33 38  1  0  0  0  0
 17 26  1  0  0  0  0
 25 32  1  0  0  0  0
M  END
$$$$

  -OEChem-05262214473D

 48 47  0     1  0  0  0  0  0999 V2000
   -5.5827   -1.3473    1.4591 C   0  0  0  0  0  0  0  0  0  0  0  0
   -5.7053   -2.4696    0.9825 O   0  0  0  0  0  0  0  0  0  0  0  0
   -6.7879   -0.6277    1.9670 C   0  0  0  0  0  0  0  0  0  0  0  0
   -7.2718   -0.0164    1.1885 H   0  0  0  0  0  0  0  0  0  0  0  0
   -7.5699   -1.3171    2.3239 H   0  0  0  0  0  0  0  0  0  0  0  0
   -6.6057    0.0628    2.8060 H   0  0  0  0  0  0  0  0  0  0  0  0
   -4.4001   -0.6377    1.5884 N   0  0  0  0  0  0  0  0  0  0  0  0
   -3.1220   -1.1455    1.1644 C   0  0  2  0  0  0  0  0  0  0  0  0
   -2.2017    0.0428    0.9187 C   0  0  0  0  0  0  0  0  0  0  0  0
   -2.6171    1.1750    0.6807 O   0  0  0  0  0  0  0  0  0  0  0  0
   -3.2533   -1.9992   -0.0873 C   0  0  0  0  0  0  0  0  0  0  0  0
   -4.4370    0.2910    2.0047 H   0  0  0  0  0  0  0  0  0  0  0  0
   -2.7302   -1.7467    1.9921 H   0  0  0  0  0  0  0  0  0  0  0  0
   -3.6446   -1.4140   -0.9275 H   0  0  0  0  0  0  0  0  0  0  0  0
   -2.2844   -2.4081   -0.3922 H   0  0  0  0  0  0  0  0  0  0  0  0
   -3.9388   -2.8365    0.0822 H   0  0  0  0  0  0  0  0  0  0  0  0
   -0.8768   -0.3314    0.9568 N   0  0  0  0  0  0  0  0  0  0  0  0
    0.2067    0.6285    0.7375 C   0  0  2  0  0  0  0  0  0  0  0  0
   -0.4581    1.9790    0.4884 C   0  0  0  0  0  0  0  0  0  0  0  0
   -1.2544    2.1641   -0.4298 O   0  0  0  0  0  0  0  0  0  0  0  0
    1.0582    0.1689   -0.4554 C   0  0  0  0  0  0  0  0  0  0  0  0
    1.8312   -1.1234   -0.1934 C   0  0  0  0  0  0  0  0  0  0  0  0
    2.6349   -1.5537   -1.3951 C   0  0  0  0  0  0  0  0  0  0  0  0
    2.5677   -1.0099   -2.4901 O   0  0  0  0  0  0  0  0  0  0  0  0
    3.4245   -2.6271   -1.1447 O   0  0  0  0  0  0  0  0  0  0  0  0
   -0.6087   -1.2764    1.1771 H   0  0  0  0  0  0  0  0  0  0  0  0
    0.8235    0.6664    1.6414 H   0  0  0  0  0  0  0  0  0  0  0  0
    0.4084    0.0245   -1.3289 H   0  0  0  0  0  0  0  0  0  0  0  0
    1.7803    0.9499   -0.7279 H   0  0  0  0  0  0  0  0  0  0  0  0
    2.5439   -0.9674    0.6257 H   0  0  0  0  0  0  0  0  0  0  0  0
    1.1742   -1.9334    0.1401 H   0  0  0  0  0  0  0  0  0  0  0  0
    3.9507   -2.9509   -1.9064 H   0  0  0  0  0  0  0  0  0  0  0  0
   -0.0821    2.9335    1.4219 N   0  0  0  0  0  0  0  0  0  0  0  0
   -0.5731    4.2926    1.4068 C   0  0  2  0  0  0  0  0  0  0  0  0
    0.4277    5.1458    0.6387 C   0  0  0  0  0  0  0  0  0  0  0  0
    1.6055    4.8270    0.4893 O   0  0  0  0  0  0  0  0  0  0  0  0
   -0.7714    4.8250    2.8175 C   0  0  0  0  0  0  0  0  0  0  0  0
    0.5705    2.6640    2.1519 H   0  0  0  0  0  0  0  0  0  0  0  0
   -1.5284    4.2778    0.8709 H   0  0  0  0  0  0  0  0  0  0  0  0
    0.1750    4.8473    3.3699 H   0  0  0  0  0  0  0  0  0  0  0  0
   -1.1705    5.8447    2.8043 H   0  0  0  0  0  0  0  0  0  0  0  0
   -1.4687    4.1931    3.3781 H   0  0  0  0  0  0  0  0  0  0  0  0
   -0.1385    6.3256    0.1766 N   0  0  0  0  0  0  0  0  0  0  0  0
    0.6101    7.3095   -0.5702 C   0  0  0  0  0  0  0  0  0  0  0  0
   -1.1275    6.4989    0.3301 H   0  0  0  0  0  0  0  0  0  0  0  0
    1.0245    8.0580    0.1212 H   0  0  0  0  0  0  0  0  0  0  0  0
    1.4311    6.8139   -1.1089 H   0  0  0  0  0  0  0  0  0  0  0  0
   -0.0552    7.8059   -1.2920 H   0  0  0  0  0  0  0  0  0  0  0  0
  1  3  1  0  0  0  0
  1  7  1  0  0  0  0
  1  2  2  0  0  0  0
 34 35  1  0  0  0  0
 35 43  1  0  0  0  0
 35 36  2  0  0  0  0
  8  9  1  0  0  0  0
  9 17  1  0  0  0  0
  9 10  2  0  0  0  0
 18 19  1  0  0  0  0
 19 33  1  0  0  0  0
 19 20  2  0  0  0  0
 22 23  1  0  0  0  0
 23 24  2  0  0  0  0
 23 25  1  0  0  0  0
 34 37  1  0  0  0  0
  8 11  1  0  0  0  0
 43 44  1  0  0  0  0
 21 22  1  0  0  0  0
 18 21  1  0  0  0  0
 33 34  1  0  0  0  0
  7  8  1  0  0  0  0
 17 18  1  0  0  0  0
  3  4  1  0  0  0  0
  3  5  1  0  0  0  0
  3  6  1  0  0  0  0
 37 40  1  0  0  0  0
 37 41  1  0  0  0  0
 37 42  1  0  0  0  0
 11 14  1  0  0  0  0
 11 15  1  0  0  0  0
 11 16  1  0  0  0  0
 44 46  1  0  0  0  0
 44 47  1  0  0  0  0
 44 48  1  0  0  0  0
 22 30  1  0  0  0  0
 22 31  1  0  0  0  0
 21 28  1  0  0  0  0
 21 29  1  0  0  0  0
 34 39  1  0  0  0  0
  8 13  1  0  0  0  0
 18 27  1  0  0  0  0
 43 45  1  0  0  0  0
  7 12  1  0  0  0  0
 33 38  1  0  0  0  0
 17 26  1  0  0  0  0
 25 32  1  0  0  0  0
M  END
$$$$

  -OEChem-05262214473D

 48 47  0     1  0  0  0  0  0999 V2000
   -5.5827   -1.3473    1.4591 C   0  0  0  0  0  0  0  0  0  0  0  0
   -5.7053   -2.4696    0.9825 O   0  0  0  0  0  0  0  0  0  0  0  0
   -6.7879   -0.6277    1.9670 C   0  0  0  0  0  0  0  0  0  0  0  0
   -7.2718   -0.0164    1.1885 H   0  0  0  0  0  0  0  0  0  0  0  0
   -7.5699   -1.3171    2.3239 H   0  0  0  0  0  0  0  0  0  0  0  0
   -6.6057    0.0628    2.8060 H   0  0  0  0  0  0  0  0  0  0  0  0
   -4.4001   -0.6377    1.5884 N   0  0  0  0  0  0  0  0  0  0  0  0
   -3.1220   -1.1455    1.1644 C   0  0  2  0  0  0  0  0  0  0  0  0
   -2.2017    0.0428    0.9187 C   0  0  0  0  0  0  0  0  0  0  0  0
   -2.6171    1.1750    0.6807 O   0  0  0  0  0  0  0  0  0  0  0  0
   -3.2533   -1.9992   -0.0873 C   0  0  0  0  0  0  0  0  0  0  0  0
   -4.4370    0.2910    2.0047 H   0  0  0  0  0  0  0  0  0  0  0  0
   -2.7302   -1.7467    1.9921 H   0  0  0  0  0  0  0  0  0  0  0  0
   -3.6446   -1.4140   -0.9275 H   0  0  0  0  0  0  0  0  0  0  0  0
   -2.2844   -2.4081   -0.3922 H   0  0  0  0  0  0  0  0  0  0  0  0
   -3.9388   -2.8365    0.0822 H   0  0  0  0  0  0  0  0  0  0  0  0
   -0.8768   -0.3314    0.9568 N   0  0  0  0  0  0  0  0  0  0  0  0
    0.2067    0.6285    0.7375 C   0  0  2  0  0  0  0  0  0  0  0  0
   -0.4581    1.9790    0.4884 C   0  0  0  0  0  0  0  0  0  0  0  0
   -1.4396    2.1078   -0.2407 O   0  0  0  0  0  0  0  0  0  0  0  0
    1.0582    0.1689   -0.4554 C   0  0  0  0  0  0  0  0  0  0  0  0
    1.8312   -1.1234   -0.1934 C   0  0  0  0  0  0  0  0  0  0  0  0
    2.6349   -1.5537   -1.3951 C   0  0  0  0  0  0  0  0  0  0  0  0
    2.5677   -1.0099   -2.4901 O   0  0  0  0  0  0  0  0  0  0  0  0
    3.4245   -2.6271   -1.1447 O   0  0  0  0  0  0  0  0  0  0  0  0
   -0.6087   -1.2764    1.1771 H   0  0  0  0  0  0  0  0  0  0  0  0
    0.8235    0.6664    1.6414 H   0  0  0  0  0  0  0  0  0  0  0  0
    0.4084    0.0245   -1.3289 H   0  0  0  0  0  0  0  0  0  0  0  0
    1.7803    0.9499   -0.7279 H   0  0  0  0  0  0  0  0  0  0  0  0
    2.5439   -0.9674    0.6257 H   0  0  0  0  0  0  0  0  0  0  0  0
    1.1742   -1.9334    0.1401 H   0  0  0  0  0  0  0  0  0  0  0  0
    3.9507   -2.9509   -1.9064 H   0  0  0  0  0  0  0  0  0  0  0  0
    0.1515    3.0063    1.1934 N   0  0  0  0  0  0  0  0  0  0  0  0
   -0.2900    4.3810    1.1301 C   0  0  2  0  0  0  0  0  0  0  0  0
    0.5302    5.0895    0.0602 C   0  0  0  0  0  0  0  0  0  0  0  0
    1.6316    4.6918   -0.3137 O   0  0  0  0  0  0  0  0  0  0  0  0
   -0.1407    5.0726    2.4762 C   0  0  0  0  0  0  0  0  0  0  0  0
    0.9471    2.7814    1.7830 H   0  0  0  0  0  0  0  0  0  0  0  0
   -1.3434    4.3614    0.8302 H   0  0  0  0  0  0  0  0  0  0  0  0
    0.9081    5.1019    2.7933 H   0  0  0  0  0  0  0  0  0  0  0  0
   -0.5021    6.1054    2.4339 H   0  0  0  0  0  0  0  0  0  0  0  0
   -0.7074    4.5445    3.2507 H   0  0  0  0  0  0  0  0  0  0  0  0
   -0.0930    6.2422   -0.3972 N   0  0  0  0  0  0  0  0  0  0  0  0
    0.4907    7.0968   -1.4046 C   0  0  0  0  0  0  0  0  0  0  0  0
   -1.0142    6.4855   -0.0450 H   0  0  0  0  0  0  0  0  0  0  0  0
    1.0755    7.8914   -0.9182 H   0  0  0  0  0  0  0  0  0  0  0  0
    1.1499    6.5013   -2.0533 H   0  0  0  0  0  0  0  0  0  0  0  0
   -0.3089    7.5485   -2.0101 H   0  0  0  0  0  0  0  0  0  0  0  0
  1  3  1  0  0  0  0
  1  7  1  0  0  0  0
  1  2  2  0  0  0  0
 34 35  1  0  0  0  0
 35 43  1  0  0  0  0
 35 36  2  0  0  0  0
  8  9  1  0  0  0  0
  9 17  1  0  0  0  0
  9 10  2  0  0  0  0
 18 19  1  0  0  0  0
 19 33  1  0  0  0  0
 19 20  2  0  0  0  0
 22 23  1  0  0  0  0
 23 24  2  0  0  0  0
 23 25  1  0  0  0  0
 34 37  1  0  0  0  0
  8 11  1  0  0  0  0
 43 44  1  0  0  0  0
 21 22  1  0  0  0  0
 18 21  1  0  0  0  0
 33 34  1  0  0  0  0
  7  8  1  0  0  0  0
 17 18  1  0  0  0  0
  3  4  1  0  0  0  0
  3  5  1  0  0  0  0
  3  6  1  0  0  0  0
 37 40  1  0  0  0  0
 37 41  1  0  0  0  0
 37 42  1  0  0  0  0
 11 14  1  0  0  0  0
 11 15  1  0  0  0  0
 11 16  1  0  0  0  0
 44 46  1  0  0  0  0
 44 47  1  0  0  0  0
 44 48  1  0  0  0  0
 22 30  1  0  0  0  0
 22 31  1  0  0  0  0
 21 28  1  0  0  0  0
 21 29  1  0  0  0  0
 34 39  1  0  0  0  0
  8 13  1  0  0  0  0
 18 27  1  0  0  0  0
 43 45  1  0  0  0  0
  7 12  1  0  0  0  0
 33 38  1  0  0  0  0
 17 26  1  0  0  0  0
 25 32  1  0  0  0  0
M  END
$$$$

  -OEChem-05262214473D

 48 47  0     1  0  0  0  0  0999 V2000
   -5.5827   -1.3473    1.4591 C   0  0  0  0  0  0  0  0  0  0  0  0
   -5.7053   -2.4696    0.9825 O   0  0  0  0  0  0  0  0  0  0  0  0
   -6.7879   -0.6277    1.9670 C   0  0  0  0  0  0  0  0  0  0  0  0
   -7.2718   -0.0164    1.1885 H   0  0  0  0  0  0  0  0  0  0  0  0
   -7.5699   -1.3171    2.3239 H   0  0  0  0  0  0  0  0  0  0  0  0
   -6.6057    0.0628    2.8060 H   0  0  0  0  0  0  0  0  0  0  0  0
   -4.4001   -0.6377    1.5884 N   0  0  0  0  0  0  0  0  0  0  0  0
   -3.1220   -1.1455    1.1644 C   0  0  2  0  0  0  0  0  0  0  0  0
   -2.2017    0.0428    0.9187 C   0  0  0  0  0  0  0  0  0  0  0  0
   -2.6171    1.1750    0.6807 O   0  0  0  0  0  0  0  0  0  0  0  0
   -3.2533   -1.9992   -0.0873 C   0  0  0  0  0  0  0  0  0  0  0  0
   -4.4370    0.2910    2.0047 H   0  0  0  0  0  0  0  0  0  0  0  0
   -2.7302   -1.7467    1.9921 H   0  0  0  0  0  0  0  0  0  0  0  0
   -3.6446   -1.4140   -0.9275 H   0  0  0  0  0  0  0  0  0  0  0  0
   -2.2844   -2.4081   -0.3922 H   0  0  0  0  0  0  0  0  0  0  0  0
   -3.9388   -2.8365    0.0822 H   0  0  0  0  0  0  0  0  0  0  0  0
   -0.8768   -0.3314    0.9568 N   0  0  0  0  0  0  0  0  0  0  0  0
    0.2067    0.6285    0.7375 C   0  0  2  0  0  0  0  0  0  0  0  0
   -0.4581    1.9790    0.4884 C   0  0  0  0  0  0  0  0  0  0  0  0
   -1.5775    2.0826   -0.0092 O   0  0  0  0  0  0  0  0  0  0  0  0
    1.0582    0.1689   -0.4554 C   0  0  0  0  0  0  0  0  0  0  0  0
    1.8312   -1.1234   -0.1934 C   0  0  0  0  0  0  0  0  0  0  0  0
    2.6349   -1.5537   -1.3951 C   0  0  0  0  0  0  0  0  0  0  0  0
    2.5677   -1.0099   -2.4901 O   0  0  0  0  0  0  0  0  0  0  0  0
    3.4245   -2.6271   -1.1447 O   0  0  0  0  0  0  0  0  0  0  0  0
   -0.6087   -1.2764    1.1771 H   0  0  0  0  0  0  0  0  0  0  0  0
    0.8235    0.6664    1.6414 H   0  0  0  0  0  0  0  0  0  0  0  0
    0.4084    0.0245   -1.3289 H   0  0  0  0  0  0  0  0  0  0  0  0
    1.7803    0.9499   -0.7279 H   0  0  0  0  0  0  0  0  0  0  0  0
    2.5439   -0.9674    0.6257 H   0  0  0  0  0  0  0  0  0  0  0  0
    1.1742   -1.9334    0.1401 H   0  0  0  0  0  0  0  0  0  0  0  0
    3.9507   -2.9509   -1.9064 H   0  0  0  0  0  0  0  0  0  0  0  0
    0.3277    3.0410    0.9109 N   0  0  0  0  0  0  0  0  0  0  0  0
   -0.0762    4.4232    0.7880 C   0  0  2  0  0  0  0  0  0  0  0  0
    0.4943    4.9657   -0.5158 C   0  0  0  0  0  0  0  0  0  0  0  0
    1.4672    4.4695   -1.0801 O   0  0  0  0  0  0  0  0  0  0  0  0
    0.4008    5.2466    1.9742 C   0  0  0  0  0  0  0  0  0  0  0  0
    1.2314    2.8373    1.3271 H   0  0  0  0  0  0  0  0  0  0  0  0
   -1.1705    4.4297    0.7391 H   0  0  0  0  0  0  0  0  0  0  0  0
    1.4949    5.2517    2.0396 H   0  0  0  0  0  0  0  0  0  0  0  0
    0.0696    6.2872    1.8937 H   0  0  0  0  0  0  0  0  0  0  0  0
    0.0137    4.8373    2.9136 H   0  0  0  0  0  0  0  0  0  0  0  0
   -0.1840    6.0950   -0.9523 N   0  0  0  0  0  0  0  0  0  0  0  0
    0.1752    6.8023   -2.1593 C   0  0  0  0  0  0  0  0  0  0  0  0
   -0.9911    6.4255   -0.4317 H   0  0  0  0  0  0  0  0  0  0  0  0
    0.8796    7.6111   -1.9150 H   0  0  0  0  0  0  0  0  0  0  0  0
    0.6487    6.1047   -2.8658 H   0  0  0  0  0  0  0  0  0  0  0  0
   -0.7294    7.2297   -2.6166 H   0  0  0  0  0  0  0  0  0  0  0  0
  1  3  1  0  0  0  0
  1  7  1  0  0  0  0
  1  2  2  0  0  0  0
 34 35  1  0  0  0  0
 35 43  1  0  0  0  0
 35 36  2  0  0  0  0
  8  9  1  0  0  0  0
  9 17  1  0  0  0  0
  9 10  2  0  0  0  0
 18 19  1  0  0  0  0
 19 33  1  0  0  0  0
 19 20  2  0  0  0  0
 22 23  1  0  0  0  0
 23 24  2  0  0  0  0
 23 25  1  0  0  0  0
 34 37  1  0  0  0  0
  8 11  1  0  0  0  0
 43 44  1  0  0  0  0
 21 22  1  0  0  0  0
 18 21  1  0  0  0  0
 33 34  1  0  0  0  0
  7  8  1  0  0  0  0
 17 18  1  0  0  0  0
  3  4  1  0  0  0  0
  3  5  1  0  0  0  0
  3  6  1  0  0  0  0
 37 40  1  0  0  0  0
 37 41  1  0  0  0  0
 37 42  1  0  0  0  0
 11 14  1  0  0  0  0
 11 15  1  0  0  0  0
 11 16  1  0  0  0  0
 44 46  1  0  0  0  0
 44 47  1  0  0  0  0
 44 48  1  0  0  0  0
 22 30  1  0  0  0  0
 22 31  1  0  0  0  0
 21 28  1  0  0  0  0
 21 29  1  0  0  0  0
 34 39  1  0  0  0  0
  8 13  1  0  0  0  0
 18 27  1  0  0  0  0
 43 45  1  0  0  0  0
  7 12  1  0  0  0  0
 33 38  1  0  0  0  0
 17 26  1  0  0  0  0
 25 32  1  0  0  0  0
M  END
$$$$

  -OEChem-05262214473D

 48 47  0     1  0  0  0  0  0999 V2000
   -5.5827   -1.3473    1.4591 C   0  0  0  0  0  0  0  0  0  0  0  0
   -5.7053   -2.4696    0.9825 O   0  0  0  0  0  0  0  0  0  0  0  0
   -6.7879   -0.6277    1.9670 C   0  0  0  0  0  0  0  0  0  0  0  0
   -7.2718   -0.0164    1.1885 H   0  0  0  0  0  0  0  0  0  0  0  0
   -7.5699   -1.3171    2.3239 H   0  0  0  0  0  0  0  0  0  0  0  0
   -6.6057    0.0628    2.8060 H   0  0  0  0  0  0  0  0  0  0  0  0
   -4.4001   -0.6377    1.5884 N   0  0  0  0  0  0  0  0  0  0  0  0
   -3.1220   -1.1455    1.1644 C   0  0  2  0  0  0  0  0  0  0  0  0
   -2.2017    0.0428    0.9187 C   0  0  0  0  0  0  0  0  0  0  0  0
   -2.6171    1.1750    0.6807 O   0  0  0  0  0  0  0  0  0  0  0  0
   -3.2533   -1.9992   -0.0873 C   0  0  0  0  0  0  0  0  0  0  0  0
   -4.4370    0.2910    2.0047 H   0  0  0  0  0  0  0  0  0  0  0  0
   -2.7302   -1.7467    1.9921 H   0  0  0  0  0  0  0  0  0  0  0  0
   -3.6446   -1.4140   -0.9275 H   0  0  0  0  0  0  0  0  0  0  0  0
   -2.2844   -2.4081   -0.3922 H   0  0  0  0  0  0  0  0  0  0  0  0
   -3.9388   -2.8365    0.0822 H   0  0  0  0  0  0  0  0  0  0  0  0
   -0.8768   -0.3314    0.9568 N   0  0  0  0  0  0  0  0  0  0  0  0
    0.2067    0.6285    0.7375 C   0  0  2  0  0  0  0  0  0  0  0  0
   -0.4581    1.9790    0.4884 C   0  0  0  0  0  0  0  0  0  0  0  0
   -1.6588    2.0902    0.2489 O   0  0  0  0  0  0  0  0  0  0  0  0
    1.0582    0.1689   -0.4554 C   0  0  0  0  0  0  0  0  0  0  0  0
    1.8312   -1.1234   -0.1934 C   0  0  0  0  0  0  0  0  0  0  0  0
    2.6349   -1.5537   -1.3951 C   0  0  0  0  0  0  0  0  0  0  0  0
    2.5677   -1.0099   -2.4901 O   0  0  0  0  0  0  0  0  0  0  0  0
    3.4245   -2.6271   -1.1447 O   0  0  0  0  0  0  0  0  0  0  0  0
   -0.6087   -1.2764    1.1771 H   0  0  0  0  0  0  0  0  0  0  0  0
    0.8235    0.6664    1.6414 H   0  0  0  0  0  0  0  0  0  0  0  0
    0.4084    0.0245   -1.3289 H   0  0  0  0  0  0  0  0  0  0  0  0
    1.7803    0.9499   -0.7279 H   0  0  0  0  0  0  0  0  0  0  0  0
    2.5439   -0.9674    0.6257 H   0  0  0  0  0  0  0  0  0  0  0  0
    1.1742   -1.9334    0.1401 H   0  0  0  0  0  0  0  0  0  0  0  0
    3.9507   -2.9509   -1.9064 H   0  0  0  0  0  0  0  0  0  0  0  0
    0.4348    3.0352    0.5938 N   0  0  0  0  0  0  0  0  0  0  0  0
    0.0538    4.4163    0.4038 C   0  0  2  0  0  0  0  0  0  0  0  0
    0.3225    4.7826   -1.0499 C   0  0  0  0  0  0  0  0  0  0  0  0
    1.1234    4.1753   -1.7576 O   0  0  0  0  0  0  0  0  0  0  0  0
    0.8161    5.3352    1.3457 C   0  0  0  0  0  0  0  0  0  0  0  0
    1.4039    2.8278    0.8153 H   0  0  0  0  0  0  0  0  0  0  0  0
   -1.0215    4.4782    0.6038 H   0  0  0  0  0  0  0  0  0  0  0  0
    1.8954    5.2867    1.1602 H   0  0  0  0  0  0  0  0  0  0  0  0
    0.5058    6.3777    1.2204 H   0  0  0  0  0  0  0  0  0  0  0  0
    0.6453    5.0516    2.3898 H   0  0  0  0  0  0  0  0  0  0  0  0
   -0.4054    5.8940   -1.4512 N   0  0  0  0  0  0  0  0  0  0  0  0
   -0.3149    6.4461   -2.7827 C   0  0  0  0  0  0  0  0  0  0  0  0
   -1.0600    6.3230   -0.8037 H   0  0  0  0  0  0  0  0  0  0  0  0
    0.4502    7.2362   -2.8015 H   0  0  0  0  0  0  0  0  0  0  0  0
   -0.0383    5.6512   -3.4910 H   0  0  0  0  0  0  0  0  0  0  0  0
   -1.2879    6.8711   -3.0702 H   0  0  0  0  0  0  0  0  0  0  0  0
  1  3  1  0  0  0  0
  1  7  1  0  0  0  0
  1  2  2  0  0  0  0
 34 35  1  0  0  0  0
 35 43  1  0  0  0  0
 35 36  2  0  0  0  0
  8  9  1  0  0  0  0
  9 17  1  0  0  0  0
  9 10  2  0  0  0  0
 18 19  1  0  0  0  0
 19 33  1  0  0  0  0
 19 20  2  0  0  0  0
 22 23  1  0  0  0  0
 23 24  2  0  0  0  0
 23 25  1  0  0  0  0
 34 37  1  0  0  0  0
  8 11  1  0  0  0  0
 43 44  1  0  0  0  0
 21 22  1  0  0  0  0
 18 21  1  0  0  0  0
 33 34  1  0  0  0  0
  7  8  1  0  0  0  0
 17 18  1  0  0  0  0
  3  4  1  0  0  0  0
  3  5  1  0  0  0  0
  3  6  1  0  0  0  0
 37 40  1  0  0  0  0
 37 41  1  0  0  0  0
 37 42  1  0  0  0  0
 11 14  1  0  0  0  0
 11 15  1  0  0  0  0
 11 16  1  0  0  0  0
 44 46  1  0  0  0  0
 44 47  1  0  0  0  0
 44 48  1  0  0  0  0
 22 30  1  0  0  0  0
 22 31  1  0  0  0  0
 21 28  1  0  0  0  0
 21 29  1  0  0  0  0
 34 39  1  0  0  0  0
  8 13  1  0  0  0  0
 18 27  1  0  0  0  0
 43 45  1  0  0  0  0
  7 12  1  0  0  0  0
 33 38  1  0  0  0  0
 17 26  1  0  0  0  0
 25 32  1  0  0  0  0
M  END
$$$$

  -OEChem-05262214473D

 48 47  0     1  0  0  0  0  0999 V2000
   -5.5827   -1.3473    1.4591 C   0  0  0  0  0  0  0  0  0  0  0  0
   -5.7053   -2.4696    0.9825 O   0  0  0  0  0  0  0  0  0  0  0  0
   -6.7879   -0.6277    1.9670 C   0  0  0  0  0  0  0  0  0  0  0  0
   -7.2718   -0.0164    1.1885 H   0  0  0  0  0  0  0  0  0  0  0  0
   -7.5699   -1.3171    2.3239 H   0  0  0  0  0  0  0  0  0  0  0  0
   -6.6057    0.0628    2.8060 H   0  0  0  0  0  0  0  0  0  0  0  0
   -4.4001   -0.6377    1.5884 N   0  0  0  0  0  0  0  0  0  0  0  0
   -3.1220   -1.1455    1.1644 C   0  0  2  0  0  0  0  0  0  0  0  0
   -2.2017    0.0428    0.9187 C   0  0  0  0  0  0  0  0  0  0  0  0
   -2.6171    1.1750    0.6807 O   0  0  0  0  0  0  0  0  0  0  0  0
   -3.2533   -1.9992   -0.0873 C   0  0  0  0  0  0  0  0  0  0  0  0
   -4.4370    0.2910    2.0047 H   0  0  0  0  0  0  0  0  0  0  0  0
   -2.7302   -1.7467    1.9921 H   0  0  0  0  0  0  0  0  0  0  0  0
   -3.6446   -1.4140   -0.9275 H   0  0  0  0  0  0  0  0  0  0  0  0
   -2.2844   -2.4081   -0.3922 H   0  0  0  0  0  0  0  0  0  0  0  0
   -3.9388   -2.8365    0.0822 H   0  0  0  0  0  0  0  0  0  0  0  0
   -0.8768   -0.3314    0.9568 N   0  0  0  0  0  0  0  0  0  0  0  0
    0.2067    0.6285    0.7375 C   0  0  2  0  0  0  0  0  0  0  0  0
   -0.4145    2.0161    0.8662 C   0  0  0  0  0  0  0  0  0  0  0  0
   -1.6026    2.1859    1.1328 O   0  0  0  0  0  0  0  0  0  0  0  0
    0.8217    0.3914   -0.6499 C   0  0  0  0  0  0  0  0  0  0  0  0
    1.5549   -0.9441   -0.7739 C   0  0  0  0  0  0  0  0  0  0  0  0
    2.1229   -1.1497   -2.1560 C   0  0  0  0  0  0  0  0  0  0  0  0
    1.9052   -0.4016   -3.1005 O   0  0  0  0  0  0  0  0  0  0  0  0
    2.8826   -2.2686   -2.2529 O   0  0  0  0  0  0  0  0  0  0  0  0
   -0.6087   -1.2764    1.1771 H   0  0  0  0  0  0  0  0  0  0  0  0
    0.9660    0.4758    1.5114 H   0  0  0  0  0  0  0  0  0  0  0  0
    0.0290    0.4345   -1.4087 H   0  0  0  0  0  0  0  0  0  0  0  0
    1.5306    1.1942   -0.8916 H   0  0  0  0  0  0  0  0  0  0  0  0
    2.4011   -0.9666   -0.0764 H   0  0  0  0  0  0  0  0  0  0  0  0
    0.9185   -1.7887   -0.4900 H   0  0  0  0  0  0  0  0  0  0  0  0
    3.2564   -2.4494   -3.1414 H   0  0  0  0  0  0  0  0  0  0  0  0
    0.5131    3.0300    0.6787 N   0  0  0  0  0  0  0  0  0  0  0  0
    0.1774    4.4339    0.7505 C   0  0  2  0  0  0  0  0  0  0  0  0
   -0.1261    4.9177   -0.6613 C   0  0  0  0  0  0  0  0  0  0  0  0
    0.2902    4.3498   -1.6690 O   0  0  0  0  0  0  0  0  0  0  0  0
    1.3065    5.2418    1.3710 C   0  0  0  0  0  0  0  0  0  0  0  0
    1.4757    2.7733    0.4813 H   0  0  0  0  0  0  0  0  0  0  0  0
   -0.7255    4.5121    1.3660 H   0  0  0  0  0  0  0  0  0  0  0  0
    2.2196    5.1756    0.7683 H   0  0  0  0  0  0  0  0  0  0  0  0
    1.0393    6.3007    1.4509 H   0  0  0  0  0  0  0  0  0  0  0  0
    1.5435    4.8733    2.3749 H   0  0  0  0  0  0  0  0  0  0  0  0
   -0.8804    6.0827   -0.6630 N   0  0  0  0  0  0  0  0  0  0  0  0
   -1.2872    6.7463   -1.8796 C   0  0  0  0  0  0  0  0  0  0  0  0
   -1.1977    6.4737    0.2191 H   0  0  0  0  0  0  0  0  0  0  0  0
   -0.5426    7.5103   -2.1477 H   0  0  0  0  0  0  0  0  0  0  0  0
   -1.3638    6.0083   -2.6917 H   0  0  0  0  0  0  0  0  0  0  0  0
   -2.2653    7.2256   -1.7262 H   0  0  0  0  0  0  0  0  0  0  0  0
  1  3  1  0  0  0  0
  1  7  1  0  0  0  0
  1  2  2  0  0  0  0
 34 35  1  0  0  0  0
 35 43  1  0  0  0  0
 35 36  2  0  0  0  0
  8  9  1  0  0  0  0
  9 17  1  0  0  0  0
  9 10  2  0  0  0  0
 18 19  1  0  0  0  0
 19 33  1  0  0  0  0
 19 20  2  0  0  0  0
 22 23  1  0  0  0  0
 23 24  2  0  0  0  0
 23 25  1  0  0  0  0
 34 37  1  0  0  0  0
  8 11  1  0  0  0  0
 43 44  1  0  0  0  0
 21 22  1  0  0  0  0
 18 21  1  0  0  0  0
 33 34  1  0  0  0  0
  7  8  1  0  0  0  0
 17 18  1  0  0  0  0
  3  4  1  0  0  0  0
  3  5  1  0  0  0  0
  3  6  1  0  0  0  0
 37 40  1  0  0  0  0
 37 41  1  0  0  0  0
 37 42  1  0  0  0  0
 11 14  1  0  0  0  0
 11 15  1  0  0  0  0
 11 16  1  0  0  0  0
 44 46  1  0  0  0  0
 44 47  1  0  0  0  0
 44 48  1  0  0  0  0
 22 30  1  0  0  0  0
 22 31  1  0  0  0  0
 21 28  1  0  0  0  0
 21 29  1  0  0  0  0
 34 39  1  0  0  0  0
  8 13  1  0  0  0  0
 18 27  1  0  0  0  0
 43 45  1  0  0  0  0
  7 12  1  0  0  0  0
 33 38  1  0  0  0  0
 17 26  1  0  0  0  0
 25 32  1  0  0  0  0
M  END
$$$$

  -OEChem-05262214473D

 48 47  0     1  0  0  0  0  0999 V2000
   -5.5827   -1.3473    1.4591 C   0  0  0  0  0  0  0  0  0  0  0  0
   -5.7053   -2.4696    0.9825 O   0  0  0  0  0  0  0  0  0  0  0  0
   -6.7879   -0.6277    1.9670 C   0  0  0  0  0  0  0  0  0  0  0  0
   -7.2718   -0.0164    1.1885 H   0  0  0  0  0  0  0  0  0  0  0  0
   -7.5699   -1.3171    2.3239 H   0  0  0  0  0  0  0  0  0  0  0  0
   -6.6057    0.0628    2.8060 H   0  0  0  0  0  0  0  0  0  0  0  0
   -4.4001   -0.6377    1.5884 N   0  0  0  0  0  0  0  0  0  0  0  0
   -3.1220   -1.1455    1.1644 C   0  0  2  0  0  0  0  0  0  0  0  0
   -2.2017    0.0428    0.9187 C   0  0  0  0  0  0  0  0  0  0  0  0
   -2.6171    1.1750    0.6807 O   0  0  0  0  0  0  0  0  0  0  0  0
   -3.2533   -1.9992   -0.0873 C   0  0  0  0  0  0  0  0  0  0  0  0
   -4.4370    0.2910    2.0047 H   0  0  0  0  0  0  0  0  0  0  0  0
   -2.7302   -1.7467    1.9921 H   0  0  0  0  0  0  0  0  0  0  0  0
   -3.6446   -1.4140   -0.9275 H   0  0  0  0  0  0  0  0  0  0  0  0
   -2.2844   -2.4081   -0.3922 H   0  0  0  0  0  0  0  0  0  0  0  0
   -3.9388   -2.8365    0.0822 H   0  0  0  0  0  0  0  0  0  0  0  0
   -0.8768   -0.3314    0.9568 N   0  0  0  0  0  0  0  0  0  0  0  0
    0.2067    0.6285    0.7375 C   0  0  2  0  0  0  0  0  0  0  0  0
   -0.4145    2.0161    0.8662 C   0  0  0  0  0  0  0  0  0  0  0  0
   -1.5123    2.2028    1.3873 O   0  0  0  0  0  0  0  0  0  0  0  0
    0.8217    0.3914   -0.6499 C   0  0  0  0  0  0  0  0  0  0  0  0
    1.5549   -0.9441   -0.7739 C   0  0  0  0  0  0  0  0  0  0  0  0
    2.1229   -1.1497   -2.1560 C   0  0  0  0  0  0  0  0  0  0  0  0
    1.9052   -0.4016   -3.1005 O   0  0  0  0  0  0  0  0  0  0  0  0
    2.8826   -2.2686   -2.2529 O   0  0  0  0  0  0  0  0  0  0  0  0
   -0.6087   -1.2764    1.1771 H   0  0  0  0  0  0  0  0  0  0  0  0
    0.9660    0.4758    1.5114 H   0  0  0  0  0  0  0  0  0  0  0  0
    0.0290    0.4345   -1.4087 H   0  0  0  0  0  0  0  0  0  0  0  0
    1.5306    1.1942   -0.8916 H   0  0  0  0  0  0  0  0  0  0  0  0
    2.4011   -0.9666   -0.0764 H   0  0  0  0  0  0  0  0  0  0  0  0
    0.9185   -1.7887   -0.4900 H   0  0  0  0  0  0  0  0  0  0  0  0
    3.2564   -2.4494   -3.1414 H   0  0  0  0  0  0  0  0  0  0  0  0
    0.4079    3.0124    0.3614 N   0  0  0  0  0  0  0  0  0  0  0  0
    0.0502    4.4126    0.3659 C   0  0  2  0  0  0  0  0  0  0  0  0
   -0.5920    4.7383   -0.9761 C   0  0  0  0  0  0  0  0  0  0  0  0
   -0.4040    4.0687   -1.9897 O   0  0  0  0  0  0  0  0  0  0  0  0
    1.2647    5.2932    0.6153 C   0  0  0  0  0  0  0  0  0  0  0  0
    1.3057    2.7447   -0.0306 H   0  0  0  0  0  0  0  0  0  0  0  0
   -0.6856    4.5485    1.1661 H   0  0  0  0  0  0  0  0  0  0  0  0
    2.0130    5.1707   -0.1762 H   0  0  0  0  0  0  0  0  0  0  0  0
    0.9873    6.3520    0.6468 H   0  0  0  0  0  0  0  0  0  0  0  0
    1.7428    5.0374    1.5671 H   0  0  0  0  0  0  0  0  0  0  0  0
   -1.3654    5.8893   -0.9190 N   0  0  0  0  0  0  0  0  0  0  0  0
   -2.0684    6.4139   -2.0664 C   0  0  0  0  0  0  0  0  0  0  0  0
   -1.4806    6.3703   -0.0318 H   0  0  0  0  0  0  0  0  0  0  0  0
   -1.4342    7.1513   -2.5800 H   0  0  0  0  0  0  0  0  0  0  0  0
   -2.3077    5.5918   -2.7570 H   0  0  0  0  0  0  0  0  0  0  0  0
   -2.9993    6.8979   -1.7360 H   0  0  0  0  0  0  0  0  0  0  0  0
  1  3  1  0  0  0  0
  1  7  1  0  0  0  0
  1  2  2  0  0  0  0
 34 35  1  0  0  0  0
 35 43  1  0  0  0  0
 35 36  2  0  0  0  0
  8  9  1  0  0  0  0
  9 17  1  0  0  0  0
  9 10  2  0  0  0  0
 18 19  1  0  0  0  0
 19 33  1  0  0  0  0
 19 20  2  0  0  0  0
 22 23  1  0  0  0  0
 23 24  2  0  0  0  0
 23 25  1  0  0  0  0
 34 37  1  0  0  0  0
  8 11  1  0  0  0  0
 43 44  1  0  0  0  0
 21 22  1  0  0  0  0
 18 21  1  0  0  0  0
 33 34  1  0  0  0  0
  7  8  1  0  0  0  0
 17 18  1  0  0  0  0
  3  4  1  0  0  0  0
  3  5  1  0  0  0  0
  3  6  1  0  0  0  0
 37 40  1  0  0  0  0
 37 41  1  0  0  0  0
 37 42  1  0  0  0  0
 11 14  1  0  0  0  0
 11 15  1  0  0  0  0
 11 16  1  0  0  0  0
 44 46  1  0  0  0  0
 44 47  1  0  0  0  0
 44 48  1  0  0  0  0
 22 30  1  0  0  0  0
 22 31  1  0  0  0  0
 21 28  1  0  0  0  0
 21 29  1  0  0  0  0
 34 39  1  0  0  0  0
  8 13  1  0  0  0  0
 18 27  1  0  0  0  0
 43 45  1  0  0  0  0
  7 12  1  0  0  0  0
 33 38  1  0  0  0  0
 17 26  1  0  0  0  0
 25 32  1  0  0  0  0
M  END
$$$$

  -OEChem-05262214473D

 48 47  0     1  0  0  0  0  0999 V2000
   -5.5827   -1.3473    1.4591 C   0  0  0  0  0  0  0  0  0  0  0  0
   -5.7053   -2.4696    0.9825 O   0  0  0  0  0  0  0  0  0  0  0  0
   -6.7879   -0.6277    1.9670 C   0  0  0  0  0  0  0  0  0  0  0  0
   -7.2718   -0.0164    1.1885 H   0  0  0  0  0  0  0  0  0  0  0  0
   -7.5699   -1.3171    2.3239 H   0  0  0  0  0  0  0  0  0  0  0  0
   -6.6057    0.0628    2.8060 H   0  0  0  0  0  0  0  0  0  0  0  0
   -4.4001   -0.6377    1.5884 N   0  0  0  0  0  0  0  0  0  0  0  0
   -3.1220   -1.1455    1.1644 C   0  0  2  0  0  0  0  0  0  0  0  0
   -2.2017    0.0428    0.9187 C   0  0  0  0  0  0  0  0  0  0  0  0
   -2.6171    1.1750    0.6807 O   0  0  0  0  0  0  0  0  0  0  0  0
   -3.2533   -1.9992   -0.0873 C   0  0  0  0  0  0  0  0  0  0  0  0
   -4.4370    0.2910    2.0047 H   0  0  0  0  0  0  0  0  0  0  0  0
   -2.7302   -1.7467    1.9921 H   0  0  0  0  0  0  0  0  0  0  0  0
   -3.6446   -1.4140   -0.9275 H   0  0  0  0  0  0  0  0  0  0  0  0
   -2.2844   -2.4081   -0.3922 H   0  0  0  0  0  0  0  0  0  0  0  0
   -3.9388   -2.8365    0.0822 H   0  0  0  0  0  0  0  0  0  0  0  0
   -0.8768   -0.3314    0.9568 N   0  0  0  0  0  0  0  0  0  0  0  0
    0.2067    0.6285    0.7375 C   0  0  2  0  0  0  0  0  0  0  0  0
   -0.4145    2.0161    0.8662 C   0  0  0  0  0  0  0  0  0  0  0  0
   -1.3654    2.2478    1.6102 O   0  0  0  0  0  0  0  0  0  0  0  0
    0.8217    0.3914   -0.6499 C   0  0  0  0  0  0  0  0  0  0  0  0
    1.5549   -0.9441   -0.7739 C   0  0  0  0  0  0  0  0  0  0  0  0
    2.1229   -1.1497   -2.1560 C   0  0  0  0  0  0  0  0  0  0  0  0
    1.9052   -0.4016   -3.1005 O   0  0  0  0  0  0  0  0  0  0  0  0
    2.8826   -2.2686   -2.2529 O   0  0  0  0  0  0  0  0  0  0  0  0
   -0.6087   -1.2764    1.1771 H   0  0  0  0  0  0  0  0  0  0  0  0
    0.9660    0.4758    1.5114 H   0  0  0  0  0  0  0  0  0  0  0  0
    0.0290    0.4345   -1.4087 H   0  0  0  0  0  0  0  0  0  0  0  0
    1.5306    1.1942   -0.8916 H   0  0  0  0  0  0  0  0  0  0  0  0
    2.4011   -0.9666   -0.0764 H   0  0  0  0  0  0  0  0  0  0  0  0
    0.9185   -1.7887   -0.4900 H   0  0  0  0  0  0  0  0  0  0  0  0
    3.2564   -2.4494   -3.1414 H   0  0  0  0  0  0  0  0  0  0  0  0
    0.2320    2.9596    0.0816 N   0  0  0  0  0  0  0  0  0  0  0  0
   -0.1628    4.3487    0.0266 C   0  0  2  0  0  0  0  0  0  0  0  0
   -1.1122    4.5216   -1.1515 C   0  0  0  0  0  0  0  0  0  0  0  0
   -1.1439    3.7483   -2.1066 O   0  0  0  0  0  0  0  0  0  0  0  0
    1.0453    5.2623   -0.1102 C   0  0  0  0  0  0  0  0  0  0  0  0
    1.0217    2.6594   -0.4821 H   0  0  0  0  0  0  0  0  0  0  0  0
   -0.6949    4.5634    0.9598 H   0  0  0  0  0  0  0  0  0  0  0  0
    1.5911    5.0619   -1.0394 H   0  0  0  0  0  0  0  0  0  0  0  0
    0.7467    6.3157   -0.1230 H   0  0  0  0  0  0  0  0  0  0  0  0
    1.7415    5.1152    0.7225 H   0  0  0  0  0  0  0  0  0  0  0  0
   -1.8899    5.6649   -1.0317 N   0  0  0  0  0  0  0  0  0  0  0  0
   -2.8598    6.0560   -2.0279 C   0  0  0  0  0  0  0  0  0  0  0  0
   -1.8106    6.2379   -0.1968 H   0  0  0  0  0  0  0  0  0  0  0  0
   -2.3893    6.7395   -2.7500 H   0  0  0  0  0  0  0  0  0  0  0  0
   -3.2257    5.1620   -2.5541 H   0  0  0  0  0  0  0  0  0  0  0  0
   -3.7035    6.5643   -1.5382 H   0  0  0  0  0  0  0  0  0  0  0  0
  1  3  1  0  0  0  0
  1  7  1  0  0  0  0
  1  2  2  0  0  0  0
 34 35  1  0  0  0  0
 35 43  1  0  0  0  0
 35 36  2  0  0  0  0
  8  9  1  0  0  0  0
  9 17  1  0  0  0  0
  9 10  2  0  0  0  0
 18 19  1  0  0  0  0
 19 33  1  0  0  0  0
 19 20  2  0  0  0  0
 22 23  1  0  0  0  0
 23 24  2  0  0  0  0
 23 25  1  0  0  0  0
 34 37  1  0  0  0  0
  8 11  1  0  0  0  0
 43 44  1  0  0  0  0
 21 22  1  0  0  0  0
 18 21  1  0  0  0  0
 33 34  1  0  0  0  0
  7  8  1  0  0  0  0
 17 18  1  0  0  0  0
  3  4  1  0  0  0  0
  3  5  1  0  0  0  0
  3  6  1  0  0  0  0
 37 40  1  0  0  0  0
 37 41  1  0  0  0  0
 37 42  1  0  0  0  0
 11 14  1  0  0  0  0
 11 15  1  0  0  0  0
 11 16  1  0  0  0  0
 44 46  1  0  0  0  0
 44 47  1  0  0  0  0
 44 48  1  0  0  0  0
 22 30  1  0  0  0  0
 22 31  1  0  0  0  0
 21 28  1  0  0  0  0
 21 29  1  0  0  0  0
 34 39  1  0  0  0  0
  8 13  1  0  0  0  0
 18 27  1  0  0  0  0
 43 45  1  0  0  0  0
  7 12  1  0  0  0  0
 33 38  1  0  0  0  0
 17 26  1  0  0  0  0
 25 32  1  0  0  0  0
M  END
$$$$

  -OEChem-05262214473D

 48 47  0     1  0  0  0  0  0999 V2000
   -5.5827   -1.3473    1.4591 C   0  0  0  0  0  0  0  0  0  0  0  0
   -5.7053   -2.4696    0.9825 O   0  0  0  0  0  0  0  0  0  0  0  0
   -6.7879   -0.6277    1.9670 C   0  0  0  0  0  0  0  0  0  0  0  0
   -7.2718   -0.0164    1.1885 H   0  0  0  0  0  0  0  0  0  0  0  0
   -7.5699   -1.3171    2.3239 H   0  0  0  0  0  0  0  0  0  0  0  0
   -6.6057    0.0628    2.8060 H   0  0  0  0  0  0  0  0  0  0  0  0
   -4.4001   -0.6377    1.5884 N   0  0  0  0  0  0  0  0  0  0  0  0
   -3.1220   -1.1455    1.1644 C   0  0  2  0  0  0  0  0  0  0  0  0
   -2.2017    0.0428    0.9187 C   0  0  0  0  0  0  0  0  0  0  0  0
   -2.6171    1.1750    0.6807 O   0  0  0  0  0  0  0  0  0  0  0  0
   -3.2533   -1.9992   -0.0873 C   0  0  0  0  0  0  0  0  0  0  0  0
   -4.4370    0.2910    2.0047 H   0  0  0  0  0  0  0  0  0  0  0  0
   -2.7302   -1.7467    1.9921 H   0  0  0  0  0  0  0  0  0  0  0  0
   -3.6446   -1.4140   -0.9275 H   0  0  0  0  0  0  0  0  0  0  0  0
   -2.2844   -2.4081   -0.3922 H   0  0  0  0  0  0  0  0  0  0  0  0
   -3.9388   -2.8365    0.0822 H   0  0  0  0  0  0  0  0  0  0  0  0
   -0.8768   -0.3314    0.9568 N   0  0  0  0  0  0  0  0  0  0  0  0
    0.2067    0.6285    0.7375 C   0  0  2  0  0  0  0  0  0  0  0  0
   -0.4145    2.0161    0.8662 C   0  0  0  0  0  0  0  0  0  0  0  0
   -1.1722    2.3181    1.7861 O   0  0  0  0  0  0  0  0  0  0  0  0
    0.8217    0.3914   -0.6499 C   0  0  0  0  0  0  0  0  0  0  0  0
    1.5549   -0.9441   -0.7739 C   0  0  0  0  0  0  0  0  0  0  0  0
    2.1229   -1.1497   -2.1560 C   0  0  0  0  0  0  0  0  0  0  0  0
    1.9052   -0.4016   -3.1005 O   0  0  0  0  0  0  0  0  0  0  0  0
    2.8826   -2.2686   -2.2529 O   0  0  0  0  0  0  0  0  0  0  0  0
   -0.6087   -1.2764    1.1771 H   0  0  0  0  0  0  0  0  0  0  0  0
    0.9660    0.4758    1.5114 H   0  0  0  0  0  0  0  0  0  0  0  0
    0.0290    0.4345   -1.4087 H   0  0  0  0  0  0  0  0  0  0  0  0
    1.5306    1.1942   -0.8916 H   0  0  0  0  0  0  0  0  0  0  0  0
    2.4011   -0.9666   -0.0764 H   0  0  0  0  0  0  0  0  0  0  0  0
    0.9185   -1.7887   -0.4900 H   0  0  0  0  0  0  0  0  0  0  0  0
    3.2564   -2.4494   -3.1414 H   0  0  0  0  0  0  0  0  0  0  0  0
   -0.0026    2.8752   -0.1418 N   0  0  0  0  0  0  0  0  0  0  0  0
   -0.4469    4.2467   -0.2442 C   0  0  2  0  0  0  0  0  0  0  0  0
   -1.6513    4.2825   -1.1757 C   0  0  0  0  0  0  0  0  0  0  0  0
   -1.8791    3.4103   -2.0115 O   0  0  0  0  0  0  0  0  0  0  0  0
    0.6633    5.1512   -0.7561 C   0  0  0  0  0  0  0  0  0  0  0  0
    0.6429    2.5233   -0.8423 H   0  0  0  0  0  0  0  0  0  0  0  0
   -0.7528    4.5560    0.7612 H   0  0  0  0  0  0  0  0  0  0  0  0
    0.9829    4.8566   -1.7624 H   0  0  0  0  0  0  0  0  0  0  0  0
    0.3339    6.1943   -0.8061 H   0  0  0  0  0  0  0  0  0  0  0  0
    1.5398    5.1013   -0.1011 H   0  0  0  0  0  0  0  0  0  0  0  0
   -2.4182    5.4248   -0.9935 N   0  0  0  0  0  0  0  0  0  0  0  0
   -3.6073    5.6971   -1.7667 C   0  0  0  0  0  0  0  0  0  0  0  0
   -2.1654    6.0853   -0.2644 H   0  0  0  0  0  0  0  0  0  0  0  0
   -3.3428    6.3029   -2.6460 H   0  0  0  0  0  0  0  0  0  0  0  0
   -4.0552    4.7482   -2.0967 H   0  0  0  0  0  0  0  0  0  0  0  0
   -4.3299    6.2475   -1.1463 H   0  0  0  0  0  0  0  0  0  0  0  0
  1  3  1  0  0  0  0
  1  7  1  0  0  0  0
  1  2  2  0  0  0  0
 34 35  1  0  0  0  0
 35 43  1  0  0  0  0
 35 36  2  0  0  0  0
  8  9  1  0  0  0  0
  9 17  1  0  0  0  0
  9 10  2  0  0  0  0
 18 19  1  0  0  0  0
 19 33  1  0  0  0  0
 19 20  2  0  0  0  0
 22 23  1  0  0  0  0
 23 24  2  0  0  0  0
 23 25  1  0  0  0  0
 34 37  1  0  0  0  0
  8 11  1  0  0  0  0
 43 44  1  0  0  0  0
 21 22  1  0  0  0  0
 18 21  1  0  0  0  0
 33 34  1  0  0  0  0
  7  8  1  0  0  0  0
 17 18  1  0  0  0  0
  3  4  1  0  0  0  0
  3  5  1  0  0  0  0
  3  6  1  0  0  0  0
 37 40  1  0  0  0  0
 37 41  1  0  0  0  0
 37 42  1  0  0  0  0
 11 14  1  0  0  0  0
 11 15  1  0  0  0  0
 11 16  1  0  0  0  0
 44 46  1  0  0  0  0
 44 47  1  0  0  0  0
 44 48  1  0  0  0  0
 22 30  1  0  0  0  0
 22 31  1  0  0  0  0
 21 28  1  0  0  0  0
 21 29  1  0  0  0  0
 34 39  1  0  0  0  0
  8 13  1  0  0  0  0
 18 27  1  0  0  0  0
 43 45  1  0  0  0  0
  7 12  1  0  0  0  0
 33 38  1  0  0  0  0
 17 26  1  0  0  0  0
 25 32  1  0  0  0  0
M  END
$$$$

  -OEChem-05262214473D

 48 47  0     1  0  0  0  0  0999 V2000
   -5.5827   -1.3473    1.4591 C   0  0  0  0  0  0  0  0  0  0  0  0
   -5.7053   -2.4696    0.9825 O   0  0  0  0  0  0  0  0  0  0  0  0
   -6.7879   -0.6277    1.9670 C   0  0  0  0  0  0  0  0  0  0  0  0
   -7.2718   -0.0164    1.1885 H   0  0  0  0  0  0  0  0  0  0  0  0
   -7.5699   -1.3171    2.3239 H   0  0  0  0  0  0  0  0  0  0  0  0
   -6.6057    0.0628    2.8060 H   0  0  0  0  0  0  0  0  0  0  0  0
   -4.4001   -0.6377    1.5884 N   0  0  0  0  0  0  0  0  0  0  0  0
   -3.1220   -1.1455    1.1644 C   0  0  2  0  0  0  0  0  0  0  0  0
   -2.2017    0.0428    0.9187 C   0  0  0  0  0  0  0  0  0  0  0  0
   -2.6171    1.1750    0.6807 O   0  0  0  0  0  0  0  0  0  0  0  0
   -3.2533   -1.9992   -0.0873 C   0  0  0  0  0  0  0  0  0  0  0  0
   -4.4370    0.2910    2.0047 H   0  0  0  0  0  0  0  0  0  0  0  0
   -2.7302   -1.7467    1.9921 H   0  0  0  0  0  0  0  0  0  0  0  0
   -3.6446   -1.4140   -0.9275 H   0  0  0  0  0  0  0  0  0  0  0  0
   -2.2844   -2.4081   -0.3922 H   0  0  0  0  0  0  0  0  0  0  0  0
   -3.9388   -2.8365    0.0822 H   0  0  0  0  0  0  0  0  0  0  0  0
   -0.8768   -0.3314    0.9568 N   0  0  0  0  0  0  0  0  0  0  0  0
    0.2067    0.6285    0.7375 C   0  0  2  0  0  0  0  0  0  0  0  0
   -0.4145    2.0161    0.8662 C   0  0  0  0  0  0  0  0  0  0  0  0
   -0.9456    2.4086    1.9032 O   0  0  0  0  0  0  0  0  0  0  0  0
    0.8217    0.3914   -0.6499 C   0  0  0  0  0  0  0  0  0  0  0  0
    1.5549   -0.9441   -0.7739 C   0  0  0  0  0  0  0  0  0  0  0  0
    2.1229   -1.1497   -2.1560 C   0  0  0  0  0  0  0  0  0  0  0  0
    1.9052   -0.4016   -3.1005 O   0  0  0  0  0  0  0  0  0  0  0  0
    2.8826   -2.2686   -2.2529 O   0  0  0  0  0  0  0  0  0  0  0  0
   -0.6087   -1.2764    1.1771 H   0  0  0  0  0  0  0  0  0  0  0  0
    0.9660    0.4758    1.5114 H   0  0  0  0  0  0  0  0  0  0  0  0
    0.0290    0.4345   -1.4087 H   0  0  0  0  0  0  0  0  0  0  0  0
    1.5306    1.1942   -0.8916 H   0  0  0  0  0  0  0  0  0  0  0  0
    2.4011   -0.9666   -0.0764 H   0  0  0  0  0  0  0  0  0  0  0  0
    0.9185   -1.7887   -0.4900 H   0  0  0  0  0  0  0  0  0  0  0  0
    3.2564   -2.4494   -3.1414 H   0  0  0  0  0  0  0  0  0  0  0  0
   -0.2800    2.7651   -0.2934 N   0  0  0  0  0  0  0  0  0  0  0  0
   -0.7829    4.1133   -0.4282 C   0  0  2  0  0  0  0  0  0  0  0  0
   -2.1725    4.0372   -1.0470 C   0  0  0  0  0  0  0  0  0  0  0  0
   -2.5595    3.0778   -1.7110 O   0  0  0  0  0  0  0  0  0  0  0  0
    0.1446    4.9674   -1.2784 C   0  0  0  0  0  0  0  0  0  0  0  0
    0.1952    2.3455   -1.0868 H   0  0  0  0  0  0  0  0  0  0  0  0
   -0.8553    4.5265    0.5837 H   0  0  0  0  0  0  0  0  0  0  0  0
    0.2296    4.5689   -2.2960 H   0  0  0  0  0  0  0  0  0  0  0  0
   -0.2230    5.9959   -1.3559 H   0  0  0  0  0  0  0  0  0  0  0  0
    1.1514    4.9967   -0.8478 H   0  0  0  0  0  0  0  0  0  0  0  0
   -2.9142    5.1854   -0.8069 N   0  0  0  0  0  0  0  0  0  0  0  0
   -4.2600    5.3616   -1.3007 C   0  0  0  0  0  0  0  0  0  0  0  0
   -2.5206    5.9231   -0.2302 H   0  0  0  0  0  0  0  0  0  0  0  0
   -4.2299    5.8713   -2.2750 H   0  0  0  0  0  0  0  0  0  0  0  0
   -4.7398    4.3785   -1.4160 H   0  0  0  0  0  0  0  0  0  0  0  0
   -4.8357    5.9691   -0.5869 H   0  0  0  0  0  0  0  0  0  0  0  0
  1  3  1  0  0  0  0
  1  7  1  0  0  0  0
  1  2  2  0  0  0  0
 34 35  1  0  0  0  0
 35 43  1  0  0  0  0
 35 36  2  0  0  0  0
  8  9  1  0  0  0  0
  9 17  1  0  0  0  0
  9 10  2  0  0  0  0
 18 19  1  0  0  0  0
 19 33  1  0  0  0  0
 19 20  2  0  0  0  0
 22 23  1  0  0  0  0
 23 24  2  0  0  0  0
 23 25  1  0  0  0  0
 34 37  1  0  0  0  0
  8 11  1  0  0  0  0
 43 44  1  0  0  0  0
 21 22  1  0  0  0  0
 18 21  1  0  0  0  0
 33 34  1  0  0  0  0
  7  8  1  0  0  0  0
 17 18  1  0  0  0  0
  3  4  1  0  0  0  0
  3  5  1  0  0  0  0
  3  6  1  0  0  0  0
 37 40  1  0  0  0  0
 37 41  1  0  0  0  0
 37 42  1  0  0  0  0
 11 14  1  0  0  0  0
 11 15  1  0  0  0  0
 11 16  1  0  0  0  0
 44 46  1  0  0  0  0
 44 47  1  0  0  0  0
 44 48  1  0  0  0  0
 22 30  1  0  0  0  0
 22 31  1  0  0  0  0
 21 28  1  0  0  0  0
 21 29  1  0  0  0  0
 34 39  1  0  0  0  0
  8 13  1  0  0  0  0
 18 27  1  0  0  0  0
 43 45  1  0  0  0  0
  7 12  1  0  0  0  0
 33 38  1  0  0  0  0
 17 26  1  0  0  0  0
 25 32  1  0  0  0  0
M  END
$$$$

  -OEChem-05262214473D

 48 47  0     1  0  0  0  0  0999 V2000
   -5.5827   -1.3473    1.4591 C   0  0  0  0  0  0  0  0  0  0  0  0
   -5.7053   -2.4696    0.9825 O   0  0  0  0  0  0  0  0  0  0  0  0
   -6.7879   -0.6277    1.9670 C   0  0  0  0  0  0  0  0  0  0  0  0
   -7.2718   -0.0164    1.1885 H   0  0  0  0  0  0  0  0  0  0  0  0
   -7.5699   -1.3171    2.3239 H   0  0  0  0  0  0  0  0  0  0  0  0
   -6.6057    0.0628    2.8060 H   0  0  0  0  0  0  0  0  0  0  0  0
   -4.4001   -0.6377    1.5884 N   0  0  0  0  0  0  0  0  0  0  0  0
   -3.1220   -1.1455    1.1644 C   0  0  2  0  0  0  0  0  0  0  0  0
   -2.2017    0.0428    0.9187 C   0  0  0  0  0  0  0  0  0  0  0  0
   -2.6171    1.1750    0.6807 O   0  0  0  0  0  0  0  0  0  0  0  0
   -3.2533   -1.9992   -0.0873 C   0  0  0  0  0  0  0  0  0  0  0  0
   -4.4370    0.2910    2.0047 H   0  0  0  0  0  0  0  0  0  0  0  0
   -2.7302   -1.7467    1.9921 H   0  0  0  0  0  0  0  0  0  0  0  0
   -3.6446   -1.4140   -0.9275 H   0  0  0  0  0  0  0  0  0  0  0  0
   -2.2844   -2.4081   -0.3922 H   0  0  0  0  0  0  0  0  0  0  0  0
   -3.9388   -2.8365    0.0822 H   0  0  0  0  0  0  0  0  0  0  0  0
   -0.8768   -0.3314    0.9568 N   0  0  0  0  0  0  0  0  0  0  0  0
    0.2067    0.6285    0.7375 C   0  0  2  0  0  0  0  0  0  0  0  0
   -0.4145    2.0161    0.8662 C   0  0  0  0  0  0  0  0  0  0  0  0
   -0.7011    2.5134    1.9534 O   0  0  0  0  0  0  0  0  0  0  0  0
    0.8217    0.3914   -0.6499 C   0  0  0  0  0  0  0  0  0  0  0  0
    1.5549   -0.9441   -0.7739 C   0  0  0  0  0  0  0  0  0  0  0  0
    2.1229   -1.1497   -2.1560 C   0  0  0  0  0  0  0  0  0  0  0  0
    1.9052   -0.4016   -3.1005 O   0  0  0  0  0  0  0  0  0  0  0  0
    2.8826   -2.2686   -2.2529 O   0  0  0  0  0  0  0  0  0  0  0  0
   -0.6087   -1.2764    1.1771 H   0  0  0  0  0  0  0  0  0  0  0  0
    0.9660    0.4758    1.5114 H   0  0  0  0  0  0  0  0  0  0  0  0
    0.0290    0.4345   -1.4087 H   0  0  0  0  0  0  0  0  0  0  0  0
    1.5306    1.1942   -0.8916 H   0  0  0  0  0  0  0  0  0  0  0  0
    2.4011   -0.9666   -0.0764 H   0  0  0  0  0  0  0  0  0  0  0  0
    0.9185   -1.7887   -0.4900 H   0  0  0  0  0  0  0  0  0  0  0  0
    3.2564   -2.4494   -3.1414 H   0  0  0  0  0  0  0  0  0  0  0  0
   -0.5813    2.6367   -0.3630 N   0  0  0  0  0  0  0  0  0  0  0  0
   -1.1479    3.9577   -0.5128 C   0  0  2  0  0  0  0  0  0  0  0  0
   -2.6402    3.8025   -0.7742 C   0  0  0  0  0  0  0  0  0  0  0  0
   -3.1387    2.7735   -1.2255 O   0  0  0  0  0  0  0  0  0  0  0  0
   -0.4752    4.7236   -1.6414 C   0  0  0  0  0  0  0  0  0  0  0  0
   -0.2909    2.1383   -1.1988 H   0  0  0  0  0  0  0  0  0  0  0  0
   -0.9954    4.4772    0.4395 H   0  0  0  0  0  0  0  0  0  0  0  0
   -0.6172    4.2183   -2.6037 H   0  0  0  0  0  0  0  0  0  0  0  0
   -0.8860    5.7343   -1.7351 H   0  0  0  0  0  0  0  0  0  0  0  0
    0.6027    4.8084   -1.4665 H   0  0  0  0  0  0  0  0  0  0  0  0
   -3.3442    4.9630   -0.4847 N   0  0  0  0  0  0  0  0  0  0  0  0
   -4.7735    5.0725   -0.6615 C   0  0  0  0  0  0  0  0  0  0  0  0
   -2.8521    5.7623   -0.0964 H   0  0  0  0  0  0  0  0  0  0  0  0
   -4.9899    5.4742   -1.6624 H   0  0  0  0  0  0  0  0  0  0  0  0
   -5.2328    4.0783   -0.5584 H   0  0  0  0  0  0  0  0  0  0  0  0
   -5.1866    5.7481    0.1019 H   0  0  0  0  0  0  0  0  0  0  0  0
  1  3  1  0  0  0  0
  1  7  1  0  0  0  0
  1  2  2  0  0  0  0
 34 35  1  0  0  0  0
 35 43  1  0  0  0  0
 35 36  2  0  0  0  0
  8  9  1  0  0  0  0
  9 17  1  0  0  0  0
  9 10  2  0  0  0  0
 18 19  1  0  0  0  0
 19 33  1  0  0  0  0
 19 20  2  0  0  0  0
 22 23  1  0  0  0  0
 23 24  2  0  0  0  0
 23 25  1  0  0  0  0
 34 37  1  0  0  0  0
  8 11  1  0  0  0  0
 43 44  1  0  0  0  0
 21 22  1  0  0  0  0
 18 21  1  0  0  0  0
 33 34  1  0  0  0  0
  7  8  1  0  0  0  0
 17 18  1  0  0  0  0
  3  4  1  0  0  0  0
  3  5  1  0  0  0  0
  3  6  1  0  0  0  0
 37 40  1  0  0  0  0
 37 41  1  0  0  0  0
 37 42  1  0  0  0  0
 11 14  1  0  0  0  0
 11 15  1  0  0  0  0
 11 16  1  0  0  0  0
 44 46  1  0  0  0  0
 44 47  1  0  0  0  0
 44 48  1  0  0  0  0
 22 30  1  0  0  0  0
 22 31  1  0  0  0  0
 21 28  1  0  0  0  0
 21 29  1  0  0  0  0
 34 39  1  0  0  0  0
  8 13  1  0  0  0  0
 18 27  1  0  0  0  0
 43 45  1  0  0  0  0
  7 12  1  0  0  0  0
 33 38  1  0  0  0  0
 17 26  1  0  0  0  0
 25 32  1  0  0  0  0
M  END
$$$$

  -OEChem-05262214473D

 48 47  0     1  0  0  0  0  0999 V2000
   -5.5827   -1.3473    1.4591 C   0  0  0  0  0  0  0  0  0  0  0  0
   -5.7053   -2.4696    0.9825 O   0  0  0  0  0  0  0  0  0  0  0  0
   -6.7879   -0.6277    1.9670 C   0  0  0  0  0  0  0  0  0  0  0  0
   -7.2718   -0.0164    1.1885 H   0  0  0  0  0  0  0  0  0  0  0  0
   -7.5699   -1.3171    2.3239 H   0  0  0  0  0  0  0  0  0  0  0  0
   -6.6057    0.0628    2.8060 H   0  0  0  0  0  0  0  0  0  0  0  0
   -4.4001   -0.6377    1.5884 N   0  0  0  0  0  0  0  0  0  0  0  0
   -3.1220   -1.1455    1.1644 C   0  0  2  0  0  0  0  0  0  0  0  0
   -2.2017    0.0428    0.9187 C   0  0  0  0  0  0  0  0  0  0  0  0
   -2.6171    1.1750    0.6807 O   0  0  0  0  0  0  0  0  0  0  0  0
   -3.2533   -1.9992   -0.0873 C   0  0  0  0  0  0  0  0  0  0  0  0
   -4.4370    0.2910    2.0047 H   0  0  0  0  0  0  0  0  0  0  0  0
   -2.7302   -1.7467    1.9921 H   0  0  0  0  0  0  0  0  0  0  0  0
   -3.6446   -1.4140   -0.9275 H   0  0  0  0  0  0  0  0  0  0  0  0
   -2.2844   -2.4081   -0.3922 H   0  0  0  0  0  0  0  0  0  0  0  0
   -3.9388   -2.8365    0.0822 H   0  0  0  0  0  0  0  0  0  0  0  0
   -0.8768   -0.3314    0.9568 N   0  0  0  0  0  0  0  0  0  0  0  0
    0.2067    0.6285    0.7375 C   0  0  2  0  0  0  0  0  0  0  0  0
   -0.4145    2.0161    0.8662 C   0  0  0  0  0  0  0  0  0  0  0  0
   -0.4555    2.6253    1.9333 O   0  0  0  0  0  0  0  0  0  0  0  0
    0.8217    0.3914   -0.6499 C   0  0  0  0  0  0  0  0  0  0  0  0
    1.5549   -0.9441   -0.7739 C   0  0  0  0  0  0  0  0  0  0  0  0
    2.1229   -1.1497   -2.1560 C   0  0  0  0  0  0  0  0  0  0  0  0
    1.9052   -0.4016   -3.1005 O   0  0  0  0  0  0  0  0  0  0  0  0
    2.8826   -2.2686   -2.2529 O   0  0  0  0  0  0  0  0  0  0  0  0
   -0.6087   -1.2764    1.1771 H   0  0  0  0  0  0  0  0  0  0  0  0
    0.9660    0.4758    1.5114 H   0  0  0  0  0  0  0  0  0  0  0  0
    0.0290    0.4345   -1.4087 H   0  0  0  0  0  0  0  0  0  0  0  0
    1.5306    1.1942   -0.8916 H   0  0  0  0  0  0  0  0  0  0  0  0
    2.4011   -0.9666   -0.0764 H   0  0  0  0  0  0  0  0  0  0  0  0
    0.9185   -1.7887   -0.4900 H   0  0  0  0  0  0  0  0  0  0  0  0
    3.2564   -2.4494   -3.1414 H   0  0  0  0  0  0  0  0  0  0  0  0
   -0.8858    2.4987   -0.3457 N   0  0  0  0  0  0  0  0  0  0  0  0
   -1.5169    3.7906   -0.4923 C   0  0  2  0  0  0  0  0  0  0  0  0
   -3.0227    3.5943   -0.3758 C   0  0  0  0  0  0  0  0  0  0  0  0
   -3.5773    2.5180   -0.5882 O   0  0  0  0  0  0  0  0  0  0  0  0
   -1.1541    4.4362   -1.8205 C   0  0  0  0  0  0  0  0  0  0  0  0
   -0.7823    1.9157   -1.1708 H   0  0  0  0  0  0  0  0  0  0  0  0
   -1.1636    4.4112    0.3384 H   0  0  0  0  0  0  0  0  0  0  0  0
   -1.5000    3.8287   -2.6647 H   0  0  0  0  0  0  0  0  0  0  0  0
   -1.6100    5.4271   -1.9177 H   0  0  0  0  0  0  0  0  0  0  0  0
   -0.0687    4.5494   -1.9152 H   0  0  0  0  0  0  0  0  0  0  0  0
   -3.6789    4.7727   -0.0488 N   0  0  0  0  0  0  0  0  0  0  0  0
   -5.1127    4.8493    0.1072 C   0  0  0  0  0  0  0  0  0  0  0  0
   -3.1374    5.6138    0.1278 H   0  0  0  0  0  0  0  0  0  0  0  0
   -5.5713    5.1386   -0.8499 H   0  0  0  0  0  0  0  0  0  0  0  0
   -5.5005    3.8678    0.4176 H   0  0  0  0  0  0  0  0  0  0  0  0
   -5.3585    5.5996    0.8730 H   0  0  0  0  0  0  0  0  0  0  0  0
  1  3  1  0  0  0  0
  1  7  1  0  0  0  0
  1  2  2  0  0  0  0
 34 35  1  0  0  0  0
 35 43  1  0  0  0  0
 35 36  2  0  0  0  0
  8  9  1  0  0  0  0
  9 17  1  0  0  0  0
  9 10  2  0  0  0  0
 18 19  1  0  0  0  0
 19 33  1  0  0  0  0
 19 20  2  0  0  0  0
 22 23  1  0  0  0  0
 23 24  2  0  0  0  0
 23 25  1  0  0  0  0
 34 37  1  0  0  0  0
  8 11  1  0  0  0  0
 43 44  1  0  0  0  0
 21 22  1  0  0  0  0
 18 21  1  0  0  0  0
 33 34  1  0  0  0  0
  7  8  1  0  0  0  0
 17 18  1  0  0  0  0
  3  4  1  0  0  0  0
  3  5  1  0  0  0  0
  3  6  1  0  0  0  0
 37 40  1  0  0  0  0
 37 41  1  0  0  0  0
 37 42  1  0  0  0  0
 11 14  1  0  0  0  0
 11 15  1  0  0  0  0
 11 16  1  0  0  0  0
 44 46  1  0  0  0  0
 44 47  1  0  0  0  0
 44 48  1  0  0  0  0
 22 30  1  0  0  0  0
 22 31  1  0  0  0  0
 21 28  1  0  0  0  0
 21 29  1  0  0  0  0
 34 39  1  0  0  0  0
  8 13  1  0  0  0  0
 18 27  1  0  0  0  0
 43 45  1  0  0  0  0
  7 12  1  0  0  0  0
 33 38  1  0  0  0  0
 17 26  1  0  0  0  0
 25 32  1  0  0  0  0
M  END
$$$$

  -OEChem-05262214473D

 48 47  0     1  0  0  0  0  0999 V2000
   -5.5827   -1.3473    1.4591 C   0  0  0  0  0  0  0  0  0  0  0  0
   -5.7053   -2.4696    0.9825 O   0  0  0  0  0  0  0  0  0  0  0  0
   -6.7879   -0.6277    1.9670 C   0  0  0  0  0  0  0  0  0  0  0  0
   -7.2718   -0.0164    1.1885 H   0  0  0  0  0  0  0  0  0  0  0  0
   -7.5699   -1.3171    2.3239 H   0  0  0  0  0  0  0  0  0  0  0  0
   -6.6057    0.0628    2.8060 H   0  0  0  0  0  0  0  0  0  0  0  0
   -4.4001   -0.6377    1.5884 N   0  0  0  0  0  0  0  0  0  0  0  0
   -3.1220   -1.1455    1.1644 C   0  0  2  0  0  0  0  0  0  0  0  0
   -2.2017    0.0428    0.9187 C   0  0  0  0  0  0  0  0  0  0  0  0
   -2.6171    1.1750    0.6807 O   0  0  0  0  0  0  0  0  0  0  0  0
   -3.2533   -1.9992   -0.0873 C   0  0  0  0  0  0  0  0  0  0  0  0
   -4.4370    0.2910    2.0047 H   0  0  0  0  0  0  0  0  0  0  0  0
   -2.7302   -1.7467    1.9921 H   0  0  0  0  0  0  0  0  0  0  0  0
   -3.6446   -1.4140   -0.9275 H   0  0  0  0  0  0  0  0  0  0  0  0
   -2.2844   -2.4081   -0.3922 H   0  0  0  0  0  0  0  0  0  0  0  0
   -3.9388   -2.8365    0.0822 H   0  0  0  0  0  0  0  0  0  0  0  0
   -0.8768   -0.3314    0.9568 N   0  0  0  0  0  0  0  0  0  0  0  0
    0.2067    0.6285    0.7375 C   0  0  2  0  0  0  0  0  0  0  0  0
   -0.4145    2.0161    0.8662 C   0  0  0  0  0  0  0  0  0  0  0  0
   -0.2254    2.7365    1.8442 O   0  0  0  0  0  0  0  0  0  0  0  0
    0.8217    0.3914   -0.6499 C   0  0  0  0  0  0  0  0  0  0  0  0
    1.5549   -0.9441   -0.7739 C   0  0  0  0  0  0  0  0  0  0  0  0
    2.1229   -1.1497   -2.1560 C   0  0  0  0  0  0  0  0  0  0  0  0
    1.9052   -0.4016   -3.1005 O   0  0  0  0  0  0  0  0  0  0  0  0
    2.8826   -2.2686   -2.2529 O   0  0  0  0  0  0  0  0  0  0  0  0
   -0.6087   -1.2764    1.1771 H   0  0  0  0  0  0  0  0  0  0  0  0
    0.9660    0.4758    1.5114 H   0  0  0  0  0  0  0  0  0  0  0  0
    0.0290    0.4345   -1.4087 H   0  0  0  0  0  0  0  0  0  0  0  0
    1.5306    1.1942   -0.8916 H   0  0  0  0  0  0  0  0  0  0  0  0
    2.4011   -0.9666   -0.0764 H   0  0  0  0  0  0  0  0  0  0  0  0
    0.9185   -1.7887   -0.4900 H   0  0  0  0  0  0  0  0  0  0  0  0
    3.2564   -2.4494   -3.1414 H   0  0  0  0  0  0  0  0  0  0  0  0
   -1.1729    2.3607   -0.2429 N   0  0  0  0  0  0  0  0  0  0  0  0
   -1.8649    3.6233   -0.3679 C   0  0  2  0  0  0  0  0  0  0  0  0
   -3.2938    3.4268    0.1210 C   0  0  0  0  0  0  0  0  0  0  0  0
   -3.8453    2.3288    0.1576 O   0  0  0  0  0  0  0  0  0  0  0  0
   -1.8457    4.1250   -1.8034 C   0  0  0  0  0  0  0  0  0  0  0  0
   -1.2454    1.6929   -1.0045 H   0  0  0  0  0  0  0  0  0  0  0  0
   -1.3484    4.3332    0.2873 H   0  0  0  0  0  0  0  0  0  0  0  0
   -2.3586    3.4267   -2.4747 H   0  0  0  0  0  0  0  0  0  0  0  0
   -2.3455    5.0953   -1.8912 H   0  0  0  0  0  0  0  0  0  0  0  0
   -0.8173    4.2373   -2.1633 H   0  0  0  0  0  0  0  0  0  0  0  0
   -3.8954    4.6276    0.4710 N   0  0  0  0  0  0  0  0  0  0  0  0
   -5.2545    4.7073    0.9530 C   0  0  0  0  0  0  0  0  0  0  0  0
   -3.3569    5.4877    0.4271 H   0  0  0  0  0  0  0  0  0  0  0  0
   -5.9342    4.8873    0.1071 H   0  0  0  0  0  0  0  0  0  0  0  0
   -5.5248    3.7616    1.4456 H   0  0  0  0  0  0  0  0  0  0  0  0
   -5.3399    5.5337    1.6740 H   0  0  0  0  0  0  0  0  0  0  0  0
  1  3  1  0  0  0  0
  1  7  1  0  0  0  0
  1  2  2  0  0  0  0
 34 35  1  0  0  0  0
 35 43  1  0  0  0  0
 35 36  2  0  0  0  0
  8  9  1  0  0  0  0
  9 17  1  0  0  0  0
  9 10  2  0  0  0  0
 18 19  1  0  0  0  0
 19 33  1  0  0  0  0
 19 20  2  0  0  0  0
 22 23  1  0  0  0  0
 23 24  2  0  0  0  0
 23 25  1  0  0  0  0
 34 37  1  0  0  0  0
  8 11  1  0  0  0  0
 43 44  1  0  0  0  0
 21 22  1  0  0  0  0
 18 21  1  0  0  0  0
 33 34  1  0  0  0  0
  7  8  1  0  0  0  0
 17 18  1  0  0  0  0
  3  4  1  0  0  0  0
  3  5  1  0  0  0  0
  3  6  1  0  0  0  0
 37 40  1  0  0  0  0
 37 41  1  0  0  0  0
 37 42  1  0  0  0  0
 11 14  1  0  0  0  0
 11 15  1  0  0  0  0
 11 16  1  0  0  0  0
 44 46  1  0  0  0  0
 44 47  1  0  0  0  0
 44 48  1  0  0  0  0
 22 30  1  0  0  0  0
 22 31  1  0  0  0  0
 21 28  1  0  0  0  0
 21 29  1  0  0  0  0
 34 39  1  0  0  0  0
  8 13  1  0  0  0  0
 18 27  1  0  0  0  0
 43 45  1  0  0  0  0
  7 12  1  0  0  0  0
 33 38  1  0  0  0  0
 17 26  1  0  0  0  0
 25 32  1  0  0  0  0
M  END
$$$$

  -OEChem-05262214473D

 48 47  0     1  0  0  0  0  0999 V2000
   -5.5827   -1.3473    1.4591 C   0  0  0  0  0  0  0  0  0  0  0  0
   -5.7053   -2.4696    0.9825 O   0  0  0  0  0  0  0  0  0  0  0  0
   -6.7879   -0.6277    1.9670 C   0  0  0  0  0  0  0  0  0  0  0  0
   -7.2718   -0.0164    1.1885 H   0  0  0  0  0  0  0  0  0  0  0  0
   -7.5699   -1.3171    2.3239 H   0  0  0  0  0  0  0  0  0  0  0  0
   -6.6057    0.0628    2.8060 H   0  0  0  0  0  0  0  0  0  0  0  0
   -4.4001   -0.6377    1.5884 N   0  0  0  0  0  0  0  0  0  0  0  0
   -3.1220   -1.1455    1.1644 C   0  0  2  0  0  0  0  0  0  0  0  0
   -2.2017    0.0428    0.9187 C   0  0  0  0  0  0  0  0  0  0  0  0
   -2.6171    1.1750    0.6807 O   0  0  0  0  0  0  0  0  0  0  0  0
   -3.2533   -1.9992   -0.0873 C   0  0  0  0  0  0  0  0  0  0  0  0
   -4.4370    0.2910    2.0047 H   0  0  0  0  0  0  0  0  0  0  0  0
   -2.7302   -1.7467    1.9921 H   0  0  0  0  0  0  0  0  0  0  0  0
   -3.6446   -1.4140   -0.9275 H   0  0  0  0  0  0  0  0  0  0  0  0
   -2.2844   -2.4081   -0.3922 H   0  0  0  0  0  0  0  0  0  0  0  0
   -3.9388   -2.8365    0.0822 H   0  0  0  0  0  0  0  0  0  0  0  0
   -0.8768   -0.3314    0.9568 N   0  0  0  0  0  0  0  0  0  0  0  0
    0.2067    0.6285    0.7375 C   0  0  2  0  0  0  0  0  0  0  0  0
   -0.4145    2.0161    0.8662 C   0  0  0  0  0  0  0  0  0  0  0  0
   -0.0265    2.8397    1.6924 O   0  0  0  0  0  0  0  0  0  0  0  0
    0.8217    0.3914   -0.6499 C   0  0  0  0  0  0  0  0  0  0  0  0
    1.5549   -0.9441   -0.7739 C   0  0  0  0  0  0  0  0  0  0  0  0
    2.1229   -1.1497   -2.1560 C   0  0  0  0  0  0  0  0  0  0  0  0
    1.9052   -0.4016   -3.1005 O   0  0  0  0  0  0  0  0  0  0  0  0
    2.8826   -2.2686   -2.2529 O   0  0  0  0  0  0  0  0  0  0  0  0
   -0.6087   -1.2764    1.1771 H   0  0  0  0  0  0  0  0  0  0  0  0
    0.9660    0.4758    1.5114 H   0  0  0  0  0  0  0  0  0  0  0  0
    0.0290    0.4345   -1.4087 H   0  0  0  0  0  0  0  0  0  0  0  0
    1.5306    1.1942   -0.8916 H   0  0  0  0  0  0  0  0  0  0  0  0
    2.4011   -0.9666   -0.0764 H   0  0  0  0  0  0  0  0  0  0  0  0
    0.9185   -1.7887   -0.4900 H   0  0  0  0  0  0  0  0  0  0  0  0
    3.2564   -2.4494   -3.1414 H   0  0  0  0  0  0  0  0  0  0  0  0
   -1.4230    2.2319   -0.0614 N   0  0  0  0  0  0  0  0  0  0  0  0
   -2.1681    3.4672   -0.1482 C   0  0  2  0  0  0  0  0  0  0  0  0
   -3.4351    3.3115    0.6824 C   0  0  0  0  0  0  0  0  0  0  0  0
   -3.9245    2.2188    0.9610 O   0  0  0  0  0  0  0  0  0  0  0  0
   -2.5029    3.8111   -1.5912 C   0  0  0  0  0  0  0  0  0  0  0  0
   -1.6488    1.4851   -0.7115 H   0  0  0  0  0  0  0  0  0  0  0  0
   -1.5373    4.2484    0.2897 H   0  0  0  0  0  0  0  0  0  0  0  0
   -3.1344    3.0396   -2.0468 H   0  0  0  0  0  0  0  0  0  0  0  0
   -3.0425    4.7616   -1.6576 H   0  0  0  0  0  0  0  0  0  0  0  0
   -1.5919    3.8933   -2.1938 H   0  0  0  0  0  0  0  0  0  0  0  0
   -3.9790    4.5374    1.0394 N   0  0  0  0  0  0  0  0  0  0  0  0
   -5.1893    4.6562    1.8184 C   0  0  0  0  0  0  0  0  0  0  0  0
   -3.4957    5.3927    0.7812 H   0  0  0  0  0  0  0  0  0  0  0  0
   -6.0540    4.7375    1.1434 H   0  0  0  0  0  0  0  0  0  0  0  0
   -5.3040    3.7668    2.4554 H   0  0  0  0  0  0  0  0  0  0  0  0
   -5.1319    5.5548    2.4503 H   0  0  0  0  0  0  0  0  0  0  0  0
  1  3  1  0  0  0  0
  1  7  1  0  0  0  0
  1  2  2  0  0  0  0
 34 35  1  0  0  0  0
 35 43  1  0  0  0  0
 35 36  2  0  0  0  0
  8  9  1  0  0  0  0
  9 17  1  0  0  0  0
  9 10  2  0  0  0  0
 18 19  1  0  0  0  0
 19 33  1  0  0  0  0
 19 20  2  0  0  0  0
 22 23  1  0  0  0  0
 23 24  2  0  0  0  0
 23 25  1  0  0  0  0
 34 37  1  0  0  0  0
  8 11  1  0  0  0  0
 43 44  1  0  0  0  0
 21 22  1  0  0  0  0
 18 21  1  0  0  0  0
 33 34  1  0  0  0  0
  7  8  1  0  0  0  0
 17 18  1  0  0  0  0
  3  4  1  0  0  0  0
  3  5  1  0  0  0  0
  3  6  1  0  0  0  0
 37 40  1  0  0  0  0
 37 41  1  0  0  0  0
 37 42  1  0  0  0  0
 11 14  1  0  0  0  0
 11 15  1  0  0  0  0
 11 16  1  0  0  0  0
 44 46  1  0  0  0  0
 44 47  1  0  0  0  0
 44 48  1  0  0  0  0
 22 30  1  0  0  0  0
 22 31  1  0  0  0  0
 21 28  1  0  0  0  0
 21 29  1  0  0  0  0
 34 39  1  0  0  0  0
  8 13  1  0  0  0  0
 18 27  1  0  0  0  0
 43 45  1  0  0  0  0
  7 12  1  0  0  0  0
 33 38  1  0  0  0  0
 17 26  1  0  0  0  0
 25 32  1  0  0  0  0
M  END
$$$$

  -OEChem-05262214473D

 48 47  0     1  0  0  0  0  0999 V2000
   -5.5827   -1.3473    1.4591 C   0  0  0  0  0  0  0  0  0  0  0  0
   -5.7053   -2.4696    0.9825 O   0  0  0  0  0  0  0  0  0  0  0  0
   -6.7879   -0.6277    1.9670 C   0  0  0  0  0  0  0  0  0  0  0  0
   -7.2718   -0.0164    1.1885 H   0  0  0  0  0  0  0  0  0  0  0  0
   -7.5699   -1.3171    2.3239 H   0  0  0  0  0  0  0  0  0  0  0  0
   -6.6057    0.0628    2.8060 H   0  0  0  0  0  0  0  0  0  0  0  0
   -4.4001   -0.6377    1.5884 N   0  0  0  0  0  0  0  0  0  0  0  0
   -3.1220   -1.1455    1.1644 C   0  0  2  0  0  0  0  0  0  0  0  0
   -2.2017    0.0428    0.9187 C   0  0  0  0  0  0  0  0  0  0  0  0
   -2.6171    1.1750    0.6807 O   0  0  0  0  0  0  0  0  0  0  0  0
   -3.2533   -1.9992   -0.0873 C   0  0  0  0  0  0  0  0  0  0  0  0
   -4.4370    0.2910    2.0047 H   0  0  0  0  0  0  0  0  0  0  0  0
   -2.7302   -1.7467    1.9921 H   0  0  0  0  0  0  0  0  0  0  0  0
   -3.6446   -1.4140   -0.9275 H   0  0  0  0  0  0  0  0  0  0  0  0
   -2.2844   -2.4081   -0.3922 H   0  0  0  0  0  0  0  0  0  0  0  0
   -3.9388   -2.8365    0.0822 H   0  0  0  0  0  0  0  0  0  0  0  0
   -0.8768   -0.3314    0.9568 N   0  0  0  0  0  0  0  0  0  0  0  0
    0.2067    0.6285    0.7375 C   0  0  2  0  0  0  0  0  0  0  0  0
   -0.4145    2.0161    0.8662 C   0  0  0  0  0  0  0  0  0  0  0  0
    0.1276    2.9276    1.4880 O   0  0  0  0  0  0  0  0  0  0  0  0
    0.8217    0.3914   -0.6499 C   0  0  0  0  0  0  0  0  0  0  0  0
    1.5549   -0.9441   -0.7739 C   0  0  0  0  0  0  0  0  0  0  0  0
    2.1229   -1.1497   -2.1560 C   0  0  0  0  0  0  0  0  0  0  0  0
    1.9052   -0.4016   -3.1005 O   0  0  0  0  0  0  0  0  0  0  0  0
    2.8826   -2.2686   -2.2529 O   0  0  0  0  0  0  0  0  0  0  0  0
   -0.6087   -1.2764    1.1771 H   0  0  0  0  0  0  0  0  0  0  0  0
    0.9660    0.4758    1.5114 H   0  0  0  0  0  0  0  0  0  0  0  0
    0.0290    0.4345   -1.4087 H   0  0  0  0  0  0  0  0  0  0  0  0
    1.5306    1.1942   -0.8916 H   0  0  0  0  0  0  0  0  0  0  0  0
    2.4011   -0.9666   -0.0764 H   0  0  0  0  0  0  0  0  0  0  0  0
    0.9185   -1.7887   -0.4900 H   0  0  0  0  0  0  0  0  0  0  0  0
    3.2564   -2.4494   -3.1414 H   0  0  0  0  0  0  0  0  0  0  0  0
   -1.6190    2.1211    0.1864 N   0  0  0  0  0  0  0  0  0  0  0  0
   -2.4058    3.3329    0.1518 C   0  0  2  0  0  0  0  0  0  0  0  0
   -3.4369    3.2562    1.2700 C   0  0  0  0  0  0  0  0  0  0  0  0
   -3.8095    2.1955    1.7673 O   0  0  0  0  0  0  0  0  0  0  0  0
   -3.0810    3.5159   -1.1986 C   0  0  0  0  0  0  0  0  0  0  0  0
   -1.9650    1.3065   -0.3116 H   0  0  0  0  0  0  0  0  0  0  0  0
   -1.7173    4.1627    0.3454 H   0  0  0  0  0  0  0  0  0  0  0  0
   -3.7747    2.6939   -1.4100 H   0  0  0  0  0  0  0  0  0  0  0  0
   -3.6535    4.4486   -1.2327 H   0  0  0  0  0  0  0  0  0  0  0  0
   -2.3398    3.5410   -2.0047 H   0  0  0  0  0  0  0  0  0  0  0  0
   -3.9240    4.5084    1.6176 N   0  0  0  0  0  0  0  0  0  0  0  0
   -4.9216    4.6995    2.6444 C   0  0  0  0  0  0  0  0  0  0  0  0
   -3.5444    5.3352    1.1659 H   0  0  0  0  0  0  0  0  0  0  0  0
   -5.9226    4.6995    2.1883 H   0  0  0  0  0  0  0  0  0  0  0  0
   -4.8531    3.8830    3.3784 H   0  0  0  0  0  0  0  0  0  0  0  0
   -4.7487    5.6616    3.1489 H   0  0  0  0  0  0  0  0  0  0  0  0
  1  3  1  0  0  0  0
  1  7  1  0  0  0  0
  1  2  2  0  0  0  0
 34 35  1  0  0  0  0
 35 43  1  0  0  0  0
 35 36  2  0  0  0  0
  8  9  1  0  0  0  0
  9 17  1  0  0  0  0
  9 10  2  0  0  0  0
 18 19  1  0  0  0  0
 19 33  1  0  0  0  0
 19 20  2  0  0  0  0
 22 23  1  0  0  0  0
 23 24  2  0  0  0  0
 23 25  1  0  0  0  0
 34 37  1  0  0  0  0
  8 11  1  0  0  0  0
 43 44  1  0  0  0  0
 21 22  1  0  0  0  0
 18 21  1  0  0  0  0
 33 34  1  0  0  0  0
  7  8  1  0  0  0  0
 17 18  1  0  0  0  0
  3  4  1  0  0  0  0
  3  5  1  0  0  0  0
  3  6  1  0  0  0  0
 37 40  1  0  0  0  0
 37 41  1  0  0  0  0
 37 42  1  0  0  0  0
 11 14  1  0  0  0  0
 11 15  1  0  0  0  0
 11 16  1  0  0  0  0
 44 46  1  0  0  0  0
 44 47  1  0  0  0  0
 44 48  1  0  0  0  0
 22 30  1  0  0  0  0
 22 31  1  0  0  0  0
 21 28  1  0  0  0  0
 21 29  1  0  0  0  0
 34 39  1  0  0  0  0
  8 13  1  0  0  0  0
 18 27  1  0  0  0  0
 43 45  1  0  0  0  0
  7 12  1  0  0  0  0
 33 38  1  0  0  0  0
 17 26  1  0  0  0  0
 25 32  1  0  0  0  0
M  END
$$$$

  -OEChem-05262214473D

 48 47  0     1  0  0  0  0  0999 V2000
   -5.5827   -1.3473    1.4591 C   0  0  0  0  0  0  0  0  0  0  0  0
   -5.7053   -2.4696    0.9825 O   0  0  0  0  0  0  0  0  0  0  0  0
   -6.7879   -0.6277    1.9670 C   0  0  0  0  0  0  0  0  0  0  0  0
   -7.2718   -0.0164    1.1885 H   0  0  0  0  0  0  0  0  0  0  0  0
   -7.5699   -1.3171    2.3239 H   0  0  0  0  0  0  0  0  0  0  0  0
   -6.6057    0.0628    2.8060 H   0  0  0  0  0  0  0  0  0  0  0  0
   -4.4001   -0.6377    1.5884 N   0  0  0  0  0  0  0  0  0  0  0  0
   -3.1220   -1.1455    1.1644 C   0  0  2  0  0  0  0  0  0  0  0  0
   -2.2017    0.0428    0.9187 C   0  0  0  0  0  0  0  0  0  0  0  0
   -2.6171    1.1750    0.6807 O   0  0  0  0  0  0  0  0  0  0  0  0
   -3.2533   -1.9992   -0.0873 C   0  0  0  0  0  0  0  0  0  0  0  0
   -4.4370    0.2910    2.0047 H   0  0  0  0  0  0  0  0  0  0  0  0
   -2.7302   -1.7467    1.9921 H   0  0  0  0  0  0  0  0  0  0  0  0
   -3.6446   -1.4140   -0.9275 H   0  0  0  0  0  0  0  0  0  0  0  0
   -2.2844   -2.4081   -0.3922 H   0  0  0  0  0  0  0  0  0  0  0  0
   -3.9388   -2.8365    0.0822 H   0  0  0  0  0  0  0  0  0  0  0  0
   -0.8768   -0.3314    0.9568 N   0  0  0  0  0  0  0  0  0  0  0  0
    0.2067    0.6285    0.7375 C   0  0  2  0  0  0  0  0  0  0  0  0
   -0.4145    2.0161    0.8662 C   0  0  0  0  0  0  0  0  0  0  0  0
    0.2264    2.9944    1.2450 O   0  0  0  0  0  0  0  0  0  0  0  0
    0.8217    0.3914   -0.6499 C   0  0  0  0  0  0  0  0  0  0  0  0
    1.5549   -0.9441   -0.7739 C   0  0  0  0  0  0  0  0  0  0  0  0
    2.1229   -1.1497   -2.1560 C   0  0  0  0  0  0  0  0  0  0  0  0
    1.9052   -0.4016   -3.1005 O   0  0  0  0  0  0  0  0  0  0  0  0
    2.8826   -2.2686   -2.2529 O   0  0  0  0  0  0  0  0  0  0  0  0
   -0.6087   -1.2764    1.1771 H   0  0  0  0  0  0  0  0  0  0  0  0
    0.9660    0.4758    1.5114 H   0  0  0  0  0  0  0  0  0  0  0  0
    0.0290    0.4345   -1.4087 H   0  0  0  0  0  0  0  0  0  0  0  0
    1.5306    1.1942   -0.8916 H   0  0  0  0  0  0  0  0  0  0  0  0
    2.4011   -0.9666   -0.0764 H   0  0  0  0  0  0  0  0  0  0  0  0
    0.9185   -1.7887   -0.4900 H   0  0  0  0  0  0  0  0  0  0  0  0
    3.2564   -2.4494   -3.1414 H   0  0  0  0  0  0  0  0  0  0  0  0
   -1.7476    2.0360    0.4835 N   0  0  0  0  0  0  0  0  0  0  0  0
   -2.5619    3.2296    0.5117 C   0  0  2  0  0  0  0  0  0  0  0  0
   -3.2992    3.2646    1.8438 C   0  0  0  0  0  0  0  0  0  0  0  0
   -3.5082    2.2605    2.5214 O   0  0  0  0  0  0  0  0  0  0  0  0
   -3.5404    3.2595   -0.6521 C   0  0  0  0  0  0  0  0  0  0  0  0
   -2.1723    1.1691    0.1680 H   0  0  0  0  0  0  0  0  0  0  0  0
   -1.8763    4.0818    0.4506 H   0  0  0  0  0  0  0  0  0  0  0  0
   -4.2356    2.4131   -0.6079 H   0  0  0  0  0  0  0  0  0  0  0  0
   -4.1369    4.1777   -0.6455 H   0  0  0  0  0  0  0  0  0  0  0  0
   -3.0100    3.2042   -1.6088 H   0  0  0  0  0  0  0  0  0  0  0  0
   -3.7341    4.5426    2.1662 N   0  0  0  0  0  0  0  0  0  0  0  0
   -4.4694    4.8342    3.3746 C   0  0  0  0  0  0  0  0  0  0  0  0
   -3.4995    5.3192    1.5550 H   0  0  0  0  0  0  0  0  0  0  0  0
   -5.5488    4.7757    3.1708 H   0  0  0  0  0  0  0  0  0  0  0  0
   -4.2029    4.1024    4.1515 H   0  0  0  0  0  0  0  0  0  0  0  0
   -4.2164    5.8467    3.7223 H   0  0  0  0  0  0  0  0  0  0  0  0
  1  3  1  0  0  0  0
  1  7  1  0  0  0  0
  1  2  2  0  0  0  0
 34 35  1  0  0  0  0
 35 43  1  0  0  0  0
 35 36  2  0  0  0  0
  8  9  1  0  0  0  0
  9 17  1  0  0  0  0
  9 10  2  0  0  0  0
 18 19  1  0  0  0  0
 19 33  1  0  0  0  0
 19 20  2  0  0  0  0
 22 23  1  0  0  0  0
 23 24  2  0  0  0  0
 23 25  1  0  0  0  0
 34 37  1  0  0  0  0
  8 11  1  0  0  0  0
 43 44  1  0  0  0  0
 21 22  1  0  0  0  0
 18 21  1  0  0  0  0
 33 34  1  0  0  0  0
  7  8  1  0  0  0  0
 17 18  1  0  0  0  0
  3  4  1  0  0  0  0
  3  5  1  0  0  0  0
  3  6  1  0  0  0  0
 37 40  1  0  0  0  0
 37 41  1  0  0  0  0
 37 42  1  0  0  0  0
 11 14  1  0  0  0  0
 11 15  1  0  0  0  0
 11 16  1  0  0  0  0
 44 46  1  0  0  0  0
 44 47  1  0  0  0  0
 44 48  1  0  0  0  0
 22 30  1  0  0  0  0
 22 31  1  0  0  0  0
 21 28  1  0  0  0  0
 21 29  1  0  0  0  0
 34 39  1  0  0  0  0
  8 13  1  0  0  0  0
 18 27  1  0  0  0  0
 43 45  1  0  0  0  0
  7 12  1  0  0  0  0
 33 38  1  0  0  0  0
 17 26  1  0  0  0  0
 25 32  1  0  0  0  0
M  END
$$$$

  -OEChem-05262214473D

 48 47  0     1  0  0  0  0  0999 V2000
   -5.5827   -1.3473    1.4591 C   0  0  0  0  0  0  0  0  0  0  0  0
   -5.7053   -2.4696    0.9825 O   0  0  0  0  0  0  0  0  0  0  0  0
   -6.7879   -0.6277    1.9670 C   0  0  0  0  0  0  0  0  0  0  0  0
   -7.2718   -0.0164    1.1885 H   0  0  0  0  0  0  0  0  0  0  0  0
   -7.5699   -1.3171    2.3239 H   0  0  0  0  0  0  0  0  0  0  0  0
   -6.6057    0.0628    2.8060 H   0  0  0  0  0  0  0  0  0  0  0  0
   -4.4001   -0.6377    1.5884 N   0  0  0  0  0  0  0  0  0  0  0  0
   -3.1220   -1.1455    1.1644 C   0  0  2  0  0  0  0  0  0  0  0  0
   -2.2017    0.0428    0.9187 C   0  0  0  0  0  0  0  0  0  0  0  0
   -2.6171    1.1750    0.6807 O   0  0  0  0  0  0  0  0  0  0  0  0
   -3.2533   -1.9992   -0.0873 C   0  0  0  0  0  0  0  0  0  0  0  0
   -4.4370    0.2910    2.0047 H   0  0  0  0  0  0  0  0  0  0  0  0
   -2.7302   -1.7467    1.9921 H   0  0  0  0  0  0  0  0  0  0  0  0
   -3.6446   -1.4140   -0.9275 H   0  0  0  0  0  0  0  0  0  0  0  0
   -2.2844   -2.4081   -0.3922 H   0  0  0  0  0  0  0  0  0  0  0  0
   -3.9388   -2.8365    0.0822 H   0  0  0  0  0  0  0  0  0  0  0  0
   -0.8768   -0.3314    0.9568 N   0  0  0  0  0  0  0  0  0  0  0  0
    0.2067    0.6285    0.7375 C   0  0  2  0  0  0  0  0  0  0  0  0
   -0.4145    2.0161    0.8662 C   0  0  0  0  0  0  0  0  0  0  0  0
    0.2632    3.0354    0.9801 O   0  0  0  0  0  0  0  0  0  0  0  0
    0.8217    0.3914   -0.6499 C   0  0  0  0  0  0  0  0  0  0  0  0
    1.5549   -0.9441   -0.7739 C   0  0  0  0  0  0  0  0  0  0  0  0
    2.1229   -1.1497   -2.1560 C   0  0  0  0  0  0  0  0  0  0  0  0
    1.9052   -0.4016   -3.1005 O   0  0  0  0  0  0  0  0  0  0  0  0
    2.8826   -2.2686   -2.2529 O   0  0  0  0  0  0  0  0  0  0  0  0
   -0.6087   -1.2764    1.1771 H   0  0  0  0  0  0  0  0  0  0  0  0
    0.9660    0.4758    1.5114 H   0  0  0  0  0  0  0  0  0  0  0  0
    0.0290    0.4345   -1.4087 H   0  0  0  0  0  0  0  0  0  0  0  0
    1.5306    1.1942   -0.8916 H   0  0  0  0  0  0  0  0  0  0  0  0
    2.4011   -0.9666   -0.0764 H   0  0  0  0  0  0  0  0  0  0  0  0
    0.9185   -1.7887   -0.4900 H   0  0  0  0  0  0  0  0  0  0  0  0
    3.2564   -2.4494   -3.1414 H   0  0  0  0  0  0  0  0  0  0  0  0
   -1.8000    1.9823    0.8097 N   0  0  0  0  0  0  0  0  0  0  0  0
   -2.6257    3.1644    0.9069 C   0  0  2  0  0  0  0  0  0  0  0  0
   -3.0312    3.3363    2.3648 C   0  0  0  0  0  0  0  0  0  0  0  0
   -3.0410    2.4093    3.1721 O   0  0  0  0  0  0  0  0  0  0  0  0
   -3.8500    3.0593    0.0109 C   0  0  0  0  0  0  0  0  0  0  0  0
   -2.2567    1.0825    0.6944 H   0  0  0  0  0  0  0  0  0  0  0  0
   -2.0032    4.0112    0.5981 H   0  0  0  0  0  0  0  0  0  0  0  0
   -4.4859    2.2164    0.3051 H   0  0  0  0  0  0  0  0  0  0  0  0
   -4.4596    3.9674    0.0640 H   0  0  0  0  0  0  0  0  0  0  0  0
   -3.5568    2.9060   -1.0332 H   0  0  0  0  0  0  0  0  0  0  0  0
   -3.4223    4.6375    2.6478 N   0  0  0  0  0  0  0  0  0  0  0  0
   -3.8638    5.0511    3.9593 C   0  0  0  0  0  0  0  0  0  0  0  0
   -3.3643    5.3457    1.9220 H   0  0  0  0  0  0  0  0  0  0  0  0
   -4.9582    4.9610    4.0237 H   0  0  0  0  0  0  0  0  0  0  0  0
   -3.3977    4.4100    4.7221 H   0  0  0  0  0  0  0  0  0  0  0  0
   -3.5714    6.0975    4.1314 H   0  0  0  0  0  0  0  0  0  0  0  0
  1  3  1  0  0  0  0
  1  7  1  0  0  0  0
  1  2  2  0  0  0  0
 34 35  1  0  0  0  0
 35 43  1  0  0  0  0
 35 36  2  0  0  0  0
  8  9  1  0  0  0  0
  9 17  1  0  0  0  0
  9 10  2  0  0  0  0
 18 19  1  0  0  0  0
 19 33  1  0  0  0  0
 19 20  2  0  0  0  0
 22 23  1  0  0  0  0
 23 24  2  0  0  0  0
 23 25  1  0  0  0  0
 34 37  1  0  0  0  0
  8 11  1  0  0  0  0
 43 44  1  0  0  0  0
 21 22  1  0  0  0  0
 18 21  1  0  0  0  0
 33 34  1  0  0  0  0
  7  8  1  0  0  0  0
 17 18  1  0  0  0  0
  3  4  1  0  0  0  0
  3  5  1  0  0  0  0
  3  6  1  0  0  0  0
 37 40  1  0  0  0  0
 37 41  1  0  0  0  0
 37 42  1  0  0  0  0
 11 14  1  0  0  0  0
 11 15  1  0  0  0  0
 11 16  1  0  0  0  0
 44 46  1  0  0  0  0
 44 47  1  0  0  0  0
 44 48  1  0  0  0  0
 22 30  1  0  0  0  0
 22 31  1  0  0  0  0
 21 28  1  0  0  0  0
 21 29  1  0  0  0  0
 34 39  1  0  0  0  0
  8 13  1  0  0  0  0
 18 27  1  0  0  0  0
 43 45  1  0  0  0  0
  7 12  1  0  0  0  0
 33 38  1  0  0  0  0
 17 26  1  0  0  0  0
 25 32  1  0  0  0  0
M  END
$$$$

  -OEChem-05262214473D

 48 47  0     1  0  0  0  0  0999 V2000
   -5.5827   -1.3473    1.4591 C   0  0  0  0  0  0  0  0  0  0  0  0
   -5.7053   -2.4696    0.9825 O   0  0  0  0  0  0  0  0  0  0  0  0
   -6.7879   -0.6277    1.9670 C   0  0  0  0  0  0  0  0  0  0  0  0
   -7.2718   -0.0164    1.1885 H   0  0  0  0  0  0  0  0  0  0  0  0
   -7.5699   -1.3171    2.3239 H   0  0  0  0  0  0  0  0  0  0  0  0
   -6.6057    0.0628    2.8060 H   0  0  0  0  0  0  0  0  0  0  0  0
   -4.4001   -0.6377    1.5884 N   0  0  0  0  0  0  0  0  0  0  0  0
   -3.1220   -1.1455    1.1644 C   0  0  2  0  0  0  0  0  0  0  0  0
   -2.2017    0.0428    0.9187 C   0  0  0  0  0  0  0  0  0  0  0  0
   -2.6171    1.1750    0.6807 O   0  0  0  0  0  0  0  0  0  0  0  0
   -3.2533   -1.9992   -0.0873 C   0  0  0  0  0  0  0  0  0  0  0  0
   -4.4370    0.2910    2.0047 H   0  0  0  0  0  0  0  0  0  0  0  0
   -2.7302   -1.7467    1.9921 H   0  0  0  0  0  0  0  0  0  0  0  0
   -3.6446   -1.4140   -0.9275 H   0  0  0  0  0  0  0  0  0  0  0  0
   -2.2844   -2.4081   -0.3922 H   0  0  0  0  0  0  0  0  0  0  0  0
   -3.9388   -2.8365    0.0822 H   0  0  0  0  0  0  0  0  0  0  0  0
   -0.8768   -0.3314    0.9568 N   0  0  0  0  0  0  0  0  0  0  0  0
    0.2067    0.6285    0.7375 C   0  0  2  0  0  0  0  0  0  0  0  0
   -0.4145    2.0161    0.8662 C   0  0  0  0  0  0  0  0  0  0  0  0
    0.2355    3.0480    0.7111 O   0  0  0  0  0  0  0  0  0  0  0  0
    0.8217    0.3914   -0.6499 C   0  0  0  0  0  0  0  0  0  0  0  0
    1.5549   -0.9441   -0.7739 C   0  0  0  0  0  0  0  0  0  0  0  0
    2.1229   -1.1497   -2.1560 C   0  0  0  0  0  0  0  0  0  0  0  0
    1.9052   -0.4016   -3.1005 O   0  0  0  0  0  0  0  0  0  0  0  0
    2.8826   -2.2686   -2.2529 O   0  0  0  0  0  0  0  0  0  0  0  0
   -0.6087   -1.2764    1.1771 H   0  0  0  0  0  0  0  0  0  0  0  0
    0.9660    0.4758    1.5114 H   0  0  0  0  0  0  0  0  0  0  0  0
    0.0290    0.4345   -1.4087 H   0  0  0  0  0  0  0  0  0  0  0  0
    1.5306    1.1942   -0.8916 H   0  0  0  0  0  0  0  0  0  0  0  0
    2.4011   -0.9666   -0.0764 H   0  0  0  0  0  0  0  0  0  0  0  0
    0.9185   -1.7887   -0.4900 H   0  0  0  0  0  0  0  0  0  0  0  0
    3.2564   -2.4494   -3.1414 H   0  0  0  0  0  0  0  0  0  0  0  0
   -1.7727    1.9636    1.1429 N   0  0  0  0  0  0  0  0  0  0  0  0
   -2.5929    3.1416    1.3106 C   0  0  2  0  0  0  0  0  0  0  0  0
   -2.6514    3.4662    2.7974 C   0  0  0  0  0  0  0  0  0  0  0  0
   -2.4398    2.6318    3.6750 O   0  0  0  0  0  0  0  0  0  0  0  0
   -3.9886    2.9292    0.7453 C   0  0  0  0  0  0  0  0  0  0  0  0
   -2.2124    1.0525    1.2319 H   0  0  0  0  0  0  0  0  0  0  0  0
   -2.0896    3.9559    0.7779 H   0  0  0  0  0  0  0  0  0  0  0  0
   -4.5085    2.1171    1.2666 H   0  0  0  0  0  0  0  0  0  0  0  0
   -4.5997    3.8320    0.8475 H   0  0  0  0  0  0  0  0  0  0  0  0
   -3.9430    2.6666   -0.3171 H   0  0  0  0  0  0  0  0  0  0  0  0
   -3.0098    4.7867    3.0296 N   0  0  0  0  0  0  0  0  0  0  0  0
   -3.1458    5.3355    4.3587 C   0  0  0  0  0  0  0  0  0  0  0  0
   -3.1479    5.4129    2.2419 H   0  0  0  0  0  0  0  0  0  0  0  0
   -4.1909    5.2427    4.6891 H   0  0  0  0  0  0  0  0  0  0  0  0
   -2.4922    4.7848    5.0512 H   0  0  0  0  0  0  0  0  0  0  0  0
   -2.8575    6.3970    4.3482 H   0  0  0  0  0  0  0  0  0  0  0  0
  1  3  1  0  0  0  0
  1  7  1  0  0  0  0
  1  2  2  0  0  0  0
 34 35  1  0  0  0  0
 35 43  1  0  0  0  0
 35 36  2  0  0  0  0
  8  9  1  0  0  0  0
  9 17  1  0  0  0  0
  9 10  2  0  0  0  0
 18 19  1  0  0  0  0
 19 33  1  0  0  0  0
 19 20  2  0  0  0  0
 22 23  1  0  0  0  0
 23 24  2  0  0  0  0
 23 25  1  0  0  0  0
 34 37  1  0  0  0  0
  8 11  1  0  0  0  0
 43 44  1  0  0  0  0
 21 22  1  0  0  0  0
 18 21  1  0  0  0  0
 33 34  1  0  0  0  0
  7  8  1  0  0  0  0
 17 18  1  0  0  0  0
  3  4  1  0  0  0  0
  3  5  1  0  0  0  0
  3  6  1  0  0  0  0
 37 40  1  0  0  0  0
 37 41  1  0  0  0  0
 37 42  1  0  0  0  0
 11 14  1  0  0  0  0
 11 15  1  0  0  0  0
 11 16  1  0  0  0  0
 44 46  1  0  0  0  0
 44 47  1  0  0  0  0
 44 48  1  0  0  0  0
 22 30  1  0  0  0  0
 22 31  1  0  0  0  0
 21 28  1  0  0  0  0
 21 29  1  0  0  0  0
 34 39  1  0  0  0  0
  8 13  1  0  0  0  0
 18 27  1  0  0  0  0
 43 45  1  0  0  0  0
  7 12  1  0  0  0  0
 33 38  1  0  0  0  0
 17 26  1  0  0  0  0
 25 32  1  0  0  0  0
M  END
$$$$

  -OEChem-05262214473D

 48 47  0     1  0  0  0  0  0999 V2000
   -5.5827   -1.3473    1.4591 C   0  0  0  0  0  0  0  0  0  0  0  0
   -5.7053   -2.4696    0.9825 O   0  0  0  0  0  0  0  0  0  0  0  0
   -6.7879   -0.6277    1.9670 C   0  0  0  0  0  0  0  0  0  0  0  0
   -7.2718   -0.0164    1.1885 H   0  0  0  0  0  0  0  0  0  0  0  0
   -7.5699   -1.3171    2.3239 H   0  0  0  0  0  0  0  0  0  0  0  0
   -6.6057    0.0628    2.8060 H   0  0  0  0  0  0  0  0  0  0  0  0
   -4.4001   -0.6377    1.5884 N   0  0  0  0  0  0  0  0  0  0  0  0
   -3.1220   -1.1455    1.1644 C   0  0  2  0  0  0  0  0  0  0  0  0
   -2.2017    0.0428    0.9187 C   0  0  0  0  0  0  0  0  0  0  0  0
   -2.6171    1.1750    0.6807 O   0  0  0  0  0  0  0  0  0  0  0  0
   -3.2533   -1.9992   -0.0873 C   0  0  0  0  0  0  0  0  0  0  0  0
   -4.4370    0.2910    2.0047 H   0  0  0  0  0  0  0  0  0  0  0  0
   -2.7302   -1.7467    1.9921 H   0  0  0  0  0  0  0  0  0  0  0  0
   -3.6446   -1.4140   -0.9275 H   0  0  0  0  0  0  0  0  0  0  0  0
   -2.2844   -2.4081   -0.3922 H   0  0  0  0  0  0  0  0  0  0  0  0
   -3.9388   -2.8365    0.0822 H   0  0  0  0  0  0  0  0  0  0  0  0
   -0.8768   -0.3314    0.9568 N   0  0  0  0  0  0  0  0  0  0  0  0
    0.2067    0.6285    0.7375 C   0  0  2  0  0  0  0  0  0  0  0  0
   -0.4145    2.0161    0.8662 C   0  0  0  0  0  0  0  0  0  0  0  0
    0.1451    3.0312    0.4566 O   0  0  0  0  0  0  0  0  0  0  0  0
    0.8217    0.3914   -0.6499 C   0  0  0  0  0  0  0  0  0  0  0  0
    1.5549   -0.9441   -0.7739 C   0  0  0  0  0  0  0  0  0  0  0  0
    2.1229   -1.1497   -2.1560 C   0  0  0  0  0  0  0  0  0  0  0  0
    1.9052   -0.4016   -3.1005 O   0  0  0  0  0  0  0  0  0  0  0  0
    2.8826   -2.2686   -2.2529 O   0  0  0  0  0  0  0  0  0  0  0  0
   -0.6087   -1.2764    1.1771 H   0  0  0  0  0  0  0  0  0  0  0  0
    0.9660    0.4758    1.5114 H   0  0  0  0  0  0  0  0  0  0  0  0
    0.0290    0.4345   -1.4087 H   0  0  0  0  0  0  0  0  0  0  0  0
    1.5306    1.1942   -0.8916 H   0  0  0  0  0  0  0  0  0  0  0  0
    2.4011   -0.9666   -0.0764 H   0  0  0  0  0  0  0  0  0  0  0  0
    0.9185   -1.7887   -0.4900 H   0  0  0  0  0  0  0  0  0  0  0  0
    3.2564   -2.4494   -3.1414 H   0  0  0  0  0  0  0  0  0  0  0  0
   -1.6675    1.9812    1.4602 N   0  0  0  0  0  0  0  0  0  0  0  0
   -2.4657    3.1629    1.6952 C   0  0  2  0  0  0  0  0  0  0  0  0
   -2.1854    3.6456    3.1122 C   0  0  0  0  0  0  0  0  0  0  0  0
   -1.7456    2.9129    3.9958 O   0  0  0  0  0  0  0  0  0  0  0  0
   -3.9468    2.8778    1.5010 C   0  0  0  0  0  0  0  0  0  0  0  0
   -2.0424    1.0811    1.7439 H   0  0  0  0  0  0  0  0  0  0  0  0
   -2.1295    3.9195    0.9778 H   0  0  0  0  0  0  0  0  0  0  0  0
   -4.3019    2.1220    2.2111 H   0  0  0  0  0  0  0  0  0  0  0  0
   -4.5477    3.7807    1.6515 H   0  0  0  0  0  0  0  0  0  0  0  0
   -4.1423    2.5025    0.4907 H   0  0  0  0  0  0  0  0  0  0  0  0
   -2.5248    4.9801    3.2856 N   0  0  0  0  0  0  0  0  0  0  0  0
   -2.3646    5.6679    4.5455 C   0  0  0  0  0  0  0  0  0  0  0  0
   -2.8650    5.5163    2.4928 H   0  0  0  0  0  0  0  0  0  0  0  0
   -3.2994    5.6018    5.1214 H   0  0  0  0  0  0  0  0  0  0  0  0
   -1.5484    5.2014    5.1166 H   0  0  0  0  0  0  0  0  0  0  0  0
   -2.1235    6.7247    4.3581 H   0  0  0  0  0  0  0  0  0  0  0  0
  1  3  1  0  0  0  0
  1  7  1  0  0  0  0
  1  2  2  0  0  0  0
 34 35  1  0  0  0  0
 35 43  1  0  0  0  0
 35 36  2  0  0  0  0
  8  9  1  0  0  0  0
  9 17  1  0  0  0  0
  9 10  2  0  0  0  0
 18 19  1  0  0  0  0
 19 33  1  0  0  0  0
 19 20  2  0  0  0  0
 22 23  1  0  0  0  0
 23 24  2  0  0  0  0
 23 25  1  0  0  0  0
 34 37  1  0  0  0  0
  8 11  1  0  0  0  0
 43 44  1  0  0  0  0
 21 22  1  0  0  0  0
 18 21  1  0  0  0  0
 33 34  1  0  0  0  0
  7  8  1  0  0  0  0
 17 18  1  0  0  0  0
  3  4  1  0  0  0  0
  3  5  1  0  0  0  0
  3  6  1  0  0  0  0
 37 40  1  0  0  0  0
 37 41  1  0  0  0  0
 37 42  1  0  0  0  0
 11 14  1  0  0  0  0
 11 15  1  0  0  0  0
 11 16  1  0  0  0  0
 44 46  1  0  0  0  0
 44 47  1  0  0  0  0
 44 48  1  0  0  0  0
 22 30  1  0  0  0  0
 22 31  1  0  0  0  0
 21 28  1  0  0  0  0
 21 29  1  0  0  0  0
 34 39  1  0  0  0  0
  8 13  1  0  0  0  0
 18 27  1  0  0  0  0
 43 45  1  0  0  0  0
  7 12  1  0  0  0  0
 33 38  1  0  0  0  0
 17 26  1  0  0  0  0
 25 32  1  0  0  0  0
M  END
$$$$

  -OEChem-05262214473D

 48 47  0     1  0  0  0  0  0999 V2000
   -5.5827   -1.3473    1.4591 C   0  0  0  0  0  0  0  0  0  0  0  0
   -5.7053   -2.4696    0.9825 O   0  0  0  0  0  0  0  0  0  0  0  0
   -6.7879   -0.6277    1.9670 C   0  0  0  0  0  0  0  0  0  0  0  0
   -7.2718   -0.0164    1.1885 H   0  0  0  0  0  0  0  0  0  0  0  0
   -7.5699   -1.3171    2.3239 H   0  0  0  0  0  0  0  0  0  0  0  0
   -6.6057    0.0628    2.8060 H   0  0  0  0  0  0  0  0  0  0  0  0
   -4.4001   -0.6377    1.5884 N   0  0  0  0  0  0  0  0  0  0  0  0
   -3.1220   -1.1455    1.1644 C   0  0  2  0  0  0  0  0  0  0  0  0
   -2.2017    0.0428    0.9187 C   0  0  0  0  0  0  0  0  0  0  0  0
   -2.6171    1.1750    0.6807 O   0  0  0  0  0  0  0  0  0  0  0  0
   -3.2533   -1.9992   -0.0873 C   0  0  0  0  0  0  0  0  0  0  0  0
   -4.4370    0.2910    2.0047 H   0  0  0  0  0  0  0  0  0  0  0  0
   -2.7302   -1.7467    1.9921 H   0  0  0  0  0  0  0  0  0  0  0  0
   -3.6446   -1.4140   -0.9275 H   0  0  0  0  0  0  0  0  0  0  0  0
   -2.2844   -2.4081   -0.3922 H   0  0  0  0  0  0  0  0  0  0  0  0
   -3.9388   -2.8365    0.0822 H   0  0  0  0  0  0  0  0  0  0  0  0
   -0.8768   -0.3314    0.9568 N   0  0  0  0  0  0  0  0  0  0  0  0
    0.2067    0.6285    0.7375 C   0  0  2  0  0  0  0  0  0  0  0  0
   -0.4145    2.0161    0.8662 C   0  0  0  0  0  0  0  0  0  0  0  0
   -0.0017    2.9861    0.2337 O   0  0  0  0  0  0  0  0  0  0  0  0
    0.8217    0.3914   -0.6499 C   0  0  0  0  0  0  0  0  0  0  0  0
    1.5549   -0.9441   -0.7739 C   0  0  0  0  0  0  0  0  0  0  0  0
    2.1229   -1.1497   -2.1560 C   0  0  0  0  0  0  0  0  0  0  0  0
    1.9052   -0.4016   -3.1005 O   0  0  0  0  0  0  0  0  0  0  0  0
    2.8826   -2.2686   -2.2529 O   0  0  0  0  0  0  0  0  0  0  0  0
   -0.6087   -1.2764    1.1771 H   0  0  0  0  0  0  0  0  0  0  0  0
    0.9660    0.4758    1.5114 H   0  0  0  0  0  0  0  0  0  0  0  0
    0.0290    0.4345   -1.4087 H   0  0  0  0  0  0  0  0  0  0  0  0
    1.5306    1.1942   -0.8916 H   0  0  0  0  0  0  0  0  0  0  0  0
    2.4011   -0.9666   -0.0764 H   0  0  0  0  0  0  0  0  0  0  0  0
    0.9185   -1.7887   -0.4900 H   0  0  0  0  0  0  0  0  0  0  0  0
    3.2564   -2.4494   -3.1414 H   0  0  0  0  0  0  0  0  0  0  0  0
   -1.4916    2.0341    1.7400 N   0  0  0  0  0  0  0  0  0  0  0  0
   -2.2527    3.2268    2.0345 C   0  0  2  0  0  0  0  0  0  0  0  0
   -1.6652    3.8623    3.2876 C   0  0  0  0  0  0  0  0  0  0  0  0
   -1.0057    3.2333    4.1126 O   0  0  0  0  0  0  0  0  0  0  0  0
   -3.7274    2.9087    2.2266 C   0  0  0  0  0  0  0  0  0  0  0  0
   -1.7584    1.1664    2.1954 H   0  0  0  0  0  0  0  0  0  0  0  0
   -2.1202    3.9045    1.1841 H   0  0  0  0  0  0  0  0  0  0  0  0
   -3.8800    2.2308    3.0743 H   0  0  0  0  0  0  0  0  0  0  0  0
   -4.3071    3.8170    2.4213 H   0  0  0  0  0  0  0  0  0  0  0  0
   -4.1410    2.4247    1.3353 H   0  0  0  0  0  0  0  0  0  0  0  0
   -2.0003    5.2045    3.3984 N   0  0  0  0  0  0  0  0  0  0  0  0
   -1.5732    6.0258    4.5070 C   0  0  0  0  0  0  0  0  0  0  0  0
   -2.5350    5.6488    2.6578 H   0  0  0  0  0  0  0  0  0  0  0  0
   -2.3443    6.0136    5.2914 H   0  0  0  0  0  0  0  0  0  0  0  0
   -0.6304    5.6312    4.9137 H   0  0  0  0  0  0  0  0  0  0  0  0
   -1.4193    7.0583    4.1603 H   0  0  0  0  0  0  0  0  0  0  0  0
  1  3  1  0  0  0  0
  1  7  1  0  0  0  0
  1  2  2  0  0  0  0
 34 35  1  0  0  0  0
 35 43  1  0  0  0  0
 35 36  2  0  0  0  0
  8  9  1  0  0  0  0
  9 17  1  0  0  0  0
  9 10  2  0  0  0  0
 18 19  1  0  0  0  0
 19 33  1  0  0  0  0
 19 20  2  0  0  0  0
 22 23  1  0  0  0  0
 23 24  2  0  0  0  0
 23 25  1  0  0  0  0
 34 37  1  0  0  0  0
  8 11  1  0  0  0  0
 43 44  1  0  0  0  0
 21 22  1  0  0  0  0
 18 21  1  0  0  0  0
 33 34  1  0  0  0  0
  7  8  1  0  0  0  0
 17 18  1  0  0  0  0
  3  4  1  0  0  0  0
  3  5  1  0  0  0  0
  3  6  1  0  0  0  0
 37 40  1  0  0  0  0
 37 41  1  0  0  0  0
 37 42  1  0  0  0  0
 11 14  1  0  0  0  0
 11 15  1  0  0  0  0
 11 16  1  0  0  0  0
 44 46  1  0  0  0  0
 44 47  1  0  0  0  0
 44 48  1  0  0  0  0
 22 30  1  0  0  0  0
 22 31  1  0  0  0  0
 21 28  1  0  0  0  0
 21 29  1  0  0  0  0
 34 39  1  0  0  0  0
  8 13  1  0  0  0  0
 18 27  1  0  0  0  0
 43 45  1  0  0  0  0
  7 12  1  0  0  0  0
 33 38  1  0  0  0  0
 17 26  1  0  0  0  0
 25 32  1  0  0  0  0
M  END
$$$$

  -OEChem-05262214473D

 48 47  0     1  0  0  0  0  0999 V2000
   -5.5827   -1.3473    1.4591 C   0  0  0  0  0  0  0  0  0  0  0  0
   -5.7053   -2.4696    0.9825 O   0  0  0  0  0  0  0  0  0  0  0  0
   -6.7879   -0.6277    1.9670 C   0  0  0  0  0  0  0  0  0  0  0  0
   -7.2718   -0.0164    1.1885 H   0  0  0  0  0  0  0  0  0  0  0  0
   -7.5699   -1.3171    2.3239 H   0  0  0  0  0  0  0  0  0  0  0  0
   -6.6057    0.0628    2.8060 H   0  0  0  0  0  0  0  0  0  0  0  0
   -4.4001   -0.6377    1.5884 N   0  0  0  0  0  0  0  0  0  0  0  0
   -3.1220   -1.1455    1.1644 C   0  0  2  0  0  0  0  0  0  0  0  0
   -2.2017    0.0428    0.9187 C   0  0  0  0  0  0  0  0  0  0  0  0
   -2.6171    1.1750    0.6807 O   0  0  0  0  0  0  0  0  0  0  0  0
   -3.2533   -1.9992   -0.0873 C   0  0  0  0  0  0  0  0  0  0  0  0
   -4.4370    0.2910    2.0047 H   0  0  0  0  0  0  0  0  0  0  0  0
   -2.7302   -1.7467    1.9921 H   0  0  0  0  0  0  0  0  0  0  0  0
   -3.6446   -1.4140   -0.9275 H   0  0  0  0  0  0  0  0  0  0  0  0
   -2.2844   -2.4081   -0.3922 H   0  0  0  0  0  0  0  0  0  0  0  0
   -3.9388   -2.8365    0.0822 H   0  0  0  0  0  0  0  0  0  0  0  0
   -0.8768   -0.3314    0.9568 N   0  0  0  0  0  0  0  0  0  0  0  0
    0.2067    0.6285    0.7375 C   0  0  2  0  0  0  0  0  0  0  0  0
   -0.4145    2.0161    0.8662 C   0  0  0  0  0  0  0  0  0  0  0  0
   -0.1950    2.9159    0.0578 O   0  0  0  0  0  0  0  0  0  0  0  0
    0.8217    0.3914   -0.6499 C   0  0  0  0  0  0  0  0  0  0  0  0
    1.5549   -0.9441   -0.7739 C   0  0  0  0  0  0  0  0  0  0  0  0
    2.1229   -1.1497   -2.1560 C   0  0  0  0  0  0  0  0  0  0  0  0
    1.9052   -0.4016   -3.1005 O   0  0  0  0  0  0  0  0  0  0  0  0
    2.8826   -2.2686   -2.2529 O   0  0  0  0  0  0  0  0  0  0  0  0
   -0.6087   -1.2764    1.1771 H   0  0  0  0  0  0  0  0  0  0  0  0
    0.9660    0.4758    1.5114 H   0  0  0  0  0  0  0  0  0  0  0  0
    0.0290    0.4345   -1.4087 H   0  0  0  0  0  0  0  0  0  0  0  0
    1.5306    1.1942   -0.8916 H   0  0  0  0  0  0  0  0  0  0  0  0
    2.4011   -0.9666   -0.0764 H   0  0  0  0  0  0  0  0  0  0  0  0
    0.9185   -1.7887   -0.4900 H   0  0  0  0  0  0  0  0  0  0  0  0
    3.2564   -2.4494   -3.1414 H   0  0  0  0  0  0  0  0  0  0  0  0
   -1.2569    2.1184    1.9634 N   0  0  0  0  0  0  0  0  0  0  0  0
   -1.9686    3.3289    2.3053 C   0  0  2  0  0  0  0  0  0  0  0  0
   -1.1261    4.1014    3.3118 C   0  0  0  0  0  0  0  0  0  0  0  0
   -0.2705    3.5713    4.0175 O   0  0  0  0  0  0  0  0  0  0  0  0
   -3.3454    3.0198    2.8725 C   0  0  0  0  0  0  0  0  0  0  0  0
   -1.3796    1.3026    2.5556 H   0  0  0  0  0  0  0  0  0  0  0  0
   -2.0623    3.9120    1.3827 H   0  0  0  0  0  0  0  0  0  0  0  0
   -3.2717    2.4360    3.7973 H   0  0  0  0  0  0  0  0  0  0  0  0
   -3.8943    3.9385    3.1044 H   0  0  0  0  0  0  0  0  0  0  0  0
   -3.9393    2.4386    2.1589 H   0  0  0  0  0  0  0  0  0  0  0  0
   -1.4720    5.4446    3.3601 N   0  0  0  0  0  0  0  0  0  0  0  0
   -0.8257    6.3847    4.2458 C   0  0  0  0  0  0  0  0  0  0  0  0
   -2.1803    5.8013    2.7254 H   0  0  0  0  0  0  0  0  0  0  0  0
   -1.3907    6.4502    5.1874 H   0  0  0  0  0  0  0  0  0  0  0  0
    0.1991    6.0450    4.4563 H   0  0  0  0  0  0  0  0  0  0  0  0
   -0.7930    7.3751    3.7683 H   0  0  0  0  0  0  0  0  0  0  0  0
  1  3  1  0  0  0  0
  1  7  1  0  0  0  0
  1  2  2  0  0  0  0
 34 35  1  0  0  0  0
 35 43  1  0  0  0  0
 35 36  2  0  0  0  0
  8  9  1  0  0  0  0
  9 17  1  0  0  0  0
  9 10  2  0  0  0  0
 18 19  1  0  0  0  0
 19 33  1  0  0  0  0
 19 20  2  0  0  0  0
 22 23  1  0  0  0  0
 23 24  2  0  0  0  0
 23 25  1  0  0  0  0
 34 37  1  0  0  0  0
  8 11  1  0  0  0  0
 43 44  1  0  0  0  0
 21 22  1  0  0  0  0
 18 21  1  0  0  0  0
 33 34  1  0  0  0  0
  7  8  1  0  0  0  0
 17 18  1  0  0  0  0
  3  4  1  0  0  0  0
  3  5  1  0  0  0  0
  3  6  1  0  0  0  0
 37 40  1  0  0  0  0
 37 41  1  0  0  0  0
 37 42  1  0  0  0  0
 11 14  1  0  0  0  0
 11 15  1  0  0  0  0
 11 16  1  0  0  0  0
 44 46  1  0  0  0  0
 44 47  1  0  0  0  0
 44 48  1  0  0  0  0
 22 30  1  0  0  0  0
 22 31  1  0  0  0  0
 21 28  1  0  0  0  0
 21 29  1  0  0  0  0
 34 39  1  0  0  0  0
  8 13  1  0  0  0  0
 18 27  1  0  0  0  0
 43 45  1  0  0  0  0
  7 12  1  0  0  0  0
 33 38  1  0  0  0  0
 17 26  1  0  0  0  0
 25 32  1  0  0  0  0
M  END
$$$$

  -OEChem-05262214473D

 48 47  0     1  0  0  0  0  0999 V2000
   -5.5827   -1.3473    1.4591 C   0  0  0  0  0  0  0  0  0  0  0  0
   -5.7053   -2.4696    0.9825 O   0  0  0  0  0  0  0  0  0  0  0  0
   -6.7879   -0.6277    1.9670 C   0  0  0  0  0  0  0  0  0  0  0  0
   -7.2718   -0.0164    1.1885 H   0  0  0  0  0  0  0  0  0  0  0  0
   -7.5699   -1.3171    2.3239 H   0  0  0  0  0  0  0  0  0  0  0  0
   -6.6057    0.0628    2.8060 H   0  0  0  0  0  0  0  0  0  0  0  0
   -4.4001   -0.6377    1.5884 N   0  0  0  0  0  0  0  0  0  0  0  0
   -3.1220   -1.1455    1.1644 C   0  0  2  0  0  0  0  0  0  0  0  0
   -2.2017    0.0428    0.9187 C   0  0  0  0  0  0  0  0  0  0  0  0
   -2.6171    1.1750    0.6807 O   0  0  0  0  0  0  0  0  0  0  0  0
   -3.2533   -1.9992   -0.0873 C   0  0  0  0  0  0  0  0  0  0  0  0
   -4.4370    0.2910    2.0047 H   0  0  0  0  0  0  0  0  0  0  0  0
   -2.7302   -1.7467    1.9921 H   0  0  0  0  0  0  0  0  0  0  0  0
   -3.6446   -1.4140   -0.9275 H   0  0  0  0  0  0  0  0  0  0  0  0
   -2.2844   -2.4081   -0.3922 H   0  0  0  0  0  0  0  0  0  0  0  0
   -3.9388   -2.8365    0.0822 H   0  0  0  0  0  0  0  0  0  0  0  0
   -0.8768   -0.3314    0.9568 N   0  0  0  0  0  0  0  0  0  0  0  0
    0.2067    0.6285    0.7375 C   0  0  2  0  0  0  0  0  0  0  0  0
   -0.4145    2.0161    0.8662 C   0  0  0  0  0  0  0  0  0  0  0  0
   -0.4216    2.8253   -0.0593 O   0  0  0  0  0  0  0  0  0  0  0  0
    0.8217    0.3914   -0.6499 C   0  0  0  0  0  0  0  0  0  0  0  0
    1.5549   -0.9441   -0.7739 C   0  0  0  0  0  0  0  0  0  0  0  0
    2.1229   -1.1497   -2.1560 C   0  0  0  0  0  0  0  0  0  0  0  0
    1.9052   -0.4016   -3.1005 O   0  0  0  0  0  0  0  0  0  0  0  0
    2.8826   -2.2686   -2.2529 O   0  0  0  0  0  0  0  0  0  0  0  0
   -0.6087   -1.2764    1.1771 H   0  0  0  0  0  0  0  0  0  0  0  0
    0.9660    0.4758    1.5114 H   0  0  0  0  0  0  0  0  0  0  0  0
    0.0290    0.4345   -1.4087 H   0  0  0  0  0  0  0  0  0  0  0  0
    1.5306    1.1942   -0.8916 H   0  0  0  0  0  0  0  0  0  0  0  0
    2.4011   -0.9666   -0.0764 H   0  0  0  0  0  0  0  0  0  0  0  0
    0.9185   -1.7887   -0.4900 H   0  0  0  0  0  0  0  0  0  0  0  0
    3.2564   -2.4494   -3.1414 H   0  0  0  0  0  0  0  0  0  0  0  0
   -0.9795    2.2285    2.1150 N   0  0  0  0  0  0  0  0  0  0  0  0
   -1.6326    3.4622    2.4894 C   0  0  2  0  0  0  0  0  0  0  0  0
   -0.6049    4.3466    3.1831 C   0  0  0  0  0  0  0  0  0  0  0  0
    0.4099    3.9038    3.7170 O   0  0  0  0  0  0  0  0  0  0  0  0
   -2.8268    3.2036    3.3947 C   0  0  0  0  0  0  0  0  0  0  0  0
   -0.9319    1.4803    2.8001 H   0  0  0  0  0  0  0  0  0  0  0  0
   -1.9598    3.9414    1.5602 H   0  0  0  0  0  0  0  0  0  0  0  0
   -2.5185    2.7238    4.3308 H   0  0  0  0  0  0  0  0  0  0  0  0
   -3.3374    4.1368    3.6543 H   0  0  0  0  0  0  0  0  0  0  0  0
   -3.5509    2.5432    2.9056 H   0  0  0  0  0  0  0  0  0  0  0  0
   -0.9760    5.6840    3.1736 N   0  0  0  0  0  0  0  0  0  0  0  0
   -0.1730    6.7202    3.7798 C   0  0  0  0  0  0  0  0  0  0  0  0
   -1.8250    5.9635    2.6912 H   0  0  0  0  0  0  0  0  0  0  0  0
   -0.5037    6.8818    4.8164 H   0  0  0  0  0  0  0  0  0  0  0  0
    0.8837    6.4146    3.7756 H   0  0  0  0  0  0  0  0  0  0  0  0
   -0.2871    7.6535    3.2089 H   0  0  0  0  0  0  0  0  0  0  0  0
  1  3  1  0  0  0  0
  1  7  1  0  0  0  0
  1  2  2  0  0  0  0
 34 35  1  0  0  0  0
 35 43  1  0  0  0  0
 35 36  2  0  0  0  0
  8  9  1  0  0  0  0
  9 17  1  0  0  0  0
  9 10  2  0  0  0  0
 18 19  1  0  0  0  0
 19 33  1  0  0  0  0
 19 20  2  0  0  0  0
 22 23  1  0  0  0  0
 23 24  2  0  0  0  0
 23 25  1  0  0  0  0
 34 37  1  0  0  0  0
  8 11  1  0  0  0  0
 43 44  1  0  0  0  0
 21 22  1  0  0  0  0
 18 21  1  0  0  0  0
 33 34  1  0  0  0  0
  7  8  1  0  0  0  0
 17 18  1  0  0  0  0
  3  4  1  0  0  0  0
  3  5  1  0  0  0  0
  3  6  1  0  0  0  0
 37 40  1  0  0  0  0
 37 41  1  0  0  0  0
 37 42  1  0  0  0  0
 11 14  1  0  0  0  0
 11 15  1  0  0  0  0
 11 16  1  0  0  0  0
 44 46  1  0  0  0  0
 44 47  1  0  0  0  0
 44 48  1  0  0  0  0
 22 30  1  0  0  0  0
 22 31  1  0  0  0  0
 21 28  1  0  0  0  0
 21 29  1  0  0  0  0
 34 39  1  0  0  0  0
  8 13  1  0  0  0  0
 18 27  1  0  0  0  0
 43 45  1  0  0  0  0
  7 12  1  0  0  0  0
 33 38  1  0  0  0  0
 17 26  1  0  0  0  0
 25 32  1  0  0  0  0
M  END
$$$$

  -OEChem-05262214473D

 48 47  0     1  0  0  0  0  0999 V2000
   -5.5827   -1.3473    1.4591 C   0  0  0  0  0  0  0  0  0  0  0  0
   -5.7053   -2.4696    0.9825 O   0  0  0  0  0  0  0  0  0  0  0  0
   -6.7879   -0.6277    1.9670 C   0  0  0  0  0  0  0  0  0  0  0  0
   -7.2718   -0.0164    1.1885 H   0  0  0  0  0  0  0  0  0  0  0  0
   -7.5699   -1.3171    2.3239 H   0  0  0  0  0  0  0  0  0  0  0  0
   -6.6057    0.0628    2.8060 H   0  0  0  0  0  0  0  0  0  0  0  0
   -4.4001   -0.6377    1.5884 N   0  0  0  0  0  0  0  0  0  0  0  0
   -3.1220   -1.1455    1.1644 C   0  0  2  0  0  0  0  0  0  0  0  0
   -2.2017    0.0428    0.9187 C   0  0  0  0  0  0  0  0  0  0  0  0
   -2.6171    1.1750    0.6807 O   0  0  0  0  0  0  0  0  0  0  0  0
   -3.2533   -1.9992   -0.0873 C   0  0  0  0  0  0  0  0  0  0  0  0
   -4.4370    0.2910    2.0047 H   0  0  0  0  0  0  0  0  0  0  0  0
   -2.7302   -1.7467    1.9921 H   0  0  0  0  0  0  0  0  0  0  0  0
   -3.6446   -1.4140   -0.9275 H   0  0  0  0  0  0  0  0  0  0  0  0
   -2.2844   -2.4081   -0.3922 H   0  0  0  0  0  0  0  0  0  0  0  0
   -3.9388   -2.8365    0.0822 H   0  0  0  0  0  0  0  0  0  0  0  0
   -0.8768   -0.3314    0.9568 N   0  0  0  0  0  0  0  0  0  0  0  0
    0.2067    0.6285    0.7375 C   0  0  2  0  0  0  0  0  0  0  0  0
   -0.4145    2.0161    0.8662 C   0  0  0  0  0  0  0  0  0  0  0  0
   -0.6660    2.7205   -0.1095 O   0  0  0  0  0  0  0  0  0  0  0  0
    0.8217    0.3914   -0.6499 C   0  0  0  0  0  0  0  0  0  0  0  0
    1.5549   -0.9441   -0.7739 C   0  0  0  0  0  0  0  0  0  0  0  0
    2.1229   -1.1497   -2.1560 C   0  0  0  0  0  0  0  0  0  0  0  0
    1.9052   -0.4016   -3.1005 O   0  0  0  0  0  0  0  0  0  0  0  0
    2.8826   -2.2686   -2.2529 O   0  0  0  0  0  0  0  0  0  0  0  0
   -0.6087   -1.2764    1.1771 H   0  0  0  0  0  0  0  0  0  0  0  0
    0.9660    0.4758    1.5114 H   0  0  0  0  0  0  0  0  0  0  0  0
    0.0290    0.4345   -1.4087 H   0  0  0  0  0  0  0  0  0  0  0  0
    1.5306    1.1942   -0.8916 H   0  0  0  0  0  0  0  0  0  0  0  0
    2.4011   -0.9666   -0.0764 H   0  0  0  0  0  0  0  0  0  0  0  0
    0.9185   -1.7887   -0.4900 H   0  0  0  0  0  0  0  0  0  0  0  0
    3.2564   -2.4494   -3.1414 H   0  0  0  0  0  0  0  0  0  0  0  0
   -0.6783    2.3569    2.1846 N   0  0  0  0  0  0  0  0  0  0  0  0
   -1.2676    3.6178    2.5739 C   0  0  2  0  0  0  0  0  0  0  0  0
   -0.1372    4.5814    2.9103 C   0  0  0  0  0  0  0  0  0  0  0  0
    0.9891    4.2081    3.2315 O   0  0  0  0  0  0  0  0  0  0  0  0
   -2.2069    3.4474    3.7578 C   0  0  0  0  0  0  0  0  0  0  0  0
   -0.4458    1.6876    2.9121 H   0  0  0  0  0  0  0  0  0  0  0  0
   -1.8197    3.9908    1.7044 H   0  0  0  0  0  0  0  0  0  0  0  0
   -1.6716    3.0744    4.6386 H   0  0  0  0  0  0  0  0  0  0  0  0
   -2.6744    4.3985    4.0334 H   0  0  0  0  0  0  0  0  0  0  0  0
   -3.0023    2.7315    3.5243 H   0  0  0  0  0  0  0  0  0  0  0  0
   -0.5460    5.9064    2.8514 N   0  0  0  0  0  0  0  0  0  0  0  0
    0.3405    7.0093    3.1407 C   0  0  0  0  0  0  0  0  0  0  0  0
   -1.4935    6.1244    2.5575 H   0  0  0  0  0  0  0  0  0  0  0  0
    0.2564    7.2789    4.2038 H   0  0  0  0  0  0  0  0  0  0  0  0
    1.3767    6.7149    2.9180 H   0  0  0  0  0  0  0  0  0  0  0  0
    0.0637    7.8744    2.5202 H   0  0  0  0  0  0  0  0  0  0  0  0
  1  3  1  0  0  0  0
  1  7  1  0  0  0  0
  1  2  2  0  0  0  0
 34 35  1  0  0  0  0
 35 43  1  0  0  0  0
 35 36  2  0  0  0  0
  8  9  1  0  0  0  0
  9 17  1  0  0  0  0
  9 10  2  0  0  0  0
 18 19  1  0  0  0  0
 19 33  1  0  0  0  0
 19 20  2  0  0  0  0
 22 23  1  0  0  0  0
 23 24  2  0  0  0  0
 23 25  1  0  0  0  0
 34 37  1  0  0  0  0
  8 11  1  0  0  0  0
 43 44  1  0  0  0  0
 21 22  1  0  0  0  0
 18 21  1  0  0  0  0
 33 34  1  0  0  0  0
  7  8  1  0  0  0  0
 17 18  1  0  0  0  0
  3  4  1  0  0  0  0
  3  5  1  0  0  0  0
  3  6  1  0  0  0  0
 37 40  1  0  0  0  0
 37 41  1  0  0  0  0
 37 42  1  0  0  0  0
 11 14  1  0  0  0  0
 11 15  1  0  0  0  0
 11 16  1  0  0  0  0
 44 46  1  0  0  0  0
 44 47  1  0  0  0  0
 44 48  1  0  0  0  0
 22 30  1  0  0  0  0
 22 31  1  0  0  0  0
 21 28  1  0  0  0  0
 21 29  1  0  0  0  0
 34 39  1  0  0  0  0
  8 13  1  0  0  0  0
 18 27  1  0  0  0  0
 43 45  1  0  0  0  0
  7 12  1  0  0  0  0
 33 38  1  0  0  0  0
 17 26  1  0  0  0  0
 25 32  1  0  0  0  0
M  END
$$$$

  -OEChem-05262214473D

 48 47  0     1  0  0  0  0  0999 V2000
   -5.5827   -1.3473    1.4591 C   0  0  0  0  0  0  0  0  0  0  0  0
   -5.7053   -2.4696    0.9825 O   0  0  0  0  0  0  0  0  0  0  0  0
   -6.7879   -0.6277    1.9670 C   0  0  0  0  0  0  0  0  0  0  0  0
   -7.2718   -0.0164    1.1885 H   0  0  0  0  0  0  0  0  0  0  0  0
   -7.5699   -1.3171    2.3239 H   0  0  0  0  0  0  0  0  0  0  0  0
   -6.6057    0.0628    2.8060 H   0  0  0  0  0  0  0  0  0  0  0  0
   -4.4001   -0.6377    1.5884 N   0  0  0  0  0  0  0  0  0  0  0  0
   -3.1220   -1.1455    1.1644 C   0  0  2  0  0  0  0  0  0  0  0  0
   -2.2017    0.0428    0.9187 C   0  0  0  0  0  0  0  0  0  0  0  0
   -2.6171    1.1750    0.6807 O   0  0  0  0  0  0  0  0  0  0  0  0
   -3.2533   -1.9992   -0.0873 C   0  0  0  0  0  0  0  0  0  0  0  0
   -4.4370    0.2910    2.0047 H   0  0  0  0  0  0  0  0  0  0  0  0
   -2.7302   -1.7467    1.9921 H   0  0  0  0  0  0  0  0  0  0  0  0
   -3.6446   -1.4140   -0.9275 H   0  0  0  0  0  0  0  0  0  0  0  0
   -2.2844   -2.4081   -0.3922 H   0  0  0  0  0  0  0  0  0  0  0  0
   -3.9388   -2.8365    0.0822 H   0  0  0  0  0  0  0  0  0  0  0  0
   -0.8768   -0.3314    0.9568 N   0  0  0  0  0  0  0  0  0  0  0  0
    0.2067    0.6285    0.7375 C   0  0  2  0  0  0  0  0  0  0  0  0
   -0.4145    2.0161    0.8662 C   0  0  0  0  0  0  0  0  0  0  0  0
   -0.9117    2.6087   -0.0894 O   0  0  0  0  0  0  0  0  0  0  0  0
    0.8217    0.3914   -0.6499 C   0  0  0  0  0  0  0  0  0  0  0  0
    1.5549   -0.9441   -0.7739 C   0  0  0  0  0  0  0  0  0  0  0  0
    2.1229   -1.1497   -2.1560 C   0  0  0  0  0  0  0  0  0  0  0  0
    1.9052   -0.4016   -3.1005 O   0  0  0  0  0  0  0  0  0  0  0  0
    2.8826   -2.2686   -2.2529 O   0  0  0  0  0  0  0  0  0  0  0  0
   -0.6087   -1.2764    1.1771 H   0  0  0  0  0  0  0  0  0  0  0  0
    0.9660    0.4758    1.5114 H   0  0  0  0  0  0  0  0  0  0  0  0
    0.0290    0.4345   -1.4087 H   0  0  0  0  0  0  0  0  0  0  0  0
    1.5306    1.1942   -0.8916 H   0  0  0  0  0  0  0  0  0  0  0  0
    2.4011   -0.9666   -0.0764 H   0  0  0  0  0  0  0  0  0  0  0  0
    0.9185   -1.7887   -0.4900 H   0  0  0  0  0  0  0  0  0  0  0  0
    3.2564   -2.4494   -3.1414 H   0  0  0  0  0  0  0  0  0  0  0  0
   -0.3738    2.4949    2.1673 N   0  0  0  0  0  0  0  0  0  0  0  0
   -0.8986    3.7849    2.5534 C   0  0  2  0  0  0  0  0  0  0  0  0
    0.2453    4.7896    2.5119 C   0  0  0  0  0  0  0  0  0  0  0  0
    1.4277    4.4636    2.5942 O   0  0  0  0  0  0  0  0  0  0  0  0
   -1.5280    3.7348    3.9368 C   0  0  0  0  0  0  0  0  0  0  0  0
    0.0455    1.9102    2.8840 H   0  0  0  0  0  0  0  0  0  0  0  0
   -1.6515    4.0567    1.8055 H   0  0  0  0  0  0  0  0  0  0  0  0
   -0.7888    3.4640    4.6996 H   0  0  0  0  0  0  0  0  0  0  0  0
   -1.9505    4.7057    4.2160 H   0  0  0  0  0  0  0  0  0  0  0  0
   -2.3308    2.9905    3.9730 H   0  0  0  0  0  0  0  0  0  0  0  0
   -0.2113    6.0966    2.4155 N   0  0  0  0  0  0  0  0  0  0  0  0
    0.6797    7.2325    2.3720 C   0  0  0  0  0  0  0  0  0  0  0  0
   -1.2083    6.2729    2.3333 H   0  0  0  0  0  0  0  0  0  0  0  0
    0.8377    7.6145    3.3913 H   0  0  0  0  0  0  0  0  0  0  0  0
    1.6444    6.9253    1.9420 H   0  0  0  0  0  0  0  0  0  0  0  0
    0.2357    8.0230    1.7490 H   0  0  0  0  0  0  0  0  0  0  0  0
  1  3  1  0  0  0  0
  1  7  1  0  0  0  0
  1  2  2  0  0  0  0
 34 35  1  0  0  0  0
 35 43  1  0  0  0  0
 35 36  2  0  0  0  0
  8  9  1  0  0  0  0
  9 17  1  0  0  0  0
  9 10  2  0  0  0  0
 18 19  1  0  0  0  0
 19 33  1  0  0  0  0
 19 20  2  0  0  0  0
 22 23  1  0  0  0  0
 23 24  2  0  0  0  0
 23 25  1  0  0  0  0
 34 37  1  0  0  0  0
  8 11  1  0  0  0  0
 43 44  1  0  0  0  0
 21 22  1  0  0  0  0
 18 21  1  0  0  0  0
 33 34  1  0  0  0  0
  7  8  1  0  0  0  0
 17 18  1  0  0  0  0
  3  4  1  0  0  0  0
  3  5  1  0  0  0  0
  3  6  1  0  0  0  0
 37 40  1  0  0  0  0
 37 41  1  0  0  0  0
 37 42  1  0  0  0  0
 11 14  1  0  0  0  0
 11 15  1  0  0  0  0
 11 16  1  0  0  0  0
 44 46  1  0  0  0  0
 44 47  1  0  0  0  0
 44 48  1  0  0  0  0
 22 30  1  0  0  0  0
 22 31  1  0  0  0  0
 21 28  1  0  0  0  0
 21 29  1  0  0  0  0
 34 39  1  0  0  0  0
  8 13  1  0  0  0  0
 18 27  1  0  0  0  0
 43 45  1  0  0  0  0
  7 12  1  0  0  0  0
 33 38  1  0  0  0  0
 17 26  1  0  0  0  0
 25 32  1  0  0  0  0
M  END
$$$$

  -OEChem-05262214473D

 48 47  0     1  0  0  0  0  0999 V2000
   -5.5827   -1.3473    1.4591 C   0  0  0  0  0  0  0  0  0  0  0  0
   -5.7053   -2.4696    0.9825 O   0  0  0  0  0  0  0  0  0  0  0  0
   -6.7879   -0.6277    1.9670 C   0  0  0  0  0  0  0  0  0  0  0  0
   -7.2718   -0.0164    1.1885 H   0  0  0  0  0  0  0  0  0  0  0  0
   -7.5699   -1.3171    2.3239 H   0  0  0  0  0  0  0  0  0  0  0  0
   -6.6057    0.0628    2.8060 H   0  0  0  0  0  0  0  0  0  0  0  0
   -4.4001   -0.6377    1.5884 N   0  0  0  0  0  0  0  0  0  0  0  0
   -3.1220   -1.1455    1.1644 C   0  0  2  0  0  0  0  0  0  0  0  0
   -2.2017    0.0428    0.9187 C   0  0  0  0  0  0  0  0  0  0  0  0
   -2.6171    1.1750    0.6807 O   0  0  0  0  0  0  0  0  0  0  0  0
   -3.2533   -1.9992   -0.0873 C   0  0  0  0  0  0  0  0  0  0  0  0
   -4.4370    0.2910    2.0047 H   0  0  0  0  0  0  0  0  0  0  0  0
   -2.7302   -1.7467    1.9921 H   0  0  0  0  0  0  0  0  0  0  0  0
   -3.6446   -1.4140   -0.9275 H   0  0  0  0  0  0  0  0  0  0  0  0
   -2.2844   -2.4081   -0.3922 H   0  0  0  0  0  0  0  0  0  0  0  0
   -3.9388   -2.8365    0.0822 H   0  0  0  0  0  0  0  0  0  0  0  0
   -0.8768   -0.3314    0.9568 N   0  0  0  0  0  0  0  0  0  0  0  0
    0.2067    0.6285    0.7375 C   0  0  2  0  0  0  0  0  0  0  0  0
   -0.4145    2.0161    0.8662 C   0  0  0  0  0  0  0  0  0  0  0  0
   -1.1418    2.4974   -0.0004 O   0  0  0  0  0  0  0  0  0  0  0  0
    0.8217    0.3914   -0.6499 C   0  0  0  0  0  0  0  0  0  0  0  0
    1.5549   -0.9441   -0.7739 C   0  0  0  0  0  0  0  0  0  0  0  0
    2.1229   -1.1497   -2.1560 C   0  0  0  0  0  0  0  0  0  0  0  0
    1.9052   -0.4016   -3.1005 O   0  0  0  0  0  0  0  0  0  0  0  0
    2.8826   -2.2686   -2.2529 O   0  0  0  0  0  0  0  0  0  0  0  0
   -0.6087   -1.2764    1.1771 H   0  0  0  0  0  0  0  0  0  0  0  0
    0.9660    0.4758    1.5114 H   0  0  0  0  0  0  0  0  0  0  0  0
    0.0290    0.4345   -1.4087 H   0  0  0  0  0  0  0  0  0  0  0  0
    1.5306    1.1942   -0.8916 H   0  0  0  0  0  0  0  0  0  0  0  0
    2.4011   -0.9666   -0.0764 H   0  0  0  0  0  0  0  0  0  0  0  0
    0.9185   -1.7887   -0.4900 H   0  0  0  0  0  0  0  0  0  0  0  0
    3.2564   -2.4494   -3.1414 H   0  0  0  0  0  0  0  0  0  0  0  0
   -0.0867    2.6329    2.0645 N   0  0  0  0  0  0  0  0  0  0  0  0
   -0.5506    3.9522    2.4290 C   0  0  2  0  0  0  0  0  0  0  0  0
    0.5164    4.9570    2.0151 C   0  0  0  0  0  0  0  0  0  0  0  0
    1.6957    4.6528    1.8484 O   0  0  0  0  0  0  0  0  0  0  0  0
   -0.8364    4.0460    3.9197 C   0  0  0  0  0  0  0  0  0  0  0  0
    0.5087    2.1329    2.7178 H   0  0  0  0  0  0  0  0  0  0  0  0
   -1.4666    4.1347    1.8566 H   0  0  0  0  0  0  0  0  0  0  0  0
    0.0697    3.8660    4.5096 H   0  0  0  0  0  0  0  0  0  0  0  0
   -1.2149    5.0374    4.1896 H   0  0  0  0  0  0  0  0  0  0  0  0
   -1.5823    3.3026    4.2211 H   0  0  0  0  0  0  0  0  0  0  0  0
    0.0052    6.2418    1.8956 N   0  0  0  0  0  0  0  0  0  0  0  0
    0.8215    7.3745    1.5261 C   0  0  0  0  0  0  0  0  0  0  0  0
   -0.9888    6.3989    2.0339 H   0  0  0  0  0  0  0  0  0  0  0  0
    1.2006    7.8658    2.4343 H   0  0  0  0  0  0  0  0  0  0  0  0
    1.6687    7.0316    0.9140 H   0  0  0  0  0  0  0  0  0  0  0  0
    0.2170    8.0889    0.9480 H   0  0  0  0  0  0  0  0  0  0  0  0
  1  3  1  0  0  0  0
  1  7  1  0  0  0  0
  1  2  2  0  0  0  0
 34 35  1  0  0  0  0
 35 43  1  0  0  0  0
 35 36  2  0  0  0  0
  8  9  1  0  0  0  0
  9 17  1  0  0  0  0
  9 10  2  0  0  0  0
 18 19  1  0  0  0  0
 19 33  1  0  0  0  0
 19 20  2  0  0  0  0
 22 23  1  0  0  0  0
 23 24  2  0  0  0  0
 23 25  1  0  0  0  0
 34 37  1  0  0  0  0
  8 11  1  0  0  0  0
 43 44  1  0  0  0  0
 21 22  1  0  0  0  0
 18 21  1  0  0  0  0
 33 34  1  0  0  0  0
  7  8  1  0  0  0  0
 17 18  1  0  0  0  0
  3  4  1  0  0  0  0
  3  5  1  0  0  0  0
  3  6  1  0  0  0  0
 37 40  1  0  0  0  0
 37 41  1  0  0  0  0
 37 42  1  0  0  0  0
 11 14  1  0  0  0  0
 11 15  1  0  0  0  0
 11 16  1  0  0  0  0
 44 46  1  0  0  0  0
 44 47  1  0  0  0  0
 44 48  1  0  0  0  0
 22 30  1  0  0  0  0
 22 31  1  0  0  0  0
 21 28  1  0  0  0  0
 21 29  1  0  0  0  0
 34 39  1  0  0  0  0
  8 13  1  0  0  0  0
 18 27  1  0  0  0  0
 43 45  1  0  0  0  0
  7 12  1  0  0  0  0
 33 38  1  0  0  0  0
 17 26  1  0  0  0  0
 25 32  1  0  0  0  0
M  END
$$$$

  -OEChem-05262214473D

 48 47  0     1  0  0  0  0  0999 V2000
   -5.5827   -1.3473    1.4591 C   0  0  0  0  0  0  0  0  0  0  0  0
   -5.7053   -2.4696    0.9825 O   0  0  0  0  0  0  0  0  0  0  0  0
   -6.7879   -0.6277    1.9670 C   0  0  0  0  0  0  0  0  0  0  0  0
   -7.2718   -0.0164    1.1885 H   0  0  0  0  0  0  0  0  0  0  0  0
   -7.5699   -1.3171    2.3239 H   0  0  0  0  0  0  0  0  0  0  0  0
   -6.6057    0.0628    2.8060 H   0  0  0  0  0  0  0  0  0  0  0  0
   -4.4001   -0.6377    1.5884 N   0  0  0  0  0  0  0  0  0  0  0  0
   -3.1220   -1.1455    1.1644 C   0  0  2  0  0  0  0  0  0  0  0  0
   -2.2017    0.0428    0.9187 C   0  0  0  0  0  0  0  0  0  0  0  0
   -2.6171    1.1750    0.6807 O   0  0  0  0  0  0  0  0  0  0  0  0
   -3.2533   -1.9992   -0.0873 C   0  0  0  0  0  0  0  0  0  0  0  0
   -4.4370    0.2910    2.0047 H   0  0  0  0  0  0  0  0  0  0  0  0
   -2.7302   -1.7467    1.9921 H   0  0  0  0  0  0  0  0  0  0  0  0
   -3.6446   -1.4140   -0.9275 H   0  0  0  0  0  0  0  0  0  0  0  0
   -2.2844   -2.4081   -0.3922 H   0  0  0  0  0  0  0  0  0  0  0  0
   -3.9388   -2.8365    0.0822 H   0  0  0  0  0  0  0  0  0  0  0  0
   -0.8768   -0.3314    0.9568 N   0  0  0  0  0  0  0  0  0  0  0  0
    0.2067    0.6285    0.7375 C   0  0  2  0  0  0  0  0  0  0  0  0
   -0.4145    2.0161    0.8662 C   0  0  0  0  0  0  0  0  0  0  0  0
   -1.3406    2.3943    0.1515 O   0  0  0  0  0  0  0  0  0  0  0  0
    0.8217    0.3914   -0.6499 C   0  0  0  0  0  0  0  0  0  0  0  0
    1.5549   -0.9441   -0.7739 C   0  0  0  0  0  0  0  0  0  0  0  0
    2.1229   -1.1497   -2.1560 C   0  0  0  0  0  0  0  0  0  0  0  0
    1.9052   -0.4016   -3.1005 O   0  0  0  0  0  0  0  0  0  0  0  0
    2.8826   -2.2686   -2.2529 O   0  0  0  0  0  0  0  0  0  0  0  0
   -0.6087   -1.2764    1.1771 H   0  0  0  0  0  0  0  0  0  0  0  0
    0.9660    0.4758    1.5114 H   0  0  0  0  0  0  0  0  0  0  0  0
    0.0290    0.4345   -1.4087 H   0  0  0  0  0  0  0  0  0  0  0  0
    1.5306    1.1942   -0.8916 H   0  0  0  0  0  0  0  0  0  0  0  0
    2.4011   -0.9666   -0.0764 H   0  0  0  0  0  0  0  0  0  0  0  0
    0.9185   -1.7887   -0.4900 H   0  0  0  0  0  0  0  0  0  0  0  0
    3.2564   -2.4494   -3.1414 H   0  0  0  0  0  0  0  0  0  0  0  0
    0.1634    2.7617    1.8830 N   0  0  0  0  0  0  0  0  0  0  0  0
   -0.2474    4.1084    2.2093 C   0  0  2  0  0  0  0  0  0  0  0  0
    0.6577    5.0724    1.4537 C   0  0  0  0  0  0  0  0  0  0  0  0
    1.7749    4.7628    1.0450 O   0  0  0  0  0  0  0  0  0  0  0  0
   -0.1792    4.3599    3.7076 C   0  0  0  0  0  0  0  0  0  0  0  0
    0.9121    2.3407    2.4248 H   0  0  0  0  0  0  0  0  0  0  0  0
   -1.2777    4.2195    1.8542 H   0  0  0  0  0  0  0  0  0  0  0  0
    0.8456    4.2530    4.0817 H   0  0  0  0  0  0  0  0  0  0  0  0
   -0.5179    5.3712    3.9560 H   0  0  0  0  0  0  0  0  0  0  0  0
   -0.8077    3.6466    4.2516 H   0  0  0  0  0  0  0  0  0  0  0  0
    0.0888    6.3319    1.3272 N   0  0  0  0  0  0  0  0  0  0  0  0
    0.7563    7.4256    0.6607 C   0  0  0  0  0  0  0  0  0  0  0  0
   -0.8499    6.4939    1.6798 H   0  0  0  0  0  0  0  0  0  0  0  0
    1.3205    8.0156    1.3980 H   0  0  0  0  0  0  0  0  0  0  0  0
    1.4479    7.0264   -0.0958 H   0  0  0  0  0  0  0  0  0  0  0  0
    0.0090    8.0678    0.1718 H   0  0  0  0  0  0  0  0  0  0  0  0
  1  3  1  0  0  0  0
  1  7  1  0  0  0  0
  1  2  2  0  0  0  0
 34 35  1  0  0  0  0
 35 43  1  0  0  0  0
 35 36  2  0  0  0  0
  8  9  1  0  0  0  0
  9 17  1  0  0  0  0
  9 10  2  0  0  0  0
 18 19  1  0  0  0  0
 19 33  1  0  0  0  0
 19 20  2  0  0  0  0
 22 23  1  0  0  0  0
 23 24  2  0  0  0  0
 23 25  1  0  0  0  0
 34 37  1  0  0  0  0
  8 11  1  0  0  0  0
 43 44  1  0  0  0  0
 21 22  1  0  0  0  0
 18 21  1  0  0  0  0
 33 34  1  0  0  0  0
  7  8  1  0  0  0  0
 17 18  1  0  0  0  0
  3  4  1  0  0  0  0
  3  5  1  0  0  0  0
  3  6  1  0  0  0  0
 37 40  1  0  0  0  0
 37 41  1  0  0  0  0
 37 42  1  0  0  0  0
 11 14  1  0  0  0  0
 11 15  1  0  0  0  0
 11 16  1  0  0  0  0
 44 46  1  0  0  0  0
 44 47  1  0  0  0  0
 44 48  1  0  0  0  0
 22 30  1  0  0  0  0
 22 31  1  0  0  0  0
 21 28  1  0  0  0  0
 21 29  1  0  0  0  0
 34 39  1  0  0  0  0
  8 13  1  0  0  0  0
 18 27  1  0  0  0  0
 43 45  1  0  0  0  0
  7 12  1  0  0  0  0
 33 38  1  0  0  0  0
 17 26  1  0  0  0  0
 25 32  1  0  0  0  0
M  END
$$$$

  -OEChem-05262214473D

 48 47  0     1  0  0  0  0  0999 V2000
   -5.5827   -1.3473    1.4591 C   0  0  0  0  0  0  0  0  0  0  0  0
   -5.7053   -2.4696    0.9825 O   0  0  0  0  0  0  0  0  0  0  0  0
   -6.7879   -0.6277    1.9670 C   0  0  0  0  0  0  0  0  0  0  0  0
   -7.2718   -0.0164    1.1885 H   0  0  0  0  0  0  0  0  0  0  0  0
   -7.5699   -1.3171    2.3239 H   0  0  0  0  0  0  0  0  0  0  0  0
   -6.6057    0.0628    2.8060 H   0  0  0  0  0  0  0  0  0  0  0  0
   -4.4001   -0.6377    1.5884 N   0  0  0  0  0  0  0  0  0  0  0  0
   -3.1220   -1.1455    1.1644 C   0  0  2  0  0  0  0  0  0  0  0  0
   -2.2017    0.0428    0.9187 C   0  0  0  0  0  0  0  0  0  0  0  0
   -2.6171    1.1750    0.6807 O   0  0  0  0  0  0  0  0  0  0  0  0
   -3.2533   -1.9992   -0.0873 C   0  0  0  0  0  0  0  0  0  0  0  0
   -4.4370    0.2910    2.0047 H   0  0  0  0  0  0  0  0  0  0  0  0
   -2.7302   -1.7467    1.9921 H   0  0  0  0  0  0  0  0  0  0  0  0
   -3.6446   -1.4140   -0.9275 H   0  0  0  0  0  0  0  0  0  0  0  0
   -2.2844   -2.4081   -0.3922 H   0  0  0  0  0  0  0  0  0  0  0  0
   -3.9388   -2.8365    0.0822 H   0  0  0  0  0  0  0  0  0  0  0  0
   -0.8768   -0.3314    0.9568 N   0  0  0  0  0  0  0  0  0  0  0  0
    0.2067    0.6285    0.7375 C   0  0  2  0  0  0  0  0  0  0  0  0
   -0.4145    2.0161    0.8662 C   0  0  0  0  0  0  0  0  0  0  0  0
   -1.4947    2.3063    0.3559 O   0  0  0  0  0  0  0  0  0  0  0  0
    0.8217    0.3914   -0.6499 C   0  0  0  0  0  0  0  0  0  0  0  0
    1.5549   -0.9441   -0.7739 C   0  0  0  0  0  0  0  0  0  0  0  0
    2.1229   -1.1497   -2.1560 C   0  0  0  0  0  0  0  0  0  0  0  0
    1.9052   -0.4016   -3.1005 O   0  0  0  0  0  0  0  0  0  0  0  0
    2.8826   -2.2686   -2.2529 O   0  0  0  0  0  0  0  0  0  0  0  0
   -0.6087   -1.2764    1.1771 H   0  0  0  0  0  0  0  0  0  0  0  0
    0.9660    0.4758    1.5114 H   0  0  0  0  0  0  0  0  0  0  0  0
    0.0290    0.4345   -1.4087 H   0  0  0  0  0  0  0  0  0  0  0  0
    1.5306    1.1942   -0.8916 H   0  0  0  0  0  0  0  0  0  0  0  0
    2.4011   -0.9666   -0.0764 H   0  0  0  0  0  0  0  0  0  0  0  0
    0.9185   -1.7887   -0.4900 H   0  0  0  0  0  0  0  0  0  0  0  0
    3.2564   -2.4494   -3.1414 H   0  0  0  0  0  0  0  0  0  0  0  0
    0.3594    2.8725    1.6352 N   0  0  0  0  0  0  0  0  0  0  0  0
   -0.0097    4.2426    1.9093 C   0  0  2  0  0  0  0  0  0  0  0  0
    0.6595    5.1277    0.8661 C   0  0  0  0  0  0  0  0  0  0  0  0
    1.6599    4.7861    0.2388 O   0  0  0  0  0  0  0  0  0  0  0  0
    0.3989    4.6551    3.3149 C   0  0  0  0  0  0  0  0  0  0  0  0
    1.2282    2.5194    2.0248 H   0  0  0  0  0  0  0  0  0  0  0  0
   -1.0977    4.3053    1.7985 H   0  0  0  0  0  0  0  0  0  0  0  0
    1.4858    4.5987    3.4449 H   0  0  0  0  0  0  0  0  0  0  0  0
    0.0931    5.6841    3.5311 H   0  0  0  0  0  0  0  0  0  0  0  0
   -0.0598    3.9989    4.0625 H   0  0  0  0  0  0  0  0  0  0  0  0
    0.0338    6.3609    0.7491 N   0  0  0  0  0  0  0  0  0  0  0  0
    0.4885    7.3823   -0.1653 C   0  0  0  0  0  0  0  0  0  0  0  0
   -0.8013    6.5514    1.2951 H   0  0  0  0  0  0  0  0  0  0  0  0
    1.1890    8.0536    0.3531 H   0  0  0  0  0  0  0  0  0  0  0  0
    0.9970    6.9101   -1.0188 H   0  0  0  0  0  0  0  0  0  0  0  0
   -0.3742    7.9610   -0.5269 H   0  0  0  0  0  0  0  0  0  0  0  0
  1  3  1  0  0  0  0
  1  7  1  0  0  0  0
  1  2  2  0  0  0  0
 34 35  1  0  0  0  0
 35 43  1  0  0  0  0
 35 36  2  0  0  0  0
  8  9  1  0  0  0  0
  9 17  1  0  0  0  0
  9 10  2  0  0  0  0
 18 19  1  0  0  0  0
 19 33  1  0  0  0  0
 19 20  2  0  0  0  0
 22 23  1  0  0  0  0
 23 24  2  0  0  0  0
 23 25  1  0  0  0  0
 34 37  1  0  0  0  0
  8 11  1  0  0  0  0
 43 44  1  0  0  0  0
 21 22  1  0  0  0  0
 18 21  1  0  0  0  0
 33 34  1  0  0  0  0
  7  8  1  0  0  0  0
 17 18  1  0  0  0  0
  3  4  1  0  0  0  0
  3  5  1  0  0  0  0
  3  6  1  0  0  0  0
 37 40  1  0  0  0  0
 37 41  1  0  0  0  0
 37 42  1  0  0  0  0
 11 14  1  0  0  0  0
 11 15  1  0  0  0  0
 11 16  1  0  0  0  0
 44 46  1  0  0  0  0
 44 47  1  0  0  0  0
 44 48  1  0  0  0  0
 22 30  1  0  0  0  0
 22 31  1  0  0  0  0
 21 28  1  0  0  0  0
 21 29  1  0  0  0  0
 34 39  1  0  0  0  0
  8 13  1  0  0  0  0
 18 27  1  0  0  0  0
 43 45  1  0  0  0  0
  7 12  1  0  0  0  0
 33 38  1  0  0  0  0
 17 26  1  0  0  0  0
 25 32  1  0  0  0  0
M  END
$$$$

  -OEChem-05262214473D

 48 47  0     1  0  0  0  0  0999 V2000
   -5.5827   -1.3473    1.4591 C   0  0  0  0  0  0  0  0  0  0  0  0
   -5.7053   -2.4696    0.9825 O   0  0  0  0  0  0  0  0  0  0  0  0
   -6.7879   -0.6277    1.9670 C   0  0  0  0  0  0  0  0  0  0  0  0
   -7.2718   -0.0164    1.1885 H   0  0  0  0  0  0  0  0  0  0  0  0
   -7.5699   -1.3171    2.3239 H   0  0  0  0  0  0  0  0  0  0  0  0
   -6.6057    0.0628    2.8060 H   0  0  0  0  0  0  0  0  0  0  0  0
   -4.4001   -0.6377    1.5884 N   0  0  0  0  0  0  0  0  0  0  0  0
   -3.1220   -1.1455    1.1644 C   0  0  2  0  0  0  0  0  0  0  0  0
   -2.2017    0.0428    0.9187 C   0  0  0  0  0  0  0  0  0  0  0  0
   -2.6171    1.1750    0.6807 O   0  0  0  0  0  0  0  0  0  0  0  0
   -3.2533   -1.9992   -0.0873 C   0  0  0  0  0  0  0  0  0  0  0  0
   -4.4370    0.2910    2.0047 H   0  0  0  0  0  0  0  0  0  0  0  0
   -2.7302   -1.7467    1.9921 H   0  0  0  0  0  0  0  0  0  0  0  0
   -3.6446   -1.4140   -0.9275 H   0  0  0  0  0  0  0  0  0  0  0  0
   -2.2844   -2.4081   -0.3922 H   0  0  0  0  0  0  0  0  0  0  0  0
   -3.9388   -2.8365    0.0822 H   0  0  0  0  0  0  0  0  0  0  0  0
   -0.8768   -0.3314    0.9568 N   0  0  0  0  0  0  0  0  0  0  0  0
    0.2067    0.6285    0.7375 C   0  0  2  0  0  0  0  0  0  0  0  0
   -0.4145    2.0161    0.8662 C   0  0  0  0  0  0  0  0  0  0  0  0
   -1.5935    2.2395    0.5989 O   0  0  0  0  0  0  0  0  0  0  0  0
    0.8217    0.3914   -0.6499 C   0  0  0  0  0  0  0  0  0  0  0  0
    1.5549   -0.9441   -0.7739 C   0  0  0  0  0  0  0  0  0  0  0  0
    2.1229   -1.1497   -2.1560 C   0  0  0  0  0  0  0  0  0  0  0  0
    1.9052   -0.4016   -3.1005 O   0  0  0  0  0  0  0  0  0  0  0  0
    2.8826   -2.2686   -2.2529 O   0  0  0  0  0  0  0  0  0  0  0  0
   -0.6087   -1.2764    1.1771 H   0  0  0  0  0  0  0  0  0  0  0  0
    0.9660    0.4758    1.5114 H   0  0  0  0  0  0  0  0  0  0  0  0
    0.0290    0.4345   -1.4087 H   0  0  0  0  0  0  0  0  0  0  0  0
    1.5306    1.1942   -0.8916 H   0  0  0  0  0  0  0  0  0  0  0  0
    2.4011   -0.9666   -0.0764 H   0  0  0  0  0  0  0  0  0  0  0  0
    0.9185   -1.7887   -0.4900 H   0  0  0  0  0  0  0  0  0  0  0  0
    3.2564   -2.4494   -3.1414 H   0  0  0  0  0  0  0  0  0  0  0  0
    0.4880    2.9576    1.3381 N   0  0  0  0  0  0  0  0  0  0  0  0
    0.1464    4.3459    1.5495 C   0  0  2  0  0  0  0  0  0  0  0  0
    0.5218    5.1193    0.2923 C   0  0  0  0  0  0  0  0  0  0  0  0
    1.3586    4.7211   -0.5154 O   0  0  0  0  0  0  0  0  0  0  0  0
    0.8583    4.9116    2.7684 C   0  0  0  0  0  0  0  0  0  0  0  0
    1.4356    2.6567    1.5453 H   0  0  0  0  0  0  0  0  0  0  0  0
   -0.9388    4.3862    1.6933 H   0  0  0  0  0  0  0  0  0  0  0  0
    1.9468    4.8795    2.6427 H   0  0  0  0  0  0  0  0  0  0  0  0
    0.5765    5.9550    2.9439 H   0  0  0  0  0  0  0  0  0  0  0  0
    0.6104    4.3357    3.6666 H   0  0  0  0  0  0  0  0  0  0  0  0
   -0.1561    6.3268    0.2004 N   0  0  0  0  0  0  0  0  0  0  0  0
    0.0364    7.2476   -0.8955 C   0  0  0  0  0  0  0  0  0  0  0  0
   -0.8461    6.5674    0.9060 H   0  0  0  0  0  0  0  0  0  0  0  0
    0.8152    7.9774   -0.6294 H   0  0  0  0  0  0  0  0  0  0  0  0
    0.3468    6.6907   -1.7919 H   0  0  0  0  0  0  0  0  0  0  0  0
   -0.9064    7.7759   -1.1002 H   0  0  0  0  0  0  0  0  0  0  0  0
  1  3  1  0  0  0  0
  1  7  1  0  0  0  0
  1  2  2  0  0  0  0
 34 35  1  0  0  0  0
 35 43  1  0  0  0  0
 35 36  2  0  0  0  0
  8  9  1  0  0  0  0
  9 17  1  0  0  0  0
  9 10  2  0  0  0  0
 18 19  1  0  0  0  0
 19 33  1  0  0  0  0
 19 20  2  0  0  0  0
 22 23  1  0  0  0  0
 23 24  2  0  0  0  0
 23 25  1  0  0  0  0
 34 37  1  0  0  0  0
  8 11  1  0  0  0  0
 43 44  1  0  0  0  0
 21 22  1  0  0  0  0
 18 21  1  0  0  0  0
 33 34  1  0  0  0  0
  7  8  1  0  0  0  0
 17 18  1  0  0  0  0
  3  4  1  0  0  0  0
  3  5  1  0  0  0  0
  3  6  1  0  0  0  0
 37 40  1  0  0  0  0
 37 41  1  0  0  0  0
 37 42  1  0  0  0  0
 11 14  1  0  0  0  0
 11 15  1  0  0  0  0
 11 16  1  0  0  0  0
 44 46  1  0  0  0  0
 44 47  1  0  0  0  0
 44 48  1  0  0  0  0
 22 30  1  0  0  0  0
 22 31  1  0  0  0  0
 21 28  1  0  0  0  0
 21 29  1  0  0  0  0
 34 39  1  0  0  0  0
  8 13  1  0  0  0  0
 18 27  1  0  0  0  0
 43 45  1  0  0  0  0
  7 12  1  0  0  0  0
 33 38  1  0  0  0  0
 17 26  1  0  0  0  0
 25 32  1  0  0  0  0
M  END
$$$$

  -OEChem-05262214473D

 48 47  0     1  0  0  0  0  0999 V2000
   -5.5827   -1.3473    1.4591 C   0  0  0  0  0  0  0  0  0  0  0  0
   -5.7053   -2.4696    0.9825 O   0  0  0  0  0  0  0  0  0  0  0  0
   -6.7879   -0.6277    1.9670 C   0  0  0  0  0  0  0  0  0  0  0  0
   -7.2718   -0.0164    1.1885 H   0  0  0  0  0  0  0  0  0  0  0  0
   -7.5699   -1.3171    2.3239 H   0  0  0  0  0  0  0  0  0  0  0  0
   -6.6057    0.0628    2.8060 H   0  0  0  0  0  0  0  0  0  0  0  0
   -4.4001   -0.6377    1.5884 N   0  0  0  0  0  0  0  0  0  0  0  0
   -3.1220   -1.1455    1.1644 C   0  0  2  0  0  0  0  0  0  0  0  0
   -2.2017    0.0428    0.9187 C   0  0  0  0  0  0  0  0  0  0  0  0
   -2.6171    1.1750    0.6807 O   0  0  0  0  0  0  0  0  0  0  0  0
   -3.2533   -1.9992   -0.0873 C   0  0  0  0  0  0  0  0  0  0  0  0
   -4.4370    0.2910    2.0047 H   0  0  0  0  0  0  0  0  0  0  0  0
   -2.7302   -1.7467    1.9921 H   0  0  0  0  0  0  0  0  0  0  0  0
   -3.6446   -1.4140   -0.9275 H   0  0  0  0  0  0  0  0  0  0  0  0
   -2.2844   -2.4081   -0.3922 H   0  0  0  0  0  0  0  0  0  0  0  0
   -3.9388   -2.8365    0.0822 H   0  0  0  0  0  0  0  0  0  0  0  0
   -0.8768   -0.3314    0.9568 N   0  0  0  0  0  0  0  0  0  0  0  0
    0.2067    0.6285    0.7375 C   0  0  2  0  0  0  0  0  0  0  0  0
   -0.4145    2.0161    0.8662 C   0  0  0  0  0  0  0  0  0  0  0  0
   -1.6303    2.1985    0.8638 O   0  0  0  0  0  0  0  0  0  0  0  0
    0.8217    0.3914   -0.6499 C   0  0  0  0  0  0  0  0  0  0  0  0
    1.5549   -0.9441   -0.7739 C   0  0  0  0  0  0  0  0  0  0  0  0
    2.1229   -1.1497   -2.1560 C   0  0  0  0  0  0  0  0  0  0  0  0
    1.9052   -0.4016   -3.1005 O   0  0  0  0  0  0  0  0  0  0  0  0
    2.8826   -2.2686   -2.2529 O   0  0  0  0  0  0  0  0  0  0  0  0
   -0.6087   -1.2764    1.1771 H   0  0  0  0  0  0  0  0  0  0  0  0
    0.9660    0.4758    1.5114 H   0  0  0  0  0  0  0  0  0  0  0  0
    0.0290    0.4345   -1.4087 H   0  0  0  0  0  0  0  0  0  0  0  0
    1.5306    1.1942   -0.8916 H   0  0  0  0  0  0  0  0  0  0  0  0
    2.4011   -0.9666   -0.0764 H   0  0  0  0  0  0  0  0  0  0  0  0
    0.9185   -1.7887   -0.4900 H   0  0  0  0  0  0  0  0  0  0  0  0
    3.2564   -2.4494   -3.1414 H   0  0  0  0  0  0  0  0  0  0  0  0
    0.5405    3.0114    1.0119 N   0  0  0  0  0  0  0  0  0  0  0  0
    0.2102    4.4111    1.1542 C   0  0  2  0  0  0  0  0  0  0  0  0
    0.2538    5.0476   -0.2287 C   0  0  0  0  0  0  0  0  0  0  0  0
    0.8914    4.5723   -1.1661 O   0  0  0  0  0  0  0  0  0  0  0  0
    1.1679    5.1117    2.1054 C   0  0  0  0  0  0  0  0  0  0  0  0
    1.5200    2.7433    1.0189 H   0  0  0  0  0  0  0  0  0  0  0  0
   -0.8118    4.4567    1.5458 H   0  0  0  0  0  0  0  0  0  0  0  0
    2.1971    5.0763    1.7298 H   0  0  0  0  0  0  0  0  0  0  0  0
    0.8992    6.1653    2.2343 H   0  0  0  0  0  0  0  0  0  0  0  0
    1.1573    4.6339    3.0910 H   0  0  0  0  0  0  0  0  0  0  0  0
   -0.4679    6.2319   -0.2812 N   0  0  0  0  0  0  0  0  0  0  0  0
   -0.5693    7.0307   -1.4802 C   0  0  0  0  0  0  0  0  0  0  0  0
   -0.9813    6.5409    0.5390 H   0  0  0  0  0  0  0  0  0  0  0  0
    0.2246    7.7921   -1.4823 H   0  0  0  0  0  0  0  0  0  0  0  0
   -0.4584    6.3831   -2.3625 H   0  0  0  0  0  0  0  0  0  0  0  0
   -1.5515    7.5251   -1.5093 H   0  0  0  0  0  0  0  0  0  0  0  0
  1  3  1  0  0  0  0
  1  7  1  0  0  0  0
  1  2  2  0  0  0  0
 34 35  1  0  0  0  0
 35 43  1  0  0  0  0
 35 36  2  0  0  0  0
  8  9  1  0  0  0  0
  9 17  1  0  0  0  0
  9 10  2  0  0  0  0
 18 19  1  0  0  0  0
 19 33  1  0  0  0  0
 19 20  2  0  0  0  0
 22 23  1  0  0  0  0
 23 24  2  0  0  0  0
 23 25  1  0  0  0  0
 34 37  1  0  0  0  0
  8 11  1  0  0  0  0
 43 44  1  0  0  0  0
 21 22  1  0  0  0  0
 18 21  1  0  0  0  0
 33 34  1  0  0  0  0
  7  8  1  0  0  0  0
 17 18  1  0  0  0  0
  3  4  1  0  0  0  0
  3  5  1  0  0  0  0
  3  6  1  0  0  0  0
 37 40  1  0  0  0  0
 37 41  1  0  0  0  0
 37 42  1  0  0  0  0
 11 14  1  0  0  0  0
 11 15  1  0  0  0  0
 11 16  1  0  0  0  0
 44 46  1  0  0  0  0
 44 47  1  0  0  0  0
 44 48  1  0  0  0  0
 22 30  1  0  0  0  0
 22 31  1  0  0  0  0
 21 28  1  0  0  0  0
 21 29  1  0  0  0  0
 34 39  1  0  0  0  0
  8 13  1  0  0  0  0
 18 27  1  0  0  0  0
 43 45  1  0  0  0  0
  7 12  1  0  0  0  0
 33 38  1  0  0  0  0
 17 26  1  0  0  0  0
 25 32  1  0  0  0  0
M  END
$$$$

  -OEChem-05262214473D

 48 47  0     1  0  0  0  0  0999 V2000
   -5.5827   -1.3473    1.4591 C   0  0  0  0  0  0  0  0  0  0  0  0
   -5.7053   -2.4696    0.9825 O   0  0  0  0  0  0  0  0  0  0  0  0
   -6.7879   -0.6277    1.9670 C   0  0  0  0  0  0  0  0  0  0  0  0
   -7.2718   -0.0164    1.1885 H   0  0  0  0  0  0  0  0  0  0  0  0
   -7.5699   -1.3171    2.3239 H   0  0  0  0  0  0  0  0  0  0  0  0
   -6.6057    0.0628    2.8060 H   0  0  0  0  0  0  0  0  0  0  0  0
   -4.4001   -0.6377    1.5884 N   0  0  0  0  0  0  0  0  0  0  0  0
   -3.1220   -1.1455    1.1644 C   0  0  2  0  0  0  0  0  0  0  0  0
   -2.2017    0.0428    0.9187 C   0  0  0  0  0  0  0  0  0  0  0  0
   -2.6171    1.1750    0.6807 O   0  0  0  0  0  0  0  0  0  0  0  0
   -3.2533   -1.9992   -0.0873 C   0  0  0  0  0  0  0  0  0  0  0  0
   -4.4370    0.2910    2.0047 H   0  0  0  0  0  0  0  0  0  0  0  0
   -2.7302   -1.7467    1.9921 H   0  0  0  0  0  0  0  0  0  0  0  0
   -3.6446   -1.4140   -0.9275 H   0  0  0  0  0  0  0  0  0  0  0  0
   -2.2844   -2.4081   -0.3922 H   0  0  0  0  0  0  0  0  0  0  0  0
   -3.9388   -2.8365    0.0822 H   0  0  0  0  0  0  0  0  0  0  0  0
   -0.8768   -0.3314    0.9568 N   0  0  0  0  0  0  0  0  0  0  0  0
    0.2067    0.6285    0.7375 C   0  0  2  0  0  0  0  0  0  0  0  0
   -0.3069    1.9778    1.2308 C   0  0  0  0  0  0  0  0  0  0  0  0
   -1.4230    2.1189    1.7266 O   0  0  0  0  0  0  0  0  0  0  0  0
    0.5689    0.6527   -0.7550 C   0  0  0  0  0  0  0  0  0  0  0  0
    1.1963   -0.6490   -1.2534 C   0  0  0  0  0  0  0  0  0  0  0  0
    1.5149   -0.5939   -2.7267 C   0  0  0  0  0  0  0  0  0  0  0  0
    1.1852    0.3286   -3.4612 O   0  0  0  0  0  0  0  0  0  0  0  0
    2.1850   -1.6891   -3.1627 O   0  0  0  0  0  0  0  0  0  0  0  0
   -0.6087   -1.2764    1.1771 H   0  0  0  0  0  0  0  0  0  0  0  0
    1.0743    0.3111    1.3252 H   0  0  0  0  0  0  0  0  0  0  0  0
   -0.3351    0.8604   -1.3429 H   0  0  0  0  0  0  0  0  0  0  0  0
    1.2712    1.4713   -0.9606 H   0  0  0  0  0  0  0  0  0  0  0  0
    2.1440   -0.8257   -0.7301 H   0  0  0  0  0  0  0  0  0  0  0  0
    0.5702   -1.5183   -1.0275 H   0  0  0  0  0  0  0  0  0  0  0  0
    2.3956   -1.7015   -4.1205 H   0  0  0  0  0  0  0  0  0  0  0  0
    0.6315    2.9880    1.0795 N   0  0  0  0  0  0  0  0  0  0  0  0
    0.3904    4.3581    1.4713 C   0  0  2  0  0  0  0  0  0  0  0  0
   -0.1159    5.1143    0.2501 C   0  0  0  0  0  0  0  0  0  0  0  0
    0.0954    4.7446   -0.9030 O   0  0  0  0  0  0  0  0  0  0  0  0
    1.6498    5.0043    2.0273 C   0  0  0  0  0  0  0  0  0  0  0  0
    1.5322    2.7534    0.6733 H   0  0  0  0  0  0  0  0  0  0  0  0
   -0.3921    4.3349    2.2376 H   0  0  0  0  0  0  0  0  0  0  0  0
    2.4452    5.0365    1.2737 H   0  0  0  0  0  0  0  0  0  0  0  0
    1.4585    6.0330    2.3501 H   0  0  0  0  0  0  0  0  0  0  0  0
    2.0293    4.4420    2.8873 H   0  0  0  0  0  0  0  0  0  0  0  0
   -0.7944    6.2738    0.5986 N   0  0  0  0  0  0  0  0  0  0  0  0
   -1.3601    7.1707   -0.3819 C   0  0  0  0  0  0  0  0  0  0  0  0
   -0.9389    6.4924    1.5800 H   0  0  0  0  0  0  0  0  0  0  0  0
   -0.6293    7.9556   -0.6265 H   0  0  0  0  0  0  0  0  0  0  0  0
   -1.6111    6.6070   -1.2926 H   0  0  0  0  0  0  0  0  0  0  0  0
   -2.2712    7.6325    0.0262 H   0  0  0  0  0  0  0  0  0  0  0  0
  1  3  1  0  0  0  0
  1  7  1  0  0  0  0
  1  2  2  0  0  0  0
 34 35  1  0  0  0  0
 35 43  1  0  0  0  0
 35 36  2  0  0  0  0
  8  9  1  0  0  0  0
  9 17  1  0  0  0  0
  9 10  2  0  0  0  0
 18 19  1  0  0  0  0
 19 33  1  0  0  0  0
 19 20  2  0  0  0  0
 22 23  1  0  0  0  0
 23 24  2  0  0  0  0
 23 25  1  0  0  0  0
 34 37  1  0  0  0  0
  8 11  1  0  0  0  0
 43 44  1  0  0  0  0
 21 22  1  0  0  0  0
 18 21  1  0  0  0  0
 33 34  1  0  0  0  0
  7  8  1  0  0  0  0
 17 18  1  0  0  0  0
  3  4  1  0  0  0  0
  3  5  1  0  0  0  0
  3  6  1  0  0  0  0
 37 40  1  0  0  0  0
 37 41  1  0  0  0  0
 37 42  1  0  0  0  0
 11 14  1  0  0  0  0
 11 15  1  0  0  0  0
 11 16  1  0  0  0  0
 44 46  1  0  0  0  0
 44 47  1  0  0  0  0
 44 48  1  0  0  0  0
 22 30  1  0  0  0  0
 22 31  1  0  0  0  0
 21 28  1  0  0  0  0
 21 29  1  0  0  0  0
 34 39  1  0  0  0  0
  8 13  1  0  0  0  0
 18 27  1  0  0  0  0
 43 45  1  0  0  0  0
  7 12  1  0  0  0  0
 33 38  1  0  0  0  0
 17 26  1  0  0  0  0
 25 32  1  0  0  0  0
M  END
$$$$

  -OEChem-05262214473D

 48 47  0     1  0  0  0  0  0999 V2000
   -5.5827   -1.3473    1.4591 C   0  0  0  0  0  0  0  0  0  0  0  0
   -5.7053   -2.4696    0.9825 O   0  0  0  0  0  0  0  0  0  0  0  0
   -6.7879   -0.6277    1.9670 C   0  0  0  0  0  0  0  0  0  0  0  0
   -7.2718   -0.0164    1.1885 H   0  0  0  0  0  0  0  0  0  0  0  0
   -7.5699   -1.3171    2.3239 H   0  0  0  0  0  0  0  0  0  0  0  0
   -6.6057    0.0628    2.8060 H   0  0  0  0  0  0  0  0  0  0  0  0
   -4.4001   -0.6377    1.5884 N   0  0  0  0  0  0  0  0  0  0  0  0
   -3.1220   -1.1455    1.1644 C   0  0  2  0  0  0  0  0  0  0  0  0
   -2.2017    0.0428    0.9187 C   0  0  0  0  0  0  0  0  0  0  0  0
   -2.6171    1.1750    0.6807 O   0  0  0  0  0  0  0  0  0  0  0  0
   -3.2533   -1.9992   -0.0873 C   0  0  0  0  0  0  0  0  0  0  0  0
   -4.4370    0.2910    2.0047 H   0  0  0  0  0  0  0  0  0  0  0  0
   -2.7302   -1.7467    1.9921 H   0  0  0  0  0  0  0  0  0  0  0  0
   -3.6446   -1.4140   -0.9275 H   0  0  0  0  0  0  0  0  0  0  0  0
   -2.2844   -2.4081   -0.3922 H   0  0  0  0  0  0  0  0  0  0  0  0
   -3.9388   -2.8365    0.0822 H   0  0  0  0  0  0  0  0  0  0  0  0
   -0.8768   -0.3314    0.9568 N   0  0  0  0  0  0  0  0  0  0  0  0
    0.2067    0.6285    0.7375 C   0  0  2  0  0  0  0  0  0  0  0  0
   -0.3069    1.9778    1.2308 C   0  0  0  0  0  0  0  0  0  0  0  0
   -1.2909    2.0838    1.9601 O   0  0  0  0  0  0  0  0  0  0  0  0
    0.5689    0.6527   -0.7550 C   0  0  0  0  0  0  0  0  0  0  0  0
    1.1963   -0.6490   -1.2534 C   0  0  0  0  0  0  0  0  0  0  0  0
    1.5149   -0.5939   -2.7267 C   0  0  0  0  0  0  0  0  0  0  0  0
    1.1852    0.3286   -3.4612 O   0  0  0  0  0  0  0  0  0  0  0  0
    2.1850   -1.6891   -3.1627 O   0  0  0  0  0  0  0  0  0  0  0  0
   -0.6087   -1.2764    1.1771 H   0  0  0  0  0  0  0  0  0  0  0  0
    1.0743    0.3111    1.3252 H   0  0  0  0  0  0  0  0  0  0  0  0
   -0.3351    0.8604   -1.3429 H   0  0  0  0  0  0  0  0  0  0  0  0
    1.2712    1.4713   -0.9606 H   0  0  0  0  0  0  0  0  0  0  0  0
    2.1440   -0.8257   -0.7301 H   0  0  0  0  0  0  0  0  0  0  0  0
    0.5702   -1.5183   -1.0275 H   0  0  0  0  0  0  0  0  0  0  0  0
    2.3956   -1.7015   -4.1205 H   0  0  0  0  0  0  0  0  0  0  0  0
    0.4743    3.0349    0.7877 N   0  0  0  0  0  0  0  0  0  0  0  0
    0.2002    4.4150    1.1176 C   0  0  2  0  0  0  0  0  0  0  0  0
   -0.6368    5.0101   -0.0071 C   0  0  0  0  0  0  0  0  0  0  0  0
   -0.6569    4.5470   -1.1455 O   0  0  0  0  0  0  0  0  0  0  0  0
    1.4861    5.2029    1.3137 C   0  0  0  0  0  0  0  0  0  0  0  0
    1.2784    2.8289    0.2026 H   0  0  0  0  0  0  0  0  0  0  0  0
   -0.3839    4.4086    2.0443 H   0  0  0  0  0  0  0  0  0  0  0  0
    2.0847    5.2204    0.3956 H   0  0  0  0  0  0  0  0  0  0  0  0
    1.2768    6.2412    1.5915 H   0  0  0  0  0  0  0  0  0  0  0  0
    2.1005    4.7560    2.1026 H   0  0  0  0  0  0  0  0  0  0  0  0
   -1.3251    6.1448    0.3989 N   0  0  0  0  0  0  0  0  0  0  0  0
   -2.1787    6.8985   -0.4896 C   0  0  0  0  0  0  0  0  0  0  0  0
   -1.2647    6.4462    1.3670 H   0  0  0  0  0  0  0  0  0  0  0  0
   -1.5986    7.7076   -0.9574 H   0  0  0  0  0  0  0  0  0  0  0  0
   -2.5743    6.2323   -1.2704 H   0  0  0  0  0  0  0  0  0  0  0  0
   -3.0137    7.3294    0.0824 H   0  0  0  0  0  0  0  0  0  0  0  0
  1  3  1  0  0  0  0
  1  7  1  0  0  0  0
  1  2  2  0  0  0  0
 34 35  1  0  0  0  0
 35 43  1  0  0  0  0
 35 36  2  0  0  0  0
  8  9  1  0  0  0  0
  9 17  1  0  0  0  0
  9 10  2  0  0  0  0
 18 19  1  0  0  0  0
 19 33  1  0  0  0  0
 19 20  2  0  0  0  0
 22 23  1  0  0  0  0
 23 24  2  0  0  0  0
 23 25  1  0  0  0  0
 34 37  1  0  0  0  0
  8 11  1  0  0  0  0
 43 44  1  0  0  0  0
 21 22  1  0  0  0  0
 18 21  1  0  0  0  0
 33 34  1  0  0  0  0
  7  8  1  0  0  0  0
 17 18  1  0  0  0  0
  3  4  1  0  0  0  0
  3  5  1  0  0  0  0
  3  6  1  0  0  0  0
 37 40  1  0  0  0  0
 37 41  1  0  0  0  0
 37 42  1  0  0  0  0
 11 14  1  0  0  0  0
 11 15  1  0  0  0  0
 11 16  1  0  0  0  0
 44 46  1  0  0  0  0
 44 47  1  0  0  0  0
 44 48  1  0  0  0  0
 22 30  1  0  0  0  0
 22 31  1  0  0  0  0
 21 28  1  0  0  0  0
 21 29  1  0  0  0  0
 34 39  1  0  0  0  0
  8 13  1  0  0  0  0
 18 27  1  0  0  0  0
 43 45  1  0  0  0  0
  7 12  1  0  0  0  0
 33 38  1  0  0  0  0
 17 26  1  0  0  0  0
 25 32  1  0  0  0  0
M  END
$$$$

  -OEChem-05262214473D

 48 47  0     1  0  0  0  0  0999 V2000
   -5.5827   -1.3473    1.4591 C   0  0  0  0  0  0  0  0  0  0  0  0
   -5.7053   -2.4696    0.9825 O   0  0  0  0  0  0  0  0  0  0  0  0
   -6.7879   -0.6277    1.9670 C   0  0  0  0  0  0  0  0  0  0  0  0
   -7.2718   -0.0164    1.1885 H   0  0  0  0  0  0  0  0  0  0  0  0
   -7.5699   -1.3171    2.3239 H   0  0  0  0  0  0  0  0  0  0  0  0
   -6.6057    0.0628    2.8060 H   0  0  0  0  0  0  0  0  0  0  0  0
   -4.4001   -0.6377    1.5884 N   0  0  0  0  0  0  0  0  0  0  0  0
   -3.1220   -1.1455    1.1644 C   0  0  2  0  0  0  0  0  0  0  0  0
   -2.2017    0.0428    0.9187 C   0  0  0  0  0  0  0  0  0  0  0  0
   -2.6171    1.1750    0.6807 O   0  0  0  0  0  0  0  0  0  0  0  0
   -3.2533   -1.9992   -0.0873 C   0  0  0  0  0  0  0  0  0  0  0  0
   -4.4370    0.2910    2.0047 H   0  0  0  0  0  0  0  0  0  0  0  0
   -2.7302   -1.7467    1.9921 H   0  0  0  0  0  0  0  0  0  0  0  0
   -3.6446   -1.4140   -0.9275 H   0  0  0  0  0  0  0  0  0  0  0  0
   -2.2844   -2.4081   -0.3922 H   0  0  0  0  0  0  0  0  0  0  0  0
   -3.9388   -2.8365    0.0822 H   0  0  0  0  0  0  0  0  0  0  0  0
   -0.8768   -0.3314    0.9568 N   0  0  0  0  0  0  0  0  0  0  0  0
    0.2067    0.6285    0.7375 C   0  0  2  0  0  0  0  0  0  0  0  0
   -0.3069    1.9778    1.2308 C   0  0  0  0  0  0  0  0  0  0  0  0
   -1.1069    2.0813    2.1586 O   0  0  0  0  0  0  0  0  0  0  0  0
    0.5689    0.6527   -0.7550 C   0  0  0  0  0  0  0  0  0  0  0  0
    1.1963   -0.6490   -1.2534 C   0  0  0  0  0  0  0  0  0  0  0  0
    1.5149   -0.5939   -2.7267 C   0  0  0  0  0  0  0  0  0  0  0  0
    1.1852    0.3286   -3.4612 O   0  0  0  0  0  0  0  0  0  0  0  0
    2.1850   -1.6891   -3.1627 O   0  0  0  0  0  0  0  0  0  0  0  0
   -0.6087   -1.2764    1.1771 H   0  0  0  0  0  0  0  0  0  0  0  0
    1.0743    0.3111    1.3252 H   0  0  0  0  0  0  0  0  0  0  0  0
   -0.3351    0.8604   -1.3429 H   0  0  0  0  0  0  0  0  0  0  0  0
    1.2712    1.4713   -0.9606 H   0  0  0  0  0  0  0  0  0  0  0  0
    2.1440   -0.8257   -0.7301 H   0  0  0  0  0  0  0  0  0  0  0  0
    0.5702   -1.5183   -1.0275 H   0  0  0  0  0  0  0  0  0  0  0  0
    2.3956   -1.7015   -4.1205 H   0  0  0  0  0  0  0  0  0  0  0  0
    0.2517    3.0415    0.5377 N   0  0  0  0  0  0  0  0  0  0  0  0
   -0.0693    4.4232    0.8145 C   0  0  2  0  0  0  0  0  0  0  0  0
   -1.1901    4.8435   -0.1272 C   0  0  0  0  0  0  0  0  0  0  0  0
   -1.4225    4.2720   -1.1904 O   0  0  0  0  0  0  0  0  0  0  0  0
    1.1479    5.3188    0.6445 C   0  0  0  0  0  0  0  0  0  0  0  0
    0.9191    2.8395   -0.2007 H   0  0  0  0  0  0  0  0  0  0  0  0
   -0.4265    4.4637    1.8493 H   0  0  0  0  0  0  0  0  0  0  0  0
    1.5201    5.2913   -0.3861 H   0  0  0  0  0  0  0  0  0  0  0  0
    0.9101    6.3609    0.8823 H   0  0  0  0  0  0  0  0  0  0  0  0
    1.9635    4.9968    1.3011 H   0  0  0  0  0  0  0  0  0  0  0  0
   -1.8726    5.9584    0.3387 N   0  0  0  0  0  0  0  0  0  0  0  0
   -2.9712    6.5576   -0.3824 C   0  0  0  0  0  0  0  0  0  0  0  0
   -1.6244    6.3558    1.2399 H   0  0  0  0  0  0  0  0  0  0  0  0
   -2.5900    7.3581   -1.0335 H   0  0  0  0  0  0  0  0  0  0  0  0
   -3.4682    5.7917   -0.9959 H   0  0  0  0  0  0  0  0  0  0  0  0
   -3.6926    6.9794    0.3329 H   0  0  0  0  0  0  0  0  0  0  0  0
  1  3  1  0  0  0  0
  1  7  1  0  0  0  0
  1  2  2  0  0  0  0
 34 35  1  0  0  0  0
 35 43  1  0  0  0  0
 35 36  2  0  0  0  0
  8  9  1  0  0  0  0
  9 17  1  0  0  0  0
  9 10  2  0  0  0  0
 18 19  1  0  0  0  0
 19 33  1  0  0  0  0
 19 20  2  0  0  0  0
 22 23  1  0  0  0  0
 23 24  2  0  0  0  0
 23 25  1  0  0  0  0
 34 37  1  0  0  0  0
  8 11  1  0  0  0  0
 43 44  1  0  0  0  0
 21 22  1  0  0  0  0
 18 21  1  0  0  0  0
 33 34  1  0  0  0  0
  7  8  1  0  0  0  0
 17 18  1  0  0  0  0
  3  4  1  0  0  0  0
  3  5  1  0  0  0  0
  3  6  1  0  0  0  0
 37 40  1  0  0  0  0
 37 41  1  0  0  0  0
 37 42  1  0  0  0  0
 11 14  1  0  0  0  0
 11 15  1  0  0  0  0
 11 16  1  0  0  0  0
 44 46  1  0  0  0  0
 44 47  1  0  0  0  0
 44 48  1  0  0  0  0
 22 30  1  0  0  0  0
 22 31  1  0  0  0  0
 21 28  1  0  0  0  0
 21 29  1  0  0  0  0
 34 39  1  0  0  0  0
  8 13  1  0  0  0  0
 18 27  1  0  0  0  0
 43 45  1  0  0  0  0
  7 12  1  0  0  0  0
 33 38  1  0  0  0  0
 17 26  1  0  0  0  0
 25 32  1  0  0  0  0
M  END
$$$$

  -OEChem-05262214473D

 48 47  0     1  0  0  0  0  0999 V2000
   -5.5827   -1.3473    1.4591 C   0  0  0  0  0  0  0  0  0  0  0  0
   -5.7053   -2.4696    0.9825 O   0  0  0  0  0  0  0  0  0  0  0  0
   -6.7879   -0.6277    1.9670 C   0  0  0  0  0  0  0  0  0  0  0  0
   -7.2718   -0.0164    1.1885 H   0  0  0  0  0  0  0  0  0  0  0  0
   -7.5699   -1.3171    2.3239 H   0  0  0  0  0  0  0  0  0  0  0  0
   -6.6057    0.0628    2.8060 H   0  0  0  0  0  0  0  0  0  0  0  0
   -4.4001   -0.6377    1.5884 N   0  0  0  0  0  0  0  0  0  0  0  0
   -3.1220   -1.1455    1.1644 C   0  0  2  0  0  0  0  0  0  0  0  0
   -2.2017    0.0428    0.9187 C   0  0  0  0  0  0  0  0  0  0  0  0
   -2.6171    1.1750    0.6807 O   0  0  0  0  0  0  0  0  0  0  0  0
   -3.2533   -1.9992   -0.0873 C   0  0  0  0  0  0  0  0  0  0  0  0
   -4.4370    0.2910    2.0047 H   0  0  0  0  0  0  0  0  0  0  0  0
   -2.7302   -1.7467    1.9921 H   0  0  0  0  0  0  0  0  0  0  0  0
   -3.6446   -1.4140   -0.9275 H   0  0  0  0  0  0  0  0  0  0  0  0
   -2.2844   -2.4081   -0.3922 H   0  0  0  0  0  0  0  0  0  0  0  0
   -3.9388   -2.8365    0.0822 H   0  0  0  0  0  0  0  0  0  0  0  0
   -0.8768   -0.3314    0.9568 N   0  0  0  0  0  0  0  0  0  0  0  0
    0.2067    0.6285    0.7375 C   0  0  2  0  0  0  0  0  0  0  0  0
   -0.3069    1.9778    1.2308 C   0  0  0  0  0  0  0  0  0  0  0  0
   -0.8835    2.1115    2.3083 O   0  0  0  0  0  0  0  0  0  0  0  0
    0.5689    0.6527   -0.7550 C   0  0  0  0  0  0  0  0  0  0  0  0
    1.1963   -0.6490   -1.2534 C   0  0  0  0  0  0  0  0  0  0  0  0
    1.5149   -0.5939   -2.7267 C   0  0  0  0  0  0  0  0  0  0  0  0
    1.1852    0.3286   -3.4612 O   0  0  0  0  0  0  0  0  0  0  0  0
    2.1850   -1.6891   -3.1627 O   0  0  0  0  0  0  0  0  0  0  0  0
   -0.6087   -1.2764    1.1771 H   0  0  0  0  0  0  0  0  0  0  0  0
    1.0743    0.3111    1.3252 H   0  0  0  0  0  0  0  0  0  0  0  0
   -0.3351    0.8604   -1.3429 H   0  0  0  0  0  0  0  0  0  0  0  0
    1.2712    1.4713   -0.9606 H   0  0  0  0  0  0  0  0  0  0  0  0
    2.1440   -0.8257   -0.7301 H   0  0  0  0  0  0  0  0  0  0  0  0
    0.5702   -1.5183   -1.0275 H   0  0  0  0  0  0  0  0  0  0  0  0
    2.3956   -1.7015   -4.1205 H   0  0  0  0  0  0  0  0  0  0  0  0
   -0.0211    3.0076    0.3466 N   0  0  0  0  0  0  0  0  0  0  0  0
   -0.3997    4.3822    0.5827 C   0  0  2  0  0  0  0  0  0  0  0  0
   -1.7381    4.6257   -0.1020 C   0  0  0  0  0  0  0  0  0  0  0  0
   -2.1493    3.9384   -1.0346 O   0  0  0  0  0  0  0  0  0  0  0  0
    0.6585    5.3442    0.0655 C   0  0  0  0  0  0  0  0  0  0  0  0
    0.4788    2.7846   -0.5088 H   0  0  0  0  0  0  0  0  0  0  0  0
   -0.5169    4.4964    1.6659 H   0  0  0  0  0  0  0  0  0  0  0  0
    0.7899    5.2444   -1.0181 H   0  0  0  0  0  0  0  0  0  0  0  0
    0.3836    6.3841    0.2707 H   0  0  0  0  0  0  0  0  0  0  0  0
    1.6274    5.1482    0.5373 H   0  0  0  0  0  0  0  0  0  0  0  0
   -2.3997    5.7273    0.4221 N   0  0  0  0  0  0  0  0  0  0  0  0
   -3.6837    6.1714   -0.0678 C   0  0  0  0  0  0  0  0  0  0  0  0
   -1.9933    6.2273    1.2074 H   0  0  0  0  0  0  0  0  0  0  0  0
   -3.5357    6.9309   -0.8496 H   0  0  0  0  0  0  0  0  0  0  0  0
   -4.2320    5.3152   -0.4877 H   0  0  0  0  0  0  0  0  0  0  0  0
   -4.2618    6.6063    0.7609 H   0  0  0  0  0  0  0  0  0  0  0  0
  1  3  1  0  0  0  0
  1  7  1  0  0  0  0
  1  2  2  0  0  0  0
 34 35  1  0  0  0  0
 35 43  1  0  0  0  0
 35 36  2  0  0  0  0
  8  9  1  0  0  0  0
  9 17  1  0  0  0  0
  9 10  2  0  0  0  0
 18 19  1  0  0  0  0
 19 33  1  0  0  0  0
 19 20  2  0  0  0  0
 22 23  1  0  0  0  0
 23 24  2  0  0  0  0
 23 25  1  0  0  0  0
 34 37  1  0  0  0  0
  8 11  1  0  0  0  0
 43 44  1  0  0  0  0
 21 22  1  0  0  0  0
 18 21  1  0  0  0  0
 33 34  1  0  0  0  0
  7  8  1  0  0  0  0
 17 18  1  0  0  0  0
  3  4  1  0  0  0  0
  3  5  1  0  0  0  0
  3  6  1  0  0  0  0
 37 40  1  0  0  0  0
 37 41  1  0  0  0  0
 37 42  1  0  0  0  0
 11 14  1  0  0  0  0
 11 15  1  0  0  0  0
 11 16  1  0  0  0  0
 44 46  1  0  0  0  0
 44 47  1  0  0  0  0
 44 48  1  0  0  0  0
 22 30  1  0  0  0  0
 22 31  1  0  0  0  0
 21 28  1  0  0  0  0
 21 29  1  0  0  0  0
 34 39  1  0  0  0  0
  8 13  1  0  0  0  0
 18 27  1  0  0  0  0
 43 45  1  0  0  0  0
  7 12  1  0  0  0  0
 33 38  1  0  0  0  0
 17 26  1  0  0  0  0
 25 32  1  0  0  0  0
M  END
$$$$

  -OEChem-05262214473D

 48 47  0     1  0  0  0  0  0999 V2000
   -5.5827   -1.3473    1.4591 C   0  0  0  0  0  0  0  0  0  0  0  0
   -5.7053   -2.4696    0.9825 O   0  0  0  0  0  0  0  0  0  0  0  0
   -6.7879   -0.6277    1.9670 C   0  0  0  0  0  0  0  0  0  0  0  0
   -7.2718   -0.0164    1.1885 H   0  0  0  0  0  0  0  0  0  0  0  0
   -7.5699   -1.3171    2.3239 H   0  0  0  0  0  0  0  0  0  0  0  0
   -6.6057    0.0628    2.8060 H   0  0  0  0  0  0  0  0  0  0  0  0
   -4.4001   -0.6377    1.5884 N   0  0  0  0  0  0  0  0  0  0  0  0
   -3.1220   -1.1455    1.1644 C   0  0  2  0  0  0  0  0  0  0  0  0
   -2.2017    0.0428    0.9187 C   0  0  0  0  0  0  0  0  0  0  0  0
   -2.6171    1.1750    0.6807 O   0  0  0  0  0  0  0  0  0  0  0  0
   -3.2533   -1.9992   -0.0873 C   0  0  0  0  0  0  0  0  0  0  0  0
   -4.4370    0.2910    2.0047 H   0  0  0  0  0  0  0  0  0  0  0  0
   -2.7302   -1.7467    1.9921 H   0  0  0  0  0  0  0  0  0  0  0  0
   -3.6446   -1.4140   -0.9275 H   0  0  0  0  0  0  0  0  0  0  0  0
   -2.2844   -2.4081   -0.3922 H   0  0  0  0  0  0  0  0  0  0  0  0
   -3.9388   -2.8365    0.0822 H   0  0  0  0  0  0  0  0  0  0  0  0
   -0.8768   -0.3314    0.9568 N   0  0  0  0  0  0  0  0  0  0  0  0
    0.2067    0.6285    0.7375 C   0  0  2  0  0  0  0  0  0  0  0  0
   -0.3069    1.9778    1.2308 C   0  0  0  0  0  0  0  0  0  0  0  0
   -0.6359    2.1725    2.3992 O   0  0  0  0  0  0  0  0  0  0  0  0
    0.5689    0.6527   -0.7550 C   0  0  0  0  0  0  0  0  0  0  0  0
    1.1963   -0.6490   -1.2534 C   0  0  0  0  0  0  0  0  0  0  0  0
    1.5149   -0.5939   -2.7267 C   0  0  0  0  0  0  0  0  0  0  0  0
    1.1852    0.3286   -3.4612 O   0  0  0  0  0  0  0  0  0  0  0  0
    2.1850   -1.6891   -3.1627 O   0  0  0  0  0  0  0  0  0  0  0  0
   -0.6087   -1.2764    1.1771 H   0  0  0  0  0  0  0  0  0  0  0  0
    1.0743    0.3111    1.3252 H   0  0  0  0  0  0  0  0  0  0  0  0
   -0.3351    0.8604   -1.3429 H   0  0  0  0  0  0  0  0  0  0  0  0
    1.2712    1.4713   -0.9606 H   0  0  0  0  0  0  0  0  0  0  0  0
    2.1440   -0.8257   -0.7301 H   0  0  0  0  0  0  0  0  0  0  0  0
    0.5702   -1.5183   -1.0275 H   0  0  0  0  0  0  0  0  0  0  0  0
    2.3956   -1.7015   -4.1205 H   0  0  0  0  0  0  0  0  0  0  0  0
   -0.3254    2.9353    0.2274 N   0  0  0  0  0  0  0  0  0  0  0  0
   -0.7684    4.2948    0.4381 C   0  0  2  0  0  0  0  0  0  0  0  0
   -2.2434    4.3717    0.0666 C   0  0  0  0  0  0  0  0  0  0  0  0
   -2.7877    3.5689   -0.6886 O   0  0  0  0  0  0  0  0  0  0  0  0
    0.0510    5.2774   -0.3840 C   0  0  0  0  0  0  0  0  0  0  0  0
   -0.0124    2.6679   -0.7009 H   0  0  0  0  0  0  0  0  0  0  0  0
   -0.6489    4.5044    1.5066 H   0  0  0  0  0  0  0  0  0  0  0  0
   -0.0561    5.0830   -1.4574 H   0  0  0  0  0  0  0  0  0  0  0  0
   -0.2669    6.3092   -0.2016 H   0  0  0  0  0  0  0  0  0  0  0  0
    1.1153    5.1998   -0.1368 H   0  0  0  0  0  0  0  0  0  0  0  0
   -2.8704    5.4672    0.6435 N   0  0  0  0  0  0  0  0  0  0  0  0
   -4.2676    5.7662    0.4328 C   0  0  0  0  0  0  0  0  0  0  0  0
   -2.3463    6.0695    1.2715 H   0  0  0  0  0  0  0  0  0  0  0  0
   -4.3714    6.4552   -0.4184 H   0  0  0  0  0  0  0  0  0  0  0  0
   -4.8135    4.8353    0.2195 H   0  0  0  0  0  0  0  0  0  0  0  0
   -4.6824    6.2356    1.3370 H   0  0  0  0  0  0  0  0  0  0  0  0
  1  3  1  0  0  0  0
  1  7  1  0  0  0  0
  1  2  2  0  0  0  0
 34 35  1  0  0  0  0
 35 43  1  0  0  0  0
 35 36  2  0  0  0  0
  8  9  1  0  0  0  0
  9 17  1  0  0  0  0
  9 10  2  0  0  0  0
 18 19  1  0  0  0  0
 19 33  1  0  0  0  0
 19 20  2  0  0  0  0
 22 23  1  0  0  0  0
 23 24  2  0  0  0  0
 23 25  1  0  0  0  0
 34 37  1  0  0  0  0
  8 11  1  0  0  0  0
 43 44  1  0  0  0  0
 21 22  1  0  0  0  0
 18 21  1  0  0  0  0
 33 34  1  0  0  0  0
  7  8  1  0  0  0  0
 17 18  1  0  0  0  0
  3  4  1  0  0  0  0
  3  5  1  0  0  0  0
  3  6  1  0  0  0  0
 37 40  1  0  0  0  0
 37 41  1  0  0  0  0
 37 42  1  0  0  0  0
 11 14  1  0  0  0  0
 11 15  1  0  0  0  0
 11 16  1  0  0  0  0
 44 46  1  0  0  0  0
 44 47  1  0  0  0  0
 44 48  1  0  0  0  0
 22 30  1  0  0  0  0
 22 31  1  0  0  0  0
 21 28  1  0  0  0  0
 21 29  1  0  0  0  0
 34 39  1  0  0  0  0
  8 13  1  0  0  0  0
 18 27  1  0  0  0  0
 43 45  1  0  0  0  0
  7 12  1  0  0  0  0
 33 38  1  0  0  0  0
 17 26  1  0  0  0  0
 25 32  1  0  0  0  0
M  END
$$$$

  -OEChem-05262214473D

 48 47  0     1  0  0  0  0  0999 V2000
   -5.5827   -1.3473    1.4591 C   0  0  0  0  0  0  0  0  0  0  0  0
   -5.7053   -2.4696    0.9825 O   0  0  0  0  0  0  0  0  0  0  0  0
   -6.7879   -0.6277    1.9670 C   0  0  0  0  0  0  0  0  0  0  0  0
   -7.2718   -0.0164    1.1885 H   0  0  0  0  0  0  0  0  0  0  0  0
   -7.5699   -1.3171    2.3239 H   0  0  0  0  0  0  0  0  0  0  0  0
   -6.6057    0.0628    2.8060 H   0  0  0  0  0  0  0  0  0  0  0  0
   -4.4001   -0.6377    1.5884 N   0  0  0  0  0  0  0  0  0  0  0  0
   -3.1220   -1.1455    1.1644 C   0  0  2  0  0  0  0  0  0  0  0  0
   -2.2017    0.0428    0.9187 C   0  0  0  0  0  0  0  0  0  0  0  0
   -2.6171    1.1750    0.6807 O   0  0  0  0  0  0  0  0  0  0  0  0
   -3.2533   -1.9992   -0.0873 C   0  0  0  0  0  0  0  0  0  0  0  0
   -4.4370    0.2910    2.0047 H   0  0  0  0  0  0  0  0  0  0  0  0
   -2.7302   -1.7467    1.9921 H   0  0  0  0  0  0  0  0  0  0  0  0
   -3.6446   -1.4140   -0.9275 H   0  0  0  0  0  0  0  0  0  0  0  0
   -2.2844   -2.4081   -0.3922 H   0  0  0  0  0  0  0  0  0  0  0  0
   -3.9388   -2.8365    0.0822 H   0  0  0  0  0  0  0  0  0  0  0  0
   -0.8768   -0.3314    0.9568 N   0  0  0  0  0  0  0  0  0  0  0  0
    0.2067    0.6285    0.7375 C   0  0  2  0  0  0  0  0  0  0  0  0
   -0.3069    1.9778    1.2308 C   0  0  0  0  0  0  0  0  0  0  0  0
   -0.3811    2.2600    2.4251 O   0  0  0  0  0  0  0  0  0  0  0  0
    0.5689    0.6527   -0.7550 C   0  0  0  0  0  0  0  0  0  0  0  0
    1.1963   -0.6490   -1.2534 C   0  0  0  0  0  0  0  0  0  0  0  0
    1.5149   -0.5939   -2.7267 C   0  0  0  0  0  0  0  0  0  0  0  0
    1.1852    0.3286   -3.4612 O   0  0  0  0  0  0  0  0  0  0  0  0
    2.1850   -1.6891   -3.1627 O   0  0  0  0  0  0  0  0  0  0  0  0
   -0.6087   -1.2764    1.1771 H   0  0  0  0  0  0  0  0  0  0  0  0
    1.0743    0.3111    1.3252 H   0  0  0  0  0  0  0  0  0  0  0  0
   -0.3351    0.8604   -1.3429 H   0  0  0  0  0  0  0  0  0  0  0  0
    1.2712    1.4713   -0.9606 H   0  0  0  0  0  0  0  0  0  0  0  0
    2.1440   -0.8257   -0.7301 H   0  0  0  0  0  0  0  0  0  0  0  0
    0.5702   -1.5183   -1.0275 H   0  0  0  0  0  0  0  0  0  0  0  0
    2.3956   -1.7015   -4.1205 H   0  0  0  0  0  0  0  0  0  0  0  0
   -0.6407    2.8297    0.1883 N   0  0  0  0  0  0  0  0  0  0  0  0
   -1.1504    4.1668    0.3903 C   0  0  2  0  0  0  0  0  0  0  0  0
   -2.6717    4.0987    0.3674 C   0  0  0  0  0  0  0  0  0  0  0  0
   -3.2943    3.1887   -0.1761 O   0  0  0  0  0  0  0  0  0  0  0  0
   -0.6330    5.1228   -0.6733 C   0  0  0  0  0  0  0  0  0  0  0  0
   -0.5210    2.4973   -0.7639 H   0  0  0  0  0  0  0  0  0  0  0  0
   -0.8135    4.4872    1.3822 H   0  0  0  0  0  0  0  0  0  0  0  0
   -0.9604    4.8180   -1.6739 H   0  0  0  0  0  0  0  0  0  0  0  0
   -0.9971    6.1412   -0.5023 H   0  0  0  0  0  0  0  0  0  0  0  0
    0.4621    5.1480   -0.6752 H   0  0  0  0  0  0  0  0  0  0  0  0
   -3.2526    5.1959    0.9877 N   0  0  0  0  0  0  0  0  0  0  0  0
   -4.6831    5.3695    1.0853 C   0  0  0  0  0  0  0  0  0  0  0  0
   -2.6595    5.8931    1.4281 H   0  0  0  0  0  0  0  0  0  0  0  0
   -5.0401    5.9633    0.2309 H   0  0  0  0  0  0  0  0  0  0  0  0
   -5.1732    4.3847    1.0776 H   0  0  0  0  0  0  0  0  0  0  0  0
   -4.9258    5.8925    2.0221 H   0  0  0  0  0  0  0  0  0  0  0  0
  1  3  1  0  0  0  0
  1  7  1  0  0  0  0
  1  2  2  0  0  0  0
 34 35  1  0  0  0  0
 35 43  1  0  0  0  0
 35 36  2  0  0  0  0
  8  9  1  0  0  0  0
  9 17  1  0  0  0  0
  9 10  2  0  0  0  0
 18 19  1  0  0  0  0
 19 33  1  0  0  0  0
 19 20  2  0  0  0  0
 22 23  1  0  0  0  0
 23 24  2  0  0  0  0
 23 25  1  0  0  0  0
 34 37  1  0  0  0  0
  8 11  1  0  0  0  0
 43 44  1  0  0  0  0
 21 22  1  0  0  0  0
 18 21  1  0  0  0  0
 33 34  1  0  0  0  0
  7  8  1  0  0  0  0
 17 18  1  0  0  0  0
  3  4  1  0  0  0  0
  3  5  1  0  0  0  0
  3  6  1  0  0  0  0
 37 40  1  0  0  0  0
 37 41  1  0  0  0  0
 37 42  1  0  0  0  0
 11 14  1  0  0  0  0
 11 15  1  0  0  0  0
 11 16  1  0  0  0  0
 44 46  1  0  0  0  0
 44 47  1  0  0  0  0
 44 48  1  0  0  0  0
 22 30  1  0  0  0  0
 22 31  1  0  0  0  0
 21 28  1  0  0  0  0
 21 29  1  0  0  0  0
 34 39  1  0  0  0  0
  8 13  1  0  0  0  0
 18 27  1  0  0  0  0
 43 45  1  0  0  0  0
  7 12  1  0  0  0  0
 33 38  1  0  0  0  0
 17 26  1  0  0  0  0
 25 32  1  0  0  0  0
M  END
$$$$

  -OEChem-05262214473D

 48 47  0     1  0  0  0  0  0999 V2000
   -5.5827   -1.3473    1.4591 C   0  0  0  0  0  0  0  0  0  0  0  0
   -5.7053   -2.4696    0.9825 O   0  0  0  0  0  0  0  0  0  0  0  0
   -6.7879   -0.6277    1.9670 C   0  0  0  0  0  0  0  0  0  0  0  0
   -7.2718   -0.0164    1.1885 H   0  0  0  0  0  0  0  0  0  0  0  0
   -7.5699   -1.3171    2.3239 H   0  0  0  0  0  0  0  0  0  0  0  0
   -6.6057    0.0628    2.8060 H   0  0  0  0  0  0  0  0  0  0  0  0
   -4.4001   -0.6377    1.5884 N   0  0  0  0  0  0  0  0  0  0  0  0
   -3.1220   -1.1455    1.1644 C   0  0  2  0  0  0  0  0  0  0  0  0
   -2.2017    0.0428    0.9187 C   0  0  0  0  0  0  0  0  0  0  0  0
   -2.6171    1.1750    0.6807 O   0  0  0  0  0  0  0  0  0  0  0  0
   -3.2533   -1.9992   -0.0873 C   0  0  0  0  0  0  0  0  0  0  0  0
   -4.4370    0.2910    2.0047 H   0  0  0  0  0  0  0  0  0  0  0  0
   -2.7302   -1.7467    1.9921 H   0  0  0  0  0  0  0  0  0  0  0  0
   -3.6446   -1.4140   -0.9275 H   0  0  0  0  0  0  0  0  0  0  0  0
   -2.2844   -2.4081   -0.3922 H   0  0  0  0  0  0  0  0  0  0  0  0
   -3.9388   -2.8365    0.0822 H   0  0  0  0  0  0  0  0  0  0  0  0
   -0.8768   -0.3314    0.9568 N   0  0  0  0  0  0  0  0  0  0  0  0
    0.2067    0.6285    0.7375 C   0  0  2  0  0  0  0  0  0  0  0  0
   -0.3069    1.9778    1.2308 C   0  0  0  0  0  0  0  0  0  0  0  0
   -0.1364    2.3682    2.3841 O   0  0  0  0  0  0  0  0  0  0  0  0
    0.5689    0.6527   -0.7550 C   0  0  0  0  0  0  0  0  0  0  0  0
    1.1963   -0.6490   -1.2534 C   0  0  0  0  0  0  0  0  0  0  0  0
    1.5149   -0.5939   -2.7267 C   0  0  0  0  0  0  0  0  0  0  0  0
    1.1852    0.3286   -3.4612 O   0  0  0  0  0  0  0  0  0  0  0  0
    2.1850   -1.6891   -3.1627 O   0  0  0  0  0  0  0  0  0  0  0  0
   -0.6087   -1.2764    1.1771 H   0  0  0  0  0  0  0  0  0  0  0  0
    1.0743    0.3111    1.3252 H   0  0  0  0  0  0  0  0  0  0  0  0
   -0.3351    0.8604   -1.3429 H   0  0  0  0  0  0  0  0  0  0  0  0
    1.2712    1.4713   -0.9606 H   0  0  0  0  0  0  0  0  0  0  0  0
    2.1440   -0.8257   -0.7301 H   0  0  0  0  0  0  0  0  0  0  0  0
    0.5702   -1.5183   -1.0275 H   0  0  0  0  0  0  0  0  0  0  0  0
    2.3956   -1.7015   -4.1205 H   0  0  0  0  0  0  0  0  0  0  0  0
   -0.9453    2.6978    0.2318 N   0  0  0  0  0  0  0  0  0  0  0  0
   -1.5196    4.0071    0.4428 C   0  0  2  0  0  0  0  0  0  0  0  0
   -2.9937    3.8254    0.7797 C   0  0  0  0  0  0  0  0  0  0  0  0
   -3.6344    2.8238    0.4680 O   0  0  0  0  0  0  0  0  0  0  0  0
   -1.3470    4.8910   -0.7827 C   0  0  0  0  0  0  0  0  0  0  0  0
   -1.0125    2.2845   -0.6934 H   0  0  0  0  0  0  0  0  0  0  0  0
   -0.9995    4.4460    1.3013 H   0  0  0  0  0  0  0  0  0  0  0  0
   -1.8613    4.4675   -1.6531 H   0  0  0  0  0  0  0  0  0  0  0  0
   -1.7572    5.8917   -0.6110 H   0  0  0  0  0  0  0  0  0  0  0  0
   -0.2878    4.9964   -1.0412 H   0  0  0  0  0  0  0  0  0  0  0  0
   -3.5203    4.9319    1.4313 N   0  0  0  0  0  0  0  0  0  0  0  0
   -4.9019    5.0084    1.8453 C   0  0  0  0  0  0  0  0  0  0  0  0
   -2.9113    5.7101    1.6664 H   0  0  0  0  0  0  0  0  0  0  0  0
   -5.4962    5.4888    1.0540 H   0  0  0  0  0  0  0  0  0  0  0  0
   -5.2865    3.9941    2.0279 H   0  0  0  0  0  0  0  0  0  0  0  0
   -4.9754    5.6004    2.7695 H   0  0  0  0  0  0  0  0  0  0  0  0
  1  3  1  0  0  0  0
  1  7  1  0  0  0  0
  1  2  2  0  0  0  0
 34 35  1  0  0  0  0
 35 43  1  0  0  0  0
 35 36  2  0  0  0  0
  8  9  1  0  0  0  0
  9 17  1  0  0  0  0
  9 10  2  0  0  0  0
 18 19  1  0  0  0  0
 19 33  1  0  0  0  0
 19 20  2  0  0  0  0
 22 23  1  0  0  0  0
 23 24  2  0  0  0  0
 23 25  1  0  0  0  0
 34 37  1  0  0  0  0
  8 11  1  0  0  0  0
 43 44  1  0  0  0  0
 21 22  1  0  0  0  0
 18 21  1  0  0  0  0
 33 34  1  0  0  0  0
  7  8  1  0  0  0  0
 17 18  1  0  0  0  0
  3  4  1  0  0  0  0
  3  5  1  0  0  0  0
  3  6  1  0  0  0  0
 37 40  1  0  0  0  0
 37 41  1  0  0  0  0
 37 42  1  0  0  0  0
 11 14  1  0  0  0  0
 11 15  1  0  0  0  0
 11 16  1  0  0  0  0
 44 46  1  0  0  0  0
 44 47  1  0  0  0  0
 44 48  1  0  0  0  0
 22 30  1  0  0  0  0
 22 31  1  0  0  0  0
 21 28  1  0  0  0  0
 21 29  1  0  0  0  0
 34 39  1  0  0  0  0
  8 13  1  0  0  0  0
 18 27  1  0  0  0  0
 43 45  1  0  0  0  0
  7 12  1  0  0  0  0
 33 38  1  0  0  0  0
 17 26  1  0  0  0  0
 25 32  1  0  0  0  0
M  END
$$$$

  -OEChem-05262214473D

 48 47  0     1  0  0  0  0  0999 V2000
   -5.5827   -1.3473    1.4591 C   0  0  0  0  0  0  0  0  0  0  0  0
   -5.7053   -2.4696    0.9825 O   0  0  0  0  0  0  0  0  0  0  0  0
   -6.7879   -0.6277    1.9670 C   0  0  0  0  0  0  0  0  0  0  0  0
   -7.2718   -0.0164    1.1885 H   0  0  0  0  0  0  0  0  0  0  0  0
   -7.5699   -1.3171    2.3239 H   0  0  0  0  0  0  0  0  0  0  0  0
   -6.6057    0.0628    2.8060 H   0  0  0  0  0  0  0  0  0  0  0  0
   -4.4001   -0.6377    1.5884 N   0  0  0  0  0  0  0  0  0  0  0  0
   -3.1220   -1.1455    1.1644 C   0  0  2  0  0  0  0  0  0  0  0  0
   -2.2017    0.0428    0.9187 C   0  0  0  0  0  0  0  0  0  0  0  0
   -2.6171    1.1750    0.6807 O   0  0  0  0  0  0  0  0  0  0  0  0
   -3.2533   -1.9992   -0.0873 C   0  0  0  0  0  0  0  0  0  0  0  0
   -4.4370    0.2910    2.0047 H   0  0  0  0  0  0  0  0  0  0  0  0
   -2.7302   -1.7467    1.9921 H   0  0  0  0  0  0  0  0  0  0  0  0
   -3.6446   -1.4140   -0.9275 H   0  0  0  0  0  0  0  0  0  0  0  0
   -2.2844   -2.4081   -0.3922 H   0  0  0  0  0  0  0  0  0  0  0  0
   -3.9388   -2.8365    0.0822 H   0  0  0  0  0  0  0  0  0  0  0  0
   -0.8768   -0.3314    0.9568 N   0  0  0  0  0  0  0  0  0  0  0  0
    0.2067    0.6285    0.7375 C   0  0  2  0  0  0  0  0  0  0  0  0
   -0.3069    1.9778    1.2308 C   0  0  0  0  0  0  0  0  0  0  0  0
    0.0815    2.4895    2.2790 O   0  0  0  0  0  0  0  0  0  0  0  0
    0.5689    0.6527   -0.7550 C   0  0  0  0  0  0  0  0  0  0  0  0
    1.1963   -0.6490   -1.2534 C   0  0  0  0  0  0  0  0  0  0  0  0
    1.5149   -0.5939   -2.7267 C   0  0  0  0  0  0  0  0  0  0  0  0
    1.1852    0.3286   -3.4612 O   0  0  0  0  0  0  0  0  0  0  0  0
    2.1850   -1.6891   -3.1627 O   0  0  0  0  0  0  0  0  0  0  0  0
   -0.6087   -1.2764    1.1771 H   0  0  0  0  0  0  0  0  0  0  0  0
    1.0743    0.3111    1.3252 H   0  0  0  0  0  0  0  0  0  0  0  0
   -0.3351    0.8604   -1.3429 H   0  0  0  0  0  0  0  0  0  0  0  0
    1.2712    1.4713   -0.9606 H   0  0  0  0  0  0  0  0  0  0  0  0
    2.1440   -0.8257   -0.7301 H   0  0  0  0  0  0  0  0  0  0  0  0
    0.5702   -1.5183   -1.0275 H   0  0  0  0  0  0  0  0  0  0  0  0
    2.3956   -1.7015   -4.1205 H   0  0  0  0  0  0  0  0  0  0  0  0
   -1.2185    2.5487    0.3551 N   0  0  0  0  0  0  0  0  0  0  0  0
   -1.8508    3.8266    0.5919 C   0  0  2  0  0  0  0  0  0  0  0  0
   -3.1874    3.5704    1.2754 C   0  0  0  0  0  0  0  0  0  0  0  0
   -3.7850    2.4989    1.1999 O   0  0  0  0  0  0  0  0  0  0  0  0
   -2.0423    4.5979   -0.7047 C   0  0  0  0  0  0  0  0  0  0  0  0
   -1.4532    2.0440   -0.4943 H   0  0  0  0  0  0  0  0  0  0  0  0
   -1.1943    4.3836    1.2693 H   0  0  0  0  0  0  0  0  0  0  0  0
   -2.6973    4.0554   -1.3961 H   0  0  0  0  0  0  0  0  0  0  0  0
   -2.4953    5.5776   -0.5203 H   0  0  0  0  0  0  0  0  0  0  0  0
   -1.0833    4.7553   -1.2099 H   0  0  0  0  0  0  0  0  0  0  0  0
   -3.6552    4.6930    1.9441 N   0  0  0  0  0  0  0  0  0  0  0  0
   -4.9090    4.7075    2.6609 C   0  0  0  0  0  0  0  0  0  0  0  0
   -3.0847    5.5330    1.9701 H   0  0  0  0  0  0  0  0  0  0  0  0
   -5.7086    5.0640    1.9948 H   0  0  0  0  0  0  0  0  0  0  0  0
   -5.1457    3.6902    3.0059 H   0  0  0  0  0  0  0  0  0  0  0  0
   -4.8277    5.3792    3.5281 H   0  0  0  0  0  0  0  0  0  0  0  0
  1  3  1  0  0  0  0
  1  7  1  0  0  0  0
  1  2  2  0  0  0  0
 34 35  1  0  0  0  0
 35 43  1  0  0  0  0
 35 36  2  0  0  0  0
  8  9  1  0  0  0  0
  9 17  1  0  0  0  0
  9 10  2  0  0  0  0
 18 19  1  0  0  0  0
 19 33  1  0  0  0  0
 19 20  2  0  0  0  0
 22 23  1  0  0  0  0
 23 24  2  0  0  0  0
 23 25  1  0  0  0  0
 34 37  1  0  0  0  0
  8 11  1  0  0  0  0
 43 44  1  0  0  0  0
 21 22  1  0  0  0  0
 18 21  1  0  0  0  0
 33 34  1  0  0  0  0
  7  8  1  0  0  0  0
 17 18  1  0  0  0  0
  3  4  1  0  0  0  0
  3  5  1  0  0  0  0
  3  6  1  0  0  0  0
 37 40  1  0  0  0  0
 37 41  1  0  0  0  0
 37 42  1  0  0  0  0
 11 14  1  0  0  0  0
 11 15  1  0  0  0  0
 11 16  1  0  0  0  0
 44 46  1  0  0  0  0
 44 47  1  0  0  0  0
 44 48  1  0  0  0  0
 22 30  1  0  0  0  0
 22 31  1  0  0  0  0
 21 28  1  0  0  0  0
 21 29  1  0  0  0  0
 34 39  1  0  0  0  0
  8 13  1  0  0  0  0
 18 27  1  0  0  0  0
 43 45  1  0  0  0  0
  7 12  1  0  0  0  0
 33 38  1  0  0  0  0
 17 26  1  0  0  0  0
 25 32  1  0  0  0  0
M  END
$$$$

  -OEChem-05262214473D

 48 47  0     1  0  0  0  0  0999 V2000
   -5.5827   -1.3473    1.4591 C   0  0  0  0  0  0  0  0  0  0  0  0
   -5.7053   -2.4696    0.9825 O   0  0  0  0  0  0  0  0  0  0  0  0
   -6.7879   -0.6277    1.9670 C   0  0  0  0  0  0  0  0  0  0  0  0
   -7.2718   -0.0164    1.1885 H   0  0  0  0  0  0  0  0  0  0  0  0
   -7.5699   -1.3171    2.3239 H   0  0  0  0  0  0  0  0  0  0  0  0
   -6.6057    0.0628    2.8060 H   0  0  0  0  0  0  0  0  0  0  0  0
   -4.4001   -0.6377    1.5884 N   0  0  0  0  0  0  0  0  0  0  0  0
   -3.1220   -1.1455    1.1644 C   0  0  2  0  0  0  0  0  0  0  0  0
   -2.2017    0.0428    0.9187 C   0  0  0  0  0  0  0  0  0  0  0  0
   -2.6171    1.1750    0.6807 O   0  0  0  0  0  0  0  0  0  0  0  0
   -3.2533   -1.9992   -0.0873 C   0  0  0  0  0  0  0  0  0  0  0  0
   -4.4370    0.2910    2.0047 H   0  0  0  0  0  0  0  0  0  0  0  0
   -2.7302   -1.7467    1.9921 H   0  0  0  0  0  0  0  0  0  0  0  0
   -3.6446   -1.4140   -0.9275 H   0  0  0  0  0  0  0  0  0  0  0  0
   -2.2844   -2.4081   -0.3922 H   0  0  0  0  0  0  0  0  0  0  0  0
   -3.9388   -2.8365    0.0822 H   0  0  0  0  0  0  0  0  0  0  0  0
   -0.8768   -0.3314    0.9568 N   0  0  0  0  0  0  0  0  0  0  0  0
    0.2067    0.6285    0.7375 C   0  0  2  0  0  0  0  0  0  0  0  0
   -0.3069    1.9778    1.2308 C   0  0  0  0  0  0  0  0  0  0  0  0
    0.2578    2.6158    2.1171 O   0  0  0  0  0  0  0  0  0  0  0  0
    0.5689    0.6527   -0.7550 C   0  0  0  0  0  0  0  0  0  0  0  0
    1.1963   -0.6490   -1.2534 C   0  0  0  0  0  0  0  0  0  0  0  0
    1.5149   -0.5939   -2.7267 C   0  0  0  0  0  0  0  0  0  0  0  0
    1.1852    0.3286   -3.4612 O   0  0  0  0  0  0  0  0  0  0  0  0
    2.1850   -1.6891   -3.1627 O   0  0  0  0  0  0  0  0  0  0  0  0
   -0.6087   -1.2764    1.1771 H   0  0  0  0  0  0  0  0  0  0  0  0
    1.0743    0.3111    1.3252 H   0  0  0  0  0  0  0  0  0  0  0  0
   -0.3351    0.8604   -1.3429 H   0  0  0  0  0  0  0  0  0  0  0  0
    1.2712    1.4713   -0.9606 H   0  0  0  0  0  0  0  0  0  0  0  0
    2.1440   -0.8257   -0.7301 H   0  0  0  0  0  0  0  0  0  0  0  0
    0.5702   -1.5183   -1.0275 H   0  0  0  0  0  0  0  0  0  0  0  0
    2.3956   -1.7015   -4.1205 H   0  0  0  0  0  0  0  0  0  0  0  0
   -1.4417    2.3926    0.5497 N   0  0  0  0  0  0  0  0  0  0  0  0
   -2.1215    3.6374    0.8274 C   0  0  2  0  0  0  0  0  0  0  0  0
   -3.2398    3.3511    1.8209 C   0  0  0  0  0  0  0  0  0  0  0  0
   -3.7358    2.2362    1.9695 O   0  0  0  0  0  0  0  0  0  0  0  0
   -2.6716    4.2633   -0.4447 C   0  0  0  0  0  0  0  0  0  0  0  0
   -1.8133    1.7921   -0.1801 H   0  0  0  0  0  0  0  0  0  0  0  0
   -1.3846    4.3042    1.2884 H   0  0  0  0  0  0  0  0  0  0  0  0
   -3.4116    3.6097   -0.9207 H   0  0  0  0  0  0  0  0  0  0  0  0
   -3.1613    5.2203   -0.2364 H   0  0  0  0  0  0  0  0  0  0  0  0
   -1.8700    4.4411   -1.1697 H   0  0  0  0  0  0  0  0  0  0  0  0
   -3.6482    4.4957    2.4911 N   0  0  0  0  0  0  0  0  0  0  0  0
   -4.7041    4.4873    3.4765 C   0  0  0  0  0  0  0  0  0  0  0  0
   -3.1679    5.3740    2.3186 H   0  0  0  0  0  0  0  0  0  0  0  0
   -5.6630    4.7178    2.9892 H   0  0  0  0  0  0  0  0  0  0  0  0
   -4.7605    3.4935    3.9448 H   0  0  0  0  0  0  0  0  0  0  0  0
   -4.4930    5.2440    4.2464 H   0  0  0  0  0  0  0  0  0  0  0  0
  1  3  1  0  0  0  0
  1  7  1  0  0  0  0
  1  2  2  0  0  0  0
 34 35  1  0  0  0  0
 35 43  1  0  0  0  0
 35 36  2  0  0  0  0
  8  9  1  0  0  0  0
  9 17  1  0  0  0  0
  9 10  2  0  0  0  0
 18 19  1  0  0  0  0
 19 33  1  0  0  0  0
 19 20  2  0  0  0  0
 22 23  1  0  0  0  0
 23 24  2  0  0  0  0
 23 25  1  0  0  0  0
 34 37  1  0  0  0  0
  8 11  1  0  0  0  0
 43 44  1  0  0  0  0
 21 22  1  0  0  0  0
 18 21  1  0  0  0  0
 33 34  1  0  0  0  0
  7  8  1  0  0  0  0
 17 18  1  0  0  0  0
  3  4  1  0  0  0  0
  3  5  1  0  0  0  0
  3  6  1  0  0  0  0
 37 40  1  0  0  0  0
 37 41  1  0  0  0  0
 37 42  1  0  0  0  0
 11 14  1  0  0  0  0
 11 15  1  0  0  0  0
 11 16  1  0  0  0  0
 44 46  1  0  0  0  0
 44 47  1  0  0  0  0
 44 48  1  0  0  0  0
 22 30  1  0  0  0  0
 22 31  1  0  0  0  0
 21 28  1  0  0  0  0
 21 29  1  0  0  0  0
 34 39  1  0  0  0  0
  8 13  1  0  0  0  0
 18 27  1  0  0  0  0
 43 45  1  0  0  0  0
  7 12  1  0  0  0  0
 33 38  1  0  0  0  0
 17 26  1  0  0  0  0
 25 32  1  0  0  0  0
M  END
$$$$

  -OEChem-05262214473D

 48 47  0     1  0  0  0  0  0999 V2000
   -5.5827   -1.3473    1.4591 C   0  0  0  0  0  0  0  0  0  0  0  0
   -5.7053   -2.4696    0.9825 O   0  0  0  0  0  0  0  0  0  0  0  0
   -6.7879   -0.6277    1.9670 C   0  0  0  0  0  0  0  0  0  0  0  0
   -7.2718   -0.0164    1.1885 H   0  0  0  0  0  0  0  0  0  0  0  0
   -7.5699   -1.3171    2.3239 H   0  0  0  0  0  0  0  0  0  0  0  0
   -6.6057    0.0628    2.8060 H   0  0  0  0  0  0  0  0  0  0  0  0
   -4.4001   -0.6377    1.5884 N   0  0  0  0  0  0  0  0  0  0  0  0
   -3.1220   -1.1455    1.1644 C   0  0  2  0  0  0  0  0  0  0  0  0
   -2.2017    0.0428    0.9187 C   0  0  0  0  0  0  0  0  0  0  0  0
   -2.6171    1.1750    0.6807 O   0  0  0  0  0  0  0  0  0  0  0  0
   -3.2533   -1.9992   -0.0873 C   0  0  0  0  0  0  0  0  0  0  0  0
   -4.4370    0.2910    2.0047 H   0  0  0  0  0  0  0  0  0  0  0  0
   -2.7302   -1.7467    1.9921 H   0  0  0  0  0  0  0  0  0  0  0  0
   -3.6446   -1.4140   -0.9275 H   0  0  0  0  0  0  0  0  0  0  0  0
   -2.2844   -2.4081   -0.3922 H   0  0  0  0  0  0  0  0  0  0  0  0
   -3.9388   -2.8365    0.0822 H   0  0  0  0  0  0  0  0  0  0  0  0
   -0.8768   -0.3314    0.9568 N   0  0  0  0  0  0  0  0  0  0  0  0
    0.2067    0.6285    0.7375 C   0  0  2  0  0  0  0  0  0  0  0  0
   -0.3069    1.9778    1.2308 C   0  0  0  0  0  0  0  0  0  0  0  0
    0.3805    2.7385    1.9094 O   0  0  0  0  0  0  0  0  0  0  0  0
    0.5689    0.6527   -0.7550 C   0  0  0  0  0  0  0  0  0  0  0  0
    1.1963   -0.6490   -1.2534 C   0  0  0  0  0  0  0  0  0  0  0  0
    1.5149   -0.5939   -2.7267 C   0  0  0  0  0  0  0  0  0  0  0  0
    1.1852    0.3286   -3.4612 O   0  0  0  0  0  0  0  0  0  0  0  0
    2.1850   -1.6891   -3.1627 O   0  0  0  0  0  0  0  0  0  0  0  0
   -0.6087   -1.2764    1.1771 H   0  0  0  0  0  0  0  0  0  0  0  0
    1.0743    0.3111    1.3252 H   0  0  0  0  0  0  0  0  0  0  0  0
   -0.3351    0.8604   -1.3429 H   0  0  0  0  0  0  0  0  0  0  0  0
    1.2712    1.4713   -0.9606 H   0  0  0  0  0  0  0  0  0  0  0  0
    2.1440   -0.8257   -0.7301 H   0  0  0  0  0  0  0  0  0  0  0  0
    0.5702   -1.5183   -1.0275 H   0  0  0  0  0  0  0  0  0  0  0  0
    2.3956   -1.7015   -4.1205 H   0  0  0  0  0  0  0  0  0  0  0  0
   -1.5997    2.2401    0.8023 N   0  0  0  0  0  0  0  0  0  0  0  0
   -2.3132    3.4526    1.1334 C   0  0  2  0  0  0  0  0  0  0  0  0
   -3.1471    3.1824    2.3788 C   0  0  0  0  0  0  0  0  0  0  0  0
   -3.4901    2.0537    2.7246 O   0  0  0  0  0  0  0  0  0  0  0  0
   -3.1919    3.9102   -0.0204 C   0  0  0  0  0  0  0  0  0  0  0  0
   -2.0681    1.5460    0.2277 H   0  0  0  0  0  0  0  0  0  0  0  0
   -1.5573    4.2132    1.3573 H   0  0  0  0  0  0  0  0  0  0  0  0
   -3.9554    3.1608   -0.2591 H   0  0  0  0  0  0  0  0  0  0  0  0
   -3.7097    4.8442    0.2214 H   0  0  0  0  0  0  0  0  0  0  0  0
   -2.5945    4.0754   -0.9235 H   0  0  0  0  0  0  0  0  0  0  0  0
   -3.4997    4.3534    3.0350 N   0  0  0  0  0  0  0  0  0  0  0  0
   -4.3010    4.3628    4.2366 C   0  0  0  0  0  0  0  0  0  0  0  0
   -3.1552    5.2437    2.6881 H   0  0  0  0  0  0  0  0  0  0  0  0
   -5.3622    4.4739    3.9694 H   0  0  0  0  0  0  0  0  0  0  0  0
   -4.1570    3.4176    4.7806 H   0  0  0  0  0  0  0  0  0  0  0  0
   -3.9938    5.2040    4.8754 H   0  0  0  0  0  0  0  0  0  0  0  0
  1  3  1  0  0  0  0
  1  7  1  0  0  0  0
  1  2  2  0  0  0  0
 34 35  1  0  0  0  0
 35 43  1  0  0  0  0
 35 36  2  0  0  0  0
  8  9  1  0  0  0  0
  9 17  1  0  0  0  0
  9 10  2  0  0  0  0
 18 19  1  0  0  0  0
 19 33  1  0  0  0  0
 19 20  2  0  0  0  0
 22 23  1  0  0  0  0
 23 24  2  0  0  0  0
 23 25  1  0  0  0  0
 34 37  1  0  0  0  0
  8 11  1  0  0  0  0
 43 44  1  0  0  0  0
 21 22  1  0  0  0  0
 18 21  1  0  0  0  0
 33 34  1  0  0  0  0
  7  8  1  0  0  0  0
 17 18  1  0  0  0  0
  3  4  1  0  0  0  0
  3  5  1  0  0  0  0
  3  6  1  0  0  0  0
 37 40  1  0  0  0  0
 37 41  1  0  0  0  0
 37 42  1  0  0  0  0
 11 14  1  0  0  0  0
 11 15  1  0  0  0  0
 11 16  1  0  0  0  0
 44 46  1  0  0  0  0
 44 47  1  0  0  0  0
 44 48  1  0  0  0  0
 22 30  1  0  0  0  0
 22 31  1  0  0  0  0
 21 28  1  0  0  0  0
 21 29  1  0  0  0  0
 34 39  1  0  0  0  0
  8 13  1  0  0  0  0
 18 27  1  0  0  0  0
 43 45  1  0  0  0  0
  7 12  1  0  0  0  0
 33 38  1  0  0  0  0
 17 26  1  0  0  0  0
 25 32  1  0  0  0  0
M  END
$$$$

  -OEChem-05262214473D

 48 47  0     1  0  0  0  0  0999 V2000
   -5.5827   -1.3473    1.4591 C   0  0  0  0  0  0  0  0  0  0  0  0
   -5.7053   -2.4696    0.9825 O   0  0  0  0  0  0  0  0  0  0  0  0
   -6.7879   -0.6277    1.9670 C   0  0  0  0  0  0  0  0  0  0  0  0
   -7.2718   -0.0164    1.1885 H   0  0  0  0  0  0  0  0  0  0  0  0
   -7.5699   -1.3171    2.3239 H   0  0  0  0  0  0  0  0  0  0  0  0
   -6.6057    0.0628    2.8060 H   0  0  0  0  0  0  0  0  0  0  0  0
   -4.4001   -0.6377    1.5884 N   0  0  0  0  0  0  0  0  0  0  0  0
   -3.1220   -1.1455    1.1644 C   0  0  2  0  0  0  0  0  0  0  0  0
   -2.2017    0.0428    0.9187 C   0  0  0  0  0  0  0  0  0  0  0  0
   -2.6171    1.1750    0.6807 O   0  0  0  0  0  0  0  0  0  0  0  0
   -3.2533   -1.9992   -0.0873 C   0  0  0  0  0  0  0  0  0  0  0  0
   -4.4370    0.2910    2.0047 H   0  0  0  0  0  0  0  0  0  0  0  0
   -2.7302   -1.7467    1.9921 H   0  0  0  0  0  0  0  0  0  0  0  0
   -3.6446   -1.4140   -0.9275 H   0  0  0  0  0  0  0  0  0  0  0  0
   -2.2844   -2.4081   -0.3922 H   0  0  0  0  0  0  0  0  0  0  0  0
   -3.9388   -2.8365    0.0822 H   0  0  0  0  0  0  0  0  0  0  0  0
   -0.8768   -0.3314    0.9568 N   0  0  0  0  0  0  0  0  0  0  0  0
    0.2067    0.6285    0.7375 C   0  0  2  0  0  0  0  0  0  0  0  0
   -0.3069    1.9778    1.2308 C   0  0  0  0  0  0  0  0  0  0  0  0
    0.4411    2.8491    1.6699 O   0  0  0  0  0  0  0  0  0  0  0  0
    0.5689    0.6527   -0.7550 C   0  0  0  0  0  0  0  0  0  0  0  0
    1.1963   -0.6490   -1.2534 C   0  0  0  0  0  0  0  0  0  0  0  0
    1.5149   -0.5939   -2.7267 C   0  0  0  0  0  0  0  0  0  0  0  0
    1.1852    0.3286   -3.4612 O   0  0  0  0  0  0  0  0  0  0  0  0
    2.1850   -1.6891   -3.1627 O   0  0  0  0  0  0  0  0  0  0  0  0
   -0.6087   -1.2764    1.1771 H   0  0  0  0  0  0  0  0  0  0  0  0
    1.0743    0.3111    1.3252 H   0  0  0  0  0  0  0  0  0  0  0  0
   -0.3351    0.8604   -1.3429 H   0  0  0  0  0  0  0  0  0  0  0  0
    1.2712    1.4713   -0.9606 H   0  0  0  0  0  0  0  0  0  0  0  0
    2.1440   -0.8257   -0.7301 H   0  0  0  0  0  0  0  0  0  0  0  0
    0.5702   -1.5183   -1.0275 H   0  0  0  0  0  0  0  0  0  0  0  0
    2.3956   -1.7015   -4.1205 H   0  0  0  0  0  0  0  0  0  0  0  0
   -1.6818    2.1016    1.0958 N   0  0  0  0  0  0  0  0  0  0  0  0
   -2.4129    3.2847    1.4890 C   0  0  2  0  0  0  0  0  0  0  0  0
   -2.9158    3.0758    2.9113 C   0  0  0  0  0  0  0  0  0  0  0  0
   -3.0647    1.9637    3.4136 O   0  0  0  0  0  0  0  0  0  0  0  0
   -3.5678    3.5625    0.5394 C   0  0  0  0  0  0  0  0  0  0  0  0
   -2.2002    1.3225    0.7014 H   0  0  0  0  0  0  0  0  0  0  0  0
   -1.7008    4.1169    1.4713 H   0  0  0  0  0  0  0  0  0  0  0  0
   -4.2917    2.7394    0.5434 H   0  0  0  0  0  0  0  0  0  0  0  0
   -4.1031    4.4749    0.8220 H   0  0  0  0  0  0  0  0  0  0  0  0
   -3.2073    3.6829   -0.4879 H   0  0  0  0  0  0  0  0  0  0  0  0
   -3.2198    4.2757    3.5388 N   0  0  0  0  0  0  0  0  0  0  0  0
   -3.7272    4.3425    4.8894 C   0  0  0  0  0  0  0  0  0  0  0  0
   -3.0474    5.1512    3.0535 H   0  0  0  0  0  0  0  0  0  0  0  0
   -4.8270    4.3489    4.8686 H   0  0  0  0  0  0  0  0  0  0  0  0
   -3.3764    3.4677    5.4565 H   0  0  0  0  0  0  0  0  0  0  0  0
   -3.3644    5.2619    5.3722 H   0  0  0  0  0  0  0  0  0  0  0  0
  1  3  1  0  0  0  0
  1  7  1  0  0  0  0
  1  2  2  0  0  0  0
 34 35  1  0  0  0  0
 35 43  1  0  0  0  0
 35 36  2  0  0  0  0
  8  9  1  0  0  0  0
  9 17  1  0  0  0  0
  9 10  2  0  0  0  0
 18 19  1  0  0  0  0
 19 33  1  0  0  0  0
 19 20  2  0  0  0  0
 22 23  1  0  0  0  0
 23 24  2  0  0  0  0
 23 25  1  0  0  0  0
 34 37  1  0  0  0  0
  8 11  1  0  0  0  0
 43 44  1  0  0  0  0
 21 22  1  0  0  0  0
 18 21  1  0  0  0  0
 33 34  1  0  0  0  0
  7  8  1  0  0  0  0
 17 18  1  0  0  0  0
  3  4  1  0  0  0  0
  3  5  1  0  0  0  0
  3  6  1  0  0  0  0
 37 40  1  0  0  0  0
 37 41  1  0  0  0  0
 37 42  1  0  0  0  0
 11 14  1  0  0  0  0
 11 15  1  0  0  0  0
 11 16  1  0  0  0  0
 44 46  1  0  0  0  0
 44 47  1  0  0  0  0
 44 48  1  0  0  0  0
 22 30  1  0  0  0  0
 22 31  1  0  0  0  0
 21 28  1  0  0  0  0
 21 29  1  0  0  0  0
 34 39  1  0  0  0  0
  8 13  1  0  0  0  0
 18 27  1  0  0  0  0
 43 45  1  0  0  0  0
  7 12  1  0  0  0  0
 33 38  1  0  0  0  0
 17 26  1  0  0  0  0
 25 32  1  0  0  0  0
M  END
$$$$

  -OEChem-05262214473D

 48 47  0     1  0  0  0  0  0999 V2000
   -5.5827   -1.3473    1.4591 C   0  0  0  0  0  0  0  0  0  0  0  0
   -5.7053   -2.4696    0.9825 O   0  0  0  0  0  0  0  0  0  0  0  0
   -6.7879   -0.6277    1.9670 C   0  0  0  0  0  0  0  0  0  0  0  0
   -7.2718   -0.0164    1.1885 H   0  0  0  0  0  0  0  0  0  0  0  0
   -7.5699   -1.3171    2.3239 H   0  0  0  0  0  0  0  0  0  0  0  0
   -6.6057    0.0628    2.8060 H   0  0  0  0  0  0  0  0  0  0  0  0
   -4.4001   -0.6377    1.5884 N   0  0  0  0  0  0  0  0  0  0  0  0
   -3.1220   -1.1455    1.1644 C   0  0  2  0  0  0  0  0  0  0  0  0
   -2.2017    0.0428    0.9187 C   0  0  0  0  0  0  0  0  0  0  0  0
   -2.6171    1.1750    0.6807 O   0  0  0  0  0  0  0  0  0  0  0  0
   -3.2533   -1.9992   -0.0873 C   0  0  0  0  0  0  0  0  0  0  0  0
   -4.4370    0.2910    2.0047 H   0  0  0  0  0  0  0  0  0  0  0  0
   -2.7302   -1.7467    1.9921 H   0  0  0  0  0  0  0  0  0  0  0  0
   -3.6446   -1.4140   -0.9275 H   0  0  0  0  0  0  0  0  0  0  0  0
   -2.2844   -2.4081   -0.3922 H   0  0  0  0  0  0  0  0  0  0  0  0
   -3.9388   -2.8365    0.0822 H   0  0  0  0  0  0  0  0  0  0  0  0
   -0.8768   -0.3314    0.9568 N   0  0  0  0  0  0  0  0  0  0  0  0
    0.2067    0.6285    0.7375 C   0  0  2  0  0  0  0  0  0  0  0  0
   -0.3069    1.9778    1.2308 C   0  0  0  0  0  0  0  0  0  0  0  0
    0.4357    2.9402    1.4151 O   0  0  0  0  0  0  0  0  0  0  0  0
    0.5689    0.6527   -0.7550 C   0  0  0  0  0  0  0  0  0  0  0  0
    1.1963   -0.6490   -1.2534 C   0  0  0  0  0  0  0  0  0  0  0  0
    1.5149   -0.5939   -2.7267 C   0  0  0  0  0  0  0  0  0  0  0  0
    1.1852    0.3286   -3.4612 O   0  0  0  0  0  0  0  0  0  0  0  0
    2.1850   -1.6891   -3.1627 O   0  0  0  0  0  0  0  0  0  0  0  0
   -0.6087   -1.2764    1.1771 H   0  0  0  0  0  0  0  0  0  0  0  0
    1.0743    0.3111    1.3252 H   0  0  0  0  0  0  0  0  0  0  0  0
   -0.3351    0.8604   -1.3429 H   0  0  0  0  0  0  0  0  0  0  0  0
    1.2712    1.4713   -0.9606 H   0  0  0  0  0  0  0  0  0  0  0  0
    2.1440   -0.8257   -0.7301 H   0  0  0  0  0  0  0  0  0  0  0  0
    0.5702   -1.5183   -1.0275 H   0  0  0  0  0  0  0  0  0  0  0  0
    2.3956   -1.7015   -4.1205 H   0  0  0  0  0  0  0  0  0  0  0  0
   -1.6822    1.9865    1.4102 N   0  0  0  0  0  0  0  0  0  0  0  0
   -2.4137    3.1451    1.8698 C   0  0  2  0  0  0  0  0  0  0  0  0
   -2.5616    3.0385    3.3819 C   0  0  0  0  0  0  0  0  0  0  0  0
   -2.4885    1.9724    3.9895 O   0  0  0  0  0  0  0  0  0  0  0  0
   -3.7736    3.2439    1.1963 C   0  0  0  0  0  0  0  0  0  0  0  0
   -2.2008    1.1369    1.2086 H   0  0  0  0  0  0  0  0  0  0  0  0
   -1.8052    4.0218    1.6227 H   0  0  0  0  0  0  0  0  0  0  0  0
   -4.3975    2.3741    1.4324 H   0  0  0  0  0  0  0  0  0  0  0  0
   -4.3148    4.1376    1.5243 H   0  0  0  0  0  0  0  0  0  0  0  0
   -3.6667    3.2905    0.1072 H   0  0  0  0  0  0  0  0  0  0  0  0
   -2.8277    4.2680    3.9682 N   0  0  0  0  0  0  0  0  0  0  0  0
   -3.0219    4.4278    5.3904 C   0  0  0  0  0  0  0  0  0  0  0  0
   -2.8519    5.1026    3.3898 H   0  0  0  0  0  0  0  0  0  0  0  0
   -4.0937    4.3512    5.6256 H   0  0  0  0  0  0  0  0  0  0  0  0
   -2.4718    3.6402    5.9262 H   0  0  0  0  0  0  0  0  0  0  0  0
   -2.6476    5.4139    5.7029 H   0  0  0  0  0  0  0  0  0  0  0  0
  1  3  1  0  0  0  0
  1  7  1  0  0  0  0
  1  2  2  0  0  0  0
 34 35  1  0  0  0  0
 35 43  1  0  0  0  0
 35 36  2  0  0  0  0
  8  9  1  0  0  0  0
  9 17  1  0  0  0  0
  9 10  2  0  0  0  0
 18 19  1  0  0  0  0
 19 33  1  0  0  0  0
 19 20  2  0  0  0  0
 22 23  1  0  0  0  0
 23 24  2  0  0  0  0
 23 25  1  0  0  0  0
 34 37  1  0  0  0  0
  8 11  1  0  0  0  0
 43 44  1  0  0  0  0
 21 22  1  0  0  0  0
 18 21  1  0  0  0  0
 33 34  1  0  0  0  0
  7  8  1  0  0  0  0
 17 18  1  0  0  0  0
  3  4  1  0  0  0  0
  3  5  1  0  0  0  0
  3  6  1  0  0  0  0
 37 40  1  0  0  0  0
 37 41  1  0  0  0  0
 37 42  1  0  0  0  0
 11 14  1  0  0  0  0
 11 15  1  0  0  0  0
 11 16  1  0  0  0  0
 44 46  1  0  0  0  0
 44 47  1  0  0  0  0
 44 48  1  0  0  0  0
 22 30  1  0  0  0  0
 22 31  1  0  0  0  0
 21 28  1  0  0  0  0
 21 29  1  0  0  0  0
 34 39  1  0  0  0  0
  8 13  1  0  0  0  0
 18 27  1  0  0  0  0
 43 45  1  0  0  0  0
  7 12  1  0  0  0  0
 33 38  1  0  0  0  0
 17 26  1  0  0  0  0
 25 32  1  0  0  0  0
M  END
$$$$

  -OEChem-05262214473D

 48 47  0     1  0  0  0  0  0999 V2000
   -5.5827   -1.3473    1.4591 C   0  0  0  0  0  0  0  0  0  0  0  0
   -5.7053   -2.4696    0.9825 O   0  0  0  0  0  0  0  0  0  0  0  0
   -6.7879   -0.6277    1.9670 C   0  0  0  0  0  0  0  0  0  0  0  0
   -7.2718   -0.0164    1.1885 H   0  0  0  0  0  0  0  0  0  0  0  0
   -7.5699   -1.3171    2.3239 H   0  0  0  0  0  0  0  0  0  0  0  0
   -6.6057    0.0628    2.8060 H   0  0  0  0  0  0  0  0  0  0  0  0
   -4.4001   -0.6377    1.5884 N   0  0  0  0  0  0  0  0  0  0  0  0
   -3.1220   -1.1455    1.1644 C   0  0  2  0  0  0  0  0  0  0  0  0
   -2.2017    0.0428    0.9187 C   0  0  0  0  0  0  0  0  0  0  0  0
   -2.6171    1.1750    0.6807 O   0  0  0  0  0  0  0  0  0  0  0  0
   -3.2533   -1.9992   -0.0873 C   0  0  0  0  0  0  0  0  0  0  0  0
   -4.4370    0.2910    2.0047 H   0  0  0  0  0  0  0  0  0  0  0  0
   -2.7302   -1.7467    1.9921 H   0  0  0  0  0  0  0  0  0  0  0  0
   -3.6446   -1.4140   -0.9275 H   0  0  0  0  0  0  0  0  0  0  0  0
   -2.2844   -2.4081   -0.3922 H   0  0  0  0  0  0  0  0  0  0  0  0
   -3.9388   -2.8365    0.0822 H   0  0  0  0  0  0  0  0  0  0  0  0
   -0.8768   -0.3314    0.9568 N   0  0  0  0  0  0  0  0  0  0  0  0
    0.2067    0.6285    0.7375 C   0  0  2  0  0  0  0  0  0  0  0  0
   -0.3069    1.9778    1.2308 C   0  0  0  0  0  0  0  0  0  0  0  0
    0.3644    3.0055    1.1623 O   0  0  0  0  0  0  0  0  0  0  0  0
    0.5689    0.6527   -0.7550 C   0  0  0  0  0  0  0  0  0  0  0  0
    1.1963   -0.6490   -1.2534 C   0  0  0  0  0  0  0  0  0  0  0  0
    1.5149   -0.5939   -2.7267 C   0  0  0  0  0  0  0  0  0  0  0  0
    1.1852    0.3286   -3.4612 O   0  0  0  0  0  0  0  0  0  0  0  0
    2.1850   -1.6891   -3.1627 O   0  0  0  0  0  0  0  0  0  0  0  0
   -0.6087   -1.2764    1.1771 H   0  0  0  0  0  0  0  0  0  0  0  0
    1.0743    0.3111    1.3252 H   0  0  0  0  0  0  0  0  0  0  0  0
   -0.3351    0.8604   -1.3429 H   0  0  0  0  0  0  0  0  0  0  0  0
    1.2712    1.4713   -0.9606 H   0  0  0  0  0  0  0  0  0  0  0  0
    2.1440   -0.8257   -0.7301 H   0  0  0  0  0  0  0  0  0  0  0  0
    0.5702   -1.5183   -1.0275 H   0  0  0  0  0  0  0  0  0  0  0  0
    2.3956   -1.7015   -4.1205 H   0  0  0  0  0  0  0  0  0  0  0  0
   -1.6011    1.9027    1.7240 N   0  0  0  0  0  0  0  0  0  0  0  0
   -2.3157    3.0434    2.2501 C   0  0  2  0  0  0  0  0  0  0  0  0
   -2.1086    3.0732    3.7586 C   0  0  0  0  0  0  0  0  0  0  0  0
   -1.8008    2.0793    4.4132 O   0  0  0  0  0  0  0  0  0  0  0  0
   -3.7955    2.9762    1.9058 C   0  0  0  0  0  0  0  0  0  0  0  0
   -2.0696    1.0017    1.7149 H   0  0  0  0  0  0  0  0  0  0  0  0
   -1.8635    3.9344    1.8011 H   0  0  0  0  0  0  0  0  0  0  0  0
   -4.2657    2.0899    2.3471 H   0  0  0  0  0  0  0  0  0  0  0  0
   -4.3303    3.8552    2.2805 H   0  0  0  0  0  0  0  0  0  0  0  0
   -3.9414    2.9248    0.8215 H   0  0  0  0  0  0  0  0  0  0  0  0
   -2.3500    4.3307    4.2938 N   0  0  0  0  0  0  0  0  0  0  0  0
   -2.2330    4.6129    5.7054 C   0  0  0  0  0  0  0  0  0  0  0  0
   -2.5820    5.1014    3.6741 H   0  0  0  0  0  0  0  0  0  0  0  0
   -3.2123    4.4808    6.1887 H   0  0  0  0  0  0  0  0  0  0  0  0
   -1.5050    3.9234    6.1579 H   0  0  0  0  0  0  0  0  0  0  0  0
   -1.8922    5.6494    5.8451 H   0  0  0  0  0  0  0  0  0  0  0  0
  1  3  1  0  0  0  0
  1  7  1  0  0  0  0
  1  2  2  0  0  0  0
 34 35  1  0  0  0  0
 35 43  1  0  0  0  0
 35 36  2  0  0  0  0
  8  9  1  0  0  0  0
  9 17  1  0  0  0  0
  9 10  2  0  0  0  0
 18 19  1  0  0  0  0
 19 33  1  0  0  0  0
 19 20  2  0  0  0  0
 22 23  1  0  0  0  0
 23 24  2  0  0  0  0
 23 25  1  0  0  0  0
 34 37  1  0  0  0  0
  8 11  1  0  0  0  0
 43 44  1  0  0  0  0
 21 22  1  0  0  0  0
 18 21  1  0  0  0  0
 33 34  1  0  0  0  0
  7  8  1  0  0  0  0
 17 18  1  0  0  0  0
  3  4  1  0  0  0  0
  3  5  1  0  0  0  0
  3  6  1  0  0  0  0
 37 40  1  0  0  0  0
 37 41  1  0  0  0  0
 37 42  1  0  0  0  0
 11 14  1  0  0  0  0
 11 15  1  0  0  0  0
 11 16  1  0  0  0  0
 44 46  1  0  0  0  0
 44 47  1  0  0  0  0
 44 48  1  0  0  0  0
 22 30  1  0  0  0  0
 22 31  1  0  0  0  0
 21 28  1  0  0  0  0
 21 29  1  0  0  0  0
 34 39  1  0  0  0  0
  8 13  1  0  0  0  0
 18 27  1  0  0  0  0
 43 45  1  0  0  0  0
  7 12  1  0  0  0  0
 33 38  1  0  0  0  0
 17 26  1  0  0  0  0
 25 32  1  0  0  0  0
M  END
$$$$

  -OEChem-05262214473D

 48 47  0     1  0  0  0  0  0999 V2000
   -5.5827   -1.3473    1.4591 C   0  0  0  0  0  0  0  0  0  0  0  0
   -5.7053   -2.4696    0.9825 O   0  0  0  0  0  0  0  0  0  0  0  0
   -6.7879   -0.6277    1.9670 C   0  0  0  0  0  0  0  0  0  0  0  0
   -7.2718   -0.0164    1.1885 H   0  0  0  0  0  0  0  0  0  0  0  0
   -7.5699   -1.3171    2.3239 H   0  0  0  0  0  0  0  0  0  0  0  0
   -6.6057    0.0628    2.8060 H   0  0  0  0  0  0  0  0  0  0  0  0
   -4.4001   -0.6377    1.5884 N   0  0  0  0  0  0  0  0  0  0  0  0
   -3.1220   -1.1455    1.1644 C   0  0  2  0  0  0  0  0  0  0  0  0
   -2.2017    0.0428    0.9187 C   0  0  0  0  0  0  0  0  0  0  0  0
   -2.6171    1.1750    0.6807 O   0  0  0  0  0  0  0  0  0  0  0  0
   -3.2533   -1.9992   -0.0873 C   0  0  0  0  0  0  0  0  0  0  0  0
   -4.4370    0.2910    2.0047 H   0  0  0  0  0  0  0  0  0  0  0  0
   -2.7302   -1.7467    1.9921 H   0  0  0  0  0  0  0  0  0  0  0  0
   -3.6446   -1.4140   -0.9275 H   0  0  0  0  0  0  0  0  0  0  0  0
   -2.2844   -2.4081   -0.3922 H   0  0  0  0  0  0  0  0  0  0  0  0
   -3.9388   -2.8365    0.0822 H   0  0  0  0  0  0  0  0  0  0  0  0
   -0.8768   -0.3314    0.9568 N   0  0  0  0  0  0  0  0  0  0  0  0
    0.2067    0.6285    0.7375 C   0  0  2  0  0  0  0  0  0  0  0  0
   -0.3069    1.9778    1.2308 C   0  0  0  0  0  0  0  0  0  0  0  0
    0.2323    3.0406    0.9287 O   0  0  0  0  0  0  0  0  0  0  0  0
    0.5689    0.6527   -0.7550 C   0  0  0  0  0  0  0  0  0  0  0  0
    1.1963   -0.6490   -1.2534 C   0  0  0  0  0  0  0  0  0  0  0  0
    1.5149   -0.5939   -2.7267 C   0  0  0  0  0  0  0  0  0  0  0  0
    1.1852    0.3286   -3.4612 O   0  0  0  0  0  0  0  0  0  0  0  0
    2.1850   -1.6891   -3.1627 O   0  0  0  0  0  0  0  0  0  0  0  0
   -0.6087   -1.2764    1.1771 H   0  0  0  0  0  0  0  0  0  0  0  0
    1.0743    0.3111    1.3252 H   0  0  0  0  0  0  0  0  0  0  0  0
   -0.3351    0.8604   -1.3429 H   0  0  0  0  0  0  0  0  0  0  0  0
    1.2712    1.4713   -0.9606 H   0  0  0  0  0  0  0  0  0  0  0  0
    2.1440   -0.8257   -0.7301 H   0  0  0  0  0  0  0  0  0  0  0  0
    0.5702   -1.5183   -1.0275 H   0  0  0  0  0  0  0  0  0  0  0  0
    2.3956   -1.7015   -4.1205 H   0  0  0  0  0  0  0  0  0  0  0  0
   -1.4439    1.8558    2.0158 N   0  0  0  0  0  0  0  0  0  0  0  0
   -2.1254    2.9865    2.6038 C   0  0  2  0  0  0  0  0  0  0  0  0
   -1.5877    3.1774    4.0158 C   0  0  0  0  0  0  0  0  0  0  0  0
   -1.0486    2.2769    4.6558 O   0  0  0  0  0  0  0  0  0  0  0  0
   -3.6317    2.7776    2.6194 C   0  0  0  0  0  0  0  0  0  0  0  0
   -1.8158    0.9262    2.1857 H   0  0  0  0  0  0  0  0  0  0  0  0
   -1.8716    3.8607    1.9944 H   0  0  0  0  0  0  0  0  0  0  0  0
   -3.9053    1.9060    3.2252 H   0  0  0  0  0  0  0  0  0  0  0  0
   -4.1485    3.6471    3.0390 H   0  0  0  0  0  0  0  0  0  0  0  0
   -4.0126    2.6108    1.6061 H   0  0  0  0  0  0  0  0  0  0  0  0
   -1.8193    4.4597    4.4935 N   0  0  0  0  0  0  0  0  0  0  0  0
   -1.4144    4.8851    5.8131 C   0  0  0  0  0  0  0  0  0  0  0  0
   -2.2562    5.1475    3.8871 H   0  0  0  0  0  0  0  0  0  0  0  0
   -2.2429    4.7288    6.5196 H   0  0  0  0  0  0  0  0  0  0  0  0
   -0.5419    4.2981    6.1358 H   0  0  0  0  0  0  0  0  0  0  0  0
   -1.1497    5.9525    5.7889 H   0  0  0  0  0  0  0  0  0  0  0  0
  1  3  1  0  0  0  0
  1  7  1  0  0  0  0
  1  2  2  0  0  0  0
 34 35  1  0  0  0  0
 35 43  1  0  0  0  0
 35 36  2  0  0  0  0
  8  9  1  0  0  0  0
  9 17  1  0  0  0  0
  9 10  2  0  0  0  0
 18 19  1  0  0  0  0
 19 33  1  0  0  0  0
 19 20  2  0  0  0  0
 22 23  1  0  0  0  0
 23 24  2  0  0  0  0
 23 25  1  0  0  0  0
 34 37  1  0  0  0  0
  8 11  1  0  0  0  0
 43 44  1  0  0  0  0
 21 22  1  0  0  0  0
 18 21  1  0  0  0  0
 33 34  1  0  0  0  0
  7  8  1  0  0  0  0
 17 18  1  0  0  0  0
  3  4  1  0  0  0  0
  3  5  1  0  0  0  0
  3  6  1  0  0  0  0
 37 40  1  0  0  0  0
 37 41  1  0  0  0  0
 37 42  1  0  0  0  0
 11 14  1  0  0  0  0
 11 15  1  0  0  0  0
 11 16  1  0  0  0  0
 44 46  1  0  0  0  0
 44 47  1  0  0  0  0
 44 48  1  0  0  0  0
 22 30  1  0  0  0  0
 22 31  1  0  0  0  0
 21 28  1  0  0  0  0
 21 29  1  0  0  0  0
 34 39  1  0  0  0  0
  8 13  1  0  0  0  0
 18 27  1  0  0  0  0
 43 45  1  0  0  0  0
  7 12  1  0  0  0  0
 33 38  1  0  0  0  0
 17 26  1  0  0  0  0
 25 32  1  0  0  0  0
M  END
$$$$

  -OEChem-05262214473D

 48 47  0     1  0  0  0  0  0999 V2000
   -5.5827   -1.3473    1.4591 C   0  0  0  0  0  0  0  0  0  0  0  0
   -5.7053   -2.4696    0.9825 O   0  0  0  0  0  0  0  0  0  0  0  0
   -6.7879   -0.6277    1.9670 C   0  0  0  0  0  0  0  0  0  0  0  0
   -7.2718   -0.0164    1.1885 H   0  0  0  0  0  0  0  0  0  0  0  0
   -7.5699   -1.3171    2.3239 H   0  0  0  0  0  0  0  0  0  0  0  0
   -6.6057    0.0628    2.8060 H   0  0  0  0  0  0  0  0  0  0  0  0
   -4.4001   -0.6377    1.5884 N   0  0  0  0  0  0  0  0  0  0  0  0
   -3.1220   -1.1455    1.1644 C   0  0  2  0  0  0  0  0  0  0  0  0
   -2.2017    0.0428    0.9187 C   0  0  0  0  0  0  0  0  0  0  0  0
   -2.6171    1.1750    0.6807 O   0  0  0  0  0  0  0  0  0  0  0  0
   -3.2533   -1.9992   -0.0873 C   0  0  0  0  0  0  0  0  0  0  0  0
   -4.4370    0.2910    2.0047 H   0  0  0  0  0  0  0  0  0  0  0  0
   -2.7302   -1.7467    1.9921 H   0  0  0  0  0  0  0  0  0  0  0  0
   -3.6446   -1.4140   -0.9275 H   0  0  0  0  0  0  0  0  0  0  0  0
   -2.2844   -2.4081   -0.3922 H   0  0  0  0  0  0  0  0  0  0  0  0
   -3.9388   -2.8365    0.0822 H   0  0  0  0  0  0  0  0  0  0  0  0
   -0.8768   -0.3314    0.9568 N   0  0  0  0  0  0  0  0  0  0  0  0
    0.2067    0.6285    0.7375 C   0  0  2  0  0  0  0  0  0  0  0  0
   -0.3069    1.9778    1.2308 C   0  0  0  0  0  0  0  0  0  0  0  0
    0.0483    3.0431    0.7303 O   0  0  0  0  0  0  0  0  0  0  0  0
    0.5689    0.6527   -0.7550 C   0  0  0  0  0  0  0  0  0  0  0  0
    1.1963   -0.6490   -1.2534 C   0  0  0  0  0  0  0  0  0  0  0  0
    1.5149   -0.5939   -2.7267 C   0  0  0  0  0  0  0  0  0  0  0  0
    1.1852    0.3286   -3.4612 O   0  0  0  0  0  0  0  0  0  0  0  0
    2.1850   -1.6891   -3.1627 O   0  0  0  0  0  0  0  0  0  0  0  0
   -0.6087   -1.2764    1.1771 H   0  0  0  0  0  0  0  0  0  0  0  0
    1.0743    0.3111    1.3252 H   0  0  0  0  0  0  0  0  0  0  0  0
   -0.3351    0.8604   -1.3429 H   0  0  0  0  0  0  0  0  0  0  0  0
    1.2712    1.4713   -0.9606 H   0  0  0  0  0  0  0  0  0  0  0  0
    2.1440   -0.8257   -0.7301 H   0  0  0  0  0  0  0  0  0  0  0  0
    0.5702   -1.5183   -1.0275 H   0  0  0  0  0  0  0  0  0  0  0  0
    2.3956   -1.7015   -4.1205 H   0  0  0  0  0  0  0  0  0  0  0  0
   -1.2213    1.8491    2.2658 N   0  0  0  0  0  0  0  0  0  0  0  0
   -1.8560    2.9782    2.9069 C   0  0  2  0  0  0  0  0  0  0  0  0
   -1.0344    3.3441    4.1360 C   0  0  0  0  0  0  0  0  0  0  0  0
   -0.2829    2.5519    4.7007 O   0  0  0  0  0  0  0  0  0  0  0  0
   -3.2936    2.6617    3.2886 C   0  0  0  0  0  0  0  0  0  0  0  0
   -1.4565    0.9155    2.5889 H   0  0  0  0  0  0  0  0  0  0  0  0
   -1.8291    3.8056    2.1894 H   0  0  0  0  0  0  0  0  0  0  0  0
   -3.3407    1.8351    4.0069 H   0  0  0  0  0  0  0  0  0  0  0  0
   -3.7818    3.5273    3.7483 H   0  0  0  0  0  0  0  0  0  0  0  0
   -3.8755    2.3700    2.4076 H   0  0  0  0  0  0  0  0  0  0  0  0
   -1.2717    4.6461    4.5537 N   0  0  0  0  0  0  0  0  0  0  0  0
   -0.6219    5.2259    5.7059 C   0  0  0  0  0  0  0  0  0  0  0  0
   -1.8965    5.2380    4.0142 H   0  0  0  0  0  0  0  0  0  0  0  0
   -1.2516    5.0783    6.5957 H   0  0  0  0  0  0  0  0  0  0  0  0
    0.3521    4.7387    5.8612 H   0  0  0  0  0  0  0  0  0  0  0  0
   -0.4708    6.3025    5.5384 H   0  0  0  0  0  0  0  0  0  0  0  0
  1  3  1  0  0  0  0
  1  7  1  0  0  0  0
  1  2  2  0  0  0  0
 34 35  1  0  0  0  0
 35 43  1  0  0  0  0
 35 36  2  0  0  0  0
  8  9  1  0  0  0  0
  9 17  1  0  0  0  0
  9 10  2  0  0  0  0
 18 19  1  0  0  0  0
 19 33  1  0  0  0  0
 19 20  2  0  0  0  0
 22 23  1  0  0  0  0
 23 24  2  0  0  0  0
 23 25  1  0  0  0  0
 34 37  1  0  0  0  0
  8 11  1  0  0  0  0
 43 44  1  0  0  0  0
 21 22  1  0  0  0  0
 18 21  1  0  0  0  0
 33 34  1  0  0  0  0
  7  8  1  0  0  0  0
 17 18  1  0  0  0  0
  3  4  1  0  0  0  0
  3  5  1  0  0  0  0
  3  6  1  0  0  0  0
 37 40  1  0  0  0  0
 37 41  1  0  0  0  0
 37 42  1  0  0  0  0
 11 14  1  0  0  0  0
 11 15  1  0  0  0  0
 11 16  1  0  0  0  0
 44 46  1  0  0  0  0
 44 47  1  0  0  0  0
 44 48  1  0  0  0  0
 22 30  1  0  0  0  0
 22 31  1  0  0  0  0
 21 28  1  0  0  0  0
 21 29  1  0  0  0  0
 34 39  1  0  0  0  0
  8 13  1  0  0  0  0
 18 27  1  0  0  0  0
 43 45  1  0  0  0  0
  7 12  1  0  0  0  0
 33 38  1  0  0  0  0
 17 26  1  0  0  0  0
 25 32  1  0  0  0  0
M  END
$$$$

  -OEChem-05262214473D

 48 47  0     1  0  0  0  0  0999 V2000
   -5.5827   -1.3473    1.4591 C   0  0  0  0  0  0  0  0  0  0  0  0
   -5.7053   -2.4696    0.9825 O   0  0  0  0  0  0  0  0  0  0  0  0
   -6.7879   -0.6277    1.9670 C   0  0  0  0  0  0  0  0  0  0  0  0
   -7.2718   -0.0164    1.1885 H   0  0  0  0  0  0  0  0  0  0  0  0
   -7.5699   -1.3171    2.3239 H   0  0  0  0  0  0  0  0  0  0  0  0
   -6.6057    0.0628    2.8060 H   0  0  0  0  0  0  0  0  0  0  0  0
   -4.4001   -0.6377    1.5884 N   0  0  0  0  0  0  0  0  0  0  0  0
   -3.1220   -1.1455    1.1644 C   0  0  2  0  0  0  0  0  0  0  0  0
   -2.2017    0.0428    0.9187 C   0  0  0  0  0  0  0  0  0  0  0  0
   -2.6171    1.1750    0.6807 O   0  0  0  0  0  0  0  0  0  0  0  0
   -3.2533   -1.9992   -0.0873 C   0  0  0  0  0  0  0  0  0  0  0  0
   -4.4370    0.2910    2.0047 H   0  0  0  0  0  0  0  0  0  0  0  0
   -2.7302   -1.7467    1.9921 H   0  0  0  0  0  0  0  0  0  0  0  0
   -3.6446   -1.4140   -0.9275 H   0  0  0  0  0  0  0  0  0  0  0  0
   -2.2844   -2.4081   -0.3922 H   0  0  0  0  0  0  0  0  0  0  0  0
   -3.9388   -2.8365    0.0822 H   0  0  0  0  0  0  0  0  0  0  0  0
   -0.8768   -0.3314    0.9568 N   0  0  0  0  0  0  0  0  0  0  0  0
    0.2067    0.6285    0.7375 C   0  0  2  0  0  0  0  0  0  0  0  0
   -0.3069    1.9778    1.2308 C   0  0  0  0  0  0  0  0  0  0  0  0
   -0.1751    3.0128    0.5805 O   0  0  0  0  0  0  0  0  0  0  0  0
    0.5689    0.6527   -0.7550 C   0  0  0  0  0  0  0  0  0  0  0  0
    1.1963   -0.6490   -1.2534 C   0  0  0  0  0  0  0  0  0  0  0  0
    1.5149   -0.5939   -2.7267 C   0  0  0  0  0  0  0  0  0  0  0  0
    1.1852    0.3286   -3.4612 O   0  0  0  0  0  0  0  0  0  0  0  0
    2.1850   -1.6891   -3.1627 O   0  0  0  0  0  0  0  0  0  0  0  0
   -0.6087   -1.2764    1.1771 H   0  0  0  0  0  0  0  0  0  0  0  0
    1.0743    0.3111    1.3252 H   0  0  0  0  0  0  0  0  0  0  0  0
   -0.3351    0.8604   -1.3429 H   0  0  0  0  0  0  0  0  0  0  0  0
    1.2712    1.4713   -0.9606 H   0  0  0  0  0  0  0  0  0  0  0  0
    2.1440   -0.8257   -0.7301 H   0  0  0  0  0  0  0  0  0  0  0  0
    0.5702   -1.5183   -1.0275 H   0  0  0  0  0  0  0  0  0  0  0  0
    2.3956   -1.7015   -4.1205 H   0  0  0  0  0  0  0  0  0  0  0  0
   -0.9486    1.8831    2.4568 N   0  0  0  0  0  0  0  0  0  0  0  0
   -1.5256    3.0192    3.1387 C   0  0  2  0  0  0  0  0  0  0  0  0
   -0.4864    3.5618    4.1108 C   0  0  0  0  0  0  0  0  0  0  0  0
    0.4438    2.8855    4.5448 O   0  0  0  0  0  0  0  0  0  0  0  0
   -2.8041    2.6363    3.8676 C   0  0  0  0  0  0  0  0  0  0  0  0
   -1.0162    0.9704    2.8971 H   0  0  0  0  0  0  0  0  0  0  0  0
   -1.7387    3.7729    2.3728 H   0  0  0  0  0  0  0  0  0  0  0  0
   -2.6105    1.8820    4.6389 H   0  0  0  0  0  0  0  0  0  0  0  0
   -3.2553    3.5041    4.3599 H   0  0  0  0  0  0  0  0  0  0  0  0
   -3.5395    2.2186    3.1715 H   0  0  0  0  0  0  0  0  0  0  0  0
   -0.7446    4.8772    4.4703 N   0  0  0  0  0  0  0  0  0  0  0  0
    0.0906    5.6121    5.3913 C   0  0  0  0  0  0  0  0  0  0  0  0
   -1.5276    5.3665    4.0468 H   0  0  0  0  0  0  0  0  0  0  0  0
   -0.3058    5.5054    6.4118 H   0  0  0  0  0  0  0  0  0  0  0  0
    1.1158    5.2152    5.3530 H   0  0  0  0  0  0  0  0  0  0  0  0
    0.0984    6.6756    5.1104 H   0  0  0  0  0  0  0  0  0  0  0  0
  1  3  1  0  0  0  0
  1  7  1  0  0  0  0
  1  2  2  0  0  0  0
 34 35  1  0  0  0  0
 35 43  1  0  0  0  0
 35 36  2  0  0  0  0
  8  9  1  0  0  0  0
  9 17  1  0  0  0  0
  9 10  2  0  0  0  0
 18 19  1  0  0  0  0
 19 33  1  0  0  0  0
 19 20  2  0  0  0  0
 22 23  1  0  0  0  0
 23 24  2  0  0  0  0
 23 25  1  0  0  0  0
 34 37  1  0  0  0  0
  8 11  1  0  0  0  0
 43 44  1  0  0  0  0
 21 22  1  0  0  0  0
 18 21  1  0  0  0  0
 33 34  1  0  0  0  0
  7  8  1  0  0  0  0
 17 18  1  0  0  0  0
  3  4  1  0  0  0  0
  3  5  1  0  0  0  0
  3  6  1  0  0  0  0
 37 40  1  0  0  0  0
 37 41  1  0  0  0  0
 37 42  1  0  0  0  0
 11 14  1  0  0  0  0
 11 15  1  0  0  0  0
 11 16  1  0  0  0  0
 44 46  1  0  0  0  0
 44 47  1  0  0  0  0
 44 48  1  0  0  0  0
 22 30  1  0  0  0  0
 22 31  1  0  0  0  0
 21 28  1  0  0  0  0
 21 29  1  0  0  0  0
 34 39  1  0  0  0  0
  8 13  1  0  0  0  0
 18 27  1  0  0  0  0
 43 45  1  0  0  0  0
  7 12  1  0  0  0  0
 33 38  1  0  0  0  0
 17 26  1  0  0  0  0
 25 32  1  0  0  0  0
M  END
$$$$

  -OEChem-05262214473D

 48 47  0     1  0  0  0  0  0999 V2000
   -5.5827   -1.3473    1.4591 C   0  0  0  0  0  0  0  0  0  0  0  0
   -5.7053   -2.4696    0.9825 O   0  0  0  0  0  0  0  0  0  0  0  0
   -6.7879   -0.6277    1.9670 C   0  0  0  0  0  0  0  0  0  0  0  0
   -7.2718   -0.0164    1.1885 H   0  0  0  0  0  0  0  0  0  0  0  0
   -7.5699   -1.3171    2.3239 H   0  0  0  0  0  0  0  0  0  0  0  0
   -6.6057    0.0628    2.8060 H   0  0  0  0  0  0  0  0  0  0  0  0
   -4.4001   -0.6377    1.5884 N   0  0  0  0  0  0  0  0  0  0  0  0
   -3.1220   -1.1455    1.1644 C   0  0  2  0  0  0  0  0  0  0  0  0
   -2.2017    0.0428    0.9187 C   0  0  0  0  0  0  0  0  0  0  0  0
   -2.6171    1.1750    0.6807 O   0  0  0  0  0  0  0  0  0  0  0  0
   -3.2533   -1.9992   -0.0873 C   0  0  0  0  0  0  0  0  0  0  0  0
   -4.4370    0.2910    2.0047 H   0  0  0  0  0  0  0  0  0  0  0  0
   -2.7302   -1.7467    1.9921 H   0  0  0  0  0  0  0  0  0  0  0  0
   -3.6446   -1.4140   -0.9275 H   0  0  0  0  0  0  0  0  0  0  0  0
   -2.2844   -2.4081   -0.3922 H   0  0  0  0  0  0  0  0  0  0  0  0
   -3.9388   -2.8365    0.0822 H   0  0  0  0  0  0  0  0  0  0  0  0
   -0.8768   -0.3314    0.9568 N   0  0  0  0  0  0  0  0  0  0  0  0
    0.2067    0.6285    0.7375 C   0  0  2  0  0  0  0  0  0  0  0  0
   -0.3069    1.9778    1.2308 C   0  0  0  0  0  0  0  0  0  0  0  0
   -0.4226    2.9519    0.4896 O   0  0  0  0  0  0  0  0  0  0  0  0
    0.5689    0.6527   -0.7550 C   0  0  0  0  0  0  0  0  0  0  0  0
    1.1963   -0.6490   -1.2534 C   0  0  0  0  0  0  0  0  0  0  0  0
    1.5149   -0.5939   -2.7267 C   0  0  0  0  0  0  0  0  0  0  0  0
    1.1852    0.3286   -3.4612 O   0  0  0  0  0  0  0  0  0  0  0  0
    2.1850   -1.6891   -3.1627 O   0  0  0  0  0  0  0  0  0  0  0  0
   -0.6087   -1.2764    1.1771 H   0  0  0  0  0  0  0  0  0  0  0  0
    1.0743    0.3111    1.3252 H   0  0  0  0  0  0  0  0  0  0  0  0
   -0.3351    0.8604   -1.3429 H   0  0  0  0  0  0  0  0  0  0  0  0
    1.2712    1.4713   -0.9606 H   0  0  0  0  0  0  0  0  0  0  0  0
    2.1440   -0.8257   -0.7301 H   0  0  0  0  0  0  0  0  0  0  0  0
    0.5702   -1.5183   -1.0275 H   0  0  0  0  0  0  0  0  0  0  0  0
    2.3956   -1.7015   -4.1205 H   0  0  0  0  0  0  0  0  0  0  0  0
   -0.6442    1.9554    2.5760 N   0  0  0  0  0  0  0  0  0  0  0  0
   -1.1568    3.1067    3.2833 C   0  0  2  0  0  0  0  0  0  0  0  0
    0.0190    3.8159    3.9421 C   0  0  0  0  0  0  0  0  0  0  0  0
    1.0823    3.2550    4.1988 O   0  0  0  0  0  0  0  0  0  0  0  0
   -2.1967    2.7032    4.3171 C   0  0  0  0  0  0  0  0  0  0  0  0
   -0.5250    1.0871    3.0892 H   0  0  0  0  0  0  0  0  0  0  0  0
   -1.6067    3.7649    2.5321 H   0  0  0  0  0  0  0  0  0  0  0  0
   -1.7644    2.0434    5.0782 H   0  0  0  0  0  0  0  0  0  0  0  0
   -2.6048    3.5790    4.8321 H   0  0  0  0  0  0  0  0  0  0  0  0
   -3.0274    2.1670    3.8455 H   0  0  0  0  0  0  0  0  0  0  0  0
   -0.2740    5.1373    4.2490 N   0  0  0  0  0  0  0  0  0  0  0  0
    0.6745    6.0174    4.8907 C   0  0  0  0  0  0  0  0  0  0  0  0
   -1.1745    5.5243    3.9826 H   0  0  0  0  0  0  0  0  0  0  0  0
    0.5298    5.9812    5.9806 H   0  0  0  0  0  0  0  0  0  0  0  0
    1.6973    5.6951    4.6458 H   0  0  0  0  0  0  0  0  0  0  0  0
    0.5190    7.0464    4.5343 H   0  0  0  0  0  0  0  0  0  0  0  0
  1  3  1  0  0  0  0
  1  7  1  0  0  0  0
  1  2  2  0  0  0  0
 34 35  1  0  0  0  0
 35 43  1  0  0  0  0
 35 36  2  0  0  0  0
  8  9  1  0  0  0  0
  9 17  1  0  0  0  0
  9 10  2  0  0  0  0
 18 19  1  0  0  0  0
 19 33  1  0  0  0  0
 19 20  2  0  0  0  0
 22 23  1  0  0  0  0
 23 24  2  0  0  0  0
 23 25  1  0  0  0  0
 34 37  1  0  0  0  0
  8 11  1  0  0  0  0
 43 44  1  0  0  0  0
 21 22  1  0  0  0  0
 18 21  1  0  0  0  0
 33 34  1  0  0  0  0
  7  8  1  0  0  0  0
 17 18  1  0  0  0  0
  3  4  1  0  0  0  0
  3  5  1  0  0  0  0
  3  6  1  0  0  0  0
 37 40  1  0  0  0  0
 37 41  1  0  0  0  0
 37 42  1  0  0  0  0
 11 14  1  0  0  0  0
 11 15  1  0  0  0  0
 11 16  1  0  0  0  0
 44 46  1  0  0  0  0
 44 47  1  0  0  0  0
 44 48  1  0  0  0  0
 22 30  1  0  0  0  0
 22 31  1  0  0  0  0
 21 28  1  0  0  0  0
 21 29  1  0  0  0  0
 34 39  1  0  0  0  0
  8 13  1  0  0  0  0
 18 27  1  0  0  0  0
 43 45  1  0  0  0  0
  7 12  1  0  0  0  0
 33 38  1  0  0  0  0
 17 26  1  0  0  0  0
 25 32  1  0  0  0  0
M  END
$$$$

  -OEChem-05262214473D

 48 47  0     1  0  0  0  0  0999 V2000
   -5.5827   -1.3473    1.4591 C   0  0  0  0  0  0  0  0  0  0  0  0
   -5.7053   -2.4696    0.9825 O   0  0  0  0  0  0  0  0  0  0  0  0
   -6.7879   -0.6277    1.9670 C   0  0  0  0  0  0  0  0  0  0  0  0
   -7.2718   -0.0164    1.1885 H   0  0  0  0  0  0  0  0  0  0  0  0
   -7.5699   -1.3171    2.3239 H   0  0  0  0  0  0  0  0  0  0  0  0
   -6.6057    0.0628    2.8060 H   0  0  0  0  0  0  0  0  0  0  0  0
   -4.4001   -0.6377    1.5884 N   0  0  0  0  0  0  0  0  0  0  0  0
   -3.1220   -1.1455    1.1644 C   0  0  2  0  0  0  0  0  0  0  0  0
   -2.2017    0.0428    0.9187 C   0  0  0  0  0  0  0  0  0  0  0  0
   -2.6171    1.1750    0.6807 O   0  0  0  0  0  0  0  0  0  0  0  0
   -3.2533   -1.9992   -0.0873 C   0  0  0  0  0  0  0  0  0  0  0  0
   -4.4370    0.2910    2.0047 H   0  0  0  0  0  0  0  0  0  0  0  0
   -2.7302   -1.7467    1.9921 H   0  0  0  0  0  0  0  0  0  0  0  0
   -3.6446   -1.4140   -0.9275 H   0  0  0  0  0  0  0  0  0  0  0  0
   -2.2844   -2.4081   -0.3922 H   0  0  0  0  0  0  0  0  0  0  0  0
   -3.9388   -2.8365    0.0822 H   0  0  0  0  0  0  0  0  0  0  0  0
   -0.8768   -0.3314    0.9568 N   0  0  0  0  0  0  0  0  0  0  0  0
    0.2067    0.6285    0.7375 C   0  0  2  0  0  0  0  0  0  0  0  0
   -0.3069    1.9778    1.2308 C   0  0  0  0  0  0  0  0  0  0  0  0
   -0.6774    2.8643    0.4638 O   0  0  0  0  0  0  0  0  0  0  0  0
    0.5689    0.6527   -0.7550 C   0  0  0  0  0  0  0  0  0  0  0  0
    1.1963   -0.6490   -1.2534 C   0  0  0  0  0  0  0  0  0  0  0  0
    1.5149   -0.5939   -2.7267 C   0  0  0  0  0  0  0  0  0  0  0  0
    1.1852    0.3286   -3.4612 O   0  0  0  0  0  0  0  0  0  0  0  0
    2.1850   -1.6891   -3.1627 O   0  0  0  0  0  0  0  0  0  0  0  0
   -0.6087   -1.2764    1.1771 H   0  0  0  0  0  0  0  0  0  0  0  0
    1.0743    0.3111    1.3252 H   0  0  0  0  0  0  0  0  0  0  0  0
   -0.3351    0.8604   -1.3429 H   0  0  0  0  0  0  0  0  0  0  0  0
    1.2712    1.4713   -0.9606 H   0  0  0  0  0  0  0  0  0  0  0  0
    2.1440   -0.8257   -0.7301 H   0  0  0  0  0  0  0  0  0  0  0  0
    0.5702   -1.5183   -1.0275 H   0  0  0  0  0  0  0  0  0  0  0  0
    2.3956   -1.7015   -4.1205 H   0  0  0  0  0  0  0  0  0  0  0  0
   -0.3290    2.0610    2.6152 N   0  0  0  0  0  0  0  0  0  0  0  0
   -0.7749    3.2346    3.3311 C   0  0  2  0  0  0  0  0  0  0  0  0
    0.4472    4.0888    3.6414 C   0  0  0  0  0  0  0  0  0  0  0  0
    1.5888    3.6352    3.6863 O   0  0  0  0  0  0  0  0  0  0  0  0
   -1.5127    2.8577    4.6064 C   0  0  0  0  0  0  0  0  0  0  0  0
   -0.0164    1.2577    3.1521 H   0  0  0  0  0  0  0  0  0  0  0  0
   -1.4421    3.7821    2.6565 H   0  0  0  0  0  0  0  0  0  0  0  0
   -0.8601    2.3084    5.2948 H   0  0  0  0  0  0  0  0  0  0  0  0
   -1.8746    3.7470    5.1329 H   0  0  0  0  0  0  0  0  0  0  0  0
   -2.3741    2.2188    4.3839 H   0  0  0  0  0  0  0  0  0  0  0  0
    0.1082    5.4086    3.9047 N   0  0  0  0  0  0  0  0  0  0  0  0
    1.0900    6.4141    4.2382 C   0  0  0  0  0  0  0  0  0  0  0  0
   -0.8614    5.7007    3.8260 H   0  0  0  0  0  0  0  0  0  0  0  0
    1.1985    6.4731    5.3312 H   0  0  0  0  0  0  0  0  0  0  0  0
    2.0570    6.1457    3.7878 H   0  0  0  0  0  0  0  0  0  0  0  0
    0.7624    7.3895    3.8492 H   0  0  0  0  0  0  0  0  0  0  0  0
  1  3  1  0  0  0  0
  1  7  1  0  0  0  0
  1  2  2  0  0  0  0
 34 35  1  0  0  0  0
 35 43  1  0  0  0  0
 35 36  2  0  0  0  0
  8  9  1  0  0  0  0
  9 17  1  0  0  0  0
  9 10  2  0  0  0  0
 18 19  1  0  0  0  0
 19 33  1  0  0  0  0
 19 20  2  0  0  0  0
 22 23  1  0  0  0  0
 23 24  2  0  0  0  0
 23 25  1  0  0  0  0
 34 37  1  0  0  0  0
  8 11  1  0  0  0  0
 43 44  1  0  0  0  0
 21 22  1  0  0  0  0
 18 21  1  0  0  0  0
 33 34  1  0  0  0  0
  7  8  1  0  0  0  0
 17 18  1  0  0  0  0
  3  4  1  0  0  0  0
  3  5  1  0  0  0  0
  3  6  1  0  0  0  0
 37 40  1  0  0  0  0
 37 41  1  0  0  0  0
 37 42  1  0  0  0  0
 11 14  1  0  0  0  0
 11 15  1  0  0  0  0
 11 16  1  0  0  0  0
 44 46  1  0  0  0  0
 44 47  1  0  0  0  0
 44 48  1  0  0  0  0
 22 30  1  0  0  0  0
 22 31  1  0  0  0  0
 21 28  1  0  0  0  0
 21 29  1  0  0  0  0
 34 39  1  0  0  0  0
  8 13  1  0  0  0  0
 18 27  1  0  0  0  0
 43 45  1  0  0  0  0
  7 12  1  0  0  0  0
 33 38  1  0  0  0  0
 17 26  1  0  0  0  0
 25 32  1  0  0  0  0
M  END
$$$$

  -OEChem-05262214473D

 48 47  0     1  0  0  0  0  0999 V2000
   -5.5827   -1.3473    1.4591 C   0  0  0  0  0  0  0  0  0  0  0  0
   -5.7053   -2.4696    0.9825 O   0  0  0  0  0  0  0  0  0  0  0  0
   -6.7879   -0.6277    1.9670 C   0  0  0  0  0  0  0  0  0  0  0  0
   -7.2718   -0.0164    1.1885 H   0  0  0  0  0  0  0  0  0  0  0  0
   -7.5699   -1.3171    2.3239 H   0  0  0  0  0  0  0  0  0  0  0  0
   -6.6057    0.0628    2.8060 H   0  0  0  0  0  0  0  0  0  0  0  0
   -4.4001   -0.6377    1.5884 N   0  0  0  0  0  0  0  0  0  0  0  0
   -3.1220   -1.1455    1.1644 C   0  0  2  0  0  0  0  0  0  0  0  0
   -2.2017    0.0428    0.9187 C   0  0  0  0  0  0  0  0  0  0  0  0
   -2.6171    1.1750    0.6807 O   0  0  0  0  0  0  0  0  0  0  0  0
   -3.2533   -1.9992   -0.0873 C   0  0  0  0  0  0  0  0  0  0  0  0
   -4.4370    0.2910    2.0047 H   0  0  0  0  0  0  0  0  0  0  0  0
   -2.7302   -1.7467    1.9921 H   0  0  0  0  0  0  0  0  0  0  0  0
   -3.6446   -1.4140   -0.9275 H   0  0  0  0  0  0  0  0  0  0  0  0
   -2.2844   -2.4081   -0.3922 H   0  0  0  0  0  0  0  0  0  0  0  0
   -3.9388   -2.8365    0.0822 H   0  0  0  0  0  0  0  0  0  0  0  0
   -0.8768   -0.3314    0.9568 N   0  0  0  0  0  0  0  0  0  0  0  0
    0.2067    0.6285    0.7375 C   0  0  2  0  0  0  0  0  0  0  0  0
   -0.3069    1.9778    1.2308 C   0  0  0  0  0  0  0  0  0  0  0  0
   -0.9221    2.7562    0.5048 O   0  0  0  0  0  0  0  0  0  0  0  0
    0.5689    0.6527   -0.7550 C   0  0  0  0  0  0  0  0  0  0  0  0
    1.1963   -0.6490   -1.2534 C   0  0  0  0  0  0  0  0  0  0  0  0
    1.5149   -0.5939   -2.7267 C   0  0  0  0  0  0  0  0  0  0  0  0
    1.1852    0.3286   -3.4612 O   0  0  0  0  0  0  0  0  0  0  0  0
    2.1850   -1.6891   -3.1627 O   0  0  0  0  0  0  0  0  0  0  0  0
   -0.6087   -1.2764    1.1771 H   0  0  0  0  0  0  0  0  0  0  0  0
    1.0743    0.3111    1.3252 H   0  0  0  0  0  0  0  0  0  0  0  0
   -0.3351    0.8604   -1.3429 H   0  0  0  0  0  0  0  0  0  0  0  0
    1.2712    1.4713   -0.9606 H   0  0  0  0  0  0  0  0  0  0  0  0
    2.1440   -0.8257   -0.7301 H   0  0  0  0  0  0  0  0  0  0  0  0
    0.5702   -1.5183   -1.0275 H   0  0  0  0  0  0  0  0  0  0  0  0
    2.3956   -1.7015   -4.1205 H   0  0  0  0  0  0  0  0  0  0  0  0
   -0.0244    2.1929    2.5716 N   0  0  0  0  0  0  0  0  0  0  0  0
   -0.4057    3.3943    3.2786 C   0  0  2  0  0  0  0  0  0  0  0  0
    0.7692    4.3621    3.2291 C   0  0  0  0  0  0  0  0  0  0  0  0
    1.9290    4.0001    3.0422 O   0  0  0  0  0  0  0  0  0  0  0  0
   -0.7987    3.0895    4.7158 C   0  0  0  0  0  0  0  0  0  0  0  0
    0.4751    1.4705    3.0817 H   0  0  0  0  0  0  0  0  0  0  0  0
   -1.2560    3.8233    2.7374 H   0  0  0  0  0  0  0  0  0  0  0  0
    0.0407    2.6589    5.2739 H   0  0  0  0  0  0  0  0  0  0  0  0
   -1.1146    3.9965    5.2416 H   0  0  0  0  0  0  0  0  0  0  0  0
   -1.6242    2.3704    4.7499 H   0  0  0  0  0  0  0  0  0  0  0  0
    0.3759    5.6727    3.4611 N   0  0  0  0  0  0  0  0  0  0  0  0
    1.3088    6.7752    3.4782 C   0  0  0  0  0  0  0  0  0  0  0  0
   -0.6096    5.8837    3.5878 H   0  0  0  0  0  0  0  0  0  0  0  0
    1.6546    6.9476    4.5081 H   0  0  0  0  0  0  0  0  0  0  0  0
    2.1703    6.5363    2.8374 H   0  0  0  0  0  0  0  0  0  0  0  0
    0.8120    7.6816    3.1018 H   0  0  0  0  0  0  0  0  0  0  0  0
  1  3  1  0  0  0  0
  1  7  1  0  0  0  0
  1  2  2  0  0  0  0
 34 35  1  0  0  0  0
 35 43  1  0  0  0  0
 35 36  2  0  0  0  0
  8  9  1  0  0  0  0
  9 17  1  0  0  0  0
  9 10  2  0  0  0  0
 18 19  1  0  0  0  0
 19 33  1  0  0  0  0
 19 20  2  0  0  0  0
 22 23  1  0  0  0  0
 23 24  2  0  0  0  0
 23 25  1  0  0  0  0
 34 37  1  0  0  0  0
  8 11  1  0  0  0  0
 43 44  1  0  0  0  0
 21 22  1  0  0  0  0
 18 21  1  0  0  0  0
 33 34  1  0  0  0  0
  7  8  1  0  0  0  0
 17 18  1  0  0  0  0
  3  4  1  0  0  0  0
  3  5  1  0  0  0  0
  3  6  1  0  0  0  0
 37 40  1  0  0  0  0
 37 41  1  0  0  0  0
 37 42  1  0  0  0  0
 11 14  1  0  0  0  0
 11 15  1  0  0  0  0
 11 16  1  0  0  0  0
 44 46  1  0  0  0  0
 44 47  1  0  0  0  0
 44 48  1  0  0  0  0
 22 30  1  0  0  0  0
 22 31  1  0  0  0  0
 21 28  1  0  0  0  0
 21 29  1  0  0  0  0
 34 39  1  0  0  0  0
  8 13  1  0  0  0  0
 18 27  1  0  0  0  0
 43 45  1  0  0  0  0
  7 12  1  0  0  0  0
 33 38  1  0  0  0  0
 17 26  1  0  0  0  0
 25 32  1  0  0  0  0
M  END
$$$$

  -OEChem-05262214473D

 48 47  0     1  0  0  0  0  0999 V2000
   -5.5827   -1.3473    1.4591 C   0  0  0  0  0  0  0  0  0  0  0  0
   -5.7053   -2.4696    0.9825 O   0  0  0  0  0  0  0  0  0  0  0  0
   -6.7879   -0.6277    1.9670 C   0  0  0  0  0  0  0  0  0  0  0  0
   -7.2718   -0.0164    1.1885 H   0  0  0  0  0  0  0  0  0  0  0  0
   -7.5699   -1.3171    2.3239 H   0  0  0  0  0  0  0  0  0  0  0  0
   -6.6057    0.0628    2.8060 H   0  0  0  0  0  0  0  0  0  0  0  0
   -4.4001   -0.6377    1.5884 N   0  0  0  0  0  0  0  0  0  0  0  0
   -3.1220   -1.1455    1.1644 C   0  0  2  0  0  0  0  0  0  0  0  0
   -2.2017    0.0428    0.9187 C   0  0  0  0  0  0  0  0  0  0  0  0
   -2.6171    1.1750    0.6807 O   0  0  0  0  0  0  0  0  0  0  0  0
   -3.2533   -1.9992   -0.0873 C   0  0  0  0  0  0  0  0  0  0  0  0
   -4.4370    0.2910    2.0047 H   0  0  0  0  0  0  0  0  0  0  0  0
   -2.7302   -1.7467    1.9921 H   0  0  0  0  0  0  0  0  0  0  0  0
   -3.6446   -1.4140   -0.9275 H   0  0  0  0  0  0  0  0  0  0  0  0
   -2.2844   -2.4081   -0.3922 H   0  0  0  0  0  0  0  0  0  0  0  0
   -3.9388   -2.8365    0.0822 H   0  0  0  0  0  0  0  0  0  0  0  0
   -0.8768   -0.3314    0.9568 N   0  0  0  0  0  0  0  0  0  0  0  0
    0.2067    0.6285    0.7375 C   0  0  2  0  0  0  0  0  0  0  0  0
   -0.3069    1.9778    1.2308 C   0  0  0  0  0  0  0  0  0  0  0  0
   -1.1401    2.6348    0.6098 O   0  0  0  0  0  0  0  0  0  0  0  0
    0.5689    0.6527   -0.7550 C   0  0  0  0  0  0  0  0  0  0  0  0
    1.1963   -0.6490   -1.2534 C   0  0  0  0  0  0  0  0  0  0  0  0
    1.5149   -0.5939   -2.7267 C   0  0  0  0  0  0  0  0  0  0  0  0
    1.1852    0.3286   -3.4612 O   0  0  0  0  0  0  0  0  0  0  0  0
    2.1850   -1.6891   -3.1627 O   0  0  0  0  0  0  0  0  0  0  0  0
   -0.6087   -1.2764    1.1771 H   0  0  0  0  0  0  0  0  0  0  0  0
    1.0743    0.3111    1.3252 H   0  0  0  0  0  0  0  0  0  0  0  0
   -0.3351    0.8604   -1.3429 H   0  0  0  0  0  0  0  0  0  0  0  0
    1.2712    1.4713   -0.9606 H   0  0  0  0  0  0  0  0  0  0  0  0
    2.1440   -0.8257   -0.7301 H   0  0  0  0  0  0  0  0  0  0  0  0
    0.5702   -1.5183   -1.0275 H   0  0  0  0  0  0  0  0  0  0  0  0
    2.3956   -1.7015   -4.1205 H   0  0  0  0  0  0  0  0  0  0  0  0
    0.2489    2.3419    2.4484 N   0  0  0  0  0  0  0  0  0  0  0  0
   -0.0745    3.5749    3.1295 C   0  0  2  0  0  0  0  0  0  0  0  0
    0.9630    4.6171    2.7333 C   0  0  0  0  0  0  0  0  0  0  0  0
    2.0796    4.3250    2.3104 O   0  0  0  0  0  0  0  0  0  0  0  0
   -0.1033    3.3826    4.6378 C   0  0  0  0  0  0  0  0  0  0  0  0
    0.9158    1.7111    2.8826 H   0  0  0  0  0  0  0  0  0  0  0  0
   -1.0612    3.8857    2.7694 H   0  0  0  0  0  0  0  0  0  0  0  0
    0.8768    3.0710    5.0170 H   0  0  0  0  0  0  0  0  0  0  0  0
   -0.3764    4.3106    5.1509 H   0  0  0  0  0  0  0  0  0  0  0  0
   -0.8288    2.6115    4.9186 H   0  0  0  0  0  0  0  0  0  0  0  0
    0.5109    5.9115    2.9484 N   0  0  0  0  0  0  0  0  0  0  0  0
    1.3159    7.0761    2.6627 C   0  0  0  0  0  0  0  0  0  0  0  0
   -0.4361    6.0607    3.2840 H   0  0  0  0  0  0  0  0  0  0  0  0
    1.8671    7.3724    3.5673 H   0  0  0  0  0  0  0  0  0  0  0  0
    2.0296    6.8403    1.8595 H   0  0  0  0  0  0  0  0  0  0  0  0
    0.6643    7.9027    2.3432 H   0  0  0  0  0  0  0  0  0  0  0  0
  1  3  1  0  0  0  0
  1  7  1  0  0  0  0
  1  2  2  0  0  0  0
 34 35  1  0  0  0  0
 35 43  1  0  0  0  0
 35 36  2  0  0  0  0
  8  9  1  0  0  0  0
  9 17  1  0  0  0  0
  9 10  2  0  0  0  0
 18 19  1  0  0  0  0
 19 33  1  0  0  0  0
 19 20  2  0  0  0  0
 22 23  1  0  0  0  0
 23 24  2  0  0  0  0
 23 25  1  0  0  0  0
 34 37  1  0  0  0  0
  8 11  1  0  0  0  0
 43 44  1  0  0  0  0
 21 22  1  0  0  0  0
 18 21  1  0  0  0  0
 33 34  1  0  0  0  0
  7  8  1  0  0  0  0
 17 18  1  0  0  0  0
  3  4  1  0  0  0  0
  3  5  1  0  0  0  0
  3  6  1  0  0  0  0
 37 40  1  0  0  0  0
 37 41  1  0  0  0  0
 37 42  1  0  0  0  0
 11 14  1  0  0  0  0
 11 15  1  0  0  0  0
 11 16  1  0  0  0  0
 44 46  1  0  0  0  0
 44 47  1  0  0  0  0
 44 48  1  0  0  0  0
 22 30  1  0  0  0  0
 22 31  1  0  0  0  0
 21 28  1  0  0  0  0
 21 29  1  0  0  0  0
 34 39  1  0  0  0  0
  8 13  1  0  0  0  0
 18 27  1  0  0  0  0
 43 45  1  0  0  0  0
  7 12  1  0  0  0  0
 33 38  1  0  0  0  0
 17 26  1  0  0  0  0
 25 32  1  0  0  0  0
M  END
$$$$

  -OEChem-05262214473D

 48 47  0     1  0  0  0  0  0999 V2000
   -5.5827   -1.3473    1.4591 C   0  0  0  0  0  0  0  0  0  0  0  0
   -5.7053   -2.4696    0.9825 O   0  0  0  0  0  0  0  0  0  0  0  0
   -6.7879   -0.6277    1.9670 C   0  0  0  0  0  0  0  0  0  0  0  0
   -7.2718   -0.0164    1.1885 H   0  0  0  0  0  0  0  0  0  0  0  0
   -7.5699   -1.3171    2.3239 H   0  0  0  0  0  0  0  0  0  0  0  0
   -6.6057    0.0628    2.8060 H   0  0  0  0  0  0  0  0  0  0  0  0
   -4.4001   -0.6377    1.5884 N   0  0  0  0  0  0  0  0  0  0  0  0
   -3.1220   -1.1455    1.1644 C   0  0  2  0  0  0  0  0  0  0  0  0
   -2.2017    0.0428    0.9187 C   0  0  0  0  0  0  0  0  0  0  0  0
   -2.6171    1.1750    0.6807 O   0  0  0  0  0  0  0  0  0  0  0  0
   -3.2533   -1.9992   -0.0873 C   0  0  0  0  0  0  0  0  0  0  0  0
   -4.4370    0.2910    2.0047 H   0  0  0  0  0  0  0  0  0  0  0  0
   -2.7302   -1.7467    1.9921 H   0  0  0  0  0  0  0  0  0  0  0  0
   -3.6446   -1.4140   -0.9275 H   0  0  0  0  0  0  0  0  0  0  0  0
   -2.2844   -2.4081   -0.3922 H   0  0  0  0  0  0  0  0  0  0  0  0
   -3.9388   -2.8365    0.0822 H   0  0  0  0  0  0  0  0  0  0  0  0
   -0.8768   -0.3314    0.9568 N   0  0  0  0  0  0  0  0  0  0  0  0
    0.2067    0.6285    0.7375 C   0  0  2  0  0  0  0  0  0  0  0  0
   -0.3069    1.9778    1.2308 C   0  0  0  0  0  0  0  0  0  0  0  0
   -1.3164    2.5085    0.7718 O   0  0  0  0  0  0  0  0  0  0  0  0
    0.5689    0.6527   -0.7550 C   0  0  0  0  0  0  0  0  0  0  0  0
    1.1963   -0.6490   -1.2534 C   0  0  0  0  0  0  0  0  0  0  0  0
    1.5149   -0.5939   -2.7267 C   0  0  0  0  0  0  0  0  0  0  0  0
    1.1852    0.3286   -3.4612 O   0  0  0  0  0  0  0  0  0  0  0  0
    2.1850   -1.6891   -3.1627 O   0  0  0  0  0  0  0  0  0  0  0  0
   -0.6087   -1.2764    1.1771 H   0  0  0  0  0  0  0  0  0  0  0  0
    1.0743    0.3111    1.3252 H   0  0  0  0  0  0  0  0  0  0  0  0
   -0.3351    0.8604   -1.3429 H   0  0  0  0  0  0  0  0  0  0  0  0
    1.2712    1.4713   -0.9606 H   0  0  0  0  0  0  0  0  0  0  0  0
    2.1440   -0.8257   -0.7301 H   0  0  0  0  0  0  0  0  0  0  0  0
    0.5702   -1.5183   -1.0275 H   0  0  0  0  0  0  0  0  0  0  0  0
    2.3956   -1.7015   -4.1205 H   0  0  0  0  0  0  0  0  0  0  0  0
    0.4721    2.4980    2.2538 N   0  0  0  0  0  0  0  0  0  0  0  0
    0.1962    3.7640    2.8939 C   0  0  2  0  0  0  0  0  0  0  0  0
    1.0153    4.8364    2.1879 C   0  0  0  0  0  0  0  0  0  0  0  0
    2.0304    4.5877    1.5407 O   0  0  0  0  0  0  0  0  0  0  0  0
    0.5259    3.7172    4.3778 C   0  0  0  0  0  0  0  0  0  0  0  0
    1.2759    1.9630    2.5684 H   0  0  0  0  0  0  0  0  0  0  0  0
   -0.8710    3.9651    2.7503 H   0  0  0  0  0  0  0  0  0  0  0  0
    1.5910    3.5167    4.5415 H   0  0  0  0  0  0  0  0  0  0  0  0
    0.2896    4.6679    4.8670 H   0  0  0  0  0  0  0  0  0  0  0  0
   -0.0421    2.9257    4.8784 H   0  0  0  0  0  0  0  0  0  0  0  0
    0.5038    6.1088    2.4014 N   0  0  0  0  0  0  0  0  0  0  0  0
    1.1110    7.2963    1.8470 C   0  0  0  0  0  0  0  0  0  0  0  0
   -0.3530    6.2198    2.9355 H   0  0  0  0  0  0  0  0  0  0  0  0
    1.8214    7.7186    2.5730 H   0  0  0  0  0  0  0  0  0  0  0  0
    1.6443    7.0369    0.9206 H   0  0  0  0  0  0  0  0  0  0  0  0
    0.3295    8.0379    1.6249 H   0  0  0  0  0  0  0  0  0  0  0  0
  1  3  1  0  0  0  0
  1  7  1  0  0  0  0
  1  2  2  0  0  0  0
 34 35  1  0  0  0  0
 35 43  1  0  0  0  0
 35 36  2  0  0  0  0
  8  9  1  0  0  0  0
  9 17  1  0  0  0  0
  9 10  2  0  0  0  0
 18 19  1  0  0  0  0
 19 33  1  0  0  0  0
 19 20  2  0  0  0  0
 22 23  1  0  0  0  0
 23 24  2  0  0  0  0
 23 25  1  0  0  0  0
 34 37  1  0  0  0  0
  8 11  1  0  0  0  0
 43 44  1  0  0  0  0
 21 22  1  0  0  0  0
 18 21  1  0  0  0  0
 33 34  1  0  0  0  0
  7  8  1  0  0  0  0
 17 18  1  0  0  0  0
  3  4  1  0  0  0  0
  3  5  1  0  0  0  0
  3  6  1  0  0  0  0
 37 40  1  0  0  0  0
 37 41  1  0  0  0  0
 37 42  1  0  0  0  0
 11 14  1  0  0  0  0
 11 15  1  0  0  0  0
 11 16  1  0  0  0  0
 44 46  1  0  0  0  0
 44 47  1  0  0  0  0
 44 48  1  0  0  0  0
 22 30  1  0  0  0  0
 22 31  1  0  0  0  0
 21 28  1  0  0  0  0
 21 29  1  0  0  0  0
 34 39  1  0  0  0  0
  8 13  1  0  0  0  0
 18 27  1  0  0  0  0
 43 45  1  0  0  0  0
  7 12  1  0  0  0  0
 33 38  1  0  0  0  0
 17 26  1  0  0  0  0
 25 32  1  0  0  0  0
M  END
$$$$

  -OEChem-05262214473D

 48 47  0     1  0  0  0  0  0999 V2000
   -5.5827   -1.3473    1.4591 C   0  0  0  0  0  0  0  0  0  0  0  0
   -5.7053   -2.4696    0.9825 O   0  0  0  0  0  0  0  0  0  0  0  0
   -6.7879   -0.6277    1.9670 C   0  0  0  0  0  0  0  0  0  0  0  0
   -7.2718   -0.0164    1.1885 H   0  0  0  0  0  0  0  0  0  0  0  0
   -7.5699   -1.3171    2.3239 H   0  0  0  0  0  0  0  0  0  0  0  0
   -6.6057    0.0628    2.8060 H   0  0  0  0  0  0  0  0  0  0  0  0
   -4.4001   -0.6377    1.5884 N   0  0  0  0  0  0  0  0  0  0  0  0
   -3.1220   -1.1455    1.1644 C   0  0  2  0  0  0  0  0  0  0  0  0
   -2.2017    0.0428    0.9187 C   0  0  0  0  0  0  0  0  0  0  0  0
   -2.6171    1.1750    0.6807 O   0  0  0  0  0  0  0  0  0  0  0  0
   -3.2533   -1.9992   -0.0873 C   0  0  0  0  0  0  0  0  0  0  0  0
   -4.4370    0.2910    2.0047 H   0  0  0  0  0  0  0  0  0  0  0  0
   -2.7302   -1.7467    1.9921 H   0  0  0  0  0  0  0  0  0  0  0  0
   -3.6446   -1.4140   -0.9275 H   0  0  0  0  0  0  0  0  0  0  0  0
   -2.2844   -2.4081   -0.3922 H   0  0  0  0  0  0  0  0  0  0  0  0
   -3.9388   -2.8365    0.0822 H   0  0  0  0  0  0  0  0  0  0  0  0
   -0.8768   -0.3314    0.9568 N   0  0  0  0  0  0  0  0  0  0  0  0
    0.2067    0.6285    0.7375 C   0  0  2  0  0  0  0  0  0  0  0  0
   -0.3069    1.9778    1.2308 C   0  0  0  0  0  0  0  0  0  0  0  0
   -1.4390    2.3859    0.9795 O   0  0  0  0  0  0  0  0  0  0  0  0
    0.5689    0.6527   -0.7550 C   0  0  0  0  0  0  0  0  0  0  0  0
    1.1963   -0.6490   -1.2534 C   0  0  0  0  0  0  0  0  0  0  0  0
    1.5149   -0.5939   -2.7267 C   0  0  0  0  0  0  0  0  0  0  0  0
    1.1852    0.3286   -3.4612 O   0  0  0  0  0  0  0  0  0  0  0  0
    2.1850   -1.6891   -3.1627 O   0  0  0  0  0  0  0  0  0  0  0  0
   -0.6087   -1.2764    1.1771 H   0  0  0  0  0  0  0  0  0  0  0  0
    1.0743    0.3111    1.3252 H   0  0  0  0  0  0  0  0  0  0  0  0
   -0.3351    0.8604   -1.3429 H   0  0  0  0  0  0  0  0  0  0  0  0
    1.2712    1.4713   -0.9606 H   0  0  0  0  0  0  0  0  0  0  0  0
    2.1440   -0.8257   -0.7301 H   0  0  0  0  0  0  0  0  0  0  0  0
    0.5702   -1.5183   -1.0275 H   0  0  0  0  0  0  0  0  0  0  0  0
    2.3956   -1.7015   -4.1205 H   0  0  0  0  0  0  0  0  0  0  0  0
    0.6301    2.6506    2.0011 N   0  0  0  0  0  0  0  0  0  0  0  0
    0.3879    3.9489    2.5880 C   0  0  2  0  0  0  0  0  0  0  0  0
    0.9227    5.0052    1.6300 C   0  0  0  0  0  0  0  0  0  0  0  0
    1.7847    4.7702    0.7857 O   0  0  0  0  0  0  0  0  0  0  0  0
    1.0462    4.0704    3.9535 C   0  0  0  0  0  0  0  0  0  0  0  0
    1.5307    2.2090    2.1606 H   0  0  0  0  0  0  0  0  0  0  0  0
   -0.6982    4.0561    2.6814 H   0  0  0  0  0  0  0  0  0  0  0  0
    2.1348    3.9656    3.8800 H   0  0  0  0  0  0  0  0  0  0  0  0
    0.8380    5.0440    4.4091 H   0  0  0  0  0  0  0  0  0  0  0  0
    0.6824    3.2914    4.6322 H   0  0  0  0  0  0  0  0  0  0  0  0
    0.3553    6.2512    1.8574 N   0  0  0  0  0  0  0  0  0  0  0  0
    0.7079    7.4208    1.0869 C   0  0  0  0  0  0  0  0  0  0  0  0
   -0.3657    6.3501    2.5660 H   0  0  0  0  0  0  0  0  0  0  0  0
    1.5207    7.9625    1.5928 H   0  0  0  0  0  0  0  0  0  0  0  0
    1.0408    7.1128    0.0847 H   0  0  0  0  0  0  0  0  0  0  0  0
   -0.1696    8.0779    0.9959 H   0  0  0  0  0  0  0  0  0  0  0  0
  1  3  1  0  0  0  0
  1  7  1  0  0  0  0
  1  2  2  0  0  0  0
 34 35  1  0  0  0  0
 35 43  1  0  0  0  0
 35 36  2  0  0  0  0
  8  9  1  0  0  0  0
  9 17  1  0  0  0  0
  9 10  2  0  0  0  0
 18 19  1  0  0  0  0
 19 33  1  0  0  0  0
 19 20  2  0  0  0  0
 22 23  1  0  0  0  0
 23 24  2  0  0  0  0
 23 25  1  0  0  0  0
 34 37  1  0  0  0  0
  8 11  1  0  0  0  0
 43 44  1  0  0  0  0
 21 22  1  0  0  0  0
 18 21  1  0  0  0  0
 33 34  1  0  0  0  0
  7  8  1  0  0  0  0
 17 18  1  0  0  0  0
  3  4  1  0  0  0  0
  3  5  1  0  0  0  0
  3  6  1  0  0  0  0
 37 40  1  0  0  0  0
 37 41  1  0  0  0  0
 37 42  1  0  0  0  0
 11 14  1  0  0  0  0
 11 15  1  0  0  0  0
 11 16  1  0  0  0  0
 44 46  1  0  0  0  0
 44 47  1  0  0  0  0
 44 48  1  0  0  0  0
 22 30  1  0  0  0  0
 22 31  1  0  0  0  0
 21 28  1  0  0  0  0
 21 29  1  0  0  0  0
 34 39  1  0  0  0  0
  8 13  1  0  0  0  0
 18 27  1  0  0  0  0
 43 45  1  0  0  0  0
  7 12  1  0  0  0  0
 33 38  1  0  0  0  0
 17 26  1  0  0  0  0
 25 32  1  0  0  0  0
M  END
$$$$

  -OEChem-05262214473D

 48 47  0     1  0  0  0  0  0999 V2000
   -5.5827   -1.3473    1.4591 C   0  0  0  0  0  0  0  0  0  0  0  0
   -5.7053   -2.4696    0.9825 O   0  0  0  0  0  0  0  0  0  0  0  0
   -6.7879   -0.6277    1.9670 C   0  0  0  0  0  0  0  0  0  0  0  0
   -7.2718   -0.0164    1.1885 H   0  0  0  0  0  0  0  0  0  0  0  0
   -7.5699   -1.3171    2.3239 H   0  0  0  0  0  0  0  0  0  0  0  0
   -6.6057    0.0628    2.8060 H   0  0  0  0  0  0  0  0  0  0  0  0
   -4.4001   -0.6377    1.5884 N   0  0  0  0  0  0  0  0  0  0  0  0
   -3.1220   -1.1455    1.1644 C   0  0  2  0  0  0  0  0  0  0  0  0
   -2.2017    0.0428    0.9187 C   0  0  0  0  0  0  0  0  0  0  0  0
   -2.6171    1.1750    0.6807 O   0  0  0  0  0  0  0  0  0  0  0  0
   -3.2533   -1.9992   -0.0873 C   0  0  0  0  0  0  0  0  0  0  0  0
   -4.4370    0.2910    2.0047 H   0  0  0  0  0  0  0  0  0  0  0  0
   -2.7302   -1.7467    1.9921 H   0  0  0  0  0  0  0  0  0  0  0  0
   -3.6446   -1.4140   -0.9275 H   0  0  0  0  0  0  0  0  0  0  0  0
   -2.2844   -2.4081   -0.3922 H   0  0  0  0  0  0  0  0  0  0  0  0
   -3.9388   -2.8365    0.0822 H   0  0  0  0  0  0  0  0  0  0  0  0
   -0.8768   -0.3314    0.9568 N   0  0  0  0  0  0  0  0  0  0  0  0
    0.2067    0.6285    0.7375 C   0  0  2  0  0  0  0  0  0  0  0  0
   -0.3069    1.9778    1.2308 C   0  0  0  0  0  0  0  0  0  0  0  0
   -1.4997    2.2753    1.2189 O   0  0  0  0  0  0  0  0  0  0  0  0
    0.5689    0.6527   -0.7550 C   0  0  0  0  0  0  0  0  0  0  0  0
    1.1963   -0.6490   -1.2534 C   0  0  0  0  0  0  0  0  0  0  0  0
    1.5149   -0.5939   -2.7267 C   0  0  0  0  0  0  0  0  0  0  0  0
    1.1852    0.3286   -3.4612 O   0  0  0  0  0  0  0  0  0  0  0  0
    2.1850   -1.6891   -3.1627 O   0  0  0  0  0  0  0  0  0  0  0  0
   -0.6087   -1.2764    1.1771 H   0  0  0  0  0  0  0  0  0  0  0  0
    1.0743    0.3111    1.3252 H   0  0  0  0  0  0  0  0  0  0  0  0
   -0.3351    0.8604   -1.3429 H   0  0  0  0  0  0  0  0  0  0  0  0
    1.2712    1.4713   -0.9606 H   0  0  0  0  0  0  0  0  0  0  0  0
    2.1440   -0.8257   -0.7301 H   0  0  0  0  0  0  0  0  0  0  0  0
    0.5702   -1.5183   -1.0275 H   0  0  0  0  0  0  0  0  0  0  0  0
    2.3956   -1.7015   -4.1205 H   0  0  0  0  0  0  0  0  0  0  0  0
    0.7122    2.7891    1.7076 N   0  0  0  0  0  0  0  0  0  0  0  0
    0.4876    4.1168    2.2324 C   0  0  2  0  0  0  0  0  0  0  0  0
    0.6914    5.1118    1.0975 C   0  0  0  0  0  0  0  0  0  0  0  0
    1.3592    4.8602    0.0967 O   0  0  0  0  0  0  0  0  0  0  0  0
    1.4221    4.4181    3.3937 C   0  0  0  0  0  0  0  0  0  0  0  0
    1.6628    2.4325    1.6869 H   0  0  0  0  0  0  0  0  0  0  0  0
   -0.5548    4.1524    2.5674 H   0  0  0  0  0  0  0  0  0  0  0  0
    2.4711    4.3870    3.0774 H   0  0  0  0  0  0  0  0  0  0  0  0
    1.2314    5.4133    3.8086 H   0  0  0  0  0  0  0  0  0  0  0  0
    1.2952    3.6839    4.1967 H   0  0  0  0  0  0  0  0  0  0  0  0
    0.0755    6.3288    1.3536 N   0  0  0  0  0  0  0  0  0  0  0  0
    0.1341    7.4410    0.4341 C   0  0  0  0  0  0  0  0  0  0  0  0
   -0.4735    6.4426    2.2006 H   0  0  0  0  0  0  0  0  0  0  0  0
    0.9854    8.0875    0.6936 H   0  0  0  0  0  0  0  0  0  0  0  0
    0.2602    7.0628   -0.5911 H   0  0  0  0  0  0  0  0  0  0  0  0
   -0.7990    8.0200    0.4991 H   0  0  0  0  0  0  0  0  0  0  0  0
  1  3  1  0  0  0  0
  1  7  1  0  0  0  0
  1  2  2  0  0  0  0
 34 35  1  0  0  0  0
 35 43  1  0  0  0  0
 35 36  2  0  0  0  0
  8  9  1  0  0  0  0
  9 17  1  0  0  0  0
  9 10  2  0  0  0  0
 18 19  1  0  0  0  0
 19 33  1  0  0  0  0
 19 20  2  0  0  0  0
 22 23  1  0  0  0  0
 23 24  2  0  0  0  0
 23 25  1  0  0  0  0
 34 37  1  0  0  0  0
  8 11  1  0  0  0  0
 43 44  1  0  0  0  0
 21 22  1  0  0  0  0
 18 21  1  0  0  0  0
 33 34  1  0  0  0  0
  7  8  1  0  0  0  0
 17 18  1  0  0  0  0
  3  4  1  0  0  0  0
  3  5  1  0  0  0  0
  3  6  1  0  0  0  0
 37 40  1  0  0  0  0
 37 41  1  0  0  0  0
 37 42  1  0  0  0  0
 11 14  1  0  0  0  0
 11 15  1  0  0  0  0
 11 16  1  0  0  0  0
 44 46  1  0  0  0  0
 44 47  1  0  0  0  0
 44 48  1  0  0  0  0
 22 30  1  0  0  0  0
 22 31  1  0  0  0  0
 21 28  1  0  0  0  0
 21 29  1  0  0  0  0
 34 39  1  0  0  0  0
  8 13  1  0  0  0  0
 18 27  1  0  0  0  0
 43 45  1  0  0  0  0
  7 12  1  0  0  0  0
 33 38  1  0  0  0  0
 17 26  1  0  0  0  0
 25 32  1  0  0  0  0
M  END
$$$$

  -OEChem-05262214473D

 48 47  0     1  0  0  0  0  0999 V2000
   -5.5827   -1.3473    1.4591 C   0  0  0  0  0  0  0  0  0  0  0  0
   -5.7053   -2.4696    0.9825 O   0  0  0  0  0  0  0  0  0  0  0  0
   -6.7879   -0.6277    1.9670 C   0  0  0  0  0  0  0  0  0  0  0  0
   -7.2718   -0.0164    1.1885 H   0  0  0  0  0  0  0  0  0  0  0  0
   -7.5699   -1.3171    2.3239 H   0  0  0  0  0  0  0  0  0  0  0  0
   -6.6057    0.0628    2.8060 H   0  0  0  0  0  0  0  0  0  0  0  0
   -4.4001   -0.6377    1.5884 N   0  0  0  0  0  0  0  0  0  0  0  0
   -3.1220   -1.1455    1.1644 C   0  0  2  0  0  0  0  0  0  0  0  0
   -2.2017    0.0428    0.9187 C   0  0  0  0  0  0  0  0  0  0  0  0
   -2.6171    1.1750    0.6807 O   0  0  0  0  0  0  0  0  0  0  0  0
   -3.2533   -1.9992   -0.0873 C   0  0  0  0  0  0  0  0  0  0  0  0
   -4.4370    0.2910    2.0047 H   0  0  0  0  0  0  0  0  0  0  0  0
   -2.7302   -1.7467    1.9921 H   0  0  0  0  0  0  0  0  0  0  0  0
   -3.6446   -1.4140   -0.9275 H   0  0  0  0  0  0  0  0  0  0  0  0
   -2.2844   -2.4081   -0.3922 H   0  0  0  0  0  0  0  0  0  0  0  0
   -3.9388   -2.8365    0.0822 H   0  0  0  0  0  0  0  0  0  0  0  0
   -0.8768   -0.3314    0.9568 N   0  0  0  0  0  0  0  0  0  0  0  0
    0.2067    0.6285    0.7375 C   0  0  2  0  0  0  0  0  0  0  0  0
   -0.3069    1.9778    1.2308 C   0  0  0  0  0  0  0  0  0  0  0  0
   -1.4942    2.1842    1.4737 O   0  0  0  0  0  0  0  0  0  0  0  0
    0.5689    0.6527   -0.7550 C   0  0  0  0  0  0  0  0  0  0  0  0
    1.1963   -0.6490   -1.2534 C   0  0  0  0  0  0  0  0  0  0  0  0
    1.5149   -0.5939   -2.7267 C   0  0  0  0  0  0  0  0  0  0  0  0
    1.1852    0.3286   -3.4612 O   0  0  0  0  0  0  0  0  0  0  0  0
    2.1850   -1.6891   -3.1627 O   0  0  0  0  0  0  0  0  0  0  0  0
   -0.6087   -1.2764    1.1771 H   0  0  0  0  0  0  0  0  0  0  0  0
    1.0743    0.3111    1.3252 H   0  0  0  0  0  0  0  0  0  0  0  0
   -0.3351    0.8604   -1.3429 H   0  0  0  0  0  0  0  0  0  0  0  0
    1.2712    1.4713   -0.9606 H   0  0  0  0  0  0  0  0  0  0  0  0
    2.1440   -0.8257   -0.7301 H   0  0  0  0  0  0  0  0  0  0  0  0
    0.5702   -1.5183   -1.0275 H   0  0  0  0  0  0  0  0  0  0  0  0
    2.3956   -1.7015   -4.1205 H   0  0  0  0  0  0  0  0  0  0  0  0
    0.7126    2.9042    1.3932 N   0  0  0  0  0  0  0  0  0  0  0  0
    0.4885    4.2564    1.8515 C   0  0  2  0  0  0  0  0  0  0  0  0
    0.3371    5.1490    0.6269 C   0  0  0  0  0  0  0  0  0  0  0  0
    0.7831    4.8514   -0.4793 O   0  0  0  0  0  0  0  0  0  0  0  0
    1.6280    4.7366    2.7368 C   0  0  0  0  0  0  0  0  0  0  0  0
    1.6634    2.6182    1.1796 H   0  0  0  0  0  0  0  0  0  0  0  0
   -0.4503    4.2475    2.4160 H   0  0  0  0  0  0  0  0  0  0  0  0
    2.5770    4.7523    2.1884 H   0  0  0  0  0  0  0  0  0  0  0  0
    1.4431    5.7507    3.1063 H   0  0  0  0  0  0  0  0  0  0  0  0
    1.7546    4.0763    3.6015 H   0  0  0  0  0  0  0  0  0  0  0  0
   -0.3167    6.3366    0.9243 N   0  0  0  0  0  0  0  0  0  0  0  0
   -0.5712    7.3557   -0.0669 C   0  0  0  0  0  0  0  0  0  0  0  0
   -0.6690    6.4912    1.8643 H   0  0  0  0  0  0  0  0  0  0  0  0
    0.2521    8.0852   -0.0634 H   0  0  0  0  0  0  0  0  0  0  0  0
   -0.6443    6.8903   -1.0609 H   0  0  0  0  0  0  0  0  0  0  0  0
   -1.5158    7.8681    0.1684 H   0  0  0  0  0  0  0  0  0  0  0  0
  1  3  1  0  0  0  0
  1  7  1  0  0  0  0
  1  2  2  0  0  0  0
 34 35  1  0  0  0  0
 35 43  1  0  0  0  0
 35 36  2  0  0  0  0
  8  9  1  0  0  0  0
  9 17  1  0  0  0  0
  9 10  2  0  0  0  0
 18 19  1  0  0  0  0
 19 33  1  0  0  0  0
 19 20  2  0  0  0  0
 22 23  1  0  0  0  0
 23 24  2  0  0  0  0
 23 25  1  0  0  0  0
 34 37  1  0  0  0  0
  8 11  1  0  0  0  0
 43 44  1  0  0  0  0
 21 22  1  0  0  0  0
 18 21  1  0  0  0  0
 33 34  1  0  0  0  0
  7  8  1  0  0  0  0
 17 18  1  0  0  0  0
  3  4  1  0  0  0  0
  3  5  1  0  0  0  0
  3  6  1  0  0  0  0
 37 40  1  0  0  0  0
 37 41  1  0  0  0  0
 37 42  1  0  0  0  0
 11 14  1  0  0  0  0
 11 15  1  0  0  0  0
 11 16  1  0  0  0  0
 44 46  1  0  0  0  0
 44 47  1  0  0  0  0
 44 48  1  0  0  0  0
 22 30  1  0  0  0  0
 22 31  1  0  0  0  0
 21 28  1  0  0  0  0
 21 29  1  0  0  0  0
 34 39  1  0  0  0  0
  8 13  1  0  0  0  0
 18 27  1  0  0  0  0
 43 45  1  0  0  0  0
  7 12  1  0  0  0  0
 33 38  1  0  0  0  0
 17 26  1  0  0  0  0
 25 32  1  0  0  0  0
M  END
$$$$

  -OEChem-05262214473D

 48 47  0     1  0  0  0  0  0999 V2000
   -5.5827   -1.3473    1.4591 C   0  0  0  0  0  0  0  0  0  0  0  0
   -5.7053   -2.4696    0.9825 O   0  0  0  0  0  0  0  0  0  0  0  0
   -6.7879   -0.6277    1.9670 C   0  0  0  0  0  0  0  0  0  0  0  0
   -7.2718   -0.0164    1.1885 H   0  0  0  0  0  0  0  0  0  0  0  0
   -7.5699   -1.3171    2.3239 H   0  0  0  0  0  0  0  0  0  0  0  0
   -6.6057    0.0628    2.8060 H   0  0  0  0  0  0  0  0  0  0  0  0
   -4.4001   -0.6377    1.5884 N   0  0  0  0  0  0  0  0  0  0  0  0
   -3.1220   -1.1455    1.1644 C   0  0  2  0  0  0  0  0  0  0  0  0
   -2.2017    0.0428    0.9187 C   0  0  0  0  0  0  0  0  0  0  0  0
   -2.6171    1.1750    0.6807 O   0  0  0  0  0  0  0  0  0  0  0  0
   -3.2533   -1.9992   -0.0873 C   0  0  0  0  0  0  0  0  0  0  0  0
   -4.4370    0.2910    2.0047 H   0  0  0  0  0  0  0  0  0  0  0  0
   -2.7302   -1.7467    1.9921 H   0  0  0  0  0  0  0  0  0  0  0  0
   -3.6446   -1.4140   -0.9275 H   0  0  0  0  0  0  0  0  0  0  0  0
   -2.2844   -2.4081   -0.3922 H   0  0  0  0  0  0  0  0  0  0  0  0
   -3.9388   -2.8365    0.0822 H   0  0  0  0  0  0  0  0  0  0  0  0
   -0.8768   -0.3314    0.9568 N   0  0  0  0  0  0  0  0  0  0  0  0
    0.2067    0.6285    0.7375 C   0  0  2  0  0  0  0  0  0  0  0  0
   -0.1425    1.8669    1.5574 C   0  0  0  0  0  0  0  0  0  0  0  0
   -1.1514    1.9334    2.2568 O   0  0  0  0  0  0  0  0  0  0  0  0
    0.3170    0.9351   -0.7636 C   0  0  0  0  0  0  0  0  0  0  0  0
    0.7801   -0.2582   -1.5992 C   0  0  0  0  0  0  0  0  0  0  0  0
    0.8524    0.0759   -3.0683 C   0  0  0  0  0  0  0  0  0  0  0  0
    0.4569    1.1310   -3.5475 O   0  0  0  0  0  0  0  0  0  0  0  0
    1.3792   -0.9279   -3.8121 O   0  0  0  0  0  0  0  0  0  0  0  0
   -0.6087   -1.2764    1.1771 H   0  0  0  0  0  0  0  0  0  0  0  0
    1.1409    0.1834    1.0953 H   0  0  0  0  0  0  0  0  0  0  0  0
   -0.6592    1.2734   -1.1360 H   0  0  0  0  0  0  0  0  0  0  0  0
    1.0196    1.7622   -0.9301 H   0  0  0  0  0  0  0  0  0  0  0  0
    1.7902   -0.5545   -1.2910 H   0  0  0  0  0  0  0  0  0  0  0  0
    0.1530   -1.1408   -1.4358 H   0  0  0  0  0  0  0  0  0  0  0  0
    1.4269   -0.7582   -4.7769 H   0  0  0  0  0  0  0  0  0  0  0  0
    0.8121    2.8661    1.4384 N   0  0  0  0  0  0  0  0  0  0  0  0
    0.7156    4.1385    2.1168 C   0  0  2  0  0  0  0  0  0  0  0  0
    0.0563    5.1294    1.1665 C   0  0  0  0  0  0  0  0  0  0  0  0
    0.0525    4.9868   -0.0545 O   0  0  0  0  0  0  0  0  0  0  0  0
    2.0835    4.6359    2.5574 C   0  0  0  0  0  0  0  0  0  0  0  0
    1.6186    2.6951    0.8454 H   0  0  0  0  0  0  0  0  0  0  0  0
    0.0710    3.9839    2.9890 H   0  0  0  0  0  0  0  0  0  0  0  0
    2.7434    4.7966    1.6971 H   0  0  0  0  0  0  0  0  0  0  0  0
    2.0057    5.5859    3.0963 H   0  0  0  0  0  0  0  0  0  0  0  0
    2.5688    3.9085    3.2171 H   0  0  0  0  0  0  0  0  0  0  0  0
   -0.4898    6.2135    1.8393 N   0  0  0  0  0  0  0  0  0  0  0  0
   -1.1599    7.2966    1.1583 C   0  0  0  0  0  0  0  0  0  0  0  0
   -0.4572    6.2398    2.8542 H   0  0  0  0  0  0  0  0  0  0  0  0
   -0.4375    8.0977    0.9428 H   0  0  0  0  0  0  0  0  0  0  0  0
   -1.5893    6.9269    0.2155 H   0  0  0  0  0  0  0  0  0  0  0  0
   -1.9637    7.6902    1.7979 H   0  0  0  0  0  0  0  0  0  0  0  0
  1  3  1  0  0  0  0
  1  7  1  0  0  0  0
  1  2  2  0  0  0  0
 34 35  1  0  0  0  0
 35 43  1  0  0  0  0
 35 36  2  0  0  0  0
  8  9  1  0  0  0  0
  9 17  1  0  0  0  0
  9 10  2  0  0  0  0
 18 19  1  0  0  0  0
 19 33  1  0  0  0  0
 19 20  2  0  0  0  0
 22 23  1  0  0  0  0
 23 24  2  0  0  0  0
 23 25  1  0  0  0  0
 34 37  1  0  0  0  0
  8 11  1  0  0  0  0
 43 44  1  0  0  0  0
 21 22  1  0  0  0  0
 18 21  1  0  0  0  0
 33 34  1  0  0  0  0
  7  8  1  0  0  0  0
 17 18  1  0  0  0  0
  3  4  1  0  0  0  0
  3  5  1  0  0  0  0
  3  6  1  0  0  0  0
 37 40  1  0  0  0  0
 37 41  1  0  0  0  0
 37 42  1  0  0  0  0
 11 14  1  0  0  0  0
 11 15  1  0  0  0  0
 11 16  1  0  0  0  0
 44 46  1  0  0  0  0
 44 47  1  0  0  0  0
 44 48  1  0  0  0  0
 22 30  1  0  0  0  0
 22 31  1  0  0  0  0
 21 28  1  0  0  0  0
 21 29  1  0  0  0  0
 34 39  1  0  0  0  0
  8 13  1  0  0  0  0
 18 27  1  0  0  0  0
 43 45  1  0  0  0  0
  7 12  1  0  0  0  0
 33 38  1  0  0  0  0
 17 26  1  0  0  0  0
 25 32  1  0  0  0  0
M  END
$$$$

  -OEChem-05262214473D

 48 47  0     1  0  0  0  0  0999 V2000
   -5.5827   -1.3473    1.4591 C   0  0  0  0  0  0  0  0  0  0  0  0
   -5.7053   -2.4696    0.9825 O   0  0  0  0  0  0  0  0  0  0  0  0
   -6.7879   -0.6277    1.9670 C   0  0  0  0  0  0  0  0  0  0  0  0
   -7.2718   -0.0164    1.1885 H   0  0  0  0  0  0  0  0  0  0  0  0
   -7.5699   -1.3171    2.3239 H   0  0  0  0  0  0  0  0  0  0  0  0
   -6.6057    0.0628    2.8060 H   0  0  0  0  0  0  0  0  0  0  0  0
   -4.4001   -0.6377    1.5884 N   0  0  0  0  0  0  0  0  0  0  0  0
   -3.1220   -1.1455    1.1644 C   0  0  2  0  0  0  0  0  0  0  0  0
   -2.2017    0.0428    0.9187 C   0  0  0  0  0  0  0  0  0  0  0  0
   -2.6171    1.1750    0.6807 O   0  0  0  0  0  0  0  0  0  0  0  0
   -3.2533   -1.9992   -0.0873 C   0  0  0  0  0  0  0  0  0  0  0  0
   -4.4370    0.2910    2.0047 H   0  0  0  0  0  0  0  0  0  0  0  0
   -2.7302   -1.7467    1.9921 H   0  0  0  0  0  0  0  0  0  0  0  0
   -3.6446   -1.4140   -0.9275 H   0  0  0  0  0  0  0  0  0  0  0  0
   -2.2844   -2.4081   -0.3922 H   0  0  0  0  0  0  0  0  0  0  0  0
   -3.9388   -2.8365    0.0822 H   0  0  0  0  0  0  0  0  0  0  0  0
   -0.8768   -0.3314    0.9568 N   0  0  0  0  0  0  0  0  0  0  0  0
    0.2067    0.6285    0.7375 C   0  0  2  0  0  0  0  0  0  0  0  0
   -0.1425    1.8669    1.5574 C   0  0  0  0  0  0  0  0  0  0  0  0
   -0.9845    1.8505    2.4531 O   0  0  0  0  0  0  0  0  0  0  0  0
    0.3170    0.9351   -0.7636 C   0  0  0  0  0  0  0  0  0  0  0  0
    0.7801   -0.2582   -1.5992 C   0  0  0  0  0  0  0  0  0  0  0  0
    0.8524    0.0759   -3.0683 C   0  0  0  0  0  0  0  0  0  0  0  0
    0.4569    1.1310   -3.5475 O   0  0  0  0  0  0  0  0  0  0  0  0
    1.3792   -0.9279   -3.8121 O   0  0  0  0  0  0  0  0  0  0  0  0
   -0.6087   -1.2764    1.1771 H   0  0  0  0  0  0  0  0  0  0  0  0
    1.1409    0.1834    1.0953 H   0  0  0  0  0  0  0  0  0  0  0  0
   -0.6592    1.2734   -1.1360 H   0  0  0  0  0  0  0  0  0  0  0  0
    1.0196    1.7622   -0.9301 H   0  0  0  0  0  0  0  0  0  0  0  0
    1.7902   -0.5545   -1.2910 H   0  0  0  0  0  0  0  0  0  0  0  0
    0.1530   -1.1408   -1.4358 H   0  0  0  0  0  0  0  0  0  0  0  0
    1.4269   -0.7582   -4.7769 H   0  0  0  0  0  0  0  0  0  0  0  0
    0.6115    2.9724    1.1924 N   0  0  0  0  0  0  0  0  0  0  0  0
    0.4727    4.2675    1.8186 C   0  0  2  0  0  0  0  0  0  0  0  0
   -0.5050    5.0889    0.9886 C   0  0  0  0  0  0  0  0  0  0  0  0
   -0.7393    4.8570   -0.1956 O   0  0  0  0  0  0  0  0  0  0  0  0
    1.8149    4.9733    1.9334 C   0  0  0  0  0  0  0  0  0  0  0  0
    1.2948    2.8666    0.4485 H   0  0  0  0  0  0  0  0  0  0  0  0
    0.0510    4.0937    2.8146 H   0  0  0  0  0  0  0  0  0  0  0  0
    2.2529    5.1560    0.9453 H   0  0  0  0  0  0  0  0  0  0  0  0
    1.7123    5.9419    2.4337 H   0  0  0  0  0  0  0  0  0  0  0  0
    2.5261    4.3677    2.5054 H   0  0  0  0  0  0  0  0  0  0  0  0
   -1.0526    6.1377    1.7140 N   0  0  0  0  0  0  0  0  0  0  0  0
   -1.9988    7.0688    1.1451 C   0  0  0  0  0  0  0  0  0  0  0  0
   -0.8159    6.2432    2.6962 H   0  0  0  0  0  0  0  0  0  0  0  0
   -1.4606    7.9405    0.7445 H   0  0  0  0  0  0  0  0  0  0  0  0
   -2.5547    6.5766    0.3335 H   0  0  0  0  0  0  0  0  0  0  0  0
   -2.7022    7.3985    1.9239 H   0  0  0  0  0  0  0  0  0  0  0  0
  1  3  1  0  0  0  0
  1  7  1  0  0  0  0
  1  2  2  0  0  0  0
 34 35  1  0  0  0  0
 35 43  1  0  0  0  0
 35 36  2  0  0  0  0
  8  9  1  0  0  0  0
  9 17  1  0  0  0  0
  9 10  2  0  0  0  0
 18 19  1  0  0  0  0
 19 33  1  0  0  0  0
 19 20  2  0  0  0  0
 22 23  1  0  0  0  0
 23 24  2  0  0  0  0
 23 25  1  0  0  0  0
 34 37  1  0  0  0  0
  8 11  1  0  0  0  0
 43 44  1  0  0  0  0
 21 22  1  0  0  0  0
 18 21  1  0  0  0  0
 33 34  1  0  0  0  0
  7  8  1  0  0  0  0
 17 18  1  0  0  0  0
  3  4  1  0  0  0  0
  3  5  1  0  0  0  0
  3  6  1  0  0  0  0
 37 40  1  0  0  0  0
 37 41  1  0  0  0  0
 37 42  1  0  0  0  0
 11 14  1  0  0  0  0
 11 15  1  0  0  0  0
 11 16  1  0  0  0  0
 44 46  1  0  0  0  0
 44 47  1  0  0  0  0
 44 48  1  0  0  0  0
 22 30  1  0  0  0  0
 22 31  1  0  0  0  0
 21 28  1  0  0  0  0
 21 29  1  0  0  0  0
 34 39  1  0  0  0  0
  8 13  1  0  0  0  0
 18 27  1  0  0  0  0
 43 45  1  0  0  0  0
  7 12  1  0  0  0  0
 33 38  1  0  0  0  0
 17 26  1  0  0  0  0
 25 32  1  0  0  0  0
M  END
$$$$

  -OEChem-05262214473D

 48 47  0     1  0  0  0  0  0999 V2000
   -5.5827   -1.3473    1.4591 C   0  0  0  0  0  0  0  0  0  0  0  0
   -5.7053   -2.4696    0.9825 O   0  0  0  0  0  0  0  0  0  0  0  0
   -6.7879   -0.6277    1.9670 C   0  0  0  0  0  0  0  0  0  0  0  0
   -7.2718   -0.0164    1.1885 H   0  0  0  0  0  0  0  0  0  0  0  0
   -7.5699   -1.3171    2.3239 H   0  0  0  0  0  0  0  0  0  0  0  0
   -6.6057    0.0628    2.8060 H   0  0  0  0  0  0  0  0  0  0  0  0
   -4.4001   -0.6377    1.5884 N   0  0  0  0  0  0  0  0  0  0  0  0
   -3.1220   -1.1455    1.1644 C   0  0  2  0  0  0  0  0  0  0  0  0
   -2.2017    0.0428    0.9187 C   0  0  0  0  0  0  0  0  0  0  0  0
   -2.6171    1.1750    0.6807 O   0  0  0  0  0  0  0  0  0  0  0  0
   -3.2533   -1.9992   -0.0873 C   0  0  0  0  0  0  0  0  0  0  0  0
   -4.4370    0.2910    2.0047 H   0  0  0  0  0  0  0  0  0  0  0  0
   -2.7302   -1.7467    1.9921 H   0  0  0  0  0  0  0  0  0  0  0  0
   -3.6446   -1.4140   -0.9275 H   0  0  0  0  0  0  0  0  0  0  0  0
   -2.2844   -2.4081   -0.3922 H   0  0  0  0  0  0  0  0  0  0  0  0
   -3.9388   -2.8365    0.0822 H   0  0  0  0  0  0  0  0  0  0  0  0
   -0.8768   -0.3314    0.9568 N   0  0  0  0  0  0  0  0  0  0  0  0
    0.2067    0.6285    0.7375 C   0  0  2  0  0  0  0  0  0  0  0  0
   -0.1425    1.8669    1.5574 C   0  0  0  0  0  0  0  0  0  0  0  0
   -0.7705    1.8053    2.6125 O   0  0  0  0  0  0  0  0  0  0  0  0
    0.3170    0.9351   -0.7636 C   0  0  0  0  0  0  0  0  0  0  0  0
    0.7801   -0.2582   -1.5992 C   0  0  0  0  0  0  0  0  0  0  0  0
    0.8524    0.0759   -3.0683 C   0  0  0  0  0  0  0  0  0  0  0  0
    0.4569    1.1310   -3.5475 O   0  0  0  0  0  0  0  0  0  0  0  0
    1.3792   -0.9279   -3.8121 O   0  0  0  0  0  0  0  0  0  0  0  0
   -0.6087   -1.2764    1.1771 H   0  0  0  0  0  0  0  0  0  0  0  0
    1.1409    0.1834    1.0953 H   0  0  0  0  0  0  0  0  0  0  0  0
   -0.6592    1.2734   -1.1360 H   0  0  0  0  0  0  0  0  0  0  0  0
    1.0196    1.7622   -0.9301 H   0  0  0  0  0  0  0  0  0  0  0  0
    1.7902   -0.5545   -1.2910 H   0  0  0  0  0  0  0  0  0  0  0  0
    0.1530   -1.1408   -1.4358 H   0  0  0  0  0  0  0  0  0  0  0  0
    1.4269   -0.7582   -4.7769 H   0  0  0  0  0  0  0  0  0  0  0  0
    0.3513    3.0326    0.9906 N   0  0  0  0  0  0  0  0  0  0  0  0
    0.1576    4.3406    1.5739 C   0  0  2  0  0  0  0  0  0  0  0  0
   -1.0789    4.9611    0.9371 C   0  0  0  0  0  0  0  0  0  0  0  0
   -1.5158    4.6131   -0.1579 O   0  0  0  0  0  0  0  0  0  0  0  0
    1.3774    5.2249    1.3670 C   0  0  0  0  0  0  0  0  0  0  0  0
    0.8747    2.9636    0.1231 H   0  0  0  0  0  0  0  0  0  0  0  0
   -0.0202    4.1866    2.6438 H   0  0  0  0  0  0  0  0  0  0  0  0
    1.5713    5.3905    0.3010 H   0  0  0  0  0  0  0  0  0  0  0  0
    1.2403    6.2057    1.8342 H   0  0  0  0  0  0  0  0  0  0  0  0
    2.2715    4.7631    1.7996 H   0  0  0  0  0  0  0  0  0  0  0  0
   -1.6120    5.9788    1.7157 N   0  0  0  0  0  0  0  0  0  0  0  0
   -2.7802    6.7314    1.3220 C   0  0  0  0  0  0  0  0  0  0  0  0
   -1.1961    6.1873    2.6187 H   0  0  0  0  0  0  0  0  0  0  0  0
   -2.4686    7.6347    0.7771 H   0  0  0  0  0  0  0  0  0  0  0  0
   -3.4137    6.1109    0.6711 H   0  0  0  0  0  0  0  0  0  0  0  0
   -3.3485    7.0215    2.2180 H   0  0  0  0  0  0  0  0  0  0  0  0
  1  3  1  0  0  0  0
  1  7  1  0  0  0  0
  1  2  2  0  0  0  0
 34 35  1  0  0  0  0
 35 43  1  0  0  0  0
 35 36  2  0  0  0  0
  8  9  1  0  0  0  0
  9 17  1  0  0  0  0
  9 10  2  0  0  0  0
 18 19  1  0  0  0  0
 19 33  1  0  0  0  0
 19 20  2  0  0  0  0
 22 23  1  0  0  0  0
 23 24  2  0  0  0  0
 23 25  1  0  0  0  0
 34 37  1  0  0  0  0
  8 11  1  0  0  0  0
 43 44  1  0  0  0  0
 21 22  1  0  0  0  0
 18 21  1  0  0  0  0
 33 34  1  0  0  0  0
  7  8  1  0  0  0  0
 17 18  1  0  0  0  0
  3  4  1  0  0  0  0
  3  5  1  0  0  0  0
  3  6  1  0  0  0  0
 37 40  1  0  0  0  0
 37 41  1  0  0  0  0
 37 42  1  0  0  0  0
 11 14  1  0  0  0  0
 11 15  1  0  0  0  0
 11 16  1  0  0  0  0
 44 46  1  0  0  0  0
 44 47  1  0  0  0  0
 44 48  1  0  0  0  0
 22 30  1  0  0  0  0
 22 31  1  0  0  0  0
 21 28  1  0  0  0  0
 21 29  1  0  0  0  0
 34 39  1  0  0  0  0
  8 13  1  0  0  0  0
 18 27  1  0  0  0  0
 43 45  1  0  0  0  0
  7 12  1  0  0  0  0
 33 38  1  0  0  0  0
 17 26  1  0  0  0  0
 25 32  1  0  0  0  0
M  END
$$$$

  -OEChem-05262214473D

 48 47  0     1  0  0  0  0  0999 V2000
   -5.5827   -1.3473    1.4591 C   0  0  0  0  0  0  0  0  0  0  0  0
   -5.7053   -2.4696    0.9825 O   0  0  0  0  0  0  0  0  0  0  0  0
   -6.7879   -0.6277    1.9670 C   0  0  0  0  0  0  0  0  0  0  0  0
   -7.2718   -0.0164    1.1885 H   0  0  0  0  0  0  0  0  0  0  0  0
   -7.5699   -1.3171    2.3239 H   0  0  0  0  0  0  0  0  0  0  0  0
   -6.6057    0.0628    2.8060 H   0  0  0  0  0  0  0  0  0  0  0  0
   -4.4001   -0.6377    1.5884 N   0  0  0  0  0  0  0  0  0  0  0  0
   -3.1220   -1.1455    1.1644 C   0  0  2  0  0  0  0  0  0  0  0  0
   -2.2017    0.0428    0.9187 C   0  0  0  0  0  0  0  0  0  0  0  0
   -2.6171    1.1750    0.6807 O   0  0  0  0  0  0  0  0  0  0  0  0
   -3.2533   -1.9992   -0.0873 C   0  0  0  0  0  0  0  0  0  0  0  0
   -4.4370    0.2910    2.0047 H   0  0  0  0  0  0  0  0  0  0  0  0
   -2.7302   -1.7467    1.9921 H   0  0  0  0  0  0  0  0  0  0  0  0
   -3.6446   -1.4140   -0.9275 H   0  0  0  0  0  0  0  0  0  0  0  0
   -2.2844   -2.4081   -0.3922 H   0  0  0  0  0  0  0  0  0  0  0  0
   -3.9388   -2.8365    0.0822 H   0  0  0  0  0  0  0  0  0  0  0  0
   -0.8768   -0.3314    0.9568 N   0  0  0  0  0  0  0  0  0  0  0  0
    0.2067    0.6285    0.7375 C   0  0  2  0  0  0  0  0  0  0  0  0
   -0.1425    1.8669    1.5574 C   0  0  0  0  0  0  0  0  0  0  0  0
   -0.5240    1.8008    2.7242 O   0  0  0  0  0  0  0  0  0  0  0  0
    0.3170    0.9351   -0.7636 C   0  0  0  0  0  0  0  0  0  0  0  0
    0.7801   -0.2582   -1.5992 C   0  0  0  0  0  0  0  0  0  0  0  0
    0.8524    0.0759   -3.0683 C   0  0  0  0  0  0  0  0  0  0  0  0
    0.4569    1.1310   -3.5475 O   0  0  0  0  0  0  0  0  0  0  0  0
    1.3792   -0.9279   -3.8121 O   0  0  0  0  0  0  0  0  0  0  0  0
   -0.6087   -1.2764    1.1771 H   0  0  0  0  0  0  0  0  0  0  0  0
    1.1409    0.1834    1.0953 H   0  0  0  0  0  0  0  0  0  0  0  0
   -0.6592    1.2734   -1.1360 H   0  0  0  0  0  0  0  0  0  0  0  0
    1.0196    1.7622   -0.9301 H   0  0  0  0  0  0  0  0  0  0  0  0
    1.7902   -0.5545   -1.2910 H   0  0  0  0  0  0  0  0  0  0  0  0
    0.1530   -1.1408   -1.4358 H   0  0  0  0  0  0  0  0  0  0  0  0
    1.4269   -0.7582   -4.7769 H   0  0  0  0  0  0  0  0  0  0  0  0
    0.0491    3.0426    0.8468 N   0  0  0  0  0  0  0  0  0  0  0  0
   -0.2084    4.3529    1.3995 C   0  0  2  0  0  0  0  0  0  0  0  0
   -1.6264    4.7549    1.0155 C   0  0  0  0  0  0  0  0  0  0  0  0
   -2.2240    4.2718    0.0560 O   0  0  0  0  0  0  0  0  0  0  0  0
    0.8008    5.3736    0.8970 C   0  0  0  0  0  0  0  0  0  0  0  0
    0.3871    2.9796   -0.1088 H   0  0  0  0  0  0  0  0  0  0  0  0
   -0.1378    4.2564    2.4884 H   0  0  0  0  0  0  0  0  0  0  0  0
    0.7449    5.4839   -0.1922 H   0  0  0  0  0  0  0  0  0  0  0  0
    0.6217    6.3594    1.3387 H   0  0  0  0  0  0  0  0  0  0  0  0
    1.8222    5.0679    1.1480 H   0  0  0  0  0  0  0  0  0  0  0  0
   -2.1299    5.7477    1.8443 N   0  0  0  0  0  0  0  0  0  0  0  0
   -3.4509    6.3072    1.6770 C   0  0  0  0  0  0  0  0  0  0  0  0
   -1.5718    6.0759    2.6270 H   0  0  0  0  0  0  0  0  0  0  0  0
   -3.3929    7.2010    1.0385 H   0  0  0  0  0  0  0  0  0  0  0  0
   -4.1077    5.5616    1.2051 H   0  0  0  0  0  0  0  0  0  0  0  0
   -3.8585    6.5850    2.6602 H   0  0  0  0  0  0  0  0  0  0  0  0
  1  3  1  0  0  0  0
  1  7  1  0  0  0  0
  1  2  2  0  0  0  0
 34 35  1  0  0  0  0
 35 43  1  0  0  0  0
 35 36  2  0  0  0  0
  8  9  1  0  0  0  0
  9 17  1  0  0  0  0
  9 10  2  0  0  0  0
 18 19  1  0  0  0  0
 19 33  1  0  0  0  0
 19 20  2  0  0  0  0
 22 23  1  0  0  0  0
 23 24  2  0  0  0  0
 23 25  1  0  0  0  0
 34 37  1  0  0  0  0
  8 11  1  0  0  0  0
 43 44  1  0  0  0  0
 21 22  1  0  0  0  0
 18 21  1  0  0  0  0
 33 34  1  0  0  0  0
  7  8  1  0  0  0  0
 17 18  1  0  0  0  0
  3  4  1  0  0  0  0
  3  5  1  0  0  0  0
  3  6  1  0  0  0  0
 37 40  1  0  0  0  0
 37 41  1  0  0  0  0
 37 42  1  0  0  0  0
 11 14  1  0  0  0  0
 11 15  1  0  0  0  0
 11 16  1  0  0  0  0
 44 46  1  0  0  0  0
 44 47  1  0  0  0  0
 44 48  1  0  0  0  0
 22 30  1  0  0  0  0
 22 31  1  0  0  0  0
 21 28  1  0  0  0  0
 21 29  1  0  0  0  0
 34 39  1  0  0  0  0
  8 13  1  0  0  0  0
 18 27  1  0  0  0  0
 43 45  1  0  0  0  0
  7 12  1  0  0  0  0
 33 38  1  0  0  0  0
 17 26  1  0  0  0  0
 25 32  1  0  0  0  0
M  END
$$$$

  -OEChem-05262214473D

 48 47  0     1  0  0  0  0  0999 V2000
   -5.5827   -1.3473    1.4591 C   0  0  0  0  0  0  0  0  0  0  0  0
   -5.7053   -2.4696    0.9825 O   0  0  0  0  0  0  0  0  0  0  0  0
   -6.7879   -0.6277    1.9670 C   0  0  0  0  0  0  0  0  0  0  0  0
   -7.2718   -0.0164    1.1885 H   0  0  0  0  0  0  0  0  0  0  0  0
   -7.5699   -1.3171    2.3239 H   0  0  0  0  0  0  0  0  0  0  0  0
   -6.6057    0.0628    2.8060 H   0  0  0  0  0  0  0  0  0  0  0  0
   -4.4001   -0.6377    1.5884 N   0  0  0  0  0  0  0  0  0  0  0  0
   -3.1220   -1.1455    1.1644 C   0  0  2  0  0  0  0  0  0  0  0  0
   -2.2017    0.0428    0.9187 C   0  0  0  0  0  0  0  0  0  0  0  0
   -2.6171    1.1750    0.6807 O   0  0  0  0  0  0  0  0  0  0  0  0
   -3.2533   -1.9992   -0.0873 C   0  0  0  0  0  0  0  0  0  0  0  0
   -4.4370    0.2910    2.0047 H   0  0  0  0  0  0  0  0  0  0  0  0
   -2.7302   -1.7467    1.9921 H   0  0  0  0  0  0  0  0  0  0  0  0
   -3.6446   -1.4140   -0.9275 H   0  0  0  0  0  0  0  0  0  0  0  0
   -2.2844   -2.4081   -0.3922 H   0  0  0  0  0  0  0  0  0  0  0  0
   -3.9388   -2.8365    0.0822 H   0  0  0  0  0  0  0  0  0  0  0  0
   -0.8768   -0.3314    0.9568 N   0  0  0  0  0  0  0  0  0  0  0  0
    0.2067    0.6285    0.7375 C   0  0  2  0  0  0  0  0  0  0  0  0
   -0.1425    1.8669    1.5574 C   0  0  0  0  0  0  0  0  0  0  0  0
   -0.2619    1.8374    2.7806 O   0  0  0  0  0  0  0  0  0  0  0  0
    0.3170    0.9351   -0.7636 C   0  0  0  0  0  0  0  0  0  0  0  0
    0.7801   -0.2582   -1.5992 C   0  0  0  0  0  0  0  0  0  0  0  0
    0.8524    0.0759   -3.0683 C   0  0  0  0  0  0  0  0  0  0  0  0
    0.4569    1.1310   -3.5475 O   0  0  0  0  0  0  0  0  0  0  0  0
    1.3792   -0.9279   -3.8121 O   0  0  0  0  0  0  0  0  0  0  0  0
   -0.6087   -1.2764    1.1771 H   0  0  0  0  0  0  0  0  0  0  0  0
    1.1409    0.1834    1.0953 H   0  0  0  0  0  0  0  0  0  0  0  0
   -0.6592    1.2734   -1.1360 H   0  0  0  0  0  0  0  0  0  0  0  0
    1.0196    1.7622   -0.9301 H   0  0  0  0  0  0  0  0  0  0  0  0
    1.7902   -0.5545   -1.2910 H   0  0  0  0  0  0  0  0  0  0  0  0
    0.1530   -1.1408   -1.4358 H   0  0  0  0  0  0  0  0  0  0  0  0
    1.4269   -0.7582   -4.7769 H   0  0  0  0  0  0  0  0  0  0  0  0
   -0.2743    3.0017    0.7708 N   0  0  0  0  0  0  0  0  0  0  0  0
   -0.6003    4.3036    1.3071 C   0  0  2  0  0  0  0  0  0  0  0  0
   -2.1100    4.4842    1.2184 C   0  0  0  0  0  0  0  0  0  0  0  0
   -2.8156    3.8563    0.4317 O   0  0  0  0  0  0  0  0  0  0  0  0
    0.1244    5.4091    0.5552 C   0  0  0  0  0  0  0  0  0  0  0  0
   -0.1349    2.9135   -0.2312 H   0  0  0  0  0  0  0  0  0  0  0  0
   -0.2937    4.2982    2.3588 H   0  0  0  0  0  0  0  0  0  0  0  0
   -0.1700    5.4300   -0.5004 H   0  0  0  0  0  0  0  0  0  0  0  0
   -0.1013    6.3924    0.9809 H   0  0  0  0  0  0  0  0  0  0  0  0
    1.2090    5.2611    0.5949 H   0  0  0  0  0  0  0  0  0  0  0  0
   -2.5710    5.4600    2.0910 N   0  0  0  0  0  0  0  0  0  0  0  0
   -3.9651    5.8252    2.1860 C   0  0  0  0  0  0  0  0  0  0  0  0
   -1.9175    5.9165    2.7206 H   0  0  0  0  0  0  0  0  0  0  0  0
   -4.1704    6.6690    1.5108 H   0  0  0  0  0  0  0  0  0  0  0  0
   -4.5895    4.9661    1.8994 H   0  0  0  0  0  0  0  0  0  0  0  0
   -4.1975    6.1185    3.2204 H   0  0  0  0  0  0  0  0  0  0  0  0
  1  3  1  0  0  0  0
  1  7  1  0  0  0  0
  1  2  2  0  0  0  0
 34 35  1  0  0  0  0
 35 43  1  0  0  0  0
 35 36  2  0  0  0  0
  8  9  1  0  0  0  0
  9 17  1  0  0  0  0
  9 10  2  0  0  0  0
 18 19  1  0  0  0  0
 19 33  1  0  0  0  0
 19 20  2  0  0  0  0
 22 23  1  0  0  0  0
 23 24  2  0  0  0  0
 23 25  1  0  0  0  0
 34 37  1  0  0  0  0
  8 11  1  0  0  0  0
 43 44  1  0  0  0  0
 21 22  1  0  0  0  0
 18 21  1  0  0  0  0
 33 34  1  0  0  0  0
  7  8  1  0  0  0  0
 17 18  1  0  0  0  0
  3  4  1  0  0  0  0
  3  5  1  0  0  0  0
  3  6  1  0  0  0  0
 37 40  1  0  0  0  0
 37 41  1  0  0  0  0
 37 42  1  0  0  0  0
 11 14  1  0  0  0  0
 11 15  1  0  0  0  0
 11 16  1  0  0  0  0
 44 46  1  0  0  0  0
 44 47  1  0  0  0  0
 44 48  1  0  0  0  0
 22 30  1  0  0  0  0
 22 31  1  0  0  0  0
 21 28  1  0  0  0  0
 21 29  1  0  0  0  0
 34 39  1  0  0  0  0
  8 13  1  0  0  0  0
 18 27  1  0  0  0  0
 43 45  1  0  0  0  0
  7 12  1  0  0  0  0
 33 38  1  0  0  0  0
 17 26  1  0  0  0  0
 25 32  1  0  0  0  0
M  END
$$$$

  -OEChem-05262214473D

 48 47  0     1  0  0  0  0  0999 V2000
   -5.5827   -1.3473    1.4591 C   0  0  0  0  0  0  0  0  0  0  0  0
   -5.7053   -2.4696    0.9825 O   0  0  0  0  0  0  0  0  0  0  0  0
   -6.7879   -0.6277    1.9670 C   0  0  0  0  0  0  0  0  0  0  0  0
   -7.2718   -0.0164    1.1885 H   0  0  0  0  0  0  0  0  0  0  0  0
   -7.5699   -1.3171    2.3239 H   0  0  0  0  0  0  0  0  0  0  0  0
   -6.6057    0.0628    2.8060 H   0  0  0  0  0  0  0  0  0  0  0  0
   -4.4001   -0.6377    1.5884 N   0  0  0  0  0  0  0  0  0  0  0  0
   -3.1220   -1.1455    1.1644 C   0  0  2  0  0  0  0  0  0  0  0  0
   -2.2017    0.0428    0.9187 C   0  0  0  0  0  0  0  0  0  0  0  0
   -2.6171    1.1750    0.6807 O   0  0  0  0  0  0  0  0  0  0  0  0
   -3.2533   -1.9992   -0.0873 C   0  0  0  0  0  0  0  0  0  0  0  0
   -4.4370    0.2910    2.0047 H   0  0  0  0  0  0  0  0  0  0  0  0
   -2.7302   -1.7467    1.9921 H   0  0  0  0  0  0  0  0  0  0  0  0
   -3.6446   -1.4140   -0.9275 H   0  0  0  0  0  0  0  0  0  0  0  0
   -2.2844   -2.4081   -0.3922 H   0  0  0  0  0  0  0  0  0  0  0  0
   -3.9388   -2.8365    0.0822 H   0  0  0  0  0  0  0  0  0  0  0  0
   -0.8768   -0.3314    0.9568 N   0  0  0  0  0  0  0  0  0  0  0  0
    0.2067    0.6285    0.7375 C   0  0  2  0  0  0  0  0  0  0  0  0
   -0.1425    1.8669    1.5574 C   0  0  0  0  0  0  0  0  0  0  0  0
   -0.0019    1.9125    2.7779 O   0  0  0  0  0  0  0  0  0  0  0  0
    0.3170    0.9351   -0.7636 C   0  0  0  0  0  0  0  0  0  0  0  0
    0.7801   -0.2582   -1.5992 C   0  0  0  0  0  0  0  0  0  0  0  0
    0.8524    0.0759   -3.0683 C   0  0  0  0  0  0  0  0  0  0  0  0
    0.4569    1.1310   -3.5475 O   0  0  0  0  0  0  0  0  0  0  0  0
    1.3792   -0.9279   -3.8121 O   0  0  0  0  0  0  0  0  0  0  0  0
   -0.6087   -1.2764    1.1771 H   0  0  0  0  0  0  0  0  0  0  0  0
    1.1409    0.1834    1.0953 H   0  0  0  0  0  0  0  0  0  0  0  0
   -0.6592    1.2734   -1.1360 H   0  0  0  0  0  0  0  0  0  0  0  0
    1.0196    1.7622   -0.9301 H   0  0  0  0  0  0  0  0  0  0  0  0
    1.7902   -0.5545   -1.2910 H   0  0  0  0  0  0  0  0  0  0  0  0
    0.1530   -1.1408   -1.4358 H   0  0  0  0  0  0  0  0  0  0  0  0
    1.4269   -0.7582   -4.7769 H   0  0  0  0  0  0  0  0  0  0  0  0
   -0.5970    2.9128    0.7678 N   0  0  0  0  0  0  0  0  0  0  0  0
   -0.9914    4.1959    1.3032 C   0  0  2  0  0  0  0  0  0  0  0  0
   -2.4968    4.1674    1.5321 C   0  0  0  0  0  0  0  0  0  0  0  0
   -3.2503    3.3949    0.9435 O   0  0  0  0  0  0  0  0  0  0  0  0
   -0.6056    5.3291    0.3652 C   0  0  0  0  0  0  0  0  0  0  0  0
   -0.6556    2.7698   -0.2359 H   0  0  0  0  0  0  0  0  0  0  0  0
   -0.4774    4.3093    2.2639 H   0  0  0  0  0  0  0  0  0  0  0  0
   -1.1109    5.2325   -0.6027 H   0  0  0  0  0  0  0  0  0  0  0  0
   -0.8794    6.3025    0.7852 H   0  0  0  0  0  0  0  0  0  0  0  0
    0.4736    5.3298    0.1781 H   0  0  0  0  0  0  0  0  0  0  0  0
   -2.9052    5.1353    2.4390 N   0  0  0  0  0  0  0  0  0  0  0  0
   -4.2879    5.3183    2.8142 C   0  0  0  0  0  0  0  0  0  0  0  0
   -2.2096    5.7199    2.8930 H   0  0  0  0  0  0  0  0  0  0  0  0
   -4.7483    6.0750    2.1620 H   0  0  0  0  0  0  0  0  0  0  0  0
   -4.8261    4.3651    2.7064 H   0  0  0  0  0  0  0  0  0  0  0  0
   -4.3425    5.6540    3.8603 H   0  0  0  0  0  0  0  0  0  0  0  0
  1  3  1  0  0  0  0
  1  7  1  0  0  0  0
  1  2  2  0  0  0  0
 34 35  1  0  0  0  0
 35 43  1  0  0  0  0
 35 36  2  0  0  0  0
  8  9  1  0  0  0  0
  9 17  1  0  0  0  0
  9 10  2  0  0  0  0
 18 19  1  0  0  0  0
 19 33  1  0  0  0  0
 19 20  2  0  0  0  0
 22 23  1  0  0  0  0
 23 24  2  0  0  0  0
 23 25  1  0  0  0  0
 34 37  1  0  0  0  0
  8 11  1  0  0  0  0
 43 44  1  0  0  0  0
 21 22  1  0  0  0  0
 18 21  1  0  0  0  0
 33 34  1  0  0  0  0
  7  8  1  0  0  0  0
 17 18  1  0  0  0  0
  3  4  1  0  0  0  0
  3  5  1  0  0  0  0
  3  6  1  0  0  0  0
 37 40  1  0  0  0  0
 37 41  1  0  0  0  0
 37 42  1  0  0  0  0
 11 14  1  0  0  0  0
 11 15  1  0  0  0  0
 11 16  1  0  0  0  0
 44 46  1  0  0  0  0
 44 47  1  0  0  0  0
 44 48  1  0  0  0  0
 22 30  1  0  0  0  0
 22 31  1  0  0  0  0
 21 28  1  0  0  0  0
 21 29  1  0  0  0  0
 34 39  1  0  0  0  0
  8 13  1  0  0  0  0
 18 27  1  0  0  0  0
 43 45  1  0  0  0  0
  7 12  1  0  0  0  0
 33 38  1  0  0  0  0
 17 26  1  0  0  0  0
 25 32  1  0  0  0  0
M  END
$$$$

  -OEChem-05262214473D

 48 47  0     1  0  0  0  0  0999 V2000
   -5.5827   -1.3473    1.4591 C   0  0  0  0  0  0  0  0  0  0  0  0
   -5.7053   -2.4696    0.9825 O   0  0  0  0  0  0  0  0  0  0  0  0
   -6.7879   -0.6277    1.9670 C   0  0  0  0  0  0  0  0  0  0  0  0
   -7.2718   -0.0164    1.1885 H   0  0  0  0  0  0  0  0  0  0  0  0
   -7.5699   -1.3171    2.3239 H   0  0  0  0  0  0  0  0  0  0  0  0
   -6.6057    0.0628    2.8060 H   0  0  0  0  0  0  0  0  0  0  0  0
   -4.4001   -0.6377    1.5884 N   0  0  0  0  0  0  0  0  0  0  0  0
   -3.1220   -1.1455    1.1644 C   0  0  2  0  0  0  0  0  0  0  0  0
   -2.2017    0.0428    0.9187 C   0  0  0  0  0  0  0  0  0  0  0  0
   -2.6171    1.1750    0.6807 O   0  0  0  0  0  0  0  0  0  0  0  0
   -3.2533   -1.9992   -0.0873 C   0  0  0  0  0  0  0  0  0  0  0  0
   -4.4370    0.2910    2.0047 H   0  0  0  0  0  0  0  0  0  0  0  0
   -2.7302   -1.7467    1.9921 H   0  0  0  0  0  0  0  0  0  0  0  0
   -3.6446   -1.4140   -0.9275 H   0  0  0  0  0  0  0  0  0  0  0  0
   -2.2844   -2.4081   -0.3922 H   0  0  0  0  0  0  0  0  0  0  0  0
   -3.9388   -2.8365    0.0822 H   0  0  0  0  0  0  0  0  0  0  0  0
   -0.8768   -0.3314    0.9568 N   0  0  0  0  0  0  0  0  0  0  0  0
    0.2067    0.6285    0.7375 C   0  0  2  0  0  0  0  0  0  0  0  0
   -0.1425    1.8669    1.5574 C   0  0  0  0  0  0  0  0  0  0  0  0
    0.2383    2.0211    2.7161 O   0  0  0  0  0  0  0  0  0  0  0  0
    0.3170    0.9351   -0.7636 C   0  0  0  0  0  0  0  0  0  0  0  0
    0.7801   -0.2582   -1.5992 C   0  0  0  0  0  0  0  0  0  0  0  0
    0.8524    0.0759   -3.0683 C   0  0  0  0  0  0  0  0  0  0  0  0
    0.4569    1.1310   -3.5475 O   0  0  0  0  0  0  0  0  0  0  0  0
    1.3792   -0.9279   -3.8121 O   0  0  0  0  0  0  0  0  0  0  0  0
   -0.6087   -1.2764    1.1771 H   0  0  0  0  0  0  0  0  0  0  0  0
    1.1409    0.1834    1.0953 H   0  0  0  0  0  0  0  0  0  0  0  0
   -0.6592    1.2734   -1.1360 H   0  0  0  0  0  0  0  0  0  0  0  0
    1.0196    1.7622   -0.9301 H   0  0  0  0  0  0  0  0  0  0  0  0
    1.7902   -0.5545   -1.2910 H   0  0  0  0  0  0  0  0  0  0  0  0
    0.1530   -1.1408   -1.4358 H   0  0  0  0  0  0  0  0  0  0  0  0
    1.4269   -0.7582   -4.7769 H   0  0  0  0  0  0  0  0  0  0  0  0
   -0.8970    2.7818    0.8379 N   0  0  0  0  0  0  0  0  0  0  0  0
   -1.3550    4.0373    1.3879 C   0  0  2  0  0  0  0  0  0  0  0  0
   -2.7605    3.8263    1.9351 C   0  0  0  0  0  0  0  0  0  0  0  0
   -3.4985    2.9190    1.5565 O   0  0  0  0  0  0  0  0  0  0  0  0
   -1.3396    5.1390    0.3397 C   0  0  0  0  0  0  0  0  0  0  0  0
   -1.1395    2.5583   -0.1226 H   0  0  0  0  0  0  0  0  0  0  0  0
   -0.6763    4.2888    2.2102 H   0  0  0  0  0  0  0  0  0  0  0  0
   -2.0138    4.9048   -0.4922 H   0  0  0  0  0  0  0  0  0  0  0  0
   -1.6596    6.0959    0.7650 H   0  0  0  0  0  0  0  0  0  0  0  0
   -0.3338    5.2691   -0.0742 H   0  0  0  0  0  0  0  0  0  0  0  0
   -3.1098    4.7959    2.8646 N   0  0  0  0  0  0  0  0  0  0  0  0
   -4.3971    4.8210    3.5188 C   0  0  0  0  0  0  0  0  0  0  0  0
   -2.4281    5.4997    3.1326 H   0  0  0  0  0  0  0  0  0  0  0  0
   -5.0870    5.4595    2.9475 H   0  0  0  0  0  0  0  0  0  0  0  0
   -4.8016    3.7994    3.5713 H   0  0  0  0  0  0  0  0  0  0  0  0
   -4.2834    5.2230    4.5364 H   0  0  0  0  0  0  0  0  0  0  0  0
  1  3  1  0  0  0  0
  1  7  1  0  0  0  0
  1  2  2  0  0  0  0
 34 35  1  0  0  0  0
 35 43  1  0  0  0  0
 35 36  2  0  0  0  0
  8  9  1  0  0  0  0
  9 17  1  0  0  0  0
  9 10  2  0  0  0  0
 18 19  1  0  0  0  0
 19 33  1  0  0  0  0
 19 20  2  0  0  0  0
 22 23  1  0  0  0  0
 23 24  2  0  0  0  0
 23 25  1  0  0  0  0
 34 37  1  0  0  0  0
  8 11  1  0  0  0  0
 43 44  1  0  0  0  0
 21 22  1  0  0  0  0
 18 21  1  0  0  0  0
 33 34  1  0  0  0  0
  7  8  1  0  0  0  0
 17 18  1  0  0  0  0
  3  4  1  0  0  0  0
  3  5  1  0  0  0  0
  3  6  1  0  0  0  0
 37 40  1  0  0  0  0
 37 41  1  0  0  0  0
 37 42  1  0  0  0  0
 11 14  1  0  0  0  0
 11 15  1  0  0  0  0
 11 16  1  0  0  0  0
 44 46  1  0  0  0  0
 44 47  1  0  0  0  0
 44 48  1  0  0  0  0
 22 30  1  0  0  0  0
 22 31  1  0  0  0  0
 21 28  1  0  0  0  0
 21 29  1  0  0  0  0
 34 39  1  0  0  0  0
  8 13  1  0  0  0  0
 18 27  1  0  0  0  0
 43 45  1  0  0  0  0
  7 12  1  0  0  0  0
 33 38  1  0  0  0  0
 17 26  1  0  0  0  0
 25 32  1  0  0  0  0
M  END
$$$$

  -OEChem-05262214473D

 48 47  0     1  0  0  0  0  0999 V2000
   -5.5827   -1.3473    1.4591 C   0  0  0  0  0  0  0  0  0  0  0  0
   -5.7053   -2.4696    0.9825 O   0  0  0  0  0  0  0  0  0  0  0  0
   -6.7879   -0.6277    1.9670 C   0  0  0  0  0  0  0  0  0  0  0  0
   -7.2718   -0.0164    1.1885 H   0  0  0  0  0  0  0  0  0  0  0  0
   -7.5699   -1.3171    2.3239 H   0  0  0  0  0  0  0  0  0  0  0  0
   -6.6057    0.0628    2.8060 H   0  0  0  0  0  0  0  0  0  0  0  0
   -4.4001   -0.6377    1.5884 N   0  0  0  0  0  0  0  0  0  0  0  0
   -3.1220   -1.1455    1.1644 C   0  0  2  0  0  0  0  0  0  0  0  0
   -2.2017    0.0428    0.9187 C   0  0  0  0  0  0  0  0  0  0  0  0
   -2.6171    1.1750    0.6807 O   0  0  0  0  0  0  0  0  0  0  0  0
   -3.2533   -1.9992   -0.0873 C   0  0  0  0  0  0  0  0  0  0  0  0
   -4.4370    0.2910    2.0047 H   0  0  0  0  0  0  0  0  0  0  0  0
   -2.7302   -1.7467    1.9921 H   0  0  0  0  0  0  0  0  0  0  0  0
   -3.6446   -1.4140   -0.9275 H   0  0  0  0  0  0  0  0  0  0  0  0
   -2.2844   -2.4081   -0.3922 H   0  0  0  0  0  0  0  0  0  0  0  0
   -3.9388   -2.8365    0.0822 H   0  0  0  0  0  0  0  0  0  0  0  0
   -0.8768   -0.3314    0.9568 N   0  0  0  0  0  0  0  0  0  0  0  0
    0.2067    0.6285    0.7375 C   0  0  2  0  0  0  0  0  0  0  0  0
   -0.1425    1.8669    1.5574 C   0  0  0  0  0  0  0  0  0  0  0  0
    0.4421    2.1557    2.5996 O   0  0  0  0  0  0  0  0  0  0  0  0
    0.3170    0.9351   -0.7636 C   0  0  0  0  0  0  0  0  0  0  0  0
    0.7801   -0.2582   -1.5992 C   0  0  0  0  0  0  0  0  0  0  0  0
    0.8524    0.0759   -3.0683 C   0  0  0  0  0  0  0  0  0  0  0  0
    0.4569    1.1310   -3.5475 O   0  0  0  0  0  0  0  0  0  0  0  0
    1.3792   -0.9279   -3.8121 O   0  0  0  0  0  0  0  0  0  0  0  0
   -0.6087   -1.2764    1.1771 H   0  0  0  0  0  0  0  0  0  0  0  0
    1.1409    0.1834    1.0953 H   0  0  0  0  0  0  0  0  0  0  0  0
   -0.6592    1.2734   -1.1360 H   0  0  0  0  0  0  0  0  0  0  0  0
    1.0196    1.7622   -0.9301 H   0  0  0  0  0  0  0  0  0  0  0  0
    1.7902   -0.5545   -1.2910 H   0  0  0  0  0  0  0  0  0  0  0  0
    0.1530   -1.1408   -1.4358 H   0  0  0  0  0  0  0  0  0  0  0  0
    1.4269   -0.7582   -4.7769 H   0  0  0  0  0  0  0  0  0  0  0  0
   -1.1538    2.6177    0.9764 N   0  0  0  0  0  0  0  0  0  0  0  0
   -1.6664    3.8386    1.5555 C   0  0  2  0  0  0  0  0  0  0  0  0
   -2.8832    3.4839    2.4000 C   0  0  0  0  0  0  0  0  0  0  0  0
   -3.5434    2.4612    2.2289 O   0  0  0  0  0  0  0  0  0  0  0  0
   -2.0275    4.8518    0.4805 C   0  0  0  0  0  0  0  0  0  0  0  0
   -1.5538    2.2934    0.1011 H   0  0  0  0  0  0  0  0  0  0  0  0
   -0.8768    4.2381    2.2012 H   0  0  0  0  0  0  0  0  0  0  0  0
   -2.8171    4.4692   -0.1764 H   0  0  0  0  0  0  0  0  0  0  0  0
   -2.3887    5.7866    0.9217 H   0  0  0  0  0  0  0  0  0  0  0  0
   -1.1583    5.0833   -0.1446 H   0  0  0  0  0  0  0  0  0  0  0  0
   -3.1707    4.4648    3.3388 N   0  0  0  0  0  0  0  0  0  0  0  0
   -4.2855    4.3671    4.2519 C   0  0  0  0  0  0  0  0  0  0  0  0
   -2.5583    5.2707    3.4230 H   0  0  0  0  0  0  0  0  0  0  0  0
   -5.1636    4.8643    3.8138 H   0  0  0  0  0  0  0  0  0  0  0  0
   -4.5176    3.3076    4.4350 H   0  0  0  0  0  0  0  0  0  0  0  0
   -4.0244    4.8550    5.2026 H   0  0  0  0  0  0  0  0  0  0  0  0
  1  3  1  0  0  0  0
  1  7  1  0  0  0  0
  1  2  2  0  0  0  0
 34 35  1  0  0  0  0
 35 43  1  0  0  0  0
 35 36  2  0  0  0  0
  8  9  1  0  0  0  0
  9 17  1  0  0  0  0
  9 10  2  0  0  0  0
 18 19  1  0  0  0  0
 19 33  1  0  0  0  0
 19 20  2  0  0  0  0
 22 23  1  0  0  0  0
 23 24  2  0  0  0  0
 23 25  1  0  0  0  0
 34 37  1  0  0  0  0
  8 11  1  0  0  0  0
 43 44  1  0  0  0  0
 21 22  1  0  0  0  0
 18 21  1  0  0  0  0
 33 34  1  0  0  0  0
  7  8  1  0  0  0  0
 17 18  1  0  0  0  0
  3  4  1  0  0  0  0
  3  5  1  0  0  0  0
  3  6  1  0  0  0  0
 37 40  1  0  0  0  0
 37 41  1  0  0  0  0
 37 42  1  0  0  0  0
 11 14  1  0  0  0  0
 11 15  1  0  0  0  0
 11 16  1  0  0  0  0
 44 46  1  0  0  0  0
 44 47  1  0  0  0  0
 44 48  1  0  0  0  0
 22 30  1  0  0  0  0
 22 31  1  0  0  0  0
 21 28  1  0  0  0  0
 21 29  1  0  0  0  0
 34 39  1  0  0  0  0
  8 13  1  0  0  0  0
 18 27  1  0  0  0  0
 43 45  1  0  0  0  0
  7 12  1  0  0  0  0
 33 38  1  0  0  0  0
 17 26  1  0  0  0  0
 25 32  1  0  0  0  0
M  END
$$$$

  -OEChem-05262214473D

 48 47  0     1  0  0  0  0  0999 V2000
   -5.5827   -1.3473    1.4591 C   0  0  0  0  0  0  0  0  0  0  0  0
   -5.7053   -2.4696    0.9825 O   0  0  0  0  0  0  0  0  0  0  0  0
   -6.7879   -0.6277    1.9670 C   0  0  0  0  0  0  0  0  0  0  0  0
   -7.2718   -0.0164    1.1885 H   0  0  0  0  0  0  0  0  0  0  0  0
   -7.5699   -1.3171    2.3239 H   0  0  0  0  0  0  0  0  0  0  0  0
   -6.6057    0.0628    2.8060 H   0  0  0  0  0  0  0  0  0  0  0  0
   -4.4001   -0.6377    1.5884 N   0  0  0  0  0  0  0  0  0  0  0  0
   -3.1220   -1.1455    1.1644 C   0  0  2  0  0  0  0  0  0  0  0  0
   -2.2017    0.0428    0.9187 C   0  0  0  0  0  0  0  0  0  0  0  0
   -2.6171    1.1750    0.6807 O   0  0  0  0  0  0  0  0  0  0  0  0
   -3.2533   -1.9992   -0.0873 C   0  0  0  0  0  0  0  0  0  0  0  0
   -4.4370    0.2910    2.0047 H   0  0  0  0  0  0  0  0  0  0  0  0
   -2.7302   -1.7467    1.9921 H   0  0  0  0  0  0  0  0  0  0  0  0
   -3.6446   -1.4140   -0.9275 H   0  0  0  0  0  0  0  0  0  0  0  0
   -2.2844   -2.4081   -0.3922 H   0  0  0  0  0  0  0  0  0  0  0  0
   -3.9388   -2.8365    0.0822 H   0  0  0  0  0  0  0  0  0  0  0  0
   -0.8768   -0.3314    0.9568 N   0  0  0  0  0  0  0  0  0  0  0  0
    0.2067    0.6285    0.7375 C   0  0  2  0  0  0  0  0  0  0  0  0
   -0.1425    1.8669    1.5574 C   0  0  0  0  0  0  0  0  0  0  0  0
    0.5958    2.3072    2.4363 O   0  0  0  0  0  0  0  0  0  0  0  0
    0.3170    0.9351   -0.7636 C   0  0  0  0  0  0  0  0  0  0  0  0
    0.7801   -0.2582   -1.5992 C   0  0  0  0  0  0  0  0  0  0  0  0
    0.8524    0.0759   -3.0683 C   0  0  0  0  0  0  0  0  0  0  0  0
    0.4569    1.1310   -3.5475 O   0  0  0  0  0  0  0  0  0  0  0  0
    1.3792   -0.9279   -3.8121 O   0  0  0  0  0  0  0  0  0  0  0  0
   -0.6087   -1.2764    1.1771 H   0  0  0  0  0  0  0  0  0  0  0  0
    1.1409    0.1834    1.0953 H   0  0  0  0  0  0  0  0  0  0  0  0
   -0.6592    1.2734   -1.1360 H   0  0  0  0  0  0  0  0  0  0  0  0
    1.0196    1.7622   -0.9301 H   0  0  0  0  0  0  0  0  0  0  0  0
    1.7902   -0.5545   -1.2910 H   0  0  0  0  0  0  0  0  0  0  0  0
    0.1530   -1.1408   -1.4358 H   0  0  0  0  0  0  0  0  0  0  0  0
    1.4269   -0.7582   -4.7769 H   0  0  0  0  0  0  0  0  0  0  0  0
   -1.3499    2.4316    1.1739 N   0  0  0  0  0  0  0  0  0  0  0  0
   -1.9043    3.6132    1.7946 C   0  0  2  0  0  0  0  0  0  0  0  0
   -2.8563    3.1637    2.8950 C   0  0  0  0  0  0  0  0  0  0  0  0
   -3.3817    2.0525    2.9150 O   0  0  0  0  0  0  0  0  0  0  0  0
   -2.6224    4.4871    0.7780 C   0  0  0  0  0  0  0  0  0  0  0  0
   -1.8701    1.9932    0.4198 H   0  0  0  0  0  0  0  0  0  0  0  0
   -1.0654    4.1608    2.2378 H   0  0  0  0  0  0  0  0  0  0  0  0
   -3.4661    3.9554    0.3232 H   0  0  0  0  0  0  0  0  0  0  0  0
   -3.0171    5.3958    1.2444 H   0  0  0  0  0  0  0  0  0  0  0  0
   -1.9436    4.7849   -0.0284 H   0  0  0  0  0  0  0  0  0  0  0  0
   -3.0840    4.1646    3.8292 N   0  0  0  0  0  0  0  0  0  0  0  0
   -3.9605    3.9877    4.9634 C   0  0  0  0  0  0  0  0  0  0  0  0
   -2.5911    5.0487    3.7444 H   0  0  0  0  0  0  0  0  0  0  0  0
   -4.9727    4.3300    4.7020 H   0  0  0  0  0  0  0  0  0  0  0  0
   -3.9933    2.9233    5.2388 H   0  0  0  0  0  0  0  0  0  0  0  0
   -3.5831    4.5750    5.8134 H   0  0  0  0  0  0  0  0  0  0  0  0
  1  3  1  0  0  0  0
  1  7  1  0  0  0  0
  1  2  2  0  0  0  0
 34 35  1  0  0  0  0
 35 43  1  0  0  0  0
 35 36  2  0  0  0  0
  8  9  1  0  0  0  0
  9 17  1  0  0  0  0
  9 10  2  0  0  0  0
 18 19  1  0  0  0  0
 19 33  1  0  0  0  0
 19 20  2  0  0  0  0
 22 23  1  0  0  0  0
 23 24  2  0  0  0  0
 23 25  1  0  0  0  0
 34 37  1  0  0  0  0
  8 11  1  0  0  0  0
 43 44  1  0  0  0  0
 21 22  1  0  0  0  0
 18 21  1  0  0  0  0
 33 34  1  0  0  0  0
  7  8  1  0  0  0  0
 17 18  1  0  0  0  0
  3  4  1  0  0  0  0
  3  5  1  0  0  0  0
  3  6  1  0  0  0  0
 37 40  1  0  0  0  0
 37 41  1  0  0  0  0
 37 42  1  0  0  0  0
 11 14  1  0  0  0  0
 11 15  1  0  0  0  0
 11 16  1  0  0  0  0
 44 46  1  0  0  0  0
 44 47  1  0  0  0  0
 44 48  1  0  0  0  0
 22 30  1  0  0  0  0
 22 31  1  0  0  0  0
 21 28  1  0  0  0  0
 21 29  1  0  0  0  0
 34 39  1  0  0  0  0
  8 13  1  0  0  0  0
 18 27  1  0  0  0  0
 43 45  1  0  0  0  0
  7 12  1  0  0  0  0
 33 38  1  0  0  0  0
 17 26  1  0  0  0  0
 25 32  1  0  0  0  0
M  END
$$$$

  -OEChem-05262214473D

 48 47  0     1  0  0  0  0  0999 V2000
   -5.5827   -1.3473    1.4591 C   0  0  0  0  0  0  0  0  0  0  0  0
   -5.7053   -2.4696    0.9825 O   0  0  0  0  0  0  0  0  0  0  0  0
   -6.7879   -0.6277    1.9670 C   0  0  0  0  0  0  0  0  0  0  0  0
   -7.2718   -0.0164    1.1885 H   0  0  0  0  0  0  0  0  0  0  0  0
   -7.5699   -1.3171    2.3239 H   0  0  0  0  0  0  0  0  0  0  0  0
   -6.6057    0.0628    2.8060 H   0  0  0  0  0  0  0  0  0  0  0  0
   -4.4001   -0.6377    1.5884 N   0  0  0  0  0  0  0  0  0  0  0  0
   -3.1220   -1.1455    1.1644 C   0  0  2  0  0  0  0  0  0  0  0  0
   -2.2017    0.0428    0.9187 C   0  0  0  0  0  0  0  0  0  0  0  0
   -2.6171    1.1750    0.6807 O   0  0  0  0  0  0  0  0  0  0  0  0
   -3.2533   -1.9992   -0.0873 C   0  0  0  0  0  0  0  0  0  0  0  0
   -4.4370    0.2910    2.0047 H   0  0  0  0  0  0  0  0  0  0  0  0
   -2.7302   -1.7467    1.9921 H   0  0  0  0  0  0  0  0  0  0  0  0
   -3.6446   -1.4140   -0.9275 H   0  0  0  0  0  0  0  0  0  0  0  0
   -2.2844   -2.4081   -0.3922 H   0  0  0  0  0  0  0  0  0  0  0  0
   -3.9388   -2.8365    0.0822 H   0  0  0  0  0  0  0  0  0  0  0  0
   -0.8768   -0.3314    0.9568 N   0  0  0  0  0  0  0  0  0  0  0  0
    0.2067    0.6285    0.7375 C   0  0  2  0  0  0  0  0  0  0  0  0
   -0.1425    1.8669    1.5574 C   0  0  0  0  0  0  0  0  0  0  0  0
    0.6889    2.4652    2.2373 O   0  0  0  0  0  0  0  0  0  0  0  0
    0.3170    0.9351   -0.7636 C   0  0  0  0  0  0  0  0  0  0  0  0
    0.7801   -0.2582   -1.5992 C   0  0  0  0  0  0  0  0  0  0  0  0
    0.8524    0.0759   -3.0683 C   0  0  0  0  0  0  0  0  0  0  0  0
    0.4569    1.1310   -3.5475 O   0  0  0  0  0  0  0  0  0  0  0  0
    1.3792   -0.9279   -3.8121 O   0  0  0  0  0  0  0  0  0  0  0  0
   -0.6087   -1.2764    1.1771 H   0  0  0  0  0  0  0  0  0  0  0  0
    1.1409    0.1834    1.0953 H   0  0  0  0  0  0  0  0  0  0  0  0
   -0.6592    1.2734   -1.1360 H   0  0  0  0  0  0  0  0  0  0  0  0
    1.0196    1.7622   -0.9301 H   0  0  0  0  0  0  0  0  0  0  0  0
    1.7902   -0.5545   -1.2910 H   0  0  0  0  0  0  0  0  0  0  0  0
    0.1530   -1.1408   -1.4358 H   0  0  0  0  0  0  0  0  0  0  0  0
    1.4269   -0.7582   -4.7769 H   0  0  0  0  0  0  0  0  0  0  0  0
   -1.4720    2.2363    1.4168 N   0  0  0  0  0  0  0  0  0  0  0  0
   -2.0525    3.3766    2.0888 C   0  0  2  0  0  0  0  0  0  0  0  0
   -2.6819    2.8875    3.3866 C   0  0  0  0  0  0  0  0  0  0  0  0
   -3.0246    1.7209    3.5679 O   0  0  0  0  0  0  0  0  0  0  0  0
   -3.0838    4.0697    1.2120 C   0  0  0  0  0  0  0  0  0  0  0  0
   -2.0669    1.6781    0.8119 H   0  0  0  0  0  0  0  0  0  0  0  0
   -1.2291    4.0620    2.3173 H   0  0  0  0  0  0  0  0  0  0  0  0
   -3.9166    3.3984    0.9726 H   0  0  0  0  0  0  0  0  0  0  0  0
   -3.5019    4.9499    1.7114 H   0  0  0  0  0  0  0  0  0  0  0  0
   -2.6363    4.3944    0.2664 H   0  0  0  0  0  0  0  0  0  0  0  0
   -2.8554    3.9157    4.3024 N   0  0  0  0  0  0  0  0  0  0  0  0
   -3.4444    3.7086    5.6048 C   0  0  0  0  0  0  0  0  0  0  0  0
   -2.5245    4.8487    4.0749 H   0  0  0  0  0  0  0  0  0  0  0  0
   -4.5275    3.8932    5.5515 H   0  0  0  0  0  0  0  0  0  0  0  0
   -3.2646    2.6725    5.9278 H   0  0  0  0  0  0  0  0  0  0  0  0
   -2.9895    4.4021    6.3273 H   0  0  0  0  0  0  0  0  0  0  0  0
  1  3  1  0  0  0  0
  1  7  1  0  0  0  0
  1  2  2  0  0  0  0
 34 35  1  0  0  0  0
 35 43  1  0  0  0  0
 35 36  2  0  0  0  0
  8  9  1  0  0  0  0
  9 17  1  0  0  0  0
  9 10  2  0  0  0  0
 18 19  1  0  0  0  0
 19 33  1  0  0  0  0
 19 20  2  0  0  0  0
 22 23  1  0  0  0  0
 23 24  2  0  0  0  0
 23 25  1  0  0  0  0
 34 37  1  0  0  0  0
  8 11  1  0  0  0  0
 43 44  1  0  0  0  0
 21 22  1  0  0  0  0
 18 21  1  0  0  0  0
 33 34  1  0  0  0  0
  7  8  1  0  0  0  0
 17 18  1  0  0  0  0
  3  4  1  0  0  0  0
  3  5  1  0  0  0  0
  3  6  1  0  0  0  0
 37 40  1  0  0  0  0
 37 41  1  0  0  0  0
 37 42  1  0  0  0  0
 11 14  1  0  0  0  0
 11 15  1  0  0  0  0
 11 16  1  0  0  0  0
 44 46  1  0  0  0  0
 44 47  1  0  0  0  0
 44 48  1  0  0  0  0
 22 30  1  0  0  0  0
 22 31  1  0  0  0  0
 21 28  1  0  0  0  0
 21 29  1  0  0  0  0
 34 39  1  0  0  0  0
  8 13  1  0  0  0  0
 18 27  1  0  0  0  0
 43 45  1  0  0  0  0
  7 12  1  0  0  0  0
 33 38  1  0  0  0  0
 17 26  1  0  0  0  0
 25 32  1  0  0  0  0
M  END
$$$$

  -OEChem-05262214473D

 48 47  0     1  0  0  0  0  0999 V2000
   -5.5827   -1.3473    1.4591 C   0  0  0  0  0  0  0  0  0  0  0  0
   -5.7053   -2.4696    0.9825 O   0  0  0  0  0  0  0  0  0  0  0  0
   -6.7879   -0.6277    1.9670 C   0  0  0  0  0  0  0  0  0  0  0  0
   -7.2718   -0.0164    1.1885 H   0  0  0  0  0  0  0  0  0  0  0  0
   -7.5699   -1.3171    2.3239 H   0  0  0  0  0  0  0  0  0  0  0  0
   -6.6057    0.0628    2.8060 H   0  0  0  0  0  0  0  0  0  0  0  0
   -4.4001   -0.6377    1.5884 N   0  0  0  0  0  0  0  0  0  0  0  0
   -3.1220   -1.1455    1.1644 C   0  0  2  0  0  0  0  0  0  0  0  0
   -2.2017    0.0428    0.9187 C   0  0  0  0  0  0  0  0  0  0  0  0
   -2.6171    1.1750    0.6807 O   0  0  0  0  0  0  0  0  0  0  0  0
   -3.2533   -1.9992   -0.0873 C   0  0  0  0  0  0  0  0  0  0  0  0
   -4.4370    0.2910    2.0047 H   0  0  0  0  0  0  0  0  0  0  0  0
   -2.7302   -1.7467    1.9921 H   0  0  0  0  0  0  0  0  0  0  0  0
   -3.6446   -1.4140   -0.9275 H   0  0  0  0  0  0  0  0  0  0  0  0
   -2.2844   -2.4081   -0.3922 H   0  0  0  0  0  0  0  0  0  0  0  0
   -3.9388   -2.8365    0.0822 H   0  0  0  0  0  0  0  0  0  0  0  0
   -0.8768   -0.3314    0.9568 N   0  0  0  0  0  0  0  0  0  0  0  0
    0.2067    0.6285    0.7375 C   0  0  2  0  0  0  0  0  0  0  0  0
   -0.1425    1.8669    1.5574 C   0  0  0  0  0  0  0  0  0  0  0  0
    0.7150    2.6190    2.0161 O   0  0  0  0  0  0  0  0  0  0  0  0
    0.3170    0.9351   -0.7636 C   0  0  0  0  0  0  0  0  0  0  0  0
    0.7801   -0.2582   -1.5992 C   0  0  0  0  0  0  0  0  0  0  0  0
    0.8524    0.0759   -3.0683 C   0  0  0  0  0  0  0  0  0  0  0  0
    0.4569    1.1310   -3.5475 O   0  0  0  0  0  0  0  0  0  0  0  0
    1.3792   -0.9279   -3.8121 O   0  0  0  0  0  0  0  0  0  0  0  0
   -0.6087   -1.2764    1.1771 H   0  0  0  0  0  0  0  0  0  0  0  0
    1.1409    0.1834    1.0953 H   0  0  0  0  0  0  0  0  0  0  0  0
   -0.6592    1.2734   -1.1360 H   0  0  0  0  0  0  0  0  0  0  0  0
    1.0196    1.7622   -0.9301 H   0  0  0  0  0  0  0  0  0  0  0  0
    1.7902   -0.5545   -1.2910 H   0  0  0  0  0  0  0  0  0  0  0  0
    0.1530   -1.1408   -1.4358 H   0  0  0  0  0  0  0  0  0  0  0  0
    1.4269   -0.7582   -4.7769 H   0  0  0  0  0  0  0  0  0  0  0  0
   -1.5118    2.0451    1.6887 N   0  0  0  0  0  0  0  0  0  0  0  0
   -2.1009    3.1448    2.4182 C   0  0  2  0  0  0  0  0  0  0  0  0
   -2.3717    2.6740    3.8411 C   0  0  0  0  0  0  0  0  0  0  0  0
   -2.4964    1.4890    4.1432 O   0  0  0  0  0  0  0  0  0  0  0  0
   -3.3802    3.6280    1.7529 C   0  0  0  0  0  0  0  0  0  0  0  0
   -2.1308    1.3696    1.2507 H   0  0  0  0  0  0  0  0  0  0  0  0
   -1.3567    3.9485    2.4343 H   0  0  0  0  0  0  0  0  0  0  0  0
   -4.1378    2.8362    1.7275 H   0  0  0  0  0  0  0  0  0  0  0  0
   -3.8100    4.4795    2.2907 H   0  0  0  0  0  0  0  0  0  0  0  0
   -3.1891    3.9383    0.7199 H   0  0  0  0  0  0  0  0  0  0  0  0
   -2.5005    3.7351    4.7263 N   0  0  0  0  0  0  0  0  0  0  0  0
   -2.7723    3.5487    6.1325 C   0  0  0  0  0  0  0  0  0  0  0  0
   -2.3629    4.6843    4.3920 H   0  0  0  0  0  0  0  0  0  0  0  0
   -3.8582    3.5834    6.3044 H   0  0  0  0  0  0  0  0  0  0  0  0
   -2.3811    2.5725    6.4552 H   0  0  0  0  0  0  0  0  0  0  0  0
   -2.2842    4.3481    6.7093 H   0  0  0  0  0  0  0  0  0  0  0  0
  1  3  1  0  0  0  0
  1  7  1  0  0  0  0
  1  2  2  0  0  0  0
 34 35  1  0  0  0  0
 35 43  1  0  0  0  0
 35 36  2  0  0  0  0
  8  9  1  0  0  0  0
  9 17  1  0  0  0  0
  9 10  2  0  0  0  0
 18 19  1  0  0  0  0
 19 33  1  0  0  0  0
 19 20  2  0  0  0  0
 22 23  1  0  0  0  0
 23 24  2  0  0  0  0
 23 25  1  0  0  0  0
 34 37  1  0  0  0  0
  8 11  1  0  0  0  0
 43 44  1  0  0  0  0
 21 22  1  0  0  0  0
 18 21  1  0  0  0  0
 33 34  1  0  0  0  0
  7  8  1  0  0  0  0
 17 18  1  0  0  0  0
  3  4  1  0  0  0  0
  3  5  1  0  0  0  0
  3  6  1  0  0  0  0
 37 40  1  0  0  0  0
 37 41  1  0  0  0  0
 37 42  1  0  0  0  0
 11 14  1  0  0  0  0
 11 15  1  0  0  0  0
 11 16  1  0  0  0  0
 44 46  1  0  0  0  0
 44 47  1  0  0  0  0
 44 48  1  0  0  0  0
 22 30  1  0  0  0  0
 22 31  1  0  0  0  0
 21 28  1  0  0  0  0
 21 29  1  0  0  0  0
 34 39  1  0  0  0  0
  8 13  1  0  0  0  0
 18 27  1  0  0  0  0
 43 45  1  0  0  0  0
  7 12  1  0  0  0  0
 33 38  1  0  0  0  0
 17 26  1  0  0  0  0
 25 32  1  0  0  0  0
M  END
$$$$

  -OEChem-05262214473D

 48 47  0     1  0  0  0  0  0999 V2000
   -5.5827   -1.3473    1.4591 C   0  0  0  0  0  0  0  0  0  0  0  0
   -5.7053   -2.4696    0.9825 O   0  0  0  0  0  0  0  0  0  0  0  0
   -6.7879   -0.6277    1.9670 C   0  0  0  0  0  0  0  0  0  0  0  0
   -7.2718   -0.0164    1.1885 H   0  0  0  0  0  0  0  0  0  0  0  0
   -7.5699   -1.3171    2.3239 H   0  0  0  0  0  0  0  0  0  0  0  0
   -6.6057    0.0628    2.8060 H   0  0  0  0  0  0  0  0  0  0  0  0
   -4.4001   -0.6377    1.5884 N   0  0  0  0  0  0  0  0  0  0  0  0
   -3.1220   -1.1455    1.1644 C   0  0  2  0  0  0  0  0  0  0  0  0
   -2.2017    0.0428    0.9187 C   0  0  0  0  0  0  0  0  0  0  0  0
   -2.6171    1.1750    0.6807 O   0  0  0  0  0  0  0  0  0  0  0  0
   -3.2533   -1.9992   -0.0873 C   0  0  0  0  0  0  0  0  0  0  0  0
   -4.4370    0.2910    2.0047 H   0  0  0  0  0  0  0  0  0  0  0  0
   -2.7302   -1.7467    1.9921 H   0  0  0  0  0  0  0  0  0  0  0  0
   -3.6446   -1.4140   -0.9275 H   0  0  0  0  0  0  0  0  0  0  0  0
   -2.2844   -2.4081   -0.3922 H   0  0  0  0  0  0  0  0  0  0  0  0
   -3.9388   -2.8365    0.0822 H   0  0  0  0  0  0  0  0  0  0  0  0
   -0.8768   -0.3314    0.9568 N   0  0  0  0  0  0  0  0  0  0  0  0
    0.2067    0.6285    0.7375 C   0  0  2  0  0  0  0  0  0  0  0  0
   -0.1425    1.8669    1.5574 C   0  0  0  0  0  0  0  0  0  0  0  0
    0.6724    2.7581    1.7879 O   0  0  0  0  0  0  0  0  0  0  0  0
    0.3170    0.9351   -0.7636 C   0  0  0  0  0  0  0  0  0  0  0  0
    0.7801   -0.2582   -1.5992 C   0  0  0  0  0  0  0  0  0  0  0  0
    0.8524    0.0759   -3.0683 C   0  0  0  0  0  0  0  0  0  0  0  0
    0.4569    1.1310   -3.5475 O   0  0  0  0  0  0  0  0  0  0  0  0
    1.3792   -0.9279   -3.8121 O   0  0  0  0  0  0  0  0  0  0  0  0
   -0.6087   -1.2764    1.1771 H   0  0  0  0  0  0  0  0  0  0  0  0
    1.1409    0.1834    1.0953 H   0  0  0  0  0  0  0  0  0  0  0  0
   -0.6592    1.2734   -1.1360 H   0  0  0  0  0  0  0  0  0  0  0  0
    1.0196    1.7622   -0.9301 H   0  0  0  0  0  0  0  0  0  0  0  0
    1.7902   -0.5545   -1.2910 H   0  0  0  0  0  0  0  0  0  0  0  0
    0.1530   -1.1408   -1.4358 H   0  0  0  0  0  0  0  0  0  0  0  0
    1.4269   -0.7582   -4.7769 H   0  0  0  0  0  0  0  0  0  0  0  0
   -1.4664    1.8710    1.9710 N   0  0  0  0  0  0  0  0  0  0  0  0
   -2.0463    2.9338    2.7603 C   0  0  2  0  0  0  0  0  0  0  0  0
   -1.9469    2.5379    4.2276 C   0  0  0  0  0  0  0  0  0  0  0  0
   -1.8330    1.3725    4.6017 O   0  0  0  0  0  0  0  0  0  0  0  0
   -3.4915    3.1922    2.3638 C   0  0  0  0  0  0  0  0  0  0  0  0
   -2.0574    1.0887    1.7062 H   0  0  0  0  0  0  0  0  0  0  0  0
   -1.4397    3.8281    2.5808 H   0  0  0  0  0  0  0  0  0  0  0  0
   -4.1147    2.3072    2.5365 H   0  0  0  0  0  0  0  0  0  0  0  0
   -3.9205    4.0166    2.9428 H   0  0  0  0  0  0  0  0  0  0  0  0
   -3.5644    3.4477    1.3011 H   0  0  0  0  0  0  0  0  0  0  0  0
   -2.0436    3.6351    5.0719 N   0  0  0  0  0  0  0  0  0  0  0  0
   -1.9900    3.5190    6.5105 C   0  0  0  0  0  0  0  0  0  0  0  0
   -2.1173    4.5668    4.6740 H   0  0  0  0  0  0  0  0  0  0  0  0
   -3.0105    3.4219    6.9093 H   0  0  0  0  0  0  0  0  0  0  0  0
   -1.4031    2.6300    6.7848 H   0  0  0  0  0  0  0  0  0  0  0  0
   -1.5151    4.4167    6.9332 H   0  0  0  0  0  0  0  0  0  0  0  0
  1  3  1  0  0  0  0
  1  7  1  0  0  0  0
  1  2  2  0  0  0  0
 34 35  1  0  0  0  0
 35 43  1  0  0  0  0
 35 36  2  0  0  0  0
  8  9  1  0  0  0  0
  9 17  1  0  0  0  0
  9 10  2  0  0  0  0
 18 19  1  0  0  0  0
 19 33  1  0  0  0  0
 19 20  2  0  0  0  0
 22 23  1  0  0  0  0
 23 24  2  0  0  0  0
 23 25  1  0  0  0  0
 34 37  1  0  0  0  0
  8 11  1  0  0  0  0
 43 44  1  0  0  0  0
 21 22  1  0  0  0  0
 18 21  1  0  0  0  0
 33 34  1  0  0  0  0
  7  8  1  0  0  0  0
 17 18  1  0  0  0  0
  3  4  1  0  0  0  0
  3  5  1  0  0  0  0
  3  6  1  0  0  0  0
 37 40  1  0  0  0  0
 37 41  1  0  0  0  0
 37 42  1  0  0  0  0
 11 14  1  0  0  0  0
 11 15  1  0  0  0  0
 11 16  1  0  0  0  0
 44 46  1  0  0  0  0
 44 47  1  0  0  0  0
 44 48  1  0  0  0  0
 22 30  1  0  0  0  0
 22 31  1  0  0  0  0
 21 28  1  0  0  0  0
 21 29  1  0  0  0  0
 34 39  1  0  0  0  0
  8 13  1  0  0  0  0
 18 27  1  0  0  0  0
 43 45  1  0  0  0  0
  7 12  1  0  0  0  0
 33 38  1  0  0  0  0
 17 26  1  0  0  0  0
 25 32  1  0  0  0  0
M  END
$$$$

  -OEChem-05262214473D

 48 47  0     1  0  0  0  0  0999 V2000
   -5.5827   -1.3473    1.4591 C   0  0  0  0  0  0  0  0  0  0  0  0
   -5.7053   -2.4696    0.9825 O   0  0  0  0  0  0  0  0  0  0  0  0
   -6.7879   -0.6277    1.9670 C   0  0  0  0  0  0  0  0  0  0  0  0
   -7.2718   -0.0164    1.1885 H   0  0  0  0  0  0  0  0  0  0  0  0
   -7.5699   -1.3171    2.3239 H   0  0  0  0  0  0  0  0  0  0  0  0
   -6.6057    0.0628    2.8060 H   0  0  0  0  0  0  0  0  0  0  0  0
   -4.4001   -0.6377    1.5884 N   0  0  0  0  0  0  0  0  0  0  0  0
   -3.1220   -1.1455    1.1644 C   0  0  2  0  0  0  0  0  0  0  0  0
   -2.2017    0.0428    0.9187 C   0  0  0  0  0  0  0  0  0  0  0  0
   -2.6171    1.1750    0.6807 O   0  0  0  0  0  0  0  0  0  0  0  0
   -3.2533   -1.9992   -0.0873 C   0  0  0  0  0  0  0  0  0  0  0  0
   -4.4370    0.2910    2.0047 H   0  0  0  0  0  0  0  0  0  0  0  0
   -2.7302   -1.7467    1.9921 H   0  0  0  0  0  0  0  0  0  0  0  0
   -3.6446   -1.4140   -0.9275 H   0  0  0  0  0  0  0  0  0  0  0  0
   -2.2844   -2.4081   -0.3922 H   0  0  0  0  0  0  0  0  0  0  0  0
   -3.9388   -2.8365    0.0822 H   0  0  0  0  0  0  0  0  0  0  0  0
   -0.8768   -0.3314    0.9568 N   0  0  0  0  0  0  0  0  0  0  0  0
    0.2067    0.6285    0.7375 C   0  0  2  0  0  0  0  0  0  0  0  0
   -0.1425    1.8669    1.5574 C   0  0  0  0  0  0  0  0  0  0  0  0
    0.5639    2.8730    1.5681 O   0  0  0  0  0  0  0  0  0  0  0  0
    0.3170    0.9351   -0.7636 C   0  0  0  0  0  0  0  0  0  0  0  0
    0.7801   -0.2582   -1.5992 C   0  0  0  0  0  0  0  0  0  0  0  0
    0.8524    0.0759   -3.0683 C   0  0  0  0  0  0  0  0  0  0  0  0
    0.4569    1.1310   -3.5475 O   0  0  0  0  0  0  0  0  0  0  0  0
    1.3792   -0.9279   -3.8121 O   0  0  0  0  0  0  0  0  0  0  0  0
   -0.6087   -1.2764    1.1771 H   0  0  0  0  0  0  0  0  0  0  0  0
    1.1409    0.1834    1.0953 H   0  0  0  0  0  0  0  0  0  0  0  0
   -0.6592    1.2734   -1.1360 H   0  0  0  0  0  0  0  0  0  0  0  0
    1.0196    1.7622   -0.9301 H   0  0  0  0  0  0  0  0  0  0  0  0
    1.7902   -0.5545   -1.2910 H   0  0  0  0  0  0  0  0  0  0  0  0
    0.1530   -1.1408   -1.4358 H   0  0  0  0  0  0  0  0  0  0  0  0
    1.4269   -0.7582   -4.7769 H   0  0  0  0  0  0  0  0  0  0  0  0
   -1.3391    1.7258    2.2445 N   0  0  0  0  0  0  0  0  0  0  0  0
   -1.8923    2.7578    3.0917 C   0  0  2  0  0  0  0  0  0  0  0  0
   -1.4364    2.4884    4.5197 C   0  0  0  0  0  0  0  0  0  0  0  0
   -1.0798    1.3794    4.9121 O   0  0  0  0  0  0  0  0  0  0  0  0
   -3.4101    2.7919    3.0030 C   0  0  0  0  0  0  0  0  0  0  0  0
   -1.8517    0.8546    2.1475 H   0  0  0  0  0  0  0  0  0  0  0  0
   -1.4723    3.7089    2.7469 H   0  0  0  0  0  0  0  0  0  0  0  0
   -3.8489    1.8472    3.3443 H   0  0  0  0  0  0  0  0  0  0  0  0
   -3.8259    3.5927    3.6234 H   0  0  0  0  0  0  0  0  0  0  0  0
   -3.7365    2.9560    1.9704 H   0  0  0  0  0  0  0  0  0  0  0  0
   -1.5158    3.6226    5.3156 N   0  0  0  0  0  0  0  0  0  0  0  0
   -1.1508    3.6216    6.7130 C   0  0  0  0  0  0  0  0  0  0  0  0
   -1.8044    4.5042    4.9018 H   0  0  0  0  0  0  0  0  0  0  0  0
   -2.0421    3.4196    7.3252 H   0  0  0  0  0  0  0  0  0  0  0  0
   -0.3971    2.8411    6.8944 H   0  0  0  0  0  0  0  0  0  0  0  0
   -0.7347    4.6032    6.9839 H   0  0  0  0  0  0  0  0  0  0  0  0
  1  3  1  0  0  0  0
  1  7  1  0  0  0  0
  1  2  2  0  0  0  0
 34 35  1  0  0  0  0
 35 43  1  0  0  0  0
 35 36  2  0  0  0  0
  8  9  1  0  0  0  0
  9 17  1  0  0  0  0
  9 10  2  0  0  0  0
 18 19  1  0  0  0  0
 19 33  1  0  0  0  0
 19 20  2  0  0  0  0
 22 23  1  0  0  0  0
 23 24  2  0  0  0  0
 23 25  1  0  0  0  0
 34 37  1  0  0  0  0
  8 11  1  0  0  0  0
 43 44  1  0  0  0  0
 21 22  1  0  0  0  0
 18 21  1  0  0  0  0
 33 34  1  0  0  0  0
  7  8  1  0  0  0  0
 17 18  1  0  0  0  0
  3  4  1  0  0  0  0
  3  5  1  0  0  0  0
  3  6  1  0  0  0  0
 37 40  1  0  0  0  0
 37 41  1  0  0  0  0
 37 42  1  0  0  0  0
 11 14  1  0  0  0  0
 11 15  1  0  0  0  0
 11 16  1  0  0  0  0
 44 46  1  0  0  0  0
 44 47  1  0  0  0  0
 44 48  1  0  0  0  0
 22 30  1  0  0  0  0
 22 31  1  0  0  0  0
 21 28  1  0  0  0  0
 21 29  1  0  0  0  0
 34 39  1  0  0  0  0
  8 13  1  0  0  0  0
 18 27  1  0  0  0  0
 43 45  1  0  0  0  0
  7 12  1  0  0  0  0
 33 38  1  0  0  0  0
 17 26  1  0  0  0  0
 25 32  1  0  0  0  0
M  END
$$$$

  -OEChem-05262214473D

 48 47  0     1  0  0  0  0  0999 V2000
   -5.5827   -1.3473    1.4591 C   0  0  0  0  0  0  0  0  0  0  0  0
   -5.7053   -2.4696    0.9825 O   0  0  0  0  0  0  0  0  0  0  0  0
   -6.7879   -0.6277    1.9670 C   0  0  0  0  0  0  0  0  0  0  0  0
   -7.2718   -0.0164    1.1885 H   0  0  0  0  0  0  0  0  0  0  0  0
   -7.5699   -1.3171    2.3239 H   0  0  0  0  0  0  0  0  0  0  0  0
   -6.6057    0.0628    2.8060 H   0  0  0  0  0  0  0  0  0  0  0  0
   -4.4001   -0.6377    1.5884 N   0  0  0  0  0  0  0  0  0  0  0  0
   -3.1220   -1.1455    1.1644 C   0  0  2  0  0  0  0  0  0  0  0  0
   -2.2017    0.0428    0.9187 C   0  0  0  0  0  0  0  0  0  0  0  0
   -2.6171    1.1750    0.6807 O   0  0  0  0  0  0  0  0  0  0  0  0
   -3.2533   -1.9992   -0.0873 C   0  0  0  0  0  0  0  0  0  0  0  0
   -4.4370    0.2910    2.0047 H   0  0  0  0  0  0  0  0  0  0  0  0
   -2.7302   -1.7467    1.9921 H   0  0  0  0  0  0  0  0  0  0  0  0
   -3.6446   -1.4140   -0.9275 H   0  0  0  0  0  0  0  0  0  0  0  0
   -2.2844   -2.4081   -0.3922 H   0  0  0  0  0  0  0  0  0  0  0  0
   -3.9388   -2.8365    0.0822 H   0  0  0  0  0  0  0  0  0  0  0  0
   -0.8768   -0.3314    0.9568 N   0  0  0  0  0  0  0  0  0  0  0  0
    0.2067    0.6285    0.7375 C   0  0  2  0  0  0  0  0  0  0  0  0
   -0.1425    1.8669    1.5574 C   0  0  0  0  0  0  0  0  0  0  0  0
    0.3970    2.9559    1.3718 O   0  0  0  0  0  0  0  0  0  0  0  0
    0.3170    0.9351   -0.7636 C   0  0  0  0  0  0  0  0  0  0  0  0
    0.7801   -0.2582   -1.5992 C   0  0  0  0  0  0  0  0  0  0  0  0
    0.8524    0.0759   -3.0683 C   0  0  0  0  0  0  0  0  0  0  0  0
    0.4569    1.1310   -3.5475 O   0  0  0  0  0  0  0  0  0  0  0  0
    1.3792   -0.9279   -3.8121 O   0  0  0  0  0  0  0  0  0  0  0  0
   -0.6087   -1.2764    1.1771 H   0  0  0  0  0  0  0  0  0  0  0  0
    1.1409    0.1834    1.0953 H   0  0  0  0  0  0  0  0  0  0  0  0
   -0.6592    1.2734   -1.1360 H   0  0  0  0  0  0  0  0  0  0  0  0
    1.0196    1.7622   -0.9301 H   0  0  0  0  0  0  0  0  0  0  0  0
    1.7902   -0.5545   -1.2910 H   0  0  0  0  0  0  0  0  0  0  0  0
    0.1530   -1.1408   -1.4358 H   0  0  0  0  0  0  0  0  0  0  0  0
    1.4269   -0.7582   -4.7769 H   0  0  0  0  0  0  0  0  0  0  0  0
   -1.1385    1.6195    2.4905 N   0  0  0  0  0  0  0  0  0  0  0  0
   -1.6494    2.6288    3.3899 C   0  0  2  0  0  0  0  0  0  0  0  0
   -0.8751    2.5289    4.6976 C   0  0  0  0  0  0  0  0  0  0  0  0
   -0.2879    1.5092    5.0532 O   0  0  0  0  0  0  0  0  0  0  0  0
   -3.1415    2.4545    3.6271 C   0  0  0  0  0  0  0  0  0  0  0  0
   -1.5278    0.6831    2.5443 H   0  0  0  0  0  0  0  0  0  0  0  0
   -1.4523    3.5991    2.9213 H   0  0  0  0  0  0  0  0  0  0  0  0
   -3.3585    1.4878    4.0961 H   0  0  0  0  0  0  0  0  0  0  0  0
   -3.5326    3.2367    4.2860 H   0  0  0  0  0  0  0  0  0  0  0  0
   -3.6938    2.4968    2.6821 H   0  0  0  0  0  0  0  0  0  0  0  0
   -0.9530    3.6984    5.4409 N   0  0  0  0  0  0  0  0  0  0  0  0
   -0.3119    3.8493    6.7263 C   0  0  0  0  0  0  0  0  0  0  0  0
   -1.4457    4.5007    5.0598 H   0  0  0  0  0  0  0  0  0  0  0  0
   -1.0190    3.5768    7.5235 H   0  0  0  0  0  0  0  0  0  0  0  0
    0.5683    3.1915    6.7764 H   0  0  0  0  0  0  0  0  0  0  0  0
    0.0038    4.8948    6.8579 H   0  0  0  0  0  0  0  0  0  0  0  0
  1  3  1  0  0  0  0
  1  7  1  0  0  0  0
  1  2  2  0  0  0  0
 34 35  1  0  0  0  0
 35 43  1  0  0  0  0
 35 36  2  0  0  0  0
  8  9  1  0  0  0  0
  9 17  1  0  0  0  0
  9 10  2  0  0  0  0
 18 19  1  0  0  0  0
 19 33  1  0  0  0  0
 19 20  2  0  0  0  0
 22 23  1  0  0  0  0
 23 24  2  0  0  0  0
 23 25  1  0  0  0  0
 34 37  1  0  0  0  0
  8 11  1  0  0  0  0
 43 44  1  0  0  0  0
 21 22  1  0  0  0  0
 18 21  1  0  0  0  0
 33 34  1  0  0  0  0
  7  8  1  0  0  0  0
 17 18  1  0  0  0  0
  3  4  1  0  0  0  0
  3  5  1  0  0  0  0
  3  6  1  0  0  0  0
 37 40  1  0  0  0  0
 37 41  1  0  0  0  0
 37 42  1  0  0  0  0
 11 14  1  0  0  0  0
 11 15  1  0  0  0  0
 11 16  1  0  0  0  0
 44 46  1  0  0  0  0
 44 47  1  0  0  0  0
 44 48  1  0  0  0  0
 22 30  1  0  0  0  0
 22 31  1  0  0  0  0
 21 28  1  0  0  0  0
 21 29  1  0  0  0  0
 34 39  1  0  0  0  0
  8 13  1  0  0  0  0
 18 27  1  0  0  0  0
 43 45  1  0  0  0  0
  7 12  1  0  0  0  0
 33 38  1  0  0  0  0
 17 26  1  0  0  0  0
 25 32  1  0  0  0  0
M  END
$$$$

  -OEChem-05262214473D

 48 47  0     1  0  0  0  0  0999 V2000
   -5.5827   -1.3473    1.4591 C   0  0  0  0  0  0  0  0  0  0  0  0
   -5.7053   -2.4696    0.9825 O   0  0  0  0  0  0  0  0  0  0  0  0
   -6.7879   -0.6277    1.9670 C   0  0  0  0  0  0  0  0  0  0  0  0
   -7.2718   -0.0164    1.1885 H   0  0  0  0  0  0  0  0  0  0  0  0
   -7.5699   -1.3171    2.3239 H   0  0  0  0  0  0  0  0  0  0  0  0
   -6.6057    0.0628    2.8060 H   0  0  0  0  0  0  0  0  0  0  0  0
   -4.4001   -0.6377    1.5884 N   0  0  0  0  0  0  0  0  0  0  0  0
   -3.1220   -1.1455    1.1644 C   0  0  2  0  0  0  0  0  0  0  0  0
   -2.2017    0.0428    0.9187 C   0  0  0  0  0  0  0  0  0  0  0  0
   -2.6171    1.1750    0.6807 O   0  0  0  0  0  0  0  0  0  0  0  0
   -3.2533   -1.9992   -0.0873 C   0  0  0  0  0  0  0  0  0  0  0  0
   -4.4370    0.2910    2.0047 H   0  0  0  0  0  0  0  0  0  0  0  0
   -2.7302   -1.7467    1.9921 H   0  0  0  0  0  0  0  0  0  0  0  0
   -3.6446   -1.4140   -0.9275 H   0  0  0  0  0  0  0  0  0  0  0  0
   -2.2844   -2.4081   -0.3922 H   0  0  0  0  0  0  0  0  0  0  0  0
   -3.9388   -2.8365    0.0822 H   0  0  0  0  0  0  0  0  0  0  0  0
   -0.8768   -0.3314    0.9568 N   0  0  0  0  0  0  0  0  0  0  0  0
    0.2067    0.6285    0.7375 C   0  0  2  0  0  0  0  0  0  0  0  0
   -0.1425    1.8669    1.5574 C   0  0  0  0  0  0  0  0  0  0  0  0
    0.1831    3.0011    1.2124 O   0  0  0  0  0  0  0  0  0  0  0  0
    0.3170    0.9351   -0.7636 C   0  0  0  0  0  0  0  0  0  0  0  0
    0.7801   -0.2582   -1.5992 C   0  0  0  0  0  0  0  0  0  0  0  0
    0.8524    0.0759   -3.0683 C   0  0  0  0  0  0  0  0  0  0  0  0
    0.4569    1.1310   -3.5475 O   0  0  0  0  0  0  0  0  0  0  0  0
    1.3792   -0.9279   -3.8121 O   0  0  0  0  0  0  0  0  0  0  0  0
   -0.6087   -1.2764    1.1771 H   0  0  0  0  0  0  0  0  0  0  0  0
    1.1409    0.1834    1.0953 H   0  0  0  0  0  0  0  0  0  0  0  0
   -0.6592    1.2734   -1.1360 H   0  0  0  0  0  0  0  0  0  0  0  0
    1.0196    1.7622   -0.9301 H   0  0  0  0  0  0  0  0  0  0  0  0
    1.7902   -0.5545   -1.2910 H   0  0  0  0  0  0  0  0  0  0  0  0
    0.1530   -1.1408   -1.4358 H   0  0  0  0  0  0  0  0  0  0  0  0
    1.4269   -0.7582   -4.7769 H   0  0  0  0  0  0  0  0  0  0  0  0
   -0.8782    1.5593    2.6923 N   0  0  0  0  0  0  0  0  0  0  0  0
   -1.3343    2.5557    3.6346 C   0  0  2  0  0  0  0  0  0  0  0  0
   -0.3012    2.6566    4.7491 C   0  0  0  0  0  0  0  0  0  0  0  0
    0.4886    1.7531    5.0155 O   0  0  0  0  0  0  0  0  0  0  0  0
   -2.7039    2.2029    4.1934 C   0  0  0  0  0  0  0  0  0  0  0  0
   -1.1078    0.5861    2.8698 H   0  0  0  0  0  0  0  0  0  0  0  0
   -1.3811    3.5062    3.0921 H   0  0  0  0  0  0  0  0  0  0  0  0
   -2.6768    1.2534    4.7405 H   0  0  0  0  0  0  0  0  0  0  0  0
   -3.0605    2.9729    4.8854 H   0  0  0  0  0  0  0  0  0  0  0  0
   -3.4392    2.1014    3.3879 H   0  0  0  0  0  0  0  0  0  0  0  0
   -0.3936    3.8572    5.4392 N   0  0  0  0  0  0  0  0  0  0  0  0
    0.4695    4.1868    6.5493 C   0  0  0  0  0  0  0  0  0  0  0  0
   -1.0655    4.5566    5.1373 H   0  0  0  0  0  0  0  0  0  0  0  0
   -0.0110    3.8826    7.4909 H   0  0  0  0  0  0  0  0  0  0  0  0
    1.4273    3.6572    6.4388 H   0  0  0  0  0  0  0  0  0  0  0  0
    0.6500    5.2718    6.5638 H   0  0  0  0  0  0  0  0  0  0  0  0
  1  3  1  0  0  0  0
  1  7  1  0  0  0  0
  1  2  2  0  0  0  0
 34 35  1  0  0  0  0
 35 43  1  0  0  0  0
 35 36  2  0  0  0  0
  8  9  1  0  0  0  0
  9 17  1  0  0  0  0
  9 10  2  0  0  0  0
 18 19  1  0  0  0  0
 19 33  1  0  0  0  0
 19 20  2  0  0  0  0
 22 23  1  0  0  0  0
 23 24  2  0  0  0  0
 23 25  1  0  0  0  0
 34 37  1  0  0  0  0
  8 11  1  0  0  0  0
 43 44  1  0  0  0  0
 21 22  1  0  0  0  0
 18 21  1  0  0  0  0
 33 34  1  0  0  0  0
  7  8  1  0  0  0  0
 17 18  1  0  0  0  0
  3  4  1  0  0  0  0
  3  5  1  0  0  0  0
  3  6  1  0  0  0  0
 37 40  1  0  0  0  0
 37 41  1  0  0  0  0
 37 42  1  0  0  0  0
 11 14  1  0  0  0  0
 11 15  1  0  0  0  0
 11 16  1  0  0  0  0
 44 46  1  0  0  0  0
 44 47  1  0  0  0  0
 44 48  1  0  0  0  0
 22 30  1  0  0  0  0
 22 31  1  0  0  0  0
 21 28  1  0  0  0  0
 21 29  1  0  0  0  0
 34 39  1  0  0  0  0
  8 13  1  0  0  0  0
 18 27  1  0  0  0  0
 43 45  1  0  0  0  0
  7 12  1  0  0  0  0
 33 38  1  0  0  0  0
 17 26  1  0  0  0  0
 25 32  1  0  0  0  0
M  END
$$$$

  -OEChem-05262214473D

 48 47  0     1  0  0  0  0  0999 V2000
   -5.5827   -1.3473    1.4591 C   0  0  0  0  0  0  0  0  0  0  0  0
   -5.7053   -2.4696    0.9825 O   0  0  0  0  0  0  0  0  0  0  0  0
   -6.7879   -0.6277    1.9670 C   0  0  0  0  0  0  0  0  0  0  0  0
   -7.2718   -0.0164    1.1885 H   0  0  0  0  0  0  0  0  0  0  0  0
   -7.5699   -1.3171    2.3239 H   0  0  0  0  0  0  0  0  0  0  0  0
   -6.6057    0.0628    2.8060 H   0  0  0  0  0  0  0  0  0  0  0  0
   -4.4001   -0.6377    1.5884 N   0  0  0  0  0  0  0  0  0  0  0  0
   -3.1220   -1.1455    1.1644 C   0  0  2  0  0  0  0  0  0  0  0  0
   -2.2017    0.0428    0.9187 C   0  0  0  0  0  0  0  0  0  0  0  0
   -2.6171    1.1750    0.6807 O   0  0  0  0  0  0  0  0  0  0  0  0
   -3.2533   -1.9992   -0.0873 C   0  0  0  0  0  0  0  0  0  0  0  0
   -4.4370    0.2910    2.0047 H   0  0  0  0  0  0  0  0  0  0  0  0
   -2.7302   -1.7467    1.9921 H   0  0  0  0  0  0  0  0  0  0  0  0
   -3.6446   -1.4140   -0.9275 H   0  0  0  0  0  0  0  0  0  0  0  0
   -2.2844   -2.4081   -0.3922 H   0  0  0  0  0  0  0  0  0  0  0  0
   -3.9388   -2.8365    0.0822 H   0  0  0  0  0  0  0  0  0  0  0  0
   -0.8768   -0.3314    0.9568 N   0  0  0  0  0  0  0  0  0  0  0  0
    0.2067    0.6285    0.7375 C   0  0  2  0  0  0  0  0  0  0  0  0
   -0.1425    1.8669    1.5574 C   0  0  0  0  0  0  0  0  0  0  0  0
   -0.0634    3.0056    1.1007 O   0  0  0  0  0  0  0  0  0  0  0  0
    0.3170    0.9351   -0.7636 C   0  0  0  0  0  0  0  0  0  0  0  0
    0.7801   -0.2582   -1.5992 C   0  0  0  0  0  0  0  0  0  0  0  0
    0.8524    0.0759   -3.0683 C   0  0  0  0  0  0  0  0  0  0  0  0
    0.4569    1.1310   -3.5475 O   0  0  0  0  0  0  0  0  0  0  0  0
    1.3792   -0.9279   -3.8121 O   0  0  0  0  0  0  0  0  0  0  0  0
   -0.6087   -1.2764    1.1771 H   0  0  0  0  0  0  0  0  0  0  0  0
    1.1409    0.1834    1.0953 H   0  0  0  0  0  0  0  0  0  0  0  0
   -0.6592    1.2734   -1.1360 H   0  0  0  0  0  0  0  0  0  0  0  0
    1.0196    1.7622   -0.9301 H   0  0  0  0  0  0  0  0  0  0  0  0
    1.7902   -0.5545   -1.2910 H   0  0  0  0  0  0  0  0  0  0  0  0
    0.1530   -1.1408   -1.4358 H   0  0  0  0  0  0  0  0  0  0  0  0
    1.4269   -0.7582   -4.7769 H   0  0  0  0  0  0  0  0  0  0  0  0
   -0.5761    1.5493    2.8361 N   0  0  0  0  0  0  0  0  0  0  0  0
   -0.9683    2.5434    3.8091 C   0  0  2  0  0  0  0  0  0  0  0  0
    0.2462    2.8629    4.6707 C   0  0  0  0  0  0  0  0  0  0  0  0
    1.1967    2.0944    4.8016 O   0  0  0  0  0  0  0  0  0  0  0  0
   -2.1273    2.0542    4.6635 C   0  0  0  0  0  0  0  0  0  0  0  0
   -0.6201    0.5701    3.1016 H   0  0  0  0  0  0  0  0  0  0  0  0
   -1.2635    3.4364    3.2475 H   0  0  0  0  0  0  0  0  0  0  0  0
   -1.8504    1.1599    5.2336 H   0  0  0  0  0  0  0  0  0  0  0  0
   -2.4419    2.8193    5.3810 H   0  0  0  0  0  0  0  0  0  0  0  0
   -2.9900    1.7966    4.0395 H   0  0  0  0  0  0  0  0  0  0  0  0
    0.1243    4.0884    5.3106 N   0  0  0  0  0  0  0  0  0  0  0  0
    1.1402    4.6109    6.1943 C   0  0  0  0  0  0  0  0  0  0  0  0
   -0.6898    4.6681    5.1290 H   0  0  0  0  0  0  0  0  0  0  0  0
    0.9133    4.3163    7.2295 H   0  0  0  0  0  0  0  0  0  0  0  0
    2.1213    4.2064    5.9047 H   0  0  0  0  0  0  0  0  0  0  0  0
    1.1601    5.7084    6.1215 H   0  0  0  0  0  0  0  0  0  0  0  0
  1  3  1  0  0  0  0
  1  7  1  0  0  0  0
  1  2  2  0  0  0  0
 34 35  1  0  0  0  0
 35 43  1  0  0  0  0
 35 36  2  0  0  0  0
  8  9  1  0  0  0  0
  9 17  1  0  0  0  0
  9 10  2  0  0  0  0
 18 19  1  0  0  0  0
 19 33  1  0  0  0  0
 19 20  2  0  0  0  0
 22 23  1  0  0  0  0
 23 24  2  0  0  0  0
 23 25  1  0  0  0  0
 34 37  1  0  0  0  0
  8 11  1  0  0  0  0
 43 44  1  0  0  0  0
 21 22  1  0  0  0  0
 18 21  1  0  0  0  0
 33 34  1  0  0  0  0
  7  8  1  0  0  0  0
 17 18  1  0  0  0  0
  3  4  1  0  0  0  0
  3  5  1  0  0  0  0
  3  6  1  0  0  0  0
 37 40  1  0  0  0  0
 37 41  1  0  0  0  0
 37 42  1  0  0  0  0
 11 14  1  0  0  0  0
 11 15  1  0  0  0  0
 11 16  1  0  0  0  0
 44 46  1  0  0  0  0
 44 47  1  0  0  0  0
 44 48  1  0  0  0  0
 22 30  1  0  0  0  0
 22 31  1  0  0  0  0
 21 28  1  0  0  0  0
 21 29  1  0  0  0  0
 34 39  1  0  0  0  0
  8 13  1  0  0  0  0
 18 27  1  0  0  0  0
 43 45  1  0  0  0  0
  7 12  1  0  0  0  0
 33 38  1  0  0  0  0
 17 26  1  0  0  0  0
 25 32  1  0  0  0  0
M  END
$$$$

  -OEChem-05262214473D

 48 47  0     1  0  0  0  0  0999 V2000
   -5.5827   -1.3473    1.4591 C   0  0  0  0  0  0  0  0  0  0  0  0
   -5.7053   -2.4696    0.9825 O   0  0  0  0  0  0  0  0  0  0  0  0
   -6.7879   -0.6277    1.9670 C   0  0  0  0  0  0  0  0  0  0  0  0
   -7.2718   -0.0164    1.1885 H   0  0  0  0  0  0  0  0  0  0  0  0
   -7.5699   -1.3171    2.3239 H   0  0  0  0  0  0  0  0  0  0  0  0
   -6.6057    0.0628    2.8060 H   0  0  0  0  0  0  0  0  0  0  0  0
   -4.4001   -0.6377    1.5884 N   0  0  0  0  0  0  0  0  0  0  0  0
   -3.1220   -1.1455    1.1644 C   0  0  2  0  0  0  0  0  0  0  0  0
   -2.2017    0.0428    0.9187 C   0  0  0  0  0  0  0  0  0  0  0  0
   -2.6171    1.1750    0.6807 O   0  0  0  0  0  0  0  0  0  0  0  0
   -3.2533   -1.9992   -0.0873 C   0  0  0  0  0  0  0  0  0  0  0  0
   -4.4370    0.2910    2.0047 H   0  0  0  0  0  0  0  0  0  0  0  0
   -2.7302   -1.7467    1.9921 H   0  0  0  0  0  0  0  0  0  0  0  0
   -3.6446   -1.4140   -0.9275 H   0  0  0  0  0  0  0  0  0  0  0  0
   -2.2844   -2.4081   -0.3922 H   0  0  0  0  0  0  0  0  0  0  0  0
   -3.9388   -2.8365    0.0822 H   0  0  0  0  0  0  0  0  0  0  0  0
   -0.8768   -0.3314    0.9568 N   0  0  0  0  0  0  0  0  0  0  0  0
    0.2067    0.6285    0.7375 C   0  0  2  0  0  0  0  0  0  0  0  0
   -0.1425    1.8669    1.5574 C   0  0  0  0  0  0  0  0  0  0  0  0
   -0.3256    2.9690    1.0443 O   0  0  0  0  0  0  0  0  0  0  0  0
    0.3170    0.9351   -0.7636 C   0  0  0  0  0  0  0  0  0  0  0  0
    0.7801   -0.2582   -1.5992 C   0  0  0  0  0  0  0  0  0  0  0  0
    0.8524    0.0759   -3.0683 C   0  0  0  0  0  0  0  0  0  0  0  0
    0.4569    1.1310   -3.5475 O   0  0  0  0  0  0  0  0  0  0  0  0
    1.3792   -0.9279   -3.8121 O   0  0  0  0  0  0  0  0  0  0  0  0
   -0.6087   -1.2764    1.1771 H   0  0  0  0  0  0  0  0  0  0  0  0
    1.1409    0.1834    1.0953 H   0  0  0  0  0  0  0  0  0  0  0  0
   -0.6592    1.2734   -1.1360 H   0  0  0  0  0  0  0  0  0  0  0  0
    1.0196    1.7622   -0.9301 H   0  0  0  0  0  0  0  0  0  0  0  0
    1.7902   -0.5545   -1.2910 H   0  0  0  0  0  0  0  0  0  0  0  0
    0.1530   -1.1408   -1.4358 H   0  0  0  0  0  0  0  0  0  0  0  0
    1.4269   -0.7582   -4.7769 H   0  0  0  0  0  0  0  0  0  0  0  0
   -0.2526    1.5902    2.9121 N   0  0  0  0  0  0  0  0  0  0  0  0
   -0.5764    2.5927    3.9014 C   0  0  2  0  0  0  0  0  0  0  0  0
    0.7298    3.1336    4.4678 C   0  0  0  0  0  0  0  0  0  0  0  0
    1.7883    2.5100    4.4259 O   0  0  0  0  0  0  0  0  0  0  0  0
   -1.4510    2.0187    5.0052 C   0  0  0  0  0  0  0  0  0  0  0  0
   -0.0982    0.6362    3.2241 H   0  0  0  0  0  0  0  0  0  0  0  0
   -1.1076    3.3946    3.3771 H   0  0  0  0  0  0  0  0  0  0  0  0
   -0.9356    1.2138    5.5418 H   0  0  0  0  0  0  0  0  0  0  0  0
   -1.7189    2.7862    5.7387 H   0  0  0  0  0  0  0  0  0  0  0  0
   -2.3768    1.6034    4.5926 H   0  0  0  0  0  0  0  0  0  0  0  0
    0.5654    4.3761    5.0639 N   0  0  0  0  0  0  0  0  0  0  0  0
    1.6544    5.0929    5.6853 C   0  0  0  0  0  0  0  0  0  0  0  0
   -0.3441    4.8275    5.0354 H   0  0  0  0  0  0  0  0  0  0  0  0
    1.6908    4.8483    6.7571 H   0  0  0  0  0  0  0  0  0  0  0  0
    2.6030    4.8019    5.2105 H   0  0  0  0  0  0  0  0  0  0  0  0
    1.4991    6.1748    5.5614 H   0  0  0  0  0  0  0  0  0  0  0  0
  1  3  1  0  0  0  0
  1  7  1  0  0  0  0
  1  2  2  0  0  0  0
 34 35  1  0  0  0  0
 35 43  1  0  0  0  0
 35 36  2  0  0  0  0
  8  9  1  0  0  0  0
  9 17  1  0  0  0  0
  9 10  2  0  0  0  0
 18 19  1  0  0  0  0
 19 33  1  0  0  0  0
 19 20  2  0  0  0  0
 22 23  1  0  0  0  0
 23 24  2  0  0  0  0
 23 25  1  0  0  0  0
 34 37  1  0  0  0  0
  8 11  1  0  0  0  0
 43 44  1  0  0  0  0
 21 22  1  0  0  0  0
 18 21  1  0  0  0  0
 33 34  1  0  0  0  0
  7  8  1  0  0  0  0
 17 18  1  0  0  0  0
  3  4  1  0  0  0  0
  3  5  1  0  0  0  0
  3  6  1  0  0  0  0
 37 40  1  0  0  0  0
 37 41  1  0  0  0  0
 37 42  1  0  0  0  0
 11 14  1  0  0  0  0
 11 15  1  0  0  0  0
 11 16  1  0  0  0  0
 44 46  1  0  0  0  0
 44 47  1  0  0  0  0
 44 48  1  0  0  0  0
 22 30  1  0  0  0  0
 22 31  1  0  0  0  0
 21 28  1  0  0  0  0
 21 29  1  0  0  0  0
 34 39  1  0  0  0  0
  8 13  1  0  0  0  0
 18 27  1  0  0  0  0
 43 45  1  0  0  0  0
  7 12  1  0  0  0  0
 33 38  1  0  0  0  0
 17 26  1  0  0  0  0
 25 32  1  0  0  0  0
M  END
$$$$

  -OEChem-05262214473D

 48 47  0     1  0  0  0  0  0999 V2000
   -5.5827   -1.3473    1.4591 C   0  0  0  0  0  0  0  0  0  0  0  0
   -5.7053   -2.4696    0.9825 O   0  0  0  0  0  0  0  0  0  0  0  0
   -6.7879   -0.6277    1.9670 C   0  0  0  0  0  0  0  0  0  0  0  0
   -7.2718   -0.0164    1.1885 H   0  0  0  0  0  0  0  0  0  0  0  0
   -7.5699   -1.3171    2.3239 H   0  0  0  0  0  0  0  0  0  0  0  0
   -6.6057    0.0628    2.8060 H   0  0  0  0  0  0  0  0  0  0  0  0
   -4.4001   -0.6377    1.5884 N   0  0  0  0  0  0  0  0  0  0  0  0
   -3.1220   -1.1455    1.1644 C   0  0  2  0  0  0  0  0  0  0  0  0
   -2.2017    0.0428    0.9187 C   0  0  0  0  0  0  0  0  0  0  0  0
   -2.6171    1.1750    0.6807 O   0  0  0  0  0  0  0  0  0  0  0  0
   -3.2533   -1.9992   -0.0873 C   0  0  0  0  0  0  0  0  0  0  0  0
   -4.4370    0.2910    2.0047 H   0  0  0  0  0  0  0  0  0  0  0  0
   -2.7302   -1.7467    1.9921 H   0  0  0  0  0  0  0  0  0  0  0  0
   -3.6446   -1.4140   -0.9275 H   0  0  0  0  0  0  0  0  0  0  0  0
   -2.2844   -2.4081   -0.3922 H   0  0  0  0  0  0  0  0  0  0  0  0
   -3.9388   -2.8365    0.0822 H   0  0  0  0  0  0  0  0  0  0  0  0
   -0.8768   -0.3314    0.9568 N   0  0  0  0  0  0  0  0  0  0  0  0
    0.2067    0.6285    0.7375 C   0  0  2  0  0  0  0  0  0  0  0  0
   -0.1425    1.8669    1.5574 C   0  0  0  0  0  0  0  0  0  0  0  0
   -0.5856    2.8939    1.0470 O   0  0  0  0  0  0  0  0  0  0  0  0
    0.3170    0.9351   -0.7636 C   0  0  0  0  0  0  0  0  0  0  0  0
    0.7801   -0.2582   -1.5992 C   0  0  0  0  0  0  0  0  0  0  0  0
    0.8524    0.0759   -3.0683 C   0  0  0  0  0  0  0  0  0  0  0  0
    0.4569    1.1310   -3.5475 O   0  0  0  0  0  0  0  0  0  0  0  0
    1.3792   -0.9279   -3.8121 O   0  0  0  0  0  0  0  0  0  0  0  0
   -0.6087   -1.2764    1.1771 H   0  0  0  0  0  0  0  0  0  0  0  0
    1.1409    0.1834    1.0953 H   0  0  0  0  0  0  0  0  0  0  0  0
   -0.6592    1.2734   -1.1360 H   0  0  0  0  0  0  0  0  0  0  0  0
    1.0196    1.7622   -0.9301 H   0  0  0  0  0  0  0  0  0  0  0  0
    1.7902   -0.5545   -1.2910 H   0  0  0  0  0  0  0  0  0  0  0  0
    0.1530   -1.1408   -1.4358 H   0  0  0  0  0  0  0  0  0  0  0  0
    1.4269   -0.7582   -4.7769 H   0  0  0  0  0  0  0  0  0  0  0  0
    0.0701    1.6792    2.9151 N   0  0  0  0  0  0  0  0  0  0  0  0
   -0.1853    2.7004    3.9054 C   0  0  2  0  0  0  0  0  0  0  0  0
    1.1167    3.4503    4.1541 C   0  0  0  0  0  0  0  0  0  0  0  0
    2.2231    2.9714    3.9141 O   0  0  0  0  0  0  0  0  0  0  0  0
   -0.7209    2.0987    5.1953 C   0  0  0  0  0  0  0  0  0  0  0  0
    0.4225    0.7799    3.2288 H   0  0  0  0  0  0  0  0  0  0  0  0
   -0.9239    3.3835    3.4720 H   0  0  0  0  0  0  0  0  0  0  0  0
    0.0054    1.4113    5.6442 H   0  0  0  0  0  0  0  0  0  0  0  0
   -0.9408    2.8761    5.9344 H   0  0  0  0  0  0  0  0  0  0  0  0
   -1.6414    1.5347    5.0095 H   0  0  0  0  0  0  0  0  0  0  0  0
    0.8996    4.7007    4.7159 N   0  0  0  0  0  0  0  0  0  0  0  0
    1.9772    5.5998    5.0571 C   0  0  0  0  0  0  0  0  0  0  0  0
   -0.0520    5.0240    4.8630 H   0  0  0  0  0  0  0  0  0  0  0  0
    2.2686    5.4423    6.1060 H   0  0  0  0  0  0  0  0  0  0  0  0
    2.8397    5.4030    4.4035 H   0  0  0  0  0  0  0  0  0  0  0  0
    1.6440    6.6394    4.9215 H   0  0  0  0  0  0  0  0  0  0  0  0
  1  3  1  0  0  0  0
  1  7  1  0  0  0  0
  1  2  2  0  0  0  0
 34 35  1  0  0  0  0
 35 43  1  0  0  0  0
 35 36  2  0  0  0  0
  8  9  1  0  0  0  0
  9 17  1  0  0  0  0
  9 10  2  0  0  0  0
 18 19  1  0  0  0  0
 19 33  1  0  0  0  0
 19 20  2  0  0  0  0
 22 23  1  0  0  0  0
 23 24  2  0  0  0  0
 23 25  1  0  0  0  0
 34 37  1  0  0  0  0
  8 11  1  0  0  0  0
 43 44  1  0  0  0  0
 21 22  1  0  0  0  0
 18 21  1  0  0  0  0
 33 34  1  0  0  0  0
  7  8  1  0  0  0  0
 17 18  1  0  0  0  0
  3  4  1  0  0  0  0
  3  5  1  0  0  0  0
  3  6  1  0  0  0  0
 37 40  1  0  0  0  0
 37 41  1  0  0  0  0
 37 42  1  0  0  0  0
 11 14  1  0  0  0  0
 11 15  1  0  0  0  0
 11 16  1  0  0  0  0
 44 46  1  0  0  0  0
 44 47  1  0  0  0  0
 44 48  1  0  0  0  0
 22 30  1  0  0  0  0
 22 31  1  0  0  0  0
 21 28  1  0  0  0  0
 21 29  1  0  0  0  0
 34 39  1  0  0  0  0
  8 13  1  0  0  0  0
 18 27  1  0  0  0  0
 43 45  1  0  0  0  0
  7 12  1  0  0  0  0
 33 38  1  0  0  0  0
 17 26  1  0  0  0  0
 25 32  1  0  0  0  0
M  END
$$$$

  -OEChem-05262214473D

 48 47  0     1  0  0  0  0  0999 V2000
   -5.5827   -1.3473    1.4591 C   0  0  0  0  0  0  0  0  0  0  0  0
   -5.7053   -2.4696    0.9825 O   0  0  0  0  0  0  0  0  0  0  0  0
   -6.7879   -0.6277    1.9670 C   0  0  0  0  0  0  0  0  0  0  0  0
   -7.2718   -0.0164    1.1885 H   0  0  0  0  0  0  0  0  0  0  0  0
   -7.5699   -1.3171    2.3239 H   0  0  0  0  0  0  0  0  0  0  0  0
   -6.6057    0.0628    2.8060 H   0  0  0  0  0  0  0  0  0  0  0  0
   -4.4001   -0.6377    1.5884 N   0  0  0  0  0  0  0  0  0  0  0  0
   -3.1220   -1.1455    1.1644 C   0  0  2  0  0  0  0  0  0  0  0  0
   -2.2017    0.0428    0.9187 C   0  0  0  0  0  0  0  0  0  0  0  0
   -2.6171    1.1750    0.6807 O   0  0  0  0  0  0  0  0  0  0  0  0
   -3.2533   -1.9992   -0.0873 C   0  0  0  0  0  0  0  0  0  0  0  0
   -4.4370    0.2910    2.0047 H   0  0  0  0  0  0  0  0  0  0  0  0
   -2.7302   -1.7467    1.9921 H   0  0  0  0  0  0  0  0  0  0  0  0
   -3.6446   -1.4140   -0.9275 H   0  0  0  0  0  0  0  0  0  0  0  0
   -2.2844   -2.4081   -0.3922 H   0  0  0  0  0  0  0  0  0  0  0  0
   -3.9388   -2.8365    0.0822 H   0  0  0  0  0  0  0  0  0  0  0  0
   -0.8768   -0.3314    0.9568 N   0  0  0  0  0  0  0  0  0  0  0  0
    0.2067    0.6285    0.7375 C   0  0  2  0  0  0  0  0  0  0  0  0
   -0.1425    1.8669    1.5574 C   0  0  0  0  0  0  0  0  0  0  0  0
   -0.8257    2.7853    1.1088 O   0  0  0  0  0  0  0  0  0  0  0  0
    0.3170    0.9351   -0.7636 C   0  0  0  0  0  0  0  0  0  0  0  0
    0.7801   -0.2582   -1.5992 C   0  0  0  0  0  0  0  0  0  0  0  0
    0.8524    0.0759   -3.0683 C   0  0  0  0  0  0  0  0  0  0  0  0
    0.4569    1.1310   -3.5475 O   0  0  0  0  0  0  0  0  0  0  0  0
    1.3792   -0.9279   -3.8121 O   0  0  0  0  0  0  0  0  0  0  0  0
   -0.6087   -1.2764    1.1771 H   0  0  0  0  0  0  0  0  0  0  0  0
    1.1409    0.1834    1.0953 H   0  0  0  0  0  0  0  0  0  0  0  0
   -0.6592    1.2734   -1.1360 H   0  0  0  0  0  0  0  0  0  0  0  0
    1.0196    1.7622   -0.9301 H   0  0  0  0  0  0  0  0  0  0  0  0
    1.7902   -0.5545   -1.2910 H   0  0  0  0  0  0  0  0  0  0  0  0
    0.1530   -1.1408   -1.4358 H   0  0  0  0  0  0  0  0  0  0  0  0
    1.4269   -0.7582   -4.7769 H   0  0  0  0  0  0  0  0  0  0  0  0
    0.3700    1.8102    2.8450 N   0  0  0  0  0  0  0  0  0  0  0  0
    0.1783    2.8590    3.8207 C   0  0  2  0  0  0  0  0  0  0  0  0
    1.3804    3.7915    3.7511 C   0  0  0  0  0  0  0  0  0  0  0  0
    2.4713    3.4472    3.3011 O   0  0  0  0  0  0  0  0  0  0  0  0
    0.0130    2.2888    5.2208 C   0  0  0  0  0  0  0  0  0  0  0  0
    0.9065    0.9914    3.1155 H   0  0  0  0  0  0  0  0  0  0  0  0
   -0.7250    3.4040    3.5258 H   0  0  0  0  0  0  0  0  0  0  0  0
    0.9083    1.7391    5.5337 H   0  0  0  0  0  0  0  0  0  0  0  0
   -0.1606    3.0827    5.9546 H   0  0  0  0  0  0  0  0  0  0  0  0
   -0.8339    1.5954    5.2617 H   0  0  0  0  0  0  0  0  0  0  0  0
    1.1042    5.0402    4.2903 N   0  0  0  0  0  0  0  0  0  0  0  0
    2.0864    6.0972    4.3525 C   0  0  0  0  0  0  0  0  0  0  0  0
    0.1666    5.2443    4.6234 H   0  0  0  0  0  0  0  0  0  0  0  0
    2.6074    6.0578    5.3205 H   0  0  0  0  0  0  0  0  0  0  0  0
    2.8152    5.9687    3.5386 H   0  0  0  0  0  0  0  0  0  0  0  0
    1.5850    7.0703    4.2454 H   0  0  0  0  0  0  0  0  0  0  0  0
  1  3  1  0  0  0  0
  1  7  1  0  0  0  0
  1  2  2  0  0  0  0
 34 35  1  0  0  0  0
 35 43  1  0  0  0  0
 35 36  2  0  0  0  0
  8  9  1  0  0  0  0
  9 17  1  0  0  0  0
  9 10  2  0  0  0  0
 18 19  1  0  0  0  0
 19 33  1  0  0  0  0
 19 20  2  0  0  0  0
 22 23  1  0  0  0  0
 23 24  2  0  0  0  0
 23 25  1  0  0  0  0
 34 37  1  0  0  0  0
  8 11  1  0  0  0  0
 43 44  1  0  0  0  0
 21 22  1  0  0  0  0
 18 21  1  0  0  0  0
 33 34  1  0  0  0  0
  7  8  1  0  0  0  0
 17 18  1  0  0  0  0
  3  4  1  0  0  0  0
  3  5  1  0  0  0  0
  3  6  1  0  0  0  0
 37 40  1  0  0  0  0
 37 41  1  0  0  0  0
 37 42  1  0  0  0  0
 11 14  1  0  0  0  0
 11 15  1  0  0  0  0
 11 16  1  0  0  0  0
 44 46  1  0  0  0  0
 44 47  1  0  0  0  0
 44 48  1  0  0  0  0
 22 30  1  0  0  0  0
 22 31  1  0  0  0  0
 21 28  1  0  0  0  0
 21 29  1  0  0  0  0
 34 39  1  0  0  0  0
  8 13  1  0  0  0  0
 18 27  1  0  0  0  0
 43 45  1  0  0  0  0
  7 12  1  0  0  0  0
 33 38  1  0  0  0  0
 17 26  1  0  0  0  0
 25 32  1  0  0  0  0
M  END
$$$$

  -OEChem-05262214473D

 48 47  0     1  0  0  0  0  0999 V2000
   -5.5827   -1.3473    1.4591 C   0  0  0  0  0  0  0  0  0  0  0  0
   -5.7053   -2.4696    0.9825 O   0  0  0  0  0  0  0  0  0  0  0  0
   -6.7879   -0.6277    1.9670 C   0  0  0  0  0  0  0  0  0  0  0  0
   -7.2718   -0.0164    1.1885 H   0  0  0  0  0  0  0  0  0  0  0  0
   -7.5699   -1.3171    2.3239 H   0  0  0  0  0  0  0  0  0  0  0  0
   -6.6057    0.0628    2.8060 H   0  0  0  0  0  0  0  0  0  0  0  0
   -4.4001   -0.6377    1.5884 N   0  0  0  0  0  0  0  0  0  0  0  0
   -3.1220   -1.1455    1.1644 C   0  0  2  0  0  0  0  0  0  0  0  0
   -2.2017    0.0428    0.9187 C   0  0  0  0  0  0  0  0  0  0  0  0
   -2.6171    1.1750    0.6807 O   0  0  0  0  0  0  0  0  0  0  0  0
   -3.2533   -1.9992   -0.0873 C   0  0  0  0  0  0  0  0  0  0  0  0
   -4.4370    0.2910    2.0047 H   0  0  0  0  0  0  0  0  0  0  0  0
   -2.7302   -1.7467    1.9921 H   0  0  0  0  0  0  0  0  0  0  0  0
   -3.6446   -1.4140   -0.9275 H   0  0  0  0  0  0  0  0  0  0  0  0
   -2.2844   -2.4081   -0.3922 H   0  0  0  0  0  0  0  0  0  0  0  0
   -3.9388   -2.8365    0.0822 H   0  0  0  0  0  0  0  0  0  0  0  0
   -0.8768   -0.3314    0.9568 N   0  0  0  0  0  0  0  0  0  0  0  0
    0.2067    0.6285    0.7375 C   0  0  2  0  0  0  0  0  0  0  0  0
   -0.1425    1.8669    1.5574 C   0  0  0  0  0  0  0  0  0  0  0  0
   -1.0295    2.6507    1.2253 O   0  0  0  0  0  0  0  0  0  0  0  0
    0.3170    0.9351   -0.7636 C   0  0  0  0  0  0  0  0  0  0  0  0
    0.7801   -0.2582   -1.5992 C   0  0  0  0  0  0  0  0  0  0  0  0
    0.8524    0.0759   -3.0683 C   0  0  0  0  0  0  0  0  0  0  0  0
    0.4569    1.1310   -3.5475 O   0  0  0  0  0  0  0  0  0  0  0  0
    1.3792   -0.9279   -3.8121 O   0  0  0  0  0  0  0  0  0  0  0  0
   -0.6087   -1.2764    1.1771 H   0  0  0  0  0  0  0  0  0  0  0  0
    1.1409    0.1834    1.0953 H   0  0  0  0  0  0  0  0  0  0  0  0
   -0.6592    1.2734   -1.1360 H   0  0  0  0  0  0  0  0  0  0  0  0
    1.0196    1.7622   -0.9301 H   0  0  0  0  0  0  0  0  0  0  0  0
    1.7902   -0.5545   -1.2910 H   0  0  0  0  0  0  0  0  0  0  0  0
    0.1530   -1.1408   -1.4358 H   0  0  0  0  0  0  0  0  0  0  0  0
    1.4269   -0.7582   -4.7769 H   0  0  0  0  0  0  0  0  0  0  0  0
    0.6269    1.9743    2.7065 N   0  0  0  0  0  0  0  0  0  0  0  0
    0.4897    3.0577    3.6531 C   0  0  2  0  0  0  0  0  0  0  0  0
    1.5030    4.1339    3.2863 C   0  0  0  0  0  0  0  0  0  0  0  0
    2.5161    3.9050    2.6287 O   0  0  0  0  0  0  0  0  0  0  0  0
    0.7009    2.5759    5.0800 C   0  0  0  0  0  0  0  0  0  0  0  0
    1.3207    1.2562    2.8918 H   0  0  0  0  0  0  0  0  0  0  0  0
   -0.5244    3.4547    3.5347 H   0  0  0  0  0  0  0  0  0  0  0  0
    1.7116    2.1747    5.2178 H   0  0  0  0  0  0  0  0  0  0  0  0
    0.5685    3.3920    5.7980 H   0  0  0  0  0  0  0  0  0  0  0  0
   -0.0094    1.7812    5.3321 H   0  0  0  0  0  0  0  0  0  0  0  0
    1.1652    5.3713    3.8161 N   0  0  0  0  0  0  0  0  0  0  0  0
    1.9748    6.5510    3.6194 C   0  0  0  0  0  0  0  0  0  0  0  0
    0.2967    5.4732    4.3330 H   0  0  0  0  0  0  0  0  0  0  0  0
    2.6839    6.6530    4.4542 H   0  0  0  0  0  0  0  0  0  0  0  0
    2.5311    6.4604    2.6748 H   0  0  0  0  0  0  0  0  0  0  0  0
    1.3259    7.4383    3.5792 H   0  0  0  0  0  0  0  0  0  0  0  0
  1  3  1  0  0  0  0
  1  7  1  0  0  0  0
  1  2  2  0  0  0  0
 34 35  1  0  0  0  0
 35 43  1  0  0  0  0
 35 36  2  0  0  0  0
  8  9  1  0  0  0  0
  9 17  1  0  0  0  0
  9 10  2  0  0  0  0
 18 19  1  0  0  0  0
 19 33  1  0  0  0  0
 19 20  2  0  0  0  0
 22 23  1  0  0  0  0
 23 24  2  0  0  0  0
 23 25  1  0  0  0  0
 34 37  1  0  0  0  0
  8 11  1  0  0  0  0
 43 44  1  0  0  0  0
 21 22  1  0  0  0  0
 18 21  1  0  0  0  0
 33 34  1  0  0  0  0
  7  8  1  0  0  0  0
 17 18  1  0  0  0  0
  3  4  1  0  0  0  0
  3  5  1  0  0  0  0
  3  6  1  0  0  0  0
 37 40  1  0  0  0  0
 37 41  1  0  0  0  0
 37 42  1  0  0  0  0
 11 14  1  0  0  0  0
 11 15  1  0  0  0  0
 11 16  1  0  0  0  0
 44 46  1  0  0  0  0
 44 47  1  0  0  0  0
 44 48  1  0  0  0  0
 22 30  1  0  0  0  0
 22 31  1  0  0  0  0
 21 28  1  0  0  0  0
 21 29  1  0  0  0  0
 34 39  1  0  0  0  0
  8 13  1  0  0  0  0
 18 27  1  0  0  0  0
 43 45  1  0  0  0  0
  7 12  1  0  0  0  0
 33 38  1  0  0  0  0
 17 26  1  0  0  0  0
 25 32  1  0  0  0  0
M  END
$$$$

  -OEChem-05262214473D

 48 47  0     1  0  0  0  0  0999 V2000
   -5.5827   -1.3473    1.4591 C   0  0  0  0  0  0  0  0  0  0  0  0
   -5.7053   -2.4696    0.9825 O   0  0  0  0  0  0  0  0  0  0  0  0
   -6.7879   -0.6277    1.9670 C   0  0  0  0  0  0  0  0  0  0  0  0
   -7.2718   -0.0164    1.1885 H   0  0  0  0  0  0  0  0  0  0  0  0
   -7.5699   -1.3171    2.3239 H   0  0  0  0  0  0  0  0  0  0  0  0
   -6.6057    0.0628    2.8060 H   0  0  0  0  0  0  0  0  0  0  0  0
   -4.4001   -0.6377    1.5884 N   0  0  0  0  0  0  0  0  0  0  0  0
   -3.1220   -1.1455    1.1644 C   0  0  2  0  0  0  0  0  0  0  0  0
   -2.2017    0.0428    0.9187 C   0  0  0  0  0  0  0  0  0  0  0  0
   -2.6171    1.1750    0.6807 O   0  0  0  0  0  0  0  0  0  0  0  0
   -3.2533   -1.9992   -0.0873 C   0  0  0  0  0  0  0  0  0  0  0  0
   -4.4370    0.2910    2.0047 H   0  0  0  0  0  0  0  0  0  0  0  0
   -2.7302   -1.7467    1.9921 H   0  0  0  0  0  0  0  0  0  0  0  0
   -3.6446   -1.4140   -0.9275 H   0  0  0  0  0  0  0  0  0  0  0  0
   -2.2844   -2.4081   -0.3922 H   0  0  0  0  0  0  0  0  0  0  0  0
   -3.9388   -2.8365    0.0822 H   0  0  0  0  0  0  0  0  0  0  0  0
   -0.8768   -0.3314    0.9568 N   0  0  0  0  0  0  0  0  0  0  0  0
    0.2067    0.6285    0.7375 C   0  0  2  0  0  0  0  0  0  0  0  0
   -0.1425    1.8669    1.5574 C   0  0  0  0  0  0  0  0  0  0  0  0
   -1.1832    2.4992    1.3886 O   0  0  0  0  0  0  0  0  0  0  0  0
    0.3170    0.9351   -0.7636 C   0  0  0  0  0  0  0  0  0  0  0  0
    0.7801   -0.2582   -1.5992 C   0  0  0  0  0  0  0  0  0  0  0  0
    0.8524    0.0759   -3.0683 C   0  0  0  0  0  0  0  0  0  0  0  0
    0.4569    1.1310   -3.5475 O   0  0  0  0  0  0  0  0  0  0  0  0
    1.3792   -0.9279   -3.8121 O   0  0  0  0  0  0  0  0  0  0  0  0
   -0.6087   -1.2764    1.1771 H   0  0  0  0  0  0  0  0  0  0  0  0
    1.1409    0.1834    1.0953 H   0  0  0  0  0  0  0  0  0  0  0  0
   -0.6592    1.2734   -1.1360 H   0  0  0  0  0  0  0  0  0  0  0  0
    1.0196    1.7622   -0.9301 H   0  0  0  0  0  0  0  0  0  0  0  0
    1.7902   -0.5545   -1.2910 H   0  0  0  0  0  0  0  0  0  0  0  0
    0.1530   -1.1408   -1.4358 H   0  0  0  0  0  0  0  0  0  0  0  0
    1.4269   -0.7582   -4.7769 H   0  0  0  0  0  0  0  0  0  0  0  0
    0.8230    2.1603    2.5090 N   0  0  0  0  0  0  0  0  0  0  0  0
    0.7276    3.2831    3.4140 C   0  0  2  0  0  0  0  0  0  0  0  0
    1.4762    4.4541    2.7912 C   0  0  0  0  0  0  0  0  0  0  0  0
    2.3545    4.3137    1.9426 O   0  0  0  0  0  0  0  0  0  0  0  0
    1.2958    2.9407    4.7824 C   0  0  0  0  0  0  0  0  0  0  0  0
    1.6370    1.5565    2.5730 H   0  0  0  0  0  0  0  0  0  0  0  0
   -0.3359    3.5320    3.4981 H   0  0  0  0  0  0  0  0  0  0  0  0
    2.3606    2.6885    4.7182 H   0  0  0  0  0  0  0  0  0  0  0  0
    1.1969    3.7829    5.4752 H   0  0  0  0  0  0  0  0  0  0  0  0
    0.7759    2.0796    5.2159 H   0  0  0  0  0  0  0  0  0  0  0  0
    1.0784    5.6715    3.3257 N   0  0  0  0  0  0  0  0  0  0  0  0
    1.6498    6.9304    2.9080 C   0  0  0  0  0  0  0  0  0  0  0  0
    0.3296    5.6953    4.0116 H   0  0  0  0  0  0  0  0  0  0  0  0
    2.4931    7.1873    3.5660 H   0  0  0  0  0  0  0  0  0  0  0  0
    2.0069    6.8448    1.8711 H   0  0  0  0  0  0  0  0  0  0  0  0
    0.8846    7.7183    2.9684 H   0  0  0  0  0  0  0  0  0  0  0  0
  1  3  1  0  0  0  0
  1  7  1  0  0  0  0
  1  2  2  0  0  0  0
 34 35  1  0  0  0  0
 35 43  1  0  0  0  0
 35 36  2  0  0  0  0
  8  9  1  0  0  0  0
  9 17  1  0  0  0  0
  9 10  2  0  0  0  0
 18 19  1  0  0  0  0
 19 33  1  0  0  0  0
 19 20  2  0  0  0  0
 22 23  1  0  0  0  0
 23 24  2  0  0  0  0
 23 25  1  0  0  0  0
 34 37  1  0  0  0  0
  8 11  1  0  0  0  0
 43 44  1  0  0  0  0
 21 22  1  0  0  0  0
 18 21  1  0  0  0  0
 33 34  1  0  0  0  0
  7  8  1  0  0  0  0
 17 18  1  0  0  0  0
  3  4  1  0  0  0  0
  3  5  1  0  0  0  0
  3  6  1  0  0  0  0
 37 40  1  0  0  0  0
 37 41  1  0  0  0  0
 37 42  1  0  0  0  0
 11 14  1  0  0  0  0
 11 15  1  0  0  0  0
 11 16  1  0  0  0  0
 44 46  1  0  0  0  0
 44 47  1  0  0  0  0
 44 48  1  0  0  0  0
 22 30  1  0  0  0  0
 22 31  1  0  0  0  0
 21 28  1  0  0  0  0
 21 29  1  0  0  0  0
 34 39  1  0  0  0  0
  8 13  1  0  0  0  0
 18 27  1  0  0  0  0
 43 45  1  0  0  0  0
  7 12  1  0  0  0  0
 33 38  1  0  0  0  0
 17 26  1  0  0  0  0
 25 32  1  0  0  0  0
M  END
$$$$

  -OEChem-05262214473D

 48 47  0     1  0  0  0  0  0999 V2000
   -5.5827   -1.3473    1.4591 C   0  0  0  0  0  0  0  0  0  0  0  0
   -5.7053   -2.4696    0.9825 O   0  0  0  0  0  0  0  0  0  0  0  0
   -6.7879   -0.6277    1.9670 C   0  0  0  0  0  0  0  0  0  0  0  0
   -7.2718   -0.0164    1.1885 H   0  0  0  0  0  0  0  0  0  0  0  0
   -7.5699   -1.3171    2.3239 H   0  0  0  0  0  0  0  0  0  0  0  0
   -6.6057    0.0628    2.8060 H   0  0  0  0  0  0  0  0  0  0  0  0
   -4.4001   -0.6377    1.5884 N   0  0  0  0  0  0  0  0  0  0  0  0
   -3.1220   -1.1455    1.1644 C   0  0  2  0  0  0  0  0  0  0  0  0
   -2.2017    0.0428    0.9187 C   0  0  0  0  0  0  0  0  0  0  0  0
   -2.6171    1.1750    0.6807 O   0  0  0  0  0  0  0  0  0  0  0  0
   -3.2533   -1.9992   -0.0873 C   0  0  0  0  0  0  0  0  0  0  0  0
   -4.4370    0.2910    2.0047 H   0  0  0  0  0  0  0  0  0  0  0  0
   -2.7302   -1.7467    1.9921 H   0  0  0  0  0  0  0  0  0  0  0  0
   -3.6446   -1.4140   -0.9275 H   0  0  0  0  0  0  0  0  0  0  0  0
   -2.2844   -2.4081   -0.3922 H   0  0  0  0  0  0  0  0  0  0  0  0
   -3.9388   -2.8365    0.0822 H   0  0  0  0  0  0  0  0  0  0  0  0
   -0.8768   -0.3314    0.9568 N   0  0  0  0  0  0  0  0  0  0  0  0
    0.2067    0.6285    0.7375 C   0  0  2  0  0  0  0  0  0  0  0  0
   -0.1425    1.8669    1.5574 C   0  0  0  0  0  0  0  0  0  0  0  0
   -1.2763    2.3412    1.5877 O   0  0  0  0  0  0  0  0  0  0  0  0
    0.3170    0.9351   -0.7636 C   0  0  0  0  0  0  0  0  0  0  0  0
    0.7801   -0.2582   -1.5992 C   0  0  0  0  0  0  0  0  0  0  0  0
    0.8524    0.0759   -3.0683 C   0  0  0  0  0  0  0  0  0  0  0  0
    0.4569    1.1310   -3.5475 O   0  0  0  0  0  0  0  0  0  0  0  0
    1.3792   -0.9279   -3.8121 O   0  0  0  0  0  0  0  0  0  0  0  0
   -0.6087   -1.2764    1.1771 H   0  0  0  0  0  0  0  0  0  0  0  0
    1.1409    0.1834    1.0953 H   0  0  0  0  0  0  0  0  0  0  0  0
   -0.6592    1.2734   -1.1360 H   0  0  0  0  0  0  0  0  0  0  0  0
    1.0196    1.7622   -0.9301 H   0  0  0  0  0  0  0  0  0  0  0  0
    1.7902   -0.5545   -1.2910 H   0  0  0  0  0  0  0  0  0  0  0  0
    0.1530   -1.1408   -1.4358 H   0  0  0  0  0  0  0  0  0  0  0  0
    1.4269   -0.7582   -4.7769 H   0  0  0  0  0  0  0  0  0  0  0  0
    0.9451    2.3556    2.2661 N   0  0  0  0  0  0  0  0  0  0  0  0
    0.8758    3.5197    3.1197 C   0  0  2  0  0  0  0  0  0  0  0  0
    1.3018    4.7303    2.2996 C   0  0  0  0  0  0  0  0  0  0  0  0
    1.9974    4.6453    1.2897 O   0  0  0  0  0  0  0  0  0  0  0  0
    1.7572    3.3581    4.3484 C   0  0  0  0  0  0  0  0  0  0  0  0
    1.8338    1.8716    2.1809 H   0  0  0  0  0  0  0  0  0  0  0  0
   -0.1722    3.6308    3.4187 H   0  0  0  0  0  0  0  0  0  0  0  0
    2.8111    3.2455    4.0688 H   0  0  0  0  0  0  0  0  0  0  0  0
    1.6816    4.2287    5.0082 H   0  0  0  0  0  0  0  0  0  0  0  0
    1.4686    2.4701    4.9211 H   0  0  0  0  0  0  0  0  0  0  0  0
    0.8498    5.9204    2.8525 N   0  0  0  0  0  0  0  0  0  0  0  0
    1.1337    7.2096    2.2665 C   0  0  0  0  0  0  0  0  0  0  0  0
    0.2629    5.8953    3.6811 H   0  0  0  0  0  0  0  0  0  0  0  0
    2.0479    7.6241    2.7165 H   0  0  0  0  0  0  0  0  0  0  0  0
    1.2782    7.0955    1.1820 H   0  0  0  0  0  0  0  0  0  0  0  0
    0.2911    7.8912    2.4544 H   0  0  0  0  0  0  0  0  0  0  0  0
  1  3  1  0  0  0  0
  1  7  1  0  0  0  0
  1  2  2  0  0  0  0
 34 35  1  0  0  0  0
 35 43  1  0  0  0  0
 35 36  2  0  0  0  0
  8  9  1  0  0  0  0
  9 17  1  0  0  0  0
  9 10  2  0  0  0  0
 18 19  1  0  0  0  0
 19 33  1  0  0  0  0
 19 20  2  0  0  0  0
 22 23  1  0  0  0  0
 23 24  2  0  0  0  0
 23 25  1  0  0  0  0
 34 37  1  0  0  0  0
  8 11  1  0  0  0  0
 43 44  1  0  0  0  0
 21 22  1  0  0  0  0
 18 21  1  0  0  0  0
 33 34  1  0  0  0  0
  7  8  1  0  0  0  0
 17 18  1  0  0  0  0
  3  4  1  0  0  0  0
  3  5  1  0  0  0  0
  3  6  1  0  0  0  0
 37 40  1  0  0  0  0
 37 41  1  0  0  0  0
 37 42  1  0  0  0  0
 11 14  1  0  0  0  0
 11 15  1  0  0  0  0
 11 16  1  0  0  0  0
 44 46  1  0  0  0  0
 44 47  1  0  0  0  0
 44 48  1  0  0  0  0
 22 30  1  0  0  0  0
 22 31  1  0  0  0  0
 21 28  1  0  0  0  0
 21 29  1  0  0  0  0
 34 39  1  0  0  0  0
  8 13  1  0  0  0  0
 18 27  1  0  0  0  0
 43 45  1  0  0  0  0
  7 12  1  0  0  0  0
 33 38  1  0  0  0  0
 17 26  1  0  0  0  0
 25 32  1  0  0  0  0
M  END
$$$$

  -OEChem-05262214473D

 48 47  0     1  0  0  0  0  0999 V2000
   -5.5827   -1.3473    1.4591 C   0  0  0  0  0  0  0  0  0  0  0  0
   -5.7053   -2.4696    0.9825 O   0  0  0  0  0  0  0  0  0  0  0  0
   -6.7879   -0.6277    1.9670 C   0  0  0  0  0  0  0  0  0  0  0  0
   -7.2718   -0.0164    1.1885 H   0  0  0  0  0  0  0  0  0  0  0  0
   -7.5699   -1.3171    2.3239 H   0  0  0  0  0  0  0  0  0  0  0  0
   -6.6057    0.0628    2.8060 H   0  0  0  0  0  0  0  0  0  0  0  0
   -4.4001   -0.6377    1.5884 N   0  0  0  0  0  0  0  0  0  0  0  0
   -3.1220   -1.1455    1.1644 C   0  0  2  0  0  0  0  0  0  0  0  0
   -2.2017    0.0428    0.9187 C   0  0  0  0  0  0  0  0  0  0  0  0
   -2.6171    1.1750    0.6807 O   0  0  0  0  0  0  0  0  0  0  0  0
   -3.2533   -1.9992   -0.0873 C   0  0  0  0  0  0  0  0  0  0  0  0
   -4.4370    0.2910    2.0047 H   0  0  0  0  0  0  0  0  0  0  0  0
   -2.7302   -1.7467    1.9921 H   0  0  0  0  0  0  0  0  0  0  0  0
   -3.6446   -1.4140   -0.9275 H   0  0  0  0  0  0  0  0  0  0  0  0
   -2.2844   -2.4081   -0.3922 H   0  0  0  0  0  0  0  0  0  0  0  0
   -3.9388   -2.8365    0.0822 H   0  0  0  0  0  0  0  0  0  0  0  0
   -0.8768   -0.3314    0.9568 N   0  0  0  0  0  0  0  0  0  0  0  0
    0.2067    0.6285    0.7375 C   0  0  2  0  0  0  0  0  0  0  0  0
   -0.1425    1.8669    1.5574 C   0  0  0  0  0  0  0  0  0  0  0  0
   -1.3025    2.1874    1.8088 O   0  0  0  0  0  0  0  0  0  0  0  0
    0.3170    0.9351   -0.7636 C   0  0  0  0  0  0  0  0  0  0  0  0
    0.7801   -0.2582   -1.5992 C   0  0  0  0  0  0  0  0  0  0  0  0
    0.8524    0.0759   -3.0683 C   0  0  0  0  0  0  0  0  0  0  0  0
    0.4569    1.1310   -3.5475 O   0  0  0  0  0  0  0  0  0  0  0  0
    1.3792   -0.9279   -3.8121 O   0  0  0  0  0  0  0  0  0  0  0  0
   -0.6087   -1.2764    1.1771 H   0  0  0  0  0  0  0  0  0  0  0  0
    1.1409    0.1834    1.0953 H   0  0  0  0  0  0  0  0  0  0  0  0
   -0.6592    1.2734   -1.1360 H   0  0  0  0  0  0  0  0  0  0  0  0
    1.0196    1.7622   -0.9301 H   0  0  0  0  0  0  0  0  0  0  0  0
    1.7902   -0.5545   -1.2910 H   0  0  0  0  0  0  0  0  0  0  0  0
    0.1530   -1.1408   -1.4358 H   0  0  0  0  0  0  0  0  0  0  0  0
    1.4269   -0.7582   -4.7769 H   0  0  0  0  0  0  0  0  0  0  0  0
    0.9848    2.5468    1.9942 N   0  0  0  0  0  0  0  0  0  0  0  0
    0.9242    3.7515    2.7903 C   0  0  2  0  0  0  0  0  0  0  0  0
    0.9916    4.9438    1.8451 C   0  0  0  0  0  0  0  0  0  0  0  0
    1.4691    4.8772    0.7144 O   0  0  0  0  0  0  0  0  0  0  0  0
    2.0537    3.7998    3.8076 C   0  0  0  0  0  0  0  0  0  0  0  0
    1.8977    2.1801    1.7421 H   0  0  0  0  0  0  0  0  0  0  0  0
   -0.0445    3.7443    3.3016 H   0  0  0  0  0  0  0  0  0  0  0  0
    3.0323    3.8076    3.3139 H   0  0  0  0  0  0  0  0  0  0  0  0
    1.9898    4.6991    4.4290 H   0  0  0  0  0  0  0  0  0  0  0  0
    2.0214    2.9262    4.4676 H   0  0  0  0  0  0  0  0  0  0  0  0
    0.4949    6.1010    2.4286 N   0  0  0  0  0  0  0  0  0  0  0  0
    0.4616    7.3695    1.7388 C   0  0  0  0  0  0  0  0  0  0  0  0
    0.1013    6.0596    3.3640 H   0  0  0  0  0  0  0  0  0  0  0  0
    1.3786    7.9339    1.9636 H   0  0  0  0  0  0  0  0  0  0  0  0
    0.3947    7.1955    0.6547 H   0  0  0  0  0  0  0  0  0  0  0  0
   -0.4143    7.9452    2.0725 H   0  0  0  0  0  0  0  0  0  0  0  0
  1  3  1  0  0  0  0
  1  7  1  0  0  0  0
  1  2  2  0  0  0  0
 34 35  1  0  0  0  0
 35 43  1  0  0  0  0
 35 36  2  0  0  0  0
  8  9  1  0  0  0  0
  9 17  1  0  0  0  0
  9 10  2  0  0  0  0
 18 19  1  0  0  0  0
 19 33  1  0  0  0  0
 19 20  2  0  0  0  0
 22 23  1  0  0  0  0
 23 24  2  0  0  0  0
 23 25  1  0  0  0  0
 34 37  1  0  0  0  0
  8 11  1  0  0  0  0
 43 44  1  0  0  0  0
 21 22  1  0  0  0  0
 18 21  1  0  0  0  0
 33 34  1  0  0  0  0
  7  8  1  0  0  0  0
 17 18  1  0  0  0  0
  3  4  1  0  0  0  0
  3  5  1  0  0  0  0
  3  6  1  0  0  0  0
 37 40  1  0  0  0  0
 37 41  1  0  0  0  0
 37 42  1  0  0  0  0
 11 14  1  0  0  0  0
 11 15  1  0  0  0  0
 11 16  1  0  0  0  0
 44 46  1  0  0  0  0
 44 47  1  0  0  0  0
 44 48  1  0  0  0  0
 22 30  1  0  0  0  0
 22 31  1  0  0  0  0
 21 28  1  0  0  0  0
 21 29  1  0  0  0  0
 34 39  1  0  0  0  0
  8 13  1  0  0  0  0
 18 27  1  0  0  0  0
 43 45  1  0  0  0  0
  7 12  1  0  0  0  0
 33 38  1  0  0  0  0
 17 26  1  0  0  0  0
 25 32  1  0  0  0  0
M  END
$$$$

  -OEChem-05262214473D

 48 47  0     1  0  0  0  0  0999 V2000
   -5.5827   -1.3473    1.4591 C   0  0  0  0  0  0  0  0  0  0  0  0
   -5.7053   -2.4696    0.9825 O   0  0  0  0  0  0  0  0  0  0  0  0
   -6.7879   -0.6277    1.9670 C   0  0  0  0  0  0  0  0  0  0  0  0
   -7.2718   -0.0164    1.1885 H   0  0  0  0  0  0  0  0  0  0  0  0
   -7.5699   -1.3171    2.3239 H   0  0  0  0  0  0  0  0  0  0  0  0
   -6.6057    0.0628    2.8060 H   0  0  0  0  0  0  0  0  0  0  0  0
   -4.4001   -0.6377    1.5884 N   0  0  0  0  0  0  0  0  0  0  0  0
   -3.1220   -1.1455    1.1644 C   0  0  2  0  0  0  0  0  0  0  0  0
   -2.2017    0.0428    0.9187 C   0  0  0  0  0  0  0  0  0  0  0  0
   -2.6171    1.1750    0.6807 O   0  0  0  0  0  0  0  0  0  0  0  0
   -3.2533   -1.9992   -0.0873 C   0  0  0  0  0  0  0  0  0  0  0  0
   -4.4370    0.2910    2.0047 H   0  0  0  0  0  0  0  0  0  0  0  0
   -2.7302   -1.7467    1.9921 H   0  0  0  0  0  0  0  0  0  0  0  0
   -3.6446   -1.4140   -0.9275 H   0  0  0  0  0  0  0  0  0  0  0  0
   -2.2844   -2.4081   -0.3922 H   0  0  0  0  0  0  0  0  0  0  0  0
   -3.9388   -2.8365    0.0822 H   0  0  0  0  0  0  0  0  0  0  0  0
   -0.8768   -0.3314    0.9568 N   0  0  0  0  0  0  0  0  0  0  0  0
    0.2067    0.6285    0.7375 C   0  0  2  0  0  0  0  0  0  0  0  0
   -0.1425    1.8669    1.5574 C   0  0  0  0  0  0  0  0  0  0  0  0
   -1.2598    2.0483    2.0371 O   0  0  0  0  0  0  0  0  0  0  0  0
    0.3170    0.9351   -0.7636 C   0  0  0  0  0  0  0  0  0  0  0  0
    0.7801   -0.2582   -1.5992 C   0  0  0  0  0  0  0  0  0  0  0  0
    0.8524    0.0759   -3.0683 C   0  0  0  0  0  0  0  0  0  0  0  0
    0.4569    1.1310   -3.5475 O   0  0  0  0  0  0  0  0  0  0  0  0
    1.3792   -0.9279   -3.8121 O   0  0  0  0  0  0  0  0  0  0  0  0
   -0.6087   -1.2764    1.1771 H   0  0  0  0  0  0  0  0  0  0  0  0
    1.1409    0.1834    1.0953 H   0  0  0  0  0  0  0  0  0  0  0  0
   -0.6592    1.2734   -1.1360 H   0  0  0  0  0  0  0  0  0  0  0  0
    1.0196    1.7622   -0.9301 H   0  0  0  0  0  0  0  0  0  0  0  0
    1.7902   -0.5545   -1.2910 H   0  0  0  0  0  0  0  0  0  0  0  0
    0.1530   -1.1408   -1.4358 H   0  0  0  0  0  0  0  0  0  0  0  0
    1.4269   -0.7582   -4.7769 H   0  0  0  0  0  0  0  0  0  0  0  0
    0.9395    2.7209    1.7119 N   0  0  0  0  0  0  0  0  0  0  0  0
    0.8696    3.9625    2.4483 C   0  0  2  0  0  0  0  0  0  0  0  0
    0.5668    5.0799    1.4587 C   0  0  0  0  0  0  0  0  0  0  0  0
    0.8058    4.9937    0.2559 O   0  0  0  0  0  0  0  0  0  0  0  0
    2.1650    4.2356    3.1967 C   0  0  0  0  0  0  0  0  0  0  0  0
    1.8243    2.4610    1.2866 H   0  0  0  0  0  0  0  0  0  0  0  0
    0.0384    3.8647    3.1551 H   0  0  0  0  0  0  0  0  0  0  0  0
    3.0092    4.3367    2.5050 H   0  0  0  0  0  0  0  0  0  0  0  0
    2.1003    5.1620    3.7768 H   0  0  0  0  0  0  0  0  0  0  0  0
    2.3966    3.4168    3.8864 H   0  0  0  0  0  0  0  0  0  0  0  0
    0.0380    6.2009    2.0830 N   0  0  0  0  0  0  0  0  0  0  0  0
   -0.3207    7.3991    1.3608 C   0  0  0  0  0  0  0  0  0  0  0  0
   -0.1443    6.1771    3.0820 H   0  0  0  0  0  0  0  0  0  0  0  0
    0.5309    8.0954    1.3586 H   0  0  0  0  0  0  0  0  0  0  0  0
   -0.5833    7.1380    0.3250 H   0  0  0  0  0  0  0  0  0  0  0  0
   -1.1833    7.8766    1.8486 H   0  0  0  0  0  0  0  0  0  0  0  0
  1  3  1  0  0  0  0
  1  7  1  0  0  0  0
  1  2  2  0  0  0  0
 34 35  1  0  0  0  0
 35 43  1  0  0  0  0
 35 36  2  0  0  0  0
  8  9  1  0  0  0  0
  9 17  1  0  0  0  0
  9 10  2  0  0  0  0
 18 19  1  0  0  0  0
 19 33  1  0  0  0  0
 19 20  2  0  0  0  0
 22 23  1  0  0  0  0
 23 24  2  0  0  0  0
 23 25  1  0  0  0  0
 34 37  1  0  0  0  0
  8 11  1  0  0  0  0
 43 44  1  0  0  0  0
 21 22  1  0  0  0  0
 18 21  1  0  0  0  0
 33 34  1  0  0  0  0
  7  8  1  0  0  0  0
 17 18  1  0  0  0  0
  3  4  1  0  0  0  0
  3  5  1  0  0  0  0
  3  6  1  0  0  0  0
 37 40  1  0  0  0  0
 37 41  1  0  0  0  0
 37 42  1  0  0  0  0
 11 14  1  0  0  0  0
 11 15  1  0  0  0  0
 11 16  1  0  0  0  0
 44 46  1  0  0  0  0
 44 47  1  0  0  0  0
 44 48  1  0  0  0  0
 22 30  1  0  0  0  0
 22 31  1  0  0  0  0
 21 28  1  0  0  0  0
 21 29  1  0  0  0  0
 34 39  1  0  0  0  0
  8 13  1  0  0  0  0
 18 27  1  0  0  0  0
 43 45  1  0  0  0  0
  7 12  1  0  0  0  0
 33 38  1  0  0  0  0
 17 26  1  0  0  0  0
 25 32  1  0  0  0  0
M  END
$$$$

  -OEChem-05262214473D

 48 47  0     1  0  0  0  0  0999 V2000
   -5.5827   -1.3473    1.4591 C   0  0  0  0  0  0  0  0  0  0  0  0
   -5.7053   -2.4696    0.9825 O   0  0  0  0  0  0  0  0  0  0  0  0
   -6.7879   -0.6277    1.9670 C   0  0  0  0  0  0  0  0  0  0  0  0
   -7.2718   -0.0164    1.1885 H   0  0  0  0  0  0  0  0  0  0  0  0
   -7.5699   -1.3171    2.3239 H   0  0  0  0  0  0  0  0  0  0  0  0
   -6.6057    0.0628    2.8060 H   0  0  0  0  0  0  0  0  0  0  0  0
   -4.4001   -0.6377    1.5884 N   0  0  0  0  0  0  0  0  0  0  0  0
   -3.1220   -1.1455    1.1644 C   0  0  2  0  0  0  0  0  0  0  0  0
   -2.2017    0.0428    0.9187 C   0  0  0  0  0  0  0  0  0  0  0  0
   -2.6171    1.1750    0.6807 O   0  0  0  0  0  0  0  0  0  0  0  0
   -3.2533   -1.9992   -0.0873 C   0  0  0  0  0  0  0  0  0  0  0  0
   -4.4370    0.2910    2.0047 H   0  0  0  0  0  0  0  0  0  0  0  0
   -2.7302   -1.7467    1.9921 H   0  0  0  0  0  0  0  0  0  0  0  0
   -3.6446   -1.4140   -0.9275 H   0  0  0  0  0  0  0  0  0  0  0  0
   -2.2844   -2.4081   -0.3922 H   0  0  0  0  0  0  0  0  0  0  0  0
   -3.9388   -2.8365    0.0822 H   0  0  0  0  0  0  0  0  0  0  0  0
   -0.8768   -0.3314    0.9568 N   0  0  0  0  0  0  0  0  0  0  0  0
    0.2067    0.6285    0.7375 C   0  0  2  0  0  0  0  0  0  0  0  0
    0.0674    1.6908    1.8237 C   0  0  0  0  0  0  0  0  0  0  0  0
   -0.8062    1.6422    2.6873 O   0  0  0  0  0  0  0  0  0  0  0  0
    0.0832    1.2192   -0.6750 C   0  0  0  0  0  0  0  0  0  0  0  0
    0.3345    0.2017   -1.7877 C   0  0  0  0  0  0  0  0  0  0  0  0
    0.1804    0.8139   -3.1576 C   0  0  0  0  0  0  0  0  0  0  0  0
   -0.2302    1.9507   -3.3537 O   0  0  0  0  0  0  0  0  0  0  0  0
    0.5201   -0.0371   -4.1569 O   0  0  0  0  0  0  0  0  0  0  0  0
   -0.6087   -1.2764    1.1771 H   0  0  0  0  0  0  0  0  0  0  0  0
    1.1612    0.1016    0.8376 H   0  0  0  0  0  0  0  0  0  0  0  0
   -0.9210    1.6453   -0.8020 H   0  0  0  0  0  0  0  0  0  0  0  0
    0.7931    2.0471   -0.8023 H   0  0  0  0  0  0  0  0  0  0  0  0
    1.3638   -0.1715   -1.7208 H   0  0  0  0  0  0  0  0  0  0  0  0
   -0.3046   -0.6817   -1.6871 H   0  0  0  0  0  0  0  0  0  0  0  0
    0.4164    0.3163   -5.0659 H   0  0  0  0  0  0  0  0  0  0  0  0
    1.0428    2.6726    1.7311 N   0  0  0  0  0  0  0  0  0  0  0  0
    1.1307    3.7902    2.6431 C   0  0  2  0  0  0  0  0  0  0  0  0
    0.3787    4.9617    2.0253 C   0  0  0  0  0  0  0  0  0  0  0  0
    0.1645    5.0599    0.8189 O   0  0  0  0  0  0  0  0  0  0  0  0
    2.5782    4.1616    2.9254 C   0  0  0  0  0  0  0  0  0  0  0  0
    1.7291    2.6026    0.9858 H   0  0  0  0  0  0  0  0  0  0  0  0
    0.6322    3.4829    3.5689 H   0  0  0  0  0  0  0  0  0  0  0  0
    3.0940    4.4723    2.0094 H   0  0  0  0  0  0  0  0  0  0  0  0
    2.6435    4.9900    3.6385 H   0  0  0  0  0  0  0  0  0  0  0  0
    3.1252    3.3090    3.3420 H   0  0  0  0  0  0  0  0  0  0  0  0
    0.0126    5.9057    2.9744 N   0  0  0  0  0  0  0  0  0  0  0  0
   -0.7003    7.1154    2.6362 C   0  0  0  0  0  0  0  0  0  0  0  0
    0.2146    5.7330    3.9548 H   0  0  0  0  0  0  0  0  0  0  0  0
    0.0195    7.9269    2.4533 H   0  0  0  0  0  0  0  0  0  0  0  0
   -1.3000    6.9462    1.7297 H   0  0  0  0  0  0  0  0  0  0  0  0
   -1.3638    7.3946    3.4680 H   0  0  0  0  0  0  0  0  0  0  0  0
  1  3  1  0  0  0  0
  1  7  1  0  0  0  0
  1  2  2  0  0  0  0
 34 35  1  0  0  0  0
 35 43  1  0  0  0  0
 35 36  2  0  0  0  0
  8  9  1  0  0  0  0
  9 17  1  0  0  0  0
  9 10  2  0  0  0  0
 18 19  1  0  0  0  0
 19 33  1  0  0  0  0
 19 20  2  0  0  0  0
 22 23  1  0  0  0  0
 23 24  2  0  0  0  0
 23 25  1  0  0  0  0
 34 37  1  0  0  0  0
  8 11  1  0  0  0  0
 43 44  1  0  0  0  0
 21 22  1  0  0  0  0
 18 21  1  0  0  0  0
 33 34  1  0  0  0  0
  7  8  1  0  0  0  0
 17 18  1  0  0  0  0
  3  4  1  0  0  0  0
  3  5  1  0  0  0  0
  3  6  1  0  0  0  0
 37 40  1  0  0  0  0
 37 41  1  0  0  0  0
 37 42  1  0  0  0  0
 11 14  1  0  0  0  0
 11 15  1  0  0  0  0
 11 16  1  0  0  0  0
 44 46  1  0  0  0  0
 44 47  1  0  0  0  0
 44 48  1  0  0  0  0
 22 30  1  0  0  0  0
 22 31  1  0  0  0  0
 21 28  1  0  0  0  0
 21 29  1  0  0  0  0
 34 39  1  0  0  0  0
  8 13  1  0  0  0  0
 18 27  1  0  0  0  0
 43 45  1  0  0  0  0
  7 12  1  0  0  0  0
 33 38  1  0  0  0  0
 17 26  1  0  0  0  0
 25 32  1  0  0  0  0
M  END
$$$$

  -OEChem-05262214473D

 48 47  0     1  0  0  0  0  0999 V2000
   -5.5827   -1.3473    1.4591 C   0  0  0  0  0  0  0  0  0  0  0  0
   -5.7053   -2.4696    0.9825 O   0  0  0  0  0  0  0  0  0  0  0  0
   -6.7879   -0.6277    1.9670 C   0  0  0  0  0  0  0  0  0  0  0  0
   -7.2718   -0.0164    1.1885 H   0  0  0  0  0  0  0  0  0  0  0  0
   -7.5699   -1.3171    2.3239 H   0  0  0  0  0  0  0  0  0  0  0  0
   -6.6057    0.0628    2.8060 H   0  0  0  0  0  0  0  0  0  0  0  0
   -4.4001   -0.6377    1.5884 N   0  0  0  0  0  0  0  0  0  0  0  0
   -3.1220   -1.1455    1.1644 C   0  0  2  0  0  0  0  0  0  0  0  0
   -2.2017    0.0428    0.9187 C   0  0  0  0  0  0  0  0  0  0  0  0
   -2.6171    1.1750    0.6807 O   0  0  0  0  0  0  0  0  0  0  0  0
   -3.2533   -1.9992   -0.0873 C   0  0  0  0  0  0  0  0  0  0  0  0
   -4.4370    0.2910    2.0047 H   0  0  0  0  0  0  0  0  0  0  0  0
   -2.7302   -1.7467    1.9921 H   0  0  0  0  0  0  0  0  0  0  0  0
   -3.6446   -1.4140   -0.9275 H   0  0  0  0  0  0  0  0  0  0  0  0
   -2.2844   -2.4081   -0.3922 H   0  0  0  0  0  0  0  0  0  0  0  0
   -3.9388   -2.8365    0.0822 H   0  0  0  0  0  0  0  0  0  0  0  0
   -0.8768   -0.3314    0.9568 N   0  0  0  0  0  0  0  0  0  0  0  0
    0.2067    0.6285    0.7375 C   0  0  2  0  0  0  0  0  0  0  0  0
    0.0674    1.6908    1.8237 C   0  0  0  0  0  0  0  0  0  0  0  0
   -0.6139    1.5189    2.8325 O   0  0  0  0  0  0  0  0  0  0  0  0
    0.0832    1.2192   -0.6750 C   0  0  0  0  0  0  0  0  0  0  0  0
    0.3345    0.2017   -1.7877 C   0  0  0  0  0  0  0  0  0  0  0  0
    0.1804    0.8139   -3.1576 C   0  0  0  0  0  0  0  0  0  0  0  0
   -0.2302    1.9507   -3.3537 O   0  0  0  0  0  0  0  0  0  0  0  0
    0.5201   -0.0371   -4.1569 O   0  0  0  0  0  0  0  0  0  0  0  0
   -0.6087   -1.2764    1.1771 H   0  0  0  0  0  0  0  0  0  0  0  0
    1.1612    0.1016    0.8376 H   0  0  0  0  0  0  0  0  0  0  0  0
   -0.9210    1.6453   -0.8020 H   0  0  0  0  0  0  0  0  0  0  0  0
    0.7931    2.0471   -0.8023 H   0  0  0  0  0  0  0  0  0  0  0  0
    1.3638   -0.1715   -1.7208 H   0  0  0  0  0  0  0  0  0  0  0  0
   -0.3046   -0.6817   -1.6871 H   0  0  0  0  0  0  0  0  0  0  0  0
    0.4164    0.3163   -5.0659 H   0  0  0  0  0  0  0  0  0  0  0  0
    0.8104    2.8292    1.5481 N   0  0  0  0  0  0  0  0  0  0  0  0
    0.8493    3.9802    2.4213 C   0  0  2  0  0  0  0  0  0  0  0  0
   -0.2057    4.9691    1.9431 C   0  0  0  0  0  0  0  0  0  0  0  0
   -0.6457    4.9778    0.7953 O   0  0  0  0  0  0  0  0  0  0  0  0
    2.2288    4.6201    2.4322 C   0  0  0  0  0  0  0  0  0  0  0  0
    1.3538    2.8552    0.6906 H   0  0  0  0  0  0  0  0  0  0  0  0
    0.5897    3.6250    3.4245 H   0  0  0  0  0  0  0  0  0  0  0  0
    2.5063    4.9821    1.4355 H   0  0  0  0  0  0  0  0  0  0  0  0
    2.2644    5.4747    3.1159 H   0  0  0  0  0  0  0  0  0  0  0  0
    2.9904    3.8989    2.7478 H   0  0  0  0  0  0  0  0  0  0  0  0
   -0.5665    5.8684    2.9367 N   0  0  0  0  0  0  0  0  0  0  0  0
   -1.5411    6.9133    2.7261 C   0  0  0  0  0  0  0  0  0  0  0  0
   -0.1647    5.7752    3.8649 H   0  0  0  0  0  0  0  0  0  0  0  0
   -1.0294    7.8342    2.4095 H   0  0  0  0  0  0  0  0  0  0  0  0
   -2.2503    6.6011    1.9453 H   0  0  0  0  0  0  0  0  0  0  0  0
   -2.0861    7.1005    3.6630 H   0  0  0  0  0  0  0  0  0  0  0  0
  1  3  1  0  0  0  0
  1  7  1  0  0  0  0
  1  2  2  0  0  0  0
 34 35  1  0  0  0  0
 35 43  1  0  0  0  0
 35 36  2  0  0  0  0
  8  9  1  0  0  0  0
  9 17  1  0  0  0  0
  9 10  2  0  0  0  0
 18 19  1  0  0  0  0
 19 33  1  0  0  0  0
 19 20  2  0  0  0  0
 22 23  1  0  0  0  0
 23 24  2  0  0  0  0
 23 25  1  0  0  0  0
 34 37  1  0  0  0  0
  8 11  1  0  0  0  0
 43 44  1  0  0  0  0
 21 22  1  0  0  0  0
 18 21  1  0  0  0  0
 33 34  1  0  0  0  0
  7  8  1  0  0  0  0
 17 18  1  0  0  0  0
  3  4  1  0  0  0  0
  3  5  1  0  0  0  0
  3  6  1  0  0  0  0
 37 40  1  0  0  0  0
 37 41  1  0  0  0  0
 37 42  1  0  0  0  0
 11 14  1  0  0  0  0
 11 15  1  0  0  0  0
 11 16  1  0  0  0  0
 44 46  1  0  0  0  0
 44 47  1  0  0  0  0
 44 48  1  0  0  0  0
 22 30  1  0  0  0  0
 22 31  1  0  0  0  0
 21 28  1  0  0  0  0
 21 29  1  0  0  0  0
 34 39  1  0  0  0  0
  8 13  1  0  0  0  0
 18 27  1  0  0  0  0
 43 45  1  0  0  0  0
  7 12  1  0  0  0  0
 33 38  1  0  0  0  0
 17 26  1  0  0  0  0
 25 32  1  0  0  0  0
M  END
$$$$

  -OEChem-05262214473D

 48 47  0     1  0  0  0  0  0999 V2000
   -5.5827   -1.3473    1.4591 C   0  0  0  0  0  0  0  0  0  0  0  0
   -5.7053   -2.4696    0.9825 O   0  0  0  0  0  0  0  0  0  0  0  0
   -6.7879   -0.6277    1.9670 C   0  0  0  0  0  0  0  0  0  0  0  0
   -7.2718   -0.0164    1.1885 H   0  0  0  0  0  0  0  0  0  0  0  0
   -7.5699   -1.3171    2.3239 H   0  0  0  0  0  0  0  0  0  0  0  0
   -6.6057    0.0628    2.8060 H   0  0  0  0  0  0  0  0  0  0  0  0
   -4.4001   -0.6377    1.5884 N   0  0  0  0  0  0  0  0  0  0  0  0
   -3.1220   -1.1455    1.1644 C   0  0  2  0  0  0  0  0  0  0  0  0
   -2.2017    0.0428    0.9187 C   0  0  0  0  0  0  0  0  0  0  0  0
   -2.6171    1.1750    0.6807 O   0  0  0  0  0  0  0  0  0  0  0  0
   -3.2533   -1.9992   -0.0873 C   0  0  0  0  0  0  0  0  0  0  0  0
   -4.4370    0.2910    2.0047 H   0  0  0  0  0  0  0  0  0  0  0  0
   -2.7302   -1.7467    1.9921 H   0  0  0  0  0  0  0  0  0  0  0  0
   -3.6446   -1.4140   -0.9275 H   0  0  0  0  0  0  0  0  0  0  0  0
   -2.2844   -2.4081   -0.3922 H   0  0  0  0  0  0  0  0  0  0  0  0
   -3.9388   -2.8365    0.0822 H   0  0  0  0  0  0  0  0  0  0  0  0
   -0.8768   -0.3314    0.9568 N   0  0  0  0  0  0  0  0  0  0  0  0
    0.2067    0.6285    0.7375 C   0  0  2  0  0  0  0  0  0  0  0  0
    0.0674    1.6908    1.8237 C   0  0  0  0  0  0  0  0  0  0  0  0
   -0.3792    1.4388    2.9410 O   0  0  0  0  0  0  0  0  0  0  0  0
    0.0832    1.2192   -0.6750 C   0  0  0  0  0  0  0  0  0  0  0  0
    0.3345    0.2017   -1.7877 C   0  0  0  0  0  0  0  0  0  0  0  0
    0.1804    0.8139   -3.1576 C   0  0  0  0  0  0  0  0  0  0  0  0
   -0.2302    1.9507   -3.3537 O   0  0  0  0  0  0  0  0  0  0  0  0
    0.5201   -0.0371   -4.1569 O   0  0  0  0  0  0  0  0  0  0  0  0
   -0.6087   -1.2764    1.1771 H   0  0  0  0  0  0  0  0  0  0  0  0
    1.1612    0.1016    0.8376 H   0  0  0  0  0  0  0  0  0  0  0  0
   -0.9210    1.6453   -0.8020 H   0  0  0  0  0  0  0  0  0  0  0  0
    0.7931    2.0471   -0.8023 H   0  0  0  0  0  0  0  0  0  0  0  0
    1.3638   -0.1715   -1.7208 H   0  0  0  0  0  0  0  0  0  0  0  0
   -0.3046   -0.6817   -1.6871 H   0  0  0  0  0  0  0  0  0  0  0  0
    0.4164    0.3163   -5.0659 H   0  0  0  0  0  0  0  0  0  0  0  0
    0.5240    2.9334    1.4095 N   0  0  0  0  0  0  0  0  0  0  0  0
    0.5024    4.1066    2.2532 C   0  0  2  0  0  0  0  0  0  0  0  0
   -0.7864    4.8667    1.9688 C   0  0  0  0  0  0  0  0  0  0  0  0
   -1.4175    4.7485    0.9206 O   0  0  0  0  0  0  0  0  0  0  0  0
    1.7180    4.9869    2.0079 C   0  0  0  0  0  0  0  0  0  0  0  0
    0.8916    3.0231    0.4671 H   0  0  0  0  0  0  0  0  0  0  0  0
    0.4964    3.7510    3.2893 H   0  0  0  0  0  0  0  0  0  0  0  0
    1.7411    5.3527    0.9749 H   0  0  0  0  0  0  0  0  0  0  0  0
    1.7147    5.8607    2.6679 H   0  0  0  0  0  0  0  0  0  0  0  0
    2.6445    4.4299    2.1841 H   0  0  0  0  0  0  0  0  0  0  0  0
   -1.1258    5.7247    3.0055 N   0  0  0  0  0  0  0  0  0  0  0  0
   -2.2997    6.5653    2.9692 C   0  0  0  0  0  0  0  0  0  0  0  0
   -0.5549    5.7439    3.8454 H   0  0  0  0  0  0  0  0  0  0  0  0
   -2.0334    7.5504    2.5584 H   0  0  0  0  0  0  0  0  0  0  0  0
   -3.0657    6.0978    2.3330 H   0  0  0  0  0  0  0  0  0  0  0  0
   -2.6945    6.6879    3.9885 H   0  0  0  0  0  0  0  0  0  0  0  0
  1  3  1  0  0  0  0
  1  7  1  0  0  0  0
  1  2  2  0  0  0  0
 34 35  1  0  0  0  0
 35 43  1  0  0  0  0
 35 36  2  0  0  0  0
  8  9  1  0  0  0  0
  9 17  1  0  0  0  0
  9 10  2  0  0  0  0
 18 19  1  0  0  0  0
 19 33  1  0  0  0  0
 19 20  2  0  0  0  0
 22 23  1  0  0  0  0
 23 24  2  0  0  0  0
 23 25  1  0  0  0  0
 34 37  1  0  0  0  0
  8 11  1  0  0  0  0
 43 44  1  0  0  0  0
 21 22  1  0  0  0  0
 18 21  1  0  0  0  0
 33 34  1  0  0  0  0
  7  8  1  0  0  0  0
 17 18  1  0  0  0  0
  3  4  1  0  0  0  0
  3  5  1  0  0  0  0
  3  6  1  0  0  0  0
 37 40  1  0  0  0  0
 37 41  1  0  0  0  0
 37 42  1  0  0  0  0
 11 14  1  0  0  0  0
 11 15  1  0  0  0  0
 11 16  1  0  0  0  0
 44 46  1  0  0  0  0
 44 47  1  0  0  0  0
 44 48  1  0  0  0  0
 22 30  1  0  0  0  0
 22 31  1  0  0  0  0
 21 28  1  0  0  0  0
 21 29  1  0  0  0  0
 34 39  1  0  0  0  0
  8 13  1  0  0  0  0
 18 27  1  0  0  0  0
 43 45  1  0  0  0  0
  7 12  1  0  0  0  0
 33 38  1  0  0  0  0
 17 26  1  0  0  0  0
 25 32  1  0  0  0  0
M  END
$$$$

  -OEChem-05262214473D

 48 47  0     1  0  0  0  0  0999 V2000
   -5.5827   -1.3473    1.4591 C   0  0  0  0  0  0  0  0  0  0  0  0
   -5.7053   -2.4696    0.9825 O   0  0  0  0  0  0  0  0  0  0  0  0
   -6.7879   -0.6277    1.9670 C   0  0  0  0  0  0  0  0  0  0  0  0
   -7.2718   -0.0164    1.1885 H   0  0  0  0  0  0  0  0  0  0  0  0
   -7.5699   -1.3171    2.3239 H   0  0  0  0  0  0  0  0  0  0  0  0
   -6.6057    0.0628    2.8060 H   0  0  0  0  0  0  0  0  0  0  0  0
   -4.4001   -0.6377    1.5884 N   0  0  0  0  0  0  0  0  0  0  0  0
   -3.1220   -1.1455    1.1644 C   0  0  2  0  0  0  0  0  0  0  0  0
   -2.2017    0.0428    0.9187 C   0  0  0  0  0  0  0  0  0  0  0  0
   -2.6171    1.1750    0.6807 O   0  0  0  0  0  0  0  0  0  0  0  0
   -3.2533   -1.9992   -0.0873 C   0  0  0  0  0  0  0  0  0  0  0  0
   -4.4370    0.2910    2.0047 H   0  0  0  0  0  0  0  0  0  0  0  0
   -2.7302   -1.7467    1.9921 H   0  0  0  0  0  0  0  0  0  0  0  0
   -3.6446   -1.4140   -0.9275 H   0  0  0  0  0  0  0  0  0  0  0  0
   -2.2844   -2.4081   -0.3922 H   0  0  0  0  0  0  0  0  0  0  0  0
   -3.9388   -2.8365    0.0822 H   0  0  0  0  0  0  0  0  0  0  0  0
   -0.8768   -0.3314    0.9568 N   0  0  0  0  0  0  0  0  0  0  0  0
    0.2067    0.6285    0.7375 C   0  0  2  0  0  0  0  0  0  0  0  0
    0.0674    1.6908    1.8237 C   0  0  0  0  0  0  0  0  0  0  0  0
   -0.1183    1.4071    3.0054 O   0  0  0  0  0  0  0  0  0  0  0  0
    0.0832    1.2192   -0.6750 C   0  0  0  0  0  0  0  0  0  0  0  0
    0.3345    0.2017   -1.7877 C   0  0  0  0  0  0  0  0  0  0  0  0
    0.1804    0.8139   -3.1576 C   0  0  0  0  0  0  0  0  0  0  0  0
   -0.2302    1.9507   -3.3537 O   0  0  0  0  0  0  0  0  0  0  0  0
    0.5201   -0.0371   -4.1569 O   0  0  0  0  0  0  0  0  0  0  0  0
   -0.6087   -1.2764    1.1771 H   0  0  0  0  0  0  0  0  0  0  0  0
    1.1612    0.1016    0.8376 H   0  0  0  0  0  0  0  0  0  0  0  0
   -0.9210    1.6453   -0.8020 H   0  0  0  0  0  0  0  0  0  0  0  0
    0.7931    2.0471   -0.8023 H   0  0  0  0  0  0  0  0  0  0  0  0
    1.3638   -0.1715   -1.7208 H   0  0  0  0  0  0  0  0  0  0  0  0
   -0.3046   -0.6817   -1.6871 H   0  0  0  0  0  0  0  0  0  0  0  0
    0.4164    0.3163   -5.0659 H   0  0  0  0  0  0  0  0  0  0  0  0
    0.2032    2.9779    1.3248 N   0  0  0  0  0  0  0  0  0  0  0  0
    0.1138    4.1608    2.1503 C   0  0  2  0  0  0  0  0  0  0  0  0
   -1.3238    4.6613    2.1008 C   0  0  0  0  0  0  0  0  0  0  0  0
   -2.0981    4.3879    1.1860 O   0  0  0  0  0  0  0  0  0  0  0  0
    1.0805    5.2371    1.6815 C   0  0  0  0  0  0  0  0  0  0  0  0
    0.3739    3.0948    0.3306 H   0  0  0  0  0  0  0  0  0  0  0  0
    0.3587    3.8524    3.1725 H   0  0  0  0  0  0  0  0  0  0  0  0
    0.8508    5.5588    0.6592 H   0  0  0  0  0  0  0  0  0  0  0  0
    1.0319    6.1217    2.3251 H   0  0  0  0  0  0  0  0  0  0  0  0
    2.1109    4.8657    1.6895 H   0  0  0  0  0  0  0  0  0  0  0  0
   -1.6272    5.4845    3.1762 N   0  0  0  0  0  0  0  0  0  0  0  0
   -2.9246    6.0951    3.3489 C   0  0  0  0  0  0  0  0  0  0  0  0
   -0.9297    5.6414    3.8977 H   0  0  0  0  0  0  0  0  0  0  0  0
   -2.9240    7.0947    2.8898 H   0  0  0  0  0  0  0  0  0  0  0  0
   -3.6908    5.4705    2.8664 H   0  0  0  0  0  0  0  0  0  0  0  0
   -3.1474    6.1849    4.4224 H   0  0  0  0  0  0  0  0  0  0  0  0
  1  3  1  0  0  0  0
  1  7  1  0  0  0  0
  1  2  2  0  0  0  0
 34 35  1  0  0  0  0
 35 43  1  0  0  0  0
 35 36  2  0  0  0  0
  8  9  1  0  0  0  0
  9 17  1  0  0  0  0
  9 10  2  0  0  0  0
 18 19  1  0  0  0  0
 19 33  1  0  0  0  0
 19 20  2  0  0  0  0
 22 23  1  0  0  0  0
 23 24  2  0  0  0  0
 23 25  1  0  0  0  0
 34 37  1  0  0  0  0
  8 11  1  0  0  0  0
 43 44  1  0  0  0  0
 21 22  1  0  0  0  0
 18 21  1  0  0  0  0
 33 34  1  0  0  0  0
  7  8  1  0  0  0  0
 17 18  1  0  0  0  0
  3  4  1  0  0  0  0
  3  5  1  0  0  0  0
  3  6  1  0  0  0  0
 37 40  1  0  0  0  0
 37 41  1  0  0  0  0
 37 42  1  0  0  0  0
 11 14  1  0  0  0  0
 11 15  1  0  0  0  0
 11 16  1  0  0  0  0
 44 46  1  0  0  0  0
 44 47  1  0  0  0  0
 44 48  1  0  0  0  0
 22 30  1  0  0  0  0
 22 31  1  0  0  0  0
 21 28  1  0  0  0  0
 21 29  1  0  0  0  0
 34 39  1  0  0  0  0
  8 13  1  0  0  0  0
 18 27  1  0  0  0  0
 43 45  1  0  0  0  0
  7 12  1  0  0  0  0
 33 38  1  0  0  0  0
 17 26  1  0  0  0  0
 25 32  1  0  0  0  0
M  END
$$$$

  -OEChem-05262214473D

 48 47  0     1  0  0  0  0  0999 V2000
   -5.5827   -1.3473    1.4591 C   0  0  0  0  0  0  0  0  0  0  0  0
   -5.7053   -2.4696    0.9825 O   0  0  0  0  0  0  0  0  0  0  0  0
   -6.7879   -0.6277    1.9670 C   0  0  0  0  0  0  0  0  0  0  0  0
   -7.2718   -0.0164    1.1885 H   0  0  0  0  0  0  0  0  0  0  0  0
   -7.5699   -1.3171    2.3239 H   0  0  0  0  0  0  0  0  0  0  0  0
   -6.6057    0.0628    2.8060 H   0  0  0  0  0  0  0  0  0  0  0  0
   -4.4001   -0.6377    1.5884 N   0  0  0  0  0  0  0  0  0  0  0  0
   -3.1220   -1.1455    1.1644 C   0  0  2  0  0  0  0  0  0  0  0  0
   -2.2017    0.0428    0.9187 C   0  0  0  0  0  0  0  0  0  0  0  0
   -2.6171    1.1750    0.6807 O   0  0  0  0  0  0  0  0  0  0  0  0
   -3.2533   -1.9992   -0.0873 C   0  0  0  0  0  0  0  0  0  0  0  0
   -4.4370    0.2910    2.0047 H   0  0  0  0  0  0  0  0  0  0  0  0
   -2.7302   -1.7467    1.9921 H   0  0  0  0  0  0  0  0  0  0  0  0
   -3.6446   -1.4140   -0.9275 H   0  0  0  0  0  0  0  0  0  0  0  0
   -2.2844   -2.4081   -0.3922 H   0  0  0  0  0  0  0  0  0  0  0  0
   -3.9388   -2.8365    0.0822 H   0  0  0  0  0  0  0  0  0  0  0  0
   -0.8768   -0.3314    0.9568 N   0  0  0  0  0  0  0  0  0  0  0  0
    0.2067    0.6285    0.7375 C   0  0  2  0  0  0  0  0  0  0  0  0
    0.0674    1.6908    1.8237 C   0  0  0  0  0  0  0  0  0  0  0  0
    0.1512    1.4262    3.0213 O   0  0  0  0  0  0  0  0  0  0  0  0
    0.0832    1.2192   -0.6750 C   0  0  0  0  0  0  0  0  0  0  0  0
    0.3345    0.2017   -1.7877 C   0  0  0  0  0  0  0  0  0  0  0  0
    0.1804    0.8139   -3.1576 C   0  0  0  0  0  0  0  0  0  0  0  0
   -0.2302    1.9507   -3.3537 O   0  0  0  0  0  0  0  0  0  0  0  0
    0.5201   -0.0371   -4.1569 O   0  0  0  0  0  0  0  0  0  0  0  0
   -0.6087   -1.2764    1.1771 H   0  0  0  0  0  0  0  0  0  0  0  0
    1.1612    0.1016    0.8376 H   0  0  0  0  0  0  0  0  0  0  0  0
   -0.9210    1.6453   -0.8020 H   0  0  0  0  0  0  0  0  0  0  0  0
    0.7931    2.0471   -0.8023 H   0  0  0  0  0  0  0  0  0  0  0  0
    1.3638   -0.1715   -1.7208 H   0  0  0  0  0  0  0  0  0  0  0  0
   -0.3046   -0.6817   -1.6871 H   0  0  0  0  0  0  0  0  0  0  0  0
    0.4164    0.3163   -5.0659 H   0  0  0  0  0  0  0  0  0  0  0  0
   -0.1301    2.9598    1.2998 N   0  0  0  0  0  0  0  0  0  0  0  0
   -0.2901    4.1391    2.1198 C   0  0  2  0  0  0  0  0  0  0  0  0
   -1.7812    4.3670    2.3299 C   0  0  0  0  0  0  0  0  0  0  0  0
   -2.6412    3.9203    1.5736 O   0  0  0  0  0  0  0  0  0  0  0  0
    0.3598    5.3536    1.4752 C   0  0  0  0  0  0  0  0  0  0  0  0
   -0.1640    3.0655    0.2903 H   0  0  0  0  0  0  0  0  0  0  0  0
    0.1859    3.9221    3.0822 H   0  0  0  0  0  0  0  0  0  0  0  0
   -0.1040    5.5864    0.5098 H   0  0  0  0  0  0  0  0  0  0  0  0
    0.2626    6.2398    2.1109 H   0  0  0  0  0  0  0  0  0  0  0  0
    1.4261    5.1767    1.2976 H   0  0  0  0  0  0  0  0  0  0  0  0
   -2.0364    5.1641    3.4370 N   0  0  0  0  0  0  0  0  0  0  0  0
   -3.3731    5.5347    3.8394 C   0  0  0  0  0  0  0  0  0  0  0  0
   -1.2633    5.4745    4.0181 H   0  0  0  0  0  0  0  0  0  0  0  0
   -3.6406    6.4983    3.3812 H   0  0  0  0  0  0  0  0  0  0  0  0
   -4.0829    4.7621    3.5090 H   0  0  0  0  0  0  0  0  0  0  0  0
   -3.4141    5.6259    4.9349 H   0  0  0  0  0  0  0  0  0  0  0  0
  1  3  1  0  0  0  0
  1  7  1  0  0  0  0
  1  2  2  0  0  0  0
 34 35  1  0  0  0  0
 35 43  1  0  0  0  0
 35 36  2  0  0  0  0
  8  9  1  0  0  0  0
  9 17  1  0  0  0  0
  9 10  2  0  0  0  0
 18 19  1  0  0  0  0
 19 33  1  0  0  0  0
 19 20  2  0  0  0  0
 22 23  1  0  0  0  0
 23 24  2  0  0  0  0
 23 25  1  0  0  0  0
 34 37  1  0  0  0  0
  8 11  1  0  0  0  0
 43 44  1  0  0  0  0
 21 22  1  0  0  0  0
 18 21  1  0  0  0  0
 33 34  1  0  0  0  0
  7  8  1  0  0  0  0
 17 18  1  0  0  0  0
  3  4  1  0  0  0  0
  3  5  1  0  0  0  0
  3  6  1  0  0  0  0
 37 40  1  0  0  0  0
 37 41  1  0  0  0  0
 37 42  1  0  0  0  0
 11 14  1  0  0  0  0
 11 15  1  0  0  0  0
 11 16  1  0  0  0  0
 44 46  1  0  0  0  0
 44 47  1  0  0  0  0
 44 48  1  0  0  0  0
 22 30  1  0  0  0  0
 22 31  1  0  0  0  0
 21 28  1  0  0  0  0
 21 29  1  0  0  0  0
 34 39  1  0  0  0  0
  8 13  1  0  0  0  0
 18 27  1  0  0  0  0
 43 45  1  0  0  0  0
  7 12  1  0  0  0  0
 33 38  1  0  0  0  0
 17 26  1  0  0  0  0
 25 32  1  0  0  0  0
M  END
$$$$

  -OEChem-05262214473D

 48 47  0     1  0  0  0  0  0999 V2000
   -5.5827   -1.3473    1.4591 C   0  0  0  0  0  0  0  0  0  0  0  0
   -5.7053   -2.4696    0.9825 O   0  0  0  0  0  0  0  0  0  0  0  0
   -6.7879   -0.6277    1.9670 C   0  0  0  0  0  0  0  0  0  0  0  0
   -7.2718   -0.0164    1.1885 H   0  0  0  0  0  0  0  0  0  0  0  0
   -7.5699   -1.3171    2.3239 H   0  0  0  0  0  0  0  0  0  0  0  0
   -6.6057    0.0628    2.8060 H   0  0  0  0  0  0  0  0  0  0  0  0
   -4.4001   -0.6377    1.5884 N   0  0  0  0  0  0  0  0  0  0  0  0
   -3.1220   -1.1455    1.1644 C   0  0  2  0  0  0  0  0  0  0  0  0
   -2.2017    0.0428    0.9187 C   0  0  0  0  0  0  0  0  0  0  0  0
   -2.6171    1.1750    0.6807 O   0  0  0  0  0  0  0  0  0  0  0  0
   -3.2533   -1.9992   -0.0873 C   0  0  0  0  0  0  0  0  0  0  0  0
   -4.4370    0.2910    2.0047 H   0  0  0  0  0  0  0  0  0  0  0  0
   -2.7302   -1.7467    1.9921 H   0  0  0  0  0  0  0  0  0  0  0  0
   -3.6446   -1.4140   -0.9275 H   0  0  0  0  0  0  0  0  0  0  0  0
   -2.2844   -2.4081   -0.3922 H   0  0  0  0  0  0  0  0  0  0  0  0
   -3.9388   -2.8365    0.0822 H   0  0  0  0  0  0  0  0  0  0  0  0
   -0.8768   -0.3314    0.9568 N   0  0  0  0  0  0  0  0  0  0  0  0
    0.2067    0.6285    0.7375 C   0  0  2  0  0  0  0  0  0  0  0  0
    0.0674    1.6908    1.8237 C   0  0  0  0  0  0  0  0  0  0  0  0
    0.4109    1.4946    2.9877 O   0  0  0  0  0  0  0  0  0  0  0  0
    0.0832    1.2192   -0.6750 C   0  0  0  0  0  0  0  0  0  0  0  0
    0.3345    0.2017   -1.7877 C   0  0  0  0  0  0  0  0  0  0  0  0
    0.1804    0.8139   -3.1576 C   0  0  0  0  0  0  0  0  0  0  0  0
   -0.2302    1.9507   -3.3537 O   0  0  0  0  0  0  0  0  0  0  0  0
    0.5201   -0.0371   -4.1569 O   0  0  0  0  0  0  0  0  0  0  0  0
   -0.6087   -1.2764    1.1771 H   0  0  0  0  0  0  0  0  0  0  0  0
    1.1612    0.1016    0.8376 H   0  0  0  0  0  0  0  0  0  0  0  0
   -0.9210    1.6453   -0.8020 H   0  0  0  0  0  0  0  0  0  0  0  0
    0.7931    2.0471   -0.8023 H   0  0  0  0  0  0  0  0  0  0  0  0
    1.3638   -0.1715   -1.7208 H   0  0  0  0  0  0  0  0  0  0  0  0
   -0.3046   -0.6817   -1.6871 H   0  0  0  0  0  0  0  0  0  0  0  0
    0.4164    0.3163   -5.0659 H   0  0  0  0  0  0  0  0  0  0  0  0
   -0.4533    2.8804    1.3361 N   0  0  0  0  0  0  0  0  0  0  0  0
   -0.6818    4.0430    2.1635 C   0  0  2  0  0  0  0  0  0  0  0  0
   -2.1276    4.0039    2.6406 C   0  0  0  0  0  0  0  0  0  0  0  0
   -3.0099    3.3778    2.0569 O   0  0  0  0  0  0  0  0  0  0  0  0
   -0.3949    5.3284    1.4031 C   0  0  0  0  0  0  0  0  0  0  0  0
   -0.6854    2.9371    0.3490 H   0  0  0  0  0  0  0  0  0  0  0  0
   -0.0100    3.9555    3.0244 H   0  0  0  0  0  0  0  0  0  0  0  0
   -1.0584    5.4335    0.5369 H   0  0  0  0  0  0  0  0  0  0  0  0
   -0.5410    6.2072    2.0398 H   0  0  0  0  0  0  0  0  0  0  0  0
    0.6367    5.3416    1.0351 H   0  0  0  0  0  0  0  0  0  0  0  0
   -2.3257    4.7854    3.7703 N   0  0  0  0  0  0  0  0  0  0  0  0
   -3.6147    4.9224    4.4073 C   0  0  0  0  0  0  0  0  0  0  0  0
   -1.5331    5.2547    4.1985 H   0  0  0  0  0  0  0  0  0  0  0  0
   -4.1344    5.8018    3.9991 H   0  0  0  0  0  0  0  0  0  0  0  0
   -4.2152    4.0207    4.2171 H   0  0  0  0  0  0  0  0  0  0  0  0
   -3.4763    5.0489    5.4912 H   0  0  0  0  0  0  0  0  0  0  0  0
  1  3  1  0  0  0  0
  1  7  1  0  0  0  0
  1  2  2  0  0  0  0
 34 35  1  0  0  0  0
 35 43  1  0  0  0  0
 35 36  2  0  0  0  0
  8  9  1  0  0  0  0
  9 17  1  0  0  0  0
  9 10  2  0  0  0  0
 18 19  1  0  0  0  0
 19 33  1  0  0  0  0
 19 20  2  0  0  0  0
 22 23  1  0  0  0  0
 23 24  2  0  0  0  0
 23 25  1  0  0  0  0
 34 37  1  0  0  0  0
  8 11  1  0  0  0  0
 43 44  1  0  0  0  0
 21 22  1  0  0  0  0
 18 21  1  0  0  0  0
 33 34  1  0  0  0  0
  7  8  1  0  0  0  0
 17 18  1  0  0  0  0
  3  4  1  0  0  0  0
  3  5  1  0  0  0  0
  3  6  1  0  0  0  0
 37 40  1  0  0  0  0
 37 41  1  0  0  0  0
 37 42  1  0  0  0  0
 11 14  1  0  0  0  0
 11 15  1  0  0  0  0
 11 16  1  0  0  0  0
 44 46  1  0  0  0  0
 44 47  1  0  0  0  0
 44 48  1  0  0  0  0
 22 30  1  0  0  0  0
 22 31  1  0  0  0  0
 21 28  1  0  0  0  0
 21 29  1  0  0  0  0
 34 39  1  0  0  0  0
  8 13  1  0  0  0  0
 18 27  1  0  0  0  0
 43 45  1  0  0  0  0
  7 12  1  0  0  0  0
 33 38  1  0  0  0  0
 17 26  1  0  0  0  0
 25 32  1  0  0  0  0
M  END
$$$$

  -OEChem-05262214473D

 48 47  0     1  0  0  0  0  0999 V2000
   -5.5827   -1.3473    1.4591 C   0  0  0  0  0  0  0  0  0  0  0  0
   -5.7053   -2.4696    0.9825 O   0  0  0  0  0  0  0  0  0  0  0  0
   -6.7879   -0.6277    1.9670 C   0  0  0  0  0  0  0  0  0  0  0  0
   -7.2718   -0.0164    1.1885 H   0  0  0  0  0  0  0  0  0  0  0  0
   -7.5699   -1.3171    2.3239 H   0  0  0  0  0  0  0  0  0  0  0  0
   -6.6057    0.0628    2.8060 H   0  0  0  0  0  0  0  0  0  0  0  0
   -4.4001   -0.6377    1.5884 N   0  0  0  0  0  0  0  0  0  0  0  0
   -3.1220   -1.1455    1.1644 C   0  0  2  0  0  0  0  0  0  0  0  0
   -2.2017    0.0428    0.9187 C   0  0  0  0  0  0  0  0  0  0  0  0
   -2.6171    1.1750    0.6807 O   0  0  0  0  0  0  0  0  0  0  0  0
   -3.2533   -1.9992   -0.0873 C   0  0  0  0  0  0  0  0  0  0  0  0
   -4.4370    0.2910    2.0047 H   0  0  0  0  0  0  0  0  0  0  0  0
   -2.7302   -1.7467    1.9921 H   0  0  0  0  0  0  0  0  0  0  0  0
   -3.6446   -1.4140   -0.9275 H   0  0  0  0  0  0  0  0  0  0  0  0
   -2.2844   -2.4081   -0.3922 H   0  0  0  0  0  0  0  0  0  0  0  0
   -3.9388   -2.8365    0.0822 H   0  0  0  0  0  0  0  0  0  0  0  0
   -0.8768   -0.3314    0.9568 N   0  0  0  0  0  0  0  0  0  0  0  0
    0.2067    0.6285    0.7375 C   0  0  2  0  0  0  0  0  0  0  0  0
    0.0674    1.6908    1.8237 C   0  0  0  0  0  0  0  0  0  0  0  0
    0.6431    1.6078    2.9068 O   0  0  0  0  0  0  0  0  0  0  0  0
    0.0832    1.2192   -0.6750 C   0  0  0  0  0  0  0  0  0  0  0  0
    0.3345    0.2017   -1.7877 C   0  0  0  0  0  0  0  0  0  0  0  0
    0.1804    0.8139   -3.1576 C   0  0  0  0  0  0  0  0  0  0  0  0
   -0.2302    1.9507   -3.3537 O   0  0  0  0  0  0  0  0  0  0  0  0
    0.5201   -0.0371   -4.1569 O   0  0  0  0  0  0  0  0  0  0  0  0
   -0.6087   -1.2764    1.1771 H   0  0  0  0  0  0  0  0  0  0  0  0
    1.1612    0.1016    0.8376 H   0  0  0  0  0  0  0  0  0  0  0  0
   -0.9210    1.6453   -0.8020 H   0  0  0  0  0  0  0  0  0  0  0  0
    0.7931    2.0471   -0.8023 H   0  0  0  0  0  0  0  0  0  0  0  0
    1.3638   -0.1715   -1.7208 H   0  0  0  0  0  0  0  0  0  0  0  0
   -0.3046   -0.6817   -1.6871 H   0  0  0  0  0  0  0  0  0  0  0  0
    0.4164    0.3163   -5.0659 H   0  0  0  0  0  0  0  0  0  0  0  0
   -0.7443    2.7449    1.4312 N   0  0  0  0  0  0  0  0  0  0  0  0
   -1.0345    3.8791    2.2786 C   0  0  2  0  0  0  0  0  0  0  0  0
   -2.3393    3.5967    3.0117 C   0  0  0  0  0  0  0  0  0  0  0  0
   -3.1789    2.7973    2.6030 O   0  0  0  0  0  0  0  0  0  0  0  0
   -1.1323    5.1633    1.4700 C   0  0  0  0  0  0  0  0  0  0  0  0
   -1.1548    2.7184    0.5027 H   0  0  0  0  0  0  0  0  0  0  0  0
   -0.2159    3.9503    3.0031 H   0  0  0  0  0  0  0  0  0  0  0  0
   -1.9471    5.1107    0.7387 H   0  0  0  0  0  0  0  0  0  0  0  0
   -1.3239    6.0258    2.1168 H   0  0  0  0  0  0  0  0  0  0  0  0
   -0.2035    5.3492    0.9199 H   0  0  0  0  0  0  0  0  0  0  0  0
   -2.4753    4.3741    4.1533 N   0  0  0  0  0  0  0  0  0  0  0  0
   -3.6329    4.2999    5.0138 C   0  0  0  0  0  0  0  0  0  0  0  0
   -1.7208    4.9969    4.4266 H   0  0  0  0  0  0  0  0  0  0  0  0
   -4.3716    5.0526    4.7013 H   0  0  0  0  0  0  0  0  0  0  0  0
   -4.0789    3.2969    4.9424 H   0  0  0  0  0  0  0  0  0  0  0  0
   -3.3298    4.4932    6.0534 H   0  0  0  0  0  0  0  0  0  0  0  0
  1  3  1  0  0  0  0
  1  7  1  0  0  0  0
  1  2  2  0  0  0  0
 34 35  1  0  0  0  0
 35 43  1  0  0  0  0
 35 36  2  0  0  0  0
  8  9  1  0  0  0  0
  9 17  1  0  0  0  0
  9 10  2  0  0  0  0
 18 19  1  0  0  0  0
 19 33  1  0  0  0  0
 19 20  2  0  0  0  0
 22 23  1  0  0  0  0
 23 24  2  0  0  0  0
 23 25  1  0  0  0  0
 34 37  1  0  0  0  0
  8 11  1  0  0  0  0
 43 44  1  0  0  0  0
 21 22  1  0  0  0  0
 18 21  1  0  0  0  0
 33 34  1  0  0  0  0
  7  8  1  0  0  0  0
 17 18  1  0  0  0  0
  3  4  1  0  0  0  0
  3  5  1  0  0  0  0
  3  6  1  0  0  0  0
 37 40  1  0  0  0  0
 37 41  1  0  0  0  0
 37 42  1  0  0  0  0
 11 14  1  0  0  0  0
 11 15  1  0  0  0  0
 11 16  1  0  0  0  0
 44 46  1  0  0  0  0
 44 47  1  0  0  0  0
 44 48  1  0  0  0  0
 22 30  1  0  0  0  0
 22 31  1  0  0  0  0
 21 28  1  0  0  0  0
 21 29  1  0  0  0  0
 34 39  1  0  0  0  0
  8 13  1  0  0  0  0
 18 27  1  0  0  0  0
 43 45  1  0  0  0  0
  7 12  1  0  0  0  0
 33 38  1  0  0  0  0
 17 26  1  0  0  0  0
 25 32  1  0  0  0  0
M  END
$$$$

  -OEChem-05262214473D

 48 47  0     1  0  0  0  0  0999 V2000
   -5.5827   -1.3473    1.4591 C   0  0  0  0  0  0  0  0  0  0  0  0
   -5.7053   -2.4696    0.9825 O   0  0  0  0  0  0  0  0  0  0  0  0
   -6.7879   -0.6277    1.9670 C   0  0  0  0  0  0  0  0  0  0  0  0
   -7.2718   -0.0164    1.1885 H   0  0  0  0  0  0  0  0  0  0  0  0
   -7.5699   -1.3171    2.3239 H   0  0  0  0  0  0  0  0  0  0  0  0
   -6.6057    0.0628    2.8060 H   0  0  0  0  0  0  0  0  0  0  0  0
   -4.4001   -0.6377    1.5884 N   0  0  0  0  0  0  0  0  0  0  0  0
   -3.1220   -1.1455    1.1644 C   0  0  2  0  0  0  0  0  0  0  0  0
   -2.2017    0.0428    0.9187 C   0  0  0  0  0  0  0  0  0  0  0  0
   -2.6171    1.1750    0.6807 O   0  0  0  0  0  0  0  0  0  0  0  0
   -3.2533   -1.9992   -0.0873 C   0  0  0  0  0  0  0  0  0  0  0  0
   -4.4370    0.2910    2.0047 H   0  0  0  0  0  0  0  0  0  0  0  0
   -2.7302   -1.7467    1.9921 H   0  0  0  0  0  0  0  0  0  0  0  0
   -3.6446   -1.4140   -0.9275 H   0  0  0  0  0  0  0  0  0  0  0  0
   -2.2844   -2.4081   -0.3922 H   0  0  0  0  0  0  0  0  0  0  0  0
   -3.9388   -2.8365    0.0822 H   0  0  0  0  0  0  0  0  0  0  0  0
   -0.8768   -0.3314    0.9568 N   0  0  0  0  0  0  0  0  0  0  0  0
    0.2067    0.6285    0.7375 C   0  0  2  0  0  0  0  0  0  0  0  0
    0.0674    1.6908    1.8237 C   0  0  0  0  0  0  0  0  0  0  0  0
    0.8319    1.7579    2.7842 O   0  0  0  0  0  0  0  0  0  0  0  0
    0.0832    1.2192   -0.6750 C   0  0  0  0  0  0  0  0  0  0  0  0
    0.3345    0.2017   -1.7877 C   0  0  0  0  0  0  0  0  0  0  0  0
    0.1804    0.8139   -3.1576 C   0  0  0  0  0  0  0  0  0  0  0  0
   -0.2302    1.9507   -3.3537 O   0  0  0  0  0  0  0  0  0  0  0  0
    0.5201   -0.0371   -4.1569 O   0  0  0  0  0  0  0  0  0  0  0  0
   -0.6087   -1.2764    1.1771 H   0  0  0  0  0  0  0  0  0  0  0  0
    1.1612    0.1016    0.8376 H   0  0  0  0  0  0  0  0  0  0  0  0
   -0.9210    1.6453   -0.8020 H   0  0  0  0  0  0  0  0  0  0  0  0
    0.7931    2.0471   -0.8023 H   0  0  0  0  0  0  0  0  0  0  0  0
    1.3638   -0.1715   -1.7208 H   0  0  0  0  0  0  0  0  0  0  0  0
   -0.3046   -0.6817   -1.6871 H   0  0  0  0  0  0  0  0  0  0  0  0
    0.4164    0.3163   -5.0659 H   0  0  0  0  0  0  0  0  0  0  0  0
   -0.9832    2.5627    1.5788 N   0  0  0  0  0  0  0  0  0  0  0  0
   -1.3243    3.6584    2.4573 C   0  0  2  0  0  0  0  0  0  0  0  0
   -2.4018    3.1731    3.4180 C   0  0  0  0  0  0  0  0  0  0  0  0
   -3.1368    2.2183    3.1747 O   0  0  0  0  0  0  0  0  0  0  0  0
   -1.8021    4.8695    1.6714 C   0  0  0  0  0  0  0  0  0  0  0  0
   -1.5402    2.4243    0.7410 H   0  0  0  0  0  0  0  0  0  0  0  0
   -0.4177    3.9068    3.0197 H   0  0  0  0  0  0  0  0  0  0  0  0
   -2.7098    4.6399    1.1014 H   0  0  0  0  0  0  0  0  0  0  0  0
   -2.0329    5.7082    2.3365 H   0  0  0  0  0  0  0  0  0  0  0  0
   -1.0373    5.1990    0.9599 H   0  0  0  0  0  0  0  0  0  0  0  0
   -2.4749    3.9584    4.5600 N   0  0  0  0  0  0  0  0  0  0  0  0
   -3.4264    3.7095    5.6177 C   0  0  0  0  0  0  0  0  0  0  0  0
   -1.8134    4.7187    4.6868 H   0  0  0  0  0  0  0  0  0  0  0  0
   -4.3361    4.3018    5.4401 H   0  0  0  0  0  0  0  0  0  0  0  0
   -3.6831    2.6400    5.6356 H   0  0  0  0  0  0  0  0  0  0  0  0
   -2.9846    3.9968    6.5832 H   0  0  0  0  0  0  0  0  0  0  0  0
  1  3  1  0  0  0  0
  1  7  1  0  0  0  0
  1  2  2  0  0  0  0
 34 35  1  0  0  0  0
 35 43  1  0  0  0  0
 35 36  2  0  0  0  0
  8  9  1  0  0  0  0
  9 17  1  0  0  0  0
  9 10  2  0  0  0  0
 18 19  1  0  0  0  0
 19 33  1  0  0  0  0
 19 20  2  0  0  0  0
 22 23  1  0  0  0  0
 23 24  2  0  0  0  0
 23 25  1  0  0  0  0
 34 37  1  0  0  0  0
  8 11  1  0  0  0  0
 43 44  1  0  0  0  0
 21 22  1  0  0  0  0
 18 21  1  0  0  0  0
 33 34  1  0  0  0  0
  7  8  1  0  0  0  0
 17 18  1  0  0  0  0
  3  4  1  0  0  0  0
  3  5  1  0  0  0  0
  3  6  1  0  0  0  0
 37 40  1  0  0  0  0
 37 41  1  0  0  0  0
 37 42  1  0  0  0  0
 11 14  1  0  0  0  0
 11 15  1  0  0  0  0
 11 16  1  0  0  0  0
 44 46  1  0  0  0  0
 44 47  1  0  0  0  0
 44 48  1  0  0  0  0
 22 30  1  0  0  0  0
 22 31  1  0  0  0  0
 21 28  1  0  0  0  0
 21 29  1  0  0  0  0
 34 39  1  0  0  0  0
  8 13  1  0  0  0  0
 18 27  1  0  0  0  0
 43 45  1  0  0  0  0
  7 12  1  0  0  0  0
 33 38  1  0  0  0  0
 17 26  1  0  0  0  0
 25 32  1  0  0  0  0
M  END
$$$$

  -OEChem-05262214473D

 48 47  0     1  0  0  0  0  0999 V2000
   -5.5827   -1.3473    1.4591 C   0  0  0  0  0  0  0  0  0  0  0  0
   -5.7053   -2.4696    0.9825 O   0  0  0  0  0  0  0  0  0  0  0  0
   -6.7879   -0.6277    1.9670 C   0  0  0  0  0  0  0  0  0  0  0  0
   -7.2718   -0.0164    1.1885 H   0  0  0  0  0  0  0  0  0  0  0  0
   -7.5699   -1.3171    2.3239 H   0  0  0  0  0  0  0  0  0  0  0  0
   -6.6057    0.0628    2.8060 H   0  0  0  0  0  0  0  0  0  0  0  0
   -4.4001   -0.6377    1.5884 N   0  0  0  0  0  0  0  0  0  0  0  0
   -3.1220   -1.1455    1.1644 C   0  0  2  0  0  0  0  0  0  0  0  0
   -2.2017    0.0428    0.9187 C   0  0  0  0  0  0  0  0  0  0  0  0
   -2.6171    1.1750    0.6807 O   0  0  0  0  0  0  0  0  0  0  0  0
   -3.2533   -1.9992   -0.0873 C   0  0  0  0  0  0  0  0  0  0  0  0
   -4.4370    0.2910    2.0047 H   0  0  0  0  0  0  0  0  0  0  0  0
   -2.7302   -1.7467    1.9921 H   0  0  0  0  0  0  0  0  0  0  0  0
   -3.6446   -1.4140   -0.9275 H   0  0  0  0  0  0  0  0  0  0  0  0
   -2.2844   -2.4081   -0.3922 H   0  0  0  0  0  0  0  0  0  0  0  0
   -3.9388   -2.8365    0.0822 H   0  0  0  0  0  0  0  0  0  0  0  0
   -0.8768   -0.3314    0.9568 N   0  0  0  0  0  0  0  0  0  0  0  0
    0.2067    0.6285    0.7375 C   0  0  2  0  0  0  0  0  0  0  0  0
    0.0674    1.6908    1.8237 C   0  0  0  0  0  0  0  0  0  0  0  0
    0.9645    1.9349    2.6281 O   0  0  0  0  0  0  0  0  0  0  0  0
    0.0832    1.2192   -0.6750 C   0  0  0  0  0  0  0  0  0  0  0  0
    0.3345    0.2017   -1.7877 C   0  0  0  0  0  0  0  0  0  0  0  0
    0.1804    0.8139   -3.1576 C   0  0  0  0  0  0  0  0  0  0  0  0
   -0.2302    1.9507   -3.3537 O   0  0  0  0  0  0  0  0  0  0  0  0
    0.5201   -0.0371   -4.1569 O   0  0  0  0  0  0  0  0  0  0  0  0
   -0.6087   -1.2764    1.1771 H   0  0  0  0  0  0  0  0  0  0  0  0
    1.1612    0.1016    0.8376 H   0  0  0  0  0  0  0  0  0  0  0  0
   -0.9210    1.6453   -0.8020 H   0  0  0  0  0  0  0  0  0  0  0  0
    0.7931    2.0471   -0.8023 H   0  0  0  0  0  0  0  0  0  0  0  0
    1.3638   -0.1715   -1.7208 H   0  0  0  0  0  0  0  0  0  0  0  0
   -0.3046   -0.6817   -1.6871 H   0  0  0  0  0  0  0  0  0  0  0  0
    0.4164    0.3163   -5.0659 H   0  0  0  0  0  0  0  0  0  0  0  0
   -1.1538    2.3462    1.7687 N   0  0  0  0  0  0  0  0  0  0  0  0
   -1.5313    3.3961    2.6872 C   0  0  2  0  0  0  0  0  0  0  0  0
   -2.3109    2.7621    3.8316 C   0  0  0  0  0  0  0  0  0  0  0  0
   -2.8864    1.6803    3.7329 O   0  0  0  0  0  0  0  0  0  0  0  0
   -2.3587    4.4671    1.9936 C   0  0  0  0  0  0  0  0  0  0  0  0
   -1.8153    2.0748    1.0475 H   0  0  0  0  0  0  0  0  0  0  0  0
   -0.6015    3.8281    3.0732 H   0  0  0  0  0  0  0  0  0  0  0  0
   -3.2943    4.0531    1.6003 H   0  0  0  0  0  0  0  0  0  0  0  0
   -2.6197    5.2760    2.6840 H   0  0  0  0  0  0  0  0  0  0  0  0
   -1.8077    4.9013    1.1523 H   0  0  0  0  0  0  0  0  0  0  0  0
   -2.3247    3.5665    4.9625 N   0  0  0  0  0  0  0  0  0  0  0  0
   -3.0094    3.1916    6.1777 C   0  0  0  0  0  0  0  0  0  0  0  0
   -1.8047    4.4390    4.9614 H   0  0  0  0  0  0  0  0  0  0  0  0
   -4.0304    3.6007    6.1651 H   0  0  0  0  0  0  0  0  0  0  0  0
   -3.0548    2.0948    6.2493 H   0  0  0  0  0  0  0  0  0  0  0  0
   -2.4642    3.5934    7.0445 H   0  0  0  0  0  0  0  0  0  0  0  0
  1  3  1  0  0  0  0
  1  7  1  0  0  0  0
  1  2  2  0  0  0  0
 34 35  1  0  0  0  0
 35 43  1  0  0  0  0
 35 36  2  0  0  0  0
  8  9  1  0  0  0  0
  9 17  1  0  0  0  0
  9 10  2  0  0  0  0
 18 19  1  0  0  0  0
 19 33  1  0  0  0  0
 19 20  2  0  0  0  0
 22 23  1  0  0  0  0
 23 24  2  0  0  0  0
 23 25  1  0  0  0  0
 34 37  1  0  0  0  0
  8 11  1  0  0  0  0
 43 44  1  0  0  0  0
 21 22  1  0  0  0  0
 18 21  1  0  0  0  0
 33 34  1  0  0  0  0
  7  8  1  0  0  0  0
 17 18  1  0  0  0  0
  3  4  1  0  0  0  0
  3  5  1  0  0  0  0
  3  6  1  0  0  0  0
 37 40  1  0  0  0  0
 37 41  1  0  0  0  0
 37 42  1  0  0  0  0
 11 14  1  0  0  0  0
 11 15  1  0  0  0  0
 11 16  1  0  0  0  0
 44 46  1  0  0  0  0
 44 47  1  0  0  0  0
 44 48  1  0  0  0  0
 22 30  1  0  0  0  0
 22 31  1  0  0  0  0
 21 28  1  0  0  0  0
 21 29  1  0  0  0  0
 34 39  1  0  0  0  0
  8 13  1  0  0  0  0
 18 27  1  0  0  0  0
 43 45  1  0  0  0  0
  7 12  1  0  0  0  0
 33 38  1  0  0  0  0
 17 26  1  0  0  0  0
 25 32  1  0  0  0  0
M  END
$$$$

  -OEChem-05262214473D

 48 47  0     1  0  0  0  0  0999 V2000
   -5.5827   -1.3473    1.4591 C   0  0  0  0  0  0  0  0  0  0  0  0
   -5.7053   -2.4696    0.9825 O   0  0  0  0  0  0  0  0  0  0  0  0
   -6.7879   -0.6277    1.9670 C   0  0  0  0  0  0  0  0  0  0  0  0
   -7.2718   -0.0164    1.1885 H   0  0  0  0  0  0  0  0  0  0  0  0
   -7.5699   -1.3171    2.3239 H   0  0  0  0  0  0  0  0  0  0  0  0
   -6.6057    0.0628    2.8060 H   0  0  0  0  0  0  0  0  0  0  0  0
   -4.4001   -0.6377    1.5884 N   0  0  0  0  0  0  0  0  0  0  0  0
   -3.1220   -1.1455    1.1644 C   0  0  2  0  0  0  0  0  0  0  0  0
   -2.2017    0.0428    0.9187 C   0  0  0  0  0  0  0  0  0  0  0  0
   -2.6171    1.1750    0.6807 O   0  0  0  0  0  0  0  0  0  0  0  0
   -3.2533   -1.9992   -0.0873 C   0  0  0  0  0  0  0  0  0  0  0  0
   -4.4370    0.2910    2.0047 H   0  0  0  0  0  0  0  0  0  0  0  0
   -2.7302   -1.7467    1.9921 H   0  0  0  0  0  0  0  0  0  0  0  0
   -3.6446   -1.4140   -0.9275 H   0  0  0  0  0  0  0  0  0  0  0  0
   -2.2844   -2.4081   -0.3922 H   0  0  0  0  0  0  0  0  0  0  0  0
   -3.9388   -2.8365    0.0822 H   0  0  0  0  0  0  0  0  0  0  0  0
   -0.8768   -0.3314    0.9568 N   0  0  0  0  0  0  0  0  0  0  0  0
    0.2067    0.6285    0.7375 C   0  0  2  0  0  0  0  0  0  0  0  0
    0.0674    1.6908    1.8237 C   0  0  0  0  0  0  0  0  0  0  0  0
    1.0319    2.1266    2.4493 O   0  0  0  0  0  0  0  0  0  0  0  0
    0.0832    1.2192   -0.6750 C   0  0  0  0  0  0  0  0  0  0  0  0
    0.3345    0.2017   -1.7877 C   0  0  0  0  0  0  0  0  0  0  0  0
    0.1804    0.8139   -3.1576 C   0  0  0  0  0  0  0  0  0  0  0  0
   -0.2302    1.9507   -3.3537 O   0  0  0  0  0  0  0  0  0  0  0  0
    0.5201   -0.0371   -4.1569 O   0  0  0  0  0  0  0  0  0  0  0  0
   -0.6087   -1.2764    1.1771 H   0  0  0  0  0  0  0  0  0  0  0  0
    1.1612    0.1016    0.8376 H   0  0  0  0  0  0  0  0  0  0  0  0
   -0.9210    1.6453   -0.8020 H   0  0  0  0  0  0  0  0  0  0  0  0
    0.7931    2.0471   -0.8023 H   0  0  0  0  0  0  0  0  0  0  0  0
    1.3638   -0.1715   -1.7208 H   0  0  0  0  0  0  0  0  0  0  0  0
   -0.3046   -0.6817   -1.6871 H   0  0  0  0  0  0  0  0  0  0  0  0
    0.4164    0.3163   -5.0659 H   0  0  0  0  0  0  0  0  0  0  0  0
   -1.2445    2.1100    1.9880 N   0  0  0  0  0  0  0  0  0  0  0  0
   -1.6415    3.1101    2.9529 C   0  0  2  0  0  0  0  0  0  0  0  0
   -2.0729    2.3915    4.2245 C   0  0  0  0  0  0  0  0  0  0  0  0
   -2.4448    1.2200    4.2398 O   0  0  0  0  0  0  0  0  0  0  0  0
   -2.7640    3.9835    2.4146 C   0  0  0  0  0  0  0  0  0  0  0  0
   -1.9614    1.6937    1.4014 H   0  0  0  0  0  0  0  0  0  0  0  0
   -0.7549    3.7194    3.1598 H   0  0  0  0  0  0  0  0  0  0  0  0
   -3.6609    3.3904    2.2014 H   0  0  0  0  0  0  0  0  0  0  0  0
   -3.0441    4.7586    3.1355 H   0  0  0  0  0  0  0  0  0  0  0  0
   -2.4624    4.4762    1.4840 H   0  0  0  0  0  0  0  0  0  0  0  0
   -2.0349    3.2252    5.3335 N   0  0  0  0  0  0  0  0  0  0  0  0
   -2.4102    2.7813    6.6557 C   0  0  0  0  0  0  0  0  0  0  0  0
   -1.6953    4.1770    5.2317 H   0  0  0  0  0  0  0  0  0  0  0  0
   -3.4752    2.9968    6.8268 H   0  0  0  0  0  0  0  0  0  0  0  0
   -2.2369    1.6985    6.7418 H   0  0  0  0  0  0  0  0  0  0  0  0
   -1.8041    3.3105    7.4058 H   0  0  0  0  0  0  0  0  0  0  0  0
  1  3  1  0  0  0  0
  1  7  1  0  0  0  0
  1  2  2  0  0  0  0
 34 35  1  0  0  0  0
 35 43  1  0  0  0  0
 35 36  2  0  0  0  0
  8  9  1  0  0  0  0
  9 17  1  0  0  0  0
  9 10  2  0  0  0  0
 18 19  1  0  0  0  0
 19 33  1  0  0  0  0
 19 20  2  0  0  0  0
 22 23  1  0  0  0  0
 23 24  2  0  0  0  0
 23 25  1  0  0  0  0
 34 37  1  0  0  0  0
  8 11  1  0  0  0  0
 43 44  1  0  0  0  0
 21 22  1  0  0  0  0
 18 21  1  0  0  0  0
 33 34  1  0  0  0  0
  7  8  1  0  0  0  0
 17 18  1  0  0  0  0
  3  4  1  0  0  0  0
  3  5  1  0  0  0  0
  3  6  1  0  0  0  0
 37 40  1  0  0  0  0
 37 41  1  0  0  0  0
 37 42  1  0  0  0  0
 11 14  1  0  0  0  0
 11 15  1  0  0  0  0
 11 16  1  0  0  0  0
 44 46  1  0  0  0  0
 44 47  1  0  0  0  0
 44 48  1  0  0  0  0
 22 30  1  0  0  0  0
 22 31  1  0  0  0  0
 21 28  1  0  0  0  0
 21 29  1  0  0  0  0
 34 39  1  0  0  0  0
  8 13  1  0  0  0  0
 18 27  1  0  0  0  0
 43 45  1  0  0  0  0
  7 12  1  0  0  0  0
 33 38  1  0  0  0  0
 17 26  1  0  0  0  0
 25 32  1  0  0  0  0
M  END
$$$$

  -OEChem-05262214473D

 48 47  0     1  0  0  0  0  0999 V2000
   -5.5827   -1.3473    1.4591 C   0  0  0  0  0  0  0  0  0  0  0  0
   -5.7053   -2.4696    0.9825 O   0  0  0  0  0  0  0  0  0  0  0  0
   -6.7879   -0.6277    1.9670 C   0  0  0  0  0  0  0  0  0  0  0  0
   -7.2718   -0.0164    1.1885 H   0  0  0  0  0  0  0  0  0  0  0  0
   -7.5699   -1.3171    2.3239 H   0  0  0  0  0  0  0  0  0  0  0  0
   -6.6057    0.0628    2.8060 H   0  0  0  0  0  0  0  0  0  0  0  0
   -4.4001   -0.6377    1.5884 N   0  0  0  0  0  0  0  0  0  0  0  0
   -3.1220   -1.1455    1.1644 C   0  0  2  0  0  0  0  0  0  0  0  0
   -2.2017    0.0428    0.9187 C   0  0  0  0  0  0  0  0  0  0  0  0
   -2.6171    1.1750    0.6807 O   0  0  0  0  0  0  0  0  0  0  0  0
   -3.2533   -1.9992   -0.0873 C   0  0  0  0  0  0  0  0  0  0  0  0
   -4.4370    0.2910    2.0047 H   0  0  0  0  0  0  0  0  0  0  0  0
   -2.7302   -1.7467    1.9921 H   0  0  0  0  0  0  0  0  0  0  0  0
   -3.6446   -1.4140   -0.9275 H   0  0  0  0  0  0  0  0  0  0  0  0
   -2.2844   -2.4081   -0.3922 H   0  0  0  0  0  0  0  0  0  0  0  0
   -3.9388   -2.8365    0.0822 H   0  0  0  0  0  0  0  0  0  0  0  0
   -0.8768   -0.3314    0.9568 N   0  0  0  0  0  0  0  0  0  0  0  0
    0.2067    0.6285    0.7375 C   0  0  2  0  0  0  0  0  0  0  0  0
    0.0674    1.6908    1.8237 C   0  0  0  0  0  0  0  0  0  0  0  0
    1.0294    2.3199    2.2599 O   0  0  0  0  0  0  0  0  0  0  0  0
    0.0832    1.2192   -0.6750 C   0  0  0  0  0  0  0  0  0  0  0  0
    0.3345    0.2017   -1.7877 C   0  0  0  0  0  0  0  0  0  0  0  0
    0.1804    0.8139   -3.1576 C   0  0  0  0  0  0  0  0  0  0  0  0
   -0.2302    1.9507   -3.3537 O   0  0  0  0  0  0  0  0  0  0  0  0
    0.5201   -0.0371   -4.1569 O   0  0  0  0  0  0  0  0  0  0  0  0
   -0.6087   -1.2764    1.1771 H   0  0  0  0  0  0  0  0  0  0  0  0
    1.1612    0.1016    0.8376 H   0  0  0  0  0  0  0  0  0  0  0  0
   -0.9210    1.6453   -0.8020 H   0  0  0  0  0  0  0  0  0  0  0  0
    0.7931    2.0471   -0.8023 H   0  0  0  0  0  0  0  0  0  0  0  0
    1.3638   -0.1715   -1.7208 H   0  0  0  0  0  0  0  0  0  0  0  0
   -0.3046   -0.6817   -1.6871 H   0  0  0  0  0  0  0  0  0  0  0  0
    0.4164    0.3163   -5.0659 H   0  0  0  0  0  0  0  0  0  0  0  0
   -1.2491    1.8704    2.2217 N   0  0  0  0  0  0  0  0  0  0  0  0
   -1.6473    2.8197    3.2361 C   0  0  2  0  0  0  0  0  0  0  0  0
   -1.7039    2.0868    4.5699 C   0  0  0  0  0  0  0  0  0  0  0  0
   -1.8420    0.8687    4.6606 O   0  0  0  0  0  0  0  0  0  0  0  0
   -2.9906    3.4516    2.9058 C   0  0  0  0  0  0  0  0  0  0  0  0
   -1.9686    1.3071    1.7786 H   0  0  0  0  0  0  0  0  0  0  0  0
   -0.8675    3.5881    3.2737 H   0  0  0  0  0  0  0  0  0  0  0  0
   -3.7845    2.6970    2.8637 H   0  0  0  0  0  0  0  0  0  0  0  0
   -3.2774    4.1913    3.6605 H   0  0  0  0  0  0  0  0  0  0  0  0
   -2.9567    3.9529    1.9325 H   0  0  0  0  0  0  0  0  0  0  0  0
   -1.6252    2.9576    5.6477 N   0  0  0  0  0  0  0  0  0  0  0  0
   -1.6697    2.5068    7.0191 C   0  0  0  0  0  0  0  0  0  0  0  0
   -1.4926    3.9505    5.4792 H   0  0  0  0  0  0  0  0  0  0  0  0
   -2.7085    2.5315    7.3802 H   0  0  0  0  0  0  0  0  0  0  0  0
   -1.2850    1.4780    7.0795 H   0  0  0  0  0  0  0  0  0  0  0  0
   -1.0492    3.1674    7.6424 H   0  0  0  0  0  0  0  0  0  0  0  0
  1  3  1  0  0  0  0
  1  7  1  0  0  0  0
  1  2  2  0  0  0  0
 34 35  1  0  0  0  0
 35 43  1  0  0  0  0
 35 36  2  0  0  0  0
  8  9  1  0  0  0  0
  9 17  1  0  0  0  0
  9 10  2  0  0  0  0
 18 19  1  0  0  0  0
 19 33  1  0  0  0  0
 19 20  2  0  0  0  0
 22 23  1  0  0  0  0
 23 24  2  0  0  0  0
 23 25  1  0  0  0  0
 34 37  1  0  0  0  0
  8 11  1  0  0  0  0
 43 44  1  0  0  0  0
 21 22  1  0  0  0  0
 18 21  1  0  0  0  0
 33 34  1  0  0  0  0
  7  8  1  0  0  0  0
 17 18  1  0  0  0  0
  3  4  1  0  0  0  0
  3  5  1  0  0  0  0
  3  6  1  0  0  0  0
 37 40  1  0  0  0  0
 37 41  1  0  0  0  0
 37 42  1  0  0  0  0
 11 14  1  0  0  0  0
 11 15  1  0  0  0  0
 11 16  1  0  0  0  0
 44 46  1  0  0  0  0
 44 47  1  0  0  0  0
 44 48  1  0  0  0  0
 22 30  1  0  0  0  0
 22 31  1  0  0  0  0
 21 28  1  0  0  0  0
 21 29  1  0  0  0  0
 34 39  1  0  0  0  0
  8 13  1  0  0  0  0
 18 27  1  0  0  0  0
 43 45  1  0  0  0  0
  7 12  1  0  0  0  0
 33 38  1  0  0  0  0
 17 26  1  0  0  0  0
 25 32  1  0  0  0  0
M  END
$$$$

  -OEChem-05262214473D

 48 47  0     1  0  0  0  0  0999 V2000
   -5.5827   -1.3473    1.4591 C   0  0  0  0  0  0  0  0  0  0  0  0
   -5.7053   -2.4696    0.9825 O   0  0  0  0  0  0  0  0  0  0  0  0
   -6.7879   -0.6277    1.9670 C   0  0  0  0  0  0  0  0  0  0  0  0
   -7.2718   -0.0164    1.1885 H   0  0  0  0  0  0  0  0  0  0  0  0
   -7.5699   -1.3171    2.3239 H   0  0  0  0  0  0  0  0  0  0  0  0
   -6.6057    0.0628    2.8060 H   0  0  0  0  0  0  0  0  0  0  0  0
   -4.4001   -0.6377    1.5884 N   0  0  0  0  0  0  0  0  0  0  0  0
   -3.1220   -1.1455    1.1644 C   0  0  2  0  0  0  0  0  0  0  0  0
   -2.2017    0.0428    0.9187 C   0  0  0  0  0  0  0  0  0  0  0  0
   -2.6171    1.1750    0.6807 O   0  0  0  0  0  0  0  0  0  0  0  0
   -3.2533   -1.9992   -0.0873 C   0  0  0  0  0  0  0  0  0  0  0  0
   -4.4370    0.2910    2.0047 H   0  0  0  0  0  0  0  0  0  0  0  0
   -2.7302   -1.7467    1.9921 H   0  0  0  0  0  0  0  0  0  0  0  0
   -3.6446   -1.4140   -0.9275 H   0  0  0  0  0  0  0  0  0  0  0  0
   -2.2844   -2.4081   -0.3922 H   0  0  0  0  0  0  0  0  0  0  0  0
   -3.9388   -2.8365    0.0822 H   0  0  0  0  0  0  0  0  0  0  0  0
   -0.8768   -0.3314    0.9568 N   0  0  0  0  0  0  0  0  0  0  0  0
    0.2067    0.6285    0.7375 C   0  0  2  0  0  0  0  0  0  0  0  0
    0.0674    1.6908    1.8237 C   0  0  0  0  0  0  0  0  0  0  0  0
    0.9573    2.5017    2.0728 O   0  0  0  0  0  0  0  0  0  0  0  0
    0.0832    1.2192   -0.6750 C   0  0  0  0  0  0  0  0  0  0  0  0
    0.3345    0.2017   -1.7877 C   0  0  0  0  0  0  0  0  0  0  0  0
    0.1804    0.8139   -3.1576 C   0  0  0  0  0  0  0  0  0  0  0  0
   -0.2302    1.9507   -3.3537 O   0  0  0  0  0  0  0  0  0  0  0  0
    0.5201   -0.0371   -4.1569 O   0  0  0  0  0  0  0  0  0  0  0  0
   -0.6087   -1.2764    1.1771 H   0  0  0  0  0  0  0  0  0  0  0  0
    1.1612    0.1016    0.8376 H   0  0  0  0  0  0  0  0  0  0  0  0
   -0.9210    1.6453   -0.8020 H   0  0  0  0  0  0  0  0  0  0  0  0
    0.7931    2.0471   -0.8023 H   0  0  0  0  0  0  0  0  0  0  0  0
    1.3638   -0.1715   -1.7208 H   0  0  0  0  0  0  0  0  0  0  0  0
   -0.3046   -0.6817   -1.6871 H   0  0  0  0  0  0  0  0  0  0  0  0
    0.4164    0.3163   -5.0659 H   0  0  0  0  0  0  0  0  0  0  0  0
   -1.1672    1.6437    2.4540 N   0  0  0  0  0  0  0  0  0  0  0  0
   -1.5485    2.5449    3.5176 C   0  0  2  0  0  0  0  0  0  0  0  0
   -1.2290    1.8685    4.8442 C   0  0  0  0  0  0  0  0  0  0  0  0
   -1.1193    0.6503    4.9668 O   0  0  0  0  0  0  0  0  0  0  0  0
   -3.0229    2.9077    3.4336 C   0  0  0  0  0  0  0  0  0  0  0  0
   -1.8363    0.9413    2.1533 H   0  0  0  0  0  0  0  0  0  0  0  0
   -0.9315    3.4433    3.4072 H   0  0  0  0  0  0  0  0  0  0  0  0
   -3.6568    2.0200    3.5421 H   0  0  0  0  0  0  0  0  0  0  0  0
   -3.3036    3.6128    4.2229 H   0  0  0  0  0  0  0  0  0  0  0  0
   -3.2568    3.3669    2.4671 H   0  0  0  0  0  0  0  0  0  0  0  0
   -1.1235    2.7821    5.8837 N   0  0  0  0  0  0  0  0  0  0  0  0
   -0.8384    2.3867    7.2432 C   0  0  0  0  0  0  0  0  0  0  0  0
   -1.2105    3.7748    5.6872 H   0  0  0  0  0  0  0  0  0  0  0  0
   -1.7824    2.2364    7.7876 H   0  0  0  0  0  0  0  0  0  0  0  0
   -0.2642    1.4484    7.2393 H   0  0  0  0  0  0  0  0  0  0  0  0
   -0.2510    3.1739    7.7384 H   0  0  0  0  0  0  0  0  0  0  0  0
  1  3  1  0  0  0  0
  1  7  1  0  0  0  0
  1  2  2  0  0  0  0
 34 35  1  0  0  0  0
 35 43  1  0  0  0  0
 35 36  2  0  0  0  0
  8  9  1  0  0  0  0
  9 17  1  0  0  0  0
  9 10  2  0  0  0  0
 18 19  1  0  0  0  0
 19 33  1  0  0  0  0
 19 20  2  0  0  0  0
 22 23  1  0  0  0  0
 23 24  2  0  0  0  0
 23 25  1  0  0  0  0
 34 37  1  0  0  0  0
  8 11  1  0  0  0  0
 43 44  1  0  0  0  0
 21 22  1  0  0  0  0
 18 21  1  0  0  0  0
 33 34  1  0  0  0  0
  7  8  1  0  0  0  0
 17 18  1  0  0  0  0
  3  4  1  0  0  0  0
  3  5  1  0  0  0  0
  3  6  1  0  0  0  0
 37 40  1  0  0  0  0
 37 41  1  0  0  0  0
 37 42  1  0  0  0  0
 11 14  1  0  0  0  0
 11 15  1  0  0  0  0
 11 16  1  0  0  0  0
 44 46  1  0  0  0  0
 44 47  1  0  0  0  0
 44 48  1  0  0  0  0
 22 30  1  0  0  0  0
 22 31  1  0  0  0  0
 21 28  1  0  0  0  0
 21 29  1  0  0  0  0
 34 39  1  0  0  0  0
  8 13  1  0  0  0  0
 18 27  1  0  0  0  0
 43 45  1  0  0  0  0
  7 12  1  0  0  0  0
 33 38  1  0  0  0  0
 17 26  1  0  0  0  0
 25 32  1  0  0  0  0
M  END
$$$$

  -OEChem-05262214473D

 48 47  0     1  0  0  0  0  0999 V2000
   -5.5827   -1.3473    1.4591 C   0  0  0  0  0  0  0  0  0  0  0  0
   -5.7053   -2.4696    0.9825 O   0  0  0  0  0  0  0  0  0  0  0  0
   -6.7879   -0.6277    1.9670 C   0  0  0  0  0  0  0  0  0  0  0  0
   -7.2718   -0.0164    1.1885 H   0  0  0  0  0  0  0  0  0  0  0  0
   -7.5699   -1.3171    2.3239 H   0  0  0  0  0  0  0  0  0  0  0  0
   -6.6057    0.0628    2.8060 H   0  0  0  0  0  0  0  0  0  0  0  0
   -4.4001   -0.6377    1.5884 N   0  0  0  0  0  0  0  0  0  0  0  0
   -3.1220   -1.1455    1.1644 C   0  0  2  0  0  0  0  0  0  0  0  0
   -2.2017    0.0428    0.9187 C   0  0  0  0  0  0  0  0  0  0  0  0
   -2.6171    1.1750    0.6807 O   0  0  0  0  0  0  0  0  0  0  0  0
   -3.2533   -1.9992   -0.0873 C   0  0  0  0  0  0  0  0  0  0  0  0
   -4.4370    0.2910    2.0047 H   0  0  0  0  0  0  0  0  0  0  0  0
   -2.7302   -1.7467    1.9921 H   0  0  0  0  0  0  0  0  0  0  0  0
   -3.6446   -1.4140   -0.9275 H   0  0  0  0  0  0  0  0  0  0  0  0
   -2.2844   -2.4081   -0.3922 H   0  0  0  0  0  0  0  0  0  0  0  0
   -3.9388   -2.8365    0.0822 H   0  0  0  0  0  0  0  0  0  0  0  0
   -0.8768   -0.3314    0.9568 N   0  0  0  0  0  0  0  0  0  0  0  0
    0.2067    0.6285    0.7375 C   0  0  2  0  0  0  0  0  0  0  0  0
    0.0674    1.6908    1.8237 C   0  0  0  0  0  0  0  0  0  0  0  0
    0.8204    2.6596    1.9009 O   0  0  0  0  0  0  0  0  0  0  0  0
    0.0832    1.2192   -0.6750 C   0  0  0  0  0  0  0  0  0  0  0  0
    0.3345    0.2017   -1.7877 C   0  0  0  0  0  0  0  0  0  0  0  0
    0.1804    0.8139   -3.1576 C   0  0  0  0  0  0  0  0  0  0  0  0
   -0.2302    1.9507   -3.3537 O   0  0  0  0  0  0  0  0  0  0  0  0
    0.5201   -0.0371   -4.1569 O   0  0  0  0  0  0  0  0  0  0  0  0
   -0.6087   -1.2764    1.1771 H   0  0  0  0  0  0  0  0  0  0  0  0
    1.1612    0.1016    0.8376 H   0  0  0  0  0  0  0  0  0  0  0  0
   -0.9210    1.6453   -0.8020 H   0  0  0  0  0  0  0  0  0  0  0  0
    0.7931    2.0471   -0.8023 H   0  0  0  0  0  0  0  0  0  0  0  0
    1.3638   -0.1715   -1.7208 H   0  0  0  0  0  0  0  0  0  0  0  0
   -0.3046   -0.6817   -1.6871 H   0  0  0  0  0  0  0  0  0  0  0  0
    0.4164    0.3163   -5.0659 H   0  0  0  0  0  0  0  0  0  0  0  0
   -1.0045    1.4452    2.6690 N   0  0  0  0  0  0  0  0  0  0  0  0
   -1.3516    2.3043    3.7781 C   0  0  2  0  0  0  0  0  0  0  0  0
   -0.6807    1.7517    5.0288 C   0  0  0  0  0  0  0  0  0  0  0  0
   -0.3257    0.5799    5.1375 O   0  0  0  0  0  0  0  0  0  0  0  0
   -2.8588    2.3888    3.9621 C   0  0  0  0  0  0  0  0  0  0  0  0
   -1.5735    0.6211    2.5001 H   0  0  0  0  0  0  0  0  0  0  0  0
   -0.9427    3.2948    3.5510 H   0  0  0  0  0  0  0  0  0  0  0  0
   -3.2865    1.4057    4.1904 H   0  0  0  0  0  0  0  0  0  0  0  0
   -3.1210    3.0624    4.7846 H   0  0  0  0  0  0  0  0  0  0  0  0
   -3.3425    2.7582    3.0514 H   0  0  0  0  0  0  0  0  0  0  0  0
   -0.5640    2.7106    6.0254 N   0  0  0  0  0  0  0  0  0  0  0  0
    0.0272    2.4291    7.3127 C   0  0  0  0  0  0  0  0  0  0  0  0
   -0.8681    3.6621    5.8413 H   0  0  0  0  0  0  0  0  0  0  0  0
   -0.7600    2.1316    8.0211 H   0  0  0  0  0  0  0  0  0  0  0  0
    0.7562    1.6117    7.2104 H   0  0  0  0  0  0  0  0  0  0  0  0
    0.5360    3.3296    7.6871 H   0  0  0  0  0  0  0  0  0  0  0  0
  1  3  1  0  0  0  0
  1  7  1  0  0  0  0
  1  2  2  0  0  0  0
 34 35  1  0  0  0  0
 35 43  1  0  0  0  0
 35 36  2  0  0  0  0
  8  9  1  0  0  0  0
  9 17  1  0  0  0  0
  9 10  2  0  0  0  0
 18 19  1  0  0  0  0
 19 33  1  0  0  0  0
 19 20  2  0  0  0  0
 22 23  1  0  0  0  0
 23 24  2  0  0  0  0
 23 25  1  0  0  0  0
 34 37  1  0  0  0  0
  8 11  1  0  0  0  0
 43 44  1  0  0  0  0
 21 22  1  0  0  0  0
 18 21  1  0  0  0  0
 33 34  1  0  0  0  0
  7  8  1  0  0  0  0
 17 18  1  0  0  0  0
  3  4  1  0  0  0  0
  3  5  1  0  0  0  0
  3  6  1  0  0  0  0
 37 40  1  0  0  0  0
 37 41  1  0  0  0  0
 37 42  1  0  0  0  0
 11 14  1  0  0  0  0
 11 15  1  0  0  0  0
 11 16  1  0  0  0  0
 44 46  1  0  0  0  0
 44 47  1  0  0  0  0
 44 48  1  0  0  0  0
 22 30  1  0  0  0  0
 22 31  1  0  0  0  0
 21 28  1  0  0  0  0
 21 29  1  0  0  0  0
 34 39  1  0  0  0  0
  8 13  1  0  0  0  0
 18 27  1  0  0  0  0
 43 45  1  0  0  0  0
  7 12  1  0  0  0  0
 33 38  1  0  0  0  0
 17 26  1  0  0  0  0
 25 32  1  0  0  0  0
M  END
$$$$

  -OEChem-05262214473D

 48 47  0     1  0  0  0  0  0999 V2000
   -5.5827   -1.3473    1.4591 C   0  0  0  0  0  0  0  0  0  0  0  0
   -5.7053   -2.4696    0.9825 O   0  0  0  0  0  0  0  0  0  0  0  0
   -6.7879   -0.6277    1.9670 C   0  0  0  0  0  0  0  0  0  0  0  0
   -7.2718   -0.0164    1.1885 H   0  0  0  0  0  0  0  0  0  0  0  0
   -7.5699   -1.3171    2.3239 H   0  0  0  0  0  0  0  0  0  0  0  0
   -6.6057    0.0628    2.8060 H   0  0  0  0  0  0  0  0  0  0  0  0
   -4.4001   -0.6377    1.5884 N   0  0  0  0  0  0  0  0  0  0  0  0
   -3.1220   -1.1455    1.1644 C   0  0  2  0  0  0  0  0  0  0  0  0
   -2.2017    0.0428    0.9187 C   0  0  0  0  0  0  0  0  0  0  0  0
   -2.6171    1.1750    0.6807 O   0  0  0  0  0  0  0  0  0  0  0  0
   -3.2533   -1.9992   -0.0873 C   0  0  0  0  0  0  0  0  0  0  0  0
   -4.4370    0.2910    2.0047 H   0  0  0  0  0  0  0  0  0  0  0  0
   -2.7302   -1.7467    1.9921 H   0  0  0  0  0  0  0  0  0  0  0  0
   -3.6446   -1.4140   -0.9275 H   0  0  0  0  0  0  0  0  0  0  0  0
   -2.2844   -2.4081   -0.3922 H   0  0  0  0  0  0  0  0  0  0  0  0
   -3.9388   -2.8365    0.0822 H   0  0  0  0  0  0  0  0  0  0  0  0
   -0.8768   -0.3314    0.9568 N   0  0  0  0  0  0  0  0  0  0  0  0
    0.2067    0.6285    0.7375 C   0  0  2  0  0  0  0  0  0  0  0  0
    0.0674    1.6908    1.8237 C   0  0  0  0  0  0  0  0  0  0  0  0
    0.6281    2.7828    1.7557 O   0  0  0  0  0  0  0  0  0  0  0  0
    0.0832    1.2192   -0.6750 C   0  0  0  0  0  0  0  0  0  0  0  0
    0.3345    0.2017   -1.7877 C   0  0  0  0  0  0  0  0  0  0  0  0
    0.1804    0.8139   -3.1576 C   0  0  0  0  0  0  0  0  0  0  0  0
   -0.2302    1.9507   -3.3537 O   0  0  0  0  0  0  0  0  0  0  0  0
    0.5201   -0.0371   -4.1569 O   0  0  0  0  0  0  0  0  0  0  0  0
   -0.6087   -1.2764    1.1771 H   0  0  0  0  0  0  0  0  0  0  0  0
    1.1612    0.1016    0.8376 H   0  0  0  0  0  0  0  0  0  0  0  0
   -0.9210    1.6453   -0.8020 H   0  0  0  0  0  0  0  0  0  0  0  0
    0.7931    2.0471   -0.8023 H   0  0  0  0  0  0  0  0  0  0  0  0
    1.3638   -0.1715   -1.7208 H   0  0  0  0  0  0  0  0  0  0  0  0
   -0.3046   -0.6817   -1.6871 H   0  0  0  0  0  0  0  0  0  0  0  0
    0.4164    0.3163   -5.0659 H   0  0  0  0  0  0  0  0  0  0  0  0
   -0.7721    1.2886    2.8520 N   0  0  0  0  0  0  0  0  0  0  0  0
   -1.0701    2.1143    4.0000 C   0  0  2  0  0  0  0  0  0  0  0  0
   -0.0963    1.7443    5.1110 C   0  0  0  0  0  0  0  0  0  0  0  0
    0.4845    0.6620    5.1610 O   0  0  0  0  0  0  0  0  0  0  0  0
   -2.5094    1.9303    4.4553 C   0  0  0  0  0  0  0  0  0  0  0  0
   -1.1983    0.3685    2.7953 H   0  0  0  0  0  0  0  0  0  0  0  0
   -0.9001    3.1527    3.6954 H   0  0  0  0  0  0  0  0  0  0  0  0
   -2.6987    0.8959    4.7644 H   0  0  0  0  0  0  0  0  0  0  0  0
   -2.7419    2.5776    5.3073 H   0  0  0  0  0  0  0  0  0  0  0  0
   -3.2077    2.1683    3.6456 H   0  0  0  0  0  0  0  0  0  0  0  0
    0.0151    2.7479    6.0631 N   0  0  0  0  0  0  0  0  0  0  0  0
    0.8679    2.6312    7.2228 C   0  0  0  0  0  0  0  0  0  0  0  0
   -0.4889    3.6199    5.9312 H   0  0  0  0  0  0  0  0  0  0  0  0
    0.2889    2.2243    8.0650 H   0  0  0  0  0  0  0  0  0  0  0  0
    1.7065    1.9568    6.9948 H   0  0  0  0  0  0  0  0  0  0  0  0
    1.2583    3.6237    7.4921 H   0  0  0  0  0  0  0  0  0  0  0  0
  1  3  1  0  0  0  0
  1  7  1  0  0  0  0
  1  2  2  0  0  0  0
 34 35  1  0  0  0  0
 35 43  1  0  0  0  0
 35 36  2  0  0  0  0
  8  9  1  0  0  0  0
  9 17  1  0  0  0  0
  9 10  2  0  0  0  0
 18 19  1  0  0  0  0
 19 33  1  0  0  0  0
 19 20  2  0  0  0  0
 22 23  1  0  0  0  0
 23 24  2  0  0  0  0
 23 25  1  0  0  0  0
 34 37  1  0  0  0  0
  8 11  1  0  0  0  0
 43 44  1  0  0  0  0
 21 22  1  0  0  0  0
 18 21  1  0  0  0  0
 33 34  1  0  0  0  0
  7  8  1  0  0  0  0
 17 18  1  0  0  0  0
  3  4  1  0  0  0  0
  3  5  1  0  0  0  0
  3  6  1  0  0  0  0
 37 40  1  0  0  0  0
 37 41  1  0  0  0  0
 37 42  1  0  0  0  0
 11 14  1  0  0  0  0
 11 15  1  0  0  0  0
 11 16  1  0  0  0  0
 44 46  1  0  0  0  0
 44 47  1  0  0  0  0
 44 48  1  0  0  0  0
 22 30  1  0  0  0  0
 22 31  1  0  0  0  0
 21 28  1  0  0  0  0
 21 29  1  0  0  0  0
 34 39  1  0  0  0  0
  8 13  1  0  0  0  0
 18 27  1  0  0  0  0
 43 45  1  0  0  0  0
  7 12  1  0  0  0  0
 33 38  1  0  0  0  0
 17 26  1  0  0  0  0
 25 32  1  0  0  0  0
M  END
$$$$

  -OEChem-05262214473D

 48 47  0     1  0  0  0  0  0999 V2000
   -5.5827   -1.3473    1.4591 C   0  0  0  0  0  0  0  0  0  0  0  0
   -5.7053   -2.4696    0.9825 O   0  0  0  0  0  0  0  0  0  0  0  0
   -6.7879   -0.6277    1.9670 C   0  0  0  0  0  0  0  0  0  0  0  0
   -7.2718   -0.0164    1.1885 H   0  0  0  0  0  0  0  0  0  0  0  0
   -7.5699   -1.3171    2.3239 H   0  0  0  0  0  0  0  0  0  0  0  0
   -6.6057    0.0628    2.8060 H   0  0  0  0  0  0  0  0  0  0  0  0
   -4.4001   -0.6377    1.5884 N   0  0  0  0  0  0  0  0  0  0  0  0
   -3.1220   -1.1455    1.1644 C   0  0  2  0  0  0  0  0  0  0  0  0
   -2.2017    0.0428    0.9187 C   0  0  0  0  0  0  0  0  0  0  0  0
   -2.6171    1.1750    0.6807 O   0  0  0  0  0  0  0  0  0  0  0  0
   -3.2533   -1.9992   -0.0873 C   0  0  0  0  0  0  0  0  0  0  0  0
   -4.4370    0.2910    2.0047 H   0  0  0  0  0  0  0  0  0  0  0  0
   -2.7302   -1.7467    1.9921 H   0  0  0  0  0  0  0  0  0  0  0  0
   -3.6446   -1.4140   -0.9275 H   0  0  0  0  0  0  0  0  0  0  0  0
   -2.2844   -2.4081   -0.3922 H   0  0  0  0  0  0  0  0  0  0  0  0
   -3.9388   -2.8365    0.0822 H   0  0  0  0  0  0  0  0  0  0  0  0
   -0.8768   -0.3314    0.9568 N   0  0  0  0  0  0  0  0  0  0  0  0
    0.2067    0.6285    0.7375 C   0  0  2  0  0  0  0  0  0  0  0  0
    0.0674    1.6908    1.8237 C   0  0  0  0  0  0  0  0  0  0  0  0
    0.3934    2.8630    1.6472 O   0  0  0  0  0  0  0  0  0  0  0  0
    0.0832    1.2192   -0.6750 C   0  0  0  0  0  0  0  0  0  0  0  0
    0.3345    0.2017   -1.7877 C   0  0  0  0  0  0  0  0  0  0  0  0
    0.1804    0.8139   -3.1576 C   0  0  0  0  0  0  0  0  0  0  0  0
   -0.2302    1.9507   -3.3537 O   0  0  0  0  0  0  0  0  0  0  0  0
    0.5201   -0.0371   -4.1569 O   0  0  0  0  0  0  0  0  0  0  0  0
   -0.6087   -1.2764    1.1771 H   0  0  0  0  0  0  0  0  0  0  0  0
    1.1612    0.1016    0.8376 H   0  0  0  0  0  0  0  0  0  0  0  0
   -0.9210    1.6453   -0.8020 H   0  0  0  0  0  0  0  0  0  0  0  0
    0.7931    2.0471   -0.8023 H   0  0  0  0  0  0  0  0  0  0  0  0
    1.3638   -0.1715   -1.7208 H   0  0  0  0  0  0  0  0  0  0  0  0
   -0.3046   -0.6817   -1.6871 H   0  0  0  0  0  0  0  0  0  0  0  0
    0.4164    0.3163   -5.0659 H   0  0  0  0  0  0  0  0  0  0  0  0
   -0.4857    1.1844    2.9905 N   0  0  0  0  0  0  0  0  0  0  0  0
   -0.7232    1.9879    4.1681 C   0  0  2  0  0  0  0  0  0  0  0  0
    0.4844    1.8467    5.0852 C   0  0  0  0  0  0  0  0  0  0  0  0
    1.2562    0.8913    5.0358 O   0  0  0  0  0  0  0  0  0  0  0  0
   -1.9986    1.5635    4.8795 C   0  0  0  0  0  0  0  0  0  0  0  0
   -0.7360    0.2006    3.0188 H   0  0  0  0  0  0  0  0  0  0  0  0
   -0.8068    3.0267    3.8306 H   0  0  0  0  0  0  0  0  0  0  0  0
   -1.9336    0.5252    5.2249 H   0  0  0  0  0  0  0  0  0  0  0  0
   -2.1922    2.1916    5.7553 H   0  0  0  0  0  0  0  0  0  0  0  0
   -2.8618    1.6373    4.2092 H   0  0  0  0  0  0  0  0  0  0  0  0
    0.5744    2.8916    5.9943 N   0  0  0  0  0  0  0  0  0  0  0  0
    1.6266    2.9792    6.9798 C   0  0  0  0  0  0  0  0  0  0  0  0
   -0.0986    3.6511    5.9507 H   0  0  0  0  0  0  0  0  0  0  0  0
    1.2928    2.5081    7.9161 H   0  0  0  0  0  0  0  0  0  0  0  0
    2.5219    2.4601    6.6071 H   0  0  0  0  0  0  0  0  0  0  0  0
    1.8667    4.0363    7.1666 H   0  0  0  0  0  0  0  0  0  0  0  0
  1  3  1  0  0  0  0
  1  7  1  0  0  0  0
  1  2  2  0  0  0  0
 34 35  1  0  0  0  0
 35 43  1  0  0  0  0
 35 36  2  0  0  0  0
  8  9  1  0  0  0  0
  9 17  1  0  0  0  0
  9 10  2  0  0  0  0
 18 19  1  0  0  0  0
 19 33  1  0  0  0  0
 19 20  2  0  0  0  0
 22 23  1  0  0  0  0
 23 24  2  0  0  0  0
 23 25  1  0  0  0  0
 34 37  1  0  0  0  0
  8 11  1  0  0  0  0
 43 44  1  0  0  0  0
 21 22  1  0  0  0  0
 18 21  1  0  0  0  0
 33 34  1  0  0  0  0
  7  8  1  0  0  0  0
 17 18  1  0  0  0  0
  3  4  1  0  0  0  0
  3  5  1  0  0  0  0
  3  6  1  0  0  0  0
 37 40  1  0  0  0  0
 37 41  1  0  0  0  0
 37 42  1  0  0  0  0
 11 14  1  0  0  0  0
 11 15  1  0  0  0  0
 11 16  1  0  0  0  0
 44 46  1  0  0  0  0
 44 47  1  0  0  0  0
 44 48  1  0  0  0  0
 22 30  1  0  0  0  0
 22 31  1  0  0  0  0
 21 28  1  0  0  0  0
 21 29  1  0  0  0  0
 34 39  1  0  0  0  0
  8 13  1  0  0  0  0
 18 27  1  0  0  0  0
 43 45  1  0  0  0  0
  7 12  1  0  0  0  0
 33 38  1  0  0  0  0
 17 26  1  0  0  0  0
 25 32  1  0  0  0  0
M  END
$$$$

  -OEChem-05262214473D

 48 47  0     1  0  0  0  0  0999 V2000
   -5.5827   -1.3473    1.4591 C   0  0  0  0  0  0  0  0  0  0  0  0
   -5.7053   -2.4696    0.9825 O   0  0  0  0  0  0  0  0  0  0  0  0
   -6.7879   -0.6277    1.9670 C   0  0  0  0  0  0  0  0  0  0  0  0
   -7.2718   -0.0164    1.1885 H   0  0  0  0  0  0  0  0  0  0  0  0
   -7.5699   -1.3171    2.3239 H   0  0  0  0  0  0  0  0  0  0  0  0
   -6.6057    0.0628    2.8060 H   0  0  0  0  0  0  0  0  0  0  0  0
   -4.4001   -0.6377    1.5884 N   0  0  0  0  0  0  0  0  0  0  0  0
   -3.1220   -1.1455    1.1644 C   0  0  2  0  0  0  0  0  0  0  0  0
   -2.2017    0.0428    0.9187 C   0  0  0  0  0  0  0  0  0  0  0  0
   -2.6171    1.1750    0.6807 O   0  0  0  0  0  0  0  0  0  0  0  0
   -3.2533   -1.9992   -0.0873 C   0  0  0  0  0  0  0  0  0  0  0  0
   -4.4370    0.2910    2.0047 H   0  0  0  0  0  0  0  0  0  0  0  0
   -2.7302   -1.7467    1.9921 H   0  0  0  0  0  0  0  0  0  0  0  0
   -3.6446   -1.4140   -0.9275 H   0  0  0  0  0  0  0  0  0  0  0  0
   -2.2844   -2.4081   -0.3922 H   0  0  0  0  0  0  0  0  0  0  0  0
   -3.9388   -2.8365    0.0822 H   0  0  0  0  0  0  0  0  0  0  0  0
   -0.8768   -0.3314    0.9568 N   0  0  0  0  0  0  0  0  0  0  0  0
    0.2067    0.6285    0.7375 C   0  0  2  0  0  0  0  0  0  0  0  0
    0.0674    1.6908    1.8237 C   0  0  0  0  0  0  0  0  0  0  0  0
    0.1325    2.8946    1.5828 O   0  0  0  0  0  0  0  0  0  0  0  0
    0.0832    1.2192   -0.6750 C   0  0  0  0  0  0  0  0  0  0  0  0
    0.3345    0.2017   -1.7877 C   0  0  0  0  0  0  0  0  0  0  0  0
    0.1804    0.8139   -3.1576 C   0  0  0  0  0  0  0  0  0  0  0  0
   -0.2302    1.9507   -3.3537 O   0  0  0  0  0  0  0  0  0  0  0  0
    0.5201   -0.0371   -4.1569 O   0  0  0  0  0  0  0  0  0  0  0  0
   -0.6087   -1.2764    1.1771 H   0  0  0  0  0  0  0  0  0  0  0  0
    1.1612    0.1016    0.8376 H   0  0  0  0  0  0  0  0  0  0  0  0
   -0.9210    1.6453   -0.8020 H   0  0  0  0  0  0  0  0  0  0  0  0
    0.7931    2.0471   -0.8023 H   0  0  0  0  0  0  0  0  0  0  0  0
    1.3638   -0.1715   -1.7208 H   0  0  0  0  0  0  0  0  0  0  0  0
   -0.3046   -0.6817   -1.6871 H   0  0  0  0  0  0  0  0  0  0  0  0
    0.4164    0.3163   -5.0659 H   0  0  0  0  0  0  0  0  0  0  0  0
   -0.1649    1.1399    3.0752 N   0  0  0  0  0  0  0  0  0  0  0  0
   -0.3346    1.9337    4.2709 C   0  0  2  0  0  0  0  0  0  0  0  0
    1.0218    2.0521    4.9533 C   0  0  0  0  0  0  0  0  0  0  0  0
    1.9369    1.2519    4.7703 O   0  0  0  0  0  0  0  0  0  0  0  0
   -1.3611    1.3133    5.2059 C   0  0  0  0  0  0  0  0  0  0  0  0
   -0.2184    0.1289    3.1553 H   0  0  0  0  0  0  0  0  0  0  0  0
   -0.6691    2.9254    3.9474 H   0  0  0  0  0  0  0  0  0  0  0  0
   -1.0433    0.3191    5.5407 H   0  0  0  0  0  0  0  0  0  0  0  0
   -1.5095    1.9307    6.0980 H   0  0  0  0  0  0  0  0  0  0  0  0
   -2.3282    1.2015    4.7039 H   0  0  0  0  0  0  0  0  0  0  0  0
    1.0757    3.1318    5.8236 N   0  0  0  0  0  0  0  0  0  0  0  0
    2.2514    3.4494    6.6000 C   0  0  0  0  0  0  0  0  0  0  0  0
    0.2761    3.7537    5.8984 H   0  0  0  0  0  0  0  0  0  0  0  0
    2.1835    2.9638    7.5847 H   0  0  0  0  0  0  0  0  0  0  0  0
    3.1470    3.0874    6.0738 H   0  0  0  0  0  0  0  0  0  0  0  0
    2.3196    4.5393    6.7328 H   0  0  0  0  0  0  0  0  0  0  0  0
  1  3  1  0  0  0  0
  1  7  1  0  0  0  0
  1  2  2  0  0  0  0
 34 35  1  0  0  0  0
 35 43  1  0  0  0  0
 35 36  2  0  0  0  0
  8  9  1  0  0  0  0
  9 17  1  0  0  0  0
  9 10  2  0  0  0  0
 18 19  1  0  0  0  0
 19 33  1  0  0  0  0
 19 20  2  0  0  0  0
 22 23  1  0  0  0  0
 23 24  2  0  0  0  0
 23 25  1  0  0  0  0
 34 37  1  0  0  0  0
  8 11  1  0  0  0  0
 43 44  1  0  0  0  0
 21 22  1  0  0  0  0
 18 21  1  0  0  0  0
 33 34  1  0  0  0  0
  7  8  1  0  0  0  0
 17 18  1  0  0  0  0
  3  4  1  0  0  0  0
  3  5  1  0  0  0  0
  3  6  1  0  0  0  0
 37 40  1  0  0  0  0
 37 41  1  0  0  0  0
 37 42  1  0  0  0  0
 11 14  1  0  0  0  0
 11 15  1  0  0  0  0
 11 16  1  0  0  0  0
 44 46  1  0  0  0  0
 44 47  1  0  0  0  0
 44 48  1  0  0  0  0
 22 30  1  0  0  0  0
 22 31  1  0  0  0  0
 21 28  1  0  0  0  0
 21 29  1  0  0  0  0
 34 39  1  0  0  0  0
  8 13  1  0  0  0  0
 18 27  1  0  0  0  0
 43 45  1  0  0  0  0
  7 12  1  0  0  0  0
 33 38  1  0  0  0  0
 17 26  1  0  0  0  0
 25 32  1  0  0  0  0
M  END
$$$$

  -OEChem-05262214473D

 48 47  0     1  0  0  0  0  0999 V2000
   -5.5827   -1.3473    1.4591 C   0  0  0  0  0  0  0  0  0  0  0  0
   -5.7053   -2.4696    0.9825 O   0  0  0  0  0  0  0  0  0  0  0  0
   -6.7879   -0.6277    1.9670 C   0  0  0  0  0  0  0  0  0  0  0  0
   -7.2718   -0.0164    1.1885 H   0  0  0  0  0  0  0  0  0  0  0  0
   -7.5699   -1.3171    2.3239 H   0  0  0  0  0  0  0  0  0  0  0  0
   -6.6057    0.0628    2.8060 H   0  0  0  0  0  0  0  0  0  0  0  0
   -4.4001   -0.6377    1.5884 N   0  0  0  0  0  0  0  0  0  0  0  0
   -3.1220   -1.1455    1.1644 C   0  0  2  0  0  0  0  0  0  0  0  0
   -2.2017    0.0428    0.9187 C   0  0  0  0  0  0  0  0  0  0  0  0
   -2.6171    1.1750    0.6807 O   0  0  0  0  0  0  0  0  0  0  0  0
   -3.2533   -1.9992   -0.0873 C   0  0  0  0  0  0  0  0  0  0  0  0
   -4.4370    0.2910    2.0047 H   0  0  0  0  0  0  0  0  0  0  0  0
   -2.7302   -1.7467    1.9921 H   0  0  0  0  0  0  0  0  0  0  0  0
   -3.6446   -1.4140   -0.9275 H   0  0  0  0  0  0  0  0  0  0  0  0
   -2.2844   -2.4081   -0.3922 H   0  0  0  0  0  0  0  0  0  0  0  0
   -3.9388   -2.8365    0.0822 H   0  0  0  0  0  0  0  0  0  0  0  0
   -0.8768   -0.3314    0.9568 N   0  0  0  0  0  0  0  0  0  0  0  0
    0.2067    0.6285    0.7375 C   0  0  2  0  0  0  0  0  0  0  0  0
    0.0674    1.6908    1.8237 C   0  0  0  0  0  0  0  0  0  0  0  0
   -0.1370    2.8756    1.5669 O   0  0  0  0  0  0  0  0  0  0  0  0
    0.0832    1.2192   -0.6750 C   0  0  0  0  0  0  0  0  0  0  0  0
    0.3345    0.2017   -1.7877 C   0  0  0  0  0  0  0  0  0  0  0  0
    0.1804    0.8139   -3.1576 C   0  0  0  0  0  0  0  0  0  0  0  0
   -0.2302    1.9507   -3.3537 O   0  0  0  0  0  0  0  0  0  0  0  0
    0.5201   -0.0371   -4.1569 O   0  0  0  0  0  0  0  0  0  0  0  0
   -0.6087   -1.2764    1.1771 H   0  0  0  0  0  0  0  0  0  0  0  0
    1.1612    0.1016    0.8376 H   0  0  0  0  0  0  0  0  0  0  0  0
   -0.9210    1.6453   -0.8020 H   0  0  0  0  0  0  0  0  0  0  0  0
    0.7931    2.0471   -0.8023 H   0  0  0  0  0  0  0  0  0  0  0  0
    1.3638   -0.1715   -1.7208 H   0  0  0  0  0  0  0  0  0  0  0  0
   -0.3046   -0.6817   -1.6871 H   0  0  0  0  0  0  0  0  0  0  0  0
    0.4164    0.3163   -5.0659 H   0  0  0  0  0  0  0  0  0  0  0  0
    0.1684    1.1579    3.1003 N   0  0  0  0  0  0  0  0  0  0  0  0
    0.0693    1.9554    4.3015 C   0  0  2  0  0  0  0  0  0  0  0  0
    1.4793    2.3463    4.7242 C   0  0  0  0  0  0  0  0  0  0  0  0
    2.4800    1.7194    4.3827 O   0  0  0  0  0  0  0  0  0  0  0  0
   -0.6404    1.1968    5.4122 C   0  0  0  0  0  0  0  0  0  0  0  0
    0.3195    0.1582    3.1956 H   0  0  0  0  0  0  0  0  0  0  0  0
   -0.4964    2.8556    4.0377 H   0  0  0  0  0  0  0  0  0  0  0  0
   -0.0884    0.2916    5.6901 H   0  0  0  0  0  0  0  0  0  0  0  0
   -0.7401    1.8125    6.3123 H   0  0  0  0  0  0  0  0  0  0  0  0
   -1.6434    0.8906    5.0958 H   0  0  0  0  0  0  0  0  0  0  0  0
    1.4850    3.4522    5.5628 N   0  0  0  0  0  0  0  0  0  0  0  0
    2.6999    4.0098    6.1095 C   0  0  0  0  0  0  0  0  0  0  0  0
    0.6097    3.9206    5.7780 H   0  0  0  0  0  0  0  0  0  0  0  0
    2.9001    3.5602    7.0933 H   0  0  0  0  0  0  0  0  0  0  0  0
    3.5391    3.7959    5.4312 H   0  0  0  0  0  0  0  0  0  0  0  0
    2.5863    5.0983    6.2202 H   0  0  0  0  0  0  0  0  0  0  0  0
  1  3  1  0  0  0  0
  1  7  1  0  0  0  0
  1  2  2  0  0  0  0
 34 35  1  0  0  0  0
 35 43  1  0  0  0  0
 35 36  2  0  0  0  0
  8  9  1  0  0  0  0
  9 17  1  0  0  0  0
  9 10  2  0  0  0  0
 18 19  1  0  0  0  0
 19 33  1  0  0  0  0
 19 20  2  0  0  0  0
 22 23  1  0  0  0  0
 23 24  2  0  0  0  0
 23 25  1  0  0  0  0
 34 37  1  0  0  0  0
  8 11  1  0  0  0  0
 43 44  1  0  0  0  0
 21 22  1  0  0  0  0
 18 21  1  0  0  0  0
 33 34  1  0  0  0  0
  7  8  1  0  0  0  0
 17 18  1  0  0  0  0
  3  4  1  0  0  0  0
  3  5  1  0  0  0  0
  3  6  1  0  0  0  0
 37 40  1  0  0  0  0
 37 41  1  0  0  0  0
 37 42  1  0  0  0  0
 11 14  1  0  0  0  0
 11 15  1  0  0  0  0
 11 16  1  0  0  0  0
 44 46  1  0  0  0  0
 44 47  1  0  0  0  0
 44 48  1  0  0  0  0
 22 30  1  0  0  0  0
 22 31  1  0  0  0  0
 21 28  1  0  0  0  0
 21 29  1  0  0  0  0
 34 39  1  0  0  0  0
  8 13  1  0  0  0  0
 18 27  1  0  0  0  0
 43 45  1  0  0  0  0
  7 12  1  0  0  0  0
 33 38  1  0  0  0  0
 17 26  1  0  0  0  0
 25 32  1  0  0  0  0
M  END
$$$$

  -OEChem-05262214473D

 48 47  0     1  0  0  0  0  0999 V2000
   -5.5827   -1.3473    1.4591 C   0  0  0  0  0  0  0  0  0  0  0  0
   -5.7053   -2.4696    0.9825 O   0  0  0  0  0  0  0  0  0  0  0  0
   -6.7879   -0.6277    1.9670 C   0  0  0  0  0  0  0  0  0  0  0  0
   -7.2718   -0.0164    1.1885 H   0  0  0  0  0  0  0  0  0  0  0  0
   -7.5699   -1.3171    2.3239 H   0  0  0  0  0  0  0  0  0  0  0  0
   -6.6057    0.0628    2.8060 H   0  0  0  0  0  0  0  0  0  0  0  0
   -4.4001   -0.6377    1.5884 N   0  0  0  0  0  0  0  0  0  0  0  0
   -3.1220   -1.1455    1.1644 C   0  0  2  0  0  0  0  0  0  0  0  0
   -2.2017    0.0428    0.9187 C   0  0  0  0  0  0  0  0  0  0  0  0
   -2.6171    1.1750    0.6807 O   0  0  0  0  0  0  0  0  0  0  0  0
   -3.2533   -1.9992   -0.0873 C   0  0  0  0  0  0  0  0  0  0  0  0
   -4.4370    0.2910    2.0047 H   0  0  0  0  0  0  0  0  0  0  0  0
   -2.7302   -1.7467    1.9921 H   0  0  0  0  0  0  0  0  0  0  0  0
   -3.6446   -1.4140   -0.9275 H   0  0  0  0  0  0  0  0  0  0  0  0
   -2.2844   -2.4081   -0.3922 H   0  0  0  0  0  0  0  0  0  0  0  0
   -3.9388   -2.8365    0.0822 H   0  0  0  0  0  0  0  0  0  0  0  0
   -0.8768   -0.3314    0.9568 N   0  0  0  0  0  0  0  0  0  0  0  0
    0.2067    0.6285    0.7375 C   0  0  2  0  0  0  0  0  0  0  0  0
    0.0674    1.6908    1.8237 C   0  0  0  0  0  0  0  0  0  0  0  0
   -0.3967    2.8072    1.6005 O   0  0  0  0  0  0  0  0  0  0  0  0
    0.0832    1.2192   -0.6750 C   0  0  0  0  0  0  0  0  0  0  0  0
    0.3345    0.2017   -1.7877 C   0  0  0  0  0  0  0  0  0  0  0  0
    0.1804    0.8139   -3.1576 C   0  0  0  0  0  0  0  0  0  0  0  0
   -0.2302    1.9507   -3.3537 O   0  0  0  0  0  0  0  0  0  0  0  0
    0.5201   -0.0371   -4.1569 O   0  0  0  0  0  0  0  0  0  0  0  0
   -0.6087   -1.2764    1.1771 H   0  0  0  0  0  0  0  0  0  0  0  0
    1.1612    0.1016    0.8376 H   0  0  0  0  0  0  0  0  0  0  0  0
   -0.9210    1.6453   -0.8020 H   0  0  0  0  0  0  0  0  0  0  0  0
    0.7931    2.0471   -0.8023 H   0  0  0  0  0  0  0  0  0  0  0  0
    1.3638   -0.1715   -1.7208 H   0  0  0  0  0  0  0  0  0  0  0  0
   -0.3046   -0.6817   -1.6871 H   0  0  0  0  0  0  0  0  0  0  0  0
    0.4164    0.3163   -5.0659 H   0  0  0  0  0  0  0  0  0  0  0  0
    0.4916    1.2374    3.0640 N   0  0  0  0  0  0  0  0  0  0  0  0
    0.4610    2.0515    4.2578 C   0  0  2  0  0  0  0  0  0  0  0  0
    1.8256    2.7094    4.4135 C   0  0  0  0  0  0  0  0  0  0  0  0
    2.8486    2.2620    3.8994 O   0  0  0  0  0  0  0  0  0  0  0  0
    0.1143    1.2220    5.4844 C   0  0  0  0  0  0  0  0  0  0  0  0
    0.8409    0.2866    3.1369 H   0  0  0  0  0  0  0  0  0  0  0  0
   -0.3004    2.8222    4.0955 H   0  0  0  0  0  0  0  0  0  0  0  0
    0.8659    0.4444    5.6630 H   0  0  0  0  0  0  0  0  0  0  0  0
    0.0635    1.8452    6.3833 H   0  0  0  0  0  0  0  0  0  0  0  0
   -0.8540    0.7257    5.3583 H   0  0  0  0  0  0  0  0  0  0  0  0
    1.7742    3.8309    5.2295 N   0  0  0  0  0  0  0  0  0  0  0  0
    2.9415    4.6221    5.5416 C   0  0  0  0  0  0  0  0  0  0  0  0
    0.8796    4.1404    5.5976 H   0  0  0  0  0  0  0  0  0  0  0  0
    3.3938    4.2567    6.4754 H   0  0  0  0  0  0  0  0  0  0  0  0
    3.6714    4.5373    4.7231 H   0  0  0  0  0  0  0  0  0  0  0  0
    2.6485    5.6753    5.6639 H   0  0  0  0  0  0  0  0  0  0  0  0
  1  3  1  0  0  0  0
  1  7  1  0  0  0  0
  1  2  2  0  0  0  0
 34 35  1  0  0  0  0
 35 43  1  0  0  0  0
 35 36  2  0  0  0  0
  8  9  1  0  0  0  0
  9 17  1  0  0  0  0
  9 10  2  0  0  0  0
 18 19  1  0  0  0  0
 19 33  1  0  0  0  0
 19 20  2  0  0  0  0
 22 23  1  0  0  0  0
 23 24  2  0  0  0  0
 23 25  1  0  0  0  0
 34 37  1  0  0  0  0
  8 11  1  0  0  0  0
 43 44  1  0  0  0  0
 21 22  1  0  0  0  0
 18 21  1  0  0  0  0
 33 34  1  0  0  0  0
  7  8  1  0  0  0  0
 17 18  1  0  0  0  0
  3  4  1  0  0  0  0
  3  5  1  0  0  0  0
  3  6  1  0  0  0  0
 37 40  1  0  0  0  0
 37 41  1  0  0  0  0
 37 42  1  0  0  0  0
 11 14  1  0  0  0  0
 11 15  1  0  0  0  0
 11 16  1  0  0  0  0
 44 46  1  0  0  0  0
 44 47  1  0  0  0  0
 44 48  1  0  0  0  0
 22 30  1  0  0  0  0
 22 31  1  0  0  0  0
 21 28  1  0  0  0  0
 21 29  1  0  0  0  0
 34 39  1  0  0  0  0
  8 13  1  0  0  0  0
 18 27  1  0  0  0  0
 43 45  1  0  0  0  0
  7 12  1  0  0  0  0
 33 38  1  0  0  0  0
 17 26  1  0  0  0  0
 25 32  1  0  0  0  0
M  END
$$$$

  -OEChem-05262214473D

 48 47  0     1  0  0  0  0  0999 V2000
   -5.5827   -1.3473    1.4591 C   0  0  0  0  0  0  0  0  0  0  0  0
   -5.7053   -2.4696    0.9825 O   0  0  0  0  0  0  0  0  0  0  0  0
   -6.7879   -0.6277    1.9670 C   0  0  0  0  0  0  0  0  0  0  0  0
   -7.2718   -0.0164    1.1885 H   0  0  0  0  0  0  0  0  0  0  0  0
   -7.5699   -1.3171    2.3239 H   0  0  0  0  0  0  0  0  0  0  0  0
   -6.6057    0.0628    2.8060 H   0  0  0  0  0  0  0  0  0  0  0  0
   -4.4001   -0.6377    1.5884 N   0  0  0  0  0  0  0  0  0  0  0  0
   -3.1220   -1.1455    1.1644 C   0  0  2  0  0  0  0  0  0  0  0  0
   -2.2017    0.0428    0.9187 C   0  0  0  0  0  0  0  0  0  0  0  0
   -2.6171    1.1750    0.6807 O   0  0  0  0  0  0  0  0  0  0  0  0
   -3.2533   -1.9992   -0.0873 C   0  0  0  0  0  0  0  0  0  0  0  0
   -4.4370    0.2910    2.0047 H   0  0  0  0  0  0  0  0  0  0  0  0
   -2.7302   -1.7467    1.9921 H   0  0  0  0  0  0  0  0  0  0  0  0
   -3.6446   -1.4140   -0.9275 H   0  0  0  0  0  0  0  0  0  0  0  0
   -2.2844   -2.4081   -0.3922 H   0  0  0  0  0  0  0  0  0  0  0  0
   -3.9388   -2.8365    0.0822 H   0  0  0  0  0  0  0  0  0  0  0  0
   -0.8768   -0.3314    0.9568 N   0  0  0  0  0  0  0  0  0  0  0  0
    0.2067    0.6285    0.7375 C   0  0  2  0  0  0  0  0  0  0  0  0
    0.0674    1.6908    1.8237 C   0  0  0  0  0  0  0  0  0  0  0  0
   -0.6289    2.6940    1.6814 O   0  0  0  0  0  0  0  0  0  0  0  0
    0.0832    1.2192   -0.6750 C   0  0  0  0  0  0  0  0  0  0  0  0
    0.3345    0.2017   -1.7877 C   0  0  0  0  0  0  0  0  0  0  0  0
    0.1804    0.8139   -3.1576 C   0  0  0  0  0  0  0  0  0  0  0  0
   -0.2302    1.9507   -3.3537 O   0  0  0  0  0  0  0  0  0  0  0  0
    0.5201   -0.0371   -4.1569 O   0  0  0  0  0  0  0  0  0  0  0  0
   -0.6087   -1.2764    1.1771 H   0  0  0  0  0  0  0  0  0  0  0  0
    1.1612    0.1016    0.8376 H   0  0  0  0  0  0  0  0  0  0  0  0
   -0.9210    1.6453   -0.8020 H   0  0  0  0  0  0  0  0  0  0  0  0
    0.7931    2.0471   -0.8023 H   0  0  0  0  0  0  0  0  0  0  0  0
    1.3638   -0.1715   -1.7208 H   0  0  0  0  0  0  0  0  0  0  0  0
   -0.3046   -0.6817   -1.6871 H   0  0  0  0  0  0  0  0  0  0  0  0
    0.4164    0.3163   -5.0659 H   0  0  0  0  0  0  0  0  0  0  0  0
    0.7826    1.3729    2.9688 N   0  0  0  0  0  0  0  0  0  0  0  0
    0.8137    2.2154    4.1426 C   0  0  2  0  0  0  0  0  0  0  0  0
    2.0373    3.1167    4.0424 C   0  0  0  0  0  0  0  0  0  0  0  0
    3.0177    2.8425    3.3533 O   0  0  0  0  0  0  0  0  0  0  0  0
    0.8517    1.3871    5.4175 C   0  0  0  0  0  0  0  0  0  0  0  0
    1.3103    0.5053    2.9831 H   0  0  0  0  0  0  0  0  0  0  0  0
   -0.0945    2.8274    4.1168 H   0  0  0  0  0  0  0  0  0  0  0  0
    1.7547    0.7672    5.4612 H   0  0  0  0  0  0  0  0  0  0  0  0
    0.8464    2.0265    6.3064 H   0  0  0  0  0  0  0  0  0  0  0  0
   -0.0137    0.7180    5.4735 H   0  0  0  0  0  0  0  0  0  0  0  0
    1.9238    4.2421    4.8465 N   0  0  0  0  0  0  0  0  0  0  0  0
    2.9597    5.2447    4.9351 C   0  0  0  0  0  0  0  0  0  0  0  0
    1.0672    4.3982    5.3695 H   0  0  0  0  0  0  0  0  0  0  0  0
    3.6311    5.0059    5.7731 H   0  0  0  0  0  0  0  0  0  0  0  0
    3.5351    5.2611    3.9977 H   0  0  0  0  0  0  0  0  0  0  0  0
    2.5020    6.2309    5.1017 H   0  0  0  0  0  0  0  0  0  0  0  0
  1  3  1  0  0  0  0
  1  7  1  0  0  0  0
  1  2  2  0  0  0  0
 34 35  1  0  0  0  0
 35 43  1  0  0  0  0
 35 36  2  0  0  0  0
  8  9  1  0  0  0  0
  9 17  1  0  0  0  0
  9 10  2  0  0  0  0
 18 19  1  0  0  0  0
 19 33  1  0  0  0  0
 19 20  2  0  0  0  0
 22 23  1  0  0  0  0
 23 24  2  0  0  0  0
 23 25  1  0  0  0  0
 34 37  1  0  0  0  0
  8 11  1  0  0  0  0
 43 44  1  0  0  0  0
 21 22  1  0  0  0  0
 18 21  1  0  0  0  0
 33 34  1  0  0  0  0
  7  8  1  0  0  0  0
 17 18  1  0  0  0  0
  3  4  1  0  0  0  0
  3  5  1  0  0  0  0
  3  6  1  0  0  0  0
 37 40  1  0  0  0  0
 37 41  1  0  0  0  0
 37 42  1  0  0  0  0
 11 14  1  0  0  0  0
 11 15  1  0  0  0  0
 11 16  1  0  0  0  0
 44 46  1  0  0  0  0
 44 47  1  0  0  0  0
 44 48  1  0  0  0  0
 22 30  1  0  0  0  0
 22 31  1  0  0  0  0
 21 28  1  0  0  0  0
 21 29  1  0  0  0  0
 34 39  1  0  0  0  0
  8 13  1  0  0  0  0
 18 27  1  0  0  0  0
 43 45  1  0  0  0  0
  7 12  1  0  0  0  0
 33 38  1  0  0  0  0
 17 26  1  0  0  0  0
 25 32  1  0  0  0  0
M  END
$$$$

  -OEChem-05262214473D

 48 47  0     1  0  0  0  0  0999 V2000
   -5.5827   -1.3473    1.4591 C   0  0  0  0  0  0  0  0  0  0  0  0
   -5.7053   -2.4696    0.9825 O   0  0  0  0  0  0  0  0  0  0  0  0
   -6.7879   -0.6277    1.9670 C   0  0  0  0  0  0  0  0  0  0  0  0
   -7.2718   -0.0164    1.1885 H   0  0  0  0  0  0  0  0  0  0  0  0
   -7.5699   -1.3171    2.3239 H   0  0  0  0  0  0  0  0  0  0  0  0
   -6.6057    0.0628    2.8060 H   0  0  0  0  0  0  0  0  0  0  0  0
   -4.4001   -0.6377    1.5884 N   0  0  0  0  0  0  0  0  0  0  0  0
   -3.1220   -1.1455    1.1644 C   0  0  2  0  0  0  0  0  0  0  0  0
   -2.2017    0.0428    0.9187 C   0  0  0  0  0  0  0  0  0  0  0  0
   -2.6171    1.1750    0.6807 O   0  0  0  0  0  0  0  0  0  0  0  0
   -3.2533   -1.9992   -0.0873 C   0  0  0  0  0  0  0  0  0  0  0  0
   -4.4370    0.2910    2.0047 H   0  0  0  0  0  0  0  0  0  0  0  0
   -2.7302   -1.7467    1.9921 H   0  0  0  0  0  0  0  0  0  0  0  0
   -3.6446   -1.4140   -0.9275 H   0  0  0  0  0  0  0  0  0  0  0  0
   -2.2844   -2.4081   -0.3922 H   0  0  0  0  0  0  0  0  0  0  0  0
   -3.9388   -2.8365    0.0822 H   0  0  0  0  0  0  0  0  0  0  0  0
   -0.8768   -0.3314    0.9568 N   0  0  0  0  0  0  0  0  0  0  0  0
    0.2067    0.6285    0.7375 C   0  0  2  0  0  0  0  0  0  0  0  0
    0.0674    1.6908    1.8237 C   0  0  0  0  0  0  0  0  0  0  0  0
   -0.8177    2.5438    1.8040 O   0  0  0  0  0  0  0  0  0  0  0  0
    0.0832    1.2192   -0.6750 C   0  0  0  0  0  0  0  0  0  0  0  0
    0.3345    0.2017   -1.7877 C   0  0  0  0  0  0  0  0  0  0  0  0
    0.1804    0.8139   -3.1576 C   0  0  0  0  0  0  0  0  0  0  0  0
   -0.2302    1.9507   -3.3537 O   0  0  0  0  0  0  0  0  0  0  0  0
    0.5201   -0.0371   -4.1569 O   0  0  0  0  0  0  0  0  0  0  0  0
   -0.6087   -1.2764    1.1771 H   0  0  0  0  0  0  0  0  0  0  0  0
    1.1612    0.1016    0.8376 H   0  0  0  0  0  0  0  0  0  0  0  0
   -0.9210    1.6453   -0.8020 H   0  0  0  0  0  0  0  0  0  0  0  0
    0.7931    2.0471   -0.8023 H   0  0  0  0  0  0  0  0  0  0  0  0
    1.3638   -0.1715   -1.7208 H   0  0  0  0  0  0  0  0  0  0  0  0
   -0.3046   -0.6817   -1.6871 H   0  0  0  0  0  0  0  0  0  0  0  0
    0.4164    0.3163   -5.0659 H   0  0  0  0  0  0  0  0  0  0  0  0
    1.0215    1.5551    2.8213 N   0  0  0  0  0  0  0  0  0  0  0  0
    1.1034    2.4361    3.9640 C   0  0  2  0  0  0  0  0  0  0  0  0
    2.0998    3.5402    3.6361 C   0  0  0  0  0  0  0  0  0  0  0  0
    2.9755    3.4215    2.7817 O   0  0  0  0  0  0  0  0  0  0  0  0
    1.5215    1.6809    5.2160 C   0  0  0  0  0  0  0  0  0  0  0  0
    1.6957    0.7995    2.7449 H   0  0  0  0  0  0  0  0  0  0  0  0
    0.1072    2.8709    4.1002 H   0  0  0  0  0  0  0  0  0  0  0  0
    2.5173    1.2381    5.0985 H   0  0  0  0  0  0  0  0  0  0  0  0
    1.5554    2.3441    6.0867 H   0  0  0  0  0  0  0  0  0  0  0  0
    0.8200    0.8682    5.4335 H   0  0  0  0  0  0  0  0  0  0  0  0
    1.9235    4.6579    4.4398 N   0  0  0  0  0  0  0  0  0  0  0  0
    2.7532    5.8350    4.3313 C   0  0  0  0  0  0  0  0  0  0  0  0
    1.1598    4.6764    5.1093 H   0  0  0  0  0  0  0  0  0  0  0  0
    3.5956    5.7566    5.0343 H   0  0  0  0  0  0  0  0  0  0  0  0
    3.1393    5.9179    3.3046 H   0  0  0  0  0  0  0  0  0  0  0  0
    2.1568    6.7274    4.5719 H   0  0  0  0  0  0  0  0  0  0  0  0
  1  3  1  0  0  0  0
  1  7  1  0  0  0  0
  1  2  2  0  0  0  0
 34 35  1  0  0  0  0
 35 43  1  0  0  0  0
 35 36  2  0  0  0  0
  8  9  1  0  0  0  0
  9 17  1  0  0  0  0
  9 10  2  0  0  0  0
 18 19  1  0  0  0  0
 19 33  1  0  0  0  0
 19 20  2  0  0  0  0
 22 23  1  0  0  0  0
 23 24  2  0  0  0  0
 23 25  1  0  0  0  0
 34 37  1  0  0  0  0
  8 11  1  0  0  0  0
 43 44  1  0  0  0  0
 21 22  1  0  0  0  0
 18 21  1  0  0  0  0
 33 34  1  0  0  0  0
  7  8  1  0  0  0  0
 17 18  1  0  0  0  0
  3  4  1  0  0  0  0
  3  5  1  0  0  0  0
  3  6  1  0  0  0  0
 37 40  1  0  0  0  0
 37 41  1  0  0  0  0
 37 42  1  0  0  0  0
 11 14  1  0  0  0  0
 11 15  1  0  0  0  0
 11 16  1  0  0  0  0
 44 46  1  0  0  0  0
 44 47  1  0  0  0  0
 44 48  1  0  0  0  0
 22 30  1  0  0  0  0
 22 31  1  0  0  0  0
 21 28  1  0  0  0  0
 21 29  1  0  0  0  0
 34 39  1  0  0  0  0
  8 13  1  0  0  0  0
 18 27  1  0  0  0  0
 43 45  1  0  0  0  0
  7 12  1  0  0  0  0
 33 38  1  0  0  0  0
 17 26  1  0  0  0  0
 25 32  1  0  0  0  0
M  END
$$$$

  -OEChem-05262214473D

 48 47  0     1  0  0  0  0  0999 V2000
   -5.5827   -1.3473    1.4591 C   0  0  0  0  0  0  0  0  0  0  0  0
   -5.7053   -2.4696    0.9825 O   0  0  0  0  0  0  0  0  0  0  0  0
   -6.7879   -0.6277    1.9670 C   0  0  0  0  0  0  0  0  0  0  0  0
   -7.2718   -0.0164    1.1885 H   0  0  0  0  0  0  0  0  0  0  0  0
   -7.5699   -1.3171    2.3239 H   0  0  0  0  0  0  0  0  0  0  0  0
   -6.6057    0.0628    2.8060 H   0  0  0  0  0  0  0  0  0  0  0  0
   -4.4001   -0.6377    1.5884 N   0  0  0  0  0  0  0  0  0  0  0  0
   -3.1220   -1.1455    1.1644 C   0  0  2  0  0  0  0  0  0  0  0  0
   -2.2017    0.0428    0.9187 C   0  0  0  0  0  0  0  0  0  0  0  0
   -2.6171    1.1750    0.6807 O   0  0  0  0  0  0  0  0  0  0  0  0
   -3.2533   -1.9992   -0.0873 C   0  0  0  0  0  0  0  0  0  0  0  0
   -4.4370    0.2910    2.0047 H   0  0  0  0  0  0  0  0  0  0  0  0
   -2.7302   -1.7467    1.9921 H   0  0  0  0  0  0  0  0  0  0  0  0
   -3.6446   -1.4140   -0.9275 H   0  0  0  0  0  0  0  0  0  0  0  0
   -2.2844   -2.4081   -0.3922 H   0  0  0  0  0  0  0  0  0  0  0  0
   -3.9388   -2.8365    0.0822 H   0  0  0  0  0  0  0  0  0  0  0  0
   -0.8768   -0.3314    0.9568 N   0  0  0  0  0  0  0  0  0  0  0  0
    0.2067    0.6285    0.7375 C   0  0  2  0  0  0  0  0  0  0  0  0
    0.0674    1.6908    1.8237 C   0  0  0  0  0  0  0  0  0  0  0  0
   -0.9503    2.3669    1.9601 O   0  0  0  0  0  0  0  0  0  0  0  0
    0.0832    1.2192   -0.6750 C   0  0  0  0  0  0  0  0  0  0  0  0
    0.3345    0.2017   -1.7877 C   0  0  0  0  0  0  0  0  0  0  0  0
    0.1804    0.8139   -3.1576 C   0  0  0  0  0  0  0  0  0  0  0  0
   -0.2302    1.9507   -3.3537 O   0  0  0  0  0  0  0  0  0  0  0  0
    0.5201   -0.0371   -4.1569 O   0  0  0  0  0  0  0  0  0  0  0  0
   -0.6087   -1.2764    1.1771 H   0  0  0  0  0  0  0  0  0  0  0  0
    1.1612    0.1016    0.8376 H   0  0  0  0  0  0  0  0  0  0  0  0
   -0.9210    1.6453   -0.8020 H   0  0  0  0  0  0  0  0  0  0  0  0
    0.7931    2.0471   -0.8023 H   0  0  0  0  0  0  0  0  0  0  0  0
    1.3638   -0.1715   -1.7208 H   0  0  0  0  0  0  0  0  0  0  0  0
   -0.3046   -0.6817   -1.6871 H   0  0  0  0  0  0  0  0  0  0  0  0
    0.4164    0.3163   -5.0659 H   0  0  0  0  0  0  0  0  0  0  0  0
    1.1921    1.7716    2.6314 N   0  0  0  0  0  0  0  0  0  0  0  0
    1.3104    2.6984    3.7340 C   0  0  2  0  0  0  0  0  0  0  0  0
    2.0090    3.9513    3.2225 C   0  0  0  0  0  0  0  0  0  0  0  0
    2.7251    3.9595    2.2234 O   0  0  0  0  0  0  0  0  0  0  0  0
    2.0781    2.0833    4.8938 C   0  0  0  0  0  0  0  0  0  0  0  0
    1.9708    1.1489    2.4384 H   0  0  0  0  0  0  0  0  0  0  0  0
    0.2911    2.9497    4.0467 H   0  0  0  0  0  0  0  0  0  0  0  0
    3.1018    1.8248    4.5996 H   0  0  0  0  0  0  0  0  0  0  0  0
    2.1421    2.7763    5.7392 H   0  0  0  0  0  0  0  0  0  0  0  0
    1.5905    1.1660    5.2411 H   0  0  0  0  0  0  0  0  0  0  0  0
    1.7733    5.0498    4.0373 N   0  0  0  0  0  0  0  0  0  0  0  0
    2.3362    6.3530    3.7712 C   0  0  0  0  0  0  0  0  0  0  0  0
    1.1511    4.9561    4.8347 H   0  0  0  0  0  0  0  0  0  0  0  0
    3.2899    6.4578    4.3094 H   0  0  0  0  0  0  0  0  0  0  0  0
    2.5110    6.4631    2.6908 H   0  0  0  0  0  0  0  0  0  0  0  0
    1.6364    7.1308    4.1107 H   0  0  0  0  0  0  0  0  0  0  0  0
  1  3  1  0  0  0  0
  1  7  1  0  0  0  0
  1  2  2  0  0  0  0
 34 35  1  0  0  0  0
 35 43  1  0  0  0  0
 35 36  2  0  0  0  0
  8  9  1  0  0  0  0
  9 17  1  0  0  0  0
  9 10  2  0  0  0  0
 18 19  1  0  0  0  0
 19 33  1  0  0  0  0
 19 20  2  0  0  0  0
 22 23  1  0  0  0  0
 23 24  2  0  0  0  0
 23 25  1  0  0  0  0
 34 37  1  0  0  0  0
  8 11  1  0  0  0  0
 43 44  1  0  0  0  0
 21 22  1  0  0  0  0
 18 21  1  0  0  0  0
 33 34  1  0  0  0  0
  7  8  1  0  0  0  0
 17 18  1  0  0  0  0
  3  4  1  0  0  0  0
  3  5  1  0  0  0  0
  3  6  1  0  0  0  0
 37 40  1  0  0  0  0
 37 41  1  0  0  0  0
 37 42  1  0  0  0  0
 11 14  1  0  0  0  0
 11 15  1  0  0  0  0
 11 16  1  0  0  0  0
 44 46  1  0  0  0  0
 44 47  1  0  0  0  0
 44 48  1  0  0  0  0
 22 30  1  0  0  0  0
 22 31  1  0  0  0  0
 21 28  1  0  0  0  0
 21 29  1  0  0  0  0
 34 39  1  0  0  0  0
  8 13  1  0  0  0  0
 18 27  1  0  0  0  0
 43 45  1  0  0  0  0
  7 12  1  0  0  0  0
 33 38  1  0  0  0  0
 17 26  1  0  0  0  0
 25 32  1  0  0  0  0
M  END
$$$$

  -OEChem-05262214473D

 48 47  0     1  0  0  0  0  0999 V2000
   -5.5827   -1.3473    1.4591 C   0  0  0  0  0  0  0  0  0  0  0  0
   -5.7053   -2.4696    0.9825 O   0  0  0  0  0  0  0  0  0  0  0  0
   -6.7879   -0.6277    1.9670 C   0  0  0  0  0  0  0  0  0  0  0  0
   -7.2718   -0.0164    1.1885 H   0  0  0  0  0  0  0  0  0  0  0  0
   -7.5699   -1.3171    2.3239 H   0  0  0  0  0  0  0  0  0  0  0  0
   -6.6057    0.0628    2.8060 H   0  0  0  0  0  0  0  0  0  0  0  0
   -4.4001   -0.6377    1.5884 N   0  0  0  0  0  0  0  0  0  0  0  0
   -3.1220   -1.1455    1.1644 C   0  0  2  0  0  0  0  0  0  0  0  0
   -2.2017    0.0428    0.9187 C   0  0  0  0  0  0  0  0  0  0  0  0
   -2.6171    1.1750    0.6807 O   0  0  0  0  0  0  0  0  0  0  0  0
   -3.2533   -1.9992   -0.0873 C   0  0  0  0  0  0  0  0  0  0  0  0
   -4.4370    0.2910    2.0047 H   0  0  0  0  0  0  0  0  0  0  0  0
   -2.7302   -1.7467    1.9921 H   0  0  0  0  0  0  0  0  0  0  0  0
   -3.6446   -1.4140   -0.9275 H   0  0  0  0  0  0  0  0  0  0  0  0
   -2.2844   -2.4081   -0.3922 H   0  0  0  0  0  0  0  0  0  0  0  0
   -3.9388   -2.8365    0.0822 H   0  0  0  0  0  0  0  0  0  0  0  0
   -0.8768   -0.3314    0.9568 N   0  0  0  0  0  0  0  0  0  0  0  0
    0.2067    0.6285    0.7375 C   0  0  2  0  0  0  0  0  0  0  0  0
    0.0674    1.6908    1.8237 C   0  0  0  0  0  0  0  0  0  0  0  0
   -1.0177    2.1752    2.1389 O   0  0  0  0  0  0  0  0  0  0  0  0
    0.0832    1.2192   -0.6750 C   0  0  0  0  0  0  0  0  0  0  0  0
    0.3345    0.2017   -1.7877 C   0  0  0  0  0  0  0  0  0  0  0  0
    0.1804    0.8139   -3.1576 C   0  0  0  0  0  0  0  0  0  0  0  0
   -0.2302    1.9507   -3.3537 O   0  0  0  0  0  0  0  0  0  0  0  0
    0.5201   -0.0371   -4.1569 O   0  0  0  0  0  0  0  0  0  0  0  0
   -0.6087   -1.2764    1.1771 H   0  0  0  0  0  0  0  0  0  0  0  0
    1.1612    0.1016    0.8376 H   0  0  0  0  0  0  0  0  0  0  0  0
   -0.9210    1.6453   -0.8020 H   0  0  0  0  0  0  0  0  0  0  0  0
    0.7931    2.0471   -0.8023 H   0  0  0  0  0  0  0  0  0  0  0  0
    1.3638   -0.1715   -1.7208 H   0  0  0  0  0  0  0  0  0  0  0  0
   -0.3046   -0.6817   -1.6871 H   0  0  0  0  0  0  0  0  0  0  0  0
    0.4164    0.3163   -5.0659 H   0  0  0  0  0  0  0  0  0  0  0  0
    1.2828    2.0078    2.4121 N   0  0  0  0  0  0  0  0  0  0  0  0
    1.4206    2.9844    3.4684 C   0  0  2  0  0  0  0  0  0  0  0  0
    1.7709    4.3219    2.8295 C   0  0  0  0  0  0  0  0  0  0  0  0
    2.2835    4.4198    1.7166 O   0  0  0  0  0  0  0  0  0  0  0  0
    2.4834    2.5669    4.4728 C   0  0  0  0  0  0  0  0  0  0  0  0
    2.1169    1.5300    2.0845 H   0  0  0  0  0  0  0  0  0  0  0  0
    0.4445    3.0584    3.9601 H   0  0  0  0  0  0  0  0  0  0  0  0
    3.4684    2.4875    3.9985 H   0  0  0  0  0  0  0  0  0  0  0  0
    2.5666    3.2937    5.2876 H   0  0  0  0  0  0  0  0  0  0  0  0
    2.2451    1.5910    4.9094 H   0  0  0  0  0  0  0  0  0  0  0  0
    1.4834    5.3911    3.6663 N   0  0  0  0  0  0  0  0  0  0  0  0
    1.7370    6.7632    3.2932 C   0  0  0  0  0  0  0  0  0  0  0  0
    1.0417    5.2181    4.5645 H   0  0  0  0  0  0  0  0  0  0  0  0
    2.7347    7.0617    3.6476 H   0  0  0  0  0  0  0  0  0  0  0  0
    1.6931    6.8594    2.1983 H   0  0  0  0  0  0  0  0  0  0  0  0
    0.9763    7.4137    3.7494 H   0  0  0  0  0  0  0  0  0  0  0  0
  1  3  1  0  0  0  0
  1  7  1  0  0  0  0
  1  2  2  0  0  0  0
 34 35  1  0  0  0  0
 35 43  1  0  0  0  0
 35 36  2  0  0  0  0
  8  9  1  0  0  0  0
  9 17  1  0  0  0  0
  9 10  2  0  0  0  0
 18 19  1  0  0  0  0
 19 33  1  0  0  0  0
 19 20  2  0  0  0  0
 22 23  1  0  0  0  0
 23 24  2  0  0  0  0
 23 25  1  0  0  0  0
 34 37  1  0  0  0  0
  8 11  1  0  0  0  0
 43 44  1  0  0  0  0
 21 22  1  0  0  0  0
 18 21  1  0  0  0  0
 33 34  1  0  0  0  0
  7  8  1  0  0  0  0
 17 18  1  0  0  0  0
  3  4  1  0  0  0  0
  3  5  1  0  0  0  0
  3  6  1  0  0  0  0
 37 40  1  0  0  0  0
 37 41  1  0  0  0  0
 37 42  1  0  0  0  0
 11 14  1  0  0  0  0
 11 15  1  0  0  0  0
 11 16  1  0  0  0  0
 44 46  1  0  0  0  0
 44 47  1  0  0  0  0
 44 48  1  0  0  0  0
 22 30  1  0  0  0  0
 22 31  1  0  0  0  0
 21 28  1  0  0  0  0
 21 29  1  0  0  0  0
 34 39  1  0  0  0  0
  8 13  1  0  0  0  0
 18 27  1  0  0  0  0
 43 45  1  0  0  0  0
  7 12  1  0  0  0  0
 33 38  1  0  0  0  0
 17 26  1  0  0  0  0
 25 32  1  0  0  0  0
M  END
$$$$

  -OEChem-05262214473D

 48 47  0     1  0  0  0  0  0999 V2000
   -5.5827   -1.3473    1.4591 C   0  0  0  0  0  0  0  0  0  0  0  0
   -5.7053   -2.4696    0.9825 O   0  0  0  0  0  0  0  0  0  0  0  0
   -6.7879   -0.6277    1.9670 C   0  0  0  0  0  0  0  0  0  0  0  0
   -7.2718   -0.0164    1.1885 H   0  0  0  0  0  0  0  0  0  0  0  0
   -7.5699   -1.3171    2.3239 H   0  0  0  0  0  0  0  0  0  0  0  0
   -6.6057    0.0628    2.8060 H   0  0  0  0  0  0  0  0  0  0  0  0
   -4.4001   -0.6377    1.5884 N   0  0  0  0  0  0  0  0  0  0  0  0
   -3.1220   -1.1455    1.1644 C   0  0  2  0  0  0  0  0  0  0  0  0
   -2.2017    0.0428    0.9187 C   0  0  0  0  0  0  0  0  0  0  0  0
   -2.6171    1.1750    0.6807 O   0  0  0  0  0  0  0  0  0  0  0  0
   -3.2533   -1.9992   -0.0873 C   0  0  0  0  0  0  0  0  0  0  0  0
   -4.4370    0.2910    2.0047 H   0  0  0  0  0  0  0  0  0  0  0  0
   -2.7302   -1.7467    1.9921 H   0  0  0  0  0  0  0  0  0  0  0  0
   -3.6446   -1.4140   -0.9275 H   0  0  0  0  0  0  0  0  0  0  0  0
   -2.2844   -2.4081   -0.3922 H   0  0  0  0  0  0  0  0  0  0  0  0
   -3.9388   -2.8365    0.0822 H   0  0  0  0  0  0  0  0  0  0  0  0
   -0.8768   -0.3314    0.9568 N   0  0  0  0  0  0  0  0  0  0  0  0
    0.2067    0.6285    0.7375 C   0  0  2  0  0  0  0  0  0  0  0  0
    0.0674    1.6908    1.8237 C   0  0  0  0  0  0  0  0  0  0  0  0
   -1.0152    1.9819    2.3283 O   0  0  0  0  0  0  0  0  0  0  0  0
    0.0832    1.2192   -0.6750 C   0  0  0  0  0  0  0  0  0  0  0  0
    0.3345    0.2017   -1.7877 C   0  0  0  0  0  0  0  0  0  0  0  0
    0.1804    0.8139   -3.1576 C   0  0  0  0  0  0  0  0  0  0  0  0
   -0.2302    1.9507   -3.3537 O   0  0  0  0  0  0  0  0  0  0  0  0
    0.5201   -0.0371   -4.1569 O   0  0  0  0  0  0  0  0  0  0  0  0
   -0.6087   -1.2764    1.1771 H   0  0  0  0  0  0  0  0  0  0  0  0
    1.1612    0.1016    0.8376 H   0  0  0  0  0  0  0  0  0  0  0  0
   -0.9210    1.6453   -0.8020 H   0  0  0  0  0  0  0  0  0  0  0  0
    0.7931    2.0471   -0.8023 H   0  0  0  0  0  0  0  0  0  0  0  0
    1.3638   -0.1715   -1.7208 H   0  0  0  0  0  0  0  0  0  0  0  0
   -0.3046   -0.6817   -1.6871 H   0  0  0  0  0  0  0  0  0  0  0  0
    0.4164    0.3163   -5.0659 H   0  0  0  0  0  0  0  0  0  0  0  0
    1.2874    2.2474    2.1783 N   0  0  0  0  0  0  0  0  0  0  0  0
    1.4265    3.2748    3.1852 C   0  0  2  0  0  0  0  0  0  0  0  0
    1.4019    4.6266    2.4842 C   0  0  0  0  0  0  0  0  0  0  0  0
    1.6808    4.7711    1.2957 O   0  0  0  0  0  0  0  0  0  0  0  0
    2.7100    3.0988    3.9817 C   0  0  0  0  0  0  0  0  0  0  0  0
    2.1241    1.9166    1.7073 H   0  0  0  0  0  0  0  0  0  0  0  0
    0.5571    3.1896    3.8462 H   0  0  0  0  0  0  0  0  0  0  0  0
    3.5920    3.1810    3.3362 H   0  0  0  0  0  0  0  0  0  0  0  0
    2.7999    3.8610    4.7627 H   0  0  0  0  0  0  0  0  0  0  0  0
    2.7394    2.1143    4.4609 H   0  0  0  0  0  0  0  0  0  0  0  0
    1.0737    5.6587    3.3521 N   0  0  0  0  0  0  0  0  0  0  0  0
    0.9966    7.0377    2.9298 C   0  0  0  0  0  0  0  0  0  0  0  0
    0.8390    5.4446    4.3169 H   0  0  0  0  0  0  0  0  0  0  0  0
    1.9679    7.5270    3.0942 H   0  0  0  0  0  0  0  0  0  0  0  0
    0.7412    7.0799    1.8607 H   0  0  0  0  0  0  0  0  0  0  0  0
    0.2214    7.5567    3.5127 H   0  0  0  0  0  0  0  0  0  0  0  0
  1  3  1  0  0  0  0
  1  7  1  0  0  0  0
  1  2  2  0  0  0  0
 34 35  1  0  0  0  0
 35 43  1  0  0  0  0
 35 36  2  0  0  0  0
  8  9  1  0  0  0  0
  9 17  1  0  0  0  0
  9 10  2  0  0  0  0
 18 19  1  0  0  0  0
 19 33  1  0  0  0  0
 19 20  2  0  0  0  0
 22 23  1  0  0  0  0
 23 24  2  0  0  0  0
 23 25  1  0  0  0  0
 34 37  1  0  0  0  0
  8 11  1  0  0  0  0
 43 44  1  0  0  0  0
 21 22  1  0  0  0  0
 18 21  1  0  0  0  0
 33 34  1  0  0  0  0
  7  8  1  0  0  0  0
 17 18  1  0  0  0  0
  3  4  1  0  0  0  0
  3  5  1  0  0  0  0
  3  6  1  0  0  0  0
 37 40  1  0  0  0  0
 37 41  1  0  0  0  0
 37 42  1  0  0  0  0
 11 14  1  0  0  0  0
 11 15  1  0  0  0  0
 11 16  1  0  0  0  0
 44 46  1  0  0  0  0
 44 47  1  0  0  0  0
 44 48  1  0  0  0  0
 22 30  1  0  0  0  0
 22 31  1  0  0  0  0
 21 28  1  0  0  0  0
 21 29  1  0  0  0  0
 34 39  1  0  0  0  0
  8 13  1  0  0  0  0
 18 27  1  0  0  0  0
 43 45  1  0  0  0  0
  7 12  1  0  0  0  0
 33 38  1  0  0  0  0
 17 26  1  0  0  0  0
 25 32  1  0  0  0  0
M  END
$$$$

  -OEChem-05262214473D

 48 47  0     1  0  0  0  0  0999 V2000
   -5.5827   -1.3473    1.4591 C   0  0  0  0  0  0  0  0  0  0  0  0
   -5.7053   -2.4696    0.9825 O   0  0  0  0  0  0  0  0  0  0  0  0
   -6.7879   -0.6277    1.9670 C   0  0  0  0  0  0  0  0  0  0  0  0
   -7.2718   -0.0164    1.1885 H   0  0  0  0  0  0  0  0  0  0  0  0
   -7.5699   -1.3171    2.3239 H   0  0  0  0  0  0  0  0  0  0  0  0
   -6.6057    0.0628    2.8060 H   0  0  0  0  0  0  0  0  0  0  0  0
   -4.4001   -0.6377    1.5884 N   0  0  0  0  0  0  0  0  0  0  0  0
   -3.1220   -1.1455    1.1644 C   0  0  2  0  0  0  0  0  0  0  0  0
   -2.2017    0.0428    0.9187 C   0  0  0  0  0  0  0  0  0  0  0  0
   -2.6171    1.1750    0.6807 O   0  0  0  0  0  0  0  0  0  0  0  0
   -3.2533   -1.9992   -0.0873 C   0  0  0  0  0  0  0  0  0  0  0  0
   -4.4370    0.2910    2.0047 H   0  0  0  0  0  0  0  0  0  0  0  0
   -2.7302   -1.7467    1.9921 H   0  0  0  0  0  0  0  0  0  0  0  0
   -3.6446   -1.4140   -0.9275 H   0  0  0  0  0  0  0  0  0  0  0  0
   -2.2844   -2.4081   -0.3922 H   0  0  0  0  0  0  0  0  0  0  0  0
   -3.9388   -2.8365    0.0822 H   0  0  0  0  0  0  0  0  0  0  0  0
   -0.8768   -0.3314    0.9568 N   0  0  0  0  0  0  0  0  0  0  0  0
    0.2067    0.6285    0.7375 C   0  0  2  0  0  0  0  0  0  0  0  0
    0.0674    1.6908    1.8237 C   0  0  0  0  0  0  0  0  0  0  0  0
   -0.9431    1.8001    2.5154 O   0  0  0  0  0  0  0  0  0  0  0  0
    0.0832    1.2192   -0.6750 C   0  0  0  0  0  0  0  0  0  0  0  0
    0.3345    0.2017   -1.7877 C   0  0  0  0  0  0  0  0  0  0  0  0
    0.1804    0.8139   -3.1576 C   0  0  0  0  0  0  0  0  0  0  0  0
   -0.2302    1.9507   -3.3537 O   0  0  0  0  0  0  0  0  0  0  0  0
    0.5201   -0.0371   -4.1569 O   0  0  0  0  0  0  0  0  0  0  0  0
   -0.6087   -1.2764    1.1771 H   0  0  0  0  0  0  0  0  0  0  0  0
    1.1612    0.1016    0.8376 H   0  0  0  0  0  0  0  0  0  0  0  0
   -0.9210    1.6453   -0.8020 H   0  0  0  0  0  0  0  0  0  0  0  0
    0.7931    2.0471   -0.8023 H   0  0  0  0  0  0  0  0  0  0  0  0
    1.3638   -0.1715   -1.7208 H   0  0  0  0  0  0  0  0  0  0  0  0
   -0.3046   -0.6817   -1.6871 H   0  0  0  0  0  0  0  0  0  0  0  0
    0.4164    0.3163   -5.0659 H   0  0  0  0  0  0  0  0  0  0  0  0
    1.2056    2.4741    1.9461 N   0  0  0  0  0  0  0  0  0  0  0  0
    1.3276    3.5496    2.9037 C   0  0  2  0  0  0  0  0  0  0  0  0
    0.9270    4.8449    2.2099 C   0  0  0  0  0  0  0  0  0  0  0  0
    0.9580    4.9895    0.9895 O   0  0  0  0  0  0  0  0  0  0  0  0
    2.7423    3.6428    3.4539 C   0  0  0  0  0  0  0  0  0  0  0  0
    1.9918    2.2824    1.3325 H   0  0  0  0  0  0  0  0  0  0  0  0
    0.6211    3.3344    3.7128 H   0  0  0  0  0  0  0  0  0  0  0  0
    3.4644    3.8579    2.6577 H   0  0  0  0  0  0  0  0  0  0  0  0
    2.8261    4.4396    4.2002 H   0  0  0  0  0  0  0  0  0  0  0  0
    3.0396    2.7003    3.9263 H   0  0  0  0  0  0  0  0  0  0  0  0
    0.5720    5.8342    3.1161 N   0  0  0  0  0  0  0  0  0  0  0  0
    0.1652    7.1579    2.7057 C   0  0  0  0  0  0  0  0  0  0  0  0
    0.5569    5.6203    4.1090 H   0  0  0  0  0  0  0  0  0  0  0  0
    1.0418    7.8221    2.6869 H   0  0  0  0  0  0  0  0  0  0  0  0
   -0.2796    7.1095    1.7008 H   0  0  0  0  0  0  0  0  0  0  0  0
   -0.5768    7.5502    3.4167 H   0  0  0  0  0  0  0  0  0  0  0  0
  1  3  1  0  0  0  0
  1  7  1  0  0  0  0
  1  2  2  0  0  0  0
 34 35  1  0  0  0  0
 35 43  1  0  0  0  0
 35 36  2  0  0  0  0
  8  9  1  0  0  0  0
  9 17  1  0  0  0  0
  9 10  2  0  0  0  0
 18 19  1  0  0  0  0
 19 33  1  0  0  0  0
 19 20  2  0  0  0  0
 22 23  1  0  0  0  0
 23 24  2  0  0  0  0
 23 25  1  0  0  0  0
 34 37  1  0  0  0  0
  8 11  1  0  0  0  0
 43 44  1  0  0  0  0
 21 22  1  0  0  0  0
 18 21  1  0  0  0  0
 33 34  1  0  0  0  0
  7  8  1  0  0  0  0
 17 18  1  0  0  0  0
  3  4  1  0  0  0  0
  3  5  1  0  0  0  0
  3  6  1  0  0  0  0
 37 40  1  0  0  0  0
 37 41  1  0  0  0  0
 37 42  1  0  0  0  0
 11 14  1  0  0  0  0
 11 15  1  0  0  0  0
 11 16  1  0  0  0  0
 44 46  1  0  0  0  0
 44 47  1  0  0  0  0
 44 48  1  0  0  0  0
 22 30  1  0  0  0  0
 22 31  1  0  0  0  0
 21 28  1  0  0  0  0
 21 29  1  0  0  0  0
 34 39  1  0  0  0  0
  8 13  1  0  0  0  0
 18 27  1  0  0  0  0
 43 45  1  0  0  0  0
  7 12  1  0  0  0  0
 33 38  1  0  0  0  0
 17 26  1  0  0  0  0
 25 32  1  0  0  0  0
M  END
$$$$

  -OEChem-05262214473D

 48 47  0     1  0  0  0  0  0999 V2000
   -5.5827   -1.3473    1.4591 C   0  0  0  0  0  0  0  0  0  0  0  0
   -5.7053   -2.4696    0.9825 O   0  0  0  0  0  0  0  0  0  0  0  0
   -6.7879   -0.6277    1.9670 C   0  0  0  0  0  0  0  0  0  0  0  0
   -7.2718   -0.0164    1.1885 H   0  0  0  0  0  0  0  0  0  0  0  0
   -7.5699   -1.3171    2.3239 H   0  0  0  0  0  0  0  0  0  0  0  0
   -6.6057    0.0628    2.8060 H   0  0  0  0  0  0  0  0  0  0  0  0
   -4.4001   -0.6377    1.5884 N   0  0  0  0  0  0  0  0  0  0  0  0
   -3.1220   -1.1455    1.1644 C   0  0  2  0  0  0  0  0  0  0  0  0
   -2.2017    0.0428    0.9187 C   0  0  0  0  0  0  0  0  0  0  0  0
   -2.6171    1.1750    0.6807 O   0  0  0  0  0  0  0  0  0  0  0  0
   -3.2533   -1.9992   -0.0873 C   0  0  0  0  0  0  0  0  0  0  0  0
   -4.4370    0.2910    2.0047 H   0  0  0  0  0  0  0  0  0  0  0  0
   -2.7302   -1.7467    1.9921 H   0  0  0  0  0  0  0  0  0  0  0  0
   -3.6446   -1.4140   -0.9275 H   0  0  0  0  0  0  0  0  0  0  0  0
   -2.2844   -2.4081   -0.3922 H   0  0  0  0  0  0  0  0  0  0  0  0
   -3.9388   -2.8365    0.0822 H   0  0  0  0  0  0  0  0  0  0  0  0
   -0.8768   -0.3314    0.9568 N   0  0  0  0  0  0  0  0  0  0  0  0
    0.2067    0.6285    0.7375 C   0  0  2  0  0  0  0  0  0  0  0  0
    0.3085    1.4616    2.0116 C   0  0  0  0  0  0  0  0  0  0  0  0
   -0.4110    1.2650    2.9889 O   0  0  0  0  0  0  0  0  0  0  0  0
   -0.1166    1.4857   -0.4954 C   0  0  0  0  0  0  0  0  0  0  0  0
   -0.1101    0.6992   -1.8061 C   0  0  0  0  0  0  0  0  0  0  0  0
   -0.4553    1.5700   -2.9884 C   0  0  0  0  0  0  0  0  0  0  0  0
   -0.8292    2.7320   -2.8928 O   0  0  0  0  0  0  0  0  0  0  0  0
   -0.3336    0.9226   -4.1735 O   0  0  0  0  0  0  0  0  0  0  0  0
   -0.6087   -1.2764    1.1771 H   0  0  0  0  0  0  0  0  0  0  0  0
    1.1340    0.0711    0.5695 H   0  0  0  0  0  0  0  0  0  0  0  0
   -1.1029    1.9506   -0.3638 H   0  0  0  0  0  0  0  0  0  0  0  0
    0.6070    2.3065   -0.5858 H   0  0  0  0  0  0  0  0  0  0  0  0
    0.8939    0.2974   -1.9902 H   0  0  0  0  0  0  0  0  0  0  0  0
   -0.7715   -0.1723   -1.7642 H   0  0  0  0  0  0  0  0  0  0  0  0
   -0.5670    1.4487   -4.9677 H   0  0  0  0  0  0  0  0  0  0  0  0
    1.3079    2.4206    1.9376 N   0  0  0  0  0  0  0  0  0  0  0  0
    1.6075    3.3369    3.0144 C   0  0  2  0  0  0  0  0  0  0  0  0
    0.8293    4.6227    2.7680 C   0  0  0  0  0  0  0  0  0  0  0  0
    0.4237    4.9589    1.6574 O   0  0  0  0  0  0  0  0  0  0  0  0
    3.1000    3.6139    3.1060 C   0  0  0  0  0  0  0  0  0  0  0  0
    1.8560    2.4820    1.0849 H   0  0  0  0  0  0  0  0  0  0  0  0
    1.2533    2.8662    3.9380 H   0  0  0  0  0  0  0  0  0  0  0  0
    3.4731    4.0855    2.1895 H   0  0  0  0  0  0  0  0  0  0  0  0
    3.3284    4.2857    3.9399 H   0  0  0  0  0  0  0  0  0  0  0  0
    3.6606    2.6845    3.2534 H   0  0  0  0  0  0  0  0  0  0  0  0
    0.6785    5.3716    3.9267 N   0  0  0  0  0  0  0  0  0  0  0  0
   -0.0126    6.6396    3.9511 C   0  0  0  0  0  0  0  0  0  0  0  0
    1.0306    5.0067    4.8069 H   0  0  0  0  0  0  0  0  0  0  0  0
    0.7107    7.4549    3.8021 H   0  0  0  0  0  0  0  0  0  0  0  0
   -0.7628    6.6636    3.1470 H   0  0  0  0  0  0  0  0  0  0  0  0
   -0.5124    6.7660    4.9228 H   0  0  0  0  0  0  0  0  0  0  0  0
  1  3  1  0  0  0  0
  1  7  1  0  0  0  0
  1  2  2  0  0  0  0
 34 35  1  0  0  0  0
 35 43  1  0  0  0  0
 35 36  2  0  0  0  0
  8  9  1  0  0  0  0
  9 17  1  0  0  0  0
  9 10  2  0  0  0  0
 18 19  1  0  0  0  0
 19 33  1  0  0  0  0
 19 20  2  0  0  0  0
 22 23  1  0  0  0  0
 23 24  2  0  0  0  0
 23 25  1  0  0  0  0
 34 37  1  0  0  0  0
  8 11  1  0  0  0  0
 43 44  1  0  0  0  0
 21 22  1  0  0  0  0
 18 21  1  0  0  0  0
 33 34  1  0  0  0  0
  7  8  1  0  0  0  0
 17 18  1  0  0  0  0
  3  4  1  0  0  0  0
  3  5  1  0  0  0  0
  3  6  1  0  0  0  0
 37 40  1  0  0  0  0
 37 41  1  0  0  0  0
 37 42  1  0  0  0  0
 11 14  1  0  0  0  0
 11 15  1  0  0  0  0
 11 16  1  0  0  0  0
 44 46  1  0  0  0  0
 44 47  1  0  0  0  0
 44 48  1  0  0  0  0
 22 30  1  0  0  0  0
 22 31  1  0  0  0  0
 21 28  1  0  0  0  0
 21 29  1  0  0  0  0
 34 39  1  0  0  0  0
  8 13  1  0  0  0  0
 18 27  1  0  0  0  0
 43 45  1  0  0  0  0
  7 12  1  0  0  0  0
 33 38  1  0  0  0  0
 17 26  1  0  0  0  0
 25 32  1  0  0  0  0
M  END
$$$$

  -OEChem-05262214473D

 48 47  0     1  0  0  0  0  0999 V2000
   -5.5827   -1.3473    1.4591 C   0  0  0  0  0  0  0  0  0  0  0  0
   -5.7053   -2.4696    0.9825 O   0  0  0  0  0  0  0  0  0  0  0  0
   -6.7879   -0.6277    1.9670 C   0  0  0  0  0  0  0  0  0  0  0  0
   -7.2718   -0.0164    1.1885 H   0  0  0  0  0  0  0  0  0  0  0  0
   -7.5699   -1.3171    2.3239 H   0  0  0  0  0  0  0  0  0  0  0  0
   -6.6057    0.0628    2.8060 H   0  0  0  0  0  0  0  0  0  0  0  0
   -4.4001   -0.6377    1.5884 N   0  0  0  0  0  0  0  0  0  0  0  0
   -3.1220   -1.1455    1.1644 C   0  0  2  0  0  0  0  0  0  0  0  0
   -2.2017    0.0428    0.9187 C   0  0  0  0  0  0  0  0  0  0  0  0
   -2.6171    1.1750    0.6807 O   0  0  0  0  0  0  0  0  0  0  0  0
   -3.2533   -1.9992   -0.0873 C   0  0  0  0  0  0  0  0  0  0  0  0
   -4.4370    0.2910    2.0047 H   0  0  0  0  0  0  0  0  0  0  0  0
   -2.7302   -1.7467    1.9921 H   0  0  0  0  0  0  0  0  0  0  0  0
   -3.6446   -1.4140   -0.9275 H   0  0  0  0  0  0  0  0  0  0  0  0
   -2.2844   -2.4081   -0.3922 H   0  0  0  0  0  0  0  0  0  0  0  0
   -3.9388   -2.8365    0.0822 H   0  0  0  0  0  0  0  0  0  0  0  0
   -0.8768   -0.3314    0.9568 N   0  0  0  0  0  0  0  0  0  0  0  0
    0.2067    0.6285    0.7375 C   0  0  2  0  0  0  0  0  0  0  0  0
    0.3085    1.4616    2.0116 C   0  0  0  0  0  0  0  0  0  0  0  0
   -0.2044    1.1116    3.0727 O   0  0  0  0  0  0  0  0  0  0  0  0
   -0.1166    1.4857   -0.4954 C   0  0  0  0  0  0  0  0  0  0  0  0
   -0.1101    0.6992   -1.8061 C   0  0  0  0  0  0  0  0  0  0  0  0
   -0.4553    1.5700   -2.9884 C   0  0  0  0  0  0  0  0  0  0  0  0
   -0.8292    2.7320   -2.8928 O   0  0  0  0  0  0  0  0  0  0  0  0
   -0.3336    0.9226   -4.1735 O   0  0  0  0  0  0  0  0  0  0  0  0
   -0.6087   -1.2764    1.1771 H   0  0  0  0  0  0  0  0  0  0  0  0
    1.1340    0.0711    0.5695 H   0  0  0  0  0  0  0  0  0  0  0  0
   -1.1029    1.9506   -0.3638 H   0  0  0  0  0  0  0  0  0  0  0  0
    0.6070    2.3065   -0.5858 H   0  0  0  0  0  0  0  0  0  0  0  0
    0.8939    0.2974   -1.9902 H   0  0  0  0  0  0  0  0  0  0  0  0
   -0.7715   -0.1723   -1.7642 H   0  0  0  0  0  0  0  0  0  0  0  0
   -0.5670    1.4487   -4.9677 H   0  0  0  0  0  0  0  0  0  0  0  0
    1.0573    2.6151    1.8305 N   0  0  0  0  0  0  0  0  0  0  0  0
    1.3041    3.5727    2.8844 C   0  0  2  0  0  0  0  0  0  0  0  0
    0.2407    4.6590    2.7913 C   0  0  0  0  0  0  0  0  0  0  0  0
   -0.3825    4.9010    1.7598 O   0  0  0  0  0  0  0  0  0  0  0  0
    2.6995    4.1674    2.7761 C   0  0  0  0  0  0  0  0  0  0  0  0
    1.4515    2.7956    0.9122 H   0  0  0  0  0  0  0  0  0  0  0  0
    1.1953    3.0347    3.8325 H   0  0  0  0  0  0  0  0  0  0  0  0
    2.8274    4.7104    1.8326 H   0  0  0  0  0  0  0  0  0  0  0  0
    2.8953    4.8713    3.5917 H   0  0  0  0  0  0  0  0  0  0  0  0
    3.4619    3.3818    2.8133 H   0  0  0  0  0  0  0  0  0  0  0  0
    0.1000    5.3552    3.9837 N   0  0  0  0  0  0  0  0  0  0  0  0
   -0.8366    6.4426    4.1458 C   0  0  0  0  0  0  0  0  0  0  0  0
    0.6446    5.0740    4.7937 H   0  0  0  0  0  0  0  0  0  0  0  0
   -0.3345    7.3959    3.9243 H   0  0  0  0  0  0  0  0  0  0  0  0
   -1.6817    6.3044    3.4553 H   0  0  0  0  0  0  0  0  0  0  0  0
   -1.2075    6.4556    5.1813 H   0  0  0  0  0  0  0  0  0  0  0  0
  1  3  1  0  0  0  0
  1  7  1  0  0  0  0
  1  2  2  0  0  0  0
 34 35  1  0  0  0  0
 35 43  1  0  0  0  0
 35 36  2  0  0  0  0
  8  9  1  0  0  0  0
  9 17  1  0  0  0  0
  9 10  2  0  0  0  0
 18 19  1  0  0  0  0
 19 33  1  0  0  0  0
 19 20  2  0  0  0  0
 22 23  1  0  0  0  0
 23 24  2  0  0  0  0
 23 25  1  0  0  0  0
 34 37  1  0  0  0  0
  8 11  1  0  0  0  0
 43 44  1  0  0  0  0
 21 22  1  0  0  0  0
 18 21  1  0  0  0  0
 33 34  1  0  0  0  0
  7  8  1  0  0  0  0
 17 18  1  0  0  0  0
  3  4  1  0  0  0  0
  3  5  1  0  0  0  0
  3  6  1  0  0  0  0
 37 40  1  0  0  0  0
 37 41  1  0  0  0  0
 37 42  1  0  0  0  0
 11 14  1  0  0  0  0
 11 15  1  0  0  0  0
 11 16  1  0  0  0  0
 44 46  1  0  0  0  0
 44 47  1  0  0  0  0
 44 48  1  0  0  0  0
 22 30  1  0  0  0  0
 22 31  1  0  0  0  0
 21 28  1  0  0  0  0
 21 29  1  0  0  0  0
 34 39  1  0  0  0  0
  8 13  1  0  0  0  0
 18 27  1  0  0  0  0
 43 45  1  0  0  0  0
  7 12  1  0  0  0  0
 33 38  1  0  0  0  0
 17 26  1  0  0  0  0
 25 32  1  0  0  0  0
M  END
$$$$

  -OEChem-05262214473D

 48 47  0     1  0  0  0  0  0999 V2000
   -5.5827   -1.3473    1.4591 C   0  0  0  0  0  0  0  0  0  0  0  0
   -5.7053   -2.4696    0.9825 O   0  0  0  0  0  0  0  0  0  0  0  0
   -6.7879   -0.6277    1.9670 C   0  0  0  0  0  0  0  0  0  0  0  0
   -7.2718   -0.0164    1.1885 H   0  0  0  0  0  0  0  0  0  0  0  0
   -7.5699   -1.3171    2.3239 H   0  0  0  0  0  0  0  0  0  0  0  0
   -6.6057    0.0628    2.8060 H   0  0  0  0  0  0  0  0  0  0  0  0
   -4.4001   -0.6377    1.5884 N   0  0  0  0  0  0  0  0  0  0  0  0
   -3.1220   -1.1455    1.1644 C   0  0  2  0  0  0  0  0  0  0  0  0
   -2.2017    0.0428    0.9187 C   0  0  0  0  0  0  0  0  0  0  0  0
   -2.6171    1.1750    0.6807 O   0  0  0  0  0  0  0  0  0  0  0  0
   -3.2533   -1.9992   -0.0873 C   0  0  0  0  0  0  0  0  0  0  0  0
   -4.4370    0.2910    2.0047 H   0  0  0  0  0  0  0  0  0  0  0  0
   -2.7302   -1.7467    1.9921 H   0  0  0  0  0  0  0  0  0  0  0  0
   -3.6446   -1.4140   -0.9275 H   0  0  0  0  0  0  0  0  0  0  0  0
   -2.2844   -2.4081   -0.3922 H   0  0  0  0  0  0  0  0  0  0  0  0
   -3.9388   -2.8365    0.0822 H   0  0  0  0  0  0  0  0  0  0  0  0
   -0.8768   -0.3314    0.9568 N   0  0  0  0  0  0  0  0  0  0  0  0
    0.2067    0.6285    0.7375 C   0  0  2  0  0  0  0  0  0  0  0  0
    0.3085    1.4616    2.0116 C   0  0  0  0  0  0  0  0  0  0  0  0
    0.0402    1.0066    3.1217 O   0  0  0  0  0  0  0  0  0  0  0  0
   -0.1166    1.4857   -0.4954 C   0  0  0  0  0  0  0  0  0  0  0  0
   -0.1101    0.6992   -1.8061 C   0  0  0  0  0  0  0  0  0  0  0  0
   -0.4553    1.5700   -2.9884 C   0  0  0  0  0  0  0  0  0  0  0  0
   -0.8292    2.7320   -2.8928 O   0  0  0  0  0  0  0  0  0  0  0  0
   -0.3336    0.9226   -4.1735 O   0  0  0  0  0  0  0  0  0  0  0  0
   -0.6087   -1.2764    1.1771 H   0  0  0  0  0  0  0  0  0  0  0  0
    1.1340    0.0711    0.5695 H   0  0  0  0  0  0  0  0  0  0  0  0
   -1.1029    1.9506   -0.3638 H   0  0  0  0  0  0  0  0  0  0  0  0
    0.6070    2.3065   -0.5858 H   0  0  0  0  0  0  0  0  0  0  0  0
    0.8939    0.2974   -1.9902 H   0  0  0  0  0  0  0  0  0  0  0  0
   -0.7715   -0.1723   -1.7642 H   0  0  0  0  0  0  0  0  0  0  0  0
   -0.5670    1.4487   -4.9677 H   0  0  0  0  0  0  0  0  0  0  0  0
    0.7581    2.7506    1.7658 N   0  0  0  0  0  0  0  0  0  0  0  0
    0.9417    3.7371    2.8059 C   0  0  2  0  0  0  0  0  0  0  0  0
   -0.3324    4.5664    2.8977 C   0  0  0  0  0  0  0  0  0  0  0  0
   -1.1342    4.6689    1.9716 O   0  0  0  0  0  0  0  0  0  0  0  0
    2.1465    4.6211    2.5236 C   0  0  0  0  0  0  0  0  0  0  0  0
    0.9686    3.0141    0.8079 H   0  0  0  0  0  0  0  0  0  0  0  0
    1.0880    3.1867    3.7417 H   0  0  0  0  0  0  0  0  0  0  0  0
    2.0181    5.1806    1.5898 H   0  0  0  0  0  0  0  0  0  0  0  0
    2.3011    5.3493    3.3266 H   0  0  0  0  0  0  0  0  0  0  0  0
    3.0572    4.0199    2.4284 H   0  0  0  0  0  0  0  0  0  0  0  0
   -0.4472    5.2133    4.1202 N   0  0  0  0  0  0  0  0  0  0  0  0
   -1.5625    6.0708    4.4469 C   0  0  0  0  0  0  0  0  0  0  0  0
    0.2554    5.0558    4.8367 H   0  0  0  0  0  0  0  0  0  0  0  0
   -1.3140    7.1108    4.1889 H   0  0  0  0  0  0  0  0  0  0  0  0
   -2.4481    5.7534    3.8768 H   0  0  0  0  0  0  0  0  0  0  0  0
   -1.7753    6.0011    5.5238 H   0  0  0  0  0  0  0  0  0  0  0  0
  1  3  1  0  0  0  0
  1  7  1  0  0  0  0
  1  2  2  0  0  0  0
 34 35  1  0  0  0  0
 35 43  1  0  0  0  0
 35 36  2  0  0  0  0
  8  9  1  0  0  0  0
  9 17  1  0  0  0  0
  9 10  2  0  0  0  0
 18 19  1  0  0  0  0
 19 33  1  0  0  0  0
 19 20  2  0  0  0  0
 22 23  1  0  0  0  0
 23 24  2  0  0  0  0
 23 25  1  0  0  0  0
 34 37  1  0  0  0  0
  8 11  1  0  0  0  0
 43 44  1  0  0  0  0
 21 22  1  0  0  0  0
 18 21  1  0  0  0  0
 33 34  1  0  0  0  0
  7  8  1  0  0  0  0
 17 18  1  0  0  0  0
  3  4  1  0  0  0  0
  3  5  1  0  0  0  0
  3  6  1  0  0  0  0
 37 40  1  0  0  0  0
 37 41  1  0  0  0  0
 37 42  1  0  0  0  0
 11 14  1  0  0  0  0
 11 15  1  0  0  0  0
 11 16  1  0  0  0  0
 44 46  1  0  0  0  0
 44 47  1  0  0  0  0
 44 48  1  0  0  0  0
 22 30  1  0  0  0  0
 22 31  1  0  0  0  0
 21 28  1  0  0  0  0
 21 29  1  0  0  0  0
 34 39  1  0  0  0  0
  8 13  1  0  0  0  0
 18 27  1  0  0  0  0
 43 45  1  0  0  0  0
  7 12  1  0  0  0  0
 33 38  1  0  0  0  0
 17 26  1  0  0  0  0
 25 32  1  0  0  0  0
M  END
$$$$

  -OEChem-05262214473D

 48 47  0     1  0  0  0  0  0999 V2000
   -5.5827   -1.3473    1.4591 C   0  0  0  0  0  0  0  0  0  0  0  0
   -5.7053   -2.4696    0.9825 O   0  0  0  0  0  0  0  0  0  0  0  0
   -6.7879   -0.6277    1.9670 C   0  0  0  0  0  0  0  0  0  0  0  0
   -7.2718   -0.0164    1.1885 H   0  0  0  0  0  0  0  0  0  0  0  0
   -7.5699   -1.3171    2.3239 H   0  0  0  0  0  0  0  0  0  0  0  0
   -6.6057    0.0628    2.8060 H   0  0  0  0  0  0  0  0  0  0  0  0
   -4.4001   -0.6377    1.5884 N   0  0  0  0  0  0  0  0  0  0  0  0
   -3.1220   -1.1455    1.1644 C   0  0  2  0  0  0  0  0  0  0  0  0
   -2.2017    0.0428    0.9187 C   0  0  0  0  0  0  0  0  0  0  0  0
   -2.6171    1.1750    0.6807 O   0  0  0  0  0  0  0  0  0  0  0  0
   -3.2533   -1.9992   -0.0873 C   0  0  0  0  0  0  0  0  0  0  0  0
   -4.4370    0.2910    2.0047 H   0  0  0  0  0  0  0  0  0  0  0  0
   -2.7302   -1.7467    1.9921 H   0  0  0  0  0  0  0  0  0  0  0  0
   -3.6446   -1.4140   -0.9275 H   0  0  0  0  0  0  0  0  0  0  0  0
   -2.2844   -2.4081   -0.3922 H   0  0  0  0  0  0  0  0  0  0  0  0
   -3.9388   -2.8365    0.0822 H   0  0  0  0  0  0  0  0  0  0  0  0
   -0.8768   -0.3314    0.9568 N   0  0  0  0  0  0  0  0  0  0  0  0
    0.2067    0.6285    0.7375 C   0  0  2  0  0  0  0  0  0  0  0  0
    0.3085    1.4616    2.0116 C   0  0  0  0  0  0  0  0  0  0  0  0
    0.3061    0.9572    3.1328 O   0  0  0  0  0  0  0  0  0  0  0  0
   -0.1166    1.4857   -0.4954 C   0  0  0  0  0  0  0  0  0  0  0  0
   -0.1101    0.6992   -1.8061 C   0  0  0  0  0  0  0  0  0  0  0  0
   -0.4553    1.5700   -2.9884 C   0  0  0  0  0  0  0  0  0  0  0  0
   -0.8292    2.7320   -2.8928 O   0  0  0  0  0  0  0  0  0  0  0  0
   -0.3336    0.9226   -4.1735 O   0  0  0  0  0  0  0  0  0  0  0  0
   -0.6087   -1.2764    1.1771 H   0  0  0  0  0  0  0  0  0  0  0  0
    1.1340    0.0711    0.5695 H   0  0  0  0  0  0  0  0  0  0  0  0
   -1.1029    1.9506   -0.3638 H   0  0  0  0  0  0  0  0  0  0  0  0
    0.6070    2.3065   -0.5858 H   0  0  0  0  0  0  0  0  0  0  0  0
    0.8939    0.2974   -1.9902 H   0  0  0  0  0  0  0  0  0  0  0  0
   -0.7715   -0.1723   -1.7642 H   0  0  0  0  0  0  0  0  0  0  0  0
   -0.5670    1.4487   -4.9677 H   0  0  0  0  0  0  0  0  0  0  0  0
    0.4306    2.8179    1.7480 N   0  0  0  0  0  0  0  0  0  0  0  0
    0.5449    3.8189    2.7841 C   0  0  2  0  0  0  0  0  0  0  0  0
   -0.8510    4.3513    3.0798 C   0  0  0  0  0  0  0  0  0  0  0  0
   -1.7803    4.2787    2.2784 O   0  0  0  0  0  0  0  0  0  0  0  0
    1.4785    4.9442    2.3658 C   0  0  0  0  0  0  0  0  0  0  0  0
    0.4402    3.1225    0.7793 H   0  0  0  0  0  0  0  0  0  0  0  0
    0.9386    3.3118    3.6718 H   0  0  0  0  0  0  0  0  0  0  0  0
    1.1005    5.4640    1.4779 H   0  0  0  0  0  0  0  0  0  0  0  0
    1.5864    5.6872    3.1628 H   0  0  0  0  0  0  0  0  0  0  0  0
    2.4738    4.5555    2.1248 H   0  0  0  0  0  0  0  0  0  0  0  0
   -0.9257    4.9557    4.3269 N   0  0  0  0  0  0  0  0  0  0  0  0
   -2.1407    5.5496    4.8339 C   0  0  0  0  0  0  0  0  0  0  0  0
   -0.1106    4.9534    4.9329 H   0  0  0  0  0  0  0  0  0  0  0  0
   -2.1611    6.6193    4.5781 H   0  0  0  0  0  0  0  0  0  0  0  0
   -3.0097    5.0483    4.3828 H   0  0  0  0  0  0  0  0  0  0  0  0
   -2.1771    5.4334    5.9271 H   0  0  0  0  0  0  0  0  0  0  0  0
  1  3  1  0  0  0  0
  1  7  1  0  0  0  0
  1  2  2  0  0  0  0
 34 35  1  0  0  0  0
 35 43  1  0  0  0  0
 35 36  2  0  0  0  0
  8  9  1  0  0  0  0
  9 17  1  0  0  0  0
  9 10  2  0  0  0  0
 18 19  1  0  0  0  0
 19 33  1  0  0  0  0
 19 20  2  0  0  0  0
 22 23  1  0  0  0  0
 23 24  2  0  0  0  0
 23 25  1  0  0  0  0
 34 37  1  0  0  0  0
  8 11  1  0  0  0  0
 43 44  1  0  0  0  0
 21 22  1  0  0  0  0
 18 21  1  0  0  0  0
 33 34  1  0  0  0  0
  7  8  1  0  0  0  0
 17 18  1  0  0  0  0
  3  4  1  0  0  0  0
  3  5  1  0  0  0  0
  3  6  1  0  0  0  0
 37 40  1  0  0  0  0
 37 41  1  0  0  0  0
 37 42  1  0  0  0  0
 11 14  1  0  0  0  0
 11 15  1  0  0  0  0
 11 16  1  0  0  0  0
 44 46  1  0  0  0  0
 44 47  1  0  0  0  0
 44 48  1  0  0  0  0
 22 30  1  0  0  0  0
 22 31  1  0  0  0  0
 21 28  1  0  0  0  0
 21 29  1  0  0  0  0
 34 39  1  0  0  0  0
  8 13  1  0  0  0  0
 18 27  1  0  0  0  0
 43 45  1  0  0  0  0
  7 12  1  0  0  0  0
 33 38  1  0  0  0  0
 17 26  1  0  0  0  0
 25 32  1  0  0  0  0
M  END
$$$$

  -OEChem-05262214473D

 48 47  0     1  0  0  0  0  0999 V2000
   -5.5827   -1.3473    1.4591 C   0  0  0  0  0  0  0  0  0  0  0  0
   -5.7053   -2.4696    0.9825 O   0  0  0  0  0  0  0  0  0  0  0  0
   -6.7879   -0.6277    1.9670 C   0  0  0  0  0  0  0  0  0  0  0  0
   -7.2718   -0.0164    1.1885 H   0  0  0  0  0  0  0  0  0  0  0  0
   -7.5699   -1.3171    2.3239 H   0  0  0  0  0  0  0  0  0  0  0  0
   -6.6057    0.0628    2.8060 H   0  0  0  0  0  0  0  0  0  0  0  0
   -4.4001   -0.6377    1.5884 N   0  0  0  0  0  0  0  0  0  0  0  0
   -3.1220   -1.1455    1.1644 C   0  0  2  0  0  0  0  0  0  0  0  0
   -2.2017    0.0428    0.9187 C   0  0  0  0  0  0  0  0  0  0  0  0
   -2.6171    1.1750    0.6807 O   0  0  0  0  0  0  0  0  0  0  0  0
   -3.2533   -1.9992   -0.0873 C   0  0  0  0  0  0  0  0  0  0  0  0
   -4.4370    0.2910    2.0047 H   0  0  0  0  0  0  0  0  0  0  0  0
   -2.7302   -1.7467    1.9921 H   0  0  0  0  0  0  0  0  0  0  0  0
   -3.6446   -1.4140   -0.9275 H   0  0  0  0  0  0  0  0  0  0  0  0
   -2.2844   -2.4081   -0.3922 H   0  0  0  0  0  0  0  0  0  0  0  0
   -3.9388   -2.8365    0.0822 H   0  0  0  0  0  0  0  0  0  0  0  0
   -0.8768   -0.3314    0.9568 N   0  0  0  0  0  0  0  0  0  0  0  0
    0.2067    0.6285    0.7375 C   0  0  2  0  0  0  0  0  0  0  0  0
    0.3085    1.4616    2.0116 C   0  0  0  0  0  0  0  0  0  0  0  0
    0.5751    0.9668    3.1050 O   0  0  0  0  0  0  0  0  0  0  0  0
   -0.1166    1.4857   -0.4954 C   0  0  0  0  0  0  0  0  0  0  0  0
   -0.1101    0.6992   -1.8061 C   0  0  0  0  0  0  0  0  0  0  0  0
   -0.4553    1.5700   -2.9884 C   0  0  0  0  0  0  0  0  0  0  0  0
   -0.8292    2.7320   -2.8928 O   0  0  0  0  0  0  0  0  0  0  0  0
   -0.3336    0.9226   -4.1735 O   0  0  0  0  0  0  0  0  0  0  0  0
   -0.6087   -1.2764    1.1771 H   0  0  0  0  0  0  0  0  0  0  0  0
    1.1340    0.0711    0.5695 H   0  0  0  0  0  0  0  0  0  0  0  0
   -1.1029    1.9506   -0.3638 H   0  0  0  0  0  0  0  0  0  0  0  0
    0.6070    2.3065   -0.5858 H   0  0  0  0  0  0  0  0  0  0  0  0
    0.8939    0.2974   -1.9902 H   0  0  0  0  0  0  0  0  0  0  0  0
   -0.7715   -0.1723   -1.7642 H   0  0  0  0  0  0  0  0  0  0  0  0
   -0.5670    1.4487   -4.9677 H   0  0  0  0  0  0  0  0  0  0  0  0
    0.0973    2.8125    1.7782 N   0  0  0  0  0  0  0  0  0  0  0  0
    0.1410    3.8126    2.8205 C   0  0  2  0  0  0  0  0  0  0  0  0
   -1.2797    4.0283    3.3253 C   0  0  0  0  0  0  0  0  0  0  0  0
   -2.2766    3.7568    2.6593 O   0  0  0  0  0  0  0  0  0  0  0  0
    0.7412    5.1146    2.3133 C   0  0  0  0  0  0  0  0  0  0  0  0
   -0.0977    3.1135    0.8281 H   0  0  0  0  0  0  0  0  0  0  0  0
    0.7574    3.4017    3.6275 H   0  0  0  0  0  0  0  0  0  0  0  0
    0.1371    5.5414    1.5043 H   0  0  0  0  0  0  0  0  0  0  0  0
    0.7999    5.8619    3.1114 H   0  0  0  0  0  0  0  0  0  0  0  0
    1.7517    4.9520    1.9233 H   0  0  0  0  0  0  0  0  0  0  0  0
   -1.3031    4.5998    4.5898 N   0  0  0  0  0  0  0  0  0  0  0  0
   -2.5319    4.9145    5.2804 C   0  0  0  0  0  0  0  0  0  0  0  0
   -0.4283    4.7737    5.0758 H   0  0  0  0  0  0  0  0  0  0  0  0
   -2.8181    5.9546    5.0652 H   0  0  0  0  0  0  0  0  0  0  0  0
   -3.3283    4.2370    4.9387 H   0  0  0  0  0  0  0  0  0  0  0  0
   -2.3855    4.7913    6.3636 H   0  0  0  0  0  0  0  0  0  0  0  0
  1  3  1  0  0  0  0
  1  7  1  0  0  0  0
  1  2  2  0  0  0  0
 34 35  1  0  0  0  0
 35 43  1  0  0  0  0
 35 36  2  0  0  0  0
  8  9  1  0  0  0  0
  9 17  1  0  0  0  0
  9 10  2  0  0  0  0
 18 19  1  0  0  0  0
 19 33  1  0  0  0  0
 19 20  2  0  0  0  0
 22 23  1  0  0  0  0
 23 24  2  0  0  0  0
 23 25  1  0  0  0  0
 34 37  1  0  0  0  0
  8 11  1  0  0  0  0
 43 44  1  0  0  0  0
 21 22  1  0  0  0  0
 18 21  1  0  0  0  0
 33 34  1  0  0  0  0
  7  8  1  0  0  0  0
 17 18  1  0  0  0  0
  3  4  1  0  0  0  0
  3  5  1  0  0  0  0
  3  6  1  0  0  0  0
 37 40  1  0  0  0  0
 37 41  1  0  0  0  0
 37 42  1  0  0  0  0
 11 14  1  0  0  0  0
 11 15  1  0  0  0  0
 11 16  1  0  0  0  0
 44 46  1  0  0  0  0
 44 47  1  0  0  0  0
 44 48  1  0  0  0  0
 22 30  1  0  0  0  0
 22 31  1  0  0  0  0
 21 28  1  0  0  0  0
 21 29  1  0  0  0  0
 34 39  1  0  0  0  0
  8 13  1  0  0  0  0
 18 27  1  0  0  0  0
 43 45  1  0  0  0  0
  7 12  1  0  0  0  0
 33 38  1  0  0  0  0
 17 26  1  0  0  0  0
 25 32  1  0  0  0  0
M  END
$$$$

  -OEChem-05262214473D

 48 47  0     1  0  0  0  0  0999 V2000
   -5.5827   -1.3473    1.4591 C   0  0  0  0  0  0  0  0  0  0  0  0
   -5.7053   -2.4696    0.9825 O   0  0  0  0  0  0  0  0  0  0  0  0
   -6.7879   -0.6277    1.9670 C   0  0  0  0  0  0  0  0  0  0  0  0
   -7.2718   -0.0164    1.1885 H   0  0  0  0  0  0  0  0  0  0  0  0
   -7.5699   -1.3171    2.3239 H   0  0  0  0  0  0  0  0  0  0  0  0
   -6.6057    0.0628    2.8060 H   0  0  0  0  0  0  0  0  0  0  0  0
   -4.4001   -0.6377    1.5884 N   0  0  0  0  0  0  0  0  0  0  0  0
   -3.1220   -1.1455    1.1644 C   0  0  2  0  0  0  0  0  0  0  0  0
   -2.2017    0.0428    0.9187 C   0  0  0  0  0  0  0  0  0  0  0  0
   -2.6171    1.1750    0.6807 O   0  0  0  0  0  0  0  0  0  0  0  0
   -3.2533   -1.9992   -0.0873 C   0  0  0  0  0  0  0  0  0  0  0  0
   -4.4370    0.2910    2.0047 H   0  0  0  0  0  0  0  0  0  0  0  0
   -2.7302   -1.7467    1.9921 H   0  0  0  0  0  0  0  0  0  0  0  0
   -3.6446   -1.4140   -0.9275 H   0  0  0  0  0  0  0  0  0  0  0  0
   -2.2844   -2.4081   -0.3922 H   0  0  0  0  0  0  0  0  0  0  0  0
   -3.9388   -2.8365    0.0822 H   0  0  0  0  0  0  0  0  0  0  0  0
   -0.8768   -0.3314    0.9568 N   0  0  0  0  0  0  0  0  0  0  0  0
    0.2067    0.6285    0.7375 C   0  0  2  0  0  0  0  0  0  0  0  0
    0.3085    1.4616    2.0116 C   0  0  0  0  0  0  0  0  0  0  0  0
    0.8290    1.0347    3.0403 O   0  0  0  0  0  0  0  0  0  0  0  0
   -0.1166    1.4857   -0.4954 C   0  0  0  0  0  0  0  0  0  0  0  0
   -0.1101    0.6992   -1.8061 C   0  0  0  0  0  0  0  0  0  0  0  0
   -0.4553    1.5700   -2.9884 C   0  0  0  0  0  0  0  0  0  0  0  0
   -0.8292    2.7320   -2.8928 O   0  0  0  0  0  0  0  0  0  0  0  0
   -0.3336    0.9226   -4.1735 O   0  0  0  0  0  0  0  0  0  0  0  0
   -0.6087   -1.2764    1.1771 H   0  0  0  0  0  0  0  0  0  0  0  0
    1.1340    0.0711    0.5695 H   0  0  0  0  0  0  0  0  0  0  0  0
   -1.1029    1.9506   -0.3638 H   0  0  0  0  0  0  0  0  0  0  0  0
    0.6070    2.3065   -0.5858 H   0  0  0  0  0  0  0  0  0  0  0  0
    0.8939    0.2974   -1.9902 H   0  0  0  0  0  0  0  0  0  0  0  0
   -0.7715   -0.1723   -1.7642 H   0  0  0  0  0  0  0  0  0  0  0  0
   -0.5670    1.4487   -4.9677 H   0  0  0  0  0  0  0  0  0  0  0  0
   -0.2193    2.7346    1.8544 N   0  0  0  0  0  0  0  0  0  0  0  0
   -0.2427    3.7186    2.9127 C   0  0  2  0  0  0  0  0  0  0  0  0
   -1.5892    3.6194    3.6174 C   0  0  0  0  0  0  0  0  0  0  0  0
   -2.5893    3.1388    3.0884 O   0  0  0  0  0  0  0  0  0  0  0  0
   -0.0153    5.1208    2.3697 C   0  0  0  0  0  0  0  0  0  0  0  0
   -0.6084    2.9878    0.9512 H   0  0  0  0  0  0  0  0  0  0  0  0
    0.5567    3.4500    3.6119 H   0  0  0  0  0  0  0  0  0  0  0  0
   -0.8064    5.4074    1.6673 H   0  0  0  0  0  0  0  0  0  0  0  0
   -0.0049    5.8616    3.1760 H   0  0  0  0  0  0  0  0  0  0  0  0
    0.9401    5.1825    1.8375 H   0  0  0  0  0  0  0  0  0  0  0  0
   -1.5536    4.1699    4.8909 N   0  0  0  0  0  0  0  0  0  0  0  0
   -2.7094    4.2088    5.7560 C   0  0  0  0  0  0  0  0  0  0  0  0
   -0.6762    4.5290    5.2557 H   0  0  0  0  0  0  0  0  0  0  0  0
   -3.2402    5.1622    5.6171 H   0  0  0  0  0  0  0  0  0  0  0  0
   -3.3822    3.3750    5.5066 H   0  0  0  0  0  0  0  0  0  0  0  0
   -2.3863    4.1185    6.8037 H   0  0  0  0  0  0  0  0  0  0  0  0
  1  3  1  0  0  0  0
  1  7  1  0  0  0  0
  1  2  2  0  0  0  0
 34 35  1  0  0  0  0
 35 43  1  0  0  0  0
 35 36  2  0  0  0  0
  8  9  1  0  0  0  0
  9 17  1  0  0  0  0
  9 10  2  0  0  0  0
 18 19  1  0  0  0  0
 19 33  1  0  0  0  0
 19 20  2  0  0  0  0
 22 23  1  0  0  0  0
 23 24  2  0  0  0  0
 23 25  1  0  0  0  0
 34 37  1  0  0  0  0
  8 11  1  0  0  0  0
 43 44  1  0  0  0  0
 21 22  1  0  0  0  0
 18 21  1  0  0  0  0
 33 34  1  0  0  0  0
  7  8  1  0  0  0  0
 17 18  1  0  0  0  0
  3  4  1  0  0  0  0
  3  5  1  0  0  0  0
  3  6  1  0  0  0  0
 37 40  1  0  0  0  0
 37 41  1  0  0  0  0
 37 42  1  0  0  0  0
 11 14  1  0  0  0  0
 11 15  1  0  0  0  0
 11 16  1  0  0  0  0
 44 46  1  0  0  0  0
 44 47  1  0  0  0  0
 44 48  1  0  0  0  0
 22 30  1  0  0  0  0
 22 31  1  0  0  0  0
 21 28  1  0  0  0  0
 21 29  1  0  0  0  0
 34 39  1  0  0  0  0
  8 13  1  0  0  0  0
 18 27  1  0  0  0  0
 43 45  1  0  0  0  0
  7 12  1  0  0  0  0
 33 38  1  0  0  0  0
 17 26  1  0  0  0  0
 25 32  1  0  0  0  0
M  END
$$$$

  -OEChem-05262214473D

 48 47  0     1  0  0  0  0  0999 V2000
   -5.5827   -1.3473    1.4591 C   0  0  0  0  0  0  0  0  0  0  0  0
   -5.7053   -2.4696    0.9825 O   0  0  0  0  0  0  0  0  0  0  0  0
   -6.7879   -0.6277    1.9670 C   0  0  0  0  0  0  0  0  0  0  0  0
   -7.2718   -0.0164    1.1885 H   0  0  0  0  0  0  0  0  0  0  0  0
   -7.5699   -1.3171    2.3239 H   0  0  0  0  0  0  0  0  0  0  0  0
   -6.6057    0.0628    2.8060 H   0  0  0  0  0  0  0  0  0  0  0  0
   -4.4001   -0.6377    1.5884 N   0  0  0  0  0  0  0  0  0  0  0  0
   -3.1220   -1.1455    1.1644 C   0  0  2  0  0  0  0  0  0  0  0  0
   -2.2017    0.0428    0.9187 C   0  0  0  0  0  0  0  0  0  0  0  0
   -2.6171    1.1750    0.6807 O   0  0  0  0  0  0  0  0  0  0  0  0
   -3.2533   -1.9992   -0.0873 C   0  0  0  0  0  0  0  0  0  0  0  0
   -4.4370    0.2910    2.0047 H   0  0  0  0  0  0  0  0  0  0  0  0
   -2.7302   -1.7467    1.9921 H   0  0  0  0  0  0  0  0  0  0  0  0
   -3.6446   -1.4140   -0.9275 H   0  0  0  0  0  0  0  0  0  0  0  0
   -2.2844   -2.4081   -0.3922 H   0  0  0  0  0  0  0  0  0  0  0  0
   -3.9388   -2.8365    0.0822 H   0  0  0  0  0  0  0  0  0  0  0  0
   -0.8768   -0.3314    0.9568 N   0  0  0  0  0  0  0  0  0  0  0  0
    0.2067    0.6285    0.7375 C   0  0  2  0  0  0  0  0  0  0  0  0
    0.3085    1.4616    2.0116 C   0  0  0  0  0  0  0  0  0  0  0  0
    1.0504    1.1563    2.9431 O   0  0  0  0  0  0  0  0  0  0  0  0
   -0.1166    1.4857   -0.4954 C   0  0  0  0  0  0  0  0  0  0  0  0
   -0.1101    0.6992   -1.8061 C   0  0  0  0  0  0  0  0  0  0  0  0
   -0.4553    1.5700   -2.9884 C   0  0  0  0  0  0  0  0  0  0  0  0
   -0.8292    2.7320   -2.8928 O   0  0  0  0  0  0  0  0  0  0  0  0
   -0.3336    0.9226   -4.1735 O   0  0  0  0  0  0  0  0  0  0  0  0
   -0.6087   -1.2764    1.1771 H   0  0  0  0  0  0  0  0  0  0  0  0
    1.1340    0.0711    0.5695 H   0  0  0  0  0  0  0  0  0  0  0  0
   -1.1029    1.9506   -0.3638 H   0  0  0  0  0  0  0  0  0  0  0  0
    0.6070    2.3065   -0.5858 H   0  0  0  0  0  0  0  0  0  0  0  0
    0.8939    0.2974   -1.9902 H   0  0  0  0  0  0  0  0  0  0  0  0
   -0.7715   -0.1723   -1.7642 H   0  0  0  0  0  0  0  0  0  0  0  0
   -0.5670    1.4487   -4.9677 H   0  0  0  0  0  0  0  0  0  0  0  0
   -0.4975    2.5897    1.9714 N   0  0  0  0  0  0  0  0  0  0  0  0
   -0.5799    3.5432    3.0543 C   0  0  2  0  0  0  0  0  0  0  0  0
   -1.7585    3.1525    3.9362 C   0  0  0  0  0  0  0  0  0  0  0  0
   -2.6972    2.4669    3.5363 O   0  0  0  0  0  0  0  0  0  0  0  0
   -0.7394    4.9622    2.5313 C   0  0  0  0  0  0  0  0  0  0  0  0
   -1.0572    2.7538    1.1400 H   0  0  0  0  0  0  0  0  0  0  0  0
    0.3502    3.4537    3.6261 H   0  0  0  0  0  0  0  0  0  0  0  0
   -1.6659    5.0713    1.9558 H   0  0  0  0  0  0  0  0  0  0  0  0
   -0.7730    5.6862    3.3521 H   0  0  0  0  0  0  0  0  0  0  0  0
    0.0941    5.2311    1.8734 H   0  0  0  0  0  0  0  0  0  0  0  0
   -1.6600    3.6953    5.2097 N   0  0  0  0  0  0  0  0  0  0  0  0
   -2.6611    3.4805    6.2284 C   0  0  0  0  0  0  0  0  0  0  0  0
   -0.8374    4.2359    5.4602 H   0  0  0  0  0  0  0  0  0  0  0  0
   -3.3987    4.2960    6.1961 H   0  0  0  0  0  0  0  0  0  0  0  0
   -3.1676    2.5209    6.0480 H   0  0  0  0  0  0  0  0  0  0  0  0
   -2.1795    3.4608    7.2172 H   0  0  0  0  0  0  0  0  0  0  0  0
  1  3  1  0  0  0  0
  1  7  1  0  0  0  0
  1  2  2  0  0  0  0
 34 35  1  0  0  0  0
 35 43  1  0  0  0  0
 35 36  2  0  0  0  0
  8  9  1  0  0  0  0
  9 17  1  0  0  0  0
  9 10  2  0  0  0  0
 18 19  1  0  0  0  0
 19 33  1  0  0  0  0
 19 20  2  0  0  0  0
 22 23  1  0  0  0  0
 23 24  2  0  0  0  0
 23 25  1  0  0  0  0
 34 37  1  0  0  0  0
  8 11  1  0  0  0  0
 43 44  1  0  0  0  0
 21 22  1  0  0  0  0
 18 21  1  0  0  0  0
 33 34  1  0  0  0  0
  7  8  1  0  0  0  0
 17 18  1  0  0  0  0
  3  4  1  0  0  0  0
  3  5  1  0  0  0  0
  3  6  1  0  0  0  0
 37 40  1  0  0  0  0
 37 41  1  0  0  0  0
 37 42  1  0  0  0  0
 11 14  1  0  0  0  0
 11 15  1  0  0  0  0
 11 16  1  0  0  0  0
 44 46  1  0  0  0  0
 44 47  1  0  0  0  0
 44 48  1  0  0  0  0
 22 30  1  0  0  0  0
 22 31  1  0  0  0  0
 21 28  1  0  0  0  0
 21 29  1  0  0  0  0
 34 39  1  0  0  0  0
  8 13  1  0  0  0  0
 18 27  1  0  0  0  0
 43 45  1  0  0  0  0
  7 12  1  0  0  0  0
 33 38  1  0  0  0  0
 17 26  1  0  0  0  0
 25 32  1  0  0  0  0
M  END
$$$$

  -OEChem-05262214473D

 48 47  0     1  0  0  0  0  0999 V2000
   -5.5827   -1.3473    1.4591 C   0  0  0  0  0  0  0  0  0  0  0  0
   -5.7053   -2.4696    0.9825 O   0  0  0  0  0  0  0  0  0  0  0  0
   -6.7879   -0.6277    1.9670 C   0  0  0  0  0  0  0  0  0  0  0  0
   -7.2718   -0.0164    1.1885 H   0  0  0  0  0  0  0  0  0  0  0  0
   -7.5699   -1.3171    2.3239 H   0  0  0  0  0  0  0  0  0  0  0  0
   -6.6057    0.0628    2.8060 H   0  0  0  0  0  0  0  0  0  0  0  0
   -4.4001   -0.6377    1.5884 N   0  0  0  0  0  0  0  0  0  0  0  0
   -3.1220   -1.1455    1.1644 C   0  0  2  0  0  0  0  0  0  0  0  0
   -2.2017    0.0428    0.9187 C   0  0  0  0  0  0  0  0  0  0  0  0
   -2.6171    1.1750    0.6807 O   0  0  0  0  0  0  0  0  0  0  0  0
   -3.2533   -1.9992   -0.0873 C   0  0  0  0  0  0  0  0  0  0  0  0
   -4.4370    0.2910    2.0047 H   0  0  0  0  0  0  0  0  0  0  0  0
   -2.7302   -1.7467    1.9921 H   0  0  0  0  0  0  0  0  0  0  0  0
   -3.6446   -1.4140   -0.9275 H   0  0  0  0  0  0  0  0  0  0  0  0
   -2.2844   -2.4081   -0.3922 H   0  0  0  0  0  0  0  0  0  0  0  0
   -3.9388   -2.8365    0.0822 H   0  0  0  0  0  0  0  0  0  0  0  0
   -0.8768   -0.3314    0.9568 N   0  0  0  0  0  0  0  0  0  0  0  0
    0.2067    0.6285    0.7375 C   0  0  2  0  0  0  0  0  0  0  0  0
    0.3085    1.4616    2.0116 C   0  0  0  0  0  0  0  0  0  0  0  0
    1.2243    1.3232    2.8201 O   0  0  0  0  0  0  0  0  0  0  0  0
   -0.1166    1.4857   -0.4954 C   0  0  0  0  0  0  0  0  0  0  0  0
   -0.1101    0.6992   -1.8061 C   0  0  0  0  0  0  0  0  0  0  0  0
   -0.4553    1.5700   -2.9884 C   0  0  0  0  0  0  0  0  0  0  0  0
   -0.8292    2.7320   -2.8928 O   0  0  0  0  0  0  0  0  0  0  0  0
   -0.3336    0.9226   -4.1735 O   0  0  0  0  0  0  0  0  0  0  0  0
   -0.6087   -1.2764    1.1771 H   0  0  0  0  0  0  0  0  0  0  0  0
    1.1340    0.0711    0.5695 H   0  0  0  0  0  0  0  0  0  0  0  0
   -1.1029    1.9506   -0.3638 H   0  0  0  0  0  0  0  0  0  0  0  0
    0.6070    2.3065   -0.5858 H   0  0  0  0  0  0  0  0  0  0  0  0
    0.8939    0.2974   -1.9902 H   0  0  0  0  0  0  0  0  0  0  0  0
   -0.7715   -0.1723   -1.7642 H   0  0  0  0  0  0  0  0  0  0  0  0
   -0.5670    1.4487   -4.9677 H   0  0  0  0  0  0  0  0  0  0  0  0
   -0.7183    2.3876    2.1212 N   0  0  0  0  0  0  0  0  0  0  0  0
   -0.8478    3.2985    3.2358 C   0  0  2  0  0  0  0  0  0  0  0  0
   -1.7761    2.6593    4.2601 C   0  0  0  0  0  0  0  0  0  0  0  0
   -2.5929    1.7868    3.9727 O   0  0  0  0  0  0  0  0  0  0  0  0
   -1.3817    4.6498    2.7869 C   0  0  0  0  0  0  0  0  0  0  0  0
   -1.4134    2.4275    1.3818 H   0  0  0  0  0  0  0  0  0  0  0  0
    0.1519    3.4123    3.6690 H   0  0  0  0  0  0  0  0  0  0  0  0
   -2.3826    4.5559    2.3501 H   0  0  0  0  0  0  0  0  0  0  0  0
   -1.4522    5.3477    3.6277 H   0  0  0  0  0  0  0  0  0  0  0  0
   -0.7285    5.0945    2.0284 H   0  0  0  0  0  0  0  0  0  0  0  0
   -1.6152    3.2084    5.5245 N   0  0  0  0  0  0  0  0  0  0  0  0
   -2.3903    2.7794    6.6652 C   0  0  0  0  0  0  0  0  0  0  0  0
   -0.9008    3.9145    5.6754 H   0  0  0  0  0  0  0  0  0  0  0  0
   -3.2827    3.4150    6.7628 H   0  0  0  0  0  0  0  0  0  0  0  0
   -2.6992    1.7329    6.5258 H   0  0  0  0  0  0  0  0  0  0  0  0
   -1.7792    2.8631    7.5760 H   0  0  0  0  0  0  0  0  0  0  0  0
  1  3  1  0  0  0  0
  1  7  1  0  0  0  0
  1  2  2  0  0  0  0
 34 35  1  0  0  0  0
 35 43  1  0  0  0  0
 35 36  2  0  0  0  0
  8  9  1  0  0  0  0
  9 17  1  0  0  0  0
  9 10  2  0  0  0  0
 18 19  1  0  0  0  0
 19 33  1  0  0  0  0
 19 20  2  0  0  0  0
 22 23  1  0  0  0  0
 23 24  2  0  0  0  0
 23 25  1  0  0  0  0
 34 37  1  0  0  0  0
  8 11  1  0  0  0  0
 43 44  1  0  0  0  0
 21 22  1  0  0  0  0
 18 21  1  0  0  0  0
 33 34  1  0  0  0  0
  7  8  1  0  0  0  0
 17 18  1  0  0  0  0
  3  4  1  0  0  0  0
  3  5  1  0  0  0  0
  3  6  1  0  0  0  0
 37 40  1  0  0  0  0
 37 41  1  0  0  0  0
 37 42  1  0  0  0  0
 11 14  1  0  0  0  0
 11 15  1  0  0  0  0
 11 16  1  0  0  0  0
 44 46  1  0  0  0  0
 44 47  1  0  0  0  0
 44 48  1  0  0  0  0
 22 30  1  0  0  0  0
 22 31  1  0  0  0  0
 21 28  1  0  0  0  0
 21 29  1  0  0  0  0
 34 39  1  0  0  0  0
  8 13  1  0  0  0  0
 18 27  1  0  0  0  0
 43 45  1  0  0  0  0
  7 12  1  0  0  0  0
 33 38  1  0  0  0  0
 17 26  1  0  0  0  0
 25 32  1  0  0  0  0
M  END
$$$$

  -OEChem-05262214473D

 48 47  0     1  0  0  0  0  0999 V2000
   -5.5827   -1.3473    1.4591 C   0  0  0  0  0  0  0  0  0  0  0  0
   -5.7053   -2.4696    0.9825 O   0  0  0  0  0  0  0  0  0  0  0  0
   -6.7879   -0.6277    1.9670 C   0  0  0  0  0  0  0  0  0  0  0  0
   -7.2718   -0.0164    1.1885 H   0  0  0  0  0  0  0  0  0  0  0  0
   -7.5699   -1.3171    2.3239 H   0  0  0  0  0  0  0  0  0  0  0  0
   -6.6057    0.0628    2.8060 H   0  0  0  0  0  0  0  0  0  0  0  0
   -4.4001   -0.6377    1.5884 N   0  0  0  0  0  0  0  0  0  0  0  0
   -3.1220   -1.1455    1.1644 C   0  0  2  0  0  0  0  0  0  0  0  0
   -2.2017    0.0428    0.9187 C   0  0  0  0  0  0  0  0  0  0  0  0
   -2.6171    1.1750    0.6807 O   0  0  0  0  0  0  0  0  0  0  0  0
   -3.2533   -1.9992   -0.0873 C   0  0  0  0  0  0  0  0  0  0  0  0
   -4.4370    0.2910    2.0047 H   0  0  0  0  0  0  0  0  0  0  0  0
   -2.7302   -1.7467    1.9921 H   0  0  0  0  0  0  0  0  0  0  0  0
   -3.6446   -1.4140   -0.9275 H   0  0  0  0  0  0  0  0  0  0  0  0
   -2.2844   -2.4081   -0.3922 H   0  0  0  0  0  0  0  0  0  0  0  0
   -3.9388   -2.8365    0.0822 H   0  0  0  0  0  0  0  0  0  0  0  0
   -0.8768   -0.3314    0.9568 N   0  0  0  0  0  0  0  0  0  0  0  0
    0.2067    0.6285    0.7375 C   0  0  2  0  0  0  0  0  0  0  0  0
    0.3085    1.4616    2.0116 C   0  0  0  0  0  0  0  0  0  0  0  0
    1.3388    1.5242    2.6795 O   0  0  0  0  0  0  0  0  0  0  0  0
   -0.1166    1.4857   -0.4954 C   0  0  0  0  0  0  0  0  0  0  0  0
   -0.1101    0.6992   -1.8061 C   0  0  0  0  0  0  0  0  0  0  0  0
   -0.4553    1.5700   -2.9884 C   0  0  0  0  0  0  0  0  0  0  0  0
   -0.8292    2.7320   -2.8928 O   0  0  0  0  0  0  0  0  0  0  0  0
   -0.3336    0.9226   -4.1735 O   0  0  0  0  0  0  0  0  0  0  0  0
   -0.6087   -1.2764    1.1771 H   0  0  0  0  0  0  0  0  0  0  0  0
    1.1340    0.0711    0.5695 H   0  0  0  0  0  0  0  0  0  0  0  0
   -1.1029    1.9506   -0.3638 H   0  0  0  0  0  0  0  0  0  0  0  0
    0.6070    2.3065   -0.5858 H   0  0  0  0  0  0  0  0  0  0  0  0
    0.8939    0.2974   -1.9902 H   0  0  0  0  0  0  0  0  0  0  0  0
   -0.7715   -0.1723   -1.7642 H   0  0  0  0  0  0  0  0  0  0  0  0
   -0.5670    1.4487   -4.9677 H   0  0  0  0  0  0  0  0  0  0  0  0
   -0.8668    2.1421    2.2936 N   0  0  0  0  0  0  0  0  0  0  0  0
   -1.0279    3.0010    3.4446 C   0  0  2  0  0  0  0  0  0  0  0  0
   -1.6408    2.1736    4.5668 C   0  0  0  0  0  0  0  0  0  0  0  0
   -2.2835    1.1449    4.3677 O   0  0  0  0  0  0  0  0  0  0  0  0
   -1.8984    4.2048    3.1192 C   0  0  0  0  0  0  0  0  0  0  0  0
   -1.6527    2.0312    1.6601 H   0  0  0  0  0  0  0  0  0  0  0  0
   -0.0246    3.3287    3.7377 H   0  0  0  0  0  0  0  0  0  0  0  0
   -2.9078    3.8963    2.8233 H   0  0  0  0  0  0  0  0  0  0  0  0
   -1.9961    4.8693    3.9840 H   0  0  0  0  0  0  0  0  0  0  0  0
   -1.4716    4.7822    2.2920 H   0  0  0  0  0  0  0  0  0  0  0  0
   -1.4222    2.7423    5.8138 N   0  0  0  0  0  0  0  0  0  0  0  0
   -1.9154    2.1531    7.0367 C   0  0  0  0  0  0  0  0  0  0  0  0
   -0.8621    3.5866    5.8867 H   0  0  0  0  0  0  0  0  0  0  0  0
   -2.9002    2.5794    7.2786 H   0  0  0  0  0  0  0  0  0  0  0  0
   -2.0089    1.0647    6.9075 H   0  0  0  0  0  0  0  0  0  0  0  0
   -1.2126    2.3660    7.8557 H   0  0  0  0  0  0  0  0  0  0  0  0
  1  3  1  0  0  0  0
  1  7  1  0  0  0  0
  1  2  2  0  0  0  0
 34 35  1  0  0  0  0
 35 43  1  0  0  0  0
 35 36  2  0  0  0  0
  8  9  1  0  0  0  0
  9 17  1  0  0  0  0
  9 10  2  0  0  0  0
 18 19  1  0  0  0  0
 19 33  1  0  0  0  0
 19 20  2  0  0  0  0
 22 23  1  0  0  0  0
 23 24  2  0  0  0  0
 23 25  1  0  0  0  0
 34 37  1  0  0  0  0
  8 11  1  0  0  0  0
 43 44  1  0  0  0  0
 21 22  1  0  0  0  0
 18 21  1  0  0  0  0
 33 34  1  0  0  0  0
  7  8  1  0  0  0  0
 17 18  1  0  0  0  0
  3  4  1  0  0  0  0
  3  5  1  0  0  0  0
  3  6  1  0  0  0  0
 37 40  1  0  0  0  0
 37 41  1  0  0  0  0
 37 42  1  0  0  0  0
 11 14  1  0  0  0  0
 11 15  1  0  0  0  0
 11 16  1  0  0  0  0
 44 46  1  0  0  0  0
 44 47  1  0  0  0  0
 44 48  1  0  0  0  0
 22 30  1  0  0  0  0
 22 31  1  0  0  0  0
 21 28  1  0  0  0  0
 21 29  1  0  0  0  0
 34 39  1  0  0  0  0
  8 13  1  0  0  0  0
 18 27  1  0  0  0  0
 43 45  1  0  0  0  0
  7 12  1  0  0  0  0
 33 38  1  0  0  0  0
 17 26  1  0  0  0  0
 25 32  1  0  0  0  0
M  END
$$$$

  -OEChem-05262214473D

 48 47  0     1  0  0  0  0  0999 V2000
   -5.5827   -1.3473    1.4591 C   0  0  0  0  0  0  0  0  0  0  0  0
   -5.7053   -2.4696    0.9825 O   0  0  0  0  0  0  0  0  0  0  0  0
   -6.7879   -0.6277    1.9670 C   0  0  0  0  0  0  0  0  0  0  0  0
   -7.2718   -0.0164    1.1885 H   0  0  0  0  0  0  0  0  0  0  0  0
   -7.5699   -1.3171    2.3239 H   0  0  0  0  0  0  0  0  0  0  0  0
   -6.6057    0.0628    2.8060 H   0  0  0  0  0  0  0  0  0  0  0  0
   -4.4001   -0.6377    1.5884 N   0  0  0  0  0  0  0  0  0  0  0  0
   -3.1220   -1.1455    1.1644 C   0  0  2  0  0  0  0  0  0  0  0  0
   -2.2017    0.0428    0.9187 C   0  0  0  0  0  0  0  0  0  0  0  0
   -2.6171    1.1750    0.6807 O   0  0  0  0  0  0  0  0  0  0  0  0
   -3.2533   -1.9992   -0.0873 C   0  0  0  0  0  0  0  0  0  0  0  0
   -4.4370    0.2910    2.0047 H   0  0  0  0  0  0  0  0  0  0  0  0
   -2.7302   -1.7467    1.9921 H   0  0  0  0  0  0  0  0  0  0  0  0
   -3.6446   -1.4140   -0.9275 H   0  0  0  0  0  0  0  0  0  0  0  0
   -2.2844   -2.4081   -0.3922 H   0  0  0  0  0  0  0  0  0  0  0  0
   -3.9388   -2.8365    0.0822 H   0  0  0  0  0  0  0  0  0  0  0  0
   -0.8768   -0.3314    0.9568 N   0  0  0  0  0  0  0  0  0  0  0  0
    0.2067    0.6285    0.7375 C   0  0  2  0  0  0  0  0  0  0  0  0
    0.3085    1.4616    2.0116 C   0  0  0  0  0  0  0  0  0  0  0  0
    1.3860    1.7455    2.5310 O   0  0  0  0  0  0  0  0  0  0  0  0
   -0.1166    1.4857   -0.4954 C   0  0  0  0  0  0  0  0  0  0  0  0
   -0.1101    0.6992   -1.8061 C   0  0  0  0  0  0  0  0  0  0  0  0
   -0.4553    1.5700   -2.9884 C   0  0  0  0  0  0  0  0  0  0  0  0
   -0.8292    2.7320   -2.8928 O   0  0  0  0  0  0  0  0  0  0  0  0
   -0.3336    0.9226   -4.1735 O   0  0  0  0  0  0  0  0  0  0  0  0
   -0.6087   -1.2764    1.1771 H   0  0  0  0  0  0  0  0  0  0  0  0
    1.1340    0.0711    0.5695 H   0  0  0  0  0  0  0  0  0  0  0  0
   -1.1029    1.9506   -0.3638 H   0  0  0  0  0  0  0  0  0  0  0  0
    0.6070    2.3065   -0.5858 H   0  0  0  0  0  0  0  0  0  0  0  0
    0.8939    0.2974   -1.9902 H   0  0  0  0  0  0  0  0  0  0  0  0
   -0.7715   -0.1723   -1.7642 H   0  0  0  0  0  0  0  0  0  0  0  0
   -0.5670    1.4487   -4.9677 H   0  0  0  0  0  0  0  0  0  0  0  0
   -0.9327    1.8698    2.4769 N   0  0  0  0  0  0  0  0  0  0  0  0
   -1.1082    2.6712    3.6667 C   0  0  2  0  0  0  0  0  0  0  0  0
   -1.3617    1.7284    4.8356 C   0  0  0  0  0  0  0  0  0  0  0  0
   -1.7901    0.5849    4.6944 O   0  0  0  0  0  0  0  0  0  0  0  0
   -2.2544    3.6575    3.5055 C   0  0  0  0  0  0  0  0  0  0  0  0
   -1.7589    1.5919    1.9559 H   0  0  0  0  0  0  0  0  0  0  0  0
   -0.1673    3.2086    3.8276 H   0  0  0  0  0  0  0  0  0  0  0  0
   -3.2056    3.1375    3.3433 H   0  0  0  0  0  0  0  0  0  0  0  0
   -2.3677    4.2833    4.3968 H   0  0  0  0  0  0  0  0  0  0  0  0
   -2.0846    4.3153    2.6463 H   0  0  0  0  0  0  0  0  0  0  0  0
   -1.0942    2.3289    6.0579 N   0  0  0  0  0  0  0  0  0  0  0  0
   -1.2688    1.6444    7.3177 C   0  0  0  0  0  0  0  0  0  0  0  0
   -0.7240    3.2745    6.0797 H   0  0  0  0  0  0  0  0  0  0  0  0
   -2.2771    1.8460    7.7084 H   0  0  0  0  0  0  0  0  0  0  0  0
   -1.1438    0.5619    7.1671 H   0  0  0  0  0  0  0  0  0  0  0  0
   -0.5183    2.0036    8.0372 H   0  0  0  0  0  0  0  0  0  0  0  0
  1  3  1  0  0  0  0
  1  7  1  0  0  0  0
  1  2  2  0  0  0  0
 34 35  1  0  0  0  0
 35 43  1  0  0  0  0
 35 36  2  0  0  0  0
  8  9  1  0  0  0  0
  9 17  1  0  0  0  0
  9 10  2  0  0  0  0
 18 19  1  0  0  0  0
 19 33  1  0  0  0  0
 19 20  2  0  0  0  0
 22 23  1  0  0  0  0
 23 24  2  0  0  0  0
 23 25  1  0  0  0  0
 34 37  1  0  0  0  0
  8 11  1  0  0  0  0
 43 44  1  0  0  0  0
 21 22  1  0  0  0  0
 18 21  1  0  0  0  0
 33 34  1  0  0  0  0
  7  8  1  0  0  0  0
 17 18  1  0  0  0  0
  3  4  1  0  0  0  0
  3  5  1  0  0  0  0
  3  6  1  0  0  0  0
 37 40  1  0  0  0  0
 37 41  1  0  0  0  0
 37 42  1  0  0  0  0
 11 14  1  0  0  0  0
 11 15  1  0  0  0  0
 11 16  1  0  0  0  0
 44 46  1  0  0  0  0
 44 47  1  0  0  0  0
 44 48  1  0  0  0  0
 22 30  1  0  0  0  0
 22 31  1  0  0  0  0
 21 28  1  0  0  0  0
 21 29  1  0  0  0  0
 34 39  1  0  0  0  0
  8 13  1  0  0  0  0
 18 27  1  0  0  0  0
 43 45  1  0  0  0  0
  7 12  1  0  0  0  0
 33 38  1  0  0  0  0
 17 26  1  0  0  0  0
 25 32  1  0  0  0  0
M  END
$$$$

  -OEChem-05262214473D

 48 47  0     1  0  0  0  0  0999 V2000
   -5.5827   -1.3473    1.4591 C   0  0  0  0  0  0  0  0  0  0  0  0
   -5.7053   -2.4696    0.9825 O   0  0  0  0  0  0  0  0  0  0  0  0
   -6.7879   -0.6277    1.9670 C   0  0  0  0  0  0  0  0  0  0  0  0
   -7.2718   -0.0164    1.1885 H   0  0  0  0  0  0  0  0  0  0  0  0
   -7.5699   -1.3171    2.3239 H   0  0  0  0  0  0  0  0  0  0  0  0
   -6.6057    0.0628    2.8060 H   0  0  0  0  0  0  0  0  0  0  0  0
   -4.4001   -0.6377    1.5884 N   0  0  0  0  0  0  0  0  0  0  0  0
   -3.1220   -1.1455    1.1644 C   0  0  2  0  0  0  0  0  0  0  0  0
   -2.2017    0.0428    0.9187 C   0  0  0  0  0  0  0  0  0  0  0  0
   -2.6171    1.1750    0.6807 O   0  0  0  0  0  0  0  0  0  0  0  0
   -3.2533   -1.9992   -0.0873 C   0  0  0  0  0  0  0  0  0  0  0  0
   -4.4370    0.2910    2.0047 H   0  0  0  0  0  0  0  0  0  0  0  0
   -2.7302   -1.7467    1.9921 H   0  0  0  0  0  0  0  0  0  0  0  0
   -3.6446   -1.4140   -0.9275 H   0  0  0  0  0  0  0  0  0  0  0  0
   -2.2844   -2.4081   -0.3922 H   0  0  0  0  0  0  0  0  0  0  0  0
   -3.9388   -2.8365    0.0822 H   0  0  0  0  0  0  0  0  0  0  0  0
   -0.8768   -0.3314    0.9568 N   0  0  0  0  0  0  0  0  0  0  0  0
    0.2067    0.6285    0.7375 C   0  0  2  0  0  0  0  0  0  0  0  0
    0.3085    1.4616    2.0116 C   0  0  0  0  0  0  0  0  0  0  0  0
    1.3629    1.9721    2.3847 O   0  0  0  0  0  0  0  0  0  0  0  0
   -0.1166    1.4857   -0.4954 C   0  0  0  0  0  0  0  0  0  0  0  0
   -0.1101    0.6992   -1.8061 C   0  0  0  0  0  0  0  0  0  0  0  0
   -0.4553    1.5700   -2.9884 C   0  0  0  0  0  0  0  0  0  0  0  0
   -0.8292    2.7320   -2.8928 O   0  0  0  0  0  0  0  0  0  0  0  0
   -0.3336    0.9226   -4.1735 O   0  0  0  0  0  0  0  0  0  0  0  0
   -0.6087   -1.2764    1.1771 H   0  0  0  0  0  0  0  0  0  0  0  0
    1.1340    0.0711    0.5695 H   0  0  0  0  0  0  0  0  0  0  0  0
   -1.1029    1.9506   -0.3638 H   0  0  0  0  0  0  0  0  0  0  0  0
    0.6070    2.3065   -0.5858 H   0  0  0  0  0  0  0  0  0  0  0  0
    0.8939    0.2974   -1.9902 H   0  0  0  0  0  0  0  0  0  0  0  0
   -0.7715   -0.1723   -1.7642 H   0  0  0  0  0  0  0  0  0  0  0  0
   -0.5670    1.4487   -4.9677 H   0  0  0  0  0  0  0  0  0  0  0  0
   -0.9117    1.5894    2.6586 N   0  0  0  0  0  0  0  0  0  0  0  0
   -1.0830    2.3314    3.8869 C   0  0  2  0  0  0  0  0  0  0  0  0
   -0.9579    1.3540    5.0481 C   0  0  0  0  0  0  0  0  0  0  0  0
   -1.1462    0.1450    4.9305 O   0  0  0  0  0  0  0  0  0  0  0  0
   -2.4254    3.0453    3.9195 C   0  0  0  0  0  0  0  0  0  0  0  0
   -1.7248    1.1394    2.2490 H   0  0  0  0  0  0  0  0  0  0  0  0
   -0.2665    3.0603    3.9326 H   0  0  0  0  0  0  0  0  0  0  0  0
   -3.2558    2.3312    3.8745 H   0  0  0  0  0  0  0  0  0  0  0  0
   -2.5417    3.6299    4.8380 H   0  0  0  0  0  0  0  0  0  0  0  0
   -2.5258    3.7258    3.0670 H   0  0  0  0  0  0  0  0  0  0  0  0
   -0.6534    1.9962    6.2402 N   0  0  0  0  0  0  0  0  0  0  0  0
   -0.4946    1.2879    7.4889 C   0  0  0  0  0  0  0  0  0  0  0  0
   -0.4959    2.9996    6.2412 H   0  0  0  0  0  0  0  0  0  0  0  0
   -1.4561    1.2648    8.0228 H   0  0  0  0  0  0  0  0  0  0  0  0
   -0.1628    0.2588    7.2869 H   0  0  0  0  0  0  0  0  0  0  0  0
    0.2563    1.8004    8.1081 H   0  0  0  0  0  0  0  0  0  0  0  0
  1  3  1  0  0  0  0
  1  7  1  0  0  0  0
  1  2  2  0  0  0  0
 34 35  1  0  0  0  0
 35 43  1  0  0  0  0
 35 36  2  0  0  0  0
  8  9  1  0  0  0  0
  9 17  1  0  0  0  0
  9 10  2  0  0  0  0
 18 19  1  0  0  0  0
 19 33  1  0  0  0  0
 19 20  2  0  0  0  0
 22 23  1  0  0  0  0
 23 24  2  0  0  0  0
 23 25  1  0  0  0  0
 34 37  1  0  0  0  0
  8 11  1  0  0  0  0
 43 44  1  0  0  0  0
 21 22  1  0  0  0  0
 18 21  1  0  0  0  0
 33 34  1  0  0  0  0
  7  8  1  0  0  0  0
 17 18  1  0  0  0  0
  3  4  1  0  0  0  0
  3  5  1  0  0  0  0
  3  6  1  0  0  0  0
 37 40  1  0  0  0  0
 37 41  1  0  0  0  0
 37 42  1  0  0  0  0
 11 14  1  0  0  0  0
 11 15  1  0  0  0  0
 11 16  1  0  0  0  0
 44 46  1  0  0  0  0
 44 47  1  0  0  0  0
 44 48  1  0  0  0  0
 22 30  1  0  0  0  0
 22 31  1  0  0  0  0
 21 28  1  0  0  0  0
 21 29  1  0  0  0  0
 34 39  1  0  0  0  0
  8 13  1  0  0  0  0
 18 27  1  0  0  0  0
 43 45  1  0  0  0  0
  7 12  1  0  0  0  0
 33 38  1  0  0  0  0
 17 26  1  0  0  0  0
 25 32  1  0  0  0  0
M  END
$$$$

  -OEChem-05262214473D

 48 47  0     1  0  0  0  0  0999 V2000
   -5.5827   -1.3473    1.4591 C   0  0  0  0  0  0  0  0  0  0  0  0
   -5.7053   -2.4696    0.9825 O   0  0  0  0  0  0  0  0  0  0  0  0
   -6.7879   -0.6277    1.9670 C   0  0  0  0  0  0  0  0  0  0  0  0
   -7.2718   -0.0164    1.1885 H   0  0  0  0  0  0  0  0  0  0  0  0
   -7.5699   -1.3171    2.3239 H   0  0  0  0  0  0  0  0  0  0  0  0
   -6.6057    0.0628    2.8060 H   0  0  0  0  0  0  0  0  0  0  0  0
   -4.4001   -0.6377    1.5884 N   0  0  0  0  0  0  0  0  0  0  0  0
   -3.1220   -1.1455    1.1644 C   0  0  2  0  0  0  0  0  0  0  0  0
   -2.2017    0.0428    0.9187 C   0  0  0  0  0  0  0  0  0  0  0  0
   -2.6171    1.1750    0.6807 O   0  0  0  0  0  0  0  0  0  0  0  0
   -3.2533   -1.9992   -0.0873 C   0  0  0  0  0  0  0  0  0  0  0  0
   -4.4370    0.2910    2.0047 H   0  0  0  0  0  0  0  0  0  0  0  0
   -2.7302   -1.7467    1.9921 H   0  0  0  0  0  0  0  0  0  0  0  0
   -3.6446   -1.4140   -0.9275 H   0  0  0  0  0  0  0  0  0  0  0  0
   -2.2844   -2.4081   -0.3922 H   0  0  0  0  0  0  0  0  0  0  0  0
   -3.9388   -2.8365    0.0822 H   0  0  0  0  0  0  0  0  0  0  0  0
   -0.8768   -0.3314    0.9568 N   0  0  0  0  0  0  0  0  0  0  0  0
    0.2067    0.6285    0.7375 C   0  0  2  0  0  0  0  0  0  0  0  0
    0.3085    1.4616    2.0116 C   0  0  0  0  0  0  0  0  0  0  0  0
    1.2709    2.1884    2.2506 O   0  0  0  0  0  0  0  0  0  0  0  0
   -0.1166    1.4857   -0.4954 C   0  0  0  0  0  0  0  0  0  0  0  0
   -0.1101    0.6992   -1.8061 C   0  0  0  0  0  0  0  0  0  0  0  0
   -0.4553    1.5700   -2.9884 C   0  0  0  0  0  0  0  0  0  0  0  0
   -0.8292    2.7320   -2.8928 O   0  0  0  0  0  0  0  0  0  0  0  0
   -0.3336    0.9226   -4.1735 O   0  0  0  0  0  0  0  0  0  0  0  0
   -0.6087   -1.2764    1.1771 H   0  0  0  0  0  0  0  0  0  0  0  0
    1.1340    0.0711    0.5695 H   0  0  0  0  0  0  0  0  0  0  0  0
   -1.1029    1.9506   -0.3638 H   0  0  0  0  0  0  0  0  0  0  0  0
    0.6070    2.3065   -0.5858 H   0  0  0  0  0  0  0  0  0  0  0  0
    0.8939    0.2974   -1.9902 H   0  0  0  0  0  0  0  0  0  0  0  0
   -0.7715   -0.1723   -1.7642 H   0  0  0  0  0  0  0  0  0  0  0  0
   -0.5670    1.4487   -4.9677 H   0  0  0  0  0  0  0  0  0  0  0  0
   -0.8051    1.3200    2.8262 N   0  0  0  0  0  0  0  0  0  0  0  0
   -0.9541    2.0049    4.0901 C   0  0  2  0  0  0  0  0  0  0  0  0
   -0.4569    1.0760    5.1898 C   0  0  0  0  0  0  0  0  0  0  0  0
   -0.3959   -0.1448    5.0601 O   0  0  0  0  0  0  0  0  0  0  0  0
   -2.3998    2.4098    4.3330 C   0  0  0  0  0  0  0  0  0  0  0  0
   -1.5526    0.7047    2.5194 H   0  0  0  0  0  0  0  0  0  0  0  0
   -0.3154    2.8937    4.0454 H   0  0  0  0  0  0  0  0  0  0  0  0
   -3.0550    1.5323    4.3808 H   0  0  0  0  0  0  0  0  0  0  0  0
   -2.5062    2.9536    5.2774 H   0  0  0  0  0  0  0  0  0  0  0  0
   -2.7650    3.0537    3.5256 H   0  0  0  0  0  0  0  0  0  0  0  0
   -0.1300    1.7669    6.3483 N   0  0  0  0  0  0  0  0  0  0  0  0
    0.3544    1.1079    7.5387 C   0  0  0  0  0  0  0  0  0  0  0  0
   -0.1934    2.7806    6.3602 H   0  0  0  0  0  0  0  0  0  0  0  0
   -0.4930    0.8754    8.2004 H   0  0  0  0  0  0  0  0  0  0  0  0
    0.8673    0.1759    7.2587 H   0  0  0  0  0  0  0  0  0  0  0  0
    1.0584    1.7703    8.0636 H   0  0  0  0  0  0  0  0  0  0  0  0
  1  3  1  0  0  0  0
  1  7  1  0  0  0  0
  1  2  2  0  0  0  0
 34 35  1  0  0  0  0
 35 43  1  0  0  0  0
 35 36  2  0  0  0  0
  8  9  1  0  0  0  0
  9 17  1  0  0  0  0
  9 10  2  0  0  0  0
 18 19  1  0  0  0  0
 19 33  1  0  0  0  0
 19 20  2  0  0  0  0
 22 23  1  0  0  0  0
 23 24  2  0  0  0  0
 23 25  1  0  0  0  0
 34 37  1  0  0  0  0
  8 11  1  0  0  0  0
 43 44  1  0  0  0  0
 21 22  1  0  0  0  0
 18 21  1  0  0  0  0
 33 34  1  0  0  0  0
  7  8  1  0  0  0  0
 17 18  1  0  0  0  0
  3  4  1  0  0  0  0
  3  5  1  0  0  0  0
  3  6  1  0  0  0  0
 37 40  1  0  0  0  0
 37 41  1  0  0  0  0
 37 42  1  0  0  0  0
 11 14  1  0  0  0  0
 11 15  1  0  0  0  0
 11 16  1  0  0  0  0
 44 46  1  0  0  0  0
 44 47  1  0  0  0  0
 44 48  1  0  0  0  0
 22 30  1  0  0  0  0
 22 31  1  0  0  0  0
 21 28  1  0  0  0  0
 21 29  1  0  0  0  0
 34 39  1  0  0  0  0
  8 13  1  0  0  0  0
 18 27  1  0  0  0  0
 43 45  1  0  0  0  0
  7 12  1  0  0  0  0
 33 38  1  0  0  0  0
 17 26  1  0  0  0  0
 25 32  1  0  0  0  0
M  END
$$$$

  -OEChem-05262214473D

 48 47  0     1  0  0  0  0  0999 V2000
   -5.5827   -1.3473    1.4591 C   0  0  0  0  0  0  0  0  0  0  0  0
   -5.7053   -2.4696    0.9825 O   0  0  0  0  0  0  0  0  0  0  0  0
   -6.7879   -0.6277    1.9670 C   0  0  0  0  0  0  0  0  0  0  0  0
   -7.2718   -0.0164    1.1885 H   0  0  0  0  0  0  0  0  0  0  0  0
   -7.5699   -1.3171    2.3239 H   0  0  0  0  0  0  0  0  0  0  0  0
   -6.6057    0.0628    2.8060 H   0  0  0  0  0  0  0  0  0  0  0  0
   -4.4001   -0.6377    1.5884 N   0  0  0  0  0  0  0  0  0  0  0  0
   -3.1220   -1.1455    1.1644 C   0  0  2  0  0  0  0  0  0  0  0  0
   -2.2017    0.0428    0.9187 C   0  0  0  0  0  0  0  0  0  0  0  0
   -2.6171    1.1750    0.6807 O   0  0  0  0  0  0  0  0  0  0  0  0
   -3.2533   -1.9992   -0.0873 C   0  0  0  0  0  0  0  0  0  0  0  0
   -4.4370    0.2910    2.0047 H   0  0  0  0  0  0  0  0  0  0  0  0
   -2.7302   -1.7467    1.9921 H   0  0  0  0  0  0  0  0  0  0  0  0
   -3.6446   -1.4140   -0.9275 H   0  0  0  0  0  0  0  0  0  0  0  0
   -2.2844   -2.4081   -0.3922 H   0  0  0  0  0  0  0  0  0  0  0  0
   -3.9388   -2.8365    0.0822 H   0  0  0  0  0  0  0  0  0  0  0  0
   -0.8768   -0.3314    0.9568 N   0  0  0  0  0  0  0  0  0  0  0  0
    0.2067    0.6285    0.7375 C   0  0  2  0  0  0  0  0  0  0  0  0
    0.3085    1.4616    2.0116 C   0  0  0  0  0  0  0  0  0  0  0  0
    1.1163    2.3798    2.1379 O   0  0  0  0  0  0  0  0  0  0  0  0
   -0.1166    1.4857   -0.4954 C   0  0  0  0  0  0  0  0  0  0  0  0
   -0.1101    0.6992   -1.8061 C   0  0  0  0  0  0  0  0  0  0  0  0
   -0.4553    1.5700   -2.9884 C   0  0  0  0  0  0  0  0  0  0  0  0
   -0.8292    2.7320   -2.8928 O   0  0  0  0  0  0  0  0  0  0  0  0
   -0.3336    0.9226   -4.1735 O   0  0  0  0  0  0  0  0  0  0  0  0
   -0.6087   -1.2764    1.1771 H   0  0  0  0  0  0  0  0  0  0  0  0
    1.1340    0.0711    0.5695 H   0  0  0  0  0  0  0  0  0  0  0  0
   -1.1029    1.9506   -0.3638 H   0  0  0  0  0  0  0  0  0  0  0  0
    0.6070    2.3065   -0.5858 H   0  0  0  0  0  0  0  0  0  0  0  0
    0.8939    0.2974   -1.9902 H   0  0  0  0  0  0  0  0  0  0  0  0
   -0.7715   -0.1723   -1.7642 H   0  0  0  0  0  0  0  0  0  0  0  0
   -0.5670    1.4487   -4.9677 H   0  0  0  0  0  0  0  0  0  0  0  0
   -0.6202    1.0799    2.9684 N   0  0  0  0  0  0  0  0  0  0  0  0
   -0.7304    1.7138    4.2625 C   0  0  2  0  0  0  0  0  0  0  0  0
    0.1071    0.9133    5.2511 C   0  0  0  0  0  0  0  0  0  0  0  0
    0.4098   -0.2648    5.0741 O   0  0  0  0  0  0  0  0  0  0  0  0
   -2.1792    1.7943    4.7177 C   0  0  0  0  0  0  0  0  0  0  0  0
   -1.2541    0.3174    2.7489 H   0  0  0  0  0  0  0  0  0  0  0  0
   -0.3107    2.7203    4.1584 H   0  0  0  0  0  0  0  0  0  0  0  0
   -2.6167    0.7953    4.8276 H   0  0  0  0  0  0  0  0  0  0  0  0
   -2.2636    2.3003    5.6851 H   0  0  0  0  0  0  0  0  0  0  0  0
   -2.7861    2.3448    3.9908 H   0  0  0  0  0  0  0  0  0  0  0  0
    0.4404    1.6567    6.3747 N   0  0  0  0  0  0  0  0  0  0  0  0
    1.2205    1.1167    7.4637 C   0  0  0  0  0  0  0  0  0  0  0  0
    0.1630    2.6324    6.4287 H   0  0  0  0  0  0  0  0  0  0  0  0
    0.5465    0.7045    8.2291 H   0  0  0  0  0  0  0  0  0  0  0  0
    1.8761    0.3190    7.0845 H   0  0  0  0  0  0  0  0  0  0  0  0
    1.8334    1.9154    7.9068 H   0  0  0  0  0  0  0  0  0  0  0  0
  1  3  1  0  0  0  0
  1  7  1  0  0  0  0
  1  2  2  0  0  0  0
 34 35  1  0  0  0  0
 35 43  1  0  0  0  0
 35 36  2  0  0  0  0
  8  9  1  0  0  0  0
  9 17  1  0  0  0  0
  9 10  2  0  0  0  0
 18 19  1  0  0  0  0
 19 33  1  0  0  0  0
 19 20  2  0  0  0  0
 22 23  1  0  0  0  0
 23 24  2  0  0  0  0
 23 25  1  0  0  0  0
 34 37  1  0  0  0  0
  8 11  1  0  0  0  0
 43 44  1  0  0  0  0
 21 22  1  0  0  0  0
 18 21  1  0  0  0  0
 33 34  1  0  0  0  0
  7  8  1  0  0  0  0
 17 18  1  0  0  0  0
  3  4  1  0  0  0  0
  3  5  1  0  0  0  0
  3  6  1  0  0  0  0
 37 40  1  0  0  0  0
 37 41  1  0  0  0  0
 37 42  1  0  0  0  0
 11 14  1  0  0  0  0
 11 15  1  0  0  0  0
 11 16  1  0  0  0  0
 44 46  1  0  0  0  0
 44 47  1  0  0  0  0
 44 48  1  0  0  0  0
 22 30  1  0  0  0  0
 22 31  1  0  0  0  0
 21 28  1  0  0  0  0
 21 29  1  0  0  0  0
 34 39  1  0  0  0  0
  8 13  1  0  0  0  0
 18 27  1  0  0  0  0
 43 45  1  0  0  0  0
  7 12  1  0  0  0  0
 33 38  1  0  0  0  0
 17 26  1  0  0  0  0
 25 32  1  0  0  0  0
M  END
$$$$

  -OEChem-05262214473D

 48 47  0     1  0  0  0  0  0999 V2000
   -5.5827   -1.3473    1.4591 C   0  0  0  0  0  0  0  0  0  0  0  0
   -5.7053   -2.4696    0.9825 O   0  0  0  0  0  0  0  0  0  0  0  0
   -6.7879   -0.6277    1.9670 C   0  0  0  0  0  0  0  0  0  0  0  0
   -7.2718   -0.0164    1.1885 H   0  0  0  0  0  0  0  0  0  0  0  0
   -7.5699   -1.3171    2.3239 H   0  0  0  0  0  0  0  0  0  0  0  0
   -6.6057    0.0628    2.8060 H   0  0  0  0  0  0  0  0  0  0  0  0
   -4.4001   -0.6377    1.5884 N   0  0  0  0  0  0  0  0  0  0  0  0
   -3.1220   -1.1455    1.1644 C   0  0  2  0  0  0  0  0  0  0  0  0
   -2.2017    0.0428    0.9187 C   0  0  0  0  0  0  0  0  0  0  0  0
   -2.6171    1.1750    0.6807 O   0  0  0  0  0  0  0  0  0  0  0  0
   -3.2533   -1.9992   -0.0873 C   0  0  0  0  0  0  0  0  0  0  0  0
   -4.4370    0.2910    2.0047 H   0  0  0  0  0  0  0  0  0  0  0  0
   -2.7302   -1.7467    1.9921 H   0  0  0  0  0  0  0  0  0  0  0  0
   -3.6446   -1.4140   -0.9275 H   0  0  0  0  0  0  0  0  0  0  0  0
   -2.2844   -2.4081   -0.3922 H   0  0  0  0  0  0  0  0  0  0  0  0
   -3.9388   -2.8365    0.0822 H   0  0  0  0  0  0  0  0  0  0  0  0
   -0.8768   -0.3314    0.9568 N   0  0  0  0  0  0  0  0  0  0  0  0
    0.2067    0.6285    0.7375 C   0  0  2  0  0  0  0  0  0  0  0  0
    0.3085    1.4616    2.0116 C   0  0  0  0  0  0  0  0  0  0  0  0
    0.9096    2.5332    2.0541 O   0  0  0  0  0  0  0  0  0  0  0  0
   -0.1166    1.4857   -0.4954 C   0  0  0  0  0  0  0  0  0  0  0  0
   -0.1101    0.6992   -1.8061 C   0  0  0  0  0  0  0  0  0  0  0  0
   -0.4553    1.5700   -2.9884 C   0  0  0  0  0  0  0  0  0  0  0  0
   -0.8292    2.7320   -2.8928 O   0  0  0  0  0  0  0  0  0  0  0  0
   -0.3336    0.9226   -4.1735 O   0  0  0  0  0  0  0  0  0  0  0  0
   -0.6087   -1.2764    1.1771 H   0  0  0  0  0  0  0  0  0  0  0  0
    1.1340    0.0711    0.5695 H   0  0  0  0  0  0  0  0  0  0  0  0
   -1.1029    1.9506   -0.3638 H   0  0  0  0  0  0  0  0  0  0  0  0
    0.6070    2.3065   -0.5858 H   0  0  0  0  0  0  0  0  0  0  0  0
    0.8939    0.2974   -1.9902 H   0  0  0  0  0  0  0  0  0  0  0  0
   -0.7715   -0.1723   -1.7642 H   0  0  0  0  0  0  0  0  0  0  0  0
   -0.5670    1.4487   -4.9677 H   0  0  0  0  0  0  0  0  0  0  0  0
   -0.3696    0.8854    3.0755 N   0  0  0  0  0  0  0  0  0  0  0  0
   -0.4269    1.4780    4.3924 C   0  0  2  0  0  0  0  0  0  0  0  0
    0.6958    0.8770    5.2278 C   0  0  0  0  0  0  0  0  0  0  0  0
    1.2161   -0.2069    4.9718 O   0  0  0  0  0  0  0  0  0  0  0  0
   -1.7787    1.2409    5.0476 C   0  0  0  0  0  0  0  0  0  0  0  0
   -0.8496    0.0038    2.9216 H   0  0  0  0  0  0  0  0  0  0  0  0
   -0.2527    2.5518    4.2639 H   0  0  0  0  0  0  0  0  0  0  0  0
   -1.9710    0.1705    5.1846 H   0  0  0  0  0  0  0  0  0  0  0  0
   -1.8304    1.7148    6.0334 H   0  0  0  0  0  0  0  0  0  0  0  0
   -2.5874    1.6475    4.4308 H   0  0  0  0  0  0  0  0  0  0  0  0
    1.0189    1.6731    6.3178 N   0  0  0  0  0  0  0  0  0  0  0  0
    2.0445    1.3137    7.2690 C   0  0  0  0  0  0  0  0  0  0  0  0
    0.5490    2.5651    6.4418 H   0  0  0  0  0  0  0  0  0  0  0  0
    1.5917    0.7635    8.1069 H   0  0  0  0  0  0  0  0  0  0  0  0
    2.7951    0.6782    6.7761 H   0  0  0  0  0  0  0  0  0  0  0  0
    2.5285    2.2258    7.6483 H   0  0  0  0  0  0  0  0  0  0  0  0
  1  3  1  0  0  0  0
  1  7  1  0  0  0  0
  1  2  2  0  0  0  0
 34 35  1  0  0  0  0
 35 43  1  0  0  0  0
 35 36  2  0  0  0  0
  8  9  1  0  0  0  0
  9 17  1  0  0  0  0
  9 10  2  0  0  0  0
 18 19  1  0  0  0  0
 19 33  1  0  0  0  0
 19 20  2  0  0  0  0
 22 23  1  0  0  0  0
 23 24  2  0  0  0  0
 23 25  1  0  0  0  0
 34 37  1  0  0  0  0
  8 11  1  0  0  0  0
 43 44  1  0  0  0  0
 21 22  1  0  0  0  0
 18 21  1  0  0  0  0
 33 34  1  0  0  0  0
  7  8  1  0  0  0  0
 17 18  1  0  0  0  0
  3  4  1  0  0  0  0
  3  5  1  0  0  0  0
  3  6  1  0  0  0  0
 37 40  1  0  0  0  0
 37 41  1  0  0  0  0
 37 42  1  0  0  0  0
 11 14  1  0  0  0  0
 11 15  1  0  0  0  0
 11 16  1  0  0  0  0
 44 46  1  0  0  0  0
 44 47  1  0  0  0  0
 44 48  1  0  0  0  0
 22 30  1  0  0  0  0
 22 31  1  0  0  0  0
 21 28  1  0  0  0  0
 21 29  1  0  0  0  0
 34 39  1  0  0  0  0
  8 13  1  0  0  0  0
 18 27  1  0  0  0  0
 43 45  1  0  0  0  0
  7 12  1  0  0  0  0
 33 38  1  0  0  0  0
 17 26  1  0  0  0  0
 25 32  1  0  0  0  0
M  END
$$$$

  -OEChem-05262214473D

 48 47  0     1  0  0  0  0  0999 V2000
   -5.5827   -1.3473    1.4591 C   0  0  0  0  0  0  0  0  0  0  0  0
   -5.7053   -2.4696    0.9825 O   0  0  0  0  0  0  0  0  0  0  0  0
   -6.7879   -0.6277    1.9670 C   0  0  0  0  0  0  0  0  0  0  0  0
   -7.2718   -0.0164    1.1885 H   0  0  0  0  0  0  0  0  0  0  0  0
   -7.5699   -1.3171    2.3239 H   0  0  0  0  0  0  0  0  0  0  0  0
   -6.6057    0.0628    2.8060 H   0  0  0  0  0  0  0  0  0  0  0  0
   -4.4001   -0.6377    1.5884 N   0  0  0  0  0  0  0  0  0  0  0  0
   -3.1220   -1.1455    1.1644 C   0  0  2  0  0  0  0  0  0  0  0  0
   -2.2017    0.0428    0.9187 C   0  0  0  0  0  0  0  0  0  0  0  0
   -2.6171    1.1750    0.6807 O   0  0  0  0  0  0  0  0  0  0  0  0
   -3.2533   -1.9992   -0.0873 C   0  0  0  0  0  0  0  0  0  0  0  0
   -4.4370    0.2910    2.0047 H   0  0  0  0  0  0  0  0  0  0  0  0
   -2.7302   -1.7467    1.9921 H   0  0  0  0  0  0  0  0  0  0  0  0
   -3.6446   -1.4140   -0.9275 H   0  0  0  0  0  0  0  0  0  0  0  0
   -2.2844   -2.4081   -0.3922 H   0  0  0  0  0  0  0  0  0  0  0  0
   -3.9388   -2.8365    0.0822 H   0  0  0  0  0  0  0  0  0  0  0  0
   -0.8768   -0.3314    0.9568 N   0  0  0  0  0  0  0  0  0  0  0  0
    0.2067    0.6285    0.7375 C   0  0  2  0  0  0  0  0  0  0  0  0
    0.3085    1.4616    2.0116 C   0  0  0  0  0  0  0  0  0  0  0  0
    0.6650    2.6382    2.0050 O   0  0  0  0  0  0  0  0  0  0  0  0
   -0.1166    1.4857   -0.4954 C   0  0  0  0  0  0  0  0  0  0  0  0
   -0.1101    0.6992   -1.8061 C   0  0  0  0  0  0  0  0  0  0  0  0
   -0.4553    1.5700   -2.9884 C   0  0  0  0  0  0  0  0  0  0  0  0
   -0.8292    2.7320   -2.8928 O   0  0  0  0  0  0  0  0  0  0  0  0
   -0.3336    0.9226   -4.1735 O   0  0  0  0  0  0  0  0  0  0  0  0
   -0.6087   -1.2764    1.1771 H   0  0  0  0  0  0  0  0  0  0  0  0
    1.1340    0.0711    0.5695 H   0  0  0  0  0  0  0  0  0  0  0  0
   -1.1029    1.9506   -0.3638 H   0  0  0  0  0  0  0  0  0  0  0  0
    0.6070    2.3065   -0.5858 H   0  0  0  0  0  0  0  0  0  0  0  0
    0.8939    0.2974   -1.9902 H   0  0  0  0  0  0  0  0  0  0  0  0
   -0.7715   -0.1723   -1.7642 H   0  0  0  0  0  0  0  0  0  0  0  0
   -0.5670    1.4487   -4.9677 H   0  0  0  0  0  0  0  0  0  0  0  0
   -0.0704    0.7499    3.1402 N   0  0  0  0  0  0  0  0  0  0  0  0
   -0.0645    1.3136    4.4710 C   0  0  2  0  0  0  0  0  0  0  0  0
    1.2689    0.9696    5.1215 C   0  0  0  0  0  0  0  0  0  0  0  0
    1.9678    0.0252    4.7600 O   0  0  0  0  0  0  0  0  0  0  0  0
   -1.2256    0.7871    5.3001 C   0  0  0  0  0  0  0  0  0  0  0  0
   -0.3667   -0.2147    3.0258 H   0  0  0  0  0  0  0  0  0  0  0  0
   -0.1453    2.3999    4.3547 H   0  0  0  0  0  0  0  0  0  0  0  0
   -1.1617   -0.2997    5.4273 H   0  0  0  0  0  0  0  0  0  0  0  0
   -1.2363    1.2367    6.2984 H   0  0  0  0  0  0  0  0  0  0  0  0
   -2.1826    1.0094    4.8158 H   0  0  0  0  0  0  0  0  0  0  0  0
    1.5661    1.8150    6.1813 N   0  0  0  0  0  0  0  0  0  0  0  0
    2.7704    1.6855    6.9679 C   0  0  0  0  0  0  0  0  0  0  0  0
    0.9382    2.5833    6.3988 H   0  0  0  0  0  0  0  0  0  0  0  0
    2.5712    1.0485    7.8423 H   0  0  0  0  0  0  0  0  0  0  0  0
    3.5615    1.2292    6.3546 H   0  0  0  0  0  0  0  0  0  0  0  0
    3.0963    2.6803    7.3057 H   0  0  0  0  0  0  0  0  0  0  0  0
  1  3  1  0  0  0  0
  1  7  1  0  0  0  0
  1  2  2  0  0  0  0
 34 35  1  0  0  0  0
 35 43  1  0  0  0  0
 35 36  2  0  0  0  0
  8  9  1  0  0  0  0
  9 17  1  0  0  0  0
  9 10  2  0  0  0  0
 18 19  1  0  0  0  0
 19 33  1  0  0  0  0
 19 20  2  0  0  0  0
 22 23  1  0  0  0  0
 23 24  2  0  0  0  0
 23 25  1  0  0  0  0
 34 37  1  0  0  0  0
  8 11  1  0  0  0  0
 43 44  1  0  0  0  0
 21 22  1  0  0  0  0
 18 21  1  0  0  0  0
 33 34  1  0  0  0  0
  7  8  1  0  0  0  0
 17 18  1  0  0  0  0
  3  4  1  0  0  0  0
  3  5  1  0  0  0  0
  3  6  1  0  0  0  0
 37 40  1  0  0  0  0
 37 41  1  0  0  0  0
 37 42  1  0  0  0  0
 11 14  1  0  0  0  0
 11 15  1  0  0  0  0
 11 16  1  0  0  0  0
 44 46  1  0  0  0  0
 44 47  1  0  0  0  0
 44 48  1  0  0  0  0
 22 30  1  0  0  0  0
 22 31  1  0  0  0  0
 21 28  1  0  0  0  0
 21 29  1  0  0  0  0
 34 39  1  0  0  0  0
  8 13  1  0  0  0  0
 18 27  1  0  0  0  0
 43 45  1  0  0  0  0
  7 12  1  0  0  0  0
 33 38  1  0  0  0  0
 17 26  1  0  0  0  0
 25 32  1  0  0  0  0
M  END
$$$$

  -OEChem-05262214473D

 48 47  0     1  0  0  0  0  0999 V2000
   -5.5827   -1.3473    1.4591 C   0  0  0  0  0  0  0  0  0  0  0  0
   -5.7053   -2.4696    0.9825 O   0  0  0  0  0  0  0  0  0  0  0  0
   -6.7879   -0.6277    1.9670 C   0  0  0  0  0  0  0  0  0  0  0  0
   -7.2718   -0.0164    1.1885 H   0  0  0  0  0  0  0  0  0  0  0  0
   -7.5699   -1.3171    2.3239 H   0  0  0  0  0  0  0  0  0  0  0  0
   -6.6057    0.0628    2.8060 H   0  0  0  0  0  0  0  0  0  0  0  0
   -4.4001   -0.6377    1.5884 N   0  0  0  0  0  0  0  0  0  0  0  0
   -3.1220   -1.1455    1.1644 C   0  0  2  0  0  0  0  0  0  0  0  0
   -2.2017    0.0428    0.9187 C   0  0  0  0  0  0  0  0  0  0  0  0
   -2.6171    1.1750    0.6807 O   0  0  0  0  0  0  0  0  0  0  0  0
   -3.2533   -1.9992   -0.0873 C   0  0  0  0  0  0  0  0  0  0  0  0
   -4.4370    0.2910    2.0047 H   0  0  0  0  0  0  0  0  0  0  0  0
   -2.7302   -1.7467    1.9921 H   0  0  0  0  0  0  0  0  0  0  0  0
   -3.6446   -1.4140   -0.9275 H   0  0  0  0  0  0  0  0  0  0  0  0
   -2.2844   -2.4081   -0.3922 H   0  0  0  0  0  0  0  0  0  0  0  0
   -3.9388   -2.8365    0.0822 H   0  0  0  0  0  0  0  0  0  0  0  0
   -0.8768   -0.3314    0.9568 N   0  0  0  0  0  0  0  0  0  0  0  0
    0.2067    0.6285    0.7375 C   0  0  2  0  0  0  0  0  0  0  0  0
    0.3085    1.4616    2.0116 C   0  0  0  0  0  0  0  0  0  0  0  0
    0.3992    2.6875    1.9940 O   0  0  0  0  0  0  0  0  0  0  0  0
   -0.1166    1.4857   -0.4954 C   0  0  0  0  0  0  0  0  0  0  0  0
   -0.1101    0.6992   -1.8061 C   0  0  0  0  0  0  0  0  0  0  0  0
   -0.4553    1.5700   -2.9884 C   0  0  0  0  0  0  0  0  0  0  0  0
   -0.8292    2.7320   -2.8928 O   0  0  0  0  0  0  0  0  0  0  0  0
   -0.3336    0.9226   -4.1735 O   0  0  0  0  0  0  0  0  0  0  0  0
   -0.6087   -1.2764    1.1771 H   0  0  0  0  0  0  0  0  0  0  0  0
    1.1340    0.0711    0.5695 H   0  0  0  0  0  0  0  0  0  0  0  0
   -1.1029    1.9506   -0.3638 H   0  0  0  0  0  0  0  0  0  0  0  0
    0.6070    2.3065   -0.5858 H   0  0  0  0  0  0  0  0  0  0  0  0
    0.8939    0.2974   -1.9902 H   0  0  0  0  0  0  0  0  0  0  0  0
   -0.7715   -0.1723   -1.7642 H   0  0  0  0  0  0  0  0  0  0  0  0
   -0.5670    1.4487   -4.9677 H   0  0  0  0  0  0  0  0  0  0  0  0
    0.2570    0.6826    3.1581 N   0  0  0  0  0  0  0  0  0  0  0  0
    0.3322    1.2318    4.4928 C   0  0  2  0  0  0  0  0  0  0  0  0
    1.7875    1.1847    4.9394 C   0  0  0  0  0  0  0  0  0  0  0  0
    2.6138    0.4154    4.4531 O   0  0  0  0  0  0  0  0  0  0  0  0
   -0.5576    0.4641    5.4579 C   0  0  0  0  0  0  0  0  0  0  0  0
    0.1617   -0.3231    3.0545 H   0  0  0  0  0  0  0  0  0  0  0  0
    0.0040    2.2747    4.4246 H   0  0  0  0  0  0  0  0  0  0  0  0
   -0.2442   -0.5831    5.5393 H   0  0  0  0  0  0  0  0  0  0  0  0
   -0.5215    0.8989    6.4622 H   0  0  0  0  0  0  0  0  0  0  0  0
   -1.5993    0.4738    5.1193 H   0  0  0  0  0  0  0  0  0  0  0  0
    2.0447    2.0727    5.9745 N   0  0  0  0  0  0  0  0  0  0  0  0
    3.3487    2.2067    6.5809 C   0  0  0  0  0  0  0  0  0  0  0  0
    1.3042    2.6857    6.3026 H   0  0  0  0  0  0  0  0  0  0  0  0
    3.4183    1.5401    7.4531 H   0  0  0  0  0  0  0  0  0  0  0  0
    4.1231    1.9343    5.8487 H   0  0  0  0  0  0  0  0  0  0  0  0
    3.4981    3.2479    6.9025 H   0  0  0  0  0  0  0  0  0  0  0  0
  1  3  1  0  0  0  0
  1  7  1  0  0  0  0
  1  2  2  0  0  0  0
 34 35  1  0  0  0  0
 35 43  1  0  0  0  0
 35 36  2  0  0  0  0
  8  9  1  0  0  0  0
  9 17  1  0  0  0  0
  9 10  2  0  0  0  0
 18 19  1  0  0  0  0
 19 33  1  0  0  0  0
 19 20  2  0  0  0  0
 22 23  1  0  0  0  0
 23 24  2  0  0  0  0
 23 25  1  0  0  0  0
 34 37  1  0  0  0  0
  8 11  1  0  0  0  0
 43 44  1  0  0  0  0
 21 22  1  0  0  0  0
 18 21  1  0  0  0  0
 33 34  1  0  0  0  0
  7  8  1  0  0  0  0
 17 18  1  0  0  0  0
  3  4  1  0  0  0  0
  3  5  1  0  0  0  0
  3  6  1  0  0  0  0
 37 40  1  0  0  0  0
 37 41  1  0  0  0  0
 37 42  1  0  0  0  0
 11 14  1  0  0  0  0
 11 15  1  0  0  0  0
 11 16  1  0  0  0  0
 44 46  1  0  0  0  0
 44 47  1  0  0  0  0
 44 48  1  0  0  0  0
 22 30  1  0  0  0  0
 22 31  1  0  0  0  0
 21 28  1  0  0  0  0
 21 29  1  0  0  0  0
 34 39  1  0  0  0  0
  8 13  1  0  0  0  0
 18 27  1  0  0  0  0
 43 45  1  0  0  0  0
  7 12  1  0  0  0  0
 33 38  1  0  0  0  0
 17 26  1  0  0  0  0
 25 32  1  0  0  0  0
M  END
$$$$

  -OEChem-05262214473D

 48 47  0     1  0  0  0  0  0999 V2000
   -5.5827   -1.3473    1.4591 C   0  0  0  0  0  0  0  0  0  0  0  0
   -5.7053   -2.4696    0.9825 O   0  0  0  0  0  0  0  0  0  0  0  0
   -6.7879   -0.6277    1.9670 C   0  0  0  0  0  0  0  0  0  0  0  0
   -7.2718   -0.0164    1.1885 H   0  0  0  0  0  0  0  0  0  0  0  0
   -7.5699   -1.3171    2.3239 H   0  0  0  0  0  0  0  0  0  0  0  0
   -6.6057    0.0628    2.8060 H   0  0  0  0  0  0  0  0  0  0  0  0
   -4.4001   -0.6377    1.5884 N   0  0  0  0  0  0  0  0  0  0  0  0
   -3.1220   -1.1455    1.1644 C   0  0  2  0  0  0  0  0  0  0  0  0
   -2.2017    0.0428    0.9187 C   0  0  0  0  0  0  0  0  0  0  0  0
   -2.6171    1.1750    0.6807 O   0  0  0  0  0  0  0  0  0  0  0  0
   -3.2533   -1.9992   -0.0873 C   0  0  0  0  0  0  0  0  0  0  0  0
   -4.4370    0.2910    2.0047 H   0  0  0  0  0  0  0  0  0  0  0  0
   -2.7302   -1.7467    1.9921 H   0  0  0  0  0  0  0  0  0  0  0  0
   -3.6446   -1.4140   -0.9275 H   0  0  0  0  0  0  0  0  0  0  0  0
   -2.2844   -2.4081   -0.3922 H   0  0  0  0  0  0  0  0  0  0  0  0
   -3.9388   -2.8365    0.0822 H   0  0  0  0  0  0  0  0  0  0  0  0
   -0.8768   -0.3314    0.9568 N   0  0  0  0  0  0  0  0  0  0  0  0
    0.2067    0.6285    0.7375 C   0  0  2  0  0  0  0  0  0  0  0  0
    0.3085    1.4616    2.0116 C   0  0  0  0  0  0  0  0  0  0  0  0
    0.1301    2.6780    2.0217 O   0  0  0  0  0  0  0  0  0  0  0  0
   -0.1166    1.4857   -0.4954 C   0  0  0  0  0  0  0  0  0  0  0  0
   -0.1101    0.6992   -1.8061 C   0  0  0  0  0  0  0  0  0  0  0  0
   -0.4553    1.5700   -2.9884 C   0  0  0  0  0  0  0  0  0  0  0  0
   -0.8292    2.7320   -2.8928 O   0  0  0  0  0  0  0  0  0  0  0  0
   -0.3336    0.9226   -4.1735 O   0  0  0  0  0  0  0  0  0  0  0  0
   -0.6087   -1.2764    1.1771 H   0  0  0  0  0  0  0  0  0  0  0  0
    1.1340    0.0711    0.5695 H   0  0  0  0  0  0  0  0  0  0  0  0
   -1.1029    1.9506   -0.3638 H   0  0  0  0  0  0  0  0  0  0  0  0
    0.6070    2.3065   -0.5858 H   0  0  0  0  0  0  0  0  0  0  0  0
    0.8939    0.2974   -1.9902 H   0  0  0  0  0  0  0  0  0  0  0  0
   -0.7715   -0.1723   -1.7642 H   0  0  0  0  0  0  0  0  0  0  0  0
   -0.5670    1.4487   -4.9677 H   0  0  0  0  0  0  0  0  0  0  0  0
    0.5904    0.6880    3.1279 N   0  0  0  0  0  0  0  0  0  0  0  0
    0.7362    1.2381    4.4563 C   0  0  2  0  0  0  0  0  0  0  0  0
    2.2161    1.5077    4.6939 C   0  0  0  0  0  0  0  0  0  0  0  0
    3.1101    0.9373    4.0722 O   0  0  0  0  0  0  0  0  0  0  0  0
    0.1797    0.2936    5.5104 C   0  0  0  0  0  0  0  0  0  0  0  0
    0.6996   -0.3142    3.0056 H   0  0  0  0  0  0  0  0  0  0  0  0
    0.1852    2.1848    4.4689 H   0  0  0  0  0  0  0  0  0  0  0  0
    0.7193   -0.6605    5.5129 H   0  0  0  0  0  0  0  0  0  0  0  0
    0.2650    0.7241    6.5136 H   0  0  0  0  0  0  0  0  0  0  0  0
   -0.8772    0.0773    5.3209 H   0  0  0  0  0  0  0  0  0  0  0  0
    2.4221    2.4286    5.7117 N   0  0  0  0  0  0  0  0  0  0  0  0
    3.7399    2.8418    6.1343 C   0  0  0  0  0  0  0  0  0  0  0  0
    1.6219    2.8654    6.1597 H   0  0  0  0  0  0  0  0  0  0  0  0
    4.0753    2.2047    6.9660 H   0  0  0  0  0  0  0  0  0  0  0  0
    4.4417    2.7455    5.2928 H   0  0  0  0  0  0  0  0  0  0  0  0
    3.7065    3.8901    6.4659 H   0  0  0  0  0  0  0  0  0  0  0  0
  1  3  1  0  0  0  0
  1  7  1  0  0  0  0
  1  2  2  0  0  0  0
 34 35  1  0  0  0  0
 35 43  1  0  0  0  0
 35 36  2  0  0  0  0
  8  9  1  0  0  0  0
  9 17  1  0  0  0  0
  9 10  2  0  0  0  0
 18 19  1  0  0  0  0
 19 33  1  0  0  0  0
 19 20  2  0  0  0  0
 22 23  1  0  0  0  0
 23 24  2  0  0  0  0
 23 25  1  0  0  0  0
 34 37  1  0  0  0  0
  8 11  1  0  0  0  0
 43 44  1  0  0  0  0
 21 22  1  0  0  0  0
 18 21  1  0  0  0  0
 33 34  1  0  0  0  0
  7  8  1  0  0  0  0
 17 18  1  0  0  0  0
  3  4  1  0  0  0  0
  3  5  1  0  0  0  0
  3  6  1  0  0  0  0
 37 40  1  0  0  0  0
 37 41  1  0  0  0  0
 37 42  1  0  0  0  0
 11 14  1  0  0  0  0
 11 15  1  0  0  0  0
 11 16  1  0  0  0  0
 44 46  1  0  0  0  0
 44 47  1  0  0  0  0
 44 48  1  0  0  0  0
 22 30  1  0  0  0  0
 22 31  1  0  0  0  0
 21 28  1  0  0  0  0
 21 29  1  0  0  0  0
 34 39  1  0  0  0  0
  8 13  1  0  0  0  0
 18 27  1  0  0  0  0
 43 45  1  0  0  0  0
  7 12  1  0  0  0  0
 33 38  1  0  0  0  0
 17 26  1  0  0  0  0
 25 32  1  0  0  0  0
M  END
$$$$

  -OEChem-05262214473D

 48 47  0     1  0  0  0  0  0999 V2000
   -5.5827   -1.3473    1.4591 C   0  0  0  0  0  0  0  0  0  0  0  0
   -5.7053   -2.4696    0.9825 O   0  0  0  0  0  0  0  0  0  0  0  0
   -6.7879   -0.6277    1.9670 C   0  0  0  0  0  0  0  0  0  0  0  0
   -7.2718   -0.0164    1.1885 H   0  0  0  0  0  0  0  0  0  0  0  0
   -7.5699   -1.3171    2.3239 H   0  0  0  0  0  0  0  0  0  0  0  0
   -6.6057    0.0628    2.8060 H   0  0  0  0  0  0  0  0  0  0  0  0
   -4.4001   -0.6377    1.5884 N   0  0  0  0  0  0  0  0  0  0  0  0
   -3.1220   -1.1455    1.1644 C   0  0  2  0  0  0  0  0  0  0  0  0
   -2.2017    0.0428    0.9187 C   0  0  0  0  0  0  0  0  0  0  0  0
   -2.6171    1.1750    0.6807 O   0  0  0  0  0  0  0  0  0  0  0  0
   -3.2533   -1.9992   -0.0873 C   0  0  0  0  0  0  0  0  0  0  0  0
   -4.4370    0.2910    2.0047 H   0  0  0  0  0  0  0  0  0  0  0  0
   -2.7302   -1.7467    1.9921 H   0  0  0  0  0  0  0  0  0  0  0  0
   -3.6446   -1.4140   -0.9275 H   0  0  0  0  0  0  0  0  0  0  0  0
   -2.2844   -2.4081   -0.3922 H   0  0  0  0  0  0  0  0  0  0  0  0
   -3.9388   -2.8365    0.0822 H   0  0  0  0  0  0  0  0  0  0  0  0
   -0.8768   -0.3314    0.9568 N   0  0  0  0  0  0  0  0  0  0  0  0
    0.2067    0.6285    0.7375 C   0  0  2  0  0  0  0  0  0  0  0  0
    0.3085    1.4616    2.0116 C   0  0  0  0  0  0  0  0  0  0  0  0
   -0.1238    2.6101    2.0864 O   0  0  0  0  0  0  0  0  0  0  0  0
   -0.1166    1.4857   -0.4954 C   0  0  0  0  0  0  0  0  0  0  0  0
   -0.1101    0.6992   -1.8061 C   0  0  0  0  0  0  0  0  0  0  0  0
   -0.4553    1.5700   -2.9884 C   0  0  0  0  0  0  0  0  0  0  0  0
   -0.8292    2.7320   -2.8928 O   0  0  0  0  0  0  0  0  0  0  0  0
   -0.3336    0.9226   -4.1735 O   0  0  0  0  0  0  0  0  0  0  0  0
   -0.6087   -1.2764    1.1771 H   0  0  0  0  0  0  0  0  0  0  0  0
    1.1340    0.0711    0.5695 H   0  0  0  0  0  0  0  0  0  0  0  0
   -1.1029    1.9506   -0.3638 H   0  0  0  0  0  0  0  0  0  0  0  0
    0.6070    2.3065   -0.5858 H   0  0  0  0  0  0  0  0  0  0  0  0
    0.8939    0.2974   -1.9902 H   0  0  0  0  0  0  0  0  0  0  0  0
   -0.7715   -0.1723   -1.7642 H   0  0  0  0  0  0  0  0  0  0  0  0
   -0.5670    1.4487   -4.9677 H   0  0  0  0  0  0  0  0  0  0  0  0
    0.9069    0.7659    3.0517 N   0  0  0  0  0  0  0  0  0  0  0  0
    1.1198    1.3321    4.3642 C   0  0  2  0  0  0  0  0  0  0  0  0
    2.5257    1.9167    4.4018 C   0  0  0  0  0  0  0  0  0  0  0  0
    3.4229    1.5553    3.6431 O   0  0  0  0  0  0  0  0  0  0  0  0
    0.9362    0.2875    5.4540 C   0  0  0  0  0  0  0  0  0  0  0  0
    1.2103   -0.1884    2.8826 H   0  0  0  0  0  0  0  0  0  0  0  0
    0.3859    2.1365    4.4845 H   0  0  0  0  0  0  0  0  0  0  0  0
    1.6628   -0.5266    5.3499 H   0  0  0  0  0  0  0  0  0  0  0  0
    1.0697    0.7245    6.4491 H   0  0  0  0  0  0  0  0  0  0  0  0
   -0.0655   -0.1532    5.4066 H   0  0  0  0  0  0  0  0  0  0  0  0
    2.6725    2.8584    5.4106 N   0  0  0  0  0  0  0  0  0  0  0  0
    3.9173    3.5475    5.6587 C   0  0  0  0  0  0  0  0  0  0  0  0
    1.8698    3.1101    5.9799 H   0  0  0  0  0  0  0  0  0  0  0  0
    4.4974    2.9972    6.4141 H   0  0  0  0  0  0  0  0  0  0  0  0
    4.4955    3.6076    4.7248 H   0  0  0  0  0  0  0  0  0  0  0  0
    3.7074    4.5629    6.0259 H   0  0  0  0  0  0  0  0  0  0  0  0
  1  3  1  0  0  0  0
  1  7  1  0  0  0  0
  1  2  2  0  0  0  0
 34 35  1  0  0  0  0
 35 43  1  0  0  0  0
 35 36  2  0  0  0  0
  8  9  1  0  0  0  0
  9 17  1  0  0  0  0
  9 10  2  0  0  0  0
 18 19  1  0  0  0  0
 19 33  1  0  0  0  0
 19 20  2  0  0  0  0
 22 23  1  0  0  0  0
 23 24  2  0  0  0  0
 23 25  1  0  0  0  0
 34 37  1  0  0  0  0
  8 11  1  0  0  0  0
 43 44  1  0  0  0  0
 21 22  1  0  0  0  0
 18 21  1  0  0  0  0
 33 34  1  0  0  0  0
  7  8  1  0  0  0  0
 17 18  1  0  0  0  0
  3  4  1  0  0  0  0
  3  5  1  0  0  0  0
  3  6  1  0  0  0  0
 37 40  1  0  0  0  0
 37 41  1  0  0  0  0
 37 42  1  0  0  0  0
 11 14  1  0  0  0  0
 11 15  1  0  0  0  0
 11 16  1  0  0  0  0
 44 46  1  0  0  0  0
 44 47  1  0  0  0  0
 44 48  1  0  0  0  0
 22 30  1  0  0  0  0
 22 31  1  0  0  0  0
 21 28  1  0  0  0  0
 21 29  1  0  0  0  0
 34 39  1  0  0  0  0
  8 13  1  0  0  0  0
 18 27  1  0  0  0  0
 43 45  1  0  0  0  0
  7 12  1  0  0  0  0
 33 38  1  0  0  0  0
 17 26  1  0  0  0  0
 25 32  1  0  0  0  0
M  END
$$$$

  -OEChem-05262214473D

 48 47  0     1  0  0  0  0  0999 V2000
   -5.5827   -1.3473    1.4591 C   0  0  0  0  0  0  0  0  0  0  0  0
   -5.7053   -2.4696    0.9825 O   0  0  0  0  0  0  0  0  0  0  0  0
   -6.7879   -0.6277    1.9670 C   0  0  0  0  0  0  0  0  0  0  0  0
   -7.2718   -0.0164    1.1885 H   0  0  0  0  0  0  0  0  0  0  0  0
   -7.5699   -1.3171    2.3239 H   0  0  0  0  0  0  0  0  0  0  0  0
   -6.6057    0.0628    2.8060 H   0  0  0  0  0  0  0  0  0  0  0  0
   -4.4001   -0.6377    1.5884 N   0  0  0  0  0  0  0  0  0  0  0  0
   -3.1220   -1.1455    1.1644 C   0  0  2  0  0  0  0  0  0  0  0  0
   -2.2017    0.0428    0.9187 C   0  0  0  0  0  0  0  0  0  0  0  0
   -2.6171    1.1750    0.6807 O   0  0  0  0  0  0  0  0  0  0  0  0
   -3.2533   -1.9992   -0.0873 C   0  0  0  0  0  0  0  0  0  0  0  0
   -4.4370    0.2910    2.0047 H   0  0  0  0  0  0  0  0  0  0  0  0
   -2.7302   -1.7467    1.9921 H   0  0  0  0  0  0  0  0  0  0  0  0
   -3.6446   -1.4140   -0.9275 H   0  0  0  0  0  0  0  0  0  0  0  0
   -2.2844   -2.4081   -0.3922 H   0  0  0  0  0  0  0  0  0  0  0  0
   -3.9388   -2.8365    0.0822 H   0  0  0  0  0  0  0  0  0  0  0  0
   -0.8768   -0.3314    0.9568 N   0  0  0  0  0  0  0  0  0  0  0  0
    0.2067    0.6285    0.7375 C   0  0  2  0  0  0  0  0  0  0  0  0
    0.3085    1.4616    2.0116 C   0  0  0  0  0  0  0  0  0  0  0  0
   -0.3452    2.4885    2.1836 O   0  0  0  0  0  0  0  0  0  0  0  0
   -0.1166    1.4857   -0.4954 C   0  0  0  0  0  0  0  0  0  0  0  0
   -0.1101    0.6992   -1.8061 C   0  0  0  0  0  0  0  0  0  0  0  0
   -0.4553    1.5700   -2.9884 C   0  0  0  0  0  0  0  0  0  0  0  0
   -0.8292    2.7320   -2.8928 O   0  0  0  0  0  0  0  0  0  0  0  0
   -0.3336    0.9226   -4.1735 O   0  0  0  0  0  0  0  0  0  0  0  0
   -0.6087   -1.2764    1.1771 H   0  0  0  0  0  0  0  0  0  0  0  0
    1.1340    0.0711    0.5695 H   0  0  0  0  0  0  0  0  0  0  0  0
   -1.1029    1.9506   -0.3638 H   0  0  0  0  0  0  0  0  0  0  0  0
    0.6070    2.3065   -0.5858 H   0  0  0  0  0  0  0  0  0  0  0  0
    0.8939    0.2974   -1.9902 H   0  0  0  0  0  0  0  0  0  0  0  0
   -0.7715   -0.1723   -1.7642 H   0  0  0  0  0  0  0  0  0  0  0  0
   -0.5670    1.4487   -4.9677 H   0  0  0  0  0  0  0  0  0  0  0  0
    1.1851    0.9108    2.9347 N   0  0  0  0  0  0  0  0  0  0  0  0
    1.4571    1.5075    4.2225 C   0  0  2  0  0  0  0  0  0  0  0  0
    2.6950    2.3836    4.0829 C   0  0  0  0  0  0  0  0  0  0  0  0
    3.5308    2.2272    3.1952 O   0  0  0  0  0  0  0  0  0  0  0  0
    1.6602    0.4460    5.2924 C   0  0  0  0  0  0  0  0  0  0  0  0
    1.6591    0.0456    2.6937 H   0  0  0  0  0  0  0  0  0  0  0  0
    0.5925    2.1329    4.4703 H   0  0  0  0  0  0  0  0  0  0  0  0
    2.5223   -0.1904    5.0614 H   0  0  0  0  0  0  0  0  0  0  0  0
    1.8379    0.8998    6.2730 H   0  0  0  0  0  0  0  0  0  0  0  0
    0.7804   -0.2018    5.3708 H   0  0  0  0  0  0  0  0  0  0  0  0
    2.7790    3.3330    5.0918 N   0  0  0  0  0  0  0  0  0  0  0  0
    3.8690    4.2758    5.1864 C   0  0  0  0  0  0  0  0  0  0  0  0
    2.0310    3.4032    5.7754 H   0  0  0  0  0  0  0  0  0  0  0  0
    4.6559    3.8634    5.8351 H   0  0  0  0  0  0  0  0  0  0  0  0
    4.2809    4.4617    4.1835 H   0  0  0  0  0  0  0  0  0  0  0  0
    3.5006    5.2206    5.6124 H   0  0  0  0  0  0  0  0  0  0  0  0
  1  3  1  0  0  0  0
  1  7  1  0  0  0  0
  1  2  2  0  0  0  0
 34 35  1  0  0  0  0
 35 43  1  0  0  0  0
 35 36  2  0  0  0  0
  8  9  1  0  0  0  0
  9 17  1  0  0  0  0
  9 10  2  0  0  0  0
 18 19  1  0  0  0  0
 19 33  1  0  0  0  0
 19 20  2  0  0  0  0
 22 23  1  0  0  0  0
 23 24  2  0  0  0  0
 23 25  1  0  0  0  0
 34 37  1  0  0  0  0
  8 11  1  0  0  0  0
 43 44  1  0  0  0  0
 21 22  1  0  0  0  0
 18 21  1  0  0  0  0
 33 34  1  0  0  0  0
  7  8  1  0  0  0  0
 17 18  1  0  0  0  0
  3  4  1  0  0  0  0
  3  5  1  0  0  0  0
  3  6  1  0  0  0  0
 37 40  1  0  0  0  0
 37 41  1  0  0  0  0
 37 42  1  0  0  0  0
 11 14  1  0  0  0  0
 11 15  1  0  0  0  0
 11 16  1  0  0  0  0
 44 46  1  0  0  0  0
 44 47  1  0  0  0  0
 44 48  1  0  0  0  0
 22 30  1  0  0  0  0
 22 31  1  0  0  0  0
 21 28  1  0  0  0  0
 21 29  1  0  0  0  0
 34 39  1  0  0  0  0
  8 13  1  0  0  0  0
 18 27  1  0  0  0  0
 43 45  1  0  0  0  0
  7 12  1  0  0  0  0
 33 38  1  0  0  0  0
 17 26  1  0  0  0  0
 25 32  1  0  0  0  0
M  END
$$$$

  -OEChem-05262214473D

 48 47  0     1  0  0  0  0  0999 V2000
   -5.5827   -1.3473    1.4591 C   0  0  0  0  0  0  0  0  0  0  0  0
   -5.7053   -2.4696    0.9825 O   0  0  0  0  0  0  0  0  0  0  0  0
   -6.7879   -0.6277    1.9670 C   0  0  0  0  0  0  0  0  0  0  0  0
   -7.2718   -0.0164    1.1885 H   0  0  0  0  0  0  0  0  0  0  0  0
   -7.5699   -1.3171    2.3239 H   0  0  0  0  0  0  0  0  0  0  0  0
   -6.6057    0.0628    2.8060 H   0  0  0  0  0  0  0  0  0  0  0  0
   -4.4001   -0.6377    1.5884 N   0  0  0  0  0  0  0  0  0  0  0  0
   -3.1220   -1.1455    1.1644 C   0  0  2  0  0  0  0  0  0  0  0  0
   -2.2017    0.0428    0.9187 C   0  0  0  0  0  0  0  0  0  0  0  0
   -2.6171    1.1750    0.6807 O   0  0  0  0  0  0  0  0  0  0  0  0
   -3.2533   -1.9992   -0.0873 C   0  0  0  0  0  0  0  0  0  0  0  0
   -4.4370    0.2910    2.0047 H   0  0  0  0  0  0  0  0  0  0  0  0
   -2.7302   -1.7467    1.9921 H   0  0  0  0  0  0  0  0  0  0  0  0
   -3.6446   -1.4140   -0.9275 H   0  0  0  0  0  0  0  0  0  0  0  0
   -2.2844   -2.4081   -0.3922 H   0  0  0  0  0  0  0  0  0  0  0  0
   -3.9388   -2.8365    0.0822 H   0  0  0  0  0  0  0  0  0  0  0  0
   -0.8768   -0.3314    0.9568 N   0  0  0  0  0  0  0  0  0  0  0  0
    0.2067    0.6285    0.7375 C   0  0  2  0  0  0  0  0  0  0  0  0
    0.3085    1.4616    2.0116 C   0  0  0  0  0  0  0  0  0  0  0  0
   -0.5191    2.3215    2.3067 O   0  0  0  0  0  0  0  0  0  0  0  0
   -0.1166    1.4857   -0.4954 C   0  0  0  0  0  0  0  0  0  0  0  0
   -0.1101    0.6992   -1.8061 C   0  0  0  0  0  0  0  0  0  0  0  0
   -0.4553    1.5700   -2.9884 C   0  0  0  0  0  0  0  0  0  0  0  0
   -0.8292    2.7320   -2.8928 O   0  0  0  0  0  0  0  0  0  0  0  0
   -0.3336    0.9226   -4.1735 O   0  0  0  0  0  0  0  0  0  0  0  0
   -0.6087   -1.2764    1.1771 H   0  0  0  0  0  0  0  0  0  0  0  0
    1.1340    0.0711    0.5695 H   0  0  0  0  0  0  0  0  0  0  0  0
   -1.1029    1.9506   -0.3638 H   0  0  0  0  0  0  0  0  0  0  0  0
    0.6070    2.3065   -0.5858 H   0  0  0  0  0  0  0  0  0  0  0  0
    0.8939    0.2974   -1.9902 H   0  0  0  0  0  0  0  0  0  0  0  0
   -0.7715   -0.1723   -1.7642 H   0  0  0  0  0  0  0  0  0  0  0  0
   -0.5670    1.4487   -4.9677 H   0  0  0  0  0  0  0  0  0  0  0  0
    1.4059    1.1129    2.7849 N   0  0  0  0  0  0  0  0  0  0  0  0
    1.7249    1.7522    4.0411 C   0  0  2  0  0  0  0  0  0  0  0  0
    2.7126    2.8767    3.7591 C   0  0  0  0  0  0  0  0  0  0  0  0
    3.4265    2.9073    2.7588 O   0  0  0  0  0  0  0  0  0  0  0  0
    2.3025    0.7584    5.0368 C   0  0  0  0  0  0  0  0  0  0  0  0
    2.0153    0.3718    2.4519 H   0  0  0  0  0  0  0  0  0  0  0  0
    0.7907    2.1742    4.4274 H   0  0  0  0  0  0  0  0  0  0  0  0
    3.2390    0.3250    4.6671 H   0  0  0  0  0  0  0  0  0  0  0  0
    2.5171    1.2383    5.9974 H   0  0  0  0  0  0  0  0  0  0  0  0
    1.6030   -0.0652    5.2158 H   0  0  0  0  0  0  0  0  0  0  0  0
    2.7341    3.8199    4.7770 N   0  0  0  0  0  0  0  0  0  0  0  0
    3.5982    4.9769    4.7496 C   0  0  0  0  0  0  0  0  0  0  0  0
    2.0944    3.7246    5.5601 H   0  0  0  0  0  0  0  0  0  0  0  0
    4.5399    4.7443    5.2683 H   0  0  0  0  0  0  0  0  0  0  0  0
    3.8125    5.2497    3.7057 H   0  0  0  0  0  0  0  0  0  0  0  0
    3.1002    5.8183    5.2536 H   0  0  0  0  0  0  0  0  0  0  0  0
  1  3  1  0  0  0  0
  1  7  1  0  0  0  0
  1  2  2  0  0  0  0
 34 35  1  0  0  0  0
 35 43  1  0  0  0  0
 35 36  2  0  0  0  0
  8  9  1  0  0  0  0
  9 17  1  0  0  0  0
  9 10  2  0  0  0  0
 18 19  1  0  0  0  0
 19 33  1  0  0  0  0
 19 20  2  0  0  0  0
 22 23  1  0  0  0  0
 23 24  2  0  0  0  0
 23 25  1  0  0  0  0
 34 37  1  0  0  0  0
  8 11  1  0  0  0  0
 43 44  1  0  0  0  0
 21 22  1  0  0  0  0
 18 21  1  0  0  0  0
 33 34  1  0  0  0  0
  7  8  1  0  0  0  0
 17 18  1  0  0  0  0
  3  4  1  0  0  0  0
  3  5  1  0  0  0  0
  3  6  1  0  0  0  0
 37 40  1  0  0  0  0
 37 41  1  0  0  0  0
 37 42  1  0  0  0  0
 11 14  1  0  0  0  0
 11 15  1  0  0  0  0
 11 16  1  0  0  0  0
 44 46  1  0  0  0  0
 44 47  1  0  0  0  0
 44 48  1  0  0  0  0
 22 30  1  0  0  0  0
 22 31  1  0  0  0  0
 21 28  1  0  0  0  0
 21 29  1  0  0  0  0
 34 39  1  0  0  0  0
  8 13  1  0  0  0  0
 18 27  1  0  0  0  0
 43 45  1  0  0  0  0
  7 12  1  0  0  0  0
 33 38  1  0  0  0  0
 17 26  1  0  0  0  0
 25 32  1  0  0  0  0
M  END
$$$$

  -OEChem-05262214473D

 48 47  0     1  0  0  0  0  0999 V2000
   -5.5827   -1.3473    1.4591 C   0  0  0  0  0  0  0  0  0  0  0  0
   -5.7053   -2.4696    0.9825 O   0  0  0  0  0  0  0  0  0  0  0  0
   -6.7879   -0.6277    1.9670 C   0  0  0  0  0  0  0  0  0  0  0  0
   -7.2718   -0.0164    1.1885 H   0  0  0  0  0  0  0  0  0  0  0  0
   -7.5699   -1.3171    2.3239 H   0  0  0  0  0  0  0  0  0  0  0  0
   -6.6057    0.0628    2.8060 H   0  0  0  0  0  0  0  0  0  0  0  0
   -4.4001   -0.6377    1.5884 N   0  0  0  0  0  0  0  0  0  0  0  0
   -3.1220   -1.1455    1.1644 C   0  0  2  0  0  0  0  0  0  0  0  0
   -2.2017    0.0428    0.9187 C   0  0  0  0  0  0  0  0  0  0  0  0
   -2.6171    1.1750    0.6807 O   0  0  0  0  0  0  0  0  0  0  0  0
   -3.2533   -1.9992   -0.0873 C   0  0  0  0  0  0  0  0  0  0  0  0
   -4.4370    0.2910    2.0047 H   0  0  0  0  0  0  0  0  0  0  0  0
   -2.7302   -1.7467    1.9921 H   0  0  0  0  0  0  0  0  0  0  0  0
   -3.6446   -1.4140   -0.9275 H   0  0  0  0  0  0  0  0  0  0  0  0
   -2.2844   -2.4081   -0.3922 H   0  0  0  0  0  0  0  0  0  0  0  0
   -3.9388   -2.8365    0.0822 H   0  0  0  0  0  0  0  0  0  0  0  0
   -0.8768   -0.3314    0.9568 N   0  0  0  0  0  0  0  0  0  0  0  0
    0.2067    0.6285    0.7375 C   0  0  2  0  0  0  0  0  0  0  0  0
    0.3085    1.4616    2.0116 C   0  0  0  0  0  0  0  0  0  0  0  0
   -0.6335    2.1206    2.4472 O   0  0  0  0  0  0  0  0  0  0  0  0
   -0.1166    1.4857   -0.4954 C   0  0  0  0  0  0  0  0  0  0  0  0
   -0.1101    0.6992   -1.8061 C   0  0  0  0  0  0  0  0  0  0  0  0
   -0.4553    1.5700   -2.9884 C   0  0  0  0  0  0  0  0  0  0  0  0
   -0.8292    2.7320   -2.8928 O   0  0  0  0  0  0  0  0  0  0  0  0
   -0.3336    0.9226   -4.1735 O   0  0  0  0  0  0  0  0  0  0  0  0
   -0.6087   -1.2764    1.1771 H   0  0  0  0  0  0  0  0  0  0  0  0
    1.1340    0.0711    0.5695 H   0  0  0  0  0  0  0  0  0  0  0  0
   -1.1029    1.9506   -0.3638 H   0  0  0  0  0  0  0  0  0  0  0  0
    0.6070    2.3065   -0.5858 H   0  0  0  0  0  0  0  0  0  0  0  0
    0.8939    0.2974   -1.9902 H   0  0  0  0  0  0  0  0  0  0  0  0
   -0.7715   -0.1723   -1.7642 H   0  0  0  0  0  0  0  0  0  0  0  0
   -0.5670    1.4487   -4.9677 H   0  0  0  0  0  0  0  0  0  0  0  0
    1.5544    1.3584    2.6124 N   0  0  0  0  0  0  0  0  0  0  0  0
    1.9051    2.0497    3.8323 C   0  0  2  0  0  0  0  0  0  0  0  0
    2.5772    3.3624    3.4523 C   0  0  0  0  0  0  0  0  0  0  0  0
    3.1170    3.5492    2.3638 O   0  0  0  0  0  0  0  0  0  0  0  0
    2.8193    1.2034    4.7045 C   0  0  0  0  0  0  0  0  0  0  0  0
    2.2546    0.7681    2.1736 H   0  0  0  0  0  0  0  0  0  0  0  0
    0.9672    2.2578    4.3586 H   0  0  0  0  0  0  0  0  0  0  0  0
    3.7642    0.9846    4.1938 H   0  0  0  0  0  0  0  0  0  0  0  0
    3.0610    1.7168    5.6410 H   0  0  0  0  0  0  0  0  0  0  0  0
    2.3461    0.2471    4.9522 H   0  0  0  0  0  0  0  0  0  0  0  0
    2.5411    4.2860    4.4876 N   0  0  0  0  0  0  0  0  0  0  0  0
    3.1233    5.6032    4.3780 C   0  0  0  0  0  0  0  0  0  0  0  0
    2.0557    4.0525    5.3488 H   0  0  0  0  0  0  0  0  0  0  0  0
    4.1574    5.5800    4.7525 H   0  0  0  0  0  0  0  0  0  0  0  0
    3.1222    5.9179    3.3240 H   0  0  0  0  0  0  0  0  0  0  0  0
    2.5336    6.3153    4.9739 H   0  0  0  0  0  0  0  0  0  0  0  0
  1  3  1  0  0  0  0
  1  7  1  0  0  0  0
  1  2  2  0  0  0  0
 34 35  1  0  0  0  0
 35 43  1  0  0  0  0
 35 36  2  0  0  0  0
  8  9  1  0  0  0  0
  9 17  1  0  0  0  0
  9 10  2  0  0  0  0
 18 19  1  0  0  0  0
 19 33  1  0  0  0  0
 19 20  2  0  0  0  0
 22 23  1  0  0  0  0
 23 24  2  0  0  0  0
 23 25  1  0  0  0  0
 34 37  1  0  0  0  0
  8 11  1  0  0  0  0
 43 44  1  0  0  0  0
 21 22  1  0  0  0  0
 18 21  1  0  0  0  0
 33 34  1  0  0  0  0
  7  8  1  0  0  0  0
 17 18  1  0  0  0  0
  3  4  1  0  0  0  0
  3  5  1  0  0  0  0
  3  6  1  0  0  0  0
 37 40  1  0  0  0  0
 37 41  1  0  0  0  0
 37 42  1  0  0  0  0
 11 14  1  0  0  0  0
 11 15  1  0  0  0  0
 11 16  1  0  0  0  0
 44 46  1  0  0  0  0
 44 47  1  0  0  0  0
 44 48  1  0  0  0  0
 22 30  1  0  0  0  0
 22 31  1  0  0  0  0
 21 28  1  0  0  0  0
 21 29  1  0  0  0  0
 34 39  1  0  0  0  0
  8 13  1  0  0  0  0
 18 27  1  0  0  0  0
 43 45  1  0  0  0  0
  7 12  1  0  0  0  0
 33 38  1  0  0  0  0
 17 26  1  0  0  0  0
 25 32  1  0  0  0  0
M  END
$$$$

  -OEChem-05262214473D

 48 47  0     1  0  0  0  0  0999 V2000
   -5.5827   -1.3473    1.4591 C   0  0  0  0  0  0  0  0  0  0  0  0
   -5.7053   -2.4696    0.9825 O   0  0  0  0  0  0  0  0  0  0  0  0
   -6.7879   -0.6277    1.9670 C   0  0  0  0  0  0  0  0  0  0  0  0
   -7.2718   -0.0164    1.1885 H   0  0  0  0  0  0  0  0  0  0  0  0
   -7.5699   -1.3171    2.3239 H   0  0  0  0  0  0  0  0  0  0  0  0
   -6.6057    0.0628    2.8060 H   0  0  0  0  0  0  0  0  0  0  0  0
   -4.4001   -0.6377    1.5884 N   0  0  0  0  0  0  0  0  0  0  0  0
   -3.1220   -1.1455    1.1644 C   0  0  2  0  0  0  0  0  0  0  0  0
   -2.2017    0.0428    0.9187 C   0  0  0  0  0  0  0  0  0  0  0  0
   -2.6171    1.1750    0.6807 O   0  0  0  0  0  0  0  0  0  0  0  0
   -3.2533   -1.9992   -0.0873 C   0  0  0  0  0  0  0  0  0  0  0  0
   -4.4370    0.2910    2.0047 H   0  0  0  0  0  0  0  0  0  0  0  0
   -2.7302   -1.7467    1.9921 H   0  0  0  0  0  0  0  0  0  0  0  0
   -3.6446   -1.4140   -0.9275 H   0  0  0  0  0  0  0  0  0  0  0  0
   -2.2844   -2.4081   -0.3922 H   0  0  0  0  0  0  0  0  0  0  0  0
   -3.9388   -2.8365    0.0822 H   0  0  0  0  0  0  0  0  0  0  0  0
   -0.8768   -0.3314    0.9568 N   0  0  0  0  0  0  0  0  0  0  0  0
    0.2067    0.6285    0.7375 C   0  0  2  0  0  0  0  0  0  0  0  0
    0.3085    1.4616    2.0116 C   0  0  0  0  0  0  0  0  0  0  0  0
   -0.6808    1.8993    2.5957 O   0  0  0  0  0  0  0  0  0  0  0  0
   -0.1166    1.4857   -0.4954 C   0  0  0  0  0  0  0  0  0  0  0  0
   -0.1101    0.6992   -1.8061 C   0  0  0  0  0  0  0  0  0  0  0  0
   -0.4553    1.5700   -2.9884 C   0  0  0  0  0  0  0  0  0  0  0  0
   -0.8292    2.7320   -2.8928 O   0  0  0  0  0  0  0  0  0  0  0  0
   -0.3336    0.9226   -4.1735 O   0  0  0  0  0  0  0  0  0  0  0  0
   -0.6087   -1.2764    1.1771 H   0  0  0  0  0  0  0  0  0  0  0  0
    1.1340    0.0711    0.5695 H   0  0  0  0  0  0  0  0  0  0  0  0
   -1.1029    1.9506   -0.3638 H   0  0  0  0  0  0  0  0  0  0  0  0
    0.6070    2.3065   -0.5858 H   0  0  0  0  0  0  0  0  0  0  0  0
    0.8939    0.2974   -1.9902 H   0  0  0  0  0  0  0  0  0  0  0  0
   -0.7715   -0.1723   -1.7642 H   0  0  0  0  0  0  0  0  0  0  0  0
   -0.5670    1.4487   -4.9677 H   0  0  0  0  0  0  0  0  0  0  0  0
    1.6204    1.6307    2.4292 N   0  0  0  0  0  0  0  0  0  0  0  0
    1.9853    2.3795    3.6102 C   0  0  2  0  0  0  0  0  0  0  0  0
    2.2981    3.8076    3.1835 C   0  0  0  0  0  0  0  0  0  0  0  0
    2.6236    4.1092    2.0371 O   0  0  0  0  0  0  0  0  0  0  0  0
    3.1753    1.7507    4.3182 C   0  0  0  0  0  0  0  0  0  0  0  0
    2.3609    1.2075    1.8779 H   0  0  0  0  0  0  0  0  0  0  0  0
    1.1099    2.3779    4.2687 H   0  0  0  0  0  0  0  0  0  0  0  0
    4.0620    1.7434    3.6739 H   0  0  0  0  0  0  0  0  0  0  0  0
    3.4326    2.3027    5.2282 H   0  0  0  0  0  0  0  0  0  0  0  0
    2.9592    0.7140    4.5979 H   0  0  0  0  0  0  0  0  0  0  0  0
    2.2131    4.6995    4.2435 N   0  0  0  0  0  0  0  0  0  0  0  0
    2.4768    6.1119    4.0971 C   0  0  0  0  0  0  0  0  0  0  0  0
    1.9176    4.3646    5.1558 H   0  0  0  0  0  0  0  0  0  0  0  0
    3.5343    6.3134    4.3228 H   0  0  0  0  0  0  0  0  0  0  0  0
    2.2571    6.4207    3.0644 H   0  0  0  0  0  0  0  0  0  0  0  0
    1.8393    6.6778    4.7924 H   0  0  0  0  0  0  0  0  0  0  0  0
  1  3  1  0  0  0  0
  1  7  1  0  0  0  0
  1  2  2  0  0  0  0
 34 35  1  0  0  0  0
 35 43  1  0  0  0  0
 35 36  2  0  0  0  0
  8  9  1  0  0  0  0
  9 17  1  0  0  0  0
  9 10  2  0  0  0  0
 18 19  1  0  0  0  0
 19 33  1  0  0  0  0
 19 20  2  0  0  0  0
 22 23  1  0  0  0  0
 23 24  2  0  0  0  0
 23 25  1  0  0  0  0
 34 37  1  0  0  0  0
  8 11  1  0  0  0  0
 43 44  1  0  0  0  0
 21 22  1  0  0  0  0
 18 21  1  0  0  0  0
 33 34  1  0  0  0  0
  7  8  1  0  0  0  0
 17 18  1  0  0  0  0
  3  4  1  0  0  0  0
  3  5  1  0  0  0  0
  3  6  1  0  0  0  0
 37 40  1  0  0  0  0
 37 41  1  0  0  0  0
 37 42  1  0  0  0  0
 11 14  1  0  0  0  0
 11 15  1  0  0  0  0
 11 16  1  0  0  0  0
 44 46  1  0  0  0  0
 44 47  1  0  0  0  0
 44 48  1  0  0  0  0
 22 30  1  0  0  0  0
 22 31  1  0  0  0  0
 21 28  1  0  0  0  0
 21 29  1  0  0  0  0
 34 39  1  0  0  0  0
  8 13  1  0  0  0  0
 18 27  1  0  0  0  0
 43 45  1  0  0  0  0
  7 12  1  0  0  0  0
 33 38  1  0  0  0  0
 17 26  1  0  0  0  0
 25 32  1  0  0  0  0
M  END
$$$$

  -OEChem-05262214473D

 48 47  0     1  0  0  0  0  0999 V2000
   -5.5827   -1.3473    1.4591 C   0  0  0  0  0  0  0  0  0  0  0  0
   -5.7053   -2.4696    0.9825 O   0  0  0  0  0  0  0  0  0  0  0  0
   -6.7879   -0.6277    1.9670 C   0  0  0  0  0  0  0  0  0  0  0  0
   -7.2718   -0.0164    1.1885 H   0  0  0  0  0  0  0  0  0  0  0  0
   -7.5699   -1.3171    2.3239 H   0  0  0  0  0  0  0  0  0  0  0  0
   -6.6057    0.0628    2.8060 H   0  0  0  0  0  0  0  0  0  0  0  0
   -4.4001   -0.6377    1.5884 N   0  0  0  0  0  0  0  0  0  0  0  0
   -3.1220   -1.1455    1.1644 C   0  0  2  0  0  0  0  0  0  0  0  0
   -2.2017    0.0428    0.9187 C   0  0  0  0  0  0  0  0  0  0  0  0
   -2.6171    1.1750    0.6807 O   0  0  0  0  0  0  0  0  0  0  0  0
   -3.2533   -1.9992   -0.0873 C   0  0  0  0  0  0  0  0  0  0  0  0
   -4.4370    0.2910    2.0047 H   0  0  0  0  0  0  0  0  0  0  0  0
   -2.7302   -1.7467    1.9921 H   0  0  0  0  0  0  0  0  0  0  0  0
   -3.6446   -1.4140   -0.9275 H   0  0  0  0  0  0  0  0  0  0  0  0
   -2.2844   -2.4081   -0.3922 H   0  0  0  0  0  0  0  0  0  0  0  0
   -3.9388   -2.8365    0.0822 H   0  0  0  0  0  0  0  0  0  0  0  0
   -0.8768   -0.3314    0.9568 N   0  0  0  0  0  0  0  0  0  0  0  0
    0.2067    0.6285    0.7375 C   0  0  2  0  0  0  0  0  0  0  0  0
    0.3085    1.4616    2.0116 C   0  0  0  0  0  0  0  0  0  0  0  0
   -0.6576    1.6727    2.7420 O   0  0  0  0  0  0  0  0  0  0  0  0
   -0.1166    1.4857   -0.4954 C   0  0  0  0  0  0  0  0  0  0  0  0
   -0.1101    0.6992   -1.8061 C   0  0  0  0  0  0  0  0  0  0  0  0
   -0.4553    1.5700   -2.9884 C   0  0  0  0  0  0  0  0  0  0  0  0
   -0.8292    2.7320   -2.8928 O   0  0  0  0  0  0  0  0  0  0  0  0
   -0.3336    0.9226   -4.1735 O   0  0  0  0  0  0  0  0  0  0  0  0
   -0.6087   -1.2764    1.1771 H   0  0  0  0  0  0  0  0  0  0  0  0
    1.1340    0.0711    0.5695 H   0  0  0  0  0  0  0  0  0  0  0  0
   -1.1029    1.9506   -0.3638 H   0  0  0  0  0  0  0  0  0  0  0  0
    0.6070    2.3065   -0.5858 H   0  0  0  0  0  0  0  0  0  0  0  0
    0.8939    0.2974   -1.9902 H   0  0  0  0  0  0  0  0  0  0  0  0
   -0.7715   -0.1723   -1.7642 H   0  0  0  0  0  0  0  0  0  0  0  0
   -0.5670    1.4487   -4.9677 H   0  0  0  0  0  0  0  0  0  0  0  0
    1.5993    1.9111    2.2475 N   0  0  0  0  0  0  0  0  0  0  0  0
    1.9602    2.7193    3.3900 C   0  0  2  0  0  0  0  0  0  0  0  0
    1.8943    4.1820    2.9710 C   0  0  0  0  0  0  0  0  0  0  0  0
    1.9798    4.5491    1.8010 O   0  0  0  0  0  0  0  0  0  0  0  0
    3.3463    2.3630    3.9042 C   0  0  0  0  0  0  0  0  0  0  0  0
    2.3267    1.6599    1.5848 H   0  0  0  0  0  0  0  0  0  0  0  0
    1.2091    2.5263    4.1638 H   0  0  0  0  0  0  0  0  0  0  0  0
    4.1122    2.5497    3.1426 H   0  0  0  0  0  0  0  0  0  0  0  0
    3.6066    2.9561    4.7871 H   0  0  0  0  0  0  0  0  0  0  0  0
    3.4003    1.3035    4.1771 H   0  0  0  0  0  0  0  0  0  0  0  0
    1.7723    5.0322    4.0612 N   0  0  0  0  0  0  0  0  0  0  0  0
    1.7026    6.4684    3.9259 C   0  0  0  0  0  0  0  0  0  0  0  0
    1.6895    4.6395    4.9943 H   0  0  0  0  0  0  0  0  0  0  0  0
    2.7133    6.8945    4.0084 H   0  0  0  0  0  0  0  0  0  0  0  0
    1.2761    6.7238    2.9446 H   0  0  0  0  0  0  0  0  0  0  0  0
    1.0648    6.8810    4.7215 H   0  0  0  0  0  0  0  0  0  0  0  0
  1  3  1  0  0  0  0
  1  7  1  0  0  0  0
  1  2  2  0  0  0  0
 34 35  1  0  0  0  0
 35 43  1  0  0  0  0
 35 36  2  0  0  0  0
  8  9  1  0  0  0  0
  9 17  1  0  0  0  0
  9 10  2  0  0  0  0
 18 19  1  0  0  0  0
 19 33  1  0  0  0  0
 19 20  2  0  0  0  0
 22 23  1  0  0  0  0
 23 24  2  0  0  0  0
 23 25  1  0  0  0  0
 34 37  1  0  0  0  0
  8 11  1  0  0  0  0
 43 44  1  0  0  0  0
 21 22  1  0  0  0  0
 18 21  1  0  0  0  0
 33 34  1  0  0  0  0
  7  8  1  0  0  0  0
 17 18  1  0  0  0  0
  3  4  1  0  0  0  0
  3  5  1  0  0  0  0
  3  6  1  0  0  0  0
 37 40  1  0  0  0  0
 37 41  1  0  0  0  0
 37 42  1  0  0  0  0
 11 14  1  0  0  0  0
 11 15  1  0  0  0  0
 11 16  1  0  0  0  0
 44 46  1  0  0  0  0
 44 47  1  0  0  0  0
 44 48  1  0  0  0  0
 22 30  1  0  0  0  0
 22 31  1  0  0  0  0
 21 28  1  0  0  0  0
 21 29  1  0  0  0  0
 34 39  1  0  0  0  0
  8 13  1  0  0  0  0
 18 27  1  0  0  0  0
 43 45  1  0  0  0  0
  7 12  1  0  0  0  0
 33 38  1  0  0  0  0
 17 26  1  0  0  0  0
 25 32  1  0  0  0  0
M  END
$$$$

  -OEChem-05262214473D

 48 47  0     1  0  0  0  0  0999 V2000
   -5.5827   -1.3473    1.4591 C   0  0  0  0  0  0  0  0  0  0  0  0
   -5.7053   -2.4696    0.9825 O   0  0  0  0  0  0  0  0  0  0  0  0
   -6.7879   -0.6277    1.9670 C   0  0  0  0  0  0  0  0  0  0  0  0
   -7.2718   -0.0164    1.1885 H   0  0  0  0  0  0  0  0  0  0  0  0
   -7.5699   -1.3171    2.3239 H   0  0  0  0  0  0  0  0  0  0  0  0
   -6.6057    0.0628    2.8060 H   0  0  0  0  0  0  0  0  0  0  0  0
   -4.4001   -0.6377    1.5884 N   0  0  0  0  0  0  0  0  0  0  0  0
   -3.1220   -1.1455    1.1644 C   0  0  2  0  0  0  0  0  0  0  0  0
   -2.2017    0.0428    0.9187 C   0  0  0  0  0  0  0  0  0  0  0  0
   -2.6171    1.1750    0.6807 O   0  0  0  0  0  0  0  0  0  0  0  0
   -3.2533   -1.9992   -0.0873 C   0  0  0  0  0  0  0  0  0  0  0  0
   -4.4370    0.2910    2.0047 H   0  0  0  0  0  0  0  0  0  0  0  0
   -2.7302   -1.7467    1.9921 H   0  0  0  0  0  0  0  0  0  0  0  0
   -3.6446   -1.4140   -0.9275 H   0  0  0  0  0  0  0  0  0  0  0  0
   -2.2844   -2.4081   -0.3922 H   0  0  0  0  0  0  0  0  0  0  0  0
   -3.9388   -2.8365    0.0822 H   0  0  0  0  0  0  0  0  0  0  0  0
   -0.8768   -0.3314    0.9568 N   0  0  0  0  0  0  0  0  0  0  0  0
    0.2067    0.6285    0.7375 C   0  0  2  0  0  0  0  0  0  0  0  0
    0.3085    1.4616    2.0116 C   0  0  0  0  0  0  0  0  0  0  0  0
   -0.5656    1.4564    2.8761 O   0  0  0  0  0  0  0  0  0  0  0  0
   -0.1166    1.4857   -0.4954 C   0  0  0  0  0  0  0  0  0  0  0  0
   -0.1101    0.6992   -1.8061 C   0  0  0  0  0  0  0  0  0  0  0  0
   -0.4553    1.5700   -2.9884 C   0  0  0  0  0  0  0  0  0  0  0  0
   -0.8292    2.7320   -2.8928 O   0  0  0  0  0  0  0  0  0  0  0  0
   -0.3336    0.9226   -4.1735 O   0  0  0  0  0  0  0  0  0  0  0  0
   -0.6087   -1.2764    1.1771 H   0  0  0  0  0  0  0  0  0  0  0  0
    1.1340    0.0711    0.5695 H   0  0  0  0  0  0  0  0  0  0  0  0
   -1.1029    1.9506   -0.3638 H   0  0  0  0  0  0  0  0  0  0  0  0
    0.6070    2.3065   -0.5858 H   0  0  0  0  0  0  0  0  0  0  0  0
    0.8939    0.2974   -1.9902 H   0  0  0  0  0  0  0  0  0  0  0  0
   -0.7715   -0.1723   -1.7642 H   0  0  0  0  0  0  0  0  0  0  0  0
   -0.5670    1.4487   -4.9677 H   0  0  0  0  0  0  0  0  0  0  0  0
    1.4927    2.1805    2.0798 N   0  0  0  0  0  0  0  0  0  0  0  0
    1.8313    3.0458    3.1868 C   0  0  2  0  0  0  0  0  0  0  0  0
    1.3934    4.4600    2.8293 C   0  0  0  0  0  0  0  0  0  0  0  0
    1.2294    4.8389    1.6715 O   0  0  0  0  0  0  0  0  0  0  0  0
    3.3206    2.9985    3.4907 C   0  0  0  0  0  0  0  0  0  0  0  0
    2.1545    2.0946    1.3143 H   0  0  0  0  0  0  0  0  0  0  0  0
    1.2580    2.6928    4.0510 H   0  0  0  0  0  0  0  0  0  0  0  0
    3.9113    3.3486    2.6364 H   0  0  0  0  0  0  0  0  0  0  0  0
    3.5710    3.6325    4.3477 H   0  0  0  0  0  0  0  0  0  0  0  0
    3.6396    1.9756    3.7185 H   0  0  0  0  0  0  0  0  0  0  0  0
    1.2489    5.2614    3.9532 N   0  0  0  0  0  0  0  0  0  0  0  0
    0.8535    6.6484    3.8761 C   0  0  0  0  0  0  0  0  0  0  0  0
    1.3870    4.8585    4.8753 H   0  0  0  0  0  0  0  0  0  0  0  0
    1.7502    7.2839    3.8308 H   0  0  0  0  0  0  0  0  0  0  0  0
    0.2461    6.8067    2.9728 H   0  0  0  0  0  0  0  0  0  0  0  0
    0.2626    6.9111    4.7659 H   0  0  0  0  0  0  0  0  0  0  0  0
  1  3  1  0  0  0  0
  1  7  1  0  0  0  0
  1  2  2  0  0  0  0
 34 35  1  0  0  0  0
 35 43  1  0  0  0  0
 35 36  2  0  0  0  0
  8  9  1  0  0  0  0
  9 17  1  0  0  0  0
  9 10  2  0  0  0  0
 18 19  1  0  0  0  0
 19 33  1  0  0  0  0
 19 20  2  0  0  0  0
 22 23  1  0  0  0  0
 23 24  2  0  0  0  0
 23 25  1  0  0  0  0
 34 37  1  0  0  0  0
  8 11  1  0  0  0  0
 43 44  1  0  0  0  0
 21 22  1  0  0  0  0
 18 21  1  0  0  0  0
 33 34  1  0  0  0  0
  7  8  1  0  0  0  0
 17 18  1  0  0  0  0
  3  4  1  0  0  0  0
  3  5  1  0  0  0  0
  3  6  1  0  0  0  0
 37 40  1  0  0  0  0
 37 41  1  0  0  0  0
 37 42  1  0  0  0  0
 11 14  1  0  0  0  0
 11 15  1  0  0  0  0
 11 16  1  0  0  0  0
 44 46  1  0  0  0  0
 44 47  1  0  0  0  0
 44 48  1  0  0  0  0
 22 30  1  0  0  0  0
 22 31  1  0  0  0  0
 21 28  1  0  0  0  0
 21 29  1  0  0  0  0
 34 39  1  0  0  0  0
  8 13  1  0  0  0  0
 18 27  1  0  0  0  0
 43 45  1  0  0  0  0
  7 12  1  0  0  0  0
 33 38  1  0  0  0  0
 17 26  1  0  0  0  0
 25 32  1  0  0  0  0
M  END
$$$$

  -OEChem-05262214473D

 48 47  0     1  0  0  0  0  0999 V2000
   -5.5827   -1.3473    1.4591 C   0  0  0  0  0  0  0  0  0  0  0  0
   -5.7053   -2.4696    0.9825 O   0  0  0  0  0  0  0  0  0  0  0  0
   -6.7879   -0.6277    1.9670 C   0  0  0  0  0  0  0  0  0  0  0  0
   -7.2718   -0.0164    1.1885 H   0  0  0  0  0  0  0  0  0  0  0  0
   -7.5699   -1.3171    2.3239 H   0  0  0  0  0  0  0  0  0  0  0  0
   -6.6057    0.0628    2.8060 H   0  0  0  0  0  0  0  0  0  0  0  0
   -4.4001   -0.6377    1.5884 N   0  0  0  0  0  0  0  0  0  0  0  0
   -3.1220   -1.1455    1.1644 C   0  0  2  0  0  0  0  0  0  0  0  0
   -2.2017    0.0428    0.9187 C   0  0  0  0  0  0  0  0  0  0  0  0
   -2.6171    1.1750    0.6807 O   0  0  0  0  0  0  0  0  0  0  0  0
   -3.2533   -1.9992   -0.0873 C   0  0  0  0  0  0  0  0  0  0  0  0
   -4.4370    0.2910    2.0047 H   0  0  0  0  0  0  0  0  0  0  0  0
   -2.7302   -1.7467    1.9921 H   0  0  0  0  0  0  0  0  0  0  0  0
   -3.6446   -1.4140   -0.9275 H   0  0  0  0  0  0  0  0  0  0  0  0
   -2.2844   -2.4081   -0.3922 H   0  0  0  0  0  0  0  0  0  0  0  0
   -3.9388   -2.8365    0.0822 H   0  0  0  0  0  0  0  0  0  0  0  0
   -0.8768   -0.3314    0.9568 N   0  0  0  0  0  0  0  0  0  0  0  0
    0.2067    0.6285    0.7375 C   0  0  2  0  0  0  0  0  0  0  0  0
    0.5644    1.1949    2.1082 C   0  0  0  0  0  0  0  0  0  0  0  0
    0.0073    0.8276    3.1408 O   0  0  0  0  0  0  0  0  0  0  0  0
   -0.2688    1.7165   -0.2369 C   0  0  0  0  0  0  0  0  0  0  0  0
   -0.5233    1.2006   -1.6531 C   0  0  0  0  0  0  0  0  0  0  0  0
   -1.0112    2.2925   -2.5723 C   0  0  0  0  0  0  0  0  0  0  0  0
   -1.2993    3.4216   -2.1963 O   0  0  0  0  0  0  0  0  0  0  0  0
   -1.1239    1.8860   -3.8609 O   0  0  0  0  0  0  0  0  0  0  0  0
   -0.6087   -1.2764    1.1771 H   0  0  0  0  0  0  0  0  0  0  0  0
    1.0610    0.0940    0.3093 H   0  0  0  0  0  0  0  0  0  0  0  0
   -1.1923    2.1686    0.1489 H   0  0  0  0  0  0  0  0  0  0  0  0
    0.4741    2.5229   -0.2954 H   0  0  0  0  0  0  0  0  0  0  0  0
    0.4124    0.8202   -2.0809 H   0  0  0  0  0  0  0  0  0  0  0  0
   -1.2158    0.3525   -1.6619 H   0  0  0  0  0  0  0  0  0  0  0  0
   -1.4564    2.5618   -4.4891 H   0  0  0  0  0  0  0  0  0  0  0  0
    1.5891    2.1275    2.0439 N   0  0  0  0  0  0  0  0  0  0  0  0
    2.1135    2.8094    3.2052 C   0  0  2  0  0  0  0  0  0  0  0  0
    1.3775    4.1356    3.3440 C   0  0  0  0  0  0  0  0  0  0  0  0
    0.8125    4.6907    2.4040 O   0  0  0  0  0  0  0  0  0  0  0  0
    3.6135    3.0300    3.0869 C   0  0  0  0  0  0  0  0  0  0  0  0
    1.9907    2.3416    1.1360 H   0  0  0  0  0  0  0  0  0  0  0  0
    1.8920    2.1758    4.0709 H   0  0  0  0  0  0  0  0  0  0  0  0
    3.8548    3.6628    2.2251 H   0  0  0  0  0  0  0  0  0  0  0  0
    4.0139    3.5212    3.9799 H   0  0  0  0  0  0  0  0  0  0  0  0
    4.1385    2.0775    2.9573 H   0  0  0  0  0  0  0  0  0  0  0  0
    1.4627    4.6475    4.6312 N   0  0  0  0  0  0  0  0  0  0  0  0
    0.8564    5.9014    5.0133 C   0  0  0  0  0  0  0  0  0  0  0  0
    1.9352    4.1103    5.3523 H   0  0  0  0  0  0  0  0  0  0  0  0
    1.5889    6.7138    4.8972 H   0  0  0  0  0  0  0  0  0  0  0  0
   -0.0143    6.0984    4.3706 H   0  0  0  0  0  0  0  0  0  0  0  0
    0.5325    5.8471    6.0631 H   0  0  0  0  0  0  0  0  0  0  0  0
  1  3  1  0  0  0  0
  1  7  1  0  0  0  0
  1  2  2  0  0  0  0
 34 35  1  0  0  0  0
 35 43  1  0  0  0  0
 35 36  2  0  0  0  0
  8  9  1  0  0  0  0
  9 17  1  0  0  0  0
  9 10  2  0  0  0  0
 18 19  1  0  0  0  0
 19 33  1  0  0  0  0
 19 20  2  0  0  0  0
 22 23  1  0  0  0  0
 23 24  2  0  0  0  0
 23 25  1  0  0  0  0
 34 37  1  0  0  0  0
  8 11  1  0  0  0  0
 43 44  1  0  0  0  0
 21 22  1  0  0  0  0
 18 21  1  0  0  0  0
 33 34  1  0  0  0  0
  7  8  1  0  0  0  0
 17 18  1  0  0  0  0
  3  4  1  0  0  0  0
  3  5  1  0  0  0  0
  3  6  1  0  0  0  0
 37 40  1  0  0  0  0
 37 41  1  0  0  0  0
 37 42  1  0  0  0  0
 11 14  1  0  0  0  0
 11 15  1  0  0  0  0
 11 16  1  0  0  0  0
 44 46  1  0  0  0  0
 44 47  1  0  0  0  0
 44 48  1  0  0  0  0
 22 30  1  0  0  0  0
 22 31  1  0  0  0  0
 21 28  1  0  0  0  0
 21 29  1  0  0  0  0
 34 39  1  0  0  0  0
  8 13  1  0  0  0  0
 18 27  1  0  0  0  0
 43 45  1  0  0  0  0
  7 12  1  0  0  0  0
 33 38  1  0  0  0  0
 17 26  1  0  0  0  0
 25 32  1  0  0  0  0
M  END
$$$$

  -OEChem-05262214473D

 48 47  0     1  0  0  0  0  0999 V2000
   -5.5827   -1.3473    1.4591 C   0  0  0  0  0  0  0  0  0  0  0  0
   -5.7053   -2.4696    0.9825 O   0  0  0  0  0  0  0  0  0  0  0  0
   -6.7879   -0.6277    1.9670 C   0  0  0  0  0  0  0  0  0  0  0  0
   -7.2718   -0.0164    1.1885 H   0  0  0  0  0  0  0  0  0  0  0  0
   -7.5699   -1.3171    2.3239 H   0  0  0  0  0  0  0  0  0  0  0  0
   -6.6057    0.0628    2.8060 H   0  0  0  0  0  0  0  0  0  0  0  0
   -4.4001   -0.6377    1.5884 N   0  0  0  0  0  0  0  0  0  0  0  0
   -3.1220   -1.1455    1.1644 C   0  0  2  0  0  0  0  0  0  0  0  0
   -2.2017    0.0428    0.9187 C   0  0  0  0  0  0  0  0  0  0  0  0
   -2.6171    1.1750    0.6807 O   0  0  0  0  0  0  0  0  0  0  0  0
   -3.2533   -1.9992   -0.0873 C   0  0  0  0  0  0  0  0  0  0  0  0
   -4.4370    0.2910    2.0047 H   0  0  0  0  0  0  0  0  0  0  0  0
   -2.7302   -1.7467    1.9921 H   0  0  0  0  0  0  0  0  0  0  0  0
   -3.6446   -1.4140   -0.9275 H   0  0  0  0  0  0  0  0  0  0  0  0
   -2.2844   -2.4081   -0.3922 H   0  0  0  0  0  0  0  0  0  0  0  0
   -3.9388   -2.8365    0.0822 H   0  0  0  0  0  0  0  0  0  0  0  0
   -0.8768   -0.3314    0.9568 N   0  0  0  0  0  0  0  0  0  0  0  0
    0.2067    0.6285    0.7375 C   0  0  2  0  0  0  0  0  0  0  0  0
    0.5644    1.1949    2.1082 C   0  0  0  0  0  0  0  0  0  0  0  0
    0.2161    0.6563    3.1571 O   0  0  0  0  0  0  0  0  0  0  0  0
   -0.2688    1.7165   -0.2369 C   0  0  0  0  0  0  0  0  0  0  0  0
   -0.5233    1.2006   -1.6531 C   0  0  0  0  0  0  0  0  0  0  0  0
   -1.0112    2.2925   -2.5723 C   0  0  0  0  0  0  0  0  0  0  0  0
   -1.2993    3.4216   -2.1963 O   0  0  0  0  0  0  0  0  0  0  0  0
   -1.1239    1.8860   -3.8609 O   0  0  0  0  0  0  0  0  0  0  0  0
   -0.6087   -1.2764    1.1771 H   0  0  0  0  0  0  0  0  0  0  0  0
    1.0610    0.0940    0.3093 H   0  0  0  0  0  0  0  0  0  0  0  0
   -1.1923    2.1686    0.1489 H   0  0  0  0  0  0  0  0  0  0  0  0
    0.4741    2.5229   -0.2954 H   0  0  0  0  0  0  0  0  0  0  0  0
    0.4124    0.8202   -2.0809 H   0  0  0  0  0  0  0  0  0  0  0  0
   -1.2158    0.3525   -1.6619 H   0  0  0  0  0  0  0  0  0  0  0  0
   -1.4564    2.5618   -4.4891 H   0  0  0  0  0  0  0  0  0  0  0  0
    1.3354    2.3446    2.0204 N   0  0  0  0  0  0  0  0  0  0  0  0
    1.8062    3.0727    3.1766 C   0  0  2  0  0  0  0  0  0  0  0  0
    0.8038    4.1797    3.4755 C   0  0  0  0  0  0  0  0  0  0  0  0
    0.0325    4.6318    2.6319 O   0  0  0  0  0  0  0  0  0  0  0  0
    3.1951    3.6459    2.9417 C   0  0  0  0  0  0  0  0  0  0  0  0
    1.5811    2.6918    1.0982 H   0  0  0  0  0  0  0  0  0  0  0  0
    1.8267    2.3628    4.0107 H   0  0  0  0  0  0  0  0  0  0  0  0
    3.1944    4.3594    2.1096 H   0  0  0  0  0  0  0  0  0  0  0  0
    3.5620    4.1729    3.8286 H   0  0  0  0  0  0  0  0  0  0  0  0
    3.9084    2.8514    2.6976 H   0  0  0  0  0  0  0  0  0  0  0  0
    0.9017    4.6331    4.7836 N   0  0  0  0  0  0  0  0  0  0  0  0
    0.0665    5.6886    5.3074 C   0  0  0  0  0  0  0  0  0  0  0  0
    1.5567    4.1874    5.4192 H   0  0  0  0  0  0  0  0  0  0  0  0
    0.5769    6.6554    5.1855 H   0  0  0  0  0  0  0  0  0  0  0  0
   -0.8878    5.7064    4.7605 H   0  0  0  0  0  0  0  0  0  0  0  0
   -0.1261    5.5078    6.3752 H   0  0  0  0  0  0  0  0  0  0  0  0
  1  3  1  0  0  0  0
  1  7  1  0  0  0  0
  1  2  2  0  0  0  0
 34 35  1  0  0  0  0
 35 43  1  0  0  0  0
 35 36  2  0  0  0  0
  8  9  1  0  0  0  0
  9 17  1  0  0  0  0
  9 10  2  0  0  0  0
 18 19  1  0  0  0  0
 19 33  1  0  0  0  0
 19 20  2  0  0  0  0
 22 23  1  0  0  0  0
 23 24  2  0  0  0  0
 23 25  1  0  0  0  0
 34 37  1  0  0  0  0
  8 11  1  0  0  0  0
 43 44  1  0  0  0  0
 21 22  1  0  0  0  0
 18 21  1  0  0  0  0
 33 34  1  0  0  0  0
  7  8  1  0  0  0  0
 17 18  1  0  0  0  0
  3  4  1  0  0  0  0
  3  5  1  0  0  0  0
  3  6  1  0  0  0  0
 37 40  1  0  0  0  0
 37 41  1  0  0  0  0
 37 42  1  0  0  0  0
 11 14  1  0  0  0  0
 11 15  1  0  0  0  0
 11 16  1  0  0  0  0
 44 46  1  0  0  0  0
 44 47  1  0  0  0  0
 44 48  1  0  0  0  0
 22 30  1  0  0  0  0
 22 31  1  0  0  0  0
 21 28  1  0  0  0  0
 21 29  1  0  0  0  0
 34 39  1  0  0  0  0
  8 13  1  0  0  0  0
 18 27  1  0  0  0  0
 43 45  1  0  0  0  0
  7 12  1  0  0  0  0
 33 38  1  0  0  0  0
 17 26  1  0  0  0  0
 25 32  1  0  0  0  0
M  END
$$$$

  -OEChem-05262214473D

 48 47  0     1  0  0  0  0  0999 V2000
   -5.5827   -1.3473    1.4591 C   0  0  0  0  0  0  0  0  0  0  0  0
   -5.7053   -2.4696    0.9825 O   0  0  0  0  0  0  0  0  0  0  0  0
   -6.7879   -0.6277    1.9670 C   0  0  0  0  0  0  0  0  0  0  0  0
   -7.2718   -0.0164    1.1885 H   0  0  0  0  0  0  0  0  0  0  0  0
   -7.5699   -1.3171    2.3239 H   0  0  0  0  0  0  0  0  0  0  0  0
   -6.6057    0.0628    2.8060 H   0  0  0  0  0  0  0  0  0  0  0  0
   -4.4001   -0.6377    1.5884 N   0  0  0  0  0  0  0  0  0  0  0  0
   -3.1220   -1.1455    1.1644 C   0  0  2  0  0  0  0  0  0  0  0  0
   -2.2017    0.0428    0.9187 C   0  0  0  0  0  0  0  0  0  0  0  0
   -2.6171    1.1750    0.6807 O   0  0  0  0  0  0  0  0  0  0  0  0
   -3.2533   -1.9992   -0.0873 C   0  0  0  0  0  0  0  0  0  0  0  0
   -4.4370    0.2910    2.0047 H   0  0  0  0  0  0  0  0  0  0  0  0
   -2.7302   -1.7467    1.9921 H   0  0  0  0  0  0  0  0  0  0  0  0
   -3.6446   -1.4140   -0.9275 H   0  0  0  0  0  0  0  0  0  0  0  0
   -2.2844   -2.4081   -0.3922 H   0  0  0  0  0  0  0  0  0  0  0  0
   -3.9388   -2.8365    0.0822 H   0  0  0  0  0  0  0  0  0  0  0  0
   -0.8768   -0.3314    0.9568 N   0  0  0  0  0  0  0  0  0  0  0  0
    0.2067    0.6285    0.7375 C   0  0  2  0  0  0  0  0  0  0  0  0
    0.5644    1.1949    2.1082 C   0  0  0  0  0  0  0  0  0  0  0  0
    0.4593    0.5383    3.1423 O   0  0  0  0  0  0  0  0  0  0  0  0
   -0.2688    1.7165   -0.2369 C   0  0  0  0  0  0  0  0  0  0  0  0
   -0.5233    1.2006   -1.6531 C   0  0  0  0  0  0  0  0  0  0  0  0
   -1.0112    2.2925   -2.5723 C   0  0  0  0  0  0  0  0  0  0  0  0
   -1.2993    3.4216   -2.1963 O   0  0  0  0  0  0  0  0  0  0  0  0
   -1.1239    1.8860   -3.8609 O   0  0  0  0  0  0  0  0  0  0  0  0
   -0.6087   -1.2764    1.1771 H   0  0  0  0  0  0  0  0  0  0  0  0
    1.0610    0.0940    0.3093 H   0  0  0  0  0  0  0  0  0  0  0  0
   -1.1923    2.1686    0.1489 H   0  0  0  0  0  0  0  0  0  0  0  0
    0.4741    2.5229   -0.2954 H   0  0  0  0  0  0  0  0  0  0  0  0
    0.4124    0.8202   -2.0809 H   0  0  0  0  0  0  0  0  0  0  0  0
   -1.2158    0.3525   -1.6619 H   0  0  0  0  0  0  0  0  0  0  0  0
   -1.4564    2.5618   -4.4891 H   0  0  0  0  0  0  0  0  0  0  0  0
    1.0375    2.4967    2.0353 N   0  0  0  0  0  0  0  0  0  0  0  0
    1.4454    3.2573    3.1945 C   0  0  2  0  0  0  0  0  0  0  0  0
    0.2521    4.0809    3.6603 C   0  0  0  0  0  0  0  0  0  0  0  0
   -0.6854    4.3798    2.9234 O   0  0  0  0  0  0  0  0  0  0  0  0
    2.6337    4.1523    2.8790 C   0  0  0  0  0  0  0  0  0  0  0  0
    1.1004    2.9371    1.1223 H   0  0  0  0  0  0  0  0  0  0  0  0
    1.7143    2.5319    3.9701 H   0  0  0  0  0  0  0  0  0  0  0  0
    2.3833    4.8858    2.1038 H   0  0  0  0  0  0  0  0  0  0  0  0
    2.9595    4.7065    3.7654 H   0  0  0  0  0  0  0  0  0  0  0  0
    3.4813    3.5612    2.5158 H   0  0  0  0  0  0  0  0  0  0  0  0
    0.3777    4.4796    4.9837 N   0  0  0  0  0  0  0  0  0  0  0  0
   -0.6188    5.2815    5.6544 C   0  0  0  0  0  0  0  0  0  0  0  0
    1.1796    4.1699    5.5249 H   0  0  0  0  0  0  0  0  0  0  0  0
   -0.3594    6.3461    5.5576 H   0  0  0  0  0  0  0  0  0  0  0  0
   -1.6029    5.1011    5.1973 H   0  0  0  0  0  0  0  0  0  0  0  0
   -0.6535    5.0080    6.7193 H   0  0  0  0  0  0  0  0  0  0  0  0
  1  3  1  0  0  0  0
  1  7  1  0  0  0  0
  1  2  2  0  0  0  0
 34 35  1  0  0  0  0
 35 43  1  0  0  0  0
 35 36  2  0  0  0  0
  8  9  1  0  0  0  0
  9 17  1  0  0  0  0
  9 10  2  0  0  0  0
 18 19  1  0  0  0  0
 19 33  1  0  0  0  0
 19 20  2  0  0  0  0
 22 23  1  0  0  0  0
 23 24  2  0  0  0  0
 23 25  1  0  0  0  0
 34 37  1  0  0  0  0
  8 11  1  0  0  0  0
 43 44  1  0  0  0  0
 21 22  1  0  0  0  0
 18 21  1  0  0  0  0
 33 34  1  0  0  0  0
  7  8  1  0  0  0  0
 17 18  1  0  0  0  0
  3  4  1  0  0  0  0
  3  5  1  0  0  0  0
  3  6  1  0  0  0  0
 37 40  1  0  0  0  0
 37 41  1  0  0  0  0
 37 42  1  0  0  0  0
 11 14  1  0  0  0  0
 11 15  1  0  0  0  0
 11 16  1  0  0  0  0
 44 46  1  0  0  0  0
 44 47  1  0  0  0  0
 44 48  1  0  0  0  0
 22 30  1  0  0  0  0
 22 31  1  0  0  0  0
 21 28  1  0  0  0  0
 21 29  1  0  0  0  0
 34 39  1  0  0  0  0
  8 13  1  0  0  0  0
 18 27  1  0  0  0  0
 43 45  1  0  0  0  0
  7 12  1  0  0  0  0
 33 38  1  0  0  0  0
 17 26  1  0  0  0  0
 25 32  1  0  0  0  0
M  END
$$$$

  -OEChem-05262214473D

 48 47  0     1  0  0  0  0  0999 V2000
   -5.5827   -1.3473    1.4591 C   0  0  0  0  0  0  0  0  0  0  0  0
   -5.7053   -2.4696    0.9825 O   0  0  0  0  0  0  0  0  0  0  0  0
   -6.7879   -0.6277    1.9670 C   0  0  0  0  0  0  0  0  0  0  0  0
   -7.2718   -0.0164    1.1885 H   0  0  0  0  0  0  0  0  0  0  0  0
   -7.5699   -1.3171    2.3239 H   0  0  0  0  0  0  0  0  0  0  0  0
   -6.6057    0.0628    2.8060 H   0  0  0  0  0  0  0  0  0  0  0  0
   -4.4001   -0.6377    1.5884 N   0  0  0  0  0  0  0  0  0  0  0  0
   -3.1220   -1.1455    1.1644 C   0  0  2  0  0  0  0  0  0  0  0  0
   -2.2017    0.0428    0.9187 C   0  0  0  0  0  0  0  0  0  0  0  0
   -2.6171    1.1750    0.6807 O   0  0  0  0  0  0  0  0  0  0  0  0
   -3.2533   -1.9992   -0.0873 C   0  0  0  0  0  0  0  0  0  0  0  0
   -4.4370    0.2910    2.0047 H   0  0  0  0  0  0  0  0  0  0  0  0
   -2.7302   -1.7467    1.9921 H   0  0  0  0  0  0  0  0  0  0  0  0
   -3.6446   -1.4140   -0.9275 H   0  0  0  0  0  0  0  0  0  0  0  0
   -2.2844   -2.4081   -0.3922 H   0  0  0  0  0  0  0  0  0  0  0  0
   -3.9388   -2.8365    0.0822 H   0  0  0  0  0  0  0  0  0  0  0  0
   -0.8768   -0.3314    0.9568 N   0  0  0  0  0  0  0  0  0  0  0  0
    0.2067    0.6285    0.7375 C   0  0  2  0  0  0  0  0  0  0  0  0
    0.5644    1.1949    2.1082 C   0  0  0  0  0  0  0  0  0  0  0  0
    0.7202    0.4819    3.0976 O   0  0  0  0  0  0  0  0  0  0  0  0
   -0.2688    1.7165   -0.2369 C   0  0  0  0  0  0  0  0  0  0  0  0
   -0.5233    1.2006   -1.6531 C   0  0  0  0  0  0  0  0  0  0  0  0
   -1.0112    2.2925   -2.5723 C   0  0  0  0  0  0  0  0  0  0  0  0
   -1.2993    3.4216   -2.1963 O   0  0  0  0  0  0  0  0  0  0  0  0
   -1.1239    1.8860   -3.8609 O   0  0  0  0  0  0  0  0  0  0  0  0
   -0.6087   -1.2764    1.1771 H   0  0  0  0  0  0  0  0  0  0  0  0
    1.0610    0.0940    0.3093 H   0  0  0  0  0  0  0  0  0  0  0  0
   -1.1923    2.1686    0.1489 H   0  0  0  0  0  0  0  0  0  0  0  0
    0.4741    2.5229   -0.2954 H   0  0  0  0  0  0  0  0  0  0  0  0
    0.4124    0.8202   -2.0809 H   0  0  0  0  0  0  0  0  0  0  0  0
   -1.2158    0.3525   -1.6619 H   0  0  0  0  0  0  0  0  0  0  0  0
   -1.4564    2.5618   -4.4891 H   0  0  0  0  0  0  0  0  0  0  0  0
    0.7159    2.5735    2.0875 N   0  0  0  0  0  0  0  0  0  0  0  0
    1.0557    3.3506    3.2577 C   0  0  2  0  0  0  0  0  0  0  0  0
   -0.2402    3.8460    3.8858 C   0  0  0  0  0  0  0  0  0  0  0  0
   -1.2921    3.9516    3.2587 O   0  0  0  0  0  0  0  0  0  0  0  0
    1.9677    4.5148    2.9031 C   0  0  0  0  0  0  0  0  0  0  0  0
    0.5814    3.0607    1.2067 H   0  0  0  0  0  0  0  0  0  0  0  0
    1.5626    2.6716    3.9520 H   0  0  0  0  0  0  0  0  0  0  0  0
    1.4770    5.2059    2.2081 H   0  0  0  0  0  0  0  0  0  0  0  0
    2.2473    5.0856    3.7947 H   0  0  0  0  0  0  0  0  0  0  0  0
    2.8863    4.1585    2.4243 H   0  0  0  0  0  0  0  0  0  0  0  0
   -0.0734    4.1973    5.2181 N   0  0  0  0  0  0  0  0  0  0  0  0
   -1.1527    4.7079    6.0307 C   0  0  0  0  0  0  0  0  0  0  0  0
    0.8296    4.0588    5.6621 H   0  0  0  0  0  0  0  0  0  0  0  0
   -1.1561    5.8071    5.9883 H   0  0  0  0  0  0  0  0  0  0  0  0
   -2.1109    4.3235    5.6511 H   0  0  0  0  0  0  0  0  0  0  0  0
   -1.0135    4.3817    7.0720 H   0  0  0  0  0  0  0  0  0  0  0  0
  1  3  1  0  0  0  0
  1  7  1  0  0  0  0
  1  2  2  0  0  0  0
 34 35  1  0  0  0  0
 35 43  1  0  0  0  0
 35 36  2  0  0  0  0
  8  9  1  0  0  0  0
  9 17  1  0  0  0  0
  9 10  2  0  0  0  0
 18 19  1  0  0  0  0
 19 33  1  0  0  0  0
 19 20  2  0  0  0  0
 22 23  1  0  0  0  0
 23 24  2  0  0  0  0
 23 25  1  0  0  0  0
 34 37  1  0  0  0  0
  8 11  1  0  0  0  0
 43 44  1  0  0  0  0
 21 22  1  0  0  0  0
 18 21  1  0  0  0  0
 33 34  1  0  0  0  0
  7  8  1  0  0  0  0
 17 18  1  0  0  0  0
  3  4  1  0  0  0  0
  3  5  1  0  0  0  0
  3  6  1  0  0  0  0
 37 40  1  0  0  0  0
 37 41  1  0  0  0  0
 37 42  1  0  0  0  0
 11 14  1  0  0  0  0
 11 15  1  0  0  0  0
 11 16  1  0  0  0  0
 44 46  1  0  0  0  0
 44 47  1  0  0  0  0
 44 48  1  0  0  0  0
 22 30  1  0  0  0  0
 22 31  1  0  0  0  0
 21 28  1  0  0  0  0
 21 29  1  0  0  0  0
 34 39  1  0  0  0  0
  8 13  1  0  0  0  0
 18 27  1  0  0  0  0
 43 45  1  0  0  0  0
  7 12  1  0  0  0  0
 33 38  1  0  0  0  0
 17 26  1  0  0  0  0
 25 32  1  0  0  0  0
M  END
$$$$

  -OEChem-05262214473D

 48 47  0     1  0  0  0  0  0999 V2000
   -5.5827   -1.3473    1.4591 C   0  0  0  0  0  0  0  0  0  0  0  0
   -5.7053   -2.4696    0.9825 O   0  0  0  0  0  0  0  0  0  0  0  0
   -6.7879   -0.6277    1.9670 C   0  0  0  0  0  0  0  0  0  0  0  0
   -7.2718   -0.0164    1.1885 H   0  0  0  0  0  0  0  0  0  0  0  0
   -7.5699   -1.3171    2.3239 H   0  0  0  0  0  0  0  0  0  0  0  0
   -6.6057    0.0628    2.8060 H   0  0  0  0  0  0  0  0  0  0  0  0
   -4.4001   -0.6377    1.5884 N   0  0  0  0  0  0  0  0  0  0  0  0
   -3.1220   -1.1455    1.1644 C   0  0  2  0  0  0  0  0  0  0  0  0
   -2.2017    0.0428    0.9187 C   0  0  0  0  0  0  0  0  0  0  0  0
   -2.6171    1.1750    0.6807 O   0  0  0  0  0  0  0  0  0  0  0  0
   -3.2533   -1.9992   -0.0873 C   0  0  0  0  0  0  0  0  0  0  0  0
   -4.4370    0.2910    2.0047 H   0  0  0  0  0  0  0  0  0  0  0  0
   -2.7302   -1.7467    1.9921 H   0  0  0  0  0  0  0  0  0  0  0  0
   -3.6446   -1.4140   -0.9275 H   0  0  0  0  0  0  0  0  0  0  0  0
   -2.2844   -2.4081   -0.3922 H   0  0  0  0  0  0  0  0  0  0  0  0
   -3.9388   -2.8365    0.0822 H   0  0  0  0  0  0  0  0  0  0  0  0
   -0.8768   -0.3314    0.9568 N   0  0  0  0  0  0  0  0  0  0  0  0
    0.2067    0.6285    0.7375 C   0  0  2  0  0  0  0  0  0  0  0  0
    0.5644    1.1949    2.1082 C   0  0  0  0  0  0  0  0  0  0  0  0
    0.9810    0.4907    3.0259 O   0  0  0  0  0  0  0  0  0  0  0  0
   -0.2688    1.7165   -0.2369 C   0  0  0  0  0  0  0  0  0  0  0  0
   -0.5233    1.2006   -1.6531 C   0  0  0  0  0  0  0  0  0  0  0  0
   -1.0112    2.2925   -2.5723 C   0  0  0  0  0  0  0  0  0  0  0  0
   -1.2993    3.4216   -2.1963 O   0  0  0  0  0  0  0  0  0  0  0  0
   -1.1239    1.8860   -3.8609 O   0  0  0  0  0  0  0  0  0  0  0  0
   -0.6087   -1.2764    1.1771 H   0  0  0  0  0  0  0  0  0  0  0  0
    1.0610    0.0940    0.3093 H   0  0  0  0  0  0  0  0  0  0  0  0
   -1.1923    2.1686    0.1489 H   0  0  0  0  0  0  0  0  0  0  0  0
    0.4741    2.5229   -0.2954 H   0  0  0  0  0  0  0  0  0  0  0  0
    0.4124    0.8202   -2.0809 H   0  0  0  0  0  0  0  0  0  0  0  0
   -1.2158    0.3525   -1.6619 H   0  0  0  0  0  0  0  0  0  0  0  0
   -1.4564    2.5618   -4.4891 H   0  0  0  0  0  0  0  0  0  0  0  0
    0.3924    2.5697    2.1735 N   0  0  0  0  0  0  0  0  0  0  0  0
    0.6637    3.3463    3.3618 C   0  0  2  0  0  0  0  0  0  0  0  0
   -0.6394    3.4910    4.1367 C   0  0  0  0  0  0  0  0  0  0  0  0
   -1.7464    3.3767    3.6148 O   0  0  0  0  0  0  0  0  0  0  0  0
    1.2425    4.7085    3.0123 C   0  0  0  0  0  0  0  0  0  0  0  0
    0.0594    3.0544    1.3455 H   0  0  0  0  0  0  0  0  0  0  0  0
    1.3818    2.7724    3.9576 H   0  0  0  0  0  0  0  0  0  0  0  0
    0.5371    5.2981    2.4153 H   0  0  0  0  0  0  0  0  0  0  0  0
    1.4740    5.2845    3.9143 H   0  0  0  0  0  0  0  0  0  0  0  0
    2.1638    4.6026    2.4294 H   0  0  0  0  0  0  0  0  0  0  0  0
   -0.4211    3.8055    5.4707 N   0  0  0  0  0  0  0  0  0  0  0  0
   -1.4989    4.0068    6.4108 C   0  0  0  0  0  0  0  0  0  0  0  0
    0.5305    3.8618    5.8216 H   0  0  0  0  0  0  0  0  0  0  0  0
   -1.7589    5.0750    6.4481 H   0  0  0  0  0  0  0  0  0  0  0  0
   -2.3772    3.4268    6.0911 H   0  0  0  0  0  0  0  0  0  0  0  0
   -1.1818    3.6717    7.4093 H   0  0  0  0  0  0  0  0  0  0  0  0
  1  3  1  0  0  0  0
  1  7  1  0  0  0  0
  1  2  2  0  0  0  0
 34 35  1  0  0  0  0
 35 43  1  0  0  0  0
 35 36  2  0  0  0  0
  8  9  1  0  0  0  0
  9 17  1  0  0  0  0
  9 10  2  0  0  0  0
 18 19  1  0  0  0  0
 19 33  1  0  0  0  0
 19 20  2  0  0  0  0
 22 23  1  0  0  0  0
 23 24  2  0  0  0  0
 23 25  1  0  0  0  0
 34 37  1  0  0  0  0
  8 11  1  0  0  0  0
 43 44  1  0  0  0  0
 21 22  1  0  0  0  0
 18 21  1  0  0  0  0
 33 34  1  0  0  0  0
  7  8  1  0  0  0  0
 17 18  1  0  0  0  0
  3  4  1  0  0  0  0
  3  5  1  0  0  0  0
  3  6  1  0  0  0  0
 37 40  1  0  0  0  0
 37 41  1  0  0  0  0
 37 42  1  0  0  0  0
 11 14  1  0  0  0  0
 11 15  1  0  0  0  0
 11 16  1  0  0  0  0
 44 46  1  0  0  0  0
 44 47  1  0  0  0  0
 44 48  1  0  0  0  0
 22 30  1  0  0  0  0
 22 31  1  0  0  0  0
 21 28  1  0  0  0  0
 21 29  1  0  0  0  0
 34 39  1  0  0  0  0
  8 13  1  0  0  0  0
 18 27  1  0  0  0  0
 43 45  1  0  0  0  0
  7 12  1  0  0  0  0
 33 38  1  0  0  0  0
 17 26  1  0  0  0  0
 25 32  1  0  0  0  0
M  END
$$$$

  -OEChem-05262214473D

 48 47  0     1  0  0  0  0  0999 V2000
   -5.5827   -1.3473    1.4591 C   0  0  0  0  0  0  0  0  0  0  0  0
   -5.7053   -2.4696    0.9825 O   0  0  0  0  0  0  0  0  0  0  0  0
   -6.7879   -0.6277    1.9670 C   0  0  0  0  0  0  0  0  0  0  0  0
   -7.2718   -0.0164    1.1885 H   0  0  0  0  0  0  0  0  0  0  0  0
   -7.5699   -1.3171    2.3239 H   0  0  0  0  0  0  0  0  0  0  0  0
   -6.6057    0.0628    2.8060 H   0  0  0  0  0  0  0  0  0  0  0  0
   -4.4001   -0.6377    1.5884 N   0  0  0  0  0  0  0  0  0  0  0  0
   -3.1220   -1.1455    1.1644 C   0  0  2  0  0  0  0  0  0  0  0  0
   -2.2017    0.0428    0.9187 C   0  0  0  0  0  0  0  0  0  0  0  0
   -2.6171    1.1750    0.6807 O   0  0  0  0  0  0  0  0  0  0  0  0
   -3.2533   -1.9992   -0.0873 C   0  0  0  0  0  0  0  0  0  0  0  0
   -4.4370    0.2910    2.0047 H   0  0  0  0  0  0  0  0  0  0  0  0
   -2.7302   -1.7467    1.9921 H   0  0  0  0  0  0  0  0  0  0  0  0
   -3.6446   -1.4140   -0.9275 H   0  0  0  0  0  0  0  0  0  0  0  0
   -2.2844   -2.4081   -0.3922 H   0  0  0  0  0  0  0  0  0  0  0  0
   -3.9388   -2.8365    0.0822 H   0  0  0  0  0  0  0  0  0  0  0  0
   -0.8768   -0.3314    0.9568 N   0  0  0  0  0  0  0  0  0  0  0  0
    0.2067    0.6285    0.7375 C   0  0  2  0  0  0  0  0  0  0  0  0
    0.5644    1.1949    2.1082 C   0  0  0  0  0  0  0  0  0  0  0  0
    1.2240    0.5642    2.9321 O   0  0  0  0  0  0  0  0  0  0  0  0
   -0.2688    1.7165   -0.2369 C   0  0  0  0  0  0  0  0  0  0  0  0
   -0.5233    1.2006   -1.6531 C   0  0  0  0  0  0  0  0  0  0  0  0
   -1.0112    2.2925   -2.5723 C   0  0  0  0  0  0  0  0  0  0  0  0
   -1.2993    3.4216   -2.1963 O   0  0  0  0  0  0  0  0  0  0  0  0
   -1.1239    1.8860   -3.8609 O   0  0  0  0  0  0  0  0  0  0  0  0
   -0.6087   -1.2764    1.1771 H   0  0  0  0  0  0  0  0  0  0  0  0
    1.0610    0.0940    0.3093 H   0  0  0  0  0  0  0  0  0  0  0  0
   -1.1923    2.1686    0.1489 H   0  0  0  0  0  0  0  0  0  0  0  0
    0.4741    2.5229   -0.2954 H   0  0  0  0  0  0  0  0  0  0  0  0
    0.4124    0.8202   -2.0809 H   0  0  0  0  0  0  0  0  0  0  0  0
   -1.2158    0.3525   -1.6619 H   0  0  0  0  0  0  0  0  0  0  0  0
   -1.4564    2.5618   -4.4891 H   0  0  0  0  0  0  0  0  0  0  0  0
    0.0891    2.4855    2.2874 N   0  0  0  0  0  0  0  0  0  0  0  0
    0.2960    3.2446    3.4997 C   0  0  2  0  0  0  0  0  0  0  0  0
   -0.9183    3.0400    4.3958 C   0  0  0  0  0  0  0  0  0  0  0  0
   -2.0174    2.6941    3.9675 O   0  0  0  0  0  0  0  0  0  0  0  0
    0.5073    4.7203    3.1993 C   0  0  0  0  0  0  0  0  0  0  0  0
   -0.4300    2.9184    1.5294 H   0  0  0  0  0  0  0  0  0  0  0  0
    1.1843    2.8273    3.9864 H   0  0  0  0  0  0  0  0  0  0  0  0
   -0.3723    5.1559    2.7114 H   0  0  0  0  0  0  0  0  0  0  0  0
    0.6924    5.2894    4.1163 H   0  0  0  0  0  0  0  0  0  0  0  0
    1.3631    4.8633    2.5306 H   0  0  0  0  0  0  0  0  0  0  0  0
   -0.6415    3.3308    5.7243 N   0  0  0  0  0  0  0  0  0  0  0  0
   -1.6338    3.2260    6.7685 C   0  0  0  0  0  0  0  0  0  0  0  0
    0.3028    3.5923    5.9923 H   0  0  0  0  0  0  0  0  0  0  0  0
   -2.1267    4.1998    6.9057 H   0  0  0  0  0  0  0  0  0  0  0  0
   -2.3836    2.4720    6.4872 H   0  0  0  0  0  0  0  0  0  0  0  0
   -1.1468    2.9262    7.7082 H   0  0  0  0  0  0  0  0  0  0  0  0
  1  3  1  0  0  0  0
  1  7  1  0  0  0  0
  1  2  2  0  0  0  0
 34 35  1  0  0  0  0
 35 43  1  0  0  0  0
 35 36  2  0  0  0  0
  8  9  1  0  0  0  0
  9 17  1  0  0  0  0
  9 10  2  0  0  0  0
 18 19  1  0  0  0  0
 19 33  1  0  0  0  0
 19 20  2  0  0  0  0
 22 23  1  0  0  0  0
 23 24  2  0  0  0  0
 23 25  1  0  0  0  0
 34 37  1  0  0  0  0
  8 11  1  0  0  0  0
 43 44  1  0  0  0  0
 21 22  1  0  0  0  0
 18 21  1  0  0  0  0
 33 34  1  0  0  0  0
  7  8  1  0  0  0  0
 17 18  1  0  0  0  0
  3  4  1  0  0  0  0
  3  5  1  0  0  0  0
  3  6  1  0  0  0  0
 37 40  1  0  0  0  0
 37 41  1  0  0  0  0
 37 42  1  0  0  0  0
 11 14  1  0  0  0  0
 11 15  1  0  0  0  0
 11 16  1  0  0  0  0
 44 46  1  0  0  0  0
 44 47  1  0  0  0  0
 44 48  1  0  0  0  0
 22 30  1  0  0  0  0
 22 31  1  0  0  0  0
 21 28  1  0  0  0  0
 21 29  1  0  0  0  0
 34 39  1  0  0  0  0
  8 13  1  0  0  0  0
 18 27  1  0  0  0  0
 43 45  1  0  0  0  0
  7 12  1  0  0  0  0
 33 38  1  0  0  0  0
 17 26  1  0  0  0  0
 25 32  1  0  0  0  0
M  END
$$$$

  -OEChem-05262214473D

 48 47  0     1  0  0  0  0  0999 V2000
   -5.5827   -1.3473    1.4591 C   0  0  0  0  0  0  0  0  0  0  0  0
   -5.7053   -2.4696    0.9825 O   0  0  0  0  0  0  0  0  0  0  0  0
   -6.7879   -0.6277    1.9670 C   0  0  0  0  0  0  0  0  0  0  0  0
   -7.2718   -0.0164    1.1885 H   0  0  0  0  0  0  0  0  0  0  0  0
   -7.5699   -1.3171    2.3239 H   0  0  0  0  0  0  0  0  0  0  0  0
   -6.6057    0.0628    2.8060 H   0  0  0  0  0  0  0  0  0  0  0  0
   -4.4001   -0.6377    1.5884 N   0  0  0  0  0  0  0  0  0  0  0  0
   -3.1220   -1.1455    1.1644 C   0  0  2  0  0  0  0  0  0  0  0  0
   -2.2017    0.0428    0.9187 C   0  0  0  0  0  0  0  0  0  0  0  0
   -2.6171    1.1750    0.6807 O   0  0  0  0  0  0  0  0  0  0  0  0
   -3.2533   -1.9992   -0.0873 C   0  0  0  0  0  0  0  0  0  0  0  0
   -4.4370    0.2910    2.0047 H   0  0  0  0  0  0  0  0  0  0  0  0
   -2.7302   -1.7467    1.9921 H   0  0  0  0  0  0  0  0  0  0  0  0
   -3.6446   -1.4140   -0.9275 H   0  0  0  0  0  0  0  0  0  0  0  0
   -2.2844   -2.4081   -0.3922 H   0  0  0  0  0  0  0  0  0  0  0  0
   -3.9388   -2.8365    0.0822 H   0  0  0  0  0  0  0  0  0  0  0  0
   -0.8768   -0.3314    0.9568 N   0  0  0  0  0  0  0  0  0  0  0  0
    0.2067    0.6285    0.7375 C   0  0  2  0  0  0  0  0  0  0  0  0
    0.5644    1.1949    2.1082 C   0  0  0  0  0  0  0  0  0  0  0  0
    1.4326    0.6974    2.8226 O   0  0  0  0  0  0  0  0  0  0  0  0
   -0.2688    1.7165   -0.2369 C   0  0  0  0  0  0  0  0  0  0  0  0
   -0.5233    1.2006   -1.6531 C   0  0  0  0  0  0  0  0  0  0  0  0
   -1.0112    2.2925   -2.5723 C   0  0  0  0  0  0  0  0  0  0  0  0
   -1.2993    3.4216   -2.1963 O   0  0  0  0  0  0  0  0  0  0  0  0
   -1.1239    1.8860   -3.8609 O   0  0  0  0  0  0  0  0  0  0  0  0
   -0.6087   -1.2764    1.1771 H   0  0  0  0  0  0  0  0  0  0  0  0
    1.0610    0.0940    0.3093 H   0  0  0  0  0  0  0  0  0  0  0  0
   -1.1923    2.1686    0.1489 H   0  0  0  0  0  0  0  0  0  0  0  0
    0.4741    2.5229   -0.2954 H   0  0  0  0  0  0  0  0  0  0  0  0
    0.4124    0.8202   -2.0809 H   0  0  0  0  0  0  0  0  0  0  0  0
   -1.2158    0.3525   -1.6619 H   0  0  0  0  0  0  0  0  0  0  0  0
   -1.4564    2.5618   -4.4891 H   0  0  0  0  0  0  0  0  0  0  0  0
   -0.1734    2.3268    2.4215 N   0  0  0  0  0  0  0  0  0  0  0  0
   -0.0222    3.0526    3.6621 C   0  0  2  0  0  0  0  0  0  0  0  0
   -1.0579    2.5237    4.6456 C   0  0  0  0  0  0  0  0  0  0  0  0
   -2.0864    1.9503    4.2928 O   0  0  0  0  0  0  0  0  0  0  0  0
   -0.1875    4.5495    3.4512 C   0  0  0  0  0  0  0  0  0  0  0  0
   -0.8534    2.6622    1.7458 H   0  0  0  0  0  0  0  0  0  0  0  0
    0.9835    2.8327    4.0366 H   0  0  0  0  0  0  0  0  0  0  0  0
   -1.1892    4.7892    3.0761 H   0  0  0  0  0  0  0  0  0  0  0  0
   -0.0444    5.1002    4.3867 H   0  0  0  0  0  0  0  0  0  0  0  0
    0.5388    4.9228    2.7212 H   0  0  0  0  0  0  0  0  0  0  0  0
   -0.7196    2.8057    5.9617 N   0  0  0  0  0  0  0  0  0  0  0  0
   -1.5481    2.4188    7.0797 C   0  0  0  0  0  0  0  0  0  0  0  0
    0.1618    3.2687    6.1628 H   0  0  0  0  0  0  0  0  0  0  0  0
   -2.2346    3.2411    7.3299 H   0  0  0  0  0  0  0  0  0  0  0  0
   -2.1298    1.5242    6.8126 H   0  0  0  0  0  0  0  0  0  0  0  0
   -0.9110    2.1961    7.9483 H   0  0  0  0  0  0  0  0  0  0  0  0
  1  3  1  0  0  0  0
  1  7  1  0  0  0  0
  1  2  2  0  0  0  0
 34 35  1  0  0  0  0
 35 43  1  0  0  0  0
 35 36  2  0  0  0  0
  8  9  1  0  0  0  0
  9 17  1  0  0  0  0
  9 10  2  0  0  0  0
 18 19  1  0  0  0  0
 19 33  1  0  0  0  0
 19 20  2  0  0  0  0
 22 23  1  0  0  0  0
 23 24  2  0  0  0  0
 23 25  1  0  0  0  0
 34 37  1  0  0  0  0
  8 11  1  0  0  0  0
 43 44  1  0  0  0  0
 21 22  1  0  0  0  0
 18 21  1  0  0  0  0
 33 34  1  0  0  0  0
  7  8  1  0  0  0  0
 17 18  1  0  0  0  0
  3  4  1  0  0  0  0
  3  5  1  0  0  0  0
  3  6  1  0  0  0  0
 37 40  1  0  0  0  0
 37 41  1  0  0  0  0
 37 42  1  0  0  0  0
 11 14  1  0  0  0  0
 11 15  1  0  0  0  0
 11 16  1  0  0  0  0
 44 46  1  0  0  0  0
 44 47  1  0  0  0  0
 44 48  1  0  0  0  0
 22 30  1  0  0  0  0
 22 31  1  0  0  0  0
 21 28  1  0  0  0  0
 21 29  1  0  0  0  0
 34 39  1  0  0  0  0
  8 13  1  0  0  0  0
 18 27  1  0  0  0  0
 43 45  1  0  0  0  0
  7 12  1  0  0  0  0
 33 38  1  0  0  0  0
 17 26  1  0  0  0  0
 25 32  1  0  0  0  0
M  END
$$$$

  -OEChem-05262214473D

 48 47  0     1  0  0  0  0  0999 V2000
   -5.5827   -1.3473    1.4591 C   0  0  0  0  0  0  0  0  0  0  0  0
   -5.7053   -2.4696    0.9825 O   0  0  0  0  0  0  0  0  0  0  0  0
   -6.7879   -0.6277    1.9670 C   0  0  0  0  0  0  0  0  0  0  0  0
   -7.2718   -0.0164    1.1885 H   0  0  0  0  0  0  0  0  0  0  0  0
   -7.5699   -1.3171    2.3239 H   0  0  0  0  0  0  0  0  0  0  0  0
   -6.6057    0.0628    2.8060 H   0  0  0  0  0  0  0  0  0  0  0  0
   -4.4001   -0.6377    1.5884 N   0  0  0  0  0  0  0  0  0  0  0  0
   -3.1220   -1.1455    1.1644 C   0  0  2  0  0  0  0  0  0  0  0  0
   -2.2017    0.0428    0.9187 C   0  0  0  0  0  0  0  0  0  0  0  0
   -2.6171    1.1750    0.6807 O   0  0  0  0  0  0  0  0  0  0  0  0
   -3.2533   -1.9992   -0.0873 C   0  0  0  0  0  0  0  0  0  0  0  0
   -4.4370    0.2910    2.0047 H   0  0  0  0  0  0  0  0  0  0  0  0
   -2.7302   -1.7467    1.9921 H   0  0  0  0  0  0  0  0  0  0  0  0
   -3.6446   -1.4140   -0.9275 H   0  0  0  0  0  0  0  0  0  0  0  0
   -2.2844   -2.4081   -0.3922 H   0  0  0  0  0  0  0  0  0  0  0  0
   -3.9388   -2.8365    0.0822 H   0  0  0  0  0  0  0  0  0  0  0  0
   -0.8768   -0.3314    0.9568 N   0  0  0  0  0  0  0  0  0  0  0  0
    0.2067    0.6285    0.7375 C   0  0  2  0  0  0  0  0  0  0  0  0
    0.5644    1.1949    2.1082 C   0  0  0  0  0  0  0  0  0  0  0  0
    1.5926    0.8813    2.7049 O   0  0  0  0  0  0  0  0  0  0  0  0
   -0.2688    1.7165   -0.2369 C   0  0  0  0  0  0  0  0  0  0  0  0
   -0.5233    1.2006   -1.6531 C   0  0  0  0  0  0  0  0  0  0  0  0
   -1.0112    2.2925   -2.5723 C   0  0  0  0  0  0  0  0  0  0  0  0
   -1.2993    3.4216   -2.1963 O   0  0  0  0  0  0  0  0  0  0  0  0
   -1.1239    1.8860   -3.8609 O   0  0  0  0  0  0  0  0  0  0  0  0
   -0.6087   -1.2764    1.1771 H   0  0  0  0  0  0  0  0  0  0  0  0
    1.0610    0.0940    0.3093 H   0  0  0  0  0  0  0  0  0  0  0  0
   -1.1923    2.1686    0.1489 H   0  0  0  0  0  0  0  0  0  0  0  0
    0.4741    2.5229   -0.2954 H   0  0  0  0  0  0  0  0  0  0  0  0
    0.4124    0.8202   -2.0809 H   0  0  0  0  0  0  0  0  0  0  0  0
   -1.2158    0.3525   -1.6619 H   0  0  0  0  0  0  0  0  0  0  0  0
   -1.4564    2.5618   -4.4891 H   0  0  0  0  0  0  0  0  0  0  0  0
   -0.3772    2.1044    2.5666 N   0  0  0  0  0  0  0  0  0  0  0  0
   -0.2693    2.7832    3.8379 C   0  0  2  0  0  0  0  0  0  0  0  0
   -1.0488    1.9775    4.8689 C   0  0  0  0  0  0  0  0  0  0  0  0
   -1.9489    1.1961    4.5686 O   0  0  0  0  0  0  0  0  0  0  0  0
   -0.7948    4.2076    3.7509 C   0  0  0  0  0  0  0  0  0  0  0  0
   -1.1820    2.3030    1.9800 H   0  0  0  0  0  0  0  0  0  0  0  0
    0.7931    2.7881    4.1047 H   0  0  0  0  0  0  0  0  0  0  0  0
   -1.8580    4.2229    3.4846 H   0  0  0  0  0  0  0  0  0  0  0  0
   -0.6861    4.7297    4.7073 H   0  0  0  0  0  0  0  0  0  0  0  0
   -0.2529    4.7770    2.9881 H   0  0  0  0  0  0  0  0  0  0  0  0
   -0.6502    2.2659    6.1666 N   0  0  0  0  0  0  0  0  0  0  0  0
   -1.2478    1.6401    7.3230 C   0  0  0  0  0  0  0  0  0  0  0  0
    0.1173    2.9130    6.3214 H   0  0  0  0  0  0  0  0  0  0  0  0
   -2.0751    2.2643    7.6918 H   0  0  0  0  0  0  0  0  0  0  0  0
   -1.6329    0.6480    7.0449 H   0  0  0  0  0  0  0  0  0  0  0  0
   -0.4903    1.5311    8.1132 H   0  0  0  0  0  0  0  0  0  0  0  0
  1  3  1  0  0  0  0
  1  7  1  0  0  0  0
  1  2  2  0  0  0  0
 34 35  1  0  0  0  0
 35 43  1  0  0  0  0
 35 36  2  0  0  0  0
  8  9  1  0  0  0  0
  9 17  1  0  0  0  0
  9 10  2  0  0  0  0
 18 19  1  0  0  0  0
 19 33  1  0  0  0  0
 19 20  2  0  0  0  0
 22 23  1  0  0  0  0
 23 24  2  0  0  0  0
 23 25  1  0  0  0  0
 34 37  1  0  0  0  0
  8 11  1  0  0  0  0
 43 44  1  0  0  0  0
 21 22  1  0  0  0  0
 18 21  1  0  0  0  0
 33 34  1  0  0  0  0
  7  8  1  0  0  0  0
 17 18  1  0  0  0  0
  3  4  1  0  0  0  0
  3  5  1  0  0  0  0
  3  6  1  0  0  0  0
 37 40  1  0  0  0  0
 37 41  1  0  0  0  0
 37 42  1  0  0  0  0
 11 14  1  0  0  0  0
 11 15  1  0  0  0  0
 11 16  1  0  0  0  0
 44 46  1  0  0  0  0
 44 47  1  0  0  0  0
 44 48  1  0  0  0  0
 22 30  1  0  0  0  0
 22 31  1  0  0  0  0
 21 28  1  0  0  0  0
 21 29  1  0  0  0  0
 34 39  1  0  0  0  0
  8 13  1  0  0  0  0
 18 27  1  0  0  0  0
 43 45  1  0  0  0  0
  7 12  1  0  0  0  0
 33 38  1  0  0  0  0
 17 26  1  0  0  0  0
 25 32  1  0  0  0  0
M  END
$$$$

  -OEChem-05262214473D

 48 47  0     1  0  0  0  0  0999 V2000
   -5.5827   -1.3473    1.4591 C   0  0  0  0  0  0  0  0  0  0  0  0
   -5.7053   -2.4696    0.9825 O   0  0  0  0  0  0  0  0  0  0  0  0
   -6.7879   -0.6277    1.9670 C   0  0  0  0  0  0  0  0  0  0  0  0
   -7.2718   -0.0164    1.1885 H   0  0  0  0  0  0  0  0  0  0  0  0
   -7.5699   -1.3171    2.3239 H   0  0  0  0  0  0  0  0  0  0  0  0
   -6.6057    0.0628    2.8060 H   0  0  0  0  0  0  0  0  0  0  0  0
   -4.4001   -0.6377    1.5884 N   0  0  0  0  0  0  0  0  0  0  0  0
   -3.1220   -1.1455    1.1644 C   0  0  2  0  0  0  0  0  0  0  0  0
   -2.2017    0.0428    0.9187 C   0  0  0  0  0  0  0  0  0  0  0  0
   -2.6171    1.1750    0.6807 O   0  0  0  0  0  0  0  0  0  0  0  0
   -3.2533   -1.9992   -0.0873 C   0  0  0  0  0  0  0  0  0  0  0  0
   -4.4370    0.2910    2.0047 H   0  0  0  0  0  0  0  0  0  0  0  0
   -2.7302   -1.7467    1.9921 H   0  0  0  0  0  0  0  0  0  0  0  0
   -3.6446   -1.4140   -0.9275 H   0  0  0  0  0  0  0  0  0  0  0  0
   -2.2844   -2.4081   -0.3922 H   0  0  0  0  0  0  0  0  0  0  0  0
   -3.9388   -2.8365    0.0822 H   0  0  0  0  0  0  0  0  0  0  0  0
   -0.8768   -0.3314    0.9568 N   0  0  0  0  0  0  0  0  0  0  0  0
    0.2067    0.6285    0.7375 C   0  0  2  0  0  0  0  0  0  0  0  0
    0.5644    1.1949    2.1082 C   0  0  0  0  0  0  0  0  0  0  0  0
    1.6931    1.1032    2.5870 O   0  0  0  0  0  0  0  0  0  0  0  0
   -0.2688    1.7165   -0.2369 C   0  0  0  0  0  0  0  0  0  0  0  0
   -0.5233    1.2006   -1.6531 C   0  0  0  0  0  0  0  0  0  0  0  0
   -1.0112    2.2925   -2.5723 C   0  0  0  0  0  0  0  0  0  0  0  0
   -1.2993    3.4216   -2.1963 O   0  0  0  0  0  0  0  0  0  0  0  0
   -1.1239    1.8860   -3.8609 O   0  0  0  0  0  0  0  0  0  0  0  0
   -0.6087   -1.2764    1.1771 H   0  0  0  0  0  0  0  0  0  0  0  0
    1.0610    0.0940    0.3093 H   0  0  0  0  0  0  0  0  0  0  0  0
   -1.1923    2.1686    0.1489 H   0  0  0  0  0  0  0  0  0  0  0  0
    0.4741    2.5229   -0.2954 H   0  0  0  0  0  0  0  0  0  0  0  0
    0.4124    0.8202   -2.0809 H   0  0  0  0  0  0  0  0  0  0  0  0
   -1.2158    0.3525   -1.6619 H   0  0  0  0  0  0  0  0  0  0  0  0
   -1.4564    2.5618   -4.4891 H   0  0  0  0  0  0  0  0  0  0  0  0
   -0.5083    1.8333    2.7128 N   0  0  0  0  0  0  0  0  0  0  0  0
   -0.4285    2.4548    4.0151 C   0  0  2  0  0  0  0  0  0  0  0  0
   -0.8915    1.4384    5.0505 C   0  0  0  0  0  0  0  0  0  0  0  0
   -1.6142    0.4828    4.7759 O   0  0  0  0  0  0  0  0  0  0  0  0
   -1.2731    3.7180    4.0780 C   0  0  0  0  0  0  0  0  0  0  0  0
   -1.3934    1.8655    2.2159 H   0  0  0  0  0  0  0  0  0  0  0  0
    0.6261    2.6967    4.1860 H   0  0  0  0  0  0  0  0  0  0  0  0
   -2.3330    3.4955    3.9091 H   0  0  0  0  0  0  0  0  0  0  0  0
   -1.1890    4.2032    5.0561 H   0  0  0  0  0  0  0  0  0  0  0  0
   -0.9581    4.4359    3.3130 H   0  0  0  0  0  0  0  0  0  0  0  0
   -0.4379    1.7482    6.3251 N   0  0  0  0  0  0  0  0  0  0  0  0
   -0.7532    0.9430    7.4819 C   0  0  0  0  0  0  0  0  0  0  0  0
    0.1723    2.5494    6.4573 H   0  0  0  0  0  0  0  0  0  0  0  0
   -1.6590    1.3358    7.9669 H   0  0  0  0  0  0  0  0  0  0  0  0
   -0.9269   -0.0969    7.1684 H   0  0  0  0  0  0  0  0  0  0  0  0
    0.0865    0.9766    8.1918 H   0  0  0  0  0  0  0  0  0  0  0  0
  1  3  1  0  0  0  0
  1  7  1  0  0  0  0
  1  2  2  0  0  0  0
 34 35  1  0  0  0  0
 35 43  1  0  0  0  0
 35 36  2  0  0  0  0
  8  9  1  0  0  0  0
  9 17  1  0  0  0  0
  9 10  2  0  0  0  0
 18 19  1  0  0  0  0
 19 33  1  0  0  0  0
 19 20  2  0  0  0  0
 22 23  1  0  0  0  0
 23 24  2  0  0  0  0
 23 25  1  0  0  0  0
 34 37  1  0  0  0  0
  8 11  1  0  0  0  0
 43 44  1  0  0  0  0
 21 22  1  0  0  0  0
 18 21  1  0  0  0  0
 33 34  1  0  0  0  0
  7  8  1  0  0  0  0
 17 18  1  0  0  0  0
  3  4  1  0  0  0  0
  3  5  1  0  0  0  0
  3  6  1  0  0  0  0
 37 40  1  0  0  0  0
 37 41  1  0  0  0  0
 37 42  1  0  0  0  0
 11 14  1  0  0  0  0
 11 15  1  0  0  0  0
 11 16  1  0  0  0  0
 44 46  1  0  0  0  0
 44 47  1  0  0  0  0
 44 48  1  0  0  0  0
 22 30  1  0  0  0  0
 22 31  1  0  0  0  0
 21 28  1  0  0  0  0
 21 29  1  0  0  0  0
 34 39  1  0  0  0  0
  8 13  1  0  0  0  0
 18 27  1  0  0  0  0
 43 45  1  0  0  0  0
  7 12  1  0  0  0  0
 33 38  1  0  0  0  0
 17 26  1  0  0  0  0
 25 32  1  0  0  0  0
M  END
$$$$

  -OEChem-05262214473D

 48 47  0     1  0  0  0  0  0999 V2000
   -5.5827   -1.3473    1.4591 C   0  0  0  0  0  0  0  0  0  0  0  0
   -5.7053   -2.4696    0.9825 O   0  0  0  0  0  0  0  0  0  0  0  0
   -6.7879   -0.6277    1.9670 C   0  0  0  0  0  0  0  0  0  0  0  0
   -7.2718   -0.0164    1.1885 H   0  0  0  0  0  0  0  0  0  0  0  0
   -7.5699   -1.3171    2.3239 H   0  0  0  0  0  0  0  0  0  0  0  0
   -6.6057    0.0628    2.8060 H   0  0  0  0  0  0  0  0  0  0  0  0
   -4.4001   -0.6377    1.5884 N   0  0  0  0  0  0  0  0  0  0  0  0
   -3.1220   -1.1455    1.1644 C   0  0  2  0  0  0  0  0  0  0  0  0
   -2.2017    0.0428    0.9187 C   0  0  0  0  0  0  0  0  0  0  0  0
   -2.6171    1.1750    0.6807 O   0  0  0  0  0  0  0  0  0  0  0  0
   -3.2533   -1.9992   -0.0873 C   0  0  0  0  0  0  0  0  0  0  0  0
   -4.4370    0.2910    2.0047 H   0  0  0  0  0  0  0  0  0  0  0  0
   -2.7302   -1.7467    1.9921 H   0  0  0  0  0  0  0  0  0  0  0  0
   -3.6446   -1.4140   -0.9275 H   0  0  0  0  0  0  0  0  0  0  0  0
   -2.2844   -2.4081   -0.3922 H   0  0  0  0  0  0  0  0  0  0  0  0
   -3.9388   -2.8365    0.0822 H   0  0  0  0  0  0  0  0  0  0  0  0
   -0.8768   -0.3314    0.9568 N   0  0  0  0  0  0  0  0  0  0  0  0
    0.2067    0.6285    0.7375 C   0  0  2  0  0  0  0  0  0  0  0  0
    0.5644    1.1949    2.1082 C   0  0  0  0  0  0  0  0  0  0  0  0
    1.7272    1.3481    2.4769 O   0  0  0  0  0  0  0  0  0  0  0  0
   -0.2688    1.7165   -0.2369 C   0  0  0  0  0  0  0  0  0  0  0  0
   -0.5233    1.2006   -1.6531 C   0  0  0  0  0  0  0  0  0  0  0  0
   -1.0112    2.2925   -2.5723 C   0  0  0  0  0  0  0  0  0  0  0  0
   -1.2993    3.4216   -2.1963 O   0  0  0  0  0  0  0  0  0  0  0  0
   -1.1239    1.8860   -3.8609 O   0  0  0  0  0  0  0  0  0  0  0  0
   -0.6087   -1.2764    1.1771 H   0  0  0  0  0  0  0  0  0  0  0  0
    1.0610    0.0940    0.3093 H   0  0  0  0  0  0  0  0  0  0  0  0
   -1.1923    2.1686    0.1489 H   0  0  0  0  0  0  0  0  0  0  0  0
    0.4741    2.5229   -0.2954 H   0  0  0  0  0  0  0  0  0  0  0  0
    0.4124    0.8202   -2.0809 H   0  0  0  0  0  0  0  0  0  0  0  0
   -1.2158    0.3525   -1.6619 H   0  0  0  0  0  0  0  0  0  0  0  0
   -1.4564    2.5618   -4.4891 H   0  0  0  0  0  0  0  0  0  0  0  0
   -0.5579    1.5321    2.8502 N   0  0  0  0  0  0  0  0  0  0  0  0
   -0.4889    2.0899    4.1817 C   0  0  2  0  0  0  0  0  0  0  0  0
   -0.5967    0.9433    5.1782 C   0  0  0  0  0  0  0  0  0  0  0  0
   -1.1051   -0.1410    4.9007 O   0  0  0  0  0  0  0  0  0  0  0  0
   -1.5897    3.1140    4.4103 C   0  0  0  0  0  0  0  0  0  0  0  0
   -1.4732    1.3794    2.4376 H   0  0  0  0  0  0  0  0  0  0  0  0
    0.4939    2.5646    4.2751 H   0  0  0  0  0  0  0  0  0  0  0  0
   -2.5819    2.6568    4.3206 H   0  0  0  0  0  0  0  0  0  0  0  0
   -1.5188    3.5564    5.4094 H   0  0  0  0  0  0  0  0  0  0  0  0
   -1.5287    3.9227    3.6740 H   0  0  0  0  0  0  0  0  0  0  0  0
   -0.0973    1.2879    6.4264 N   0  0  0  0  0  0  0  0  0  0  0  0
   -0.0981    0.3751    7.5456 C   0  0  0  0  0  0  0  0  0  0  0  0
    0.3231    2.2027    6.5612 H   0  0  0  0  0  0  0  0  0  0  0  0
   -1.0149    0.5191    8.1362 H   0  0  0  0  0  0  0  0  0  0  0  0
   -0.0598   -0.6598    7.1746 H   0  0  0  0  0  0  0  0  0  0  0  0
    0.7801    0.5704    8.1786 H   0  0  0  0  0  0  0  0  0  0  0  0
  1  3  1  0  0  0  0
  1  7  1  0  0  0  0
  1  2  2  0  0  0  0
 34 35  1  0  0  0  0
 35 43  1  0  0  0  0
 35 36  2  0  0  0  0
  8  9  1  0  0  0  0
  9 17  1  0  0  0  0
  9 10  2  0  0  0  0
 18 19  1  0  0  0  0
 19 33  1  0  0  0  0
 19 20  2  0  0  0  0
 22 23  1  0  0  0  0
 23 24  2  0  0  0  0
 23 25  1  0  0  0  0
 34 37  1  0  0  0  0
  8 11  1  0  0  0  0
 43 44  1  0  0  0  0
 21 22  1  0  0  0  0
 18 21  1  0  0  0  0
 33 34  1  0  0  0  0
  7  8  1  0  0  0  0
 17 18  1  0  0  0  0
  3  4  1  0  0  0  0
  3  5  1  0  0  0  0
  3  6  1  0  0  0  0
 37 40  1  0  0  0  0
 37 41  1  0  0  0  0
 37 42  1  0  0  0  0
 11 14  1  0  0  0  0
 11 15  1  0  0  0  0
 11 16  1  0  0  0  0
 44 46  1  0  0  0  0
 44 47  1  0  0  0  0
 44 48  1  0  0  0  0
 22 30  1  0  0  0  0
 22 31  1  0  0  0  0
 21 28  1  0  0  0  0
 21 29  1  0  0  0  0
 34 39  1  0  0  0  0
  8 13  1  0  0  0  0
 18 27  1  0  0  0  0
 43 45  1  0  0  0  0
  7 12  1  0  0  0  0
 33 38  1  0  0  0  0
 17 26  1  0  0  0  0
 25 32  1  0  0  0  0
M  END
$$$$

  -OEChem-05262214473D

 48 47  0     1  0  0  0  0  0999 V2000
   -5.5827   -1.3473    1.4591 C   0  0  0  0  0  0  0  0  0  0  0  0
   -5.7053   -2.4696    0.9825 O   0  0  0  0  0  0  0  0  0  0  0  0
   -6.7879   -0.6277    1.9670 C   0  0  0  0  0  0  0  0  0  0  0  0
   -7.2718   -0.0164    1.1885 H   0  0  0  0  0  0  0  0  0  0  0  0
   -7.5699   -1.3171    2.3239 H   0  0  0  0  0  0  0  0  0  0  0  0
   -6.6057    0.0628    2.8060 H   0  0  0  0  0  0  0  0  0  0  0  0
   -4.4001   -0.6377    1.5884 N   0  0  0  0  0  0  0  0  0  0  0  0
   -3.1220   -1.1455    1.1644 C   0  0  2  0  0  0  0  0  0  0  0  0
   -2.2017    0.0428    0.9187 C   0  0  0  0  0  0  0  0  0  0  0  0
   -2.6171    1.1750    0.6807 O   0  0  0  0  0  0  0  0  0  0  0  0
   -3.2533   -1.9992   -0.0873 C   0  0  0  0  0  0  0  0  0  0  0  0
   -4.4370    0.2910    2.0047 H   0  0  0  0  0  0  0  0  0  0  0  0
   -2.7302   -1.7467    1.9921 H   0  0  0  0  0  0  0  0  0  0  0  0
   -3.6446   -1.4140   -0.9275 H   0  0  0  0  0  0  0  0  0  0  0  0
   -2.2844   -2.4081   -0.3922 H   0  0  0  0  0  0  0  0  0  0  0  0
   -3.9388   -2.8365    0.0822 H   0  0  0  0  0  0  0  0  0  0  0  0
   -0.8768   -0.3314    0.9568 N   0  0  0  0  0  0  0  0  0  0  0  0
    0.2067    0.6285    0.7375 C   0  0  2  0  0  0  0  0  0  0  0  0
    0.5644    1.1949    2.1082 C   0  0  0  0  0  0  0  0  0  0  0  0
    1.6927    1.5992    2.3821 O   0  0  0  0  0  0  0  0  0  0  0  0
   -0.2688    1.7165   -0.2369 C   0  0  0  0  0  0  0  0  0  0  0  0
   -0.5233    1.2006   -1.6531 C   0  0  0  0  0  0  0  0  0  0  0  0
   -1.0112    2.2925   -2.5723 C   0  0  0  0  0  0  0  0  0  0  0  0
   -1.2993    3.4216   -2.1963 O   0  0  0  0  0  0  0  0  0  0  0  0
   -1.1239    1.8860   -3.8609 O   0  0  0  0  0  0  0  0  0  0  0  0
   -0.6087   -1.2764    1.1771 H   0  0  0  0  0  0  0  0  0  0  0  0
    1.0610    0.0940    0.3093 H   0  0  0  0  0  0  0  0  0  0  0  0
   -1.1923    2.1686    0.1489 H   0  0  0  0  0  0  0  0  0  0  0  0
    0.4741    2.5229   -0.2954 H   0  0  0  0  0  0  0  0  0  0  0  0
    0.4124    0.8202   -2.0809 H   0  0  0  0  0  0  0  0  0  0  0  0
   -1.2158    0.3525   -1.6619 H   0  0  0  0  0  0  0  0  0  0  0  0
   -1.4564    2.5618   -4.4891 H   0  0  0  0  0  0  0  0  0  0  0  0
   -0.5226    1.2212    2.9694 N   0  0  0  0  0  0  0  0  0  0  0  0
   -0.4464    1.7133    4.3262 C   0  0  2  0  0  0  0  0  0  0  0  0
   -0.1846    0.5258    5.2431 C   0  0  0  0  0  0  0  0  0  0  0  0
   -0.4564   -0.6327    4.9346 O   0  0  0  0  0  0  0  0  0  0  0  0
   -1.7233    2.4367    4.7249 C   0  0  0  0  0  0  0  0  0  0  0  0
   -1.4160    0.8779    2.6298 H   0  0  0  0  0  0  0  0  0  0  0  0
    0.4054    2.4009    4.3658 H   0  0  0  0  0  0  0  0  0  0  0  0
   -2.5878    1.7637    4.6911 H   0  0  0  0  0  0  0  0  0  0  0  0
   -1.6530    2.8336    5.7430 H   0  0  0  0  0  0  0  0  0  0  0  0
   -1.9259    3.2724    4.0463 H   0  0  0  0  0  0  0  0  0  0  0  0
    0.3485    0.9163    6.4635 N   0  0  0  0  0  0  0  0  0  0  0  0
    0.6729   -0.0251    7.5097 C   0  0  0  0  0  0  0  0  0  0  0  0
    0.5592    1.8966    6.6260 H   0  0  0  0  0  0  0  0  0  0  0  0
   -0.1865   -0.1304    8.1883 H   0  0  0  0  0  0  0  0  0  0  0  0
    0.9092   -1.0022    7.0632 H   0  0  0  0  0  0  0  0  0  0  0  0
    1.5433    0.3401    8.0745 H   0  0  0  0  0  0  0  0  0  0  0  0
  1  3  1  0  0  0  0
  1  7  1  0  0  0  0
  1  2  2  0  0  0  0
 34 35  1  0  0  0  0
 35 43  1  0  0  0  0
 35 36  2  0  0  0  0
  8  9  1  0  0  0  0
  9 17  1  0  0  0  0
  9 10  2  0  0  0  0
 18 19  1  0  0  0  0
 19 33  1  0  0  0  0
 19 20  2  0  0  0  0
 22 23  1  0  0  0  0
 23 24  2  0  0  0  0
 23 25  1  0  0  0  0
 34 37  1  0  0  0  0
  8 11  1  0  0  0  0
 43 44  1  0  0  0  0
 21 22  1  0  0  0  0
 18 21  1  0  0  0  0
 33 34  1  0  0  0  0
  7  8  1  0  0  0  0
 17 18  1  0  0  0  0
  3  4  1  0  0  0  0
  3  5  1  0  0  0  0
  3  6  1  0  0  0  0
 37 40  1  0  0  0  0
 37 41  1  0  0  0  0
 37 42  1  0  0  0  0
 11 14  1  0  0  0  0
 11 15  1  0  0  0  0
 11 16  1  0  0  0  0
 44 46  1  0  0  0  0
 44 47  1  0  0  0  0
 44 48  1  0  0  0  0
 22 30  1  0  0  0  0
 22 31  1  0  0  0  0
 21 28  1  0  0  0  0
 21 29  1  0  0  0  0
 34 39  1  0  0  0  0
  8 13  1  0  0  0  0
 18 27  1  0  0  0  0
 43 45  1  0  0  0  0
  7 12  1  0  0  0  0
 33 38  1  0  0  0  0
 17 26  1  0  0  0  0
 25 32  1  0  0  0  0
M  END
$$$$

  -OEChem-05262214473D

 48 47  0     1  0  0  0  0  0999 V2000
   -5.5827   -1.3473    1.4591 C   0  0  0  0  0  0  0  0  0  0  0  0
   -5.7053   -2.4696    0.9825 O   0  0  0  0  0  0  0  0  0  0  0  0
   -6.7879   -0.6277    1.9670 C   0  0  0  0  0  0  0  0  0  0  0  0
   -7.2718   -0.0164    1.1885 H   0  0  0  0  0  0  0  0  0  0  0  0
   -7.5699   -1.3171    2.3239 H   0  0  0  0  0  0  0  0  0  0  0  0
   -6.6057    0.0628    2.8060 H   0  0  0  0  0  0  0  0  0  0  0  0
   -4.4001   -0.6377    1.5884 N   0  0  0  0  0  0  0  0  0  0  0  0
   -3.1220   -1.1455    1.1644 C   0  0  2  0  0  0  0  0  0  0  0  0
   -2.2017    0.0428    0.9187 C   0  0  0  0  0  0  0  0  0  0  0  0
   -2.6171    1.1750    0.6807 O   0  0  0  0  0  0  0  0  0  0  0  0
   -3.2533   -1.9992   -0.0873 C   0  0  0  0  0  0  0  0  0  0  0  0
   -4.4370    0.2910    2.0047 H   0  0  0  0  0  0  0  0  0  0  0  0
   -2.7302   -1.7467    1.9921 H   0  0  0  0  0  0  0  0  0  0  0  0
   -3.6446   -1.4140   -0.9275 H   0  0  0  0  0  0  0  0  0  0  0  0
   -2.2844   -2.4081   -0.3922 H   0  0  0  0  0  0  0  0  0  0  0  0
   -3.9388   -2.8365    0.0822 H   0  0  0  0  0  0  0  0  0  0  0  0
   -0.8768   -0.3314    0.9568 N   0  0  0  0  0  0  0  0  0  0  0  0
    0.2067    0.6285    0.7375 C   0  0  2  0  0  0  0  0  0  0  0  0
    0.5644    1.1949    2.1082 C   0  0  0  0  0  0  0  0  0  0  0  0
    1.5918    1.8396    2.3092 O   0  0  0  0  0  0  0  0  0  0  0  0
   -0.2688    1.7165   -0.2369 C   0  0  0  0  0  0  0  0  0  0  0  0
   -0.5233    1.2006   -1.6531 C   0  0  0  0  0  0  0  0  0  0  0  0
   -1.0112    2.2925   -2.5723 C   0  0  0  0  0  0  0  0  0  0  0  0
   -1.2993    3.4216   -2.1963 O   0  0  0  0  0  0  0  0  0  0  0  0
   -1.1239    1.8860   -3.8609 O   0  0  0  0  0  0  0  0  0  0  0  0
   -0.6087   -1.2764    1.1771 H   0  0  0  0  0  0  0  0  0  0  0  0
    1.0610    0.0940    0.3093 H   0  0  0  0  0  0  0  0  0  0  0  0
   -1.1923    2.1686    0.1489 H   0  0  0  0  0  0  0  0  0  0  0  0
    0.4741    2.5229   -0.2954 H   0  0  0  0  0  0  0  0  0  0  0  0
    0.4124    0.8202   -2.0809 H   0  0  0  0  0  0  0  0  0  0  0  0
   -1.2158    0.3525   -1.6619 H   0  0  0  0  0  0  0  0  0  0  0  0
   -1.4564    2.5618   -4.4891 H   0  0  0  0  0  0  0  0  0  0  0  0
   -0.4047    0.9220    3.0623 N   0  0  0  0  0  0  0  0  0  0  0  0
   -0.3039    1.3506    4.4388 C   0  0  2  0  0  0  0  0  0  0  0  0
    0.3169    0.2144    5.2409 C   0  0  0  0  0  0  0  0  0  0  0  0
    0.2879   -0.9588    4.8751 O   0  0  0  0  0  0  0  0  0  0  0  0
   -1.6645    1.7324    5.0006 C   0  0  0  0  0  0  0  0  0  0  0  0
   -1.2256    0.3951    2.7796 H   0  0  0  0  0  0  0  0  0  0  0  0
    0.3668    2.2167    4.4521 H   0  0  0  0  0  0  0  0  0  0  0  0
   -2.3502    0.8773    4.9954 H   0  0  0  0  0  0  0  0  0  0  0  0
   -1.5825    2.0840    6.0343 H   0  0  0  0  0  0  0  0  0  0  0  0
   -2.1225    2.5293    4.4047 H   0  0  0  0  0  0  0  0  0  0  0  0
    0.8691    0.6589    6.4340 N   0  0  0  0  0  0  0  0  0  0  0  0
    1.5071   -0.2301    7.3767 C   0  0  0  0  0  0  0  0  0  0  0  0
    0.8648    1.6519    6.6473 H   0  0  0  0  0  0  0  0  0  0  0  0
    0.7697   -0.5682    8.1196 H   0  0  0  0  0  0  0  0  0  0  0  0
    1.9141   -1.1009    6.8417 H   0  0  0  0  0  0  0  0  0  0  0  0
    2.3240    0.3015    7.8867 H   0  0  0  0  0  0  0  0  0  0  0  0
  1  3  1  0  0  0  0
  1  7  1  0  0  0  0
  1  2  2  0  0  0  0
 34 35  1  0  0  0  0
 35 43  1  0  0  0  0
 35 36  2  0  0  0  0
  8  9  1  0  0  0  0
  9 17  1  0  0  0  0
  9 10  2  0  0  0  0
 18 19  1  0  0  0  0
 19 33  1  0  0  0  0
 19 20  2  0  0  0  0
 22 23  1  0  0  0  0
 23 24  2  0  0  0  0
 23 25  1  0  0  0  0
 34 37  1  0  0  0  0
  8 11  1  0  0  0  0
 43 44  1  0  0  0  0
 21 22  1  0  0  0  0
 18 21  1  0  0  0  0
 33 34  1  0  0  0  0
  7  8  1  0  0  0  0
 17 18  1  0  0  0  0
  3  4  1  0  0  0  0
  3  5  1  0  0  0  0
  3  6  1  0  0  0  0
 37 40  1  0  0  0  0
 37 41  1  0  0  0  0
 37 42  1  0  0  0  0
 11 14  1  0  0  0  0
 11 15  1  0  0  0  0
 11 16  1  0  0  0  0
 44 46  1  0  0  0  0
 44 47  1  0  0  0  0
 44 48  1  0  0  0  0
 22 30  1  0  0  0  0
 22 31  1  0  0  0  0
 21 28  1  0  0  0  0
 21 29  1  0  0  0  0
 34 39  1  0  0  0  0
  8 13  1  0  0  0  0
 18 27  1  0  0  0  0
 43 45  1  0  0  0  0
  7 12  1  0  0  0  0
 33 38  1  0  0  0  0
 17 26  1  0  0  0  0
 25 32  1  0  0  0  0
M  END
$$$$

  -OEChem-05262214473D

 48 47  0     1  0  0  0  0  0999 V2000
   -5.5827   -1.3473    1.4591 C   0  0  0  0  0  0  0  0  0  0  0  0
   -5.7053   -2.4696    0.9825 O   0  0  0  0  0  0  0  0  0  0  0  0
   -6.7879   -0.6277    1.9670 C   0  0  0  0  0  0  0  0  0  0  0  0
   -7.2718   -0.0164    1.1885 H   0  0  0  0  0  0  0  0  0  0  0  0
   -7.5699   -1.3171    2.3239 H   0  0  0  0  0  0  0  0  0  0  0  0
   -6.6057    0.0628    2.8060 H   0  0  0  0  0  0  0  0  0  0  0  0
   -4.4001   -0.6377    1.5884 N   0  0  0  0  0  0  0  0  0  0  0  0
   -3.1220   -1.1455    1.1644 C   0  0  2  0  0  0  0  0  0  0  0  0
   -2.2017    0.0428    0.9187 C   0  0  0  0  0  0  0  0  0  0  0  0
   -2.6171    1.1750    0.6807 O   0  0  0  0  0  0  0  0  0  0  0  0
   -3.2533   -1.9992   -0.0873 C   0  0  0  0  0  0  0  0  0  0  0  0
   -4.4370    0.2910    2.0047 H   0  0  0  0  0  0  0  0  0  0  0  0
   -2.7302   -1.7467    1.9921 H   0  0  0  0  0  0  0  0  0  0  0  0
   -3.6446   -1.4140   -0.9275 H   0  0  0  0  0  0  0  0  0  0  0  0
   -2.2844   -2.4081   -0.3922 H   0  0  0  0  0  0  0  0  0  0  0  0
   -3.9388   -2.8365    0.0822 H   0  0  0  0  0  0  0  0  0  0  0  0
   -0.8768   -0.3314    0.9568 N   0  0  0  0  0  0  0  0  0  0  0  0
    0.2067    0.6285    0.7375 C   0  0  2  0  0  0  0  0  0  0  0  0
    0.5644    1.1949    2.1082 C   0  0  0  0  0  0  0  0  0  0  0  0
    1.4314    2.0526    2.2630 O   0  0  0  0  0  0  0  0  0  0  0  0
   -0.2688    1.7165   -0.2369 C   0  0  0  0  0  0  0  0  0  0  0  0
   -0.5233    1.2006   -1.6531 C   0  0  0  0  0  0  0  0  0  0  0  0
   -1.0112    2.2925   -2.5723 C   0  0  0  0  0  0  0  0  0  0  0  0
   -1.2993    3.4216   -2.1963 O   0  0  0  0  0  0  0  0  0  0  0  0
   -1.1239    1.8860   -3.8609 O   0  0  0  0  0  0  0  0  0  0  0  0
   -0.6087   -1.2764    1.1771 H   0  0  0  0  0  0  0  0  0  0  0  0
    1.0610    0.0940    0.3093 H   0  0  0  0  0  0  0  0  0  0  0  0
   -1.1923    2.1686    0.1489 H   0  0  0  0  0  0  0  0  0  0  0  0
    0.4741    2.5229   -0.2954 H   0  0  0  0  0  0  0  0  0  0  0  0
    0.4124    0.8202   -2.0809 H   0  0  0  0  0  0  0  0  0  0  0  0
   -1.2158    0.3525   -1.6619 H   0  0  0  0  0  0  0  0  0  0  0  0
   -1.4564    2.5618   -4.4891 H   0  0  0  0  0  0  0  0  0  0  0  0
   -0.2124    0.6547    3.1225 N   0  0  0  0  0  0  0  0  0  0  0  0
   -0.0710    1.0266    4.5119 C   0  0  2  0  0  0  0  0  0  0  0  0
    0.8734    0.0304    5.1717 C   0  0  0  0  0  0  0  0  0  0  0  0
    1.0769   -1.0971    4.7263 O   0  0  0  0  0  0  0  0  0  0  0  0
   -1.4175    1.0490    5.2184 C   0  0  0  0  0  0  0  0  0  0  0  0
   -0.9150   -0.0361    2.8767 H   0  0  0  0  0  0  0  0  0  0  0  0
    0.3806    2.0245    4.5278 H   0  0  0  0  0  0  0  0  0  0  0  0
   -1.8853    0.0578    5.2126 H   0  0  0  0  0  0  0  0  0  0  0  0
   -1.3121    1.3586    6.2635 H   0  0  0  0  0  0  0  0  0  0  0  0
   -2.1052    1.7440    4.7246 H   0  0  0  0  0  0  0  0  0  0  0  0
    1.4290    0.5330    6.3399 N   0  0  0  0  0  0  0  0  0  0  0  0
    2.3479   -0.2261    7.1556 C   0  0  0  0  0  0  0  0  0  0  0  0
    1.2188    1.4854    6.6238 H   0  0  0  0  0  0  0  0  0  0  0  0
    1.7885   -0.7645    7.9349 H   0  0  0  0  0  0  0  0  0  0  0  0
    2.8864   -0.9490    6.5252 H   0  0  0  0  0  0  0  0  0  0  0  0
    3.0691    0.4571    7.6280 H   0  0  0  0  0  0  0  0  0  0  0  0
  1  3  1  0  0  0  0
  1  7  1  0  0  0  0
  1  2  2  0  0  0  0
 34 35  1  0  0  0  0
 35 43  1  0  0  0  0
 35 36  2  0  0  0  0
  8  9  1  0  0  0  0
  9 17  1  0  0  0  0
  9 10  2  0  0  0  0
 18 19  1  0  0  0  0
 19 33  1  0  0  0  0
 19 20  2  0  0  0  0
 22 23  1  0  0  0  0
 23 24  2  0  0  0  0
 23 25  1  0  0  0  0
 34 37  1  0  0  0  0
  8 11  1  0  0  0  0
 43 44  1  0  0  0  0
 21 22  1  0  0  0  0
 18 21  1  0  0  0  0
 33 34  1  0  0  0  0
  7  8  1  0  0  0  0
 17 18  1  0  0  0  0
  3  4  1  0  0  0  0
  3  5  1  0  0  0  0
  3  6  1  0  0  0  0
 37 40  1  0  0  0  0
 37 41  1  0  0  0  0
 37 42  1  0  0  0  0
 11 14  1  0  0  0  0
 11 15  1  0  0  0  0
 11 16  1  0  0  0  0
 44 46  1  0  0  0  0
 44 47  1  0  0  0  0
 44 48  1  0  0  0  0
 22 30  1  0  0  0  0
 22 31  1  0  0  0  0
 21 28  1  0  0  0  0
 21 29  1  0  0  0  0
 34 39  1  0  0  0  0
  8 13  1  0  0  0  0
 18 27  1  0  0  0  0
 43 45  1  0  0  0  0
  7 12  1  0  0  0  0
 33 38  1  0  0  0  0
 17 26  1  0  0  0  0
 25 32  1  0  0  0  0
M  END
$$$$

  -OEChem-05262214473D

 48 47  0     1  0  0  0  0  0999 V2000
   -5.5827   -1.3473    1.4591 C   0  0  0  0  0  0  0  0  0  0  0  0
   -5.7053   -2.4696    0.9825 O   0  0  0  0  0  0  0  0  0  0  0  0
   -6.7879   -0.6277    1.9670 C   0  0  0  0  0  0  0  0  0  0  0  0
   -7.2718   -0.0164    1.1885 H   0  0  0  0  0  0  0  0  0  0  0  0
   -7.5699   -1.3171    2.3239 H   0  0  0  0  0  0  0  0  0  0  0  0
   -6.6057    0.0628    2.8060 H   0  0  0  0  0  0  0  0  0  0  0  0
   -4.4001   -0.6377    1.5884 N   0  0  0  0  0  0  0  0  0  0  0  0
   -3.1220   -1.1455    1.1644 C   0  0  2  0  0  0  0  0  0  0  0  0
   -2.2017    0.0428    0.9187 C   0  0  0  0  0  0  0  0  0  0  0  0
   -2.6171    1.1750    0.6807 O   0  0  0  0  0  0  0  0  0  0  0  0
   -3.2533   -1.9992   -0.0873 C   0  0  0  0  0  0  0  0  0  0  0  0
   -4.4370    0.2910    2.0047 H   0  0  0  0  0  0  0  0  0  0  0  0
   -2.7302   -1.7467    1.9921 H   0  0  0  0  0  0  0  0  0  0  0  0
   -3.6446   -1.4140   -0.9275 H   0  0  0  0  0  0  0  0  0  0  0  0
   -2.2844   -2.4081   -0.3922 H   0  0  0  0  0  0  0  0  0  0  0  0
   -3.9388   -2.8365    0.0822 H   0  0  0  0  0  0  0  0  0  0  0  0
   -0.8768   -0.3314    0.9568 N   0  0  0  0  0  0  0  0  0  0  0  0
    0.2067    0.6285    0.7375 C   0  0  2  0  0  0  0  0  0  0  0  0
    0.5644    1.1949    2.1082 C   0  0  0  0  0  0  0  0  0  0  0  0
    1.2226    2.2240    2.2467 O   0  0  0  0  0  0  0  0  0  0  0  0
   -0.2688    1.7165   -0.2369 C   0  0  0  0  0  0  0  0  0  0  0  0
   -0.5233    1.2006   -1.6531 C   0  0  0  0  0  0  0  0  0  0  0  0
   -1.0112    2.2925   -2.5723 C   0  0  0  0  0  0  0  0  0  0  0  0
   -1.2993    3.4216   -2.1963 O   0  0  0  0  0  0  0  0  0  0  0  0
   -1.1239    1.8860   -3.8609 O   0  0  0  0  0  0  0  0  0  0  0  0
   -0.6087   -1.2764    1.1771 H   0  0  0  0  0  0  0  0  0  0  0  0
    1.0610    0.0940    0.3093 H   0  0  0  0  0  0  0  0  0  0  0  0
   -1.1923    2.1686    0.1489 H   0  0  0  0  0  0  0  0  0  0  0  0
    0.4741    2.5229   -0.2954 H   0  0  0  0  0  0  0  0  0  0  0  0
    0.4124    0.8202   -2.0809 H   0  0  0  0  0  0  0  0  0  0  0  0
   -1.2158    0.3525   -1.6619 H   0  0  0  0  0  0  0  0  0  0  0  0
   -1.4564    2.5618   -4.4891 H   0  0  0  0  0  0  0  0  0  0  0  0
    0.0414    0.4376    3.1460 N   0  0  0  0  0  0  0  0  0  0  0  0
    0.2363    0.7633    4.5405 C   0  0  2  0  0  0  0  0  0  0  0  0
    1.4470   -0.0137    5.0402 C   0  0  0  0  0  0  0  0  0  0  0  0
    1.8569   -1.0382    4.4984 O   0  0  0  0  0  0  0  0  0  0  0  0
   -0.9991    0.4332    5.3637 C   0  0  0  0  0  0  0  0  0  0  0  0
   -0.5054   -0.3862    2.9145 H   0  0  0  0  0  0  0  0  0  0  0  0
    0.4459    1.8375    4.5881 H   0  0  0  0  0  0  0  0  0  0  0  0
   -1.2249   -0.6389    5.3280 H   0  0  0  0  0  0  0  0  0  0  0  0
   -0.8602    0.7069    6.4148 H   0  0  0  0  0  0  0  0  0  0  0  0
   -1.8752    0.9701    4.9843 H   0  0  0  0  0  0  0  0  0  0  0  0
    1.9900    0.5473    6.1876 N   0  0  0  0  0  0  0  0  0  0  0  0
    3.1379   -0.0133    6.8615 C   0  0  0  0  0  0  0  0  0  0  0  0
    1.5973    1.4082    6.5569 H   0  0  0  0  0  0  0  0  0  0  0  0
    2.8006   -0.7061    7.6466 H   0  0  0  0  0  0  0  0  0  0  0  0
    3.7599   -0.5571    6.1353 H   0  0  0  0  0  0  0  0  0  0  0  0
    3.7277    0.7964    7.3159 H   0  0  0  0  0  0  0  0  0  0  0  0
  1  3  1  0  0  0  0
  1  7  1  0  0  0  0
  1  2  2  0  0  0  0
 34 35  1  0  0  0  0
 35 43  1  0  0  0  0
 35 36  2  0  0  0  0
  8  9  1  0  0  0  0
  9 17  1  0  0  0  0
  9 10  2  0  0  0  0
 18 19  1  0  0  0  0
 19 33  1  0  0  0  0
 19 20  2  0  0  0  0
 22 23  1  0  0  0  0
 23 24  2  0  0  0  0
 23 25  1  0  0  0  0
 34 37  1  0  0  0  0
  8 11  1  0  0  0  0
 43 44  1  0  0  0  0
 21 22  1  0  0  0  0
 18 21  1  0  0  0  0
 33 34  1  0  0  0  0
  7  8  1  0  0  0  0
 17 18  1  0  0  0  0
  3  4  1  0  0  0  0
  3  5  1  0  0  0  0
  3  6  1  0  0  0  0
 37 40  1  0  0  0  0
 37 41  1  0  0  0  0
 37 42  1  0  0  0  0
 11 14  1  0  0  0  0
 11 15  1  0  0  0  0
 11 16  1  0  0  0  0
 44 46  1  0  0  0  0
 44 47  1  0  0  0  0
 44 48  1  0  0  0  0
 22 30  1  0  0  0  0
 22 31  1  0  0  0  0
 21 28  1  0  0  0  0
 21 29  1  0  0  0  0
 34 39  1  0  0  0  0
  8 13  1  0  0  0  0
 18 27  1  0  0  0  0
 43 45  1  0  0  0  0
  7 12  1  0  0  0  0
 33 38  1  0  0  0  0
 17 26  1  0  0  0  0
 25 32  1  0  0  0  0
M  END
$$$$

  -OEChem-05262214473D

 48 47  0     1  0  0  0  0  0999 V2000
   -5.5827   -1.3473    1.4591 C   0  0  0  0  0  0  0  0  0  0  0  0
   -5.7053   -2.4696    0.9825 O   0  0  0  0  0  0  0  0  0  0  0  0
   -6.7879   -0.6277    1.9670 C   0  0  0  0  0  0  0  0  0  0  0  0
   -7.2718   -0.0164    1.1885 H   0  0  0  0  0  0  0  0  0  0  0  0
   -7.5699   -1.3171    2.3239 H   0  0  0  0  0  0  0  0  0  0  0  0
   -6.6057    0.0628    2.8060 H   0  0  0  0  0  0  0  0  0  0  0  0
   -4.4001   -0.6377    1.5884 N   0  0  0  0  0  0  0  0  0  0  0  0
   -3.1220   -1.1455    1.1644 C   0  0  2  0  0  0  0  0  0  0  0  0
   -2.2017    0.0428    0.9187 C   0  0  0  0  0  0  0  0  0  0  0  0
   -2.6171    1.1750    0.6807 O   0  0  0  0  0  0  0  0  0  0  0  0
   -3.2533   -1.9992   -0.0873 C   0  0  0  0  0  0  0  0  0  0  0  0
   -4.4370    0.2910    2.0047 H   0  0  0  0  0  0  0  0  0  0  0  0
   -2.7302   -1.7467    1.9921 H   0  0  0  0  0  0  0  0  0  0  0  0
   -3.6446   -1.4140   -0.9275 H   0  0  0  0  0  0  0  0  0  0  0  0
   -2.2844   -2.4081   -0.3922 H   0  0  0  0  0  0  0  0  0  0  0  0
   -3.9388   -2.8365    0.0822 H   0  0  0  0  0  0  0  0  0  0  0  0
   -0.8768   -0.3314    0.9568 N   0  0  0  0  0  0  0  0  0  0  0  0
    0.2067    0.6285    0.7375 C   0  0  2  0  0  0  0  0  0  0  0  0
    0.5644    1.1949    2.1082 C   0  0  0  0  0  0  0  0  0  0  0  0
    0.9794    2.3419    2.2614 O   0  0  0  0  0  0  0  0  0  0  0  0
   -0.2688    1.7165   -0.2369 C   0  0  0  0  0  0  0  0  0  0  0  0
   -0.5233    1.2006   -1.6531 C   0  0  0  0  0  0  0  0  0  0  0  0
   -1.0112    2.2925   -2.5723 C   0  0  0  0  0  0  0  0  0  0  0  0
   -1.2993    3.4216   -2.1963 O   0  0  0  0  0  0  0  0  0  0  0  0
   -1.1239    1.8860   -3.8609 O   0  0  0  0  0  0  0  0  0  0  0  0
   -0.6087   -1.2764    1.1771 H   0  0  0  0  0  0  0  0  0  0  0  0
    1.0610    0.0940    0.3093 H   0  0  0  0  0  0  0  0  0  0  0  0
   -1.1923    2.1686    0.1489 H   0  0  0  0  0  0  0  0  0  0  0  0
    0.4741    2.5229   -0.2954 H   0  0  0  0  0  0  0  0  0  0  0  0
    0.4124    0.8202   -2.0809 H   0  0  0  0  0  0  0  0  0  0  0  0
   -1.2158    0.3525   -1.6619 H   0  0  0  0  0  0  0  0  0  0  0  0
   -1.4564    2.5618   -4.4891 H   0  0  0  0  0  0  0  0  0  0  0  0
    0.3392    0.2855    3.1311 N   0  0  0  0  0  0  0  0  0  0  0  0
    0.5970    0.5787    4.5226 C   0  0  2  0  0  0  0  0  0  0  0  0
    1.9988    0.0850    4.8554 C   0  0  0  0  0  0  0  0  0  0  0  0
    2.5747   -0.7862    4.2069 O   0  0  0  0  0  0  0  0  0  0  0  0
   -0.4377   -0.0733    5.4264 C   0  0  0  0  0  0  0  0  0  0  0  0
   -0.0248   -0.6315    2.8904 H   0  0  0  0  0  0  0  0  0  0  0  0
    0.5582    1.6684    4.6286 H   0  0  0  0  0  0  0  0  0  0  0  0
   -0.4138   -1.1652    5.3338 H   0  0  0  0  0  0  0  0  0  0  0  0
   -0.2577    0.1733    6.4780 H   0  0  0  0  0  0  0  0  0  0  0  0
   -1.4481    0.2603    5.1661 H   0  0  0  0  0  0  0  0  0  0  0  0
    2.5140    0.7009    5.9874 N   0  0  0  0  0  0  0  0  0  0  0  0
    3.8231    0.3938    6.5145 C   0  0  0  0  0  0  0  0  0  0  0  0
    1.9744    1.4258    6.4512 H   0  0  0  0  0  0  0  0  0  0  0  0
    3.7368   -0.3968    7.2744 H   0  0  0  0  0  0  0  0  0  0  0  0
    4.4750    0.0483    5.6986 H   0  0  0  0  0  0  0  0  0  0  0  0
    4.2551    1.2962    6.9718 H   0  0  0  0  0  0  0  0  0  0  0  0
  1  3  1  0  0  0  0
  1  7  1  0  0  0  0
  1  2  2  0  0  0  0
 34 35  1  0  0  0  0
 35 43  1  0  0  0  0
 35 36  2  0  0  0  0
  8  9  1  0  0  0  0
  9 17  1  0  0  0  0
  9 10  2  0  0  0  0
 18 19  1  0  0  0  0
 19 33  1  0  0  0  0
 19 20  2  0  0  0  0
 22 23  1  0  0  0  0
 23 24  2  0  0  0  0
 23 25  1  0  0  0  0
 34 37  1  0  0  0  0
  8 11  1  0  0  0  0
 43 44  1  0  0  0  0
 21 22  1  0  0  0  0
 18 21  1  0  0  0  0
 33 34  1  0  0  0  0
  7  8  1  0  0  0  0
 17 18  1  0  0  0  0
  3  4  1  0  0  0  0
  3  5  1  0  0  0  0
  3  6  1  0  0  0  0
 37 40  1  0  0  0  0
 37 41  1  0  0  0  0
 37 42  1  0  0  0  0
 11 14  1  0  0  0  0
 11 15  1  0  0  0  0
 11 16  1  0  0  0  0
 44 46  1  0  0  0  0
 44 47  1  0  0  0  0
 44 48  1  0  0  0  0
 22 30  1  0  0  0  0
 22 31  1  0  0  0  0
 21 28  1  0  0  0  0
 21 29  1  0  0  0  0
 34 39  1  0  0  0  0
  8 13  1  0  0  0  0
 18 27  1  0  0  0  0
 43 45  1  0  0  0  0
  7 12  1  0  0  0  0
 33 38  1  0  0  0  0
 17 26  1  0  0  0  0
 25 32  1  0  0  0  0
M  END
$$$$

  -OEChem-05262214473D

 48 47  0     1  0  0  0  0  0999 V2000
   -5.5827   -1.3473    1.4591 C   0  0  0  0  0  0  0  0  0  0  0  0
   -5.7053   -2.4696    0.9825 O   0  0  0  0  0  0  0  0  0  0  0  0
   -6.7879   -0.6277    1.9670 C   0  0  0  0  0  0  0  0  0  0  0  0
   -7.2718   -0.0164    1.1885 H   0  0  0  0  0  0  0  0  0  0  0  0
   -7.5699   -1.3171    2.3239 H   0  0  0  0  0  0  0  0  0  0  0  0
   -6.6057    0.0628    2.8060 H   0  0  0  0  0  0  0  0  0  0  0  0
   -4.4001   -0.6377    1.5884 N   0  0  0  0  0  0  0  0  0  0  0  0
   -3.1220   -1.1455    1.1644 C   0  0  2  0  0  0  0  0  0  0  0  0
   -2.2017    0.0428    0.9187 C   0  0  0  0  0  0  0  0  0  0  0  0
   -2.6171    1.1750    0.6807 O   0  0  0  0  0  0  0  0  0  0  0  0
   -3.2533   -1.9992   -0.0873 C   0  0  0  0  0  0  0  0  0  0  0  0
   -4.4370    0.2910    2.0047 H   0  0  0  0  0  0  0  0  0  0  0  0
   -2.7302   -1.7467    1.9921 H   0  0  0  0  0  0  0  0  0  0  0  0
   -3.6446   -1.4140   -0.9275 H   0  0  0  0  0  0  0  0  0  0  0  0
   -2.2844   -2.4081   -0.3922 H   0  0  0  0  0  0  0  0  0  0  0  0
   -3.9388   -2.8365    0.0822 H   0  0  0  0  0  0  0  0  0  0  0  0
   -0.8768   -0.3314    0.9568 N   0  0  0  0  0  0  0  0  0  0  0  0
    0.2067    0.6285    0.7375 C   0  0  2  0  0  0  0  0  0  0  0  0
    0.5644    1.1949    2.1082 C   0  0  0  0  0  0  0  0  0  0  0  0
    0.7185    2.3984    2.3062 O   0  0  0  0  0  0  0  0  0  0  0  0
   -0.2688    1.7165   -0.2369 C   0  0  0  0  0  0  0  0  0  0  0  0
   -0.5233    1.2006   -1.6531 C   0  0  0  0  0  0  0  0  0  0  0  0
   -1.0112    2.2925   -2.5723 C   0  0  0  0  0  0  0  0  0  0  0  0
   -1.2993    3.4216   -2.1963 O   0  0  0  0  0  0  0  0  0  0  0  0
   -1.1239    1.8860   -3.8609 O   0  0  0  0  0  0  0  0  0  0  0  0
   -0.6087   -1.2764    1.1771 H   0  0  0  0  0  0  0  0  0  0  0  0
    1.0610    0.0940    0.3093 H   0  0  0  0  0  0  0  0  0  0  0  0
   -1.1923    2.1686    0.1489 H   0  0  0  0  0  0  0  0  0  0  0  0
    0.4741    2.5229   -0.2954 H   0  0  0  0  0  0  0  0  0  0  0  0
    0.4124    0.8202   -2.0809 H   0  0  0  0  0  0  0  0  0  0  0  0
   -1.2158    0.3525   -1.6619 H   0  0  0  0  0  0  0  0  0  0  0  0
   -1.4564    2.5618   -4.4891 H   0  0  0  0  0  0  0  0  0  0  0  0
    0.6608    0.2087    3.0789 N   0  0  0  0  0  0  0  0  0  0  0  0
    0.9867    0.4854    4.4594 C   0  0  2  0  0  0  0  0  0  0  0  0
    2.4911    0.3199    4.6298 C   0  0  0  0  0  0  0  0  0  0  0  0
    3.1815   -0.3580    3.8717 O   0  0  0  0  0  0  0  0  0  0  0  0
    0.2283   -0.4357    5.4023 C   0  0  0  0  0  0  0  0  0  0  0  0
    0.4943   -0.7552    2.8060 H   0  0  0  0  0  0  0  0  0  0  0  0
    0.7100    1.5287    4.6467 H   0  0  0  0  0  0  0  0  0  0  0  0
    0.4925   -1.4853    5.2295 H   0  0  0  0  0  0  0  0  0  0  0  0
    0.4545   -0.2058    6.4487 H   0  0  0  0  0  0  0  0  0  0  0  0
   -0.8530   -0.3370    5.2576 H   0  0  0  0  0  0  0  0  0  0  0  0
    2.9652    0.9832    5.7530 N   0  0  0  0  0  0  0  0  0  0  0  0
    4.3571    0.9674    6.1381 C   0  0  0  0  0  0  0  0  0  0  0  0
    2.3244    1.5368    6.3140 H   0  0  0  0  0  0  0  0  0  0  0  0
    4.5335    0.1422    6.8438 H   0  0  0  0  0  0  0  0  0  0  0  0
    4.9830    0.8258    5.2447 H   0  0  0  0  0  0  0  0  0  0  0  0
    4.6151    1.9225    6.6191 H   0  0  0  0  0  0  0  0  0  0  0  0
  1  3  1  0  0  0  0
  1  7  1  0  0  0  0
  1  2  2  0  0  0  0
 34 35  1  0  0  0  0
 35 43  1  0  0  0  0
 35 36  2  0  0  0  0
  8  9  1  0  0  0  0
  9 17  1  0  0  0  0
  9 10  2  0  0  0  0
 18 19  1  0  0  0  0
 19 33  1  0  0  0  0
 19 20  2  0  0  0  0
 22 23  1  0  0  0  0
 23 24  2  0  0  0  0
 23 25  1  0  0  0  0
 34 37  1  0  0  0  0
  8 11  1  0  0  0  0
 43 44  1  0  0  0  0
 21 22  1  0  0  0  0
 18 21  1  0  0  0  0
 33 34  1  0  0  0  0
  7  8  1  0  0  0  0
 17 18  1  0  0  0  0
  3  4  1  0  0  0  0
  3  5  1  0  0  0  0
  3  6  1  0  0  0  0
 37 40  1  0  0  0  0
 37 41  1  0  0  0  0
 37 42  1  0  0  0  0
 11 14  1  0  0  0  0
 11 15  1  0  0  0  0
 11 16  1  0  0  0  0
 44 46  1  0  0  0  0
 44 47  1  0  0  0  0
 44 48  1  0  0  0  0
 22 30  1  0  0  0  0
 22 31  1  0  0  0  0
 21 28  1  0  0  0  0
 21 29  1  0  0  0  0
 34 39  1  0  0  0  0
  8 13  1  0  0  0  0
 18 27  1  0  0  0  0
 43 45  1  0  0  0  0
  7 12  1  0  0  0  0
 33 38  1  0  0  0  0
 17 26  1  0  0  0  0
 25 32  1  0  0  0  0
M  END
$$$$

  -OEChem-05262214473D

 48 47  0     1  0  0  0  0  0999 V2000
   -5.5827   -1.3473    1.4591 C   0  0  0  0  0  0  0  0  0  0  0  0
   -5.7053   -2.4696    0.9825 O   0  0  0  0  0  0  0  0  0  0  0  0
   -6.7879   -0.6277    1.9670 C   0  0  0  0  0  0  0  0  0  0  0  0
   -7.2718   -0.0164    1.1885 H   0  0  0  0  0  0  0  0  0  0  0  0
   -7.5699   -1.3171    2.3239 H   0  0  0  0  0  0  0  0  0  0  0  0
   -6.6057    0.0628    2.8060 H   0  0  0  0  0  0  0  0  0  0  0  0
   -4.4001   -0.6377    1.5884 N   0  0  0  0  0  0  0  0  0  0  0  0
   -3.1220   -1.1455    1.1644 C   0  0  2  0  0  0  0  0  0  0  0  0
   -2.2017    0.0428    0.9187 C   0  0  0  0  0  0  0  0  0  0  0  0
   -2.6171    1.1750    0.6807 O   0  0  0  0  0  0  0  0  0  0  0  0
   -3.2533   -1.9992   -0.0873 C   0  0  0  0  0  0  0  0  0  0  0  0
   -4.4370    0.2910    2.0047 H   0  0  0  0  0  0  0  0  0  0  0  0
   -2.7302   -1.7467    1.9921 H   0  0  0  0  0  0  0  0  0  0  0  0
   -3.6446   -1.4140   -0.9275 H   0  0  0  0  0  0  0  0  0  0  0  0
   -2.2844   -2.4081   -0.3922 H   0  0  0  0  0  0  0  0  0  0  0  0
   -3.9388   -2.8365    0.0822 H   0  0  0  0  0  0  0  0  0  0  0  0
   -0.8768   -0.3314    0.9568 N   0  0  0  0  0  0  0  0  0  0  0  0
    0.2067    0.6285    0.7375 C   0  0  2  0  0  0  0  0  0  0  0  0
    0.5644    1.1949    2.1082 C   0  0  0  0  0  0  0  0  0  0  0  0
    0.4577    2.3896    2.3779 O   0  0  0  0  0  0  0  0  0  0  0  0
   -0.2688    1.7165   -0.2369 C   0  0  0  0  0  0  0  0  0  0  0  0
   -0.5233    1.2006   -1.6531 C   0  0  0  0  0  0  0  0  0  0  0  0
   -1.0112    2.2925   -2.5723 C   0  0  0  0  0  0  0  0  0  0  0  0
   -1.2993    3.4216   -2.1963 O   0  0  0  0  0  0  0  0  0  0  0  0
   -1.1239    1.8860   -3.8609 O   0  0  0  0  0  0  0  0  0  0  0  0
   -0.6087   -1.2764    1.1771 H   0  0  0  0  0  0  0  0  0  0  0  0
    1.0610    0.0940    0.3093 H   0  0  0  0  0  0  0  0  0  0  0  0
   -1.1923    2.1686    0.1489 H   0  0  0  0  0  0  0  0  0  0  0  0
    0.4741    2.5229   -0.2954 H   0  0  0  0  0  0  0  0  0  0  0  0
    0.4124    0.8202   -2.0809 H   0  0  0  0  0  0  0  0  0  0  0  0
   -1.2158    0.3525   -1.6619 H   0  0  0  0  0  0  0  0  0  0  0  0
   -1.4564    2.5618   -4.4891 H   0  0  0  0  0  0  0  0  0  0  0  0
    0.9844    0.2125    2.9929 N   0  0  0  0  0  0  0  0  0  0  0  0
    1.3788    0.4898    4.3553 C   0  0  2  0  0  0  0  0  0  0  0  0
    2.8903    0.6750    4.3790 C   0  0  0  0  0  0  0  0  0  0  0  0
    3.6358    0.2169    3.5156 O   0  0  0  0  0  0  0  0  0  0  0  0
    0.9536   -0.6294    5.2931 C   0  0  0  0  0  0  0  0  0  0  0  0
    1.0162   -0.7488    2.6671 H   0  0  0  0  0  0  0  0  0  0  0  0
    0.8908    1.4279    4.6412 H   0  0  0  0  0  0  0  0  0  0  0  0
    1.4324   -1.5775    5.0223 H   0  0  0  0  0  0  0  0  0  0  0  0
    1.2278   -0.4047    6.3291 H   0  0  0  0  0  0  0  0  0  0  0  0
   -0.1305   -0.7812    5.2525 H   0  0  0  0  0  0  0  0  0  0  0  0
    3.3128    1.3750    5.5004 N   0  0  0  0  0  0  0  0  0  0  0  0
    4.7033    1.6685    5.7581 C   0  0  0  0  0  0  0  0  0  0  0  0
    2.6235    1.7338    6.1545 H   0  0  0  0  0  0  0  0  0  0  0  0
    5.1363    0.8743    6.3840 H   0  0  0  0  0  0  0  0  0  0  0  0
    5.2493    1.7225    4.8048 H   0  0  0  0  0  0  0  0  0  0  0  0
    4.7834    2.6325    6.2818 H   0  0  0  0  0  0  0  0  0  0  0  0
  1  3  1  0  0  0  0
  1  7  1  0  0  0  0
  1  2  2  0  0  0  0
 34 35  1  0  0  0  0
 35 43  1  0  0  0  0
 35 36  2  0  0  0  0
  8  9  1  0  0  0  0
  9 17  1  0  0  0  0
  9 10  2  0  0  0  0
 18 19  1  0  0  0  0
 19 33  1  0  0  0  0
 19 20  2  0  0  0  0
 22 23  1  0  0  0  0
 23 24  2  0  0  0  0
 23 25  1  0  0  0  0
 34 37  1  0  0  0  0
  8 11  1  0  0  0  0
 43 44  1  0  0  0  0
 21 22  1  0  0  0  0
 18 21  1  0  0  0  0
 33 34  1  0  0  0  0
  7  8  1  0  0  0  0
 17 18  1  0  0  0  0
  3  4  1  0  0  0  0
  3  5  1  0  0  0  0
  3  6  1  0  0  0  0
 37 40  1  0  0  0  0
 37 41  1  0  0  0  0
 37 42  1  0  0  0  0
 11 14  1  0  0  0  0
 11 15  1  0  0  0  0
 11 16  1  0  0  0  0
 44 46  1  0  0  0  0
 44 47  1  0  0  0  0
 44 48  1  0  0  0  0
 22 30  1  0  0  0  0
 22 31  1  0  0  0  0
 21 28  1  0  0  0  0
 21 29  1  0  0  0  0
 34 39  1  0  0  0  0
  8 13  1  0  0  0  0
 18 27  1  0  0  0  0
 43 45  1  0  0  0  0
  7 12  1  0  0  0  0
 33 38  1  0  0  0  0
 17 26  1  0  0  0  0
 25 32  1  0  0  0  0
M  END
$$$$

  -OEChem-05262214473D

 48 47  0     1  0  0  0  0  0999 V2000
   -5.5827   -1.3473    1.4591 C   0  0  0  0  0  0  0  0  0  0  0  0
   -5.7053   -2.4696    0.9825 O   0  0  0  0  0  0  0  0  0  0  0  0
   -6.7879   -0.6277    1.9670 C   0  0  0  0  0  0  0  0  0  0  0  0
   -7.2718   -0.0164    1.1885 H   0  0  0  0  0  0  0  0  0  0  0  0
   -7.5699   -1.3171    2.3239 H   0  0  0  0  0  0  0  0  0  0  0  0
   -6.6057    0.0628    2.8060 H   0  0  0  0  0  0  0  0  0  0  0  0
   -4.4001   -0.6377    1.5884 N   0  0  0  0  0  0  0  0  0  0  0  0
   -3.1220   -1.1455    1.1644 C   0  0  2  0  0  0  0  0  0  0  0  0
   -2.2017    0.0428    0.9187 C   0  0  0  0  0  0  0  0  0  0  0  0
   -2.6171    1.1750    0.6807 O   0  0  0  0  0  0  0  0  0  0  0  0
   -3.2533   -1.9992   -0.0873 C   0  0  0  0  0  0  0  0  0  0  0  0
   -4.4370    0.2910    2.0047 H   0  0  0  0  0  0  0  0  0  0  0  0
   -2.7302   -1.7467    1.9921 H   0  0  0  0  0  0  0  0  0  0  0  0
   -3.6446   -1.4140   -0.9275 H   0  0  0  0  0  0  0  0  0  0  0  0
   -2.2844   -2.4081   -0.3922 H   0  0  0  0  0  0  0  0  0  0  0  0
   -3.9388   -2.8365    0.0822 H   0  0  0  0  0  0  0  0  0  0  0  0
   -0.8768   -0.3314    0.9568 N   0  0  0  0  0  0  0  0  0  0  0  0
    0.2067    0.6285    0.7375 C   0  0  2  0  0  0  0  0  0  0  0  0
    0.5644    1.1949    2.1082 C   0  0  0  0  0  0  0  0  0  0  0  0
    0.2147    2.3161    2.4717 O   0  0  0  0  0  0  0  0  0  0  0  0
   -0.2688    1.7165   -0.2369 C   0  0  0  0  0  0  0  0  0  0  0  0
   -0.5233    1.2006   -1.6531 C   0  0  0  0  0  0  0  0  0  0  0  0
   -1.0112    2.2925   -2.5723 C   0  0  0  0  0  0  0  0  0  0  0  0
   -1.2993    3.4216   -2.1963 O   0  0  0  0  0  0  0  0  0  0  0  0
   -1.1239    1.8860   -3.8609 O   0  0  0  0  0  0  0  0  0  0  0  0
   -0.6087   -1.2764    1.1771 H   0  0  0  0  0  0  0  0  0  0  0  0
    1.0610    0.0940    0.3093 H   0  0  0  0  0  0  0  0  0  0  0  0
   -1.1923    2.1686    0.1489 H   0  0  0  0  0  0  0  0  0  0  0  0
    0.4741    2.5229   -0.2954 H   0  0  0  0  0  0  0  0  0  0  0  0
    0.4124    0.8202   -2.0809 H   0  0  0  0  0  0  0  0  0  0  0  0
   -1.2158    0.3525   -1.6619 H   0  0  0  0  0  0  0  0  0  0  0  0
   -1.4564    2.5618   -4.4891 H   0  0  0  0  0  0  0  0  0  0  0  0
    1.2877    0.2966    2.8789 N   0  0  0  0  0  0  0  0  0  0  0  0
    1.7464    0.5914    4.2174 C   0  0  2  0  0  0  0  0  0  0  0  0
    3.1692    1.1260    4.1198 C   0  0  0  0  0  0  0  0  0  0  0  0
    3.9067    0.8995    3.1628 O   0  0  0  0  0  0  0  0  0  0  0  0
    1.6887   -0.6413    5.1061 C   0  0  0  0  0  0  0  0  0  0  0  0
    1.5056   -0.6129    2.4833 H   0  0  0  0  0  0  0  0  0  0  0  0
    1.0883    1.3730    4.6123 H   0  0  0  0  0  0  0  0  0  0  0  0
    2.3418   -1.4354    4.7263 H   0  0  0  0  0  0  0  0  0  0  0  0
    2.0094   -0.4097    6.1271 H   0  0  0  0  0  0  0  0  0  0  0  0
    0.6702   -1.0418    5.1512 H   0  0  0  0  0  0  0  0  0  0  0  0
    3.5332    1.8496    5.2468 N   0  0  0  0  0  0  0  0  0  0  0  0
    4.8381    2.4493    5.4004 C   0  0  0  0  0  0  0  0  0  0  0  0
    2.8513    2.0033    5.9837 H   0  0  0  0  0  0  0  0  0  0  0  0
    5.5042    1.7495    5.9264 H   0  0  0  0  0  0  0  0  0  0  0  0
    5.2557    2.6773    4.4086 H   0  0  0  0  0  0  0  0  0  0  0  0
    4.7484    3.3780    5.9829 H   0  0  0  0  0  0  0  0  0  0  0  0
  1  3  1  0  0  0  0
  1  7  1  0  0  0  0
  1  2  2  0  0  0  0
 34 35  1  0  0  0  0
 35 43  1  0  0  0  0
 35 36  2  0  0  0  0
  8  9  1  0  0  0  0
  9 17  1  0  0  0  0
  9 10  2  0  0  0  0
 18 19  1  0  0  0  0
 19 33  1  0  0  0  0
 19 20  2  0  0  0  0
 22 23  1  0  0  0  0
 23 24  2  0  0  0  0
 23 25  1  0  0  0  0
 34 37  1  0  0  0  0
  8 11  1  0  0  0  0
 43 44  1  0  0  0  0
 21 22  1  0  0  0  0
 18 21  1  0  0  0  0
 33 34  1  0  0  0  0
  7  8  1  0  0  0  0
 17 18  1  0  0  0  0
  3  4  1  0  0  0  0
  3  5  1  0  0  0  0
  3  6  1  0  0  0  0
 37 40  1  0  0  0  0
 37 41  1  0  0  0  0
 37 42  1  0  0  0  0
 11 14  1  0  0  0  0
 11 15  1  0  0  0  0
 11 16  1  0  0  0  0
 44 46  1  0  0  0  0
 44 47  1  0  0  0  0
 44 48  1  0  0  0  0
 22 30  1  0  0  0  0
 22 31  1  0  0  0  0
 21 28  1  0  0  0  0
 21 29  1  0  0  0  0
 34 39  1  0  0  0  0
  8 13  1  0  0  0  0
 18 27  1  0  0  0  0
 43 45  1  0  0  0  0
  7 12  1  0  0  0  0
 33 38  1  0  0  0  0
 17 26  1  0  0  0  0
 25 32  1  0  0  0  0
M  END
$$$$

  -OEChem-05262214473D

 48 47  0     1  0  0  0  0  0999 V2000
   -5.5827   -1.3473    1.4591 C   0  0  0  0  0  0  0  0  0  0  0  0
   -5.7053   -2.4696    0.9825 O   0  0  0  0  0  0  0  0  0  0  0  0
   -6.7879   -0.6277    1.9670 C   0  0  0  0  0  0  0  0  0  0  0  0
   -7.2718   -0.0164    1.1885 H   0  0  0  0  0  0  0  0  0  0  0  0
   -7.5699   -1.3171    2.3239 H   0  0  0  0  0  0  0  0  0  0  0  0
   -6.6057    0.0628    2.8060 H   0  0  0  0  0  0  0  0  0  0  0  0
   -4.4001   -0.6377    1.5884 N   0  0  0  0  0  0  0  0  0  0  0  0
   -3.1220   -1.1455    1.1644 C   0  0  2  0  0  0  0  0  0  0  0  0
   -2.2017    0.0428    0.9187 C   0  0  0  0  0  0  0  0  0  0  0  0
   -2.6171    1.1750    0.6807 O   0  0  0  0  0  0  0  0  0  0  0  0
   -3.2533   -1.9992   -0.0873 C   0  0  0  0  0  0  0  0  0  0  0  0
   -4.4370    0.2910    2.0047 H   0  0  0  0  0  0  0  0  0  0  0  0
   -2.7302   -1.7467    1.9921 H   0  0  0  0  0  0  0  0  0  0  0  0
   -3.6446   -1.4140   -0.9275 H   0  0  0  0  0  0  0  0  0  0  0  0
   -2.2844   -2.4081   -0.3922 H   0  0  0  0  0  0  0  0  0  0  0  0
   -3.9388   -2.8365    0.0822 H   0  0  0  0  0  0  0  0  0  0  0  0
   -0.8768   -0.3314    0.9568 N   0  0  0  0  0  0  0  0  0  0  0  0
    0.2067    0.6285    0.7375 C   0  0  2  0  0  0  0  0  0  0  0  0
    0.5644    1.1949    2.1082 C   0  0  0  0  0  0  0  0  0  0  0  0
    0.0061    2.1828    2.5812 O   0  0  0  0  0  0  0  0  0  0  0  0
   -0.2688    1.7165   -0.2369 C   0  0  0  0  0  0  0  0  0  0  0  0
   -0.5233    1.2006   -1.6531 C   0  0  0  0  0  0  0  0  0  0  0  0
   -1.0112    2.2925   -2.5723 C   0  0  0  0  0  0  0  0  0  0  0  0
   -1.2993    3.4216   -2.1963 O   0  0  0  0  0  0  0  0  0  0  0  0
   -1.1239    1.8860   -3.8609 O   0  0  0  0  0  0  0  0  0  0  0  0
   -0.6087   -1.2764    1.1771 H   0  0  0  0  0  0  0  0  0  0  0  0
    1.0610    0.0940    0.3093 H   0  0  0  0  0  0  0  0  0  0  0  0
   -1.1923    2.1686    0.1489 H   0  0  0  0  0  0  0  0  0  0  0  0
    0.4741    2.5229   -0.2954 H   0  0  0  0  0  0  0  0  0  0  0  0
    0.4124    0.8202   -2.0809 H   0  0  0  0  0  0  0  0  0  0  0  0
   -1.2158    0.3525   -1.6619 H   0  0  0  0  0  0  0  0  0  0  0  0
   -1.4564    2.5618   -4.4891 H   0  0  0  0  0  0  0  0  0  0  0  0
    1.5502    0.4554    2.7449 N   0  0  0  0  0  0  0  0  0  0  0  0
    2.0647    0.7835    4.0550 C   0  0  2  0  0  0  0  0  0  0  0  0
    3.3088    1.6422    3.8701 C   0  0  0  0  0  0  0  0  0  0  0  0
    3.9757    1.6433    2.8375 O   0  0  0  0  0  0  0  0  0  0  0  0
    2.3835   -0.4704    4.8542 C   0  0  0  0  0  0  0  0  0  0  0  0
    1.9290   -0.3566    2.2669 H   0  0  0  0  0  0  0  0  0  0  0  0
    1.2891    1.3676    4.5621 H   0  0  0  0  0  0  0  0  0  0  0  0
    3.1587   -1.0686    4.3615 H   0  0  0  0  0  0  0  0  0  0  0  0
    2.7462   -0.2204    5.8567 H   0  0  0  0  0  0  0  0  0  0  0  0
    1.4945   -1.1013    4.9607 H   0  0  0  0  0  0  0  0  0  0  0  0
    3.6113    2.3747    5.0094 N   0  0  0  0  0  0  0  0  0  0  0  0
    4.7524    3.2565    5.0892 C   0  0  0  0  0  0  0  0  0  0  0  0
    2.9922    2.3269    5.8132 H   0  0  0  0  0  0  0  0  0  0  0  0
    5.6120    2.7082    5.5022 H   0  0  0  0  0  0  0  0  0  0  0  0
    5.0018    3.6251    4.0833 H   0  0  0  0  0  0  0  0  0  0  0  0
    4.5126    4.1081    5.7428 H   0  0  0  0  0  0  0  0  0  0  0  0
  1  3  1  0  0  0  0
  1  7  1  0  0  0  0
  1  2  2  0  0  0  0
 34 35  1  0  0  0  0
 35 43  1  0  0  0  0
 35 36  2  0  0  0  0
  8  9  1  0  0  0  0
  9 17  1  0  0  0  0
  9 10  2  0  0  0  0
 18 19  1  0  0  0  0
 19 33  1  0  0  0  0
 19 20  2  0  0  0  0
 22 23  1  0  0  0  0
 23 24  2  0  0  0  0
 23 25  1  0  0  0  0
 34 37  1  0  0  0  0
  8 11  1  0  0  0  0
 43 44  1  0  0  0  0
 21 22  1  0  0  0  0
 18 21  1  0  0  0  0
 33 34  1  0  0  0  0
  7  8  1  0  0  0  0
 17 18  1  0  0  0  0
  3  4  1  0  0  0  0
  3  5  1  0  0  0  0
  3  6  1  0  0  0  0
 37 40  1  0  0  0  0
 37 41  1  0  0  0  0
 37 42  1  0  0  0  0
 11 14  1  0  0  0  0
 11 15  1  0  0  0  0
 11 16  1  0  0  0  0
 44 46  1  0  0  0  0
 44 47  1  0  0  0  0
 44 48  1  0  0  0  0
 22 30  1  0  0  0  0
 22 31  1  0  0  0  0
 21 28  1  0  0  0  0
 21 29  1  0  0  0  0
 34 39  1  0  0  0  0
  8 13  1  0  0  0  0
 18 27  1  0  0  0  0
 43 45  1  0  0  0  0
  7 12  1  0  0  0  0
 33 38  1  0  0  0  0
 17 26  1  0  0  0  0
 25 32  1  0  0  0  0
M  END
$$$$

  -OEChem-05262214473D

 48 47  0     1  0  0  0  0  0999 V2000
   -5.5827   -1.3473    1.4591 C   0  0  0  0  0  0  0  0  0  0  0  0
   -5.7053   -2.4696    0.9825 O   0  0  0  0  0  0  0  0  0  0  0  0
   -6.7879   -0.6277    1.9670 C   0  0  0  0  0  0  0  0  0  0  0  0
   -7.2718   -0.0164    1.1885 H   0  0  0  0  0  0  0  0  0  0  0  0
   -7.5699   -1.3171    2.3239 H   0  0  0  0  0  0  0  0  0  0  0  0
   -6.6057    0.0628    2.8060 H   0  0  0  0  0  0  0  0  0  0  0  0
   -4.4001   -0.6377    1.5884 N   0  0  0  0  0  0  0  0  0  0  0  0
   -3.1220   -1.1455    1.1644 C   0  0  2  0  0  0  0  0  0  0  0  0
   -2.2017    0.0428    0.9187 C   0  0  0  0  0  0  0  0  0  0  0  0
   -2.6171    1.1750    0.6807 O   0  0  0  0  0  0  0  0  0  0  0  0
   -3.2533   -1.9992   -0.0873 C   0  0  0  0  0  0  0  0  0  0  0  0
   -4.4370    0.2910    2.0047 H   0  0  0  0  0  0  0  0  0  0  0  0
   -2.7302   -1.7467    1.9921 H   0  0  0  0  0  0  0  0  0  0  0  0
   -3.6446   -1.4140   -0.9275 H   0  0  0  0  0  0  0  0  0  0  0  0
   -2.2844   -2.4081   -0.3922 H   0  0  0  0  0  0  0  0  0  0  0  0
   -3.9388   -2.8365    0.0822 H   0  0  0  0  0  0  0  0  0  0  0  0
   -0.8768   -0.3314    0.9568 N   0  0  0  0  0  0  0  0  0  0  0  0
    0.2067    0.6285    0.7375 C   0  0  2  0  0  0  0  0  0  0  0  0
    0.5644    1.1949    2.1082 C   0  0  0  0  0  0  0  0  0  0  0  0
   -0.1539    1.9990    2.6989 O   0  0  0  0  0  0  0  0  0  0  0  0
   -0.2688    1.7165   -0.2369 C   0  0  0  0  0  0  0  0  0  0  0  0
   -0.5233    1.2006   -1.6531 C   0  0  0  0  0  0  0  0  0  0  0  0
   -1.0112    2.2925   -2.5723 C   0  0  0  0  0  0  0  0  0  0  0  0
   -1.2993    3.4216   -2.1963 O   0  0  0  0  0  0  0  0  0  0  0  0
   -1.1239    1.8860   -3.8609 O   0  0  0  0  0  0  0  0  0  0  0  0
   -0.6087   -1.2764    1.1771 H   0  0  0  0  0  0  0  0  0  0  0  0
    1.0610    0.0940    0.3093 H   0  0  0  0  0  0  0  0  0  0  0  0
   -1.1923    2.1686    0.1489 H   0  0  0  0  0  0  0  0  0  0  0  0
    0.4741    2.5229   -0.2954 H   0  0  0  0  0  0  0  0  0  0  0  0
    0.4124    0.8202   -2.0809 H   0  0  0  0  0  0  0  0  0  0  0  0
   -1.2158    0.3525   -1.6619 H   0  0  0  0  0  0  0  0  0  0  0  0
   -1.4564    2.5618   -4.4891 H   0  0  0  0  0  0  0  0  0  0  0  0
    1.7539    0.6778    2.5998 N   0  0  0  0  0  0  0  0  0  0  0  0
    2.3118    1.0528    3.8792 C   0  0  2  0  0  0  0  0  0  0  0  0
    3.2997    2.1885    3.6468 C   0  0  0  0  0  0  0  0  0  0  0  0
    3.8382    2.3975    2.5618 O   0  0  0  0  0  0  0  0  0  0  0  0
    2.9908   -0.1286    4.5544 C   0  0  0  0  0  0  0  0  0  0  0  0
    2.2577    0.0025    2.0327 H   0  0  0  0  0  0  0  0  0  0  0  0
    1.4794    1.4121    4.4940 H   0  0  0  0  0  0  0  0  0  0  0  0
    3.8275   -0.5023    3.9530 H   0  0  0  0  0  0  0  0  0  0  0  0
    3.3879    0.1501    5.5361 H   0  0  0  0  0  0  0  0  0  0  0  0
    2.2862   -0.9555    4.6938 H   0  0  0  0  0  0  0  0  0  0  0  0
    3.5419    2.9145    4.8045 N   0  0  0  0  0  0  0  0  0  0  0  0
    4.4521    4.0352    4.8459 C   0  0  0  0  0  0  0  0  0  0  0  0
    3.0367    2.6827    5.6547 H   0  0  0  0  0  0  0  0  0  0  0  0
    5.4525    3.6850    5.1402 H   0  0  0  0  0  0  0  0  0  0  0  0
    4.5050    4.5013    3.8509 H   0  0  0  0  0  0  0  0  0  0  0  0
    4.0919    4.7731    5.5779 H   0  0  0  0  0  0  0  0  0  0  0  0
  1  3  1  0  0  0  0
  1  7  1  0  0  0  0
  1  2  2  0  0  0  0
 34 35  1  0  0  0  0
 35 43  1  0  0  0  0
 35 36  2  0  0  0  0
  8  9  1  0  0  0  0
  9 17  1  0  0  0  0
  9 10  2  0  0  0  0
 18 19  1  0  0  0  0
 19 33  1  0  0  0  0
 19 20  2  0  0  0  0
 22 23  1  0  0  0  0
 23 24  2  0  0  0  0
 23 25  1  0  0  0  0
 34 37  1  0  0  0  0
  8 11  1  0  0  0  0
 43 44  1  0  0  0  0
 21 22  1  0  0  0  0
 18 21  1  0  0  0  0
 33 34  1  0  0  0  0
  7  8  1  0  0  0  0
 17 18  1  0  0  0  0
  3  4  1  0  0  0  0
  3  5  1  0  0  0  0
  3  6  1  0  0  0  0
 37 40  1  0  0  0  0
 37 41  1  0  0  0  0
 37 42  1  0  0  0  0
 11 14  1  0  0  0  0
 11 15  1  0  0  0  0
 11 16  1  0  0  0  0
 44 46  1  0  0  0  0
 44 47  1  0  0  0  0
 44 48  1  0  0  0  0
 22 30  1  0  0  0  0
 22 31  1  0  0  0  0
 21 28  1  0  0  0  0
 21 29  1  0  0  0  0
 34 39  1  0  0  0  0
  8 13  1  0  0  0  0
 18 27  1  0  0  0  0
 43 45  1  0  0  0  0
  7 12  1  0  0  0  0
 33 38  1  0  0  0  0
 17 26  1  0  0  0  0
 25 32  1  0  0  0  0
M  END
$$$$

  -OEChem-05262214473D

 48 47  0     1  0  0  0  0  0999 V2000
   -5.5827   -1.3473    1.4591 C   0  0  0  0  0  0  0  0  0  0  0  0
   -5.7053   -2.4696    0.9825 O   0  0  0  0  0  0  0  0  0  0  0  0
   -6.7879   -0.6277    1.9670 C   0  0  0  0  0  0  0  0  0  0  0  0
   -7.2718   -0.0164    1.1885 H   0  0  0  0  0  0  0  0  0  0  0  0
   -7.5699   -1.3171    2.3239 H   0  0  0  0  0  0  0  0  0  0  0  0
   -6.6057    0.0628    2.8060 H   0  0  0  0  0  0  0  0  0  0  0  0
   -4.4001   -0.6377    1.5884 N   0  0  0  0  0  0  0  0  0  0  0  0
   -3.1220   -1.1455    1.1644 C   0  0  2  0  0  0  0  0  0  0  0  0
   -2.2017    0.0428    0.9187 C   0  0  0  0  0  0  0  0  0  0  0  0
   -2.6171    1.1750    0.6807 O   0  0  0  0  0  0  0  0  0  0  0  0
   -3.2533   -1.9992   -0.0873 C   0  0  0  0  0  0  0  0  0  0  0  0
   -4.4370    0.2910    2.0047 H   0  0  0  0  0  0  0  0  0  0  0  0
   -2.7302   -1.7467    1.9921 H   0  0  0  0  0  0  0  0  0  0  0  0
   -3.6446   -1.4140   -0.9275 H   0  0  0  0  0  0  0  0  0  0  0  0
   -2.2844   -2.4081   -0.3922 H   0  0  0  0  0  0  0  0  0  0  0  0
   -3.9388   -2.8365    0.0822 H   0  0  0  0  0  0  0  0  0  0  0  0
   -0.8768   -0.3314    0.9568 N   0  0  0  0  0  0  0  0  0  0  0  0
    0.2067    0.6285    0.7375 C   0  0  2  0  0  0  0  0  0  0  0  0
    0.5644    1.1949    2.1082 C   0  0  0  0  0  0  0  0  0  0  0  0
   -0.2544    1.7771    2.8168 O   0  0  0  0  0  0  0  0  0  0  0  0
   -0.2688    1.7165   -0.2369 C   0  0  0  0  0  0  0  0  0  0  0  0
   -0.5233    1.2006   -1.6531 C   0  0  0  0  0  0  0  0  0  0  0  0
   -1.0112    2.2925   -2.5723 C   0  0  0  0  0  0  0  0  0  0  0  0
   -1.2993    3.4216   -2.1963 O   0  0  0  0  0  0  0  0  0  0  0  0
   -1.1239    1.8860   -3.8609 O   0  0  0  0  0  0  0  0  0  0  0  0
   -0.6087   -1.2764    1.1771 H   0  0  0  0  0  0  0  0  0  0  0  0
    1.0610    0.0940    0.3093 H   0  0  0  0  0  0  0  0  0  0  0  0
   -1.1923    2.1686    0.1489 H   0  0  0  0  0  0  0  0  0  0  0  0
    0.4741    2.5229   -0.2954 H   0  0  0  0  0  0  0  0  0  0  0  0
    0.4124    0.8202   -2.0809 H   0  0  0  0  0  0  0  0  0  0  0  0
   -1.2158    0.3525   -1.6619 H   0  0  0  0  0  0  0  0  0  0  0  0
   -1.4564    2.5618   -4.4891 H   0  0  0  0  0  0  0  0  0  0  0  0
    1.8851    0.9489    2.4535 N   0  0  0  0  0  0  0  0  0  0  0  0
    2.4710    1.3812    3.7020 C   0  0  2  0  0  0  0  0  0  0  0  0
    3.1423    2.7276    3.4651 C   0  0  0  0  0  0  0  0  0  0  0  0
    3.5036    3.1108    2.3544 O   0  0  0  0  0  0  0  0  0  0  0  0
    3.4691    0.3611    4.2273 C   0  0  0  0  0  0  0  0  0  0  0  0
    2.4691    0.4400    1.7968 H   0  0  0  0  0  0  0  0  0  0  0  0
    1.6464    1.5036    4.4127 H   0  0  0  0  0  0  0  0  0  0  0  0
    4.3025    0.2250    3.5285 H   0  0  0  0  0  0  0  0  0  0  0  0
    3.8908    0.6766    5.1873 H   0  0  0  0  0  0  0  0  0  0  0  0
    2.9914   -0.6144    4.3688 H   0  0  0  0  0  0  0  0  0  0  0  0
    3.3297    3.4322    4.6460 N   0  0  0  0  0  0  0  0  0  0  0  0
    3.9575    4.7323    4.6870 C   0  0  0  0  0  0  0  0  0  0  0  0
    2.9817    3.0463    5.5188 H   0  0  0  0  0  0  0  0  0  0  0  0
    5.0365    4.6135    4.8652 H   0  0  0  0  0  0  0  0  0  0  0  0
    3.7989    5.2463    3.7274 H   0  0  0  0  0  0  0  0  0  0  0  0
    3.5151    5.3275    5.4993 H   0  0  0  0  0  0  0  0  0  0  0  0
  1  3  1  0  0  0  0
  1  7  1  0  0  0  0
  1  2  2  0  0  0  0
 34 35  1  0  0  0  0
 35 43  1  0  0  0  0
 35 36  2  0  0  0  0
  8  9  1  0  0  0  0
  9 17  1  0  0  0  0
  9 10  2  0  0  0  0
 18 19  1  0  0  0  0
 19 33  1  0  0  0  0
 19 20  2  0  0  0  0
 22 23  1  0  0  0  0
 23 24  2  0  0  0  0
 23 25  1  0  0  0  0
 34 37  1  0  0  0  0
  8 11  1  0  0  0  0
 43 44  1  0  0  0  0
 21 22  1  0  0  0  0
 18 21  1  0  0  0  0
 33 34  1  0  0  0  0
  7  8  1  0  0  0  0
 17 18  1  0  0  0  0
  3  4  1  0  0  0  0
  3  5  1  0  0  0  0
  3  6  1  0  0  0  0
 37 40  1  0  0  0  0
 37 41  1  0  0  0  0
 37 42  1  0  0  0  0
 11 14  1  0  0  0  0
 11 15  1  0  0  0  0
 11 16  1  0  0  0  0
 44 46  1  0  0  0  0
 44 47  1  0  0  0  0
 44 48  1  0  0  0  0
 22 30  1  0  0  0  0
 22 31  1  0  0  0  0
 21 28  1  0  0  0  0
 21 29  1  0  0  0  0
 34 39  1  0  0  0  0
  8 13  1  0  0  0  0
 18 27  1  0  0  0  0
 43 45  1  0  0  0  0
  7 12  1  0  0  0  0
 33 38  1  0  0  0  0
 17 26  1  0  0  0  0
 25 32  1  0  0  0  0
M  END
$$$$

  -OEChem-05262214473D

 48 47  0     1  0  0  0  0  0999 V2000
   -5.5827   -1.3473    1.4591 C   0  0  0  0  0  0  0  0  0  0  0  0
   -5.7053   -2.4696    0.9825 O   0  0  0  0  0  0  0  0  0  0  0  0
   -6.7879   -0.6277    1.9670 C   0  0  0  0  0  0  0  0  0  0  0  0
   -7.2718   -0.0164    1.1885 H   0  0  0  0  0  0  0  0  0  0  0  0
   -7.5699   -1.3171    2.3239 H   0  0  0  0  0  0  0  0  0  0  0  0
   -6.6057    0.0628    2.8060 H   0  0  0  0  0  0  0  0  0  0  0  0
   -4.4001   -0.6377    1.5884 N   0  0  0  0  0  0  0  0  0  0  0  0
   -3.1220   -1.1455    1.1644 C   0  0  2  0  0  0  0  0  0  0  0  0
   -2.2017    0.0428    0.9187 C   0  0  0  0  0  0  0  0  0  0  0  0
   -2.6171    1.1750    0.6807 O   0  0  0  0  0  0  0  0  0  0  0  0
   -3.2533   -1.9992   -0.0873 C   0  0  0  0  0  0  0  0  0  0  0  0
   -4.4370    0.2910    2.0047 H   0  0  0  0  0  0  0  0  0  0  0  0
   -2.7302   -1.7467    1.9921 H   0  0  0  0  0  0  0  0  0  0  0  0
   -3.6446   -1.4140   -0.9275 H   0  0  0  0  0  0  0  0  0  0  0  0
   -2.2844   -2.4081   -0.3922 H   0  0  0  0  0  0  0  0  0  0  0  0
   -3.9388   -2.8365    0.0822 H   0  0  0  0  0  0  0  0  0  0  0  0
   -0.8768   -0.3314    0.9568 N   0  0  0  0  0  0  0  0  0  0  0  0
    0.2067    0.6285    0.7375 C   0  0  2  0  0  0  0  0  0  0  0  0
    0.5644    1.1949    2.1082 C   0  0  0  0  0  0  0  0  0  0  0  0
   -0.2885    1.5322    2.9269 O   0  0  0  0  0  0  0  0  0  0  0  0
   -0.2688    1.7165   -0.2369 C   0  0  0  0  0  0  0  0  0  0  0  0
   -0.5233    1.2006   -1.6531 C   0  0  0  0  0  0  0  0  0  0  0  0
   -1.0112    2.2925   -2.5723 C   0  0  0  0  0  0  0  0  0  0  0  0
   -1.2993    3.4216   -2.1963 O   0  0  0  0  0  0  0  0  0  0  0  0
   -1.1239    1.8860   -3.8609 O   0  0  0  0  0  0  0  0  0  0  0  0
   -0.6087   -1.2764    1.1771 H   0  0  0  0  0  0  0  0  0  0  0  0
    1.0610    0.0940    0.3093 H   0  0  0  0  0  0  0  0  0  0  0  0
   -1.1923    2.1686    0.1489 H   0  0  0  0  0  0  0  0  0  0  0  0
    0.4741    2.5229   -0.2954 H   0  0  0  0  0  0  0  0  0  0  0  0
    0.4124    0.8202   -2.0809 H   0  0  0  0  0  0  0  0  0  0  0  0
   -1.2158    0.3525   -1.6619 H   0  0  0  0  0  0  0  0  0  0  0  0
   -1.4564    2.5618   -4.4891 H   0  0  0  0  0  0  0  0  0  0  0  0
    1.9347    1.2501    2.3162 N   0  0  0  0  0  0  0  0  0  0  0  0
    2.5314    1.7461    3.5354 C   0  0  2  0  0  0  0  0  0  0  0  0
    2.8476    3.2227    3.3375 C   0  0  0  0  0  0  0  0  0  0  0  0
    2.9945    3.7346    2.2296 O   0  0  0  0  0  0  0  0  0  0  0  0
    3.7857    0.9651    3.8951 C   0  0  0  0  0  0  0  0  0  0  0  0
    2.5489    0.9261    1.5751 H   0  0  0  0  0  0  0  0  0  0  0  0
    1.7787    1.6357    4.3236 H   0  0  0  0  0  0  0  0  0  0  0  0
    4.5514    1.0638    3.1170 H   0  0  0  0  0  0  0  0  0  0  0  0
    4.2206    1.3233    4.8341 H   0  0  0  0  0  0  0  0  0  0  0  0
    3.5620   -0.1012    4.0079 H   0  0  0  0  0  0  0  0  0  0  0  0
    2.9890    3.8925    4.5448 N   0  0  0  0  0  0  0  0  0  0  0  0
    3.3024    5.3002    4.6233 C   0  0  0  0  0  0  0  0  0  0  0  0
    2.8310    3.3929    5.4149 H   0  0  0  0  0  0  0  0  0  0  0  0
    4.3923    5.4302    4.6959 H   0  0  0  0  0  0  0  0  0  0  0  0
    2.9319    5.8091    3.7212 H   0  0  0  0  0  0  0  0  0  0  0  0
    2.8215    5.7338    5.5125 H   0  0  0  0  0  0  0  0  0  0  0  0
  1  3  1  0  0  0  0
  1  7  1  0  0  0  0
  1  2  2  0  0  0  0
 34 35  1  0  0  0  0
 35 43  1  0  0  0  0
 35 36  2  0  0  0  0
  8  9  1  0  0  0  0
  9 17  1  0  0  0  0
  9 10  2  0  0  0  0
 18 19  1  0  0  0  0
 19 33  1  0  0  0  0
 19 20  2  0  0  0  0
 22 23  1  0  0  0  0
 23 24  2  0  0  0  0
 23 25  1  0  0  0  0
 34 37  1  0  0  0  0
  8 11  1  0  0  0  0
 43 44  1  0  0  0  0
 21 22  1  0  0  0  0
 18 21  1  0  0  0  0
 33 34  1  0  0  0  0
  7  8  1  0  0  0  0
 17 18  1  0  0  0  0
  3  4  1  0  0  0  0
  3  5  1  0  0  0  0
  3  6  1  0  0  0  0
 37 40  1  0  0  0  0
 37 41  1  0  0  0  0
 37 42  1  0  0  0  0
 11 14  1  0  0  0  0
 11 15  1  0  0  0  0
 11 16  1  0  0  0  0
 44 46  1  0  0  0  0
 44 47  1  0  0  0  0
 44 48  1  0  0  0  0
 22 30  1  0  0  0  0
 22 31  1  0  0  0  0
 21 28  1  0  0  0  0
 21 29  1  0  0  0  0
 34 39  1  0  0  0  0
  8 13  1  0  0  0  0
 18 27  1  0  0  0  0
 43 45  1  0  0  0  0
  7 12  1  0  0  0  0
 33 38  1  0  0  0  0
 17 26  1  0  0  0  0
 25 32  1  0  0  0  0
M  END
$$$$

  -OEChem-05262214473D

 48 47  0     1  0  0  0  0  0999 V2000
   -5.5827   -1.3473    1.4591 C   0  0  0  0  0  0  0  0  0  0  0  0
   -5.7053   -2.4696    0.9825 O   0  0  0  0  0  0  0  0  0  0  0  0
   -6.7879   -0.6277    1.9670 C   0  0  0  0  0  0  0  0  0  0  0  0
   -7.2718   -0.0164    1.1885 H   0  0  0  0  0  0  0  0  0  0  0  0
   -7.5699   -1.3171    2.3239 H   0  0  0  0  0  0  0  0  0  0  0  0
   -6.6057    0.0628    2.8060 H   0  0  0  0  0  0  0  0  0  0  0  0
   -4.4001   -0.6377    1.5884 N   0  0  0  0  0  0  0  0  0  0  0  0
   -3.1220   -1.1455    1.1644 C   0  0  2  0  0  0  0  0  0  0  0  0
   -2.2017    0.0428    0.9187 C   0  0  0  0  0  0  0  0  0  0  0  0
   -2.6171    1.1750    0.6807 O   0  0  0  0  0  0  0  0  0  0  0  0
   -3.2533   -1.9992   -0.0873 C   0  0  0  0  0  0  0  0  0  0  0  0
   -4.4370    0.2910    2.0047 H   0  0  0  0  0  0  0  0  0  0  0  0
   -2.7302   -1.7467    1.9921 H   0  0  0  0  0  0  0  0  0  0  0  0
   -3.6446   -1.4140   -0.9275 H   0  0  0  0  0  0  0  0  0  0  0  0
   -2.2844   -2.4081   -0.3922 H   0  0  0  0  0  0  0  0  0  0  0  0
   -3.9388   -2.8365    0.0822 H   0  0  0  0  0  0  0  0  0  0  0  0
   -0.8768   -0.3314    0.9568 N   0  0  0  0  0  0  0  0  0  0  0  0
    0.2067    0.6285    0.7375 C   0  0  2  0  0  0  0  0  0  0  0  0
    0.5644    1.1949    2.1082 C   0  0  0  0  0  0  0  0  0  0  0  0
   -0.2539    1.2810    3.0216 O   0  0  0  0  0  0  0  0  0  0  0  0
   -0.2688    1.7165   -0.2369 C   0  0  0  0  0  0  0  0  0  0  0  0
   -0.5233    1.2006   -1.6531 C   0  0  0  0  0  0  0  0  0  0  0  0
   -1.0112    2.2925   -2.5723 C   0  0  0  0  0  0  0  0  0  0  0  0
   -1.2993    3.4216   -2.1963 O   0  0  0  0  0  0  0  0  0  0  0  0
   -1.1239    1.8860   -3.8609 O   0  0  0  0  0  0  0  0  0  0  0  0
   -0.6087   -1.2764    1.1771 H   0  0  0  0  0  0  0  0  0  0  0  0
    1.0610    0.0940    0.3093 H   0  0  0  0  0  0  0  0  0  0  0  0
   -1.1923    2.1686    0.1489 H   0  0  0  0  0  0  0  0  0  0  0  0
    0.4741    2.5229   -0.2954 H   0  0  0  0  0  0  0  0  0  0  0  0
    0.4124    0.8202   -2.0809 H   0  0  0  0  0  0  0  0  0  0  0  0
   -1.2158    0.3525   -1.6619 H   0  0  0  0  0  0  0  0  0  0  0  0
   -1.4564    2.5618   -4.4891 H   0  0  0  0  0  0  0  0  0  0  0  0
    1.8993    1.5609    2.1970 N   0  0  0  0  0  0  0  0  0  0  0  0
    2.4889    2.1227    3.3909 C   0  0  2  0  0  0  0  0  0  0  0  0
    2.4354    3.6402    3.2726 C   0  0  0  0  0  0  0  0  0  0  0  0
    2.3457    4.2263    2.1958 O   0  0  0  0  0  0  0  0  0  0  0  0
    3.9193    1.6423    3.5805 C   0  0  0  0  0  0  0  0  0  0  0  0
    2.4916    1.4277    1.3829 H   0  0  0  0  0  0  0  0  0  0  0  0
    1.8671    1.7994    4.2329 H   0  0  0  0  0  0  0  0  0  0  0  0
    4.5573    1.9568    2.7465 H   0  0  0  0  0  0  0  0  0  0  0  0
    4.3548    2.0462    4.5004 H   0  0  0  0  0  0  0  0  0  0  0  0
    3.9592    0.5491    3.6355 H   0  0  0  0  0  0  0  0  0  0  0  0
    2.5432    4.2641    4.5076 N   0  0  0  0  0  0  0  0  0  0  0  0
    2.5315    5.7004    4.6592 C   0  0  0  0  0  0  0  0  0  0  0  0
    2.5948    3.6990    5.3501 H   0  0  0  0  0  0  0  0  0  0  0  0
    3.5639    6.0797    4.6438 H   0  0  0  0  0  0  0  0  0  0  0  0
    1.9629    6.1515    3.8326 H   0  0  0  0  0  0  0  0  0  0  0  0
    2.0583    5.9641    5.6166 H   0  0  0  0  0  0  0  0  0  0  0  0
  1  3  1  0  0  0  0
  1  7  1  0  0  0  0
  1  2  2  0  0  0  0
 34 35  1  0  0  0  0
 35 43  1  0  0  0  0
 35 36  2  0  0  0  0
  8  9  1  0  0  0  0
  9 17  1  0  0  0  0
  9 10  2  0  0  0  0
 18 19  1  0  0  0  0
 19 33  1  0  0  0  0
 19 20  2  0  0  0  0
 22 23  1  0  0  0  0
 23 24  2  0  0  0  0
 23 25  1  0  0  0  0
 34 37  1  0  0  0  0
  8 11  1  0  0  0  0
 43 44  1  0  0  0  0
 21 22  1  0  0  0  0
 18 21  1  0  0  0  0
 33 34  1  0  0  0  0
  7  8  1  0  0  0  0
 17 18  1  0  0  0  0
  3  4  1  0  0  0  0
  3  5  1  0  0  0  0
  3  6  1  0  0  0  0
 37 40  1  0  0  0  0
 37 41  1  0  0  0  0
 37 42  1  0  0  0  0
 11 14  1  0  0  0  0
 11 15  1  0  0  0  0
 11 16  1  0  0  0  0
 44 46  1  0  0  0  0
 44 47  1  0  0  0  0
 44 48  1  0  0  0  0
 22 30  1  0  0  0  0
 22 31  1  0  0  0  0
 21 28  1  0  0  0  0
 21 29  1  0  0  0  0
 34 39  1  0  0  0  0
  8 13  1  0  0  0  0
 18 27  1  0  0  0  0
 43 45  1  0  0  0  0
  7 12  1  0  0  0  0
 33 38  1  0  0  0  0
 17 26  1  0  0  0  0
 25 32  1  0  0  0  0
M  END
$$$$

  -OEChem-05262214473D

 48 47  0     1  0  0  0  0  0999 V2000
   -5.5827   -1.3473    1.4591 C   0  0  0  0  0  0  0  0  0  0  0  0
   -5.7053   -2.4696    0.9825 O   0  0  0  0  0  0  0  0  0  0  0  0
   -6.7879   -0.6277    1.9670 C   0  0  0  0  0  0  0  0  0  0  0  0
   -7.2718   -0.0164    1.1885 H   0  0  0  0  0  0  0  0  0  0  0  0
   -7.5699   -1.3171    2.3239 H   0  0  0  0  0  0  0  0  0  0  0  0
   -6.6057    0.0628    2.8060 H   0  0  0  0  0  0  0  0  0  0  0  0
   -4.4001   -0.6377    1.5884 N   0  0  0  0  0  0  0  0  0  0  0  0
   -3.1220   -1.1455    1.1644 C   0  0  2  0  0  0  0  0  0  0  0  0
   -2.2017    0.0428    0.9187 C   0  0  0  0  0  0  0  0  0  0  0  0
   -2.6171    1.1750    0.6807 O   0  0  0  0  0  0  0  0  0  0  0  0
   -3.2533   -1.9992   -0.0873 C   0  0  0  0  0  0  0  0  0  0  0  0
   -4.4370    0.2910    2.0047 H   0  0  0  0  0  0  0  0  0  0  0  0
   -2.7302   -1.7467    1.9921 H   0  0  0  0  0  0  0  0  0  0  0  0
   -3.6446   -1.4140   -0.9275 H   0  0  0  0  0  0  0  0  0  0  0  0
   -2.2844   -2.4081   -0.3922 H   0  0  0  0  0  0  0  0  0  0  0  0
   -3.9388   -2.8365    0.0822 H   0  0  0  0  0  0  0  0  0  0  0  0
   -0.8768   -0.3314    0.9568 N   0  0  0  0  0  0  0  0  0  0  0  0
    0.2067    0.6285    0.7375 C   0  0  2  0  0  0  0  0  0  0  0  0
    0.5644    1.1949    2.1082 C   0  0  0  0  0  0  0  0  0  0  0  0
   -0.1531    1.0407    3.0946 O   0  0  0  0  0  0  0  0  0  0  0  0
   -0.2688    1.7165   -0.2369 C   0  0  0  0  0  0  0  0  0  0  0  0
   -0.5233    1.2006   -1.6531 C   0  0  0  0  0  0  0  0  0  0  0  0
   -1.0112    2.2925   -2.5723 C   0  0  0  0  0  0  0  0  0  0  0  0
   -1.2993    3.4216   -2.1963 O   0  0  0  0  0  0  0  0  0  0  0  0
   -1.1239    1.8860   -3.8609 O   0  0  0  0  0  0  0  0  0  0  0  0
   -0.6087   -1.2764    1.1771 H   0  0  0  0  0  0  0  0  0  0  0  0
    1.0610    0.0940    0.3093 H   0  0  0  0  0  0  0  0  0  0  0  0
   -1.1923    2.1686    0.1489 H   0  0  0  0  0  0  0  0  0  0  0  0
    0.4741    2.5229   -0.2954 H   0  0  0  0  0  0  0  0  0  0  0  0
    0.4124    0.8202   -2.0809 H   0  0  0  0  0  0  0  0  0  0  0  0
   -1.2158    0.3525   -1.6619 H   0  0  0  0  0  0  0  0  0  0  0  0
   -1.4564    2.5618   -4.4891 H   0  0  0  0  0  0  0  0  0  0  0  0
    1.7815    1.8602    2.1041 N   0  0  0  0  0  0  0  0  0  0  0  0
    2.3463    2.4854    3.2783 C   0  0  2  0  0  0  0  0  0  0  0  0
    1.9340    3.9515    3.2748 C   0  0  0  0  0  0  0  0  0  0  0  0
    1.6015    4.5524    2.2553 O   0  0  0  0  0  0  0  0  0  0  0  0
    3.8605    2.3467    3.3048 C   0  0  0  0  0  0  0  0  0  0  0  0
    2.3012    1.9105    1.2331 H   0  0  0  0  0  0  0  0  0  0  0  0
    1.9058    1.9836    4.1467 H   0  0  0  0  0  0  0  0  0  0  0  0
    4.3197    2.8433    2.4423 H   0  0  0  0  0  0  0  0  0  0  0  0
    4.2843    2.7958    4.2091 H   0  0  0  0  0  0  0  0  0  0  0  0
    4.1558    1.2922    3.2772 H   0  0  0  0  0  0  0  0  0  0  0  0
    2.0226    4.5216    4.5371 N   0  0  0  0  0  0  0  0  0  0  0  0
    1.6972    5.9054    4.7922 C   0  0  0  0  0  0  0  0  0  0  0  0
    2.2893    3.9437    5.3287 H   0  0  0  0  0  0  0  0  0  0  0  0
    2.6077    6.5175    4.7125 H   0  0  0  0  0  0  0  0  0  0  0  0
    0.9580    6.2502    4.0541 H   0  0  0  0  0  0  0  0  0  0  0  0
    1.2776    6.0027    5.8044 H   0  0  0  0  0  0  0  0  0  0  0  0
  1  3  1  0  0  0  0
  1  7  1  0  0  0  0
  1  2  2  0  0  0  0
 34 35  1  0  0  0  0
 35 43  1  0  0  0  0
 35 36  2  0  0  0  0
  8  9  1  0  0  0  0
  9 17  1  0  0  0  0
  9 10  2  0  0  0  0
 18 19  1  0  0  0  0
 19 33  1  0  0  0  0
 19 20  2  0  0  0  0
 22 23  1  0  0  0  0
 23 24  2  0  0  0  0
 23 25  1  0  0  0  0
 34 37  1  0  0  0  0
  8 11  1  0  0  0  0
 43 44  1  0  0  0  0
 21 22  1  0  0  0  0
 18 21  1  0  0  0  0
 33 34  1  0  0  0  0
  7  8  1  0  0  0  0
 17 18  1  0  0  0  0
  3  4  1  0  0  0  0
  3  5  1  0  0  0  0
  3  6  1  0  0  0  0
 37 40  1  0  0  0  0
 37 41  1  0  0  0  0
 37 42  1  0  0  0  0
 11 14  1  0  0  0  0
 11 15  1  0  0  0  0
 11 16  1  0  0  0  0
 44 46  1  0  0  0  0
 44 47  1  0  0  0  0
 44 48  1  0  0  0  0
 22 30  1  0  0  0  0
 22 31  1  0  0  0  0
 21 28  1  0  0  0  0
 21 29  1  0  0  0  0
 34 39  1  0  0  0  0
  8 13  1  0  0  0  0
 18 27  1  0  0  0  0
 43 45  1  0  0  0  0
  7 12  1  0  0  0  0
 33 38  1  0  0  0  0
 17 26  1  0  0  0  0
 25 32  1  0  0  0  0
M  END
$$$$

  -OEChem-05262214473D

 48 47  0     1  0  0  0  0  0999 V2000
   -5.5827   -1.3473    1.4591 C   0  0  0  0  0  0  0  0  0  0  0  0
   -5.7053   -2.4696    0.9825 O   0  0  0  0  0  0  0  0  0  0  0  0
   -6.7879   -0.6277    1.9670 C   0  0  0  0  0  0  0  0  0  0  0  0
   -7.2718   -0.0164    1.1885 H   0  0  0  0  0  0  0  0  0  0  0  0
   -7.5699   -1.3171    2.3239 H   0  0  0  0  0  0  0  0  0  0  0  0
   -6.6057    0.0628    2.8060 H   0  0  0  0  0  0  0  0  0  0  0  0
   -4.4001   -0.6377    1.5884 N   0  0  0  0  0  0  0  0  0  0  0  0
   -3.1220   -1.1455    1.1644 C   0  0  2  0  0  0  0  0  0  0  0  0
   -2.2017    0.0428    0.9187 C   0  0  0  0  0  0  0  0  0  0  0  0
   -2.6171    1.1750    0.6807 O   0  0  0  0  0  0  0  0  0  0  0  0
   -3.2533   -1.9992   -0.0873 C   0  0  0  0  0  0  0  0  0  0  0  0
   -4.4370    0.2910    2.0047 H   0  0  0  0  0  0  0  0  0  0  0  0
   -2.7302   -1.7467    1.9921 H   0  0  0  0  0  0  0  0  0  0  0  0
   -3.6446   -1.4140   -0.9275 H   0  0  0  0  0  0  0  0  0  0  0  0
   -2.2844   -2.4081   -0.3922 H   0  0  0  0  0  0  0  0  0  0  0  0
   -3.9388   -2.8365    0.0822 H   0  0  0  0  0  0  0  0  0  0  0  0
   -0.8768   -0.3314    0.9568 N   0  0  0  0  0  0  0  0  0  0  0  0
    0.2067    0.6285    0.7375 C   0  0  2  0  0  0  0  0  0  0  0  0
    0.8177    0.9088    2.1071 C   0  0  0  0  0  0  0  0  0  0  0  0
    0.4201    0.3598    3.1328 O   0  0  0  0  0  0  0  0  0  0  0  0
   -0.3630    1.8959    0.0828 C   0  0  0  0  0  0  0  0  0  0  0  0
   -0.8771    1.6716   -1.3392 C   0  0  0  0  0  0  0  0  0  0  0  0
   -1.4496    2.9323   -1.9376 C   0  0  0  0  0  0  0  0  0  0  0  0
   -1.6084    3.9726   -1.3117 O   0  0  0  0  0  0  0  0  0  0  0  0
   -1.7968    2.7873   -3.2402 O   0  0  0  0  0  0  0  0  0  0  0  0
   -0.6087   -1.2764    1.1771 H   0  0  0  0  0  0  0  0  0  0  0  0
    0.9472    0.1689    0.0748 H   0  0  0  0  0  0  0  0  0  0  0  0
   -1.1832    2.2845    0.7010 H   0  0  0  0  0  0  0  0  0  0  0  0
    0.4033    2.6815    0.0492 H   0  0  0  0  0  0  0  0  0  0  0  0
   -0.0479    1.3611   -1.9866 H   0  0  0  0  0  0  0  0  0  0  0  0
   -1.6072    0.8570   -1.3871 H   0  0  0  0  0  0  0  0  0  0  0  0
   -2.1911    3.5798   -3.6627 H   0  0  0  0  0  0  0  0  0  0  0  0
    1.8675    1.8130    2.0426 N   0  0  0  0  0  0  0  0  0  0  0  0
    2.6141    2.2438    3.2026 C   0  0  2  0  0  0  0  0  0  0  0  0
    1.9859    3.5334    3.7141 C   0  0  0  0  0  0  0  0  0  0  0  0
    1.3043    4.2736    3.0079 O   0  0  0  0  0  0  0  0  0  0  0  0
    4.0836    2.4498    2.8696 C   0  0  0  0  0  0  0  0  0  0  0  0
    2.1240    2.1910    1.1356 H   0  0  0  0  0  0  0  0  0  0  0  0
    2.5047    1.4587    3.9587 H   0  0  0  0  0  0  0  0  0  0  0  0
    4.2132    3.2329    2.1136 H   0  0  0  0  0  0  0  0  0  0  0  0
    4.6532    2.7485    3.7558 H   0  0  0  0  0  0  0  0  0  0  0  0
    4.5263    1.5293    2.4739 H   0  0  0  0  0  0  0  0  0  0  0  0
    2.3117    3.7827    5.0399 N   0  0  0  0  0  0  0  0  0  0  0  0
    1.8475    4.9513    5.7504 C   0  0  0  0  0  0  0  0  0  0  0  0
    2.8668    3.1049    5.5540 H   0  0  0  0  0  0  0  0  0  0  0  0
    2.5943    5.7543    5.6641 H   0  0  0  0  0  0  0  0  0  0  0  0
    0.8944    5.2890    5.3173 H   0  0  0  0  0  0  0  0  0  0  0  0
    1.6997    4.7006    6.8113 H   0  0  0  0  0  0  0  0  0  0  0  0
  1  3  1  0  0  0  0
  1  7  1  0  0  0  0
  1  2  2  0  0  0  0
 34 35  1  0  0  0  0
 35 43  1  0  0  0  0
 35 36  2  0  0  0  0
  8  9  1  0  0  0  0
  9 17  1  0  0  0  0
  9 10  2  0  0  0  0
 18 19  1  0  0  0  0
 19 33  1  0  0  0  0
 19 20  2  0  0  0  0
 22 23  1  0  0  0  0
 23 24  2  0  0  0  0
 23 25  1  0  0  0  0
 34 37  1  0  0  0  0
  8 11  1  0  0  0  0
 43 44  1  0  0  0  0
 21 22  1  0  0  0  0
 18 21  1  0  0  0  0
 33 34  1  0  0  0  0
  7  8  1  0  0  0  0
 17 18  1  0  0  0  0
  3  4  1  0  0  0  0
  3  5  1  0  0  0  0
  3  6  1  0  0  0  0
 37 40  1  0  0  0  0
 37 41  1  0  0  0  0
 37 42  1  0  0  0  0
 11 14  1  0  0  0  0
 11 15  1  0  0  0  0
 11 16  1  0  0  0  0
 44 46  1  0  0  0  0
 44 47  1  0  0  0  0
 44 48  1  0  0  0  0
 22 30  1  0  0  0  0
 22 31  1  0  0  0  0
 21 28  1  0  0  0  0
 21 29  1  0  0  0  0
 34 39  1  0  0  0  0
  8 13  1  0  0  0  0
 18 27  1  0  0  0  0
 43 45  1  0  0  0  0
  7 12  1  0  0  0  0
 33 38  1  0  0  0  0
 17 26  1  0  0  0  0
 25 32  1  0  0  0  0
M  END
$$$$

  -OEChem-05262214473D

 48 47  0     1  0  0  0  0  0999 V2000
   -5.5827   -1.3473    1.4591 C   0  0  0  0  0  0  0  0  0  0  0  0
   -5.7053   -2.4696    0.9825 O   0  0  0  0  0  0  0  0  0  0  0  0
   -6.7879   -0.6277    1.9670 C   0  0  0  0  0  0  0  0  0  0  0  0
   -7.2718   -0.0164    1.1885 H   0  0  0  0  0  0  0  0  0  0  0  0
   -7.5699   -1.3171    2.3239 H   0  0  0  0  0  0  0  0  0  0  0  0
   -6.6057    0.0628    2.8060 H   0  0  0  0  0  0  0  0  0  0  0  0
   -4.4001   -0.6377    1.5884 N   0  0  0  0  0  0  0  0  0  0  0  0
   -3.1220   -1.1455    1.1644 C   0  0  2  0  0  0  0  0  0  0  0  0
   -2.2017    0.0428    0.9187 C   0  0  0  0  0  0  0  0  0  0  0  0
   -2.6171    1.1750    0.6807 O   0  0  0  0  0  0  0  0  0  0  0  0
   -3.2533   -1.9992   -0.0873 C   0  0  0  0  0  0  0  0  0  0  0  0
   -4.4370    0.2910    2.0047 H   0  0  0  0  0  0  0  0  0  0  0  0
   -2.7302   -1.7467    1.9921 H   0  0  0  0  0  0  0  0  0  0  0  0
   -3.6446   -1.4140   -0.9275 H   0  0  0  0  0  0  0  0  0  0  0  0
   -2.2844   -2.4081   -0.3922 H   0  0  0  0  0  0  0  0  0  0  0  0
   -3.9388   -2.8365    0.0822 H   0  0  0  0  0  0  0  0  0  0  0  0
   -0.8768   -0.3314    0.9568 N   0  0  0  0  0  0  0  0  0  0  0  0
    0.2067    0.6285    0.7375 C   0  0  2  0  0  0  0  0  0  0  0  0
    0.8177    0.9088    2.1071 C   0  0  0  0  0  0  0  0  0  0  0  0
    0.6190    0.1840    3.0801 O   0  0  0  0  0  0  0  0  0  0  0  0
   -0.3630    1.8959    0.0828 C   0  0  0  0  0  0  0  0  0  0  0  0
   -0.8771    1.6716   -1.3392 C   0  0  0  0  0  0  0  0  0  0  0  0
   -1.4496    2.9323   -1.9376 C   0  0  0  0  0  0  0  0  0  0  0  0
   -1.6084    3.9726   -1.3117 O   0  0  0  0  0  0  0  0  0  0  0  0
   -1.7968    2.7873   -3.2402 O   0  0  0  0  0  0  0  0  0  0  0  0
   -0.6087   -1.2764    1.1771 H   0  0  0  0  0  0  0  0  0  0  0  0
    0.9472    0.1689    0.0748 H   0  0  0  0  0  0  0  0  0  0  0  0
   -1.1832    2.2845    0.7010 H   0  0  0  0  0  0  0  0  0  0  0  0
    0.4033    2.6815    0.0492 H   0  0  0  0  0  0  0  0  0  0  0  0
   -0.0479    1.3611   -1.9866 H   0  0  0  0  0  0  0  0  0  0  0  0
   -1.6072    0.8570   -1.3871 H   0  0  0  0  0  0  0  0  0  0  0  0
   -2.1911    3.5798   -3.6627 H   0  0  0  0  0  0  0  0  0  0  0  0
    1.6257    2.0361    2.1048 N   0  0  0  0  0  0  0  0  0  0  0  0
    2.3214    2.5143    3.2778 C   0  0  2  0  0  0  0  0  0  0  0  0
    1.4453    3.5639    3.9490 C   0  0  0  0  0  0  0  0  0  0  0  0
    0.5709    4.1888    3.3524 O   0  0  0  0  0  0  0  0  0  0  0  0
    3.6816    3.0913    2.9177 C   0  0  0  0  0  0  0  0  0  0  0  0
    1.7338    2.5509    1.2360 H   0  0  0  0  0  0  0  0  0  0  0  0
    2.4407    1.6552    3.9470 H   0  0  0  0  0  0  0  0  0  0  0  0
    3.5823    3.9531    2.2477 H   0  0  0  0  0  0  0  0  0  0  0  0
    4.2192    3.4270    3.8106 H   0  0  0  0  0  0  0  0  0  0  0  0
    4.2995    2.3439    2.4084 H   0  0  0  0  0  0  0  0  0  0  0  0
    1.7838    3.7514    5.2818 N   0  0  0  0  0  0  0  0  0  0  0  0
    1.1067    4.7029    6.1317 C   0  0  0  0  0  0  0  0  0  0  0  0
    2.5095    3.1759    5.6988 H   0  0  0  0  0  0  0  0  0  0  0  0
    1.6425    5.6633    6.1073 H   0  0  0  0  0  0  0  0  0  0  0  0
    0.0774    4.8481    5.7720 H   0  0  0  0  0  0  0  0  0  0  0  0
    1.0843    4.3218    7.1633 H   0  0  0  0  0  0  0  0  0  0  0  0
  1  3  1  0  0  0  0
  1  7  1  0  0  0  0
  1  2  2  0  0  0  0
 34 35  1  0  0  0  0
 35 43  1  0  0  0  0
 35 36  2  0  0  0  0
  8  9  1  0  0  0  0
  9 17  1  0  0  0  0
  9 10  2  0  0  0  0
 18 19  1  0  0  0  0
 19 33  1  0  0  0  0
 19 20  2  0  0  0  0
 22 23  1  0  0  0  0
 23 24  2  0  0  0  0
 23 25  1  0  0  0  0
 34 37  1  0  0  0  0
  8 11  1  0  0  0  0
 43 44  1  0  0  0  0
 21 22  1  0  0  0  0
 18 21  1  0  0  0  0
 33 34  1  0  0  0  0
  7  8  1  0  0  0  0
 17 18  1  0  0  0  0
  3  4  1  0  0  0  0
  3  5  1  0  0  0  0
  3  6  1  0  0  0  0
 37 40  1  0  0  0  0
 37 41  1  0  0  0  0
 37 42  1  0  0  0  0
 11 14  1  0  0  0  0
 11 15  1  0  0  0  0
 11 16  1  0  0  0  0
 44 46  1  0  0  0  0
 44 47  1  0  0  0  0
 44 48  1  0  0  0  0
 22 30  1  0  0  0  0
 22 31  1  0  0  0  0
 21 28  1  0  0  0  0
 21 29  1  0  0  0  0
 34 39  1  0  0  0  0
  8 13  1  0  0  0  0
 18 27  1  0  0  0  0
 43 45  1  0  0  0  0
  7 12  1  0  0  0  0
 33 38  1  0  0  0  0
 17 26  1  0  0  0  0
 25 32  1  0  0  0  0
M  END
$$$$

  -OEChem-05262214473D

 48 47  0     1  0  0  0  0  0999 V2000
   -5.5827   -1.3473    1.4591 C   0  0  0  0  0  0  0  0  0  0  0  0
   -5.7053   -2.4696    0.9825 O   0  0  0  0  0  0  0  0  0  0  0  0
   -6.7879   -0.6277    1.9670 C   0  0  0  0  0  0  0  0  0  0  0  0
   -7.2718   -0.0164    1.1885 H   0  0  0  0  0  0  0  0  0  0  0  0
   -7.5699   -1.3171    2.3239 H   0  0  0  0  0  0  0  0  0  0  0  0
   -6.6057    0.0628    2.8060 H   0  0  0  0  0  0  0  0  0  0  0  0
   -4.4001   -0.6377    1.5884 N   0  0  0  0  0  0  0  0  0  0  0  0
   -3.1220   -1.1455    1.1644 C   0  0  2  0  0  0  0  0  0  0  0  0
   -2.2017    0.0428    0.9187 C   0  0  0  0  0  0  0  0  0  0  0  0
   -2.6171    1.1750    0.6807 O   0  0  0  0  0  0  0  0  0  0  0  0
   -3.2533   -1.9992   -0.0873 C   0  0  0  0  0  0  0  0  0  0  0  0
   -4.4370    0.2910    2.0047 H   0  0  0  0  0  0  0  0  0  0  0  0
   -2.7302   -1.7467    1.9921 H   0  0  0  0  0  0  0  0  0  0  0  0
   -3.6446   -1.4140   -0.9275 H   0  0  0  0  0  0  0  0  0  0  0  0
   -2.2844   -2.4081   -0.3922 H   0  0  0  0  0  0  0  0  0  0  0  0
   -3.9388   -2.8365    0.0822 H   0  0  0  0  0  0  0  0  0  0  0  0
   -0.8768   -0.3314    0.9568 N   0  0  0  0  0  0  0  0  0  0  0  0
    0.2067    0.6285    0.7375 C   0  0  2  0  0  0  0  0  0  0  0  0
    0.8177    0.9088    2.1071 C   0  0  0  0  0  0  0  0  0  0  0  0
    0.8494    0.0658    3.0014 O   0  0  0  0  0  0  0  0  0  0  0  0
   -0.3630    1.8959    0.0828 C   0  0  0  0  0  0  0  0  0  0  0  0
   -0.8771    1.6716   -1.3392 C   0  0  0  0  0  0  0  0  0  0  0  0
   -1.4496    2.9323   -1.9376 C   0  0  0  0  0  0  0  0  0  0  0  0
   -1.6084    3.9726   -1.3117 O   0  0  0  0  0  0  0  0  0  0  0  0
   -1.7968    2.7873   -3.2402 O   0  0  0  0  0  0  0  0  0  0  0  0
   -0.6087   -1.2764    1.1771 H   0  0  0  0  0  0  0  0  0  0  0  0
    0.9472    0.1689    0.0748 H   0  0  0  0  0  0  0  0  0  0  0  0
   -1.1832    2.2845    0.7010 H   0  0  0  0  0  0  0  0  0  0  0  0
    0.4033    2.6815    0.0492 H   0  0  0  0  0  0  0  0  0  0  0  0
   -0.0479    1.3611   -1.9866 H   0  0  0  0  0  0  0  0  0  0  0  0
   -1.6072    0.8570   -1.3871 H   0  0  0  0  0  0  0  0  0  0  0  0
   -2.1911    3.5798   -3.6627 H   0  0  0  0  0  0  0  0  0  0  0  0
    1.3434    2.1890    2.1995 N   0  0  0  0  0  0  0  0  0  0  0  0
    1.9794    2.6999    3.3925 C   0  0  2  0  0  0  0  0  0  0  0  0
    0.9273    3.4433    4.2048 C   0  0  0  0  0  0  0  0  0  0  0  0
   -0.1015    3.9007    3.7113 O   0  0  0  0  0  0  0  0  0  0  0  0
    3.1465    3.6126    3.0497 C   0  0  0  0  0  0  0  0  0  0  0  0
    1.2781    2.7973    1.3889 H   0  0  0  0  0  0  0  0  0  0  0  0
    2.3327    1.8315    3.9591 H   0  0  0  0  0  0  0  0  0  0  0  0
    2.8119    4.4884    2.4819 H   0  0  0  0  0  0  0  0  0  0  0  0
    3.6450    3.9760    3.9544 H   0  0  0  0  0  0  0  0  0  0  0  0
    3.8881    3.0848    2.4404 H   0  0  0  0  0  0  0  0  0  0  0  0
    1.2926    3.5735    5.5373 N   0  0  0  0  0  0  0  0  0  0  0  0
    0.4671    4.2513    6.5095 C   0  0  0  0  0  0  0  0  0  0  0  0
    2.1548    3.1465    5.8631 H   0  0  0  0  0  0  0  0  0  0  0  0
    0.7653    5.3083    6.5713 H   0  0  0  0  0  0  0  0  0  0  0  0
   -0.5877    4.1853    6.2043 H   0  0  0  0  0  0  0  0  0  0  0  0
    0.5945    3.7763    7.4934 H   0  0  0  0  0  0  0  0  0  0  0  0
  1  3  1  0  0  0  0
  1  7  1  0  0  0  0
  1  2  2  0  0  0  0
 34 35  1  0  0  0  0
 35 43  1  0  0  0  0
 35 36  2  0  0  0  0
  8  9  1  0  0  0  0
  9 17  1  0  0  0  0
  9 10  2  0  0  0  0
 18 19  1  0  0  0  0
 19 33  1  0  0  0  0
 19 20  2  0  0  0  0
 22 23  1  0  0  0  0
 23 24  2  0  0  0  0
 23 25  1  0  0  0  0
 34 37  1  0  0  0  0
  8 11  1  0  0  0  0
 43 44  1  0  0  0  0
 21 22  1  0  0  0  0
 18 21  1  0  0  0  0
 33 34  1  0  0  0  0
  7  8  1  0  0  0  0
 17 18  1  0  0  0  0
  3  4  1  0  0  0  0
  3  5  1  0  0  0  0
  3  6  1  0  0  0  0
 37 40  1  0  0  0  0
 37 41  1  0  0  0  0
 37 42  1  0  0  0  0
 11 14  1  0  0  0  0
 11 15  1  0  0  0  0
 11 16  1  0  0  0  0
 44 46  1  0  0  0  0
 44 47  1  0  0  0  0
 44 48  1  0  0  0  0
 22 30  1  0  0  0  0
 22 31  1  0  0  0  0
 21 28  1  0  0  0  0
 21 29  1  0  0  0  0
 34 39  1  0  0  0  0
  8 13  1  0  0  0  0
 18 27  1  0  0  0  0
 43 45  1  0  0  0  0
  7 12  1  0  0  0  0
 33 38  1  0  0  0  0
 17 26  1  0  0  0  0
 25 32  1  0  0  0  0
M  END
$$$$

  -OEChem-05262214473D

 48 47  0     1  0  0  0  0  0999 V2000
   -5.5827   -1.3473    1.4591 C   0  0  0  0  0  0  0  0  0  0  0  0
   -5.7053   -2.4696    0.9825 O   0  0  0  0  0  0  0  0  0  0  0  0
   -6.7879   -0.6277    1.9670 C   0  0  0  0  0  0  0  0  0  0  0  0
   -7.2718   -0.0164    1.1885 H   0  0  0  0  0  0  0  0  0  0  0  0
   -7.5699   -1.3171    2.3239 H   0  0  0  0  0  0  0  0  0  0  0  0
   -6.6057    0.0628    2.8060 H   0  0  0  0  0  0  0  0  0  0  0  0
   -4.4001   -0.6377    1.5884 N   0  0  0  0  0  0  0  0  0  0  0  0
   -3.1220   -1.1455    1.1644 C   0  0  2  0  0  0  0  0  0  0  0  0
   -2.2017    0.0428    0.9187 C   0  0  0  0  0  0  0  0  0  0  0  0
   -2.6171    1.1750    0.6807 O   0  0  0  0  0  0  0  0  0  0  0  0
   -3.2533   -1.9992   -0.0873 C   0  0  0  0  0  0  0  0  0  0  0  0
   -4.4370    0.2910    2.0047 H   0  0  0  0  0  0  0  0  0  0  0  0
   -2.7302   -1.7467    1.9921 H   0  0  0  0  0  0  0  0  0  0  0  0
   -3.6446   -1.4140   -0.9275 H   0  0  0  0  0  0  0  0  0  0  0  0
   -2.2844   -2.4081   -0.3922 H   0  0  0  0  0  0  0  0  0  0  0  0
   -3.9388   -2.8365    0.0822 H   0  0  0  0  0  0  0  0  0  0  0  0
   -0.8768   -0.3314    0.9568 N   0  0  0  0  0  0  0  0  0  0  0  0
    0.2067    0.6285    0.7375 C   0  0  2  0  0  0  0  0  0  0  0  0
    0.8177    0.9088    2.1071 C   0  0  0  0  0  0  0  0  0  0  0  0
    1.0958    0.0134    2.9023 O   0  0  0  0  0  0  0  0  0  0  0  0
   -0.3630    1.8959    0.0828 C   0  0  0  0  0  0  0  0  0  0  0  0
   -0.8771    1.6716   -1.3392 C   0  0  0  0  0  0  0  0  0  0  0  0
   -1.4496    2.9323   -1.9376 C   0  0  0  0  0  0  0  0  0  0  0  0
   -1.6084    3.9726   -1.3117 O   0  0  0  0  0  0  0  0  0  0  0  0
   -1.7968    2.7873   -3.2402 O   0  0  0  0  0  0  0  0  0  0  0  0
   -0.6087   -1.2764    1.1771 H   0  0  0  0  0  0  0  0  0  0  0  0
    0.9472    0.1689    0.0748 H   0  0  0  0  0  0  0  0  0  0  0  0
   -1.1832    2.2845    0.7010 H   0  0  0  0  0  0  0  0  0  0  0  0
    0.4033    2.6815    0.0492 H   0  0  0  0  0  0  0  0  0  0  0  0
   -0.0479    1.3611   -1.9866 H   0  0  0  0  0  0  0  0  0  0  0  0
   -1.6072    0.8570   -1.3871 H   0  0  0  0  0  0  0  0  0  0  0  0
   -2.1911    3.5798   -3.6627 H   0  0  0  0  0  0  0  0  0  0  0  0
    1.0396    2.2613    2.3202 N   0  0  0  0  0  0  0  0  0  0  0  0
    1.6113    2.7877    3.5387 C   0  0  2  0  0  0  0  0  0  0  0  0
    0.4670    3.1799    4.4640 C   0  0  0  0  0  0  0  0  0  0  0  0
   -0.6669    3.4291    4.0601 O   0  0  0  0  0  0  0  0  0  0  0  0
    2.5148    3.9781    3.2568 C   0  0  0  0  0  0  0  0  0  0  0  0
    0.7880    2.9137    1.5838 H   0  0  0  0  0  0  0  0  0  0  0  0
    2.1881    1.9753    3.9942 H   0  0  0  0  0  0  0  0  0  0  0  0
    1.9545    4.8022    2.8001 H   0  0  0  0  0  0  0  0  0  0  0  0
    2.9696    4.3579    4.1776 H   0  0  0  0  0  0  0  0  0  0  0  0
    3.3200    3.7016    2.5676 H   0  0  0  0  0  0  0  0  0  0  0  0
    0.8717    3.2610    5.7891 N   0  0  0  0  0  0  0  0  0  0  0  0
   -0.0279    3.6273    6.8579 C   0  0  0  0  0  0  0  0  0  0  0  0
    1.8268    3.0186    6.0356 H   0  0  0  0  0  0  0  0  0  0  0  0
    0.0226    4.7135    7.0243 H   0  0  0  0  0  0  0  0  0  0  0  0
   -1.0556    3.3457    6.5848 H   0  0  0  0  0  0  0  0  0  0  0  0
    0.2639    3.1015    7.7790 H   0  0  0  0  0  0  0  0  0  0  0  0
  1  3  1  0  0  0  0
  1  7  1  0  0  0  0
  1  2  2  0  0  0  0
 34 35  1  0  0  0  0
 35 43  1  0  0  0  0
 35 36  2  0  0  0  0
  8  9  1  0  0  0  0
  9 17  1  0  0  0  0
  9 10  2  0  0  0  0
 18 19  1  0  0  0  0
 19 33  1  0  0  0  0
 19 20  2  0  0  0  0
 22 23  1  0  0  0  0
 23 24  2  0  0  0  0
 23 25  1  0  0  0  0
 34 37  1  0  0  0  0
  8 11  1  0  0  0  0
 43 44  1  0  0  0  0
 21 22  1  0  0  0  0
 18 21  1  0  0  0  0
 33 34  1  0  0  0  0
  7  8  1  0  0  0  0
 17 18  1  0  0  0  0
  3  4  1  0  0  0  0
  3  5  1  0  0  0  0
  3  6  1  0  0  0  0
 37 40  1  0  0  0  0
 37 41  1  0  0  0  0
 37 42  1  0  0  0  0
 11 14  1  0  0  0  0
 11 15  1  0  0  0  0
 11 16  1  0  0  0  0
 44 46  1  0  0  0  0
 44 47  1  0  0  0  0
 44 48  1  0  0  0  0
 22 30  1  0  0  0  0
 22 31  1  0  0  0  0
 21 28  1  0  0  0  0
 21 29  1  0  0  0  0
 34 39  1  0  0  0  0
  8 13  1  0  0  0  0
 18 27  1  0  0  0  0
 43 45  1  0  0  0  0
  7 12  1  0  0  0  0
 33 38  1  0  0  0  0
 17 26  1  0  0  0  0
 25 32  1  0  0  0  0
M  END
$$$$

  -OEChem-05262214473D

 48 47  0     1  0  0  0  0  0999 V2000
   -5.5827   -1.3473    1.4591 C   0  0  0  0  0  0  0  0  0  0  0  0
   -5.7053   -2.4696    0.9825 O   0  0  0  0  0  0  0  0  0  0  0  0
   -6.7879   -0.6277    1.9670 C   0  0  0  0  0  0  0  0  0  0  0  0
   -7.2718   -0.0164    1.1885 H   0  0  0  0  0  0  0  0  0  0  0  0
   -7.5699   -1.3171    2.3239 H   0  0  0  0  0  0  0  0  0  0  0  0
   -6.6057    0.0628    2.8060 H   0  0  0  0  0  0  0  0  0  0  0  0
   -4.4001   -0.6377    1.5884 N   0  0  0  0  0  0  0  0  0  0  0  0
   -3.1220   -1.1455    1.1644 C   0  0  2  0  0  0  0  0  0  0  0  0
   -2.2017    0.0428    0.9187 C   0  0  0  0  0  0  0  0  0  0  0  0
   -2.6171    1.1750    0.6807 O   0  0  0  0  0  0  0  0  0  0  0  0
   -3.2533   -1.9992   -0.0873 C   0  0  0  0  0  0  0  0  0  0  0  0
   -4.4370    0.2910    2.0047 H   0  0  0  0  0  0  0  0  0  0  0  0
   -2.7302   -1.7467    1.9921 H   0  0  0  0  0  0  0  0  0  0  0  0
   -3.6446   -1.4140   -0.9275 H   0  0  0  0  0  0  0  0  0  0  0  0
   -2.2844   -2.4081   -0.3922 H   0  0  0  0  0  0  0  0  0  0  0  0
   -3.9388   -2.8365    0.0822 H   0  0  0  0  0  0  0  0  0  0  0  0
   -0.8768   -0.3314    0.9568 N   0  0  0  0  0  0  0  0  0  0  0  0
    0.2067    0.6285    0.7375 C   0  0  2  0  0  0  0  0  0  0  0  0
    0.8177    0.9088    2.1071 C   0  0  0  0  0  0  0  0  0  0  0  0
    1.3411    0.0302    2.7894 O   0  0  0  0  0  0  0  0  0  0  0  0
   -0.3630    1.8959    0.0828 C   0  0  0  0  0  0  0  0  0  0  0  0
   -0.8771    1.6716   -1.3392 C   0  0  0  0  0  0  0  0  0  0  0  0
   -1.4496    2.9323   -1.9376 C   0  0  0  0  0  0  0  0  0  0  0  0
   -1.6084    3.9726   -1.3117 O   0  0  0  0  0  0  0  0  0  0  0  0
   -1.7968    2.7873   -3.2402 O   0  0  0  0  0  0  0  0  0  0  0  0
   -0.6087   -1.2764    1.1771 H   0  0  0  0  0  0  0  0  0  0  0  0
    0.9472    0.1689    0.0748 H   0  0  0  0  0  0  0  0  0  0  0  0
   -1.1832    2.2845    0.7010 H   0  0  0  0  0  0  0  0  0  0  0  0
    0.4033    2.6815    0.0492 H   0  0  0  0  0  0  0  0  0  0  0  0
   -0.0479    1.3611   -1.9866 H   0  0  0  0  0  0  0  0  0  0  0  0
   -1.6072    0.8570   -1.3871 H   0  0  0  0  0  0  0  0  0  0  0  0
   -2.1911    3.5798   -3.6627 H   0  0  0  0  0  0  0  0  0  0  0  0
    0.7352    2.2480    2.4587 N   0  0  0  0  0  0  0  0  0  0  0  0
    1.2424    2.7719    3.7065 C   0  0  2  0  0  0  0  0  0  0  0  0
    0.0960    2.7917    4.7089 C   0  0  0  0  0  0  0  0  0  0  0  0
   -1.0869    2.8060    4.3749 O   0  0  0  0  0  0  0  0  0  0  0  0
    1.8295    4.1629    3.5246 C   0  0  0  0  0  0  0  0  0  0  0  0
    0.2967    2.8920    1.8074 H   0  0  0  0  0  0  0  0  0  0  0  0
    2.0165    2.0771    4.0499 H   0  0  0  0  0  0  0  0  0  0  0  0
    1.0686    4.8730    3.1809 H   0  0  0  0  0  0  0  0  0  0  0  0
    2.2391    4.5467    4.4648 H   0  0  0  0  0  0  0  0  0  0  0  0
    2.6341    4.1522    2.7814 H   0  0  0  0  0  0  0  0  0  0  0  0
    0.5497    2.8353    6.0198 N   0  0  0  0  0  0  0  0  0  0  0  0
   -0.3445    2.8735    7.1534 C   0  0  0  0  0  0  0  0  0  0  0  0
    1.5479    2.8011    6.2045 H   0  0  0  0  0  0  0  0  0  0  0  0
   -0.5352    3.9194    7.4356 H   0  0  0  0  0  0  0  0  0  0  0  0
   -1.2943    2.3866    6.8876 H   0  0  0  0  0  0  0  0  0  0  0  0
    0.1149    2.3432    8.0006 H   0  0  0  0  0  0  0  0  0  0  0  0
  1  3  1  0  0  0  0
  1  7  1  0  0  0  0
  1  2  2  0  0  0  0
 34 35  1  0  0  0  0
 35 43  1  0  0  0  0
 35 36  2  0  0  0  0
  8  9  1  0  0  0  0
  9 17  1  0  0  0  0
  9 10  2  0  0  0  0
 18 19  1  0  0  0  0
 19 33  1  0  0  0  0
 19 20  2  0  0  0  0
 22 23  1  0  0  0  0
 23 24  2  0  0  0  0
 23 25  1  0  0  0  0
 34 37  1  0  0  0  0
  8 11  1  0  0  0  0
 43 44  1  0  0  0  0
 21 22  1  0  0  0  0
 18 21  1  0  0  0  0
 33 34  1  0  0  0  0
  7  8  1  0  0  0  0
 17 18  1  0  0  0  0
  3  4  1  0  0  0  0
  3  5  1  0  0  0  0
  3  6  1  0  0  0  0
 37 40  1  0  0  0  0
 37 41  1  0  0  0  0
 37 42  1  0  0  0  0
 11 14  1  0  0  0  0
 11 15  1  0  0  0  0
 11 16  1  0  0  0  0
 44 46  1  0  0  0  0
 44 47  1  0  0  0  0
 44 48  1  0  0  0  0
 22 30  1  0  0  0  0
 22 31  1  0  0  0  0
 21 28  1  0  0  0  0
 21 29  1  0  0  0  0
 34 39  1  0  0  0  0
  8 13  1  0  0  0  0
 18 27  1  0  0  0  0
 43 45  1  0  0  0  0
  7 12  1  0  0  0  0
 33 38  1  0  0  0  0
 17 26  1  0  0  0  0
 25 32  1  0  0  0  0
M  END
$$$$

  -OEChem-05262214473D

 48 47  0     1  0  0  0  0  0999 V2000
   -5.5827   -1.3473    1.4591 C   0  0  0  0  0  0  0  0  0  0  0  0
   -5.7053   -2.4696    0.9825 O   0  0  0  0  0  0  0  0  0  0  0  0
   -6.7879   -0.6277    1.9670 C   0  0  0  0  0  0  0  0  0  0  0  0
   -7.2718   -0.0164    1.1885 H   0  0  0  0  0  0  0  0  0  0  0  0
   -7.5699   -1.3171    2.3239 H   0  0  0  0  0  0  0  0  0  0  0  0
   -6.6057    0.0628    2.8060 H   0  0  0  0  0  0  0  0  0  0  0  0
   -4.4001   -0.6377    1.5884 N   0  0  0  0  0  0  0  0  0  0  0  0
   -3.1220   -1.1455    1.1644 C   0  0  2  0  0  0  0  0  0  0  0  0
   -2.2017    0.0428    0.9187 C   0  0  0  0  0  0  0  0  0  0  0  0
   -2.6171    1.1750    0.6807 O   0  0  0  0  0  0  0  0  0  0  0  0
   -3.2533   -1.9992   -0.0873 C   0  0  0  0  0  0  0  0  0  0  0  0
   -4.4370    0.2910    2.0047 H   0  0  0  0  0  0  0  0  0  0  0  0
   -2.7302   -1.7467    1.9921 H   0  0  0  0  0  0  0  0  0  0  0  0
   -3.6446   -1.4140   -0.9275 H   0  0  0  0  0  0  0  0  0  0  0  0
   -2.2844   -2.4081   -0.3922 H   0  0  0  0  0  0  0  0  0  0  0  0
   -3.9388   -2.8365    0.0822 H   0  0  0  0  0  0  0  0  0  0  0  0
   -0.8768   -0.3314    0.9568 N   0  0  0  0  0  0  0  0  0  0  0  0
    0.2067    0.6285    0.7375 C   0  0  2  0  0  0  0  0  0  0  0  0
    0.8177    0.9088    2.1071 C   0  0  0  0  0  0  0  0  0  0  0  0
    1.5689    0.1152    2.6704 O   0  0  0  0  0  0  0  0  0  0  0  0
   -0.3630    1.8959    0.0828 C   0  0  0  0  0  0  0  0  0  0  0  0
   -0.8771    1.6716   -1.3392 C   0  0  0  0  0  0  0  0  0  0  0  0
   -1.4496    2.9323   -1.9376 C   0  0  0  0  0  0  0  0  0  0  0  0
   -1.6084    3.9726   -1.3117 O   0  0  0  0  0  0  0  0  0  0  0  0
   -1.7968    2.7873   -3.2402 O   0  0  0  0  0  0  0  0  0  0  0  0
   -0.6087   -1.2764    1.1771 H   0  0  0  0  0  0  0  0  0  0  0  0
    0.9472    0.1689    0.0748 H   0  0  0  0  0  0  0  0  0  0  0  0
   -1.1832    2.2845    0.7010 H   0  0  0  0  0  0  0  0  0  0  0  0
    0.4033    2.6815    0.0492 H   0  0  0  0  0  0  0  0  0  0  0  0
   -0.0479    1.3611   -1.9866 H   0  0  0  0  0  0  0  0  0  0  0  0
   -1.6072    0.8570   -1.3871 H   0  0  0  0  0  0  0  0  0  0  0  0
   -2.1911    3.5798   -3.6627 H   0  0  0  0  0  0  0  0  0  0  0  0
    0.4507    2.1500    2.6057 N   0  0  0  0  0  0  0  0  0  0  0  0
    0.8977    2.6535    3.8845 C   0  0  2  0  0  0  0  0  0  0  0  0
   -0.1606    2.3052    4.9229 C   0  0  0  0  0  0  0  0  0  0  0  0
   -1.3329    2.0739    4.6345 O   0  0  0  0  0  0  0  0  0  0  0  0
    1.1374    4.1544    3.8351 C   0  0  0  0  0  0  0  0  0  0  0  0
   -0.1621    2.7338    2.0444 H   0  0  0  0  0  0  0  0  0  0  0  0
    1.8299    2.1297    4.1224 H   0  0  0  0  0  0  0  0  0  0  0  0
    0.2145    4.6962    3.5981 H   0  0  0  0  0  0  0  0  0  0  0  0
    1.5032    4.5296    4.7966 H   0  0  0  0  0  0  0  0  0  0  0  0
    1.8770    4.4059    3.0672 H   0  0  0  0  0  0  0  0  0  0  0  0
    0.3485    2.3253    6.2139 N   0  0  0  0  0  0  0  0  0  0  0  0
   -0.4611    2.0412    7.3757 C   0  0  0  0  0  0  0  0  0  0  0  0
    1.3371    2.5086    6.3584 H   0  0  0  0  0  0  0  0  0  0  0  0
   -0.8698    2.9802    7.7771 H   0  0  0  0  0  0  0  0  0  0  0  0
   -1.2877    1.3733    7.0920 H   0  0  0  0  0  0  0  0  0  0  0  0
    0.1577    1.5532    8.1432 H   0  0  0  0  0  0  0  0  0  0  0  0
  1  3  1  0  0  0  0
  1  7  1  0  0  0  0
  1  2  2  0  0  0  0
 34 35  1  0  0  0  0
 35 43  1  0  0  0  0
 35 36  2  0  0  0  0
  8  9  1  0  0  0  0
  9 17  1  0  0  0  0
  9 10  2  0  0  0  0
 18 19  1  0  0  0  0
 19 33  1  0  0  0  0
 19 20  2  0  0  0  0
 22 23  1  0  0  0  0
 23 24  2  0  0  0  0
 23 25  1  0  0  0  0
 34 37  1  0  0  0  0
  8 11  1  0  0  0  0
 43 44  1  0  0  0  0
 21 22  1  0  0  0  0
 18 21  1  0  0  0  0
 33 34  1  0  0  0  0
  7  8  1  0  0  0  0
 17 18  1  0  0  0  0
  3  4  1  0  0  0  0
  3  5  1  0  0  0  0
  3  6  1  0  0  0  0
 37 40  1  0  0  0  0
 37 41  1  0  0  0  0
 37 42  1  0  0  0  0
 11 14  1  0  0  0  0
 11 15  1  0  0  0  0
 11 16  1  0  0  0  0
 44 46  1  0  0  0  0
 44 47  1  0  0  0  0
 44 48  1  0  0  0  0
 22 30  1  0  0  0  0
 22 31  1  0  0  0  0
 21 28  1  0  0  0  0
 21 29  1  0  0  0  0
 34 39  1  0  0  0  0
  8 13  1  0  0  0  0
 18 27  1  0  0  0  0
 43 45  1  0  0  0  0
  7 12  1  0  0  0  0
 33 38  1  0  0  0  0
 17 26  1  0  0  0  0
 25 32  1  0  0  0  0
M  END
$$$$

  -OEChem-05262214473D

 48 47  0     1  0  0  0  0  0999 V2000
   -5.5827   -1.3473    1.4591 C   0  0  0  0  0  0  0  0  0  0  0  0
   -5.7053   -2.4696    0.9825 O   0  0  0  0  0  0  0  0  0  0  0  0
   -6.7879   -0.6277    1.9670 C   0  0  0  0  0  0  0  0  0  0  0  0
   -7.2718   -0.0164    1.1885 H   0  0  0  0  0  0  0  0  0  0  0  0
   -7.5699   -1.3171    2.3239 H   0  0  0  0  0  0  0  0  0  0  0  0
   -6.6057    0.0628    2.8060 H   0  0  0  0  0  0  0  0  0  0  0  0
   -4.4001   -0.6377    1.5884 N   0  0  0  0  0  0  0  0  0  0  0  0
   -3.1220   -1.1455    1.1644 C   0  0  2  0  0  0  0  0  0  0  0  0
   -2.2017    0.0428    0.9187 C   0  0  0  0  0  0  0  0  0  0  0  0
   -2.6171    1.1750    0.6807 O   0  0  0  0  0  0  0  0  0  0  0  0
   -3.2533   -1.9992   -0.0873 C   0  0  0  0  0  0  0  0  0  0  0  0
   -4.4370    0.2910    2.0047 H   0  0  0  0  0  0  0  0  0  0  0  0
   -2.7302   -1.7467    1.9921 H   0  0  0  0  0  0  0  0  0  0  0  0
   -3.6446   -1.4140   -0.9275 H   0  0  0  0  0  0  0  0  0  0  0  0
   -2.2844   -2.4081   -0.3922 H   0  0  0  0  0  0  0  0  0  0  0  0
   -3.9388   -2.8365    0.0822 H   0  0  0  0  0  0  0  0  0  0  0  0
   -0.8768   -0.3314    0.9568 N   0  0  0  0  0  0  0  0  0  0  0  0
    0.2067    0.6285    0.7375 C   0  0  2  0  0  0  0  0  0  0  0  0
    0.8177    0.9088    2.1071 C   0  0  0  0  0  0  0  0  0  0  0  0
    1.7635    0.2625    2.5534 O   0  0  0  0  0  0  0  0  0  0  0  0
   -0.3630    1.8959    0.0828 C   0  0  0  0  0  0  0  0  0  0  0  0
   -0.8771    1.6716   -1.3392 C   0  0  0  0  0  0  0  0  0  0  0  0
   -1.4496    2.9323   -1.9376 C   0  0  0  0  0  0  0  0  0  0  0  0
   -1.6084    3.9726   -1.3117 O   0  0  0  0  0  0  0  0  0  0  0  0
   -1.7968    2.7873   -3.2402 O   0  0  0  0  0  0  0  0  0  0  0  0
   -0.6087   -1.2764    1.1771 H   0  0  0  0  0  0  0  0  0  0  0  0
    0.9472    0.1689    0.0748 H   0  0  0  0  0  0  0  0  0  0  0  0
   -1.1832    2.2845    0.7010 H   0  0  0  0  0  0  0  0  0  0  0  0
    0.4033    2.6815    0.0492 H   0  0  0  0  0  0  0  0  0  0  0  0
   -0.0479    1.3611   -1.9866 H   0  0  0  0  0  0  0  0  0  0  0  0
   -1.6072    0.8570   -1.3871 H   0  0  0  0  0  0  0  0  0  0  0  0
   -2.1911    3.5798   -3.6627 H   0  0  0  0  0  0  0  0  0  0  0  0
    0.2058    1.9741    2.7509 N   0  0  0  0  0  0  0  0  0  0  0  0
    0.6006    2.4406    4.0606 C   0  0  2  0  0  0  0  0  0  0  0  0
   -0.2852    1.7534    5.0914 C   0  0  0  0  0  0  0  0  0  0  0  0
   -1.3881    1.2827    4.8209 O   0  0  0  0  0  0  0  0  0  0  0  0
    0.4856    3.9533    4.1671 C   0  0  0  0  0  0  0  0  0  0  0  0
   -0.5573    2.4497    2.2788 H   0  0  0  0  0  0  0  0  0  0  0  0
    1.6408    2.1297    4.2067 H   0  0  0  0  0  0  0  0  0  0  0  0
   -0.5496    4.2837    4.0234 H   0  0  0  0  0  0  0  0  0  0  0  0
    0.8122    4.3078    5.1503 H   0  0  0  0  0  0  0  0  0  0  0  0
    1.1003    4.4454    3.4056 H   0  0  0  0  0  0  0  0  0  0  0  0
    0.2819    1.7659    6.3581 N   0  0  0  0  0  0  0  0  0  0  0  0
   -0.3697    1.1871    7.5097 C   0  0  0  0  0  0  0  0  0  0  0  0
    1.2087    2.1611    6.4867 H   0  0  0  0  0  0  0  0  0  0  0  0
   -0.9586    1.9599    8.0255 H   0  0  0  0  0  0  0  0  0  0  0  0
   -1.0362    0.3748    7.1841 H   0  0  0  0  0  0  0  0  0  0  0  0
    0.3894    0.7852    8.1970 H   0  0  0  0  0  0  0  0  0  0  0  0
  1  3  1  0  0  0  0
  1  7  1  0  0  0  0
  1  2  2  0  0  0  0
 34 35  1  0  0  0  0
 35 43  1  0  0  0  0
 35 36  2  0  0  0  0
  8  9  1  0  0  0  0
  9 17  1  0  0  0  0
  9 10  2  0  0  0  0
 18 19  1  0  0  0  0
 19 33  1  0  0  0  0
 19 20  2  0  0  0  0
 22 23  1  0  0  0  0
 23 24  2  0  0  0  0
 23 25  1  0  0  0  0
 34 37  1  0  0  0  0
  8 11  1  0  0  0  0
 43 44  1  0  0  0  0
 21 22  1  0  0  0  0
 18 21  1  0  0  0  0
 33 34  1  0  0  0  0
  7  8  1  0  0  0  0
 17 18  1  0  0  0  0
  3  4  1  0  0  0  0
  3  5  1  0  0  0  0
  3  6  1  0  0  0  0
 37 40  1  0  0  0  0
 37 41  1  0  0  0  0
 37 42  1  0  0  0  0
 11 14  1  0  0  0  0
 11 15  1  0  0  0  0
 11 16  1  0  0  0  0
 44 46  1  0  0  0  0
 44 47  1  0  0  0  0
 44 48  1  0  0  0  0
 22 30  1  0  0  0  0
 22 31  1  0  0  0  0
 21 28  1  0  0  0  0
 21 29  1  0  0  0  0
 34 39  1  0  0  0  0
  8 13  1  0  0  0  0
 18 27  1  0  0  0  0
 43 45  1  0  0  0  0
  7 12  1  0  0  0  0
 33 38  1  0  0  0  0
 17 26  1  0  0  0  0
 25 32  1  0  0  0  0
M  END
$$$$

  -OEChem-05262214473D

 48 47  0     1  0  0  0  0  0999 V2000
   -5.5827   -1.3473    1.4591 C   0  0  0  0  0  0  0  0  0  0  0  0
   -5.7053   -2.4696    0.9825 O   0  0  0  0  0  0  0  0  0  0  0  0
   -6.7879   -0.6277    1.9670 C   0  0  0  0  0  0  0  0  0  0  0  0
   -7.2718   -0.0164    1.1885 H   0  0  0  0  0  0  0  0  0  0  0  0
   -7.5699   -1.3171    2.3239 H   0  0  0  0  0  0  0  0  0  0  0  0
   -6.6057    0.0628    2.8060 H   0  0  0  0  0  0  0  0  0  0  0  0
   -4.4001   -0.6377    1.5884 N   0  0  0  0  0  0  0  0  0  0  0  0
   -3.1220   -1.1455    1.1644 C   0  0  2  0  0  0  0  0  0  0  0  0
   -2.2017    0.0428    0.9187 C   0  0  0  0  0  0  0  0  0  0  0  0
   -2.6171    1.1750    0.6807 O   0  0  0  0  0  0  0  0  0  0  0  0
   -3.2533   -1.9992   -0.0873 C   0  0  0  0  0  0  0  0  0  0  0  0
   -4.4370    0.2910    2.0047 H   0  0  0  0  0  0  0  0  0  0  0  0
   -2.7302   -1.7467    1.9921 H   0  0  0  0  0  0  0  0  0  0  0  0
   -3.6446   -1.4140   -0.9275 H   0  0  0  0  0  0  0  0  0  0  0  0
   -2.2844   -2.4081   -0.3922 H   0  0  0  0  0  0  0  0  0  0  0  0
   -3.9388   -2.8365    0.0822 H   0  0  0  0  0  0  0  0  0  0  0  0
   -0.8768   -0.3314    0.9568 N   0  0  0  0  0  0  0  0  0  0  0  0
    0.2067    0.6285    0.7375 C   0  0  2  0  0  0  0  0  0  0  0  0
    0.8177    0.9088    2.1071 C   0  0  0  0  0  0  0  0  0  0  0  0
    1.9117    0.4621    2.4465 O   0  0  0  0  0  0  0  0  0  0  0  0
   -0.3630    1.8959    0.0828 C   0  0  0  0  0  0  0  0  0  0  0  0
   -0.8771    1.6716   -1.3392 C   0  0  0  0  0  0  0  0  0  0  0  0
   -1.4496    2.9323   -1.9376 C   0  0  0  0  0  0  0  0  0  0  0  0
   -1.6084    3.9726   -1.3117 O   0  0  0  0  0  0  0  0  0  0  0  0
   -1.7968    2.7873   -3.2402 O   0  0  0  0  0  0  0  0  0  0  0  0
   -0.6087   -1.2764    1.1771 H   0  0  0  0  0  0  0  0  0  0  0  0
    0.9472    0.1689    0.0748 H   0  0  0  0  0  0  0  0  0  0  0  0
   -1.1832    2.2845    0.7010 H   0  0  0  0  0  0  0  0  0  0  0  0
    0.4033    2.6815    0.0492 H   0  0  0  0  0  0  0  0  0  0  0  0
   -0.0479    1.3611   -1.9866 H   0  0  0  0  0  0  0  0  0  0  0  0
   -1.6072    0.8570   -1.3871 H   0  0  0  0  0  0  0  0  0  0  0  0
   -2.1911    3.5798   -3.6627 H   0  0  0  0  0  0  0  0  0  0  0  0
    0.0169    1.7322    2.8847 N   0  0  0  0  0  0  0  0  0  0  0  0
    0.3716    2.1477    4.2227 C   0  0  2  0  0  0  0  0  0  0  0  0
   -0.2693    1.1741    5.2029 C   0  0  0  0  0  0  0  0  0  0  0  0
   -1.2486    0.4863    4.9217 O   0  0  0  0  0  0  0  0  0  0  0  0
   -0.0814    3.5731    4.4978 C   0  0  0  0  0  0  0  0  0  0  0  0
   -0.8618    2.0592    2.4946 H   0  0  0  0  0  0  0  0  0  0  0  0
    1.4622    2.0769    4.2972 H   0  0  0  0  0  0  0  0  0  0  0  0
   -1.1715    3.6636    4.4277 H   0  0  0  0  0  0  0  0  0  0  0  0
    0.2131    3.8963    5.5017 H   0  0  0  0  0  0  0  0  0  0  0  0
    0.3570    4.2680    3.7735 H   0  0  0  0  0  0  0  0  0  0  0  0
    0.3544    1.1951    6.4425 N   0  0  0  0  0  0  0  0  0  0  0  0
   -0.0767    0.3694    7.5463 C   0  0  0  0  0  0  0  0  0  0  0  0
    1.1716    1.7824    6.5808 H   0  0  0  0  0  0  0  0  0  0  0  0
   -0.7955    0.9279    8.1639 H   0  0  0  0  0  0  0  0  0  0  0  0
   -0.5569   -0.5407    7.1576 H   0  0  0  0  0  0  0  0  0  0  0  0
    0.7942    0.0917    8.1583 H   0  0  0  0  0  0  0  0  0  0  0  0
  1  3  1  0  0  0  0
  1  7  1  0  0  0  0
  1  2  2  0  0  0  0
 34 35  1  0  0  0  0
 35 43  1  0  0  0  0
 35 36  2  0  0  0  0
  8  9  1  0  0  0  0
  9 17  1  0  0  0  0
  9 10  2  0  0  0  0
 18 19  1  0  0  0  0
 19 33  1  0  0  0  0
 19 20  2  0  0  0  0
 22 23  1  0  0  0  0
 23 24  2  0  0  0  0
 23 25  1  0  0  0  0
 34 37  1  0  0  0  0
  8 11  1  0  0  0  0
 43 44  1  0  0  0  0
 21 22  1  0  0  0  0
 18 21  1  0  0  0  0
 33 34  1  0  0  0  0
  7  8  1  0  0  0  0
 17 18  1  0  0  0  0
  3  4  1  0  0  0  0
  3  5  1  0  0  0  0
  3  6  1  0  0  0  0
 37 40  1  0  0  0  0
 37 41  1  0  0  0  0
 37 42  1  0  0  0  0
 11 14  1  0  0  0  0
 11 15  1  0  0  0  0
 11 16  1  0  0  0  0
 44 46  1  0  0  0  0
 44 47  1  0  0  0  0
 44 48  1  0  0  0  0
 22 30  1  0  0  0  0
 22 31  1  0  0  0  0
 21 28  1  0  0  0  0
 21 29  1  0  0  0  0
 34 39  1  0  0  0  0
  8 13  1  0  0  0  0
 18 27  1  0  0  0  0
 43 45  1  0  0  0  0
  7 12  1  0  0  0  0
 33 38  1  0  0  0  0
 17 26  1  0  0  0  0
 25 32  1  0  0  0  0
M  END
$$$$

  -OEChem-05262214473D

 48 47  0     1  0  0  0  0  0999 V2000
   -5.5827   -1.3473    1.4591 C   0  0  0  0  0  0  0  0  0  0  0  0
   -5.7053   -2.4696    0.9825 O   0  0  0  0  0  0  0  0  0  0  0  0
   -6.7879   -0.6277    1.9670 C   0  0  0  0  0  0  0  0  0  0  0  0
   -7.2718   -0.0164    1.1885 H   0  0  0  0  0  0  0  0  0  0  0  0
   -7.5699   -1.3171    2.3239 H   0  0  0  0  0  0  0  0  0  0  0  0
   -6.6057    0.0628    2.8060 H   0  0  0  0  0  0  0  0  0  0  0  0
   -4.4001   -0.6377    1.5884 N   0  0  0  0  0  0  0  0  0  0  0  0
   -3.1220   -1.1455    1.1644 C   0  0  2  0  0  0  0  0  0  0  0  0
   -2.2017    0.0428    0.9187 C   0  0  0  0  0  0  0  0  0  0  0  0
   -2.6171    1.1750    0.6807 O   0  0  0  0  0  0  0  0  0  0  0  0
   -3.2533   -1.9992   -0.0873 C   0  0  0  0  0  0  0  0  0  0  0  0
   -4.4370    0.2910    2.0047 H   0  0  0  0  0  0  0  0  0  0  0  0
   -2.7302   -1.7467    1.9921 H   0  0  0  0  0  0  0  0  0  0  0  0
   -3.6446   -1.4140   -0.9275 H   0  0  0  0  0  0  0  0  0  0  0  0
   -2.2844   -2.4081   -0.3922 H   0  0  0  0  0  0  0  0  0  0  0  0
   -3.9388   -2.8365    0.0822 H   0  0  0  0  0  0  0  0  0  0  0  0
   -0.8768   -0.3314    0.9568 N   0  0  0  0  0  0  0  0  0  0  0  0
    0.2067    0.6285    0.7375 C   0  0  2  0  0  0  0  0  0  0  0  0
    0.8177    0.9088    2.1071 C   0  0  0  0  0  0  0  0  0  0  0  0
    2.0033    0.7005    2.3568 O   0  0  0  0  0  0  0  0  0  0  0  0
   -0.3630    1.8959    0.0828 C   0  0  0  0  0  0  0  0  0  0  0  0
   -0.8771    1.6716   -1.3392 C   0  0  0  0  0  0  0  0  0  0  0  0
   -1.4496    2.9323   -1.9376 C   0  0  0  0  0  0  0  0  0  0  0  0
   -1.6084    3.9726   -1.3117 O   0  0  0  0  0  0  0  0  0  0  0  0
   -1.7968    2.7873   -3.2402 O   0  0  0  0  0  0  0  0  0  0  0  0
   -0.6087   -1.2764    1.1771 H   0  0  0  0  0  0  0  0  0  0  0  0
    0.9472    0.1689    0.0748 H   0  0  0  0  0  0  0  0  0  0  0  0
   -1.1832    2.2845    0.7010 H   0  0  0  0  0  0  0  0  0  0  0  0
    0.4033    2.6815    0.0492 H   0  0  0  0  0  0  0  0  0  0  0  0
   -0.0479    1.3611   -1.9866 H   0  0  0  0  0  0  0  0  0  0  0  0
   -1.6072    0.8570   -1.3871 H   0  0  0  0  0  0  0  0  0  0  0  0
   -2.1911    3.5798   -3.6627 H   0  0  0  0  0  0  0  0  0  0  0  0
   -0.1029    1.4408    2.9978 N   0  0  0  0  0  0  0  0  0  0  0  0
    0.2261    1.7947    4.3598 C   0  0  2  0  0  0  0  0  0  0  0  0
   -0.1141    0.6066    5.2498 C   0  0  0  0  0  0  0  0  0  0  0  0
   -0.9241   -0.2609    4.9298 O   0  0  0  0  0  0  0  0  0  0  0  0
   -0.5251    3.0399    4.8049 C   0  0  0  0  0  0  0  0  0  0  0  0
   -1.0550    1.5889    2.6770 H   0  0  0  0  0  0  0  0  0  0  0  0
    1.3062    1.9751    4.3876 H   0  0  0  0  0  0  0  0  0  0  0  0
   -1.6090    2.8782    4.7836 H   0  0  0  0  0  0  0  0  0  0  0  0
   -0.2532    3.3231    5.8271 H   0  0  0  0  0  0  0  0  0  0  0  0
   -0.3023    3.8859    4.1458 H   0  0  0  0  0  0  0  0  0  0  0  0
    0.5611    0.6519    6.4615 N   0  0  0  0  0  0  0  0  0  0  0  0
    0.3981   -0.3561    7.4830 C   0  0  0  0  0  0  0  0  0  0  0  0
    1.2282    1.3982    6.6342 H   0  0  0  0  0  0  0  0  0  0  0  0
   -0.3916   -0.0453    8.1828 H   0  0  0  0  0  0  0  0  0  0  0  0
    0.1176   -1.3109    7.0143 H   0  0  0  0  0  0  0  0  0  0  0  0
    1.3444   -0.4801    8.0298 H   0  0  0  0  0  0  0  0  0  0  0  0
  1  3  1  0  0  0  0
  1  7  1  0  0  0  0
  1  2  2  0  0  0  0
 34 35  1  0  0  0  0
 35 43  1  0  0  0  0
 35 36  2  0  0  0  0
  8  9  1  0  0  0  0
  9 17  1  0  0  0  0
  9 10  2  0  0  0  0
 18 19  1  0  0  0  0
 19 33  1  0  0  0  0
 19 20  2  0  0  0  0
 22 23  1  0  0  0  0
 23 24  2  0  0  0  0
 23 25  1  0  0  0  0
 34 37  1  0  0  0  0
  8 11  1  0  0  0  0
 43 44  1  0  0  0  0
 21 22  1  0  0  0  0
 18 21  1  0  0  0  0
 33 34  1  0  0  0  0
  7  8  1  0  0  0  0
 17 18  1  0  0  0  0
  3  4  1  0  0  0  0
  3  5  1  0  0  0  0
  3  6  1  0  0  0  0
 37 40  1  0  0  0  0
 37 41  1  0  0  0  0
 37 42  1  0  0  0  0
 11 14  1  0  0  0  0
 11 15  1  0  0  0  0
 11 16  1  0  0  0  0
 44 46  1  0  0  0  0
 44 47  1  0  0  0  0
 44 48  1  0  0  0  0
 22 30  1  0  0  0  0
 22 31  1  0  0  0  0
 21 28  1  0  0  0  0
 21 29  1  0  0  0  0
 34 39  1  0  0  0  0
  8 13  1  0  0  0  0
 18 27  1  0  0  0  0
 43 45  1  0  0  0  0
  7 12  1  0  0  0  0
 33 38  1  0  0  0  0
 17 26  1  0  0  0  0
 25 32  1  0  0  0  0
M  END
$$$$

  -OEChem-05262214473D

 48 47  0     1  0  0  0  0  0999 V2000
   -5.5827   -1.3473    1.4591 C   0  0  0  0  0  0  0  0  0  0  0  0
   -5.7053   -2.4696    0.9825 O   0  0  0  0  0  0  0  0  0  0  0  0
   -6.7879   -0.6277    1.9670 C   0  0  0  0  0  0  0  0  0  0  0  0
   -7.2718   -0.0164    1.1885 H   0  0  0  0  0  0  0  0  0  0  0  0
   -7.5699   -1.3171    2.3239 H   0  0  0  0  0  0  0  0  0  0  0  0
   -6.6057    0.0628    2.8060 H   0  0  0  0  0  0  0  0  0  0  0  0
   -4.4001   -0.6377    1.5884 N   0  0  0  0  0  0  0  0  0  0  0  0
   -3.1220   -1.1455    1.1644 C   0  0  2  0  0  0  0  0  0  0  0  0
   -2.2017    0.0428    0.9187 C   0  0  0  0  0  0  0  0  0  0  0  0
   -2.6171    1.1750    0.6807 O   0  0  0  0  0  0  0  0  0  0  0  0
   -3.2533   -1.9992   -0.0873 C   0  0  0  0  0  0  0  0  0  0  0  0
   -4.4370    0.2910    2.0047 H   0  0  0  0  0  0  0  0  0  0  0  0
   -2.7302   -1.7467    1.9921 H   0  0  0  0  0  0  0  0  0  0  0  0
   -3.6446   -1.4140   -0.9275 H   0  0  0  0  0  0  0  0  0  0  0  0
   -2.2844   -2.4081   -0.3922 H   0  0  0  0  0  0  0  0  0  0  0  0
   -3.9388   -2.8365    0.0822 H   0  0  0  0  0  0  0  0  0  0  0  0
   -0.8768   -0.3314    0.9568 N   0  0  0  0  0  0  0  0  0  0  0  0
    0.2067    0.6285    0.7375 C   0  0  2  0  0  0  0  0  0  0  0  0
    0.8177    0.9088    2.1071 C   0  0  0  0  0  0  0  0  0  0  0  0
    2.0322    0.9613    2.2906 O   0  0  0  0  0  0  0  0  0  0  0  0
   -0.3630    1.8959    0.0828 C   0  0  0  0  0  0  0  0  0  0  0  0
   -0.8771    1.6716   -1.3392 C   0  0  0  0  0  0  0  0  0  0  0  0
   -1.4496    2.9323   -1.9376 C   0  0  0  0  0  0  0  0  0  0  0  0
   -1.6084    3.9726   -1.3117 O   0  0  0  0  0  0  0  0  0  0  0  0
   -1.7968    2.7873   -3.2402 O   0  0  0  0  0  0  0  0  0  0  0  0
   -0.6087   -1.2764    1.1771 H   0  0  0  0  0  0  0  0  0  0  0  0
    0.9472    0.1689    0.0748 H   0  0  0  0  0  0  0  0  0  0  0  0
   -1.1832    2.2845    0.7010 H   0  0  0  0  0  0  0  0  0  0  0  0
    0.4033    2.6815    0.0492 H   0  0  0  0  0  0  0  0  0  0  0  0
   -0.0479    1.3611   -1.9866 H   0  0  0  0  0  0  0  0  0  0  0  0
   -1.6072    0.8570   -1.3871 H   0  0  0  0  0  0  0  0  0  0  0  0
   -2.1911    3.5798   -3.6627 H   0  0  0  0  0  0  0  0  0  0  0  0
   -0.1456    1.1198    3.0825 N   0  0  0  0  0  0  0  0  0  0  0  0
    0.1741    1.4058    4.4626 C   0  0  2  0  0  0  0  0  0  0  0  0
    0.1699    0.0896    5.2288 C   0  0  0  0  0  0  0  0  0  0  0  0
   -0.4367   -0.9082    4.8448 O   0  0  0  0  0  0  0  0  0  0  0  0
   -0.8152    2.3899    5.0673 C   0  0  0  0  0  0  0  0  0  0  0  0
   -1.1237    1.0709    2.8137 H   0  0  0  0  0  0  0  0  0  0  0  0
    1.1835    1.8312    4.4718 H   0  0  0  0  0  0  0  0  0  0  0  0
   -1.8322    1.9811    5.0667 H   0  0  0  0  0  0  0  0  0  0  0  0
   -0.5551    2.6275    6.1041 H   0  0  0  0  0  0  0  0  0  0  0  0
   -0.8326    3.3250    4.4972 H   0  0  0  0  0  0  0  0  0  0  0  0
    0.8878    0.1732    6.4137 N   0  0  0  0  0  0  0  0  0  0  0  0
    1.0222   -0.9400    7.3240 C   0  0  0  0  0  0  0  0  0  0  0  0
    1.3746    1.0346    6.6432 H   0  0  0  0  0  0  0  0  0  0  0  0
    0.2255   -0.8935    8.0811 H   0  0  0  0  0  0  0  0  0  0  0  0
    0.9412   -1.8833    6.7640 H   0  0  0  0  0  0  0  0  0  0  0  0
    2.0027   -0.8913    7.8203 H   0  0  0  0  0  0  0  0  0  0  0  0
  1  3  1  0  0  0  0
  1  7  1  0  0  0  0
  1  2  2  0  0  0  0
 34 35  1  0  0  0  0
 35 43  1  0  0  0  0
 35 36  2  0  0  0  0
  8  9  1  0  0  0  0
  9 17  1  0  0  0  0
  9 10  2  0  0  0  0
 18 19  1  0  0  0  0
 19 33  1  0  0  0  0
 19 20  2  0  0  0  0
 22 23  1  0  0  0  0
 23 24  2  0  0  0  0
 23 25  1  0  0  0  0
 34 37  1  0  0  0  0
  8 11  1  0  0  0  0
 43 44  1  0  0  0  0
 21 22  1  0  0  0  0
 18 21  1  0  0  0  0
 33 34  1  0  0  0  0
  7  8  1  0  0  0  0
 17 18  1  0  0  0  0
  3  4  1  0  0  0  0
  3  5  1  0  0  0  0
  3  6  1  0  0  0  0
 37 40  1  0  0  0  0
 37 41  1  0  0  0  0
 37 42  1  0  0  0  0
 11 14  1  0  0  0  0
 11 15  1  0  0  0  0
 11 16  1  0  0  0  0
 44 46  1  0  0  0  0
 44 47  1  0  0  0  0
 44 48  1  0  0  0  0
 22 30  1  0  0  0  0
 22 31  1  0  0  0  0
 21 28  1  0  0  0  0
 21 29  1  0  0  0  0
 34 39  1  0  0  0  0
  8 13  1  0  0  0  0
 18 27  1  0  0  0  0
 43 45  1  0  0  0  0
  7 12  1  0  0  0  0
 33 38  1  0  0  0  0
 17 26  1  0  0  0  0
 25 32  1  0  0  0  0
M  END
$$$$

  -OEChem-05262214473D

 48 47  0     1  0  0  0  0  0999 V2000
   -5.5827   -1.3473    1.4591 C   0  0  0  0  0  0  0  0  0  0  0  0
   -5.7053   -2.4696    0.9825 O   0  0  0  0  0  0  0  0  0  0  0  0
   -6.7879   -0.6277    1.9670 C   0  0  0  0  0  0  0  0  0  0  0  0
   -7.2718   -0.0164    1.1885 H   0  0  0  0  0  0  0  0  0  0  0  0
   -7.5699   -1.3171    2.3239 H   0  0  0  0  0  0  0  0  0  0  0  0
   -6.6057    0.0628    2.8060 H   0  0  0  0  0  0  0  0  0  0  0  0
   -4.4001   -0.6377    1.5884 N   0  0  0  0  0  0  0  0  0  0  0  0
   -3.1220   -1.1455    1.1644 C   0  0  2  0  0  0  0  0  0  0  0  0
   -2.2017    0.0428    0.9187 C   0  0  0  0  0  0  0  0  0  0  0  0
   -2.6171    1.1750    0.6807 O   0  0  0  0  0  0  0  0  0  0  0  0
   -3.2533   -1.9992   -0.0873 C   0  0  0  0  0  0  0  0  0  0  0  0
   -4.4370    0.2910    2.0047 H   0  0  0  0  0  0  0  0  0  0  0  0
   -2.7302   -1.7467    1.9921 H   0  0  0  0  0  0  0  0  0  0  0  0
   -3.6446   -1.4140   -0.9275 H   0  0  0  0  0  0  0  0  0  0  0  0
   -2.2844   -2.4081   -0.3922 H   0  0  0  0  0  0  0  0  0  0  0  0
   -3.9388   -2.8365    0.0822 H   0  0  0  0  0  0  0  0  0  0  0  0
   -0.8768   -0.3314    0.9568 N   0  0  0  0  0  0  0  0  0  0  0  0
    0.2067    0.6285    0.7375 C   0  0  2  0  0  0  0  0  0  0  0  0
    0.8177    0.9088    2.1071 C   0  0  0  0  0  0  0  0  0  0  0  0
    1.9963    1.2268    2.2522 O   0  0  0  0  0  0  0  0  0  0  0  0
   -0.3630    1.8959    0.0828 C   0  0  0  0  0  0  0  0  0  0  0  0
   -0.8771    1.6716   -1.3392 C   0  0  0  0  0  0  0  0  0  0  0  0
   -1.4496    2.9323   -1.9376 C   0  0  0  0  0  0  0  0  0  0  0  0
   -1.6084    3.9726   -1.3117 O   0  0  0  0  0  0  0  0  0  0  0  0
   -1.7968    2.7873   -3.2402 O   0  0  0  0  0  0  0  0  0  0  0  0
   -0.6087   -1.2764    1.1771 H   0  0  0  0  0  0  0  0  0  0  0  0
    0.9472    0.1689    0.0748 H   0  0  0  0  0  0  0  0  0  0  0  0
   -1.1832    2.2845    0.7010 H   0  0  0  0  0  0  0  0  0  0  0  0
    0.4033    2.6815    0.0492 H   0  0  0  0  0  0  0  0  0  0  0  0
   -0.0479    1.3611   -1.9866 H   0  0  0  0  0  0  0  0  0  0  0  0
   -1.6072    0.8570   -1.3871 H   0  0  0  0  0  0  0  0  0  0  0  0
   -2.1911    3.5798   -3.6627 H   0  0  0  0  0  0  0  0  0  0  0  0
   -0.1082    0.7910    3.1331 N   0  0  0  0  0  0  0  0  0  0  0  0
    0.2191    1.0074    4.5241 C   0  0  2  0  0  0  0  0  0  0  0  0
    0.5634   -0.3416    5.1415 C   0  0  0  0  0  0  0  0  0  0  0  0
    0.1805   -1.4114    4.6724 O   0  0  0  0  0  0  0  0  0  0  0  0
   -0.9319    1.6674    5.2672 C   0  0  0  0  0  0  0  0  0  0  0  0
   -1.0632    0.5403    2.8952 H   0  0  0  0  0  0  0  0  0  0  0  0
    1.1024    1.6549    4.5440 H   0  0  0  0  0  0  0  0  0  0  0  0
   -1.8259    1.0333    5.2578 H   0  0  0  0  0  0  0  0  0  0  0  0
   -0.6718    1.8567    6.3139 H   0  0  0  0  0  0  0  0  0  0  0  0
   -1.1978    2.6236    4.8036 H   0  0  0  0  0  0  0  0  0  0  0  0
    1.3124   -0.2083    6.3023 N   0  0  0  0  0  0  0  0  0  0  0  0
    1.7532   -1.3425    7.0803 C   0  0  0  0  0  0  0  0  0  0  0  0
    1.6010    0.7166    6.6073 H   0  0  0  0  0  0  0  0  0  0  0  0
    1.0139   -1.5589    7.8655 H   0  0  0  0  0  0  0  0  0  0  0  0
    1.8578   -2.2189    6.4237 H   0  0  0  0  0  0  0  0  0  0  0  0
    2.7241   -1.1138    7.5440 H   0  0  0  0  0  0  0  0  0  0  0  0
  1  3  1  0  0  0  0
  1  7  1  0  0  0  0
  1  2  2  0  0  0  0
 34 35  1  0  0  0  0
 35 43  1  0  0  0  0
 35 36  2  0  0  0  0
  8  9  1  0  0  0  0
  9 17  1  0  0  0  0
  9 10  2  0  0  0  0
 18 19  1  0  0  0  0
 19 33  1  0  0  0  0
 19 20  2  0  0  0  0
 22 23  1  0  0  0  0
 23 24  2  0  0  0  0
 23 25  1  0  0  0  0
 34 37  1  0  0  0  0
  8 11  1  0  0  0  0
 43 44  1  0  0  0  0
 21 22  1  0  0  0  0
 18 21  1  0  0  0  0
 33 34  1  0  0  0  0
  7  8  1  0  0  0  0
 17 18  1  0  0  0  0
  3  4  1  0  0  0  0
  3  5  1  0  0  0  0
  3  6  1  0  0  0  0
 37 40  1  0  0  0  0
 37 41  1  0  0  0  0
 37 42  1  0  0  0  0
 11 14  1  0  0  0  0
 11 15  1  0  0  0  0
 11 16  1  0  0  0  0
 44 46  1  0  0  0  0
 44 47  1  0  0  0  0
 44 48  1  0  0  0  0
 22 30  1  0  0  0  0
 22 31  1  0  0  0  0
 21 28  1  0  0  0  0
 21 29  1  0  0  0  0
 34 39  1  0  0  0  0
  8 13  1  0  0  0  0
 18 27  1  0  0  0  0
 43 45  1  0  0  0  0
  7 12  1  0  0  0  0
 33 38  1  0  0  0  0
 17 26  1  0  0  0  0
 25 32  1  0  0  0  0
M  END
$$$$

  -OEChem-05262214473D

 48 47  0     1  0  0  0  0  0999 V2000
   -5.5827   -1.3473    1.4591 C   0  0  0  0  0  0  0  0  0  0  0  0
   -5.7053   -2.4696    0.9825 O   0  0  0  0  0  0  0  0  0  0  0  0
   -6.7879   -0.6277    1.9670 C   0  0  0  0  0  0  0  0  0  0  0  0
   -7.2718   -0.0164    1.1885 H   0  0  0  0  0  0  0  0  0  0  0  0
   -7.5699   -1.3171    2.3239 H   0  0  0  0  0  0  0  0  0  0  0  0
   -6.6057    0.0628    2.8060 H   0  0  0  0  0  0  0  0  0  0  0  0
   -4.4001   -0.6377    1.5884 N   0  0  0  0  0  0  0  0  0  0  0  0
   -3.1220   -1.1455    1.1644 C   0  0  2  0  0  0  0  0  0  0  0  0
   -2.2017    0.0428    0.9187 C   0  0  0  0  0  0  0  0  0  0  0  0
   -2.6171    1.1750    0.6807 O   0  0  0  0  0  0  0  0  0  0  0  0
   -3.2533   -1.9992   -0.0873 C   0  0  0  0  0  0  0  0  0  0  0  0
   -4.4370    0.2910    2.0047 H   0  0  0  0  0  0  0  0  0  0  0  0
   -2.7302   -1.7467    1.9921 H   0  0  0  0  0  0  0  0  0  0  0  0
   -3.6446   -1.4140   -0.9275 H   0  0  0  0  0  0  0  0  0  0  0  0
   -2.2844   -2.4081   -0.3922 H   0  0  0  0  0  0  0  0  0  0  0  0
   -3.9388   -2.8365    0.0822 H   0  0  0  0  0  0  0  0  0  0  0  0
   -0.8768   -0.3314    0.9568 N   0  0  0  0  0  0  0  0  0  0  0  0
    0.2067    0.6285    0.7375 C   0  0  2  0  0  0  0  0  0  0  0  0
    0.8177    0.9088    2.1071 C   0  0  0  0  0  0  0  0  0  0  0  0
    1.8982    1.4789    2.2444 O   0  0  0  0  0  0  0  0  0  0  0  0
   -0.3630    1.8959    0.0828 C   0  0  0  0  0  0  0  0  0  0  0  0
   -0.8771    1.6716   -1.3392 C   0  0  0  0  0  0  0  0  0  0  0  0
   -1.4496    2.9323   -1.9376 C   0  0  0  0  0  0  0  0  0  0  0  0
   -1.6084    3.9726   -1.3117 O   0  0  0  0  0  0  0  0  0  0  0  0
   -1.7968    2.7873   -3.2402 O   0  0  0  0  0  0  0  0  0  0  0  0
   -0.6087   -1.2764    1.1771 H   0  0  0  0  0  0  0  0  0  0  0  0
    0.9472    0.1689    0.0748 H   0  0  0  0  0  0  0  0  0  0  0  0
   -1.1832    2.2845    0.7010 H   0  0  0  0  0  0  0  0  0  0  0  0
    0.4033    2.6815    0.0492 H   0  0  0  0  0  0  0  0  0  0  0  0
   -0.0479    1.3611   -1.9866 H   0  0  0  0  0  0  0  0  0  0  0  0
   -1.6072    0.8570   -1.3871 H   0  0  0  0  0  0  0  0  0  0  0  0
   -2.1911    3.5798   -3.6627 H   0  0  0  0  0  0  0  0  0  0  0  0
    0.0067    0.4768    3.1461 N   0  0  0  0  0  0  0  0  0  0  0  0
    0.3581    0.6266    4.5400 C   0  0  2  0  0  0  0  0  0  0  0  0
    1.0395   -0.6576    4.9938 C   0  0  0  0  0  0  0  0  0  0  0  0
    0.8854   -1.7361    4.4244 O   0  0  0  0  0  0  0  0  0  0  0  0
   -0.8673    0.9218    5.3909 C   0  0  0  0  0  0  0  0  0  0  0  0
   -0.8776    0.0335    2.9161 H   0  0  0  0  0  0  0  0  0  0  0  0
    1.0685    1.4584    4.5994 H   0  0  0  0  0  0  0  0  0  0  0  0
   -1.5905    0.0995    5.3439 H   0  0  0  0  0  0  0  0  0  0  0  0
   -0.5956    1.0632    6.4422 H   0  0  0  0  0  0  0  0  0  0  0  0
   -1.3730    1.8294    5.0443 H   0  0  0  0  0  0  0  0  0  0  0  0
    1.8058   -0.4666    6.1351 N   0  0  0  0  0  0  0  0  0  0  0  0
    2.5412   -1.5362    6.7684 C   0  0  0  0  0  0  0  0  0  0  0  0
    1.8918    0.4657    6.5289 H   0  0  0  0  0  0  0  0  0  0  0  0
    1.9197   -1.9961    7.5508 H   0  0  0  0  0  0  0  0  0  0  0  0
    2.8050   -2.2948    6.0167 H   0  0  0  0  0  0  0  0  0  0  0  0
    3.4595   -1.1325    7.2197 H   0  0  0  0  0  0  0  0  0  0  0  0
  1  3  1  0  0  0  0
  1  7  1  0  0  0  0
  1  2  2  0  0  0  0
 34 35  1  0  0  0  0
 35 43  1  0  0  0  0
 35 36  2  0  0  0  0
  8  9  1  0  0  0  0
  9 17  1  0  0  0  0
  9 10  2  0  0  0  0
 18 19  1  0  0  0  0
 19 33  1  0  0  0  0
 19 20  2  0  0  0  0
 22 23  1  0  0  0  0
 23 24  2  0  0  0  0
 23 25  1  0  0  0  0
 34 37  1  0  0  0  0
  8 11  1  0  0  0  0
 43 44  1  0  0  0  0
 21 22  1  0  0  0  0
 18 21  1  0  0  0  0
 33 34  1  0  0  0  0
  7  8  1  0  0  0  0
 17 18  1  0  0  0  0
  3  4  1  0  0  0  0
  3  5  1  0  0  0  0
  3  6  1  0  0  0  0
 37 40  1  0  0  0  0
 37 41  1  0  0  0  0
 37 42  1  0  0  0  0
 11 14  1  0  0  0  0
 11 15  1  0  0  0  0
 11 16  1  0  0  0  0
 44 46  1  0  0  0  0
 44 47  1  0  0  0  0
 44 48  1  0  0  0  0
 22 30  1  0  0  0  0
 22 31  1  0  0  0  0
 21 28  1  0  0  0  0
 21 29  1  0  0  0  0
 34 39  1  0  0  0  0
  8 13  1  0  0  0  0
 18 27  1  0  0  0  0
 43 45  1  0  0  0  0
  7 12  1  0  0  0  0
 33 38  1  0  0  0  0
 17 26  1  0  0  0  0
 25 32  1  0  0  0  0
M  END
$$$$

  -OEChem-05262214473D

 48 47  0     1  0  0  0  0  0999 V2000
   -5.5827   -1.3473    1.4591 C   0  0  0  0  0  0  0  0  0  0  0  0
   -5.7053   -2.4696    0.9825 O   0  0  0  0  0  0  0  0  0  0  0  0
   -6.7879   -0.6277    1.9670 C   0  0  0  0  0  0  0  0  0  0  0  0
   -7.2718   -0.0164    1.1885 H   0  0  0  0  0  0  0  0  0  0  0  0
   -7.5699   -1.3171    2.3239 H   0  0  0  0  0  0  0  0  0  0  0  0
   -6.6057    0.0628    2.8060 H   0  0  0  0  0  0  0  0  0  0  0  0
   -4.4001   -0.6377    1.5884 N   0  0  0  0  0  0  0  0  0  0  0  0
   -3.1220   -1.1455    1.1644 C   0  0  2  0  0  0  0  0  0  0  0  0
   -2.2017    0.0428    0.9187 C   0  0  0  0  0  0  0  0  0  0  0  0
   -2.6171    1.1750    0.6807 O   0  0  0  0  0  0  0  0  0  0  0  0
   -3.2533   -1.9992   -0.0873 C   0  0  0  0  0  0  0  0  0  0  0  0
   -4.4370    0.2910    2.0047 H   0  0  0  0  0  0  0  0  0  0  0  0
   -2.7302   -1.7467    1.9921 H   0  0  0  0  0  0  0  0  0  0  0  0
   -3.6446   -1.4140   -0.9275 H   0  0  0  0  0  0  0  0  0  0  0  0
   -2.2844   -2.4081   -0.3922 H   0  0  0  0  0  0  0  0  0  0  0  0
   -3.9388   -2.8365    0.0822 H   0  0  0  0  0  0  0  0  0  0  0  0
   -0.8768   -0.3314    0.9568 N   0  0  0  0  0  0  0  0  0  0  0  0
    0.2067    0.6285    0.7375 C   0  0  2  0  0  0  0  0  0  0  0  0
    0.8177    0.9088    2.1071 C   0  0  0  0  0  0  0  0  0  0  0  0
    1.7444    1.7005    2.2677 O   0  0  0  0  0  0  0  0  0  0  0  0
   -0.3630    1.8959    0.0828 C   0  0  0  0  0  0  0  0  0  0  0  0
   -0.8771    1.6716   -1.3392 C   0  0  0  0  0  0  0  0  0  0  0  0
   -1.4496    2.9323   -1.9376 C   0  0  0  0  0  0  0  0  0  0  0  0
   -1.6084    3.9726   -1.3117 O   0  0  0  0  0  0  0  0  0  0  0  0
   -1.7968    2.7873   -3.2402 O   0  0  0  0  0  0  0  0  0  0  0  0
   -0.6087   -1.2764    1.1771 H   0  0  0  0  0  0  0  0  0  0  0  0
    0.9472    0.1689    0.0748 H   0  0  0  0  0  0  0  0  0  0  0  0
   -1.1832    2.2845    0.7010 H   0  0  0  0  0  0  0  0  0  0  0  0
    0.4033    2.6815    0.0492 H   0  0  0  0  0  0  0  0  0  0  0  0
   -0.0479    1.3611   -1.9866 H   0  0  0  0  0  0  0  0  0  0  0  0
   -1.6072    0.8570   -1.3871 H   0  0  0  0  0  0  0  0  0  0  0  0
   -2.1911    3.5798   -3.6627 H   0  0  0  0  0  0  0  0  0  0  0  0
    0.1913    0.1987    3.1207 N   0  0  0  0  0  0  0  0  0  0  0  0
    0.5816    0.2895    4.5093 C   0  0  2  0  0  0  0  0  0  0  0  0
    1.5658   -0.8369    4.7957 C   0  0  0  0  0  0  0  0  0  0  0  0
    1.6299   -1.8603    4.1177 O   0  0  0  0  0  0  0  0  0  0  0  0
   -0.6257    0.2037    5.4301 C   0  0  0  0  0  0  0  0  0  0  0  0
   -0.5795   -0.4151    2.8750 H   0  0  0  0  0  0  0  0  0  0  0  0
    1.0840    1.2548    4.6341 H   0  0  0  0  0  0  0  0  0  0  0  0
   -1.1421   -0.7567    5.3190 H   0  0  0  0  0  0  0  0  0  0  0  0
   -0.3314    0.3013    6.4803 H   0  0  0  0  0  0  0  0  0  0  0  0
   -1.3463    0.9967    5.2028 H   0  0  0  0  0  0  0  0  0  0  0  0
    2.3345   -0.5841    5.9233 N   0  0  0  0  0  0  0  0  0  0  0  0
    3.3326   -1.5079    6.4095 C   0  0  0  0  0  0  0  0  0  0  0  0
    2.2273    0.2991    6.4134 H   0  0  0  0  0  0  0  0  0  0  0  0
    2.8814   -2.1753    7.1585 H   0  0  0  0  0  0  0  0  0  0  0  0
    3.7182   -2.1059    5.5707 H   0  0  0  0  0  0  0  0  0  0  0  0
    4.1588   -0.9460    6.8696 H   0  0  0  0  0  0  0  0  0  0  0  0
  1  3  1  0  0  0  0
  1  7  1  0  0  0  0
  1  2  2  0  0  0  0
 34 35  1  0  0  0  0
 35 43  1  0  0  0  0
 35 36  2  0  0  0  0
  8  9  1  0  0  0  0
  9 17  1  0  0  0  0
  9 10  2  0  0  0  0
 18 19  1  0  0  0  0
 19 33  1  0  0  0  0
 19 20  2  0  0  0  0
 22 23  1  0  0  0  0
 23 24  2  0  0  0  0
 23 25  1  0  0  0  0
 34 37  1  0  0  0  0
  8 11  1  0  0  0  0
 43 44  1  0  0  0  0
 21 22  1  0  0  0  0
 18 21  1  0  0  0  0
 33 34  1  0  0  0  0
  7  8  1  0  0  0  0
 17 18  1  0  0  0  0
  3  4  1  0  0  0  0
  3  5  1  0  0  0  0
  3  6  1  0  0  0  0
 37 40  1  0  0  0  0
 37 41  1  0  0  0  0
 37 42  1  0  0  0  0
 11 14  1  0  0  0  0
 11 15  1  0  0  0  0
 11 16  1  0  0  0  0
 44 46  1  0  0  0  0
 44 47  1  0  0  0  0
 44 48  1  0  0  0  0
 22 30  1  0  0  0  0
 22 31  1  0  0  0  0
 21 28  1  0  0  0  0
 21 29  1  0  0  0  0
 34 39  1  0  0  0  0
  8 13  1  0  0  0  0
 18 27  1  0  0  0  0
 43 45  1  0  0  0  0
  7 12  1  0  0  0  0
 33 38  1  0  0  0  0
 17 26  1  0  0  0  0
 25 32  1  0  0  0  0
M  END
$$$$

  -OEChem-05262214473D

 48 47  0     1  0  0  0  0  0999 V2000
   -5.5827   -1.3473    1.4591 C   0  0  0  0  0  0  0  0  0  0  0  0
   -5.7053   -2.4696    0.9825 O   0  0  0  0  0  0  0  0  0  0  0  0
   -6.7879   -0.6277    1.9670 C   0  0  0  0  0  0  0  0  0  0  0  0
   -7.2718   -0.0164    1.1885 H   0  0  0  0  0  0  0  0  0  0  0  0
   -7.5699   -1.3171    2.3239 H   0  0  0  0  0  0  0  0  0  0  0  0
   -6.6057    0.0628    2.8060 H   0  0  0  0  0  0  0  0  0  0  0  0
   -4.4001   -0.6377    1.5884 N   0  0  0  0  0  0  0  0  0  0  0  0
   -3.1220   -1.1455    1.1644 C   0  0  2  0  0  0  0  0  0  0  0  0
   -2.2017    0.0428    0.9187 C   0  0  0  0  0  0  0  0  0  0  0  0
   -2.6171    1.1750    0.6807 O   0  0  0  0  0  0  0  0  0  0  0  0
   -3.2533   -1.9992   -0.0873 C   0  0  0  0  0  0  0  0  0  0  0  0
   -4.4370    0.2910    2.0047 H   0  0  0  0  0  0  0  0  0  0  0  0
   -2.7302   -1.7467    1.9921 H   0  0  0  0  0  0  0  0  0  0  0  0
   -3.6446   -1.4140   -0.9275 H   0  0  0  0  0  0  0  0  0  0  0  0
   -2.2844   -2.4081   -0.3922 H   0  0  0  0  0  0  0  0  0  0  0  0
   -3.9388   -2.8365    0.0822 H   0  0  0  0  0  0  0  0  0  0  0  0
   -0.8768   -0.3314    0.9568 N   0  0  0  0  0  0  0  0  0  0  0  0
    0.2067    0.6285    0.7375 C   0  0  2  0  0  0  0  0  0  0  0  0
    0.8177    0.9088    2.1071 C   0  0  0  0  0  0  0  0  0  0  0  0
    1.5456    1.8763    2.3204 O   0  0  0  0  0  0  0  0  0  0  0  0
   -0.3630    1.8959    0.0828 C   0  0  0  0  0  0  0  0  0  0  0  0
   -0.8771    1.6716   -1.3392 C   0  0  0  0  0  0  0  0  0  0  0  0
   -1.4496    2.9323   -1.9376 C   0  0  0  0  0  0  0  0  0  0  0  0
   -1.6084    3.9726   -1.3117 O   0  0  0  0  0  0  0  0  0  0  0  0
   -1.7968    2.7873   -3.2402 O   0  0  0  0  0  0  0  0  0  0  0  0
   -0.6087   -1.2764    1.1771 H   0  0  0  0  0  0  0  0  0  0  0  0
    0.9472    0.1689    0.0748 H   0  0  0  0  0  0  0  0  0  0  0  0
   -1.1832    2.2845    0.7010 H   0  0  0  0  0  0  0  0  0  0  0  0
    0.4033    2.6815    0.0492 H   0  0  0  0  0  0  0  0  0  0  0  0
   -0.0479    1.3611   -1.9866 H   0  0  0  0  0  0  0  0  0  0  0  0
   -1.6072    0.8570   -1.3871 H   0  0  0  0  0  0  0  0  0  0  0  0
   -2.1911    3.5798   -3.6627 H   0  0  0  0  0  0  0  0  0  0  0  0
    0.4330   -0.0244    3.0585 N   0  0  0  0  0  0  0  0  0  0  0  0
    0.8743    0.0189    4.4340 C   0  0  2  0  0  0  0  0  0  0  0  0
    2.1063   -0.8673    4.5608 C   0  0  0  0  0  0  0  0  0  0  0  0
    2.3633   -1.7755    3.7732 O   0  0  0  0  0  0  0  0  0  0  0  0
   -0.2237   -0.4378    5.3820 C   0  0  0  0  0  0  0  0  0  0  0  0
   -0.1893   -0.7750    2.7745 H   0  0  0  0  0  0  0  0  0  0  0  0
    1.1480    1.0583    4.6458 H   0  0  0  0  0  0  0  0  0  0  0  0
   -0.5112   -1.4770    5.1850 H   0  0  0  0  0  0  0  0  0  0  0  0
    0.1026   -0.3773    6.4255 H   0  0  0  0  0  0  0  0  0  0  0  0
   -1.1195    0.1821    5.2683 H   0  0  0  0  0  0  0  0  0  0  0  0
    2.8624   -0.5529    5.6814 N   0  0  0  0  0  0  0  0  0  0  0  0
    4.0733   -1.2595    6.0282 C   0  0  0  0  0  0  0  0  0  0  0  0
    2.5846    0.2281    6.2685 H   0  0  0  0  0  0  0  0  0  0  0  0
    3.8332   -2.0843    6.7153 H   0  0  0  0  0  0  0  0  0  0  0  0
    4.5352   -1.6650    5.1160 H   0  0  0  0  0  0  0  0  0  0  0  0
    4.7743   -0.5672    6.5175 H   0  0  0  0  0  0  0  0  0  0  0  0
  1  3  1  0  0  0  0
  1  7  1  0  0  0  0
  1  2  2  0  0  0  0
 34 35  1  0  0  0  0
 35 43  1  0  0  0  0
 35 36  2  0  0  0  0
  8  9  1  0  0  0  0
  9 17  1  0  0  0  0
  9 10  2  0  0  0  0
 18 19  1  0  0  0  0
 19 33  1  0  0  0  0
 19 20  2  0  0  0  0
 22 23  1  0  0  0  0
 23 24  2  0  0  0  0
 23 25  1  0  0  0  0
 34 37  1  0  0  0  0
  8 11  1  0  0  0  0
 43 44  1  0  0  0  0
 21 22  1  0  0  0  0
 18 21  1  0  0  0  0
 33 34  1  0  0  0  0
  7  8  1  0  0  0  0
 17 18  1  0  0  0  0
  3  4  1  0  0  0  0
  3  5  1  0  0  0  0
  3  6  1  0  0  0  0
 37 40  1  0  0  0  0
 37 41  1  0  0  0  0
 37 42  1  0  0  0  0
 11 14  1  0  0  0  0
 11 15  1  0  0  0  0
 11 16  1  0  0  0  0
 44 46  1  0  0  0  0
 44 47  1  0  0  0  0
 44 48  1  0  0  0  0
 22 30  1  0  0  0  0
 22 31  1  0  0  0  0
 21 28  1  0  0  0  0
 21 29  1  0  0  0  0
 34 39  1  0  0  0  0
  8 13  1  0  0  0  0
 18 27  1  0  0  0  0
 43 45  1  0  0  0  0
  7 12  1  0  0  0  0
 33 38  1  0  0  0  0
 17 26  1  0  0  0  0
 25 32  1  0  0  0  0
M  END
$$$$

  -OEChem-05262214473D

 48 47  0     1  0  0  0  0  0999 V2000
   -5.5827   -1.3473    1.4591 C   0  0  0  0  0  0  0  0  0  0  0  0
   -5.7053   -2.4696    0.9825 O   0  0  0  0  0  0  0  0  0  0  0  0
   -6.7879   -0.6277    1.9670 C   0  0  0  0  0  0  0  0  0  0  0  0
   -7.2718   -0.0164    1.1885 H   0  0  0  0  0  0  0  0  0  0  0  0
   -7.5699   -1.3171    2.3239 H   0  0  0  0  0  0  0  0  0  0  0  0
   -6.6057    0.0628    2.8060 H   0  0  0  0  0  0  0  0  0  0  0  0
   -4.4001   -0.6377    1.5884 N   0  0  0  0  0  0  0  0  0  0  0  0
   -3.1220   -1.1455    1.1644 C   0  0  2  0  0  0  0  0  0  0  0  0
   -2.2017    0.0428    0.9187 C   0  0  0  0  0  0  0  0  0  0  0  0
   -2.6171    1.1750    0.6807 O   0  0  0  0  0  0  0  0  0  0  0  0
   -3.2533   -1.9992   -0.0873 C   0  0  0  0  0  0  0  0  0  0  0  0
   -4.4370    0.2910    2.0047 H   0  0  0  0  0  0  0  0  0  0  0  0
   -2.7302   -1.7467    1.9921 H   0  0  0  0  0  0  0  0  0  0  0  0
   -3.6446   -1.4140   -0.9275 H   0  0  0  0  0  0  0  0  0  0  0  0
   -2.2844   -2.4081   -0.3922 H   0  0  0  0  0  0  0  0  0  0  0  0
   -3.9388   -2.8365    0.0822 H   0  0  0  0  0  0  0  0  0  0  0  0
   -0.8768   -0.3314    0.9568 N   0  0  0  0  0  0  0  0  0  0  0  0
    0.2067    0.6285    0.7375 C   0  0  2  0  0  0  0  0  0  0  0  0
    0.8177    0.9088    2.1071 C   0  0  0  0  0  0  0  0  0  0  0  0
    1.3151    1.9945    2.3991 O   0  0  0  0  0  0  0  0  0  0  0  0
   -0.3630    1.8959    0.0828 C   0  0  0  0  0  0  0  0  0  0  0  0
   -0.8771    1.6716   -1.3392 C   0  0  0  0  0  0  0  0  0  0  0  0
   -1.4496    2.9323   -1.9376 C   0  0  0  0  0  0  0  0  0  0  0  0
   -1.6084    3.9726   -1.3117 O   0  0  0  0  0  0  0  0  0  0  0  0
   -1.7968    2.7873   -3.2402 O   0  0  0  0  0  0  0  0  0  0  0  0
   -0.6087   -1.2764    1.1771 H   0  0  0  0  0  0  0  0  0  0  0  0
    0.9472    0.1689    0.0748 H   0  0  0  0  0  0  0  0  0  0  0  0
   -1.1832    2.2845    0.7010 H   0  0  0  0  0  0  0  0  0  0  0  0
    0.4033    2.6815    0.0492 H   0  0  0  0  0  0  0  0  0  0  0  0
   -0.0479    1.3611   -1.9866 H   0  0  0  0  0  0  0  0  0  0  0  0
   -1.6072    0.8570   -1.3871 H   0  0  0  0  0  0  0  0  0  0  0  0
   -2.1911    3.5798   -3.6627 H   0  0  0  0  0  0  0  0  0  0  0  0
    0.7154   -0.1773    2.9638 N   0  0  0  0  0  0  0  0  0  0  0  0
    1.2163   -0.1666    4.3194 C   0  0  2  0  0  0  0  0  0  0  0  0
    2.6244   -0.7468    4.3050 C   0  0  0  0  0  0  0  0  0  0  0  0
    3.0356   -1.4874    3.4143 O   0  0  0  0  0  0  0  0  0  0  0  0
    0.3114   -0.9591    5.2499 C   0  0  0  0  0  0  0  0  0  0  0  0
    0.2664   -1.0214    2.6217 H   0  0  0  0  0  0  0  0  0  0  0  0
    1.2560    0.8820    4.6337 H   0  0  0  0  0  0  0  0  0  0  0  0
    0.2592   -2.0123    4.9508 H   0  0  0  0  0  0  0  0  0  0  0  0
    0.6768   -0.9263    6.2816 H   0  0  0  0  0  0  0  0  0  0  0  0
   -0.7081   -0.5588    5.2363 H   0  0  0  0  0  0  0  0  0  0  0  0
    3.3535   -0.3749    5.4258 N   0  0  0  0  0  0  0  0  0  0  0  0
    4.7130   -0.8079    5.6505 C   0  0  0  0  0  0  0  0  0  0  0  0
    2.9393    0.2575    6.1042 H   0  0  0  0  0  0  0  0  0  0  0  0
    4.7103   -1.7293    6.2513 H   0  0  0  0  0  0  0  0  0  0  0  0
    5.2003   -1.0022    4.6837 H   0  0  0  0  0  0  0  0  0  0  0  0
    5.2640   -0.0217    6.1874 H   0  0  0  0  0  0  0  0  0  0  0  0
  1  3  1  0  0  0  0
  1  7  1  0  0  0  0
  1  2  2  0  0  0  0
 34 35  1  0  0  0  0
 35 43  1  0  0  0  0
 35 36  2  0  0  0  0
  8  9  1  0  0  0  0
  9 17  1  0  0  0  0
  9 10  2  0  0  0  0
 18 19  1  0  0  0  0
 19 33  1  0  0  0  0
 19 20  2  0  0  0  0
 22 23  1  0  0  0  0
 23 24  2  0  0  0  0
 23 25  1  0  0  0  0
 34 37  1  0  0  0  0
  8 11  1  0  0  0  0
 43 44  1  0  0  0  0
 21 22  1  0  0  0  0
 18 21  1  0  0  0  0
 33 34  1  0  0  0  0
  7  8  1  0  0  0  0
 17 18  1  0  0  0  0
  3  4  1  0  0  0  0
  3  5  1  0  0  0  0
  3  6  1  0  0  0  0
 37 40  1  0  0  0  0
 37 41  1  0  0  0  0
 37 42  1  0  0  0  0
 11 14  1  0  0  0  0
 11 15  1  0  0  0  0
 11 16  1  0  0  0  0
 44 46  1  0  0  0  0
 44 47  1  0  0  0  0
 44 48  1  0  0  0  0
 22 30  1  0  0  0  0
 22 31  1  0  0  0  0
 21 28  1  0  0  0  0
 21 29  1  0  0  0  0
 34 39  1  0  0  0  0
  8 13  1  0  0  0  0
 18 27  1  0  0  0  0
 43 45  1  0  0  0  0
  7 12  1  0  0  0  0
 33 38  1  0  0  0  0
 17 26  1  0  0  0  0
 25 32  1  0  0  0  0
M  END
$$$$

  -OEChem-05262214473D

 48 47  0     1  0  0  0  0  0999 V2000
   -5.5827   -1.3473    1.4591 C   0  0  0  0  0  0  0  0  0  0  0  0
   -5.7053   -2.4696    0.9825 O   0  0  0  0  0  0  0  0  0  0  0  0
   -6.7879   -0.6277    1.9670 C   0  0  0  0  0  0  0  0  0  0  0  0
   -7.2718   -0.0164    1.1885 H   0  0  0  0  0  0  0  0  0  0  0  0
   -7.5699   -1.3171    2.3239 H   0  0  0  0  0  0  0  0  0  0  0  0
   -6.6057    0.0628    2.8060 H   0  0  0  0  0  0  0  0  0  0  0  0
   -4.4001   -0.6377    1.5884 N   0  0  0  0  0  0  0  0  0  0  0  0
   -3.1220   -1.1455    1.1644 C   0  0  2  0  0  0  0  0  0  0  0  0
   -2.2017    0.0428    0.9187 C   0  0  0  0  0  0  0  0  0  0  0  0
   -2.6171    1.1750    0.6807 O   0  0  0  0  0  0  0  0  0  0  0  0
   -3.2533   -1.9992   -0.0873 C   0  0  0  0  0  0  0  0  0  0  0  0
   -4.4370    0.2910    2.0047 H   0  0  0  0  0  0  0  0  0  0  0  0
   -2.7302   -1.7467    1.9921 H   0  0  0  0  0  0  0  0  0  0  0  0
   -3.6446   -1.4140   -0.9275 H   0  0  0  0  0  0  0  0  0  0  0  0
   -2.2844   -2.4081   -0.3922 H   0  0  0  0  0  0  0  0  0  0  0  0
   -3.9388   -2.8365    0.0822 H   0  0  0  0  0  0  0  0  0  0  0  0
   -0.8768   -0.3314    0.9568 N   0  0  0  0  0  0  0  0  0  0  0  0
    0.2067    0.6285    0.7375 C   0  0  2  0  0  0  0  0  0  0  0  0
    0.8177    0.9088    2.1071 C   0  0  0  0  0  0  0  0  0  0  0  0
    1.0688    2.0469    2.4982 O   0  0  0  0  0  0  0  0  0  0  0  0
   -0.3630    1.8959    0.0828 C   0  0  0  0  0  0  0  0  0  0  0  0
   -0.8771    1.6716   -1.3392 C   0  0  0  0  0  0  0  0  0  0  0  0
   -1.4496    2.9323   -1.9376 C   0  0  0  0  0  0  0  0  0  0  0  0
   -1.6084    3.9726   -1.3117 O   0  0  0  0  0  0  0  0  0  0  0  0
   -1.7968    2.7873   -3.2402 O   0  0  0  0  0  0  0  0  0  0  0  0
   -0.6087   -1.2764    1.1771 H   0  0  0  0  0  0  0  0  0  0  0  0
    0.9472    0.1689    0.0748 H   0  0  0  0  0  0  0  0  0  0  0  0
   -1.1832    2.2845    0.7010 H   0  0  0  0  0  0  0  0  0  0  0  0
    0.4033    2.6815    0.0492 H   0  0  0  0  0  0  0  0  0  0  0  0
   -0.0479    1.3611   -1.9866 H   0  0  0  0  0  0  0  0  0  0  0  0
   -1.6072    0.8570   -1.3871 H   0  0  0  0  0  0  0  0  0  0  0  0
   -2.1911    3.5798   -3.6627 H   0  0  0  0  0  0  0  0  0  0  0  0
    1.0191   -0.2495    2.8431 N   0  0  0  0  0  0  0  0  0  0  0  0
    1.5844   -0.2545    4.1732 C   0  0  2  0  0  0  0  0  0  0  0  0
    3.0846   -0.4834    4.0458 C   0  0  0  0  0  0  0  0  0  0  0  0
    3.6011   -1.0158    3.0655 O   0  0  0  0  0  0  0  0  0  0  0  0
    0.9431   -1.3246    5.0429 C   0  0  0  0  0  0  0  0  0  0  0  0
    0.7565   -1.1378    2.4268 H   0  0  0  0  0  0  0  0  0  0  0  0
    1.4006    0.7382    4.5986 H   0  0  0  0  0  0  0  0  0  0  0  0
    1.1166   -2.3260    4.6325 H   0  0  0  0  0  0  0  0  0  0  0  0
    1.3522   -1.3082    6.0585 H   0  0  0  0  0  0  0  0  0  0  0  0
   -0.1400   -1.1756    5.1091 H   0  0  0  0  0  0  0  0  0  0  0  0
    3.7745   -0.0625    5.1741 N   0  0  0  0  0  0  0  0  0  0  0  0
    5.2079   -0.1839    5.3020 C   0  0  0  0  0  0  0  0  0  0  0  0
    3.2673    0.3853    5.9318 H   0  0  0  0  0  0  0  0  0  0  0  0
    5.4531   -1.1345    5.7983 H   0  0  0  0  0  0  0  0  0  0  0  0
    5.6682   -0.1626    4.3031 H   0  0  0  0  0  0  0  0  0  0  0  0
    5.5947    0.6531    5.9019 H   0  0  0  0  0  0  0  0  0  0  0  0
  1  3  1  0  0  0  0
  1  7  1  0  0  0  0
  1  2  2  0  0  0  0
 34 35  1  0  0  0  0
 35 43  1  0  0  0  0
 35 36  2  0  0  0  0
  8  9  1  0  0  0  0
  9 17  1  0  0  0  0
  9 10  2  0  0  0  0
 18 19  1  0  0  0  0
 19 33  1  0  0  0  0
 19 20  2  0  0  0  0
 22 23  1  0  0  0  0
 23 24  2  0  0  0  0
 23 25  1  0  0  0  0
 34 37  1  0  0  0  0
  8 11  1  0  0  0  0
 43 44  1  0  0  0  0
 21 22  1  0  0  0  0
 18 21  1  0  0  0  0
 33 34  1  0  0  0  0
  7  8  1  0  0  0  0
 17 18  1  0  0  0  0
  3  4  1  0  0  0  0
  3  5  1  0  0  0  0
  3  6  1  0  0  0  0
 37 40  1  0  0  0  0
 37 41  1  0  0  0  0
 37 42  1  0  0  0  0
 11 14  1  0  0  0  0
 11 15  1  0  0  0  0
 11 16  1  0  0  0  0
 44 46  1  0  0  0  0
 44 47  1  0  0  0  0
 44 48  1  0  0  0  0
 22 30  1  0  0  0  0
 22 31  1  0  0  0  0
 21 28  1  0  0  0  0
 21 29  1  0  0  0  0
 34 39  1  0  0  0  0
  8 13  1  0  0  0  0
 18 27  1  0  0  0  0
 43 45  1  0  0  0  0
  7 12  1  0  0  0  0
 33 38  1  0  0  0  0
 17 26  1  0  0  0  0
 25 32  1  0  0  0  0
M  END
$$$$

  -OEChem-05262214473D

 48 47  0     1  0  0  0  0  0999 V2000
   -5.5827   -1.3473    1.4591 C   0  0  0  0  0  0  0  0  0  0  0  0
   -5.7053   -2.4696    0.9825 O   0  0  0  0  0  0  0  0  0  0  0  0
   -6.7879   -0.6277    1.9670 C   0  0  0  0  0  0  0  0  0  0  0  0
   -7.2718   -0.0164    1.1885 H   0  0  0  0  0  0  0  0  0  0  0  0
   -7.5699   -1.3171    2.3239 H   0  0  0  0  0  0  0  0  0  0  0  0
   -6.6057    0.0628    2.8060 H   0  0  0  0  0  0  0  0  0  0  0  0
   -4.4001   -0.6377    1.5884 N   0  0  0  0  0  0  0  0  0  0  0  0
   -3.1220   -1.1455    1.1644 C   0  0  2  0  0  0  0  0  0  0  0  0
   -2.2017    0.0428    0.9187 C   0  0  0  0  0  0  0  0  0  0  0  0
   -2.6171    1.1750    0.6807 O   0  0  0  0  0  0  0  0  0  0  0  0
   -3.2533   -1.9992   -0.0873 C   0  0  0  0  0  0  0  0  0  0  0  0
   -4.4370    0.2910    2.0047 H   0  0  0  0  0  0  0  0  0  0  0  0
   -2.7302   -1.7467    1.9921 H   0  0  0  0  0  0  0  0  0  0  0  0
   -3.6446   -1.4140   -0.9275 H   0  0  0  0  0  0  0  0  0  0  0  0
   -2.2844   -2.4081   -0.3922 H   0  0  0  0  0  0  0  0  0  0  0  0
   -3.9388   -2.8365    0.0822 H   0  0  0  0  0  0  0  0  0  0  0  0
   -0.8768   -0.3314    0.9568 N   0  0  0  0  0  0  0  0  0  0  0  0
    0.2067    0.6285    0.7375 C   0  0  2  0  0  0  0  0  0  0  0  0
    0.8177    0.9088    2.1071 C   0  0  0  0  0  0  0  0  0  0  0  0
    0.8234    2.0301    2.6111 O   0  0  0  0  0  0  0  0  0  0  0  0
   -0.3630    1.8959    0.0828 C   0  0  0  0  0  0  0  0  0  0  0  0
   -0.8771    1.6716   -1.3392 C   0  0  0  0  0  0  0  0  0  0  0  0
   -1.4496    2.9323   -1.9376 C   0  0  0  0  0  0  0  0  0  0  0  0
   -1.6084    3.9726   -1.3117 O   0  0  0  0  0  0  0  0  0  0  0  0
   -1.7968    2.7873   -3.2402 O   0  0  0  0  0  0  0  0  0  0  0  0
   -0.6087   -1.2764    1.1771 H   0  0  0  0  0  0  0  0  0  0  0  0
    0.9472    0.1689    0.0748 H   0  0  0  0  0  0  0  0  0  0  0  0
   -1.1832    2.2845    0.7010 H   0  0  0  0  0  0  0  0  0  0  0  0
    0.4033    2.6815    0.0492 H   0  0  0  0  0  0  0  0  0  0  0  0
   -0.0479    1.3611   -1.9866 H   0  0  0  0  0  0  0  0  0  0  0  0
   -1.6072    0.8570   -1.3871 H   0  0  0  0  0  0  0  0  0  0  0  0
   -2.1911    3.5798   -3.6627 H   0  0  0  0  0  0  0  0  0  0  0  0
    1.3236   -0.2362    2.7045 N   0  0  0  0  0  0  0  0  0  0  0  0
    1.9533   -0.2387    4.0054 C   0  0  2  0  0  0  0  0  0  0  0  0
    3.4557   -0.0952    3.8009 C   0  0  0  0  0  0  0  0  0  0  0  0
    4.0211   -0.3927    2.7507 O   0  0  0  0  0  0  0  0  0  0  0  0
    1.6284   -1.5094    4.7750 C   0  0  0  0  0  0  0  0  0  0  0  0
    1.2478   -1.1161    2.2032 H   0  0  0  0  0  0  0  0  0  0  0  0
    1.5721    0.6364    4.5429 H   0  0  0  0  0  0  0  0  0  0  0  0
    2.0025   -2.3969    4.2518 H   0  0  0  0  0  0  0  0  0  0  0  0
    2.0827   -1.4970    5.7712 H   0  0  0  0  0  0  0  0  0  0  0  0
    0.5459   -1.6262    4.8953 H   0  0  0  0  0  0  0  0  0  0  0  0
    4.0965    0.3632    4.9434 N   0  0  0  0  0  0  0  0  0  0  0  0
    5.5245    0.5699    5.0065 C   0  0  0  0  0  0  0  0  0  0  0  0
    3.5462    0.6029    5.7628 H   0  0  0  0  0  0  0  0  0  0  0  0
    6.0108   -0.3405    5.3870 H   0  0  0  0  0  0  0  0  0  0  0  0
    5.9069    0.7966    4.0004 H   0  0  0  0  0  0  0  0  0  0  0  0
    5.7436    1.4114    5.6802 H   0  0  0  0  0  0  0  0  0  0  0  0
  1  3  1  0  0  0  0
  1  7  1  0  0  0  0
  1  2  2  0  0  0  0
 34 35  1  0  0  0  0
 35 43  1  0  0  0  0
 35 36  2  0  0  0  0
  8  9  1  0  0  0  0
  9 17  1  0  0  0  0
  9 10  2  0  0  0  0
 18 19  1  0  0  0  0
 19 33  1  0  0  0  0
 19 20  2  0  0  0  0
 22 23  1  0  0  0  0
 23 24  2  0  0  0  0
 23 25  1  0  0  0  0
 34 37  1  0  0  0  0
  8 11  1  0  0  0  0
 43 44  1  0  0  0  0
 21 22  1  0  0  0  0
 18 21  1  0  0  0  0
 33 34  1  0  0  0  0
  7  8  1  0  0  0  0
 17 18  1  0  0  0  0
  3  4  1  0  0  0  0
  3  5  1  0  0  0  0
  3  6  1  0  0  0  0
 37 40  1  0  0  0  0
 37 41  1  0  0  0  0
 37 42  1  0  0  0  0
 11 14  1  0  0  0  0
 11 15  1  0  0  0  0
 11 16  1  0  0  0  0
 44 46  1  0  0  0  0
 44 47  1  0  0  0  0
 44 48  1  0  0  0  0
 22 30  1  0  0  0  0
 22 31  1  0  0  0  0
 21 28  1  0  0  0  0
 21 29  1  0  0  0  0
 34 39  1  0  0  0  0
  8 13  1  0  0  0  0
 18 27  1  0  0  0  0
 43 45  1  0  0  0  0
  7 12  1  0  0  0  0
 33 38  1  0  0  0  0
 17 26  1  0  0  0  0
 25 32  1  0  0  0  0
M  END
$$$$

  -OEChem-05262214473D

 48 47  0     1  0  0  0  0  0999 V2000
   -5.5827   -1.3473    1.4591 C   0  0  0  0  0  0  0  0  0  0  0  0
   -5.7053   -2.4696    0.9825 O   0  0  0  0  0  0  0  0  0  0  0  0
   -6.7879   -0.6277    1.9670 C   0  0  0  0  0  0  0  0  0  0  0  0
   -7.2718   -0.0164    1.1885 H   0  0  0  0  0  0  0  0  0  0  0  0
   -7.5699   -1.3171    2.3239 H   0  0  0  0  0  0  0  0  0  0  0  0
   -6.6057    0.0628    2.8060 H   0  0  0  0  0  0  0  0  0  0  0  0
   -4.4001   -0.6377    1.5884 N   0  0  0  0  0  0  0  0  0  0  0  0
   -3.1220   -1.1455    1.1644 C   0  0  2  0  0  0  0  0  0  0  0  0
   -2.2017    0.0428    0.9187 C   0  0  0  0  0  0  0  0  0  0  0  0
   -2.6171    1.1750    0.6807 O   0  0  0  0  0  0  0  0  0  0  0  0
   -3.2533   -1.9992   -0.0873 C   0  0  0  0  0  0  0  0  0  0  0  0
   -4.4370    0.2910    2.0047 H   0  0  0  0  0  0  0  0  0  0  0  0
   -2.7302   -1.7467    1.9921 H   0  0  0  0  0  0  0  0  0  0  0  0
   -3.6446   -1.4140   -0.9275 H   0  0  0  0  0  0  0  0  0  0  0  0
   -2.2844   -2.4081   -0.3922 H   0  0  0  0  0  0  0  0  0  0  0  0
   -3.9388   -2.8365    0.0822 H   0  0  0  0  0  0  0  0  0  0  0  0
   -0.8768   -0.3314    0.9568 N   0  0  0  0  0  0  0  0  0  0  0  0
    0.2067    0.6285    0.7375 C   0  0  2  0  0  0  0  0  0  0  0  0
    0.8177    0.9088    2.1071 C   0  0  0  0  0  0  0  0  0  0  0  0
    0.5957    1.9451    2.7301 O   0  0  0  0  0  0  0  0  0  0  0  0
   -0.3630    1.8959    0.0828 C   0  0  0  0  0  0  0  0  0  0  0  0
   -0.8771    1.6716   -1.3392 C   0  0  0  0  0  0  0  0  0  0  0  0
   -1.4496    2.9323   -1.9376 C   0  0  0  0  0  0  0  0  0  0  0  0
   -1.6084    3.9726   -1.3117 O   0  0  0  0  0  0  0  0  0  0  0  0
   -1.7968    2.7873   -3.2402 O   0  0  0  0  0  0  0  0  0  0  0  0
   -0.6087   -1.2764    1.1771 H   0  0  0  0  0  0  0  0  0  0  0  0
    0.9472    0.1689    0.0748 H   0  0  0  0  0  0  0  0  0  0  0  0
   -1.1832    2.2845    0.7010 H   0  0  0  0  0  0  0  0  0  0  0  0
    0.4033    2.6815    0.0492 H   0  0  0  0  0  0  0  0  0  0  0  0
   -0.0479    1.3611   -1.9866 H   0  0  0  0  0  0  0  0  0  0  0  0
   -1.6072    0.8570   -1.3871 H   0  0  0  0  0  0  0  0  0  0  0  0
   -2.1911    3.5798   -3.6627 H   0  0  0  0  0  0  0  0  0  0  0  0
    1.6080   -0.1383    2.5576 N   0  0  0  0  0  0  0  0  0  0  0  0
    2.2980   -0.1203    3.8273 C   0  0  2  0  0  0  0  0  0  0  0  0
    3.7122    0.3913    3.5868 C   0  0  0  0  0  0  0  0  0  0  0  0
    4.2671    0.3394    2.4912 O   0  0  0  0  0  0  0  0  0  0  0  0
    2.3205   -1.5009    4.4645 C   0  0  0  0  0  0  0  0  0  0  0  0
    1.7066   -0.9579    1.9661 H   0  0  0  0  0  0  0  0  0  0  0  0
    1.7588    0.5838    4.4704 H   0  0  0  0  0  0  0  0  0  0  0  0
    2.8566   -2.2201    3.8346 H   0  0  0  0  0  0  0  0  0  0  0  0
    2.8185   -1.4799    5.4395 H   0  0  0  0  0  0  0  0  0  0  0  0
    1.3030   -1.8799    4.6095 H   0  0  0  0  0  0  0  0  0  0  0  0
    4.2976    0.8732    4.7493 N   0  0  0  0  0  0  0  0  0  0  0  0
    5.6411    1.4022    4.7842 C   0  0  0  0  0  0  0  0  0  0  0  0
    3.7570    0.8954    5.6089 H   0  0  0  0  0  0  0  0  0  0  0  0
    6.3455    0.5987    5.0455 H   0  0  0  0  0  0  0  0  0  0  0  0
    5.9003    1.8099    3.7960 H   0  0  0  0  0  0  0  0  0  0  0  0
    5.7008    2.2014    5.5377 H   0  0  0  0  0  0  0  0  0  0  0  0
  1  3  1  0  0  0  0
  1  7  1  0  0  0  0
  1  2  2  0  0  0  0
 34 35  1  0  0  0  0
 35 43  1  0  0  0  0
 35 36  2  0  0  0  0
  8  9  1  0  0  0  0
  9 17  1  0  0  0  0
  9 10  2  0  0  0  0
 18 19  1  0  0  0  0
 19 33  1  0  0  0  0
 19 20  2  0  0  0  0
 22 23  1  0  0  0  0
 23 24  2  0  0  0  0
 23 25  1  0  0  0  0
 34 37  1  0  0  0  0
  8 11  1  0  0  0  0
 43 44  1  0  0  0  0
 21 22  1  0  0  0  0
 18 21  1  0  0  0  0
 33 34  1  0  0  0  0
  7  8  1  0  0  0  0
 17 18  1  0  0  0  0
  3  4  1  0  0  0  0
  3  5  1  0  0  0  0
  3  6  1  0  0  0  0
 37 40  1  0  0  0  0
 37 41  1  0  0  0  0
 37 42  1  0  0  0  0
 11 14  1  0  0  0  0
 11 15  1  0  0  0  0
 11 16  1  0  0  0  0
 44 46  1  0  0  0  0
 44 47  1  0  0  0  0
 44 48  1  0  0  0  0
 22 30  1  0  0  0  0
 22 31  1  0  0  0  0
 21 28  1  0  0  0  0
 21 29  1  0  0  0  0
 34 39  1  0  0  0  0
  8 13  1  0  0  0  0
 18 27  1  0  0  0  0
 43 45  1  0  0  0  0
  7 12  1  0  0  0  0
 33 38  1  0  0  0  0
 17 26  1  0  0  0  0
 25 32  1  0  0  0  0
M  END
$$$$

  -OEChem-05262214473D

 48 47  0     1  0  0  0  0  0999 V2000
   -5.5827   -1.3473    1.4591 C   0  0  0  0  0  0  0  0  0  0  0  0
   -5.7053   -2.4696    0.9825 O   0  0  0  0  0  0  0  0  0  0  0  0
   -6.7879   -0.6277    1.9670 C   0  0  0  0  0  0  0  0  0  0  0  0
   -7.2718   -0.0164    1.1885 H   0  0  0  0  0  0  0  0  0  0  0  0
   -7.5699   -1.3171    2.3239 H   0  0  0  0  0  0  0  0  0  0  0  0
   -6.6057    0.0628    2.8060 H   0  0  0  0  0  0  0  0  0  0  0  0
   -4.4001   -0.6377    1.5884 N   0  0  0  0  0  0  0  0  0  0  0  0
   -3.1220   -1.1455    1.1644 C   0  0  2  0  0  0  0  0  0  0  0  0
   -2.2017    0.0428    0.9187 C   0  0  0  0  0  0  0  0  0  0  0  0
   -2.6171    1.1750    0.6807 O   0  0  0  0  0  0  0  0  0  0  0  0
   -3.2533   -1.9992   -0.0873 C   0  0  0  0  0  0  0  0  0  0  0  0
   -4.4370    0.2910    2.0047 H   0  0  0  0  0  0  0  0  0  0  0  0
   -2.7302   -1.7467    1.9921 H   0  0  0  0  0  0  0  0  0  0  0  0
   -3.6446   -1.4140   -0.9275 H   0  0  0  0  0  0  0  0  0  0  0  0
   -2.2844   -2.4081   -0.3922 H   0  0  0  0  0  0  0  0  0  0  0  0
   -3.9388   -2.8365    0.0822 H   0  0  0  0  0  0  0  0  0  0  0  0
   -0.8768   -0.3314    0.9568 N   0  0  0  0  0  0  0  0  0  0  0  0
    0.2067    0.6285    0.7375 C   0  0  2  0  0  0  0  0  0  0  0  0
    0.8177    0.9088    2.1071 C   0  0  0  0  0  0  0  0  0  0  0  0
    0.4011    1.7978    2.8471 O   0  0  0  0  0  0  0  0  0  0  0  0
   -0.3630    1.8959    0.0828 C   0  0  0  0  0  0  0  0  0  0  0  0
   -0.8771    1.6716   -1.3392 C   0  0  0  0  0  0  0  0  0  0  0  0
   -1.4496    2.9323   -1.9376 C   0  0  0  0  0  0  0  0  0  0  0  0
   -1.6084    3.9726   -1.3117 O   0  0  0  0  0  0  0  0  0  0  0  0
   -1.7968    2.7873   -3.2402 O   0  0  0  0  0  0  0  0  0  0  0  0
   -0.6087   -1.2764    1.1771 H   0  0  0  0  0  0  0  0  0  0  0  0
    0.9472    0.1689    0.0748 H   0  0  0  0  0  0  0  0  0  0  0  0
   -1.1832    2.2845    0.7010 H   0  0  0  0  0  0  0  0  0  0  0  0
    0.4033    2.6815    0.0492 H   0  0  0  0  0  0  0  0  0  0  0  0
   -0.0479    1.3611   -1.9866 H   0  0  0  0  0  0  0  0  0  0  0  0
   -1.6072    0.8570   -1.3871 H   0  0  0  0  0  0  0  0  0  0  0  0
   -2.1911    3.5798   -3.6627 H   0  0  0  0  0  0  0  0  0  0  0  0
    1.8530    0.0377    2.4123 N   0  0  0  0  0  0  0  0  0  0  0  0
    2.5951    0.0926    3.6513 C   0  0  2  0  0  0  0  0  0  0  0  0
    3.8368    0.9431    3.4184 C   0  0  0  0  0  0  0  0  0  0  0  0
    4.3222    1.1306    2.3047 O   0  0  0  0  0  0  0  0  0  0  0  0
    2.9723   -1.2997    4.1326 C   0  0  0  0  0  0  0  0  0  0  0  0
    2.1018   -0.6738    1.7317 H   0  0  0  0  0  0  0  0  0  0  0  0
    1.9479    0.5838    4.3861 H   0  0  0  0  0  0  0  0  0  0  0  0
    3.6207   -1.8075    3.4093 H   0  0  0  0  0  0  0  0  0  0  0  0
    3.5095   -1.2580    5.0858 H   0  0  0  0  0  0  0  0  0  0  0  0
    2.0797   -1.9194    4.2711 H   0  0  0  0  0  0  0  0  0  0  0  0
    4.3643    1.4326    4.6051 N   0  0  0  0  0  0  0  0  0  0  0  0
    5.5498    2.2563    4.6502 C   0  0  0  0  0  0  0  0  0  0  0  0
    3.8854    1.2429    5.4806 H   0  0  0  0  0  0  0  0  0  0  0  0
    6.4343    1.6191    4.7971 H   0  0  0  0  0  0  0  0  0  0  0  0
    5.6488    2.8083    3.7039 H   0  0  0  0  0  0  0  0  0  0  0  0
    5.4692    2.9694    5.4839 H   0  0  0  0  0  0  0  0  0  0  0  0
  1  3  1  0  0  0  0
  1  7  1  0  0  0  0
  1  2  2  0  0  0  0
 34 35  1  0  0  0  0
 35 43  1  0  0  0  0
 35 36  2  0  0  0  0
  8  9  1  0  0  0  0
  9 17  1  0  0  0  0
  9 10  2  0  0  0  0
 18 19  1  0  0  0  0
 19 33  1  0  0  0  0
 19 20  2  0  0  0  0
 22 23  1  0  0  0  0
 23 24  2  0  0  0  0
 23 25  1  0  0  0  0
 34 37  1  0  0  0  0
  8 11  1  0  0  0  0
 43 44  1  0  0  0  0
 21 22  1  0  0  0  0
 18 21  1  0  0  0  0
 33 34  1  0  0  0  0
  7  8  1  0  0  0  0
 17 18  1  0  0  0  0
  3  4  1  0  0  0  0
  3  5  1  0  0  0  0
  3  6  1  0  0  0  0
 37 40  1  0  0  0  0
 37 41  1  0  0  0  0
 37 42  1  0  0  0  0
 11 14  1  0  0  0  0
 11 15  1  0  0  0  0
 11 16  1  0  0  0  0
 44 46  1  0  0  0  0
 44 47  1  0  0  0  0
 44 48  1  0  0  0  0
 22 30  1  0  0  0  0
 22 31  1  0  0  0  0
 21 28  1  0  0  0  0
 21 29  1  0  0  0  0
 34 39  1  0  0  0  0
  8 13  1  0  0  0  0
 18 27  1  0  0  0  0
 43 45  1  0  0  0  0
  7 12  1  0  0  0  0
 33 38  1  0  0  0  0
 17 26  1  0  0  0  0
 25 32  1  0  0  0  0
M  END
$$$$

  -OEChem-05262214473D

 48 47  0     1  0  0  0  0  0999 V2000
   -5.5827   -1.3473    1.4591 C   0  0  0  0  0  0  0  0  0  0  0  0
   -5.7053   -2.4696    0.9825 O   0  0  0  0  0  0  0  0  0  0  0  0
   -6.7879   -0.6277    1.9670 C   0  0  0  0  0  0  0  0  0  0  0  0
   -7.2718   -0.0164    1.1885 H   0  0  0  0  0  0  0  0  0  0  0  0
   -7.5699   -1.3171    2.3239 H   0  0  0  0  0  0  0  0  0  0  0  0
   -6.6057    0.0628    2.8060 H   0  0  0  0  0  0  0  0  0  0  0  0
   -4.4001   -0.6377    1.5884 N   0  0  0  0  0  0  0  0  0  0  0  0
   -3.1220   -1.1455    1.1644 C   0  0  2  0  0  0  0  0  0  0  0  0
   -2.2017    0.0428    0.9187 C   0  0  0  0  0  0  0  0  0  0  0  0
   -2.6171    1.1750    0.6807 O   0  0  0  0  0  0  0  0  0  0  0  0
   -3.2533   -1.9992   -0.0873 C   0  0  0  0  0  0  0  0  0  0  0  0
   -4.4370    0.2910    2.0047 H   0  0  0  0  0  0  0  0  0  0  0  0
   -2.7302   -1.7467    1.9921 H   0  0  0  0  0  0  0  0  0  0  0  0
   -3.6446   -1.4140   -0.9275 H   0  0  0  0  0  0  0  0  0  0  0  0
   -2.2844   -2.4081   -0.3922 H   0  0  0  0  0  0  0  0  0  0  0  0
   -3.9388   -2.8365    0.0822 H   0  0  0  0  0  0  0  0  0  0  0  0
   -0.8768   -0.3314    0.9568 N   0  0  0  0  0  0  0  0  0  0  0  0
    0.2067    0.6285    0.7375 C   0  0  2  0  0  0  0  0  0  0  0  0
    0.8177    0.9088    2.1071 C   0  0  0  0  0  0  0  0  0  0  0  0
    0.2529    1.5981    2.9540 O   0  0  0  0  0  0  0  0  0  0  0  0
   -0.3630    1.8959    0.0828 C   0  0  0  0  0  0  0  0  0  0  0  0
   -0.8771    1.6716   -1.3392 C   0  0  0  0  0  0  0  0  0  0  0  0
   -1.4496    2.9323   -1.9376 C   0  0  0  0  0  0  0  0  0  0  0  0
   -1.6084    3.9726   -1.3117 O   0  0  0  0  0  0  0  0  0  0  0  0
   -1.7968    2.7873   -3.2402 O   0  0  0  0  0  0  0  0  0  0  0  0
   -0.6087   -1.2764    1.1771 H   0  0  0  0  0  0  0  0  0  0  0  0
    0.9472    0.1689    0.0748 H   0  0  0  0  0  0  0  0  0  0  0  0
   -1.1832    2.2845    0.7010 H   0  0  0  0  0  0  0  0  0  0  0  0
    0.4033    2.6815    0.0492 H   0  0  0  0  0  0  0  0  0  0  0  0
   -0.0479    1.3611   -1.9866 H   0  0  0  0  0  0  0  0  0  0  0  0
   -1.6072    0.8570   -1.3871 H   0  0  0  0  0  0  0  0  0  0  0  0
   -2.1911    3.5798   -3.6627 H   0  0  0  0  0  0  0  0  0  0  0  0
    2.0418    0.2796    2.2786 N   0  0  0  0  0  0  0  0  0  0  0  0
    2.8241    0.3856    3.4892 C   0  0  2  0  0  0  0  0  0  0  0  0
    3.8210    1.5224    3.3069 C   0  0  0  0  0  0  0  0  0  0  0  0
    4.1828    1.9269    2.2039 O   0  0  0  0  0  0  0  0  0  0  0  0
    3.5393   -0.9196    3.8018 C   0  0  0  0  0  0  0  0  0  0  0  0
    2.4063   -0.2833    1.5160 H   0  0  0  0  0  0  0  0  0  0  0  0
    2.1265    0.6366    4.2956 H   0  0  0  0  0  0  0  0  0  0  0  0
    4.2427   -1.1875    3.0050 H   0  0  0  0  0  0  0  0  0  0  0  0
    4.1086   -0.8465    4.7343 H   0  0  0  0  0  0  0  0  0  0  0  0
    2.8230   -1.7420    3.9032 H   0  0  0  0  0  0  0  0  0  0  0  0
    4.2917    2.0034    4.5207 N   0  0  0  0  0  0  0  0  0  0  0  0
    5.2567    3.0740    4.6136 C   0  0  0  0  0  0  0  0  0  0  0  0
    3.9225    1.6216    5.3865 H   0  0  0  0  0  0  0  0  0  0  0  0
    6.2712    2.6510    4.6587 H   0  0  0  0  0  0  0  0  0  0  0  0
    5.1695    3.7238    3.7304 H   0  0  0  0  0  0  0  0  0  0  0  0
    5.0644    3.6629    5.5226 H   0  0  0  0  0  0  0  0  0  0  0  0
  1  3  1  0  0  0  0
  1  7  1  0  0  0  0
  1  2  2  0  0  0  0
 34 35  1  0  0  0  0
 35 43  1  0  0  0  0
 35 36  2  0  0  0  0
  8  9  1  0  0  0  0
  9 17  1  0  0  0  0
  9 10  2  0  0  0  0
 18 19  1  0  0  0  0
 19 33  1  0  0  0  0
 19 20  2  0  0  0  0
 22 23  1  0  0  0  0
 23 24  2  0  0  0  0
 23 25  1  0  0  0  0
 34 37  1  0  0  0  0
  8 11  1  0  0  0  0
 43 44  1  0  0  0  0
 21 22  1  0  0  0  0
 18 21  1  0  0  0  0
 33 34  1  0  0  0  0
  7  8  1  0  0  0  0
 17 18  1  0  0  0  0
  3  4  1  0  0  0  0
  3  5  1  0  0  0  0
  3  6  1  0  0  0  0
 37 40  1  0  0  0  0
 37 41  1  0  0  0  0
 37 42  1  0  0  0  0
 11 14  1  0  0  0  0
 11 15  1  0  0  0  0
 11 16  1  0  0  0  0
 44 46  1  0  0  0  0
 44 47  1  0  0  0  0
 44 48  1  0  0  0  0
 22 30  1  0  0  0  0
 22 31  1  0  0  0  0
 21 28  1  0  0  0  0
 21 29  1  0  0  0  0
 34 39  1  0  0  0  0
  8 13  1  0  0  0  0
 18 27  1  0  0  0  0
 43 45  1  0  0  0  0
  7 12  1  0  0  0  0
 33 38  1  0  0  0  0
 17 26  1  0  0  0  0
 25 32  1  0  0  0  0
M  END
$$$$

  -OEChem-05262214473D

 48 47  0     1  0  0  0  0  0999 V2000
   -5.5827   -1.3473    1.4591 C   0  0  0  0  0  0  0  0  0  0  0  0
   -5.7053   -2.4696    0.9825 O   0  0  0  0  0  0  0  0  0  0  0  0
   -6.7879   -0.6277    1.9670 C   0  0  0  0  0  0  0  0  0  0  0  0
   -7.2718   -0.0164    1.1885 H   0  0  0  0  0  0  0  0  0  0  0  0
   -7.5699   -1.3171    2.3239 H   0  0  0  0  0  0  0  0  0  0  0  0
   -6.6057    0.0628    2.8060 H   0  0  0  0  0  0  0  0  0  0  0  0
   -4.4001   -0.6377    1.5884 N   0  0  0  0  0  0  0  0  0  0  0  0
   -3.1220   -1.1455    1.1644 C   0  0  2  0  0  0  0  0  0  0  0  0
   -2.2017    0.0428    0.9187 C   0  0  0  0  0  0  0  0  0  0  0  0
   -2.6171    1.1750    0.6807 O   0  0  0  0  0  0  0  0  0  0  0  0
   -3.2533   -1.9992   -0.0873 C   0  0  0  0  0  0  0  0  0  0  0  0
   -4.4370    0.2910    2.0047 H   0  0  0  0  0  0  0  0  0  0  0  0
   -2.7302   -1.7467    1.9921 H   0  0  0  0  0  0  0  0  0  0  0  0
   -3.6446   -1.4140   -0.9275 H   0  0  0  0  0  0  0  0  0  0  0  0
   -2.2844   -2.4081   -0.3922 H   0  0  0  0  0  0  0  0  0  0  0  0
   -3.9388   -2.8365    0.0822 H   0  0  0  0  0  0  0  0  0  0  0  0
   -0.8768   -0.3314    0.9568 N   0  0  0  0  0  0  0  0  0  0  0  0
    0.2067    0.6285    0.7375 C   0  0  2  0  0  0  0  0  0  0  0  0
    0.8177    0.9088    2.1071 C   0  0  0  0  0  0  0  0  0  0  0  0
    0.1613    1.3598    3.0437 O   0  0  0  0  0  0  0  0  0  0  0  0
   -0.3630    1.8959    0.0828 C   0  0  0  0  0  0  0  0  0  0  0  0
   -0.8771    1.6716   -1.3392 C   0  0  0  0  0  0  0  0  0  0  0  0
   -1.4496    2.9323   -1.9376 C   0  0  0  0  0  0  0  0  0  0  0  0
   -1.6084    3.9726   -1.3117 O   0  0  0  0  0  0  0  0  0  0  0  0
   -1.7968    2.7873   -3.2402 O   0  0  0  0  0  0  0  0  0  0  0  0
   -0.6087   -1.2764    1.1771 H   0  0  0  0  0  0  0  0  0  0  0  0
    0.9472    0.1689    0.0748 H   0  0  0  0  0  0  0  0  0  0  0  0
   -1.1832    2.2845    0.7010 H   0  0  0  0  0  0  0  0  0  0  0  0
    0.4033    2.6815    0.0492 H   0  0  0  0  0  0  0  0  0  0  0  0
   -0.0479    1.3611   -1.9866 H   0  0  0  0  0  0  0  0  0  0  0  0
   -1.6072    0.8570   -1.3871 H   0  0  0  0  0  0  0  0  0  0  0  0
   -2.1911    3.5798   -3.6627 H   0  0  0  0  0  0  0  0  0  0  0  0
    2.1617    0.5709    2.1655 N   0  0  0  0  0  0  0  0  0  0  0  0
    2.9696    0.7385    3.3520 C   0  0  2  0  0  0  0  0  0  0  0  0
    3.6657    2.0900    3.2600 C   0  0  0  0  0  0  0  0  0  0  0  0
    3.8583    2.6742    2.1958 O   0  0  0  0  0  0  0  0  0  0  0  0
    3.9830   -0.3863    3.4948 C   0  0  0  0  0  0  0  0  0  0  0  0
    2.5995    0.1870    1.3335 H   0  0  0  0  0  0  0  0  0  0  0  0
    2.2824    0.7383    4.2052 H   0  0  0  0  0  0  0  0  0  0  0  0
    4.6802   -0.4021    2.6491 H   0  0  0  0  0  0  0  0  0  0  0  0
    4.5750   -0.2734    4.4090 H   0  0  0  0  0  0  0  0  0  0  0  0
    3.4823   -1.3599    3.5309 H   0  0  0  0  0  0  0  0  0  0  0  0
    4.0851    2.5466    4.5017 N   0  0  0  0  0  0  0  0  0  0  0  0
    4.7819    3.7995    4.6770 C   0  0  0  0  0  0  0  0  0  0  0  0
    3.8659    2.0058    5.3331 H   0  0  0  0  0  0  0  0  0  0  0  0
    5.8673    3.6243    4.6398 H   0  0  0  0  0  0  0  0  0  0  0  0
    4.4950    4.4940    3.8737 H   0  0  0  0  0  0  0  0  0  0  0  0
    4.5141    4.2347    5.6511 H   0  0  0  0  0  0  0  0  0  0  0  0
  1  3  1  0  0  0  0
  1  7  1  0  0  0  0
  1  2  2  0  0  0  0
 34 35  1  0  0  0  0
 35 43  1  0  0  0  0
 35 36  2  0  0  0  0
  8  9  1  0  0  0  0
  9 17  1  0  0  0  0
  9 10  2  0  0  0  0
 18 19  1  0  0  0  0
 19 33  1  0  0  0  0
 19 20  2  0  0  0  0
 22 23  1  0  0  0  0
 23 24  2  0  0  0  0
 23 25  1  0  0  0  0
 34 37  1  0  0  0  0
  8 11  1  0  0  0  0
 43 44  1  0  0  0  0
 21 22  1  0  0  0  0
 18 21  1  0  0  0  0
 33 34  1  0  0  0  0
  7  8  1  0  0  0  0
 17 18  1  0  0  0  0
  3  4  1  0  0  0  0
  3  5  1  0  0  0  0
  3  6  1  0  0  0  0
 37 40  1  0  0  0  0
 37 41  1  0  0  0  0
 37 42  1  0  0  0  0
 11 14  1  0  0  0  0
 11 15  1  0  0  0  0
 11 16  1  0  0  0  0
 44 46  1  0  0  0  0
 44 47  1  0  0  0  0
 44 48  1  0  0  0  0
 22 30  1  0  0  0  0
 22 31  1  0  0  0  0
 21 28  1  0  0  0  0
 21 29  1  0  0  0  0
 34 39  1  0  0  0  0
  8 13  1  0  0  0  0
 18 27  1  0  0  0  0
 43 45  1  0  0  0  0
  7 12  1  0  0  0  0
 33 38  1  0  0  0  0
 17 26  1  0  0  0  0
 25 32  1  0  0  0  0
M  END
$$$$

  -OEChem-05262214473D

 48 47  0     1  0  0  0  0  0999 V2000
   -5.5827   -1.3473    1.4591 C   0  0  0  0  0  0  0  0  0  0  0  0
   -5.7053   -2.4696    0.9825 O   0  0  0  0  0  0  0  0  0  0  0  0
   -6.7879   -0.6277    1.9670 C   0  0  0  0  0  0  0  0  0  0  0  0
   -7.2718   -0.0164    1.1885 H   0  0  0  0  0  0  0  0  0  0  0  0
   -7.5699   -1.3171    2.3239 H   0  0  0  0  0  0  0  0  0  0  0  0
   -6.6057    0.0628    2.8060 H   0  0  0  0  0  0  0  0  0  0  0  0
   -4.4001   -0.6377    1.5884 N   0  0  0  0  0  0  0  0  0  0  0  0
   -3.1220   -1.1455    1.1644 C   0  0  2  0  0  0  0  0  0  0  0  0
   -2.2017    0.0428    0.9187 C   0  0  0  0  0  0  0  0  0  0  0  0
   -2.6171    1.1750    0.6807 O   0  0  0  0  0  0  0  0  0  0  0  0
   -3.2533   -1.9992   -0.0873 C   0  0  0  0  0  0  0  0  0  0  0  0
   -4.4370    0.2910    2.0047 H   0  0  0  0  0  0  0  0  0  0  0  0
   -2.7302   -1.7467    1.9921 H   0  0  0  0  0  0  0  0  0  0  0  0
   -3.6446   -1.4140   -0.9275 H   0  0  0  0  0  0  0  0  0  0  0  0
   -2.2844   -2.4081   -0.3922 H   0  0  0  0  0  0  0  0  0  0  0  0
   -3.9388   -2.8365    0.0822 H   0  0  0  0  0  0  0  0  0  0  0  0
   -0.8768   -0.3314    0.9568 N   0  0  0  0  0  0  0  0  0  0  0  0
    0.2067    0.6285    0.7375 C   0  0  2  0  0  0  0  0  0  0  0  0
    0.8177    0.9088    2.1071 C   0  0  0  0  0  0  0  0  0  0  0  0
    0.1324    1.0990    3.1099 O   0  0  0  0  0  0  0  0  0  0  0  0
   -0.3630    1.8959    0.0828 C   0  0  0  0  0  0  0  0  0  0  0  0
   -0.8771    1.6716   -1.3392 C   0  0  0  0  0  0  0  0  0  0  0  0
   -1.4496    2.9323   -1.9376 C   0  0  0  0  0  0  0  0  0  0  0  0
   -1.6084    3.9726   -1.3117 O   0  0  0  0  0  0  0  0  0  0  0  0
   -1.7968    2.7873   -3.2402 O   0  0  0  0  0  0  0  0  0  0  0  0
   -0.6087   -1.2764    1.1771 H   0  0  0  0  0  0  0  0  0  0  0  0
    0.9472    0.1689    0.0748 H   0  0  0  0  0  0  0  0  0  0  0  0
   -1.1832    2.2845    0.7010 H   0  0  0  0  0  0  0  0  0  0  0  0
    0.4033    2.6815    0.0492 H   0  0  0  0  0  0  0  0  0  0  0  0
   -0.0479    1.3611   -1.9866 H   0  0  0  0  0  0  0  0  0  0  0  0
   -1.6072    0.8570   -1.3871 H   0  0  0  0  0  0  0  0  0  0  0  0
   -2.1911    3.5798   -3.6627 H   0  0  0  0  0  0  0  0  0  0  0  0
    2.2044    0.8920    2.0808 N   0  0  0  0  0  0  0  0  0  0  0  0
    3.0216    1.1274    3.2493 C   0  0  2  0  0  0  0  0  0  0  0  0
    3.3817    2.6069    3.2809 C   0  0  0  0  0  0  0  0  0  0  0  0
    3.3708    3.3215    2.2808 O   0  0  0  0  0  0  0  0  0  0  0  0
    4.2731    0.2636    3.2324 C   0  0  0  0  0  0  0  0  0  0  0  0
    2.6682    0.7050    1.1969 H   0  0  0  0  0  0  0  0  0  0  0  0
    2.4052    0.8823    4.1210 H   0  0  0  0  0  0  0  0  0  0  0  0
    4.9034    0.4950    2.3659 H   0  0  0  0  0  0  0  0  0  0  0  0
    4.8769    0.4223    4.1320 H   0  0  0  0  0  0  0  0  0  0  0  0
    4.0126   -0.7990    3.1795 H   0  0  0  0  0  0  0  0  0  0  0  0
    3.7583    3.0253    4.5495 N   0  0  0  0  0  0  0  0  0  0  0  0
    4.1578    4.3834    4.8359 C   0  0  0  0  0  0  0  0  0  0  0  0
    3.7195    2.3693    5.3241 H   0  0  0  0  0  0  0  0  0  0  0  0
    5.2501    4.4725    4.7415 H   0  0  0  0  0  0  0  0  0  0  0  0
    3.6714    5.0664    4.1240 H   0  0  0  0  0  0  0  0  0  0  0  0
    3.8558    4.6459    5.8606 H   0  0  0  0  0  0  0  0  0  0  0  0
  1  3  1  0  0  0  0
  1  7  1  0  0  0  0
  1  2  2  0  0  0  0
 34 35  1  0  0  0  0
 35 43  1  0  0  0  0
 35 36  2  0  0  0  0
  8  9  1  0  0  0  0
  9 17  1  0  0  0  0
  9 10  2  0  0  0  0
 18 19  1  0  0  0  0
 19 33  1  0  0  0  0
 19 20  2  0  0  0  0
 22 23  1  0  0  0  0
 23 24  2  0  0  0  0
 23 25  1  0  0  0  0
 34 37  1  0  0  0  0
  8 11  1  0  0  0  0
 43 44  1  0  0  0  0
 21 22  1  0  0  0  0
 18 21  1  0  0  0  0
 33 34  1  0  0  0  0
  7  8  1  0  0  0  0
 17 18  1  0  0  0  0
  3  4  1  0  0  0  0
  3  5  1  0  0  0  0
  3  6  1  0  0  0  0
 37 40  1  0  0  0  0
 37 41  1  0  0  0  0
 37 42  1  0  0  0  0
 11 14  1  0  0  0  0
 11 15  1  0  0  0  0
 11 16  1  0  0  0  0
 44 46  1  0  0  0  0
 44 47  1  0  0  0  0
 44 48  1  0  0  0  0
 22 30  1  0  0  0  0
 22 31  1  0  0  0  0
 21 28  1  0  0  0  0
 21 29  1  0  0  0  0
 34 39  1  0  0  0  0
  8 13  1  0  0  0  0
 18 27  1  0  0  0  0
 43 45  1  0  0  0  0
  7 12  1  0  0  0  0
 33 38  1  0  0  0  0
 17 26  1  0  0  0  0
 25 32  1  0  0  0  0
M  END
$$$$

  -OEChem-05262214473D

 48 47  0     1  0  0  0  0  0999 V2000
   -5.5827   -1.3473    1.4591 C   0  0  0  0  0  0  0  0  0  0  0  0
   -5.7053   -2.4696    0.9825 O   0  0  0  0  0  0  0  0  0  0  0  0
   -6.7879   -0.6277    1.9670 C   0  0  0  0  0  0  0  0  0  0  0  0
   -7.2718   -0.0164    1.1885 H   0  0  0  0  0  0  0  0  0  0  0  0
   -7.5699   -1.3171    2.3239 H   0  0  0  0  0  0  0  0  0  0  0  0
   -6.6057    0.0628    2.8060 H   0  0  0  0  0  0  0  0  0  0  0  0
   -4.4001   -0.6377    1.5884 N   0  0  0  0  0  0  0  0  0  0  0  0
   -3.1220   -1.1455    1.1644 C   0  0  2  0  0  0  0  0  0  0  0  0
   -2.2017    0.0428    0.9187 C   0  0  0  0  0  0  0  0  0  0  0  0
   -2.6171    1.1750    0.6807 O   0  0  0  0  0  0  0  0  0  0  0  0
   -3.2533   -1.9992   -0.0873 C   0  0  0  0  0  0  0  0  0  0  0  0
   -4.4370    0.2910    2.0047 H   0  0  0  0  0  0  0  0  0  0  0  0
   -2.7302   -1.7467    1.9921 H   0  0  0  0  0  0  0  0  0  0  0  0
   -3.6446   -1.4140   -0.9275 H   0  0  0  0  0  0  0  0  0  0  0  0
   -2.2844   -2.4081   -0.3922 H   0  0  0  0  0  0  0  0  0  0  0  0
   -3.9388   -2.8365    0.0822 H   0  0  0  0  0  0  0  0  0  0  0  0
   -0.8768   -0.3314    0.9568 N   0  0  0  0  0  0  0  0  0  0  0  0
    0.2067    0.6285    0.7375 C   0  0  2  0  0  0  0  0  0  0  0  0
    0.8177    0.9088    2.1071 C   0  0  0  0  0  0  0  0  0  0  0  0
    0.1682    0.8335    3.1483 O   0  0  0  0  0  0  0  0  0  0  0  0
   -0.3630    1.8959    0.0828 C   0  0  0  0  0  0  0  0  0  0  0  0
   -0.8771    1.6716   -1.3392 C   0  0  0  0  0  0  0  0  0  0  0  0
   -1.4496    2.9323   -1.9376 C   0  0  0  0  0  0  0  0  0  0  0  0
   -1.6084    3.9726   -1.3117 O   0  0  0  0  0  0  0  0  0  0  0  0
   -1.7968    2.7873   -3.2402 O   0  0  0  0  0  0  0  0  0  0  0  0
   -0.6087   -1.2764    1.1771 H   0  0  0  0  0  0  0  0  0  0  0  0
    0.9472    0.1689    0.0748 H   0  0  0  0  0  0  0  0  0  0  0  0
   -1.1832    2.2845    0.7010 H   0  0  0  0  0  0  0  0  0  0  0  0
    0.4033    2.6815    0.0492 H   0  0  0  0  0  0  0  0  0  0  0  0
   -0.0479    1.3611   -1.9866 H   0  0  0  0  0  0  0  0  0  0  0  0
   -1.6072    0.8570   -1.3871 H   0  0  0  0  0  0  0  0  0  0  0  0
   -2.1911    3.5798   -3.6627 H   0  0  0  0  0  0  0  0  0  0  0  0
    2.1670    1.2208    2.0302 N   0  0  0  0  0  0  0  0  0  0  0  0
    2.9766    1.5259    3.1878 C   0  0  2  0  0  0  0  0  0  0  0  0
    2.9883    3.0381    3.3682 C   0  0  0  0  0  0  0  0  0  0  0  0
    2.7537    3.8246    2.4532 O   0  0  0  0  0  0  0  0  0  0  0  0
    4.3898    0.9861    3.0325 C   0  0  0  0  0  0  0  0  0  0  0  0
    2.6077    1.2356    1.1153 H   0  0  0  0  0  0  0  0  0  0  0  0
    2.4862    1.0585    4.0487 H   0  0  0  0  0  0  0  0  0  0  0  0
    4.8971    1.4428    2.1748 H   0  0  0  0  0  0  0  0  0  0  0  0
    4.9936    1.1931    3.9222 H   0  0  0  0  0  0  0  0  0  0  0  0
    4.3778   -0.0975    2.8731 H   0  0  0  0  0  0  0  0  0  0  0  0
    3.3338    3.4068    4.6608 N   0  0  0  0  0  0  0  0  0  0  0  0
    3.4268    4.7859    5.0797 C   0  0  0  0  0  0  0  0  0  0  0  0
    3.4931    2.6874    5.3600 H   0  0  0  0  0  0  0  0  0  0  0  0
    4.4618    5.1379    4.9571 H   0  0  0  0  0  0  0  0  0  0  0  0
    2.7548    5.4020    4.4642 H   0  0  0  0  0  0  0  0  0  0  0  0
    3.1344    4.8684    6.1369 H   0  0  0  0  0  0  0  0  0  0  0  0
  1  3  1  0  0  0  0
  1  7  1  0  0  0  0
  1  2  2  0  0  0  0
 34 35  1  0  0  0  0
 35 43  1  0  0  0  0
 35 36  2  0  0  0  0
  8  9  1  0  0  0  0
  9 17  1  0  0  0  0
  9 10  2  0  0  0  0
 18 19  1  0  0  0  0
 19 33  1  0  0  0  0
 19 20  2  0  0  0  0
 22 23  1  0  0  0  0
 23 24  2  0  0  0  0
 23 25  1  0  0  0  0
 34 37  1  0  0  0  0
  8 11  1  0  0  0  0
 43 44  1  0  0  0  0
 21 22  1  0  0  0  0
 18 21  1  0  0  0  0
 33 34  1  0  0  0  0
  7  8  1  0  0  0  0
 17 18  1  0  0  0  0
  3  4  1  0  0  0  0
  3  5  1  0  0  0  0
  3  6  1  0  0  0  0
 37 40  1  0  0  0  0
 37 41  1  0  0  0  0
 37 42  1  0  0  0  0
 11 14  1  0  0  0  0
 11 15  1  0  0  0  0
 11 16  1  0  0  0  0
 44 46  1  0  0  0  0
 44 47  1  0  0  0  0
 44 48  1  0  0  0  0
 22 30  1  0  0  0  0
 22 31  1  0  0  0  0
 21 28  1  0  0  0  0
 21 29  1  0  0  0  0
 34 39  1  0  0  0  0
  8 13  1  0  0  0  0
 18 27  1  0  0  0  0
 43 45  1  0  0  0  0
  7 12  1  0  0  0  0
 33 38  1  0  0  0  0
 17 26  1  0  0  0  0
 25 32  1  0  0  0  0
M  END
$$$$

  -OEChem-05262214473D

 48 47  0     1  0  0  0  0  0999 V2000
   -5.5827   -1.3473    1.4591 C   0  0  0  0  0  0  0  0  0  0  0  0
   -5.7053   -2.4696    0.9825 O   0  0  0  0  0  0  0  0  0  0  0  0
   -6.7879   -0.6277    1.9670 C   0  0  0  0  0  0  0  0  0  0  0  0
   -7.2718   -0.0164    1.1885 H   0  0  0  0  0  0  0  0  0  0  0  0
   -7.5699   -1.3171    2.3239 H   0  0  0  0  0  0  0  0  0  0  0  0
   -6.6057    0.0628    2.8060 H   0  0  0  0  0  0  0  0  0  0  0  0
   -4.4001   -0.6377    1.5884 N   0  0  0  0  0  0  0  0  0  0  0  0
   -3.1220   -1.1455    1.1644 C   0  0  2  0  0  0  0  0  0  0  0  0
   -2.2017    0.0428    0.9187 C   0  0  0  0  0  0  0  0  0  0  0  0
   -2.6171    1.1750    0.6807 O   0  0  0  0  0  0  0  0  0  0  0  0
   -3.2533   -1.9992   -0.0873 C   0  0  0  0  0  0  0  0  0  0  0  0
   -4.4370    0.2910    2.0047 H   0  0  0  0  0  0  0  0  0  0  0  0
   -2.7302   -1.7467    1.9921 H   0  0  0  0  0  0  0  0  0  0  0  0
   -3.6446   -1.4140   -0.9275 H   0  0  0  0  0  0  0  0  0  0  0  0
   -2.2844   -2.4081   -0.3922 H   0  0  0  0  0  0  0  0  0  0  0  0
   -3.9388   -2.8365    0.0822 H   0  0  0  0  0  0  0  0  0  0  0  0
   -0.8768   -0.3314    0.9568 N   0  0  0  0  0  0  0  0  0  0  0  0
    0.2067    0.6285    0.7375 C   0  0  2  0  0  0  0  0  0  0  0  0
    0.8177    0.9088    2.1071 C   0  0  0  0  0  0  0  0  0  0  0  0
    0.2664    0.5814    3.1561 O   0  0  0  0  0  0  0  0  0  0  0  0
   -0.3630    1.8959    0.0828 C   0  0  0  0  0  0  0  0  0  0  0  0
   -0.8771    1.6716   -1.3392 C   0  0  0  0  0  0  0  0  0  0  0  0
   -1.4496    2.9323   -1.9376 C   0  0  0  0  0  0  0  0  0  0  0  0
   -1.6084    3.9726   -1.3117 O   0  0  0  0  0  0  0  0  0  0  0  0
   -1.7968    2.7873   -3.2402 O   0  0  0  0  0  0  0  0  0  0  0  0
   -0.6087   -1.2764    1.1771 H   0  0  0  0  0  0  0  0  0  0  0  0
    0.9472    0.1689    0.0748 H   0  0  0  0  0  0  0  0  0  0  0  0
   -1.1832    2.2845    0.7010 H   0  0  0  0  0  0  0  0  0  0  0  0
    0.4033    2.6815    0.0492 H   0  0  0  0  0  0  0  0  0  0  0  0
   -0.0479    1.3611   -1.9866 H   0  0  0  0  0  0  0  0  0  0  0  0
   -1.6072    0.8570   -1.3871 H   0  0  0  0  0  0  0  0  0  0  0  0
   -2.1911    3.5798   -3.6627 H   0  0  0  0  0  0  0  0  0  0  0  0
    2.0521    1.5349    2.0172 N   0  0  0  0  0  0  0  0  0  0  0  0
    2.8376    1.9066    3.1719 C   0  0  2  0  0  0  0  0  0  0  0  0
    2.5122    3.3541    3.5160 C   0  0  0  0  0  0  0  0  0  0  0  0
    2.0488    4.1494    2.7012 O   0  0  0  0  0  0  0  0  0  0  0  0
    4.3252    1.7317    2.9088 C   0  0  0  0  0  0  0  0  0  0  0  0
    2.4221    1.7424    1.0944 H   0  0  0  0  0  0  0  0  0  0  0  0
    2.5202    1.2551    3.9934 H   0  0  0  0  0  0  0  0  0  0  0  0
    4.6617    2.3766    2.0888 H   0  0  0  0  0  0  0  0  0  0  0  0
    4.9173    1.9865    3.7939 H   0  0  0  0  0  0  0  0  0  0  0  0
    4.5530    0.6966    2.6324 H   0  0  0  0  0  0  0  0  0  0  0  0
    2.8404    3.6651    4.8281 N   0  0  0  0  0  0  0  0  0  0  0  0
    2.6388    4.9796    5.3916 C   0  0  0  0  0  0  0  0  0  0  0  0
    3.2023    2.9383    5.4384 H   0  0  0  0  0  0  0  0  0  0  0  0
    3.5559    5.5751    5.2718 H   0  0  0  0  0  0  0  0  0  0  0  0
    1.8076    5.4779    4.8712 H   0  0  0  0  0  0  0  0  0  0  0  0
    2.3990    4.8871    6.4611 H   0  0  0  0  0  0  0  0  0  0  0  0
  1  3  1  0  0  0  0
  1  7  1  0  0  0  0
  1  2  2  0  0  0  0
 34 35  1  0  0  0  0
 35 43  1  0  0  0  0
 35 36  2  0  0  0  0
  8  9  1  0  0  0  0
  9 17  1  0  0  0  0
  9 10  2  0  0  0  0
 18 19  1  0  0  0  0
 19 33  1  0  0  0  0
 19 20  2  0  0  0  0
 22 23  1  0  0  0  0
 23 24  2  0  0  0  0
 23 25  1  0  0  0  0
 34 37  1  0  0  0  0
  8 11  1  0  0  0  0
 43 44  1  0  0  0  0
 21 22  1  0  0  0  0
 18 21  1  0  0  0  0
 33 34  1  0  0  0  0
  7  8  1  0  0  0  0
 17 18  1  0  0  0  0
  3  4  1  0  0  0  0
  3  5  1  0  0  0  0
  3  6  1  0  0  0  0
 37 40  1  0  0  0  0
 37 41  1  0  0  0  0
 37 42  1  0  0  0  0
 11 14  1  0  0  0  0
 11 15  1  0  0  0  0
 11 16  1  0  0  0  0
 44 46  1  0  0  0  0
 44 47  1  0  0  0  0
 44 48  1  0  0  0  0
 22 30  1  0  0  0  0
 22 31  1  0  0  0  0
 21 28  1  0  0  0  0
 21 29  1  0  0  0  0
 34 39  1  0  0  0  0
  8 13  1  0  0  0  0
 18 27  1  0  0  0  0
 43 45  1  0  0  0  0
  7 12  1  0  0  0  0
 33 38  1  0  0  0  0
 17 26  1  0  0  0  0
 25 32  1  0  0  0  0
M  END
$$$$

  -OEChem-05262214473D

 48 47  0     1  0  0  0  0  0999 V2000
   -5.5827   -1.3473    1.4591 C   0  0  0  0  0  0  0  0  0  0  0  0
   -5.7053   -2.4696    0.9825 O   0  0  0  0  0  0  0  0  0  0  0  0
   -6.7879   -0.6277    1.9670 C   0  0  0  0  0  0  0  0  0  0  0  0
   -7.2718   -0.0164    1.1885 H   0  0  0  0  0  0  0  0  0  0  0  0
   -7.5699   -1.3171    2.3239 H   0  0  0  0  0  0  0  0  0  0  0  0
   -6.6057    0.0628    2.8060 H   0  0  0  0  0  0  0  0  0  0  0  0
   -4.4001   -0.6377    1.5884 N   0  0  0  0  0  0  0  0  0  0  0  0
   -3.1220   -1.1455    1.1644 C   0  0  2  0  0  0  0  0  0  0  0  0
   -2.2017    0.0428    0.9187 C   0  0  0  0  0  0  0  0  0  0  0  0
   -2.6171    1.1750    0.6807 O   0  0  0  0  0  0  0  0  0  0  0  0
   -3.2533   -1.9992   -0.0873 C   0  0  0  0  0  0  0  0  0  0  0  0
   -4.4370    0.2910    2.0047 H   0  0  0  0  0  0  0  0  0  0  0  0
   -2.7302   -1.7467    1.9921 H   0  0  0  0  0  0  0  0  0  0  0  0
   -3.6446   -1.4140   -0.9275 H   0  0  0  0  0  0  0  0  0  0  0  0
   -2.2844   -2.4081   -0.3922 H   0  0  0  0  0  0  0  0  0  0  0  0
   -3.9388   -2.8365    0.0822 H   0  0  0  0  0  0  0  0  0  0  0  0
   -0.8768   -0.3314    0.9568 N   0  0  0  0  0  0  0  0  0  0  0  0
    0.2067    0.6285    0.7375 C   0  0  2  0  0  0  0  0  0  0  0  0
    1.0510    0.6228    2.0082 C   0  0  0  0  0  0  0  0  0  0  0  0
    0.7994   -0.1065    2.9654 O   0  0  0  0  0  0  0  0  0  0  0  0
   -0.3928    2.0115    0.4419 C   0  0  0  0  0  0  0  0  0  0  0  0
   -1.1473    2.0801   -0.8857 C   0  0  0  0  0  0  0  0  0  0  0  0
   -1.7405    3.4457   -1.1276 C   0  0  0  0  0  0  0  0  0  0  0  0
   -1.7355    4.3473   -0.2992 O   0  0  0  0  0  0  0  0  0  0  0  0
   -2.3066    3.5651   -2.3539 O   0  0  0  0  0  0  0  0  0  0  0  0
   -0.6087   -1.2764    1.1771 H   0  0  0  0  0  0  0  0  0  0  0  0
    0.8004    0.2905   -0.1181 H   0  0  0  0  0  0  0  0  0  0  0  0
   -1.0763    2.2904    1.2550 H   0  0  0  0  0  0  0  0  0  0  0  0
    0.3996    2.7713    0.4243 H   0  0  0  0  0  0  0  0  0  0  0  0
   -0.4554    1.8834   -1.7139 H   0  0  0  0  0  0  0  0  0  0  0  0
   -1.9192    1.3070   -0.9587 H   0  0  0  0  0  0  0  0  0  0  0  0
   -2.7210    4.4332   -2.5448 H   0  0  0  0  0  0  0  0  0  0  0  0
    2.1239    1.4988    1.9339 N   0  0  0  0  0  0  0  0  0  0  0  0
    3.0754    1.6785    3.0068 C   0  0  2  0  0  0  0  0  0  0  0  0
    2.6130    2.8574    3.8529 C   0  0  0  0  0  0  0  0  0  0  0  0
    1.8656    3.7359    3.4278 O   0  0  0  0  0  0  0  0  0  0  0  0
    4.4784    1.9127    2.4687 C   0  0  0  0  0  0  0  0  0  0  0  0
    2.2469    2.0405    1.0838 H   0  0  0  0  0  0  0  0  0  0  0  0
    3.0496    0.7637    3.6089 H   0  0  0  0  0  0  0  0  0  0  0  0
    4.5238    2.8250    1.8628 H   0  0  0  0  0  0  0  0  0  0  0  0
    5.2027    2.0202    3.2828 H   0  0  0  0  0  0  0  0  0  0  0  0
    4.7977    1.0774    1.8362 H   0  0  0  0  0  0  0  0  0  0  0  0
    3.1675    2.8361    5.1250 N   0  0  0  0  0  0  0  0  0  0  0  0
    2.8930    3.8539    6.1123 C   0  0  0  0  0  0  0  0  0  0  0  0
    3.7619    2.0590    5.3981 H   0  0  0  0  0  0  0  0  0  0  0  0
    3.6584    4.6415    6.0504 H   0  0  0  0  0  0  0  0  0  0  0  0
    1.9014    4.2907    5.9225 H   0  0  0  0  0  0  0  0  0  0  0  0
    2.9097    3.4047    7.1162 H   0  0  0  0  0  0  0  0  0  0  0  0
  1  3  1  0  0  0  0
  1  7  1  0  0  0  0
  1  2  2  0  0  0  0
 34 35  1  0  0  0  0
 35 43  1  0  0  0  0
 35 36  2  0  0  0  0
  8  9  1  0  0  0  0
  9 17  1  0  0  0  0
  9 10  2  0  0  0  0
 18 19  1  0  0  0  0
 19 33  1  0  0  0  0
 19 20  2  0  0  0  0
 22 23  1  0  0  0  0
 23 24  2  0  0  0  0
 23 25  1  0  0  0  0
 34 37  1  0  0  0  0
  8 11  1  0  0  0  0
 43 44  1  0  0  0  0
 21 22  1  0  0  0  0
 18 21  1  0  0  0  0
 33 34  1  0  0  0  0
  7  8  1  0  0  0  0
 17 18  1  0  0  0  0
  3  4  1  0  0  0  0
  3  5  1  0  0  0  0
  3  6  1  0  0  0  0
 37 40  1  0  0  0  0
 37 41  1  0  0  0  0
 37 42  1  0  0  0  0
 11 14  1  0  0  0  0
 11 15  1  0  0  0  0
 11 16  1  0  0  0  0
 44 46  1  0  0  0  0
 44 47  1  0  0  0  0
 44 48  1  0  0  0  0
 22 30  1  0  0  0  0
 22 31  1  0  0  0  0
 21 28  1  0  0  0  0
 21 29  1  0  0  0  0
 34 39  1  0  0  0  0
  8 13  1  0  0  0  0
 18 27  1  0  0  0  0
 43 45  1  0  0  0  0
  7 12  1  0  0  0  0
 33 38  1  0  0  0  0
 17 26  1  0  0  0  0
 25 32  1  0  0  0  0
M  END
$$$$

  -OEChem-05262214473D

 48 47  0     1  0  0  0  0  0999 V2000
   -5.5827   -1.3473    1.4591 C   0  0  0  0  0  0  0  0  0  0  0  0
   -5.7053   -2.4696    0.9825 O   0  0  0  0  0  0  0  0  0  0  0  0
   -6.7879   -0.6277    1.9670 C   0  0  0  0  0  0  0  0  0  0  0  0
   -7.2718   -0.0164    1.1885 H   0  0  0  0  0  0  0  0  0  0  0  0
   -7.5699   -1.3171    2.3239 H   0  0  0  0  0  0  0  0  0  0  0  0
   -6.6057    0.0628    2.8060 H   0  0  0  0  0  0  0  0  0  0  0  0
   -4.4001   -0.6377    1.5884 N   0  0  0  0  0  0  0  0  0  0  0  0
   -3.1220   -1.1455    1.1644 C   0  0  2  0  0  0  0  0  0  0  0  0
   -2.2017    0.0428    0.9187 C   0  0  0  0  0  0  0  0  0  0  0  0
   -2.6171    1.1750    0.6807 O   0  0  0  0  0  0  0  0  0  0  0  0
   -3.2533   -1.9992   -0.0873 C   0  0  0  0  0  0  0  0  0  0  0  0
   -4.4370    0.2910    2.0047 H   0  0  0  0  0  0  0  0  0  0  0  0
   -2.7302   -1.7467    1.9921 H   0  0  0  0  0  0  0  0  0  0  0  0
   -3.6446   -1.4140   -0.9275 H   0  0  0  0  0  0  0  0  0  0  0  0
   -2.2844   -2.4081   -0.3922 H   0  0  0  0  0  0  0  0  0  0  0  0
   -3.9388   -2.8365    0.0822 H   0  0  0  0  0  0  0  0  0  0  0  0
   -0.8768   -0.3314    0.9568 N   0  0  0  0  0  0  0  0  0  0  0  0
    0.2067    0.6285    0.7375 C   0  0  2  0  0  0  0  0  0  0  0  0
    1.0510    0.6228    2.0082 C   0  0  0  0  0  0  0  0  0  0  0  0
    0.9768   -0.2731    2.8468 O   0  0  0  0  0  0  0  0  0  0  0  0
   -0.3928    2.0115    0.4419 C   0  0  0  0  0  0  0  0  0  0  0  0
   -1.1473    2.0801   -0.8857 C   0  0  0  0  0  0  0  0  0  0  0  0
   -1.7405    3.4457   -1.1276 C   0  0  0  0  0  0  0  0  0  0  0  0
   -1.7355    4.3473   -0.2992 O   0  0  0  0  0  0  0  0  0  0  0  0
   -2.3066    3.5651   -2.3539 O   0  0  0  0  0  0  0  0  0  0  0  0
   -0.6087   -1.2764    1.1771 H   0  0  0  0  0  0  0  0  0  0  0  0
    0.8004    0.2905   -0.1181 H   0  0  0  0  0  0  0  0  0  0  0  0
   -1.0763    2.2904    1.2550 H   0  0  0  0  0  0  0  0  0  0  0  0
    0.3996    2.7713    0.4243 H   0  0  0  0  0  0  0  0  0  0  0  0
   -0.4554    1.8834   -1.7139 H   0  0  0  0  0  0  0  0  0  0  0  0
   -1.9192    1.3070   -0.9587 H   0  0  0  0  0  0  0  0  0  0  0  0
   -2.7210    4.4332   -2.5448 H   0  0  0  0  0  0  0  0  0  0  0  0
    1.9086    1.7108    2.0780 N   0  0  0  0  0  0  0  0  0  0  0  0
    2.8146    1.9356    3.1812 C   0  0  2  0  0  0  0  0  0  0  0  0
    2.1214    2.8534    4.1795 C   0  0  0  0  0  0  0  0  0  0  0  0
    1.1960    3.6019    3.8721 O   0  0  0  0  0  0  0  0  0  0  0  0
    4.1260    2.5414    2.7057 C   0  0  0  0  0  0  0  0  0  0  0  0
    1.8993    2.3824    1.3163 H   0  0  0  0  0  0  0  0  0  0  0  0
    2.9956    0.9602    3.6457 H   0  0  0  0  0  0  0  0  0  0  0  0
    3.9647    3.5192    2.2374 H   0  0  0  0  0  0  0  0  0  0  0  0
    4.8220    2.6846    3.5388 H   0  0  0  0  0  0  0  0  0  0  0  0
    4.6086    1.8940    1.9655 H   0  0  0  0  0  0  0  0  0  0  0  0
    2.6862    2.7701    5.4445 N   0  0  0  0  0  0  0  0  0  0  0  0
    2.2132    3.5525    6.5626 C   0  0  0  0  0  0  0  0  0  0  0  0
    3.4381    2.1084    5.6134 H   0  0  0  0  0  0  0  0  0  0  0  0
    2.7898    4.4871    6.6268 H   0  0  0  0  0  0  0  0  0  0  0  0
    1.1481    3.7879    6.4208 H   0  0  0  0  0  0  0  0  0  0  0  0
    2.3412    2.9783    7.4921 H   0  0  0  0  0  0  0  0  0  0  0  0
  1  3  1  0  0  0  0
  1  7  1  0  0  0  0
  1  2  2  0  0  0  0
 34 35  1  0  0  0  0
 35 43  1  0  0  0  0
 35 36  2  0  0  0  0
  8  9  1  0  0  0  0
  9 17  1  0  0  0  0
  9 10  2  0  0  0  0
 18 19  1  0  0  0  0
 19 33  1  0  0  0  0
 19 20  2  0  0  0  0
 22 23  1  0  0  0  0
 23 24  2  0  0  0  0
 23 25  1  0  0  0  0
 34 37  1  0  0  0  0
  8 11  1  0  0  0  0
 43 44  1  0  0  0  0
 21 22  1  0  0  0  0
 18 21  1  0  0  0  0
 33 34  1  0  0  0  0
  7  8  1  0  0  0  0
 17 18  1  0  0  0  0
  3  4  1  0  0  0  0
  3  5  1  0  0  0  0
  3  6  1  0  0  0  0
 37 40  1  0  0  0  0
 37 41  1  0  0  0  0
 37 42  1  0  0  0  0
 11 14  1  0  0  0  0
 11 15  1  0  0  0  0
 11 16  1  0  0  0  0
 44 46  1  0  0  0  0
 44 47  1  0  0  0  0
 44 48  1  0  0  0  0
 22 30  1  0  0  0  0
 22 31  1  0  0  0  0
 21 28  1  0  0  0  0
 21 29  1  0  0  0  0
 34 39  1  0  0  0  0
  8 13  1  0  0  0  0
 18 27  1  0  0  0  0
 43 45  1  0  0  0  0
  7 12  1  0  0  0  0
 33 38  1  0  0  0  0
 17 26  1  0  0  0  0
 25 32  1  0  0  0  0
M  END
$$$$

  -OEChem-05262214473D

 48 47  0     1  0  0  0  0  0999 V2000
   -5.5827   -1.3473    1.4591 C   0  0  0  0  0  0  0  0  0  0  0  0
   -5.7053   -2.4696    0.9825 O   0  0  0  0  0  0  0  0  0  0  0  0
   -6.7879   -0.6277    1.9670 C   0  0  0  0  0  0  0  0  0  0  0  0
   -7.2718   -0.0164    1.1885 H   0  0  0  0  0  0  0  0  0  0  0  0
   -7.5699   -1.3171    2.3239 H   0  0  0  0  0  0  0  0  0  0  0  0
   -6.6057    0.0628    2.8060 H   0  0  0  0  0  0  0  0  0  0  0  0
   -4.4001   -0.6377    1.5884 N   0  0  0  0  0  0  0  0  0  0  0  0
   -3.1220   -1.1455    1.1644 C   0  0  2  0  0  0  0  0  0  0  0  0
   -2.2017    0.0428    0.9187 C   0  0  0  0  0  0  0  0  0  0  0  0
   -2.6171    1.1750    0.6807 O   0  0  0  0  0  0  0  0  0  0  0  0
   -3.2533   -1.9992   -0.0873 C   0  0  0  0  0  0  0  0  0  0  0  0
   -4.4370    0.2910    2.0047 H   0  0  0  0  0  0  0  0  0  0  0  0
   -2.7302   -1.7467    1.9921 H   0  0  0  0  0  0  0  0  0  0  0  0
   -3.6446   -1.4140   -0.9275 H   0  0  0  0  0  0  0  0  0  0  0  0
   -2.2844   -2.4081   -0.3922 H   0  0  0  0  0  0  0  0  0  0  0  0
   -3.9388   -2.8365    0.0822 H   0  0  0  0  0  0  0  0  0  0  0  0
   -0.8768   -0.3314    0.9568 N   0  0  0  0  0  0  0  0  0  0  0  0
    0.2067    0.6285    0.7375 C   0  0  2  0  0  0  0  0  0  0  0  0
    1.0510    0.6228    2.0082 C   0  0  0  0  0  0  0  0  0  0  0  0
    1.1841   -0.3787    2.7086 O   0  0  0  0  0  0  0  0  0  0  0  0
   -0.3928    2.0115    0.4419 C   0  0  0  0  0  0  0  0  0  0  0  0
   -1.1473    2.0801   -0.8857 C   0  0  0  0  0  0  0  0  0  0  0  0
   -1.7405    3.4457   -1.1276 C   0  0  0  0  0  0  0  0  0  0  0  0
   -1.7355    4.3473   -0.2992 O   0  0  0  0  0  0  0  0  0  0  0  0
   -2.3066    3.5651   -2.3539 O   0  0  0  0  0  0  0  0  0  0  0  0
   -0.6087   -1.2764    1.1771 H   0  0  0  0  0  0  0  0  0  0  0  0
    0.8004    0.2905   -0.1181 H   0  0  0  0  0  0  0  0  0  0  0  0
   -1.0763    2.2904    1.2550 H   0  0  0  0  0  0  0  0  0  0  0  0
    0.3996    2.7713    0.4243 H   0  0  0  0  0  0  0  0  0  0  0  0
   -0.4554    1.8834   -1.7139 H   0  0  0  0  0  0  0  0  0  0  0  0
   -1.9192    1.3070   -0.9587 H   0  0  0  0  0  0  0  0  0  0  0  0
   -2.7210    4.4332   -2.5448 H   0  0  0  0  0  0  0  0  0  0  0  0
    1.6547    1.8485    2.2472 N   0  0  0  0  0  0  0  0  0  0  0  0
    2.5071    2.1028    3.3863 C   0  0  2  0  0  0  0  0  0  0  0  0
    1.6471    2.6969    4.4940 C   0  0  0  0  0  0  0  0  0  0  0  0
    0.5776    3.2645    4.2815 O   0  0  0  0  0  0  0  0  0  0  0  0
    3.6499    3.0387    3.0243 C   0  0  0  0  0  0  0  0  0  0  0  0
    1.4896    2.6044    1.5895 H   0  0  0  0  0  0  0  0  0  0  0  0
    2.9010    1.1330    3.7093 H   0  0  0  0  0  0  0  0  0  0  0  0
    3.2746    4.0156    2.6982 H   0  0  0  0  0  0  0  0  0  0  0  0
    4.3109    3.2076    3.8808 H   0  0  0  0  0  0  0  0  0  0  0  0
    4.2497    2.6234    2.2072 H   0  0  0  0  0  0  0  0  0  0  0  0
    2.2351    2.5567    5.7433 N   0  0  0  0  0  0  0  0  0  0  0  0
    1.6211    3.0503    6.9538 C   0  0  0  0  0  0  0  0  0  0  0  0
    3.1145    2.0554    5.8282 H   0  0  0  0  0  0  0  0  0  0  0  0
    1.9835    4.0681    7.1607 H   0  0  0  0  0  0  0  0  0  0  0  0
    0.5283    3.0685    6.8294 H   0  0  0  0  0  0  0  0  0  0  0  0
    1.8836    2.3900    7.7935 H   0  0  0  0  0  0  0  0  0  0  0  0
  1  3  1  0  0  0  0
  1  7  1  0  0  0  0
  1  2  2  0  0  0  0
 34 35  1  0  0  0  0
 35 43  1  0  0  0  0
 35 36  2  0  0  0  0
  8  9  1  0  0  0  0
  9 17  1  0  0  0  0
  9 10  2  0  0  0  0
 18 19  1  0  0  0  0
 19 33  1  0  0  0  0
 19 20  2  0  0  0  0
 22 23  1  0  0  0  0
 23 24  2  0  0  0  0
 23 25  1  0  0  0  0
 34 37  1  0  0  0  0
  8 11  1  0  0  0  0
 43 44  1  0  0  0  0
 21 22  1  0  0  0  0
 18 21  1  0  0  0  0
 33 34  1  0  0  0  0
  7  8  1  0  0  0  0
 17 18  1  0  0  0  0
  3  4  1  0  0  0  0
  3  5  1  0  0  0  0
  3  6  1  0  0  0  0
 37 40  1  0  0  0  0
 37 41  1  0  0  0  0
 37 42  1  0  0  0  0
 11 14  1  0  0  0  0
 11 15  1  0  0  0  0
 11 16  1  0  0  0  0
 44 46  1  0  0  0  0
 44 47  1  0  0  0  0
 44 48  1  0  0  0  0
 22 30  1  0  0  0  0
 22 31  1  0  0  0  0
 21 28  1  0  0  0  0
 21 29  1  0  0  0  0
 34 39  1  0  0  0  0
  8 13  1  0  0  0  0
 18 27  1  0  0  0  0
 43 45  1  0  0  0  0
  7 12  1  0  0  0  0
 33 38  1  0  0  0  0
 17 26  1  0  0  0  0
 25 32  1  0  0  0  0
M  END
$$$$

  -OEChem-05262214473D

 48 47  0     1  0  0  0  0  0999 V2000
   -5.5827   -1.3473    1.4591 C   0  0  0  0  0  0  0  0  0  0  0  0
   -5.7053   -2.4696    0.9825 O   0  0  0  0  0  0  0  0  0  0  0  0
   -6.7879   -0.6277    1.9670 C   0  0  0  0  0  0  0  0  0  0  0  0
   -7.2718   -0.0164    1.1885 H   0  0  0  0  0  0  0  0  0  0  0  0
   -7.5699   -1.3171    2.3239 H   0  0  0  0  0  0  0  0  0  0  0  0
   -6.6057    0.0628    2.8060 H   0  0  0  0  0  0  0  0  0  0  0  0
   -4.4001   -0.6377    1.5884 N   0  0  0  0  0  0  0  0  0  0  0  0
   -3.1220   -1.1455    1.1644 C   0  0  2  0  0  0  0  0  0  0  0  0
   -2.2017    0.0428    0.9187 C   0  0  0  0  0  0  0  0  0  0  0  0
   -2.6171    1.1750    0.6807 O   0  0  0  0  0  0  0  0  0  0  0  0
   -3.2533   -1.9992   -0.0873 C   0  0  0  0  0  0  0  0  0  0  0  0
   -4.4370    0.2910    2.0047 H   0  0  0  0  0  0  0  0  0  0  0  0
   -2.7302   -1.7467    1.9921 H   0  0  0  0  0  0  0  0  0  0  0  0
   -3.6446   -1.4140   -0.9275 H   0  0  0  0  0  0  0  0  0  0  0  0
   -2.2844   -2.4081   -0.3922 H   0  0  0  0  0  0  0  0  0  0  0  0
   -3.9388   -2.8365    0.0822 H   0  0  0  0  0  0  0  0  0  0  0  0
   -0.8768   -0.3314    0.9568 N   0  0  0  0  0  0  0  0  0  0  0  0
    0.2067    0.6285    0.7375 C   0  0  2  0  0  0  0  0  0  0  0  0
    1.0510    0.6228    2.0082 C   0  0  0  0  0  0  0  0  0  0  0  0
    1.4072   -0.4163    2.5602 O   0  0  0  0  0  0  0  0  0  0  0  0
   -0.3928    2.0115    0.4419 C   0  0  0  0  0  0  0  0  0  0  0  0
   -1.1473    2.0801   -0.8857 C   0  0  0  0  0  0  0  0  0  0  0  0
   -1.7405    3.4457   -1.1276 C   0  0  0  0  0  0  0  0  0  0  0  0
   -1.7355    4.3473   -0.2992 O   0  0  0  0  0  0  0  0  0  0  0  0
   -2.3066    3.5651   -2.3539 O   0  0  0  0  0  0  0  0  0  0  0  0
   -0.6087   -1.2764    1.1771 H   0  0  0  0  0  0  0  0  0  0  0  0
    0.8004    0.2905   -0.1181 H   0  0  0  0  0  0  0  0  0  0  0  0
   -1.0763    2.2904    1.2550 H   0  0  0  0  0  0  0  0  0  0  0  0
    0.3996    2.7713    0.4243 H   0  0  0  0  0  0  0  0  0  0  0  0
   -0.4554    1.8834   -1.7139 H   0  0  0  0  0  0  0  0  0  0  0  0
   -1.9192    1.3070   -0.9587 H   0  0  0  0  0  0  0  0  0  0  0  0
   -2.7210    4.4332   -2.5448 H   0  0  0  0  0  0  0  0  0  0  0  0
    1.3797    1.9026    2.4302 N   0  0  0  0  0  0  0  0  0  0  0  0
    2.1739    2.1686    3.6080 C   0  0  2  0  0  0  0  0  0  0  0  0
    1.2224    2.3984    4.7748 C   0  0  0  0  0  0  0  0  0  0  0  0
    0.0527    2.7466    4.6280 O   0  0  0  0  0  0  0  0  0  0  0  0
    3.0825    3.3708    3.4028 C   0  0  0  0  0  0  0  0  0  0  0  0
    1.0458    2.6915    1.8848 H   0  0  0  0  0  0  0  0  0  0  0  0
    2.7724    1.2705    3.7954 H   0  0  0  0  0  0  0  0  0  0  0  0
    2.5006    4.2803    3.2136 H   0  0  0  0  0  0  0  0  0  0  0  0
    3.7040    3.5536    4.2855 H   0  0  0  0  0  0  0  0  0  0  0  0
    3.7456    3.2161    2.5448 H   0  0  0  0  0  0  0  0  0  0  0  0
    1.8452    2.2106    6.0008 N   0  0  0  0  0  0  0  0  0  0  0  0
    1.1571    2.3815    7.2591 C   0  0  0  0  0  0  0  0  0  0  0  0
    2.8131    1.9037    6.0278 H   0  0  0  0  0  0  0  0  0  0  0  0
    1.2944    3.4131    7.6156 H   0  0  0  0  0  0  0  0  0  0  0  0
    0.0844    2.1814    7.1204 H   0  0  0  0  0  0  0  0  0  0  0  0
    1.5681    1.6799    7.9999 H   0  0  0  0  0  0  0  0  0  0  0  0
  1  3  1  0  0  0  0
  1  7  1  0  0  0  0
  1  2  2  0  0  0  0
 34 35  1  0  0  0  0
 35 43  1  0  0  0  0
 35 36  2  0  0  0  0
  8  9  1  0  0  0  0
  9 17  1  0  0  0  0
  9 10  2  0  0  0  0
 18 19  1  0  0  0  0
 19 33  1  0  0  0  0
 19 20  2  0  0  0  0
 22 23  1  0  0  0  0
 23 24  2  0  0  0  0
 23 25  1  0  0  0  0
 34 37  1  0  0  0  0
  8 11  1  0  0  0  0
 43 44  1  0  0  0  0
 21 22  1  0  0  0  0
 18 21  1  0  0  0  0
 33 34  1  0  0  0  0
  7  8  1  0  0  0  0
 17 18  1  0  0  0  0
  3  4  1  0  0  0  0
  3  5  1  0  0  0  0
  3  6  1  0  0  0  0
 37 40  1  0  0  0  0
 37 41  1  0  0  0  0
 37 42  1  0  0  0  0
 11 14  1  0  0  0  0
 11 15  1  0  0  0  0
 11 16  1  0  0  0  0
 44 46  1  0  0  0  0
 44 47  1  0  0  0  0
 44 48  1  0  0  0  0
 22 30  1  0  0  0  0
 22 31  1  0  0  0  0
 21 28  1  0  0  0  0
 21 29  1  0  0  0  0
 34 39  1  0  0  0  0
  8 13  1  0  0  0  0
 18 27  1  0  0  0  0
 43 45  1  0  0  0  0
  7 12  1  0  0  0  0
 33 38  1  0  0  0  0
 17 26  1  0  0  0  0
 25 32  1  0  0  0  0
M  END
$$$$

  -OEChem-05262214473D

 48 47  0     1  0  0  0  0  0999 V2000
   -5.5827   -1.3473    1.4591 C   0  0  0  0  0  0  0  0  0  0  0  0
   -5.7053   -2.4696    0.9825 O   0  0  0  0  0  0  0  0  0  0  0  0
   -6.7879   -0.6277    1.9670 C   0  0  0  0  0  0  0  0  0  0  0  0
   -7.2718   -0.0164    1.1885 H   0  0  0  0  0  0  0  0  0  0  0  0
   -7.5699   -1.3171    2.3239 H   0  0  0  0  0  0  0  0  0  0  0  0
   -6.6057    0.0628    2.8060 H   0  0  0  0  0  0  0  0  0  0  0  0
   -4.4001   -0.6377    1.5884 N   0  0  0  0  0  0  0  0  0  0  0  0
   -3.1220   -1.1455    1.1644 C   0  0  2  0  0  0  0  0  0  0  0  0
   -2.2017    0.0428    0.9187 C   0  0  0  0  0  0  0  0  0  0  0  0
   -2.6171    1.1750    0.6807 O   0  0  0  0  0  0  0  0  0  0  0  0
   -3.2533   -1.9992   -0.0873 C   0  0  0  0  0  0  0  0  0  0  0  0
   -4.4370    0.2910    2.0047 H   0  0  0  0  0  0  0  0  0  0  0  0
   -2.7302   -1.7467    1.9921 H   0  0  0  0  0  0  0  0  0  0  0  0
   -3.6446   -1.4140   -0.9275 H   0  0  0  0  0  0  0  0  0  0  0  0
   -2.2844   -2.4081   -0.3922 H   0  0  0  0  0  0  0  0  0  0  0  0
   -3.9388   -2.8365    0.0822 H   0  0  0  0  0  0  0  0  0  0  0  0
   -0.8768   -0.3314    0.9568 N   0  0  0  0  0  0  0  0  0  0  0  0
    0.2067    0.6285    0.7375 C   0  0  2  0  0  0  0  0  0  0  0  0
    1.0510    0.6228    2.0082 C   0  0  0  0  0  0  0  0  0  0  0  0
    1.6310   -0.3833    2.4116 O   0  0  0  0  0  0  0  0  0  0  0  0
   -0.3928    2.0115    0.4419 C   0  0  0  0  0  0  0  0  0  0  0  0
   -1.1473    2.0801   -0.8857 C   0  0  0  0  0  0  0  0  0  0  0  0
   -1.7405    3.4457   -1.1276 C   0  0  0  0  0  0  0  0  0  0  0  0
   -1.7355    4.3473   -0.2992 O   0  0  0  0  0  0  0  0  0  0  0  0
   -2.3066    3.5651   -2.3539 O   0  0  0  0  0  0  0  0  0  0  0  0
   -0.6087   -1.2764    1.1771 H   0  0  0  0  0  0  0  0  0  0  0  0
    0.8004    0.2905   -0.1181 H   0  0  0  0  0  0  0  0  0  0  0  0
   -1.0763    2.2904    1.2550 H   0  0  0  0  0  0  0  0  0  0  0  0
    0.3996    2.7713    0.4243 H   0  0  0  0  0  0  0  0  0  0  0  0
   -0.4554    1.8834   -1.7139 H   0  0  0  0  0  0  0  0  0  0  0  0
   -1.9192    1.3070   -0.9587 H   0  0  0  0  0  0  0  0  0  0  0  0
   -2.7210    4.4332   -2.5448 H   0  0  0  0  0  0  0  0  0  0  0  0
    1.1022    1.8693    2.6145 N   0  0  0  0  0  0  0  0  0  0  0  0
    1.8376    2.1286    3.8313 C   0  0  2  0  0  0  0  0  0  0  0  0
    0.8763    1.9782    5.0029 C   0  0  0  0  0  0  0  0  0  0  0  0
   -0.3431    2.0836    4.8880 O   0  0  0  0  0  0  0  0  0  0  0  0
    2.4624    3.5150    3.8154 C   0  0  0  0  0  0  0  0  0  0  0  0
    0.5980    2.6376    2.1821 H   0  0  0  0  0  0  0  0  0  0  0  0
    2.6184    1.3632    3.8982 H   0  0  0  0  0  0  0  0  0  0  0  0
    1.6955    4.2952    3.7487 H   0  0  0  0  0  0  0  0  0  0  0  0
    3.0429    3.6991    4.7255 H   0  0  0  0  0  0  0  0  0  0  0  0
    3.1307    3.6315    2.9553 H   0  0  0  0  0  0  0  0  0  0  0  0
    1.5429    1.7554    6.1997 N   0  0  0  0  0  0  0  0  0  0  0  0
    0.8527    1.5918    7.4578 C   0  0  0  0  0  0  0  0  0  0  0  0
    2.5545    1.6636    6.1986 H   0  0  0  0  0  0  0  0  0  0  0  0
    0.7696    2.5667    7.9605 H   0  0  0  0  0  0  0  0  0  0  0  0
   -0.1535    1.1872    7.2740 H   0  0  0  0  0  0  0  0  0  0  0  0
    1.4163    0.8965    8.0973 H   0  0  0  0  0  0  0  0  0  0  0  0
  1  3  1  0  0  0  0
  1  7  1  0  0  0  0
  1  2  2  0  0  0  0
 34 35  1  0  0  0  0
 35 43  1  0  0  0  0
 35 36  2  0  0  0  0
  8  9  1  0  0  0  0
  9 17  1  0  0  0  0
  9 10  2  0  0  0  0
 18 19  1  0  0  0  0
 19 33  1  0  0  0  0
 19 20  2  0  0  0  0
 22 23  1  0  0  0  0
 23 24  2  0  0  0  0
 23 25  1  0  0  0  0
 34 37  1  0  0  0  0
  8 11  1  0  0  0  0
 43 44  1  0  0  0  0
 21 22  1  0  0  0  0
 18 21  1  0  0  0  0
 33 34  1  0  0  0  0
  7  8  1  0  0  0  0
 17 18  1  0  0  0  0
  3  4  1  0  0  0  0
  3  5  1  0  0  0  0
  3  6  1  0  0  0  0
 37 40  1  0  0  0  0
 37 41  1  0  0  0  0
 37 42  1  0  0  0  0
 11 14  1  0  0  0  0
 11 15  1  0  0  0  0
 11 16  1  0  0  0  0
 44 46  1  0  0  0  0
 44 47  1  0  0  0  0
 44 48  1  0  0  0  0
 22 30  1  0  0  0  0
 22 31  1  0  0  0  0
 21 28  1  0  0  0  0
 21 29  1  0  0  0  0
 34 39  1  0  0  0  0
  8 13  1  0  0  0  0
 18 27  1  0  0  0  0
 43 45  1  0  0  0  0
  7 12  1  0  0  0  0
 33 38  1  0  0  0  0
 17 26  1  0  0  0  0
 25 32  1  0  0  0  0
M  END
$$$$

  -OEChem-05262214473D

 48 47  0     1  0  0  0  0  0999 V2000
   -5.5827   -1.3473    1.4591 C   0  0  0  0  0  0  0  0  0  0  0  0
   -5.7053   -2.4696    0.9825 O   0  0  0  0  0  0  0  0  0  0  0  0
   -6.7879   -0.6277    1.9670 C   0  0  0  0  0  0  0  0  0  0  0  0
   -7.2718   -0.0164    1.1885 H   0  0  0  0  0  0  0  0  0  0  0  0
   -7.5699   -1.3171    2.3239 H   0  0  0  0  0  0  0  0  0  0  0  0
   -6.6057    0.0628    2.8060 H   0  0  0  0  0  0  0  0  0  0  0  0
   -4.4001   -0.6377    1.5884 N   0  0  0  0  0  0  0  0  0  0  0  0
   -3.1220   -1.1455    1.1644 C   0  0  2  0  0  0  0  0  0  0  0  0
   -2.2017    0.0428    0.9187 C   0  0  0  0  0  0  0  0  0  0  0  0
   -2.6171    1.1750    0.6807 O   0  0  0  0  0  0  0  0  0  0  0  0
   -3.2533   -1.9992   -0.0873 C   0  0  0  0  0  0  0  0  0  0  0  0
   -4.4370    0.2910    2.0047 H   0  0  0  0  0  0  0  0  0  0  0  0
   -2.7302   -1.7467    1.9921 H   0  0  0  0  0  0  0  0  0  0  0  0
   -3.6446   -1.4140   -0.9275 H   0  0  0  0  0  0  0  0  0  0  0  0
   -2.2844   -2.4081   -0.3922 H   0  0  0  0  0  0  0  0  0  0  0  0
   -3.9388   -2.8365    0.0822 H   0  0  0  0  0  0  0  0  0  0  0  0
   -0.8768   -0.3314    0.9568 N   0  0  0  0  0  0  0  0  0  0  0  0
    0.2067    0.6285    0.7375 C   0  0  2  0  0  0  0  0  0  0  0  0
    1.0510    0.6228    2.0082 C   0  0  0  0  0  0  0  0  0  0  0  0
    1.8402   -0.2818    2.2731 O   0  0  0  0  0  0  0  0  0  0  0  0
   -0.3928    2.0115    0.4419 C   0  0  0  0  0  0  0  0  0  0  0  0
   -1.1473    2.0801   -0.8857 C   0  0  0  0  0  0  0  0  0  0  0  0
   -1.7405    3.4457   -1.1276 C   0  0  0  0  0  0  0  0  0  0  0  0
   -1.7355    4.3473   -0.2992 O   0  0  0  0  0  0  0  0  0  0  0  0
   -2.3066    3.5651   -2.3539 O   0  0  0  0  0  0  0  0  0  0  0  0
   -0.6087   -1.2764    1.1771 H   0  0  0  0  0  0  0  0  0  0  0  0
    0.8004    0.2905   -0.1181 H   0  0  0  0  0  0  0  0  0  0  0  0
   -1.0763    2.2904    1.2550 H   0  0  0  0  0  0  0  0  0  0  0  0
    0.3996    2.7713    0.4243 H   0  0  0  0  0  0  0  0  0  0  0  0
   -0.4554    1.8834   -1.7139 H   0  0  0  0  0  0  0  0  0  0  0  0
   -1.9192    1.3070   -0.9587 H   0  0  0  0  0  0  0  0  0  0  0  0
   -2.7210    4.4332   -2.5448 H   0  0  0  0  0  0  0  0  0  0  0  0
    0.8411    1.7510    2.7874 N   0  0  0  0  0  0  0  0  0  0  0  0
    1.5212    1.9855    4.0409 C   0  0  2  0  0  0  0  0  0  0  0  0
    0.6323    1.4651    5.1628 C   0  0  0  0  0  0  0  0  0  0  0  0
   -0.5826    1.3206    5.0437 O   0  0  0  0  0  0  0  0  0  0  0  0
    1.8320    3.4616    4.2340 C   0  0  0  0  0  0  0  0  0  0  0  0
    0.1768    2.4464    2.4611 H   0  0  0  0  0  0  0  0  0  0  0  0
    2.4495    1.4048    4.0105 H   0  0  0  0  0  0  0  0  0  0  0  0
    0.9140    4.0595    4.2669 H   0  0  0  0  0  0  0  0  0  0  0  0
    2.3725    3.6340    5.1706 H   0  0  0  0  0  0  0  0  0  0  0  0
    2.4467    3.8414    3.4107 H   0  0  0  0  0  0  0  0  0  0  0  0
    1.3488    1.2220    6.3262 N   0  0  0  0  0  0  0  0  0  0  0  0
    0.7288    0.7349    7.5363 C   0  0  0  0  0  0  0  0  0  0  0  0
    2.3563    1.3515    6.3289 H   0  0  0  0  0  0  0  0  0  0  0  0
    0.4449    1.5866    8.1719 H   0  0  0  0  0  0  0  0  0  0  0  0
   -0.1691    0.1536    7.2797 H   0  0  0  0  0  0  0  0  0  0  0  0
    1.4384    0.0931    8.0790 H   0  0  0  0  0  0  0  0  0  0  0  0
  1  3  1  0  0  0  0
  1  7  1  0  0  0  0
  1  2  2  0  0  0  0
 34 35  1  0  0  0  0
 35 43  1  0  0  0  0
 35 36  2  0  0  0  0
  8  9  1  0  0  0  0
  9 17  1  0  0  0  0
  9 10  2  0  0  0  0
 18 19  1  0  0  0  0
 19 33  1  0  0  0  0
 19 20  2  0  0  0  0
 22 23  1  0  0  0  0
 23 24  2  0  0  0  0
 23 25  1  0  0  0  0
 34 37  1  0  0  0  0
  8 11  1  0  0  0  0
 43 44  1  0  0  0  0
 21 22  1  0  0  0  0
 18 21  1  0  0  0  0
 33 34  1  0  0  0  0
  7  8  1  0  0  0  0
 17 18  1  0  0  0  0
  3  4  1  0  0  0  0
  3  5  1  0  0  0  0
  3  6  1  0  0  0  0
 37 40  1  0  0  0  0
 37 41  1  0  0  0  0
 37 42  1  0  0  0  0
 11 14  1  0  0  0  0
 11 15  1  0  0  0  0
 11 16  1  0  0  0  0
 44 46  1  0  0  0  0
 44 47  1  0  0  0  0
 44 48  1  0  0  0  0
 22 30  1  0  0  0  0
 22 31  1  0  0  0  0
 21 28  1  0  0  0  0
 21 29  1  0  0  0  0
 34 39  1  0  0  0  0
  8 13  1  0  0  0  0
 18 27  1  0  0  0  0
 43 45  1  0  0  0  0
  7 12  1  0  0  0  0
 33 38  1  0  0  0  0
 17 26  1  0  0  0  0
 25 32  1  0  0  0  0
M  END
$$$$

  -OEChem-05262214473D

 48 47  0     1  0  0  0  0  0999 V2000
   -5.5827   -1.3473    1.4591 C   0  0  0  0  0  0  0  0  0  0  0  0
   -5.7053   -2.4696    0.9825 O   0  0  0  0  0  0  0  0  0  0  0  0
   -6.7879   -0.6277    1.9670 C   0  0  0  0  0  0  0  0  0  0  0  0
   -7.2718   -0.0164    1.1885 H   0  0  0  0  0  0  0  0  0  0  0  0
   -7.5699   -1.3171    2.3239 H   0  0  0  0  0  0  0  0  0  0  0  0
   -6.6057    0.0628    2.8060 H   0  0  0  0  0  0  0  0  0  0  0  0
   -4.4001   -0.6377    1.5884 N   0  0  0  0  0  0  0  0  0  0  0  0
   -3.1220   -1.1455    1.1644 C   0  0  2  0  0  0  0  0  0  0  0  0
   -2.2017    0.0428    0.9187 C   0  0  0  0  0  0  0  0  0  0  0  0
   -2.6171    1.1750    0.6807 O   0  0  0  0  0  0  0  0  0  0  0  0
   -3.2533   -1.9992   -0.0873 C   0  0  0  0  0  0  0  0  0  0  0  0
   -4.4370    0.2910    2.0047 H   0  0  0  0  0  0  0  0  0  0  0  0
   -2.7302   -1.7467    1.9921 H   0  0  0  0  0  0  0  0  0  0  0  0
   -3.6446   -1.4140   -0.9275 H   0  0  0  0  0  0  0  0  0  0  0  0
   -2.2844   -2.4081   -0.3922 H   0  0  0  0  0  0  0  0  0  0  0  0
   -3.9388   -2.8365    0.0822 H   0  0  0  0  0  0  0  0  0  0  0  0
   -0.8768   -0.3314    0.9568 N   0  0  0  0  0  0  0  0  0  0  0  0
    0.2067    0.6285    0.7375 C   0  0  2  0  0  0  0  0  0  0  0  0
    1.0510    0.6228    2.0082 C   0  0  0  0  0  0  0  0  0  0  0  0
    2.0206   -0.1189    2.1540 O   0  0  0  0  0  0  0  0  0  0  0  0
   -0.3928    2.0115    0.4419 C   0  0  0  0  0  0  0  0  0  0  0  0
   -1.1473    2.0801   -0.8857 C   0  0  0  0  0  0  0  0  0  0  0  0
   -1.7405    3.4457   -1.1276 C   0  0  0  0  0  0  0  0  0  0  0  0
   -1.7355    4.3473   -0.2992 O   0  0  0  0  0  0  0  0  0  0  0  0
   -2.3066    3.5651   -2.3539 O   0  0  0  0  0  0  0  0  0  0  0  0
   -0.6087   -1.2764    1.1771 H   0  0  0  0  0  0  0  0  0  0  0  0
    0.8004    0.2905   -0.1181 H   0  0  0  0  0  0  0  0  0  0  0  0
   -1.0763    2.2904    1.2550 H   0  0  0  0  0  0  0  0  0  0  0  0
    0.3996    2.7713    0.4243 H   0  0  0  0  0  0  0  0  0  0  0  0
   -0.4554    1.8834   -1.7139 H   0  0  0  0  0  0  0  0  0  0  0  0
   -1.9192    1.3070   -0.9587 H   0  0  0  0  0  0  0  0  0  0  0  0
   -2.7210    4.4332   -2.5448 H   0  0  0  0  0  0  0  0  0  0  0  0
    0.6143    1.5556    2.9373 N   0  0  0  0  0  0  0  0  0  0  0  0
    1.2462    1.7490    4.2226 C   0  0  2  0  0  0  0  0  0  0  0  0
    0.5070    0.8940    5.2434 C   0  0  0  0  0  0  0  0  0  0  0  0
   -0.6497    0.5097    5.0847 O   0  0  0  0  0  0  0  0  0  0  0  0
    1.2342    3.2141    4.6301 C   0  0  0  0  0  0  0  0  0  0  0  0
   -0.1891    2.1310    2.7028 H   0  0  0  0  0  0  0  0  0  0  0  0
    2.2774    1.3925    4.1249 H   0  0  0  0  0  0  0  0  0  0  0  0
    0.2094    3.5891    4.7329 H   0  0  0  0  0  0  0  0  0  0  0  0
    1.7385    3.3629    5.5906 H   0  0  0  0  0  0  0  0  0  0  0  0
    1.7403    3.8314    3.8800 H   0  0  0  0  0  0  0  0  0  0  0  0
    1.2762    0.6468    6.3719 N   0  0  0  0  0  0  0  0  0  0  0  0
    0.7937   -0.1307    7.4893 C   0  0  0  0  0  0  0  0  0  0  0  0
    2.2320    0.9886    6.4098 H   0  0  0  0  0  0  0  0  0  0  0  0
    0.3422    0.5397    8.2354 H   0  0  0  0  0  0  0  0  0  0  0  0
    0.0386   -0.8489    7.1372 H   0  0  0  0  0  0  0  0  0  0  0  0
    1.6330   -0.6756    7.9463 H   0  0  0  0  0  0  0  0  0  0  0  0
  1  3  1  0  0  0  0
  1  7  1  0  0  0  0
  1  2  2  0  0  0  0
 34 35  1  0  0  0  0
 35 43  1  0  0  0  0
 35 36  2  0  0  0  0
  8  9  1  0  0  0  0
  9 17  1  0  0  0  0
  9 10  2  0  0  0  0
 18 19  1  0  0  0  0
 19 33  1  0  0  0  0
 19 20  2  0  0  0  0
 22 23  1  0  0  0  0
 23 24  2  0  0  0  0
 23 25  1  0  0  0  0
 34 37  1  0  0  0  0
  8 11  1  0  0  0  0
 43 44  1  0  0  0  0
 21 22  1  0  0  0  0
 18 21  1  0  0  0  0
 33 34  1  0  0  0  0
  7  8  1  0  0  0  0
 17 18  1  0  0  0  0
  3  4  1  0  0  0  0
  3  5  1  0  0  0  0
  3  6  1  0  0  0  0
 37 40  1  0  0  0  0
 37 41  1  0  0  0  0
 37 42  1  0  0  0  0
 11 14  1  0  0  0  0
 11 15  1  0  0  0  0
 11 16  1  0  0  0  0
 44 46  1  0  0  0  0
 44 47  1  0  0  0  0
 44 48  1  0  0  0  0
 22 30  1  0  0  0  0
 22 31  1  0  0  0  0
 21 28  1  0  0  0  0
 21 29  1  0  0  0  0
 34 39  1  0  0  0  0
  8 13  1  0  0  0  0
 18 27  1  0  0  0  0
 43 45  1  0  0  0  0
  7 12  1  0  0  0  0
 33 38  1  0  0  0  0
 17 26  1  0  0  0  0
 25 32  1  0  0  0  0
M  END
$$$$

  -OEChem-05262214473D

 48 47  0     1  0  0  0  0  0999 V2000
   -5.5827   -1.3473    1.4591 C   0  0  0  0  0  0  0  0  0  0  0  0
   -5.7053   -2.4696    0.9825 O   0  0  0  0  0  0  0  0  0  0  0  0
   -6.7879   -0.6277    1.9670 C   0  0  0  0  0  0  0  0  0  0  0  0
   -7.2718   -0.0164    1.1885 H   0  0  0  0  0  0  0  0  0  0  0  0
   -7.5699   -1.3171    2.3239 H   0  0  0  0  0  0  0  0  0  0  0  0
   -6.6057    0.0628    2.8060 H   0  0  0  0  0  0  0  0  0  0  0  0
   -4.4001   -0.6377    1.5884 N   0  0  0  0  0  0  0  0  0  0  0  0
   -3.1220   -1.1455    1.1644 C   0  0  2  0  0  0  0  0  0  0  0  0
   -2.2017    0.0428    0.9187 C   0  0  0  0  0  0  0  0  0  0  0  0
   -2.6171    1.1750    0.6807 O   0  0  0  0  0  0  0  0  0  0  0  0
   -3.2533   -1.9992   -0.0873 C   0  0  0  0  0  0  0  0  0  0  0  0
   -4.4370    0.2910    2.0047 H   0  0  0  0  0  0  0  0  0  0  0  0
   -2.7302   -1.7467    1.9921 H   0  0  0  0  0  0  0  0  0  0  0  0
   -3.6446   -1.4140   -0.9275 H   0  0  0  0  0  0  0  0  0  0  0  0
   -2.2844   -2.4081   -0.3922 H   0  0  0  0  0  0  0  0  0  0  0  0
   -3.9388   -2.8365    0.0822 H   0  0  0  0  0  0  0  0  0  0  0  0
   -0.8768   -0.3314    0.9568 N   0  0  0  0  0  0  0  0  0  0  0  0
    0.2067    0.6285    0.7375 C   0  0  2  0  0  0  0  0  0  0  0  0
    1.0510    0.6228    2.0082 C   0  0  0  0  0  0  0  0  0  0  0  0
    2.1597    0.0944    2.0625 O   0  0  0  0  0  0  0  0  0  0  0  0
   -0.3928    2.0115    0.4419 C   0  0  0  0  0  0  0  0  0  0  0  0
   -1.1473    2.0801   -0.8857 C   0  0  0  0  0  0  0  0  0  0  0  0
   -1.7405    3.4457   -1.1276 C   0  0  0  0  0  0  0  0  0  0  0  0
   -1.7355    4.3473   -0.2992 O   0  0  0  0  0  0  0  0  0  0  0  0
   -2.3066    3.5651   -2.3539 O   0  0  0  0  0  0  0  0  0  0  0  0
   -0.6087   -1.2764    1.1771 H   0  0  0  0  0  0  0  0  0  0  0  0
    0.8004    0.2905   -0.1181 H   0  0  0  0  0  0  0  0  0  0  0  0
   -1.0763    2.2904    1.2550 H   0  0  0  0  0  0  0  0  0  0  0  0
    0.3996    2.7713    0.4243 H   0  0  0  0  0  0  0  0  0  0  0  0
   -0.4554    1.8834   -1.7139 H   0  0  0  0  0  0  0  0  0  0  0  0
   -1.9192    1.3070   -0.9587 H   0  0  0  0  0  0  0  0  0  0  0  0
   -2.7210    4.4332   -2.5448 H   0  0  0  0  0  0  0  0  0  0  0  0
    0.4372    1.2965    3.0538 N   0  0  0  0  0  0  0  0  0  0  0  0
    1.0313    1.4353    4.3639 C   0  0  2  0  0  0  0  0  0  0  0  0
    0.5091    0.3038    5.2394 C   0  0  0  0  0  0  0  0  0  0  0  0
   -0.5398   -0.2940    5.0080 O   0  0  0  0  0  0  0  0  0  0  0  0
    0.7098    2.7895    4.9767 C   0  0  0  0  0  0  0  0  0  0  0  0
   -0.4747    1.7128    2.8907 H   0  0  0  0  0  0  0  0  0  0  0  0
    2.1136    1.3272    4.2334 H   0  0  0  0  0  0  0  0  0  0  0  0
   -0.3702    2.9161    5.1150 H   0  0  0  0  0  0  0  0  0  0  0  0
    1.1842    2.9042    5.9569 H   0  0  0  0  0  0  0  0  0  0  0  0
    1.0597    3.6023    4.3312 H   0  0  0  0  0  0  0  0  0  0  0  0
    1.3301    0.0690    6.3335 N   0  0  0  0  0  0  0  0  0  0  0  0
    1.0431   -0.9462    7.3199 C   0  0  0  0  0  0  0  0  0  0  0  0
    2.1901    0.5998    6.4359 H   0  0  0  0  0  0  0  0  0  0  0  0
    0.4687   -0.5029    8.1467 H   0  0  0  0  0  0  0  0  0  0  0  0
    0.4555   -1.7521    6.8561 H   0  0  0  0  0  0  0  0  0  0  0  0
    1.9867   -1.3571    7.7082 H   0  0  0  0  0  0  0  0  0  0  0  0
  1  3  1  0  0  0  0
  1  7  1  0  0  0  0
  1  2  2  0  0  0  0
 34 35  1  0  0  0  0
 35 43  1  0  0  0  0
 35 36  2  0  0  0  0
  8  9  1  0  0  0  0
  9 17  1  0  0  0  0
  9 10  2  0  0  0  0
 18 19  1  0  0  0  0
 19 33  1  0  0  0  0
 19 20  2  0  0  0  0
 22 23  1  0  0  0  0
 23 24  2  0  0  0  0
 23 25  1  0  0  0  0
 34 37  1  0  0  0  0
  8 11  1  0  0  0  0
 43 44  1  0  0  0  0
 21 22  1  0  0  0  0
 18 21  1  0  0  0  0
 33 34  1  0  0  0  0
  7  8  1  0  0  0  0
 17 18  1  0  0  0  0
  3  4  1  0  0  0  0
  3  5  1  0  0  0  0
  3  6  1  0  0  0  0
 37 40  1  0  0  0  0
 37 41  1  0  0  0  0
 37 42  1  0  0  0  0
 11 14  1  0  0  0  0
 11 15  1  0  0  0  0
 11 16  1  0  0  0  0
 44 46  1  0  0  0  0
 44 47  1  0  0  0  0
 44 48  1  0  0  0  0
 22 30  1  0  0  0  0
 22 31  1  0  0  0  0
 21 28  1  0  0  0  0
 21 29  1  0  0  0  0
 34 39  1  0  0  0  0
  8 13  1  0  0  0  0
 18 27  1  0  0  0  0
 43 45  1  0  0  0  0
  7 12  1  0  0  0  0
 33 38  1  0  0  0  0
 17 26  1  0  0  0  0
 25 32  1  0  0  0  0
M  END
$$$$

  -OEChem-05262214473D

 48 47  0     1  0  0  0  0  0999 V2000
   -5.5827   -1.3473    1.4591 C   0  0  0  0  0  0  0  0  0  0  0  0
   -5.7053   -2.4696    0.9825 O   0  0  0  0  0  0  0  0  0  0  0  0
   -6.7879   -0.6277    1.9670 C   0  0  0  0  0  0  0  0  0  0  0  0
   -7.2718   -0.0164    1.1885 H   0  0  0  0  0  0  0  0  0  0  0  0
   -7.5699   -1.3171    2.3239 H   0  0  0  0  0  0  0  0  0  0  0  0
   -6.6057    0.0628    2.8060 H   0  0  0  0  0  0  0  0  0  0  0  0
   -4.4001   -0.6377    1.5884 N   0  0  0  0  0  0  0  0  0  0  0  0
   -3.1220   -1.1455    1.1644 C   0  0  2  0  0  0  0  0  0  0  0  0
   -2.2017    0.0428    0.9187 C   0  0  0  0  0  0  0  0  0  0  0  0
   -2.6171    1.1750    0.6807 O   0  0  0  0  0  0  0  0  0  0  0  0
   -3.2533   -1.9992   -0.0873 C   0  0  0  0  0  0  0  0  0  0  0  0
   -4.4370    0.2910    2.0047 H   0  0  0  0  0  0  0  0  0  0  0  0
   -2.7302   -1.7467    1.9921 H   0  0  0  0  0  0  0  0  0  0  0  0
   -3.6446   -1.4140   -0.9275 H   0  0  0  0  0  0  0  0  0  0  0  0
   -2.2844   -2.4081   -0.3922 H   0  0  0  0  0  0  0  0  0  0  0  0
   -3.9388   -2.8365    0.0822 H   0  0  0  0  0  0  0  0  0  0  0  0
   -0.8768   -0.3314    0.9568 N   0  0  0  0  0  0  0  0  0  0  0  0
    0.2067    0.6285    0.7375 C   0  0  2  0  0  0  0  0  0  0  0  0
    1.0510    0.6228    2.0082 C   0  0  0  0  0  0  0  0  0  0  0  0
    2.2483    0.3436    2.0047 O   0  0  0  0  0  0  0  0  0  0  0  0
   -0.3928    2.0115    0.4419 C   0  0  0  0  0  0  0  0  0  0  0  0
   -1.1473    2.0801   -0.8857 C   0  0  0  0  0  0  0  0  0  0  0  0
   -1.7405    3.4457   -1.1276 C   0  0  0  0  0  0  0  0  0  0  0  0
   -1.7355    4.3473   -0.2992 O   0  0  0  0  0  0  0  0  0  0  0  0
   -2.3066    3.5651   -2.3539 O   0  0  0  0  0  0  0  0  0  0  0  0
   -0.6087   -1.2764    1.1771 H   0  0  0  0  0  0  0  0  0  0  0  0
    0.8004    0.2905   -0.1181 H   0  0  0  0  0  0  0  0  0  0  0  0
   -1.0763    2.2904    1.2550 H   0  0  0  0  0  0  0  0  0  0  0  0
    0.3996    2.7713    0.4243 H   0  0  0  0  0  0  0  0  0  0  0  0
   -0.4554    1.8834   -1.7139 H   0  0  0  0  0  0  0  0  0  0  0  0
   -1.9192    1.3070   -0.9587 H   0  0  0  0  0  0  0  0  0  0  0  0
   -2.7210    4.4332   -2.5448 H   0  0  0  0  0  0  0  0  0  0  0  0
    0.3218    0.9914    3.1291 N   0  0  0  0  0  0  0  0  0  0  0  0
    0.8913    1.0657    4.4553 C   0  0  2  0  0  0  0  0  0  0  0  0
    0.6383   -0.2652    5.1510 C   0  0  0  0  0  0  0  0  0  0  0  0
   -0.2603   -1.0355    4.8190 O   0  0  0  0  0  0  0  0  0  0  0  0
    0.2944    2.2166    5.2501 C   0  0  0  0  0  0  0  0  0  0  0  0
   -0.6607    1.2204    3.0120 H   0  0  0  0  0  0  0  0  0  0  0  0
    1.9694    1.2132    4.3287 H   0  0  0  0  0  0  0  0  0  0  0  0
   -0.7853    2.0864    5.3872 H   0  0  0  0  0  0  0  0  0  0  0  0
    0.7473    2.2892    6.2444 H   0  0  0  0  0  0  0  0  0  0  0  0
    0.4513    3.1697    4.7336 H   0  0  0  0  0  0  0  0  0  0  0  0
    1.5067   -0.4719    6.2137 N   0  0  0  0  0  0  0  0  0  0  0  0
    1.4599   -1.6558    7.0398 C   0  0  0  0  0  0  0  0  0  0  0  0
    2.2334    0.2113    6.4054 H   0  0  0  0  0  0  0  0  0  0  0  0
    0.8157   -1.4699    7.9118 H   0  0  0  0  0  0  0  0  0  0  0  0
    1.0532   -2.4945    6.4557 H   0  0  0  0  0  0  0  0  0  0  0  0
    2.4756   -1.9050    7.3809 H   0  0  0  0  0  0  0  0  0  0  0  0
  1  3  1  0  0  0  0
  1  7  1  0  0  0  0
  1  2  2  0  0  0  0
 34 35  1  0  0  0  0
 35 43  1  0  0  0  0
 35 36  2  0  0  0  0
  8  9  1  0  0  0  0
  9 17  1  0  0  0  0
  9 10  2  0  0  0  0
 18 19  1  0  0  0  0
 19 33  1  0  0  0  0
 19 20  2  0  0  0  0
 22 23  1  0  0  0  0
 23 24  2  0  0  0  0
 23 25  1  0  0  0  0
 34 37  1  0  0  0  0
  8 11  1  0  0  0  0
 43 44  1  0  0  0  0
 21 22  1  0  0  0  0
 18 21  1  0  0  0  0
 33 34  1  0  0  0  0
  7  8  1  0  0  0  0
 17 18  1  0  0  0  0
  3  4  1  0  0  0  0
  3  5  1  0  0  0  0
  3  6  1  0  0  0  0
 37 40  1  0  0  0  0
 37 41  1  0  0  0  0
 37 42  1  0  0  0  0
 11 14  1  0  0  0  0
 11 15  1  0  0  0  0
 11 16  1  0  0  0  0
 44 46  1  0  0  0  0
 44 47  1  0  0  0  0
 44 48  1  0  0  0  0
 22 30  1  0  0  0  0
 22 31  1  0  0  0  0
 21 28  1  0  0  0  0
 21 29  1  0  0  0  0
 34 39  1  0  0  0  0
  8 13  1  0  0  0  0
 18 27  1  0  0  0  0
 43 45  1  0  0  0  0
  7 12  1  0  0  0  0
 33 38  1  0  0  0  0
 17 26  1  0  0  0  0
 25 32  1  0  0  0  0
M  END
$$$$

  -OEChem-05262214473D

 48 47  0     1  0  0  0  0  0999 V2000
   -5.5827   -1.3473    1.4591 C   0  0  0  0  0  0  0  0  0  0  0  0
   -5.7053   -2.4696    0.9825 O   0  0  0  0  0  0  0  0  0  0  0  0
   -6.7879   -0.6277    1.9670 C   0  0  0  0  0  0  0  0  0  0  0  0
   -7.2718   -0.0164    1.1885 H   0  0  0  0  0  0  0  0  0  0  0  0
   -7.5699   -1.3171    2.3239 H   0  0  0  0  0  0  0  0  0  0  0  0
   -6.6057    0.0628    2.8060 H   0  0  0  0  0  0  0  0  0  0  0  0
   -4.4001   -0.6377    1.5884 N   0  0  0  0  0  0  0  0  0  0  0  0
   -3.1220   -1.1455    1.1644 C   0  0  2  0  0  0  0  0  0  0  0  0
   -2.2017    0.0428    0.9187 C   0  0  0  0  0  0  0  0  0  0  0  0
   -2.6171    1.1750    0.6807 O   0  0  0  0  0  0  0  0  0  0  0  0
   -3.2533   -1.9992   -0.0873 C   0  0  0  0  0  0  0  0  0  0  0  0
   -4.4370    0.2910    2.0047 H   0  0  0  0  0  0  0  0  0  0  0  0
   -2.7302   -1.7467    1.9921 H   0  0  0  0  0  0  0  0  0  0  0  0
   -3.6446   -1.4140   -0.9275 H   0  0  0  0  0  0  0  0  0  0  0  0
   -2.2844   -2.4081   -0.3922 H   0  0  0  0  0  0  0  0  0  0  0  0
   -3.9388   -2.8365    0.0822 H   0  0  0  0  0  0  0  0  0  0  0  0
   -0.8768   -0.3314    0.9568 N   0  0  0  0  0  0  0  0  0  0  0  0
    0.2067    0.6285    0.7375 C   0  0  2  0  0  0  0  0  0  0  0  0
    1.0510    0.6228    2.0082 C   0  0  0  0  0  0  0  0  0  0  0  0
    2.2801    0.6116    1.9848 O   0  0  0  0  0  0  0  0  0  0  0  0
   -0.3928    2.0115    0.4419 C   0  0  0  0  0  0  0  0  0  0  0  0
   -1.1473    2.0801   -0.8857 C   0  0  0  0  0  0  0  0  0  0  0  0
   -1.7405    3.4457   -1.1276 C   0  0  0  0  0  0  0  0  0  0  0  0
   -1.7355    4.3473   -0.2992 O   0  0  0  0  0  0  0  0  0  0  0  0
   -2.3066    3.5651   -2.3539 O   0  0  0  0  0  0  0  0  0  0  0  0
   -0.6087   -1.2764    1.1771 H   0  0  0  0  0  0  0  0  0  0  0  0
    0.8004    0.2905   -0.1181 H   0  0  0  0  0  0  0  0  0  0  0  0
   -1.0763    2.2904    1.2550 H   0  0  0  0  0  0  0  0  0  0  0  0
    0.3996    2.7713    0.4243 H   0  0  0  0  0  0  0  0  0  0  0  0
   -0.4554    1.8834   -1.7139 H   0  0  0  0  0  0  0  0  0  0  0  0
   -1.9192    1.3070   -0.9587 H   0  0  0  0  0  0  0  0  0  0  0  0
   -2.7210    4.4332   -2.5448 H   0  0  0  0  0  0  0  0  0  0  0  0
    0.2761    0.6611    3.1580 N   0  0  0  0  0  0  0  0  0  0  0  0
    0.8357    0.6655    4.4905 C   0  0  2  0  0  0  0  0  0  0  0  0
    0.8859   -0.7744    4.9842 C   0  0  0  0  0  0  0  0  0  0  0  0
    0.1698   -1.6645    4.5304 O   0  0  0  0  0  0  0  0  0  0  0  0
    0.0164    1.5346    5.4318 C   0  0  0  0  0  0  0  0  0  0  0  0
   -0.7343    0.6872    3.0586 H   0  0  0  0  0  0  0  0  0  0  0  0
    1.8546    1.0584    4.4043 H   0  0  0  0  0  0  0  0  0  0  0  0
   -1.0077    1.1565    5.5308 H   0  0  0  0  0  0  0  0  0  0  0  0
    0.4576    1.5597    6.4336 H   0  0  0  0  0  0  0  0  0  0  0  0
   -0.0436    2.5630    5.0597 H   0  0  0  0  0  0  0  0  0  0  0  0
    1.7940   -0.9393    6.0208 N   0  0  0  0  0  0  0  0  0  0  0  0
    2.0158   -2.2112    6.6679 C   0  0  0  0  0  0  0  0  0  0  0  0
    2.3590   -0.1501    6.3203 H   0  0  0  0  0  0  0  0  0  0  0  0
    1.3596   -2.2955    7.5467 H   0  0  0  0  0  0  0  0  0  0  0  0
    1.7909   -3.0253    5.9631 H   0  0  0  0  0  0  0  0  0  0  0  0
    3.0662   -2.2820    6.9868 H   0  0  0  0  0  0  0  0  0  0  0  0
  1  3  1  0  0  0  0
  1  7  1  0  0  0  0
  1  2  2  0  0  0  0
 34 35  1  0  0  0  0
 35 43  1  0  0  0  0
 35 36  2  0  0  0  0
  8  9  1  0  0  0  0
  9 17  1  0  0  0  0
  9 10  2  0  0  0  0
 18 19  1  0  0  0  0
 19 33  1  0  0  0  0
 19 20  2  0  0  0  0
 22 23  1  0  0  0  0
 23 24  2  0  0  0  0
 23 25  1  0  0  0  0
 34 37  1  0  0  0  0
  8 11  1  0  0  0  0
 43 44  1  0  0  0  0
 21 22  1  0  0  0  0
 18 21  1  0  0  0  0
 33 34  1  0  0  0  0
  7  8  1  0  0  0  0
 17 18  1  0  0  0  0
  3  4  1  0  0  0  0
  3  5  1  0  0  0  0
  3  6  1  0  0  0  0
 37 40  1  0  0  0  0
 37 41  1  0  0  0  0
 37 42  1  0  0  0  0
 11 14  1  0  0  0  0
 11 15  1  0  0  0  0
 11 16  1  0  0  0  0
 44 46  1  0  0  0  0
 44 47  1  0  0  0  0
 44 48  1  0  0  0  0
 22 30  1  0  0  0  0
 22 31  1  0  0  0  0
 21 28  1  0  0  0  0
 21 29  1  0  0  0  0
 34 39  1  0  0  0  0
  8 13  1  0  0  0  0
 18 27  1  0  0  0  0
 43 45  1  0  0  0  0
  7 12  1  0  0  0  0
 33 38  1  0  0  0  0
 17 26  1  0  0  0  0
 25 32  1  0  0  0  0
M  END
$$$$

  -OEChem-05262214473D

 48 47  0     1  0  0  0  0  0999 V2000
   -5.5827   -1.3473    1.4591 C   0  0  0  0  0  0  0  0  0  0  0  0
   -5.7053   -2.4696    0.9825 O   0  0  0  0  0  0  0  0  0  0  0  0
   -6.7879   -0.6277    1.9670 C   0  0  0  0  0  0  0  0  0  0  0  0
   -7.2718   -0.0164    1.1885 H   0  0  0  0  0  0  0  0  0  0  0  0
   -7.5699   -1.3171    2.3239 H   0  0  0  0  0  0  0  0  0  0  0  0
   -6.6057    0.0628    2.8060 H   0  0  0  0  0  0  0  0  0  0  0  0
   -4.4001   -0.6377    1.5884 N   0  0  0  0  0  0  0  0  0  0  0  0
   -3.1220   -1.1455    1.1644 C   0  0  2  0  0  0  0  0  0  0  0  0
   -2.2017    0.0428    0.9187 C   0  0  0  0  0  0  0  0  0  0  0  0
   -2.6171    1.1750    0.6807 O   0  0  0  0  0  0  0  0  0  0  0  0
   -3.2533   -1.9992   -0.0873 C   0  0  0  0  0  0  0  0  0  0  0  0
   -4.4370    0.2910    2.0047 H   0  0  0  0  0  0  0  0  0  0  0  0
   -2.7302   -1.7467    1.9921 H   0  0  0  0  0  0  0  0  0  0  0  0
   -3.6446   -1.4140   -0.9275 H   0  0  0  0  0  0  0  0  0  0  0  0
   -2.2844   -2.4081   -0.3922 H   0  0  0  0  0  0  0  0  0  0  0  0
   -3.9388   -2.8365    0.0822 H   0  0  0  0  0  0  0  0  0  0  0  0
   -0.8768   -0.3314    0.9568 N   0  0  0  0  0  0  0  0  0  0  0  0
    0.2067    0.6285    0.7375 C   0  0  2  0  0  0  0  0  0  0  0  0
    1.0510    0.6228    2.0082 C   0  0  0  0  0  0  0  0  0  0  0  0
    2.2532    0.8802    2.0039 O   0  0  0  0  0  0  0  0  0  0  0  0
   -0.3928    2.0115    0.4419 C   0  0  0  0  0  0  0  0  0  0  0  0
   -1.1473    2.0801   -0.8857 C   0  0  0  0  0  0  0  0  0  0  0  0
   -1.7405    3.4457   -1.1276 C   0  0  0  0  0  0  0  0  0  0  0  0
   -1.7355    4.3473   -0.2992 O   0  0  0  0  0  0  0  0  0  0  0  0
   -2.3066    3.5651   -2.3539 O   0  0  0  0  0  0  0  0  0  0  0  0
   -0.6087   -1.2764    1.1771 H   0  0  0  0  0  0  0  0  0  0  0  0
    0.8004    0.2905   -0.1181 H   0  0  0  0  0  0  0  0  0  0  0  0
   -1.0763    2.2904    1.2550 H   0  0  0  0  0  0  0  0  0  0  0  0
    0.3996    2.7713    0.4243 H   0  0  0  0  0  0  0  0  0  0  0  0
   -0.4554    1.8834   -1.7139 H   0  0  0  0  0  0  0  0  0  0  0  0
   -1.9192    1.3070   -0.9587 H   0  0  0  0  0  0  0  0  0  0  0  0
   -2.7210    4.4332   -2.5448 H   0  0  0  0  0  0  0  0  0  0  0  0
    0.3031    0.3280    3.1385 N   0  0  0  0  0  0  0  0  0  0  0  0
    0.8682    0.2618    4.4671 C   0  0  2  0  0  0  0  0  0  0  0  0
    1.2350   -1.1889    4.7504 C   0  0  0  0  0  0  0  0  0  0  0  0
    0.7210   -2.1380    4.1620 O   0  0  0  0  0  0  0  0  0  0  0  0
   -0.1053    0.7898    5.5093 C   0  0  0  0  0  0  0  0  0  0  0  0
   -0.6905    0.1498    3.0270 H   0  0  0  0  0  0  0  0  0  0  0  0
    1.7770    0.8733    4.4550 H   0  0  0  0  0  0  0  0  0  0  0  0
   -1.0222    0.1897    5.5360 H   0  0  0  0  0  0  0  0  0  0  0  0
    0.3349    0.7656    6.5116 H   0  0  0  0  0  0  0  0  0  0  0  0
   -0.3911    1.8236    5.2873 H   0  0  0  0  0  0  0  0  0  0  0  0
    2.1724   -1.3011    5.7677 N   0  0  0  0  0  0  0  0  0  0  0  0
    2.6728   -2.5747    6.2298 C   0  0  0  0  0  0  0  0  0  0  0  0
    2.5583   -0.4600    6.1865 H   0  0  0  0  0  0  0  0  0  0  0  0
    2.0632   -2.9235    7.0764 H   0  0  0  0  0  0  0  0  0  0  0  0
    2.6184   -3.3084    5.4120 H   0  0  0  0  0  0  0  0  0  0  0  0
    3.7184   -2.4624    6.5526 H   0  0  0  0  0  0  0  0  0  0  0  0
  1  3  1  0  0  0  0
  1  7  1  0  0  0  0
  1  2  2  0  0  0  0
 34 35  1  0  0  0  0
 35 43  1  0  0  0  0
 35 36  2  0  0  0  0
  8  9  1  0  0  0  0
  9 17  1  0  0  0  0
  9 10  2  0  0  0  0
 18 19  1  0  0  0  0
 19 33  1  0  0  0  0
 19 20  2  0  0  0  0
 22 23  1  0  0  0  0
 23 24  2  0  0  0  0
 23 25  1  0  0  0  0
 34 37  1  0  0  0  0
  8 11  1  0  0  0  0
 43 44  1  0  0  0  0
 21 22  1  0  0  0  0
 18 21  1  0  0  0  0
 33 34  1  0  0  0  0
  7  8  1  0  0  0  0
 17 18  1  0  0  0  0
  3  4  1  0  0  0  0
  3  5  1  0  0  0  0
  3  6  1  0  0  0  0
 37 40  1  0  0  0  0
 37 41  1  0  0  0  0
 37 42  1  0  0  0  0
 11 14  1  0  0  0  0
 11 15  1  0  0  0  0
 11 16  1  0  0  0  0
 44 46  1  0  0  0  0
 44 47  1  0  0  0  0
 44 48  1  0  0  0  0
 22 30  1  0  0  0  0
 22 31  1  0  0  0  0
 21 28  1  0  0  0  0
 21 29  1  0  0  0  0
 34 39  1  0  0  0  0
  8 13  1  0  0  0  0
 18 27  1  0  0  0  0
 43 45  1  0  0  0  0
  7 12  1  0  0  0  0
 33 38  1  0  0  0  0
 17 26  1  0  0  0  0
 25 32  1  0  0  0  0
M  END
$$$$

  -OEChem-05262214473D

 48 47  0     1  0  0  0  0  0999 V2000
   -5.5827   -1.3473    1.4591 C   0  0  0  0  0  0  0  0  0  0  0  0
   -5.7053   -2.4696    0.9825 O   0  0  0  0  0  0  0  0  0  0  0  0
   -6.7879   -0.6277    1.9670 C   0  0  0  0  0  0  0  0  0  0  0  0
   -7.2718   -0.0164    1.1885 H   0  0  0  0  0  0  0  0  0  0  0  0
   -7.5699   -1.3171    2.3239 H   0  0  0  0  0  0  0  0  0  0  0  0
   -6.6057    0.0628    2.8060 H   0  0  0  0  0  0  0  0  0  0  0  0
   -4.4001   -0.6377    1.5884 N   0  0  0  0  0  0  0  0  0  0  0  0
   -3.1220   -1.1455    1.1644 C   0  0  2  0  0  0  0  0  0  0  0  0
   -2.2017    0.0428    0.9187 C   0  0  0  0  0  0  0  0  0  0  0  0
   -2.6171    1.1750    0.6807 O   0  0  0  0  0  0  0  0  0  0  0  0
   -3.2533   -1.9992   -0.0873 C   0  0  0  0  0  0  0  0  0  0  0  0
   -4.4370    0.2910    2.0047 H   0  0  0  0  0  0  0  0  0  0  0  0
   -2.7302   -1.7467    1.9921 H   0  0  0  0  0  0  0  0  0  0  0  0
   -3.6446   -1.4140   -0.9275 H   0  0  0  0  0  0  0  0  0  0  0  0
   -2.2844   -2.4081   -0.3922 H   0  0  0  0  0  0  0  0  0  0  0  0
   -3.9388   -2.8365    0.0822 H   0  0  0  0  0  0  0  0  0  0  0  0
   -0.8768   -0.3314    0.9568 N   0  0  0  0  0  0  0  0  0  0  0  0
    0.2067    0.6285    0.7375 C   0  0  2  0  0  0  0  0  0  0  0  0
    1.0510    0.6228    2.0082 C   0  0  0  0  0  0  0  0  0  0  0  0
    2.1692    1.1311    2.0608 O   0  0  0  0  0  0  0  0  0  0  0  0
   -0.3928    2.0115    0.4419 C   0  0  0  0  0  0  0  0  0  0  0  0
   -1.1473    2.0801   -0.8857 C   0  0  0  0  0  0  0  0  0  0  0  0
   -1.7405    3.4457   -1.1276 C   0  0  0  0  0  0  0  0  0  0  0  0
   -1.7355    4.3473   -0.2992 O   0  0  0  0  0  0  0  0  0  0  0  0
   -2.3066    3.5651   -2.3539 O   0  0  0  0  0  0  0  0  0  0  0  0
   -0.6087   -1.2764    1.1771 H   0  0  0  0  0  0  0  0  0  0  0  0
    0.8004    0.2905   -0.1181 H   0  0  0  0  0  0  0  0  0  0  0  0
   -1.0763    2.2904    1.2550 H   0  0  0  0  0  0  0  0  0  0  0  0
    0.3996    2.7713    0.4243 H   0  0  0  0  0  0  0  0  0  0  0  0
   -0.4554    1.8834   -1.7139 H   0  0  0  0  0  0  0  0  0  0  0  0
   -1.9192    1.3070   -0.9587 H   0  0  0  0  0  0  0  0  0  0  0  0
   -2.7210    4.4332   -2.5448 H   0  0  0  0  0  0  0  0  0  0  0  0
    0.4010    0.0148    3.0720 N   0  0  0  0  0  0  0  0  0  0  0  0
    0.9866   -0.1178    4.3867 C   0  0  2  0  0  0  0  0  0  0  0  0
    1.6618   -1.4806    4.4655 C   0  0  0  0  0  0  0  0  0  0  0  0
    1.3559   -2.4238    3.7389 O   0  0  0  0  0  0  0  0  0  0  0  0
   -0.0624    0.0331    5.4774 C   0  0  0  0  0  0  0  0  0  0  0  0
   -0.5323   -0.3554    2.9197 H   0  0  0  0  0  0  0  0  0  0  0  0
    1.7419    0.6705    4.4774 H   0  0  0  0  0  0  0  0  0  0  0  0
   -0.8278   -0.7480    5.4027 H   0  0  0  0  0  0  0  0  0  0  0  0
    0.3874   -0.0391    6.4731 H   0  0  0  0  0  0  0  0  0  0  0  0
   -0.5677    1.0019    5.4009 H   0  0  0  0  0  0  0  0  0  0  0  0
    2.6162   -1.5328    5.4718 N   0  0  0  0  0  0  0  0  0  0  0  0
    3.3862   -2.7214    5.7551 C   0  0  0  0  0  0  0  0  0  0  0  0
    2.8178   -0.6972    6.0130 H   0  0  0  0  0  0  0  0  0  0  0  0
    2.8787   -3.3110    6.5328 H   0  0  0  0  0  0  0  0  0  0  0  0
    3.4792   -3.3246    4.8400 H   0  0  0  0  0  0  0  0  0  0  0  0
    4.3876   -2.4338    6.1081 H   0  0  0  0  0  0  0  0  0  0  0  0
  1  3  1  0  0  0  0
  1  7  1  0  0  0  0
  1  2  2  0  0  0  0
 34 35  1  0  0  0  0
 35 43  1  0  0  0  0
 35 36  2  0  0  0  0
  8  9  1  0  0  0  0
  9 17  1  0  0  0  0
  9 10  2  0  0  0  0
 18 19  1  0  0  0  0
 19 33  1  0  0  0  0
 19 20  2  0  0  0  0
 22 23  1  0  0  0  0
 23 24  2  0  0  0  0
 23 25  1  0  0  0  0
 34 37  1  0  0  0  0
  8 11  1  0  0  0  0
 43 44  1  0  0  0  0
 21 22  1  0  0  0  0
 18 21  1  0  0  0  0
 33 34  1  0  0  0  0
  7  8  1  0  0  0  0
 17 18  1  0  0  0  0
  3  4  1  0  0  0  0
  3  5  1  0  0  0  0
  3  6  1  0  0  0  0
 37 40  1  0  0  0  0
 37 41  1  0  0  0  0
 37 42  1  0  0  0  0
 11 14  1  0  0  0  0
 11 15  1  0  0  0  0
 11 16  1  0  0  0  0
 44 46  1  0  0  0  0
 44 47  1  0  0  0  0
 44 48  1  0  0  0  0
 22 30  1  0  0  0  0
 22 31  1  0  0  0  0
 21 28  1  0  0  0  0
 21 29  1  0  0  0  0
 34 39  1  0  0  0  0
  8 13  1  0  0  0  0
 18 27  1  0  0  0  0
 43 45  1  0  0  0  0
  7 12  1  0  0  0  0
 33 38  1  0  0  0  0
 17 26  1  0  0  0  0
 25 32  1  0  0  0  0
M  END
$$$$

  -OEChem-05262214473D

 48 47  0     1  0  0  0  0  0999 V2000
   -5.5827   -1.3473    1.4591 C   0  0  0  0  0  0  0  0  0  0  0  0
   -5.7053   -2.4696    0.9825 O   0  0  0  0  0  0  0  0  0  0  0  0
   -6.7879   -0.6277    1.9670 C   0  0  0  0  0  0  0  0  0  0  0  0
   -7.2718   -0.0164    1.1885 H   0  0  0  0  0  0  0  0  0  0  0  0
   -7.5699   -1.3171    2.3239 H   0  0  0  0  0  0  0  0  0  0  0  0
   -6.6057    0.0628    2.8060 H   0  0  0  0  0  0  0  0  0  0  0  0
   -4.4001   -0.6377    1.5884 N   0  0  0  0  0  0  0  0  0  0  0  0
   -3.1220   -1.1455    1.1644 C   0  0  2  0  0  0  0  0  0  0  0  0
   -2.2017    0.0428    0.9187 C   0  0  0  0  0  0  0  0  0  0  0  0
   -2.6171    1.1750    0.6807 O   0  0  0  0  0  0  0  0  0  0  0  0
   -3.2533   -1.9992   -0.0873 C   0  0  0  0  0  0  0  0  0  0  0  0
   -4.4370    0.2910    2.0047 H   0  0  0  0  0  0  0  0  0  0  0  0
   -2.7302   -1.7467    1.9921 H   0  0  0  0  0  0  0  0  0  0  0  0
   -3.6446   -1.4140   -0.9275 H   0  0  0  0  0  0  0  0  0  0  0  0
   -2.2844   -2.4081   -0.3922 H   0  0  0  0  0  0  0  0  0  0  0  0
   -3.9388   -2.8365    0.0822 H   0  0  0  0  0  0  0  0  0  0  0  0
   -0.8768   -0.3314    0.9568 N   0  0  0  0  0  0  0  0  0  0  0  0
    0.2067    0.6285    0.7375 C   0  0  2  0  0  0  0  0  0  0  0  0
    1.0510    0.6228    2.0082 C   0  0  0  0  0  0  0  0  0  0  0  0
    2.0339    1.3473    2.1517 O   0  0  0  0  0  0  0  0  0  0  0  0
   -0.3928    2.0115    0.4419 C   0  0  0  0  0  0  0  0  0  0  0  0
   -1.1473    2.0801   -0.8857 C   0  0  0  0  0  0  0  0  0  0  0  0
   -1.7405    3.4457   -1.1276 C   0  0  0  0  0  0  0  0  0  0  0  0
   -1.7355    4.3473   -0.2992 O   0  0  0  0  0  0  0  0  0  0  0  0
   -2.3066    3.5651   -2.3539 O   0  0  0  0  0  0  0  0  0  0  0  0
   -0.6087   -1.2764    1.1771 H   0  0  0  0  0  0  0  0  0  0  0  0
    0.8004    0.2905   -0.1181 H   0  0  0  0  0  0  0  0  0  0  0  0
   -1.0763    2.2904    1.2550 H   0  0  0  0  0  0  0  0  0  0  0  0
    0.3996    2.7713    0.4243 H   0  0  0  0  0  0  0  0  0  0  0  0
   -0.4554    1.8834   -1.7139 H   0  0  0  0  0  0  0  0  0  0  0  0
   -1.9192    1.3070   -0.9587 H   0  0  0  0  0  0  0  0  0  0  0  0
   -2.7210    4.4332   -2.5448 H   0  0  0  0  0  0  0  0  0  0  0  0
    0.5632   -0.2570    2.9631 N   0  0  0  0  0  0  0  0  0  0  0  0
    1.1829   -0.4473    4.2548 C   0  0  2  0  0  0  0  0  0  0  0  0
    2.1371   -1.6296    4.1490 C   0  0  0  0  0  0  0  0  0  0  0  0
    2.0312   -2.5023    3.2899 O   0  0  0  0  0  0  0  0  0  0  0  0
    0.1423   -0.6840    5.3382 C   0  0  0  0  0  0  0  0  0  0  0  0
   -0.2705   -0.7939    2.7437 H   0  0  0  0  0  0  0  0  0  0  0  0
    1.7517    0.4638    4.4700 H   0  0  0  0  0  0  0  0  0  0  0  0
   -0.4377   -1.5927    5.1397 H   0  0  0  0  0  0  0  0  0  0  0  0
    0.6116   -0.7996    6.3207 H   0  0  0  0  0  0  0  0  0  0  0  0
   -0.5611    0.1539    5.3927 H   0  0  0  0  0  0  0  0  0  0  0  0
    3.0951   -1.6185    5.1532 N   0  0  0  0  0  0  0  0  0  0  0  0
    4.1074   -2.6412    5.2763 C   0  0  0  0  0  0  0  0  0  0  0  0
    3.1197   -0.8456    5.8118 H   0  0  0  0  0  0  0  0  0  0  0  0
    3.7505   -3.4316    5.9530 H   0  0  0  0  0  0  0  0  0  0  0  0
    4.3148   -3.0727    4.2859 H   0  0  0  0  0  0  0  0  0  0  0  0
    5.0283   -2.1983    5.6834 H   0  0  0  0  0  0  0  0  0  0  0  0
  1  3  1  0  0  0  0
  1  7  1  0  0  0  0
  1  2  2  0  0  0  0
 34 35  1  0  0  0  0
 35 43  1  0  0  0  0
 35 36  2  0  0  0  0
  8  9  1  0  0  0  0
  9 17  1  0  0  0  0
  9 10  2  0  0  0  0
 18 19  1  0  0  0  0
 19 33  1  0  0  0  0
 19 20  2  0  0  0  0
 22 23  1  0  0  0  0
 23 24  2  0  0  0  0
 23 25  1  0  0  0  0
 34 37  1  0  0  0  0
  8 11  1  0  0  0  0
 43 44  1  0  0  0  0
 21 22  1  0  0  0  0
 18 21  1  0  0  0  0
 33 34  1  0  0  0  0
  7  8  1  0  0  0  0
 17 18  1  0  0  0  0
  3  4  1  0  0  0  0
  3  5  1  0  0  0  0
  3  6  1  0  0  0  0
 37 40  1  0  0  0  0
 37 41  1  0  0  0  0
 37 42  1  0  0  0  0
 11 14  1  0  0  0  0
 11 15  1  0  0  0  0
 11 16  1  0  0  0  0
 44 46  1  0  0  0  0
 44 47  1  0  0  0  0
 44 48  1  0  0  0  0
 22 30  1  0  0  0  0
 22 31  1  0  0  0  0
 21 28  1  0  0  0  0
 21 29  1  0  0  0  0
 34 39  1  0  0  0  0
  8 13  1  0  0  0  0
 18 27  1  0  0  0  0
 43 45  1  0  0  0  0
  7 12  1  0  0  0  0
 33 38  1  0  0  0  0
 17 26  1  0  0  0  0
 25 32  1  0  0  0  0
M  END
$$$$

  -OEChem-05262214473D

 48 47  0     1  0  0  0  0  0999 V2000
   -5.5827   -1.3473    1.4591 C   0  0  0  0  0  0  0  0  0  0  0  0
   -5.7053   -2.4696    0.9825 O   0  0  0  0  0  0  0  0  0  0  0  0
   -6.7879   -0.6277    1.9670 C   0  0  0  0  0  0  0  0  0  0  0  0
   -7.2718   -0.0164    1.1885 H   0  0  0  0  0  0  0  0  0  0  0  0
   -7.5699   -1.3171    2.3239 H   0  0  0  0  0  0  0  0  0  0  0  0
   -6.6057    0.0628    2.8060 H   0  0  0  0  0  0  0  0  0  0  0  0
   -4.4001   -0.6377    1.5884 N   0  0  0  0  0  0  0  0  0  0  0  0
   -3.1220   -1.1455    1.1644 C   0  0  2  0  0  0  0  0  0  0  0  0
   -2.2017    0.0428    0.9187 C   0  0  0  0  0  0  0  0  0  0  0  0
   -2.6171    1.1750    0.6807 O   0  0  0  0  0  0  0  0  0  0  0  0
   -3.2533   -1.9992   -0.0873 C   0  0  0  0  0  0  0  0  0  0  0  0
   -4.4370    0.2910    2.0047 H   0  0  0  0  0  0  0  0  0  0  0  0
   -2.7302   -1.7467    1.9921 H   0  0  0  0  0  0  0  0  0  0  0  0
   -3.6446   -1.4140   -0.9275 H   0  0  0  0  0  0  0  0  0  0  0  0
   -2.2844   -2.4081   -0.3922 H   0  0  0  0  0  0  0  0  0  0  0  0
   -3.9388   -2.8365    0.0822 H   0  0  0  0  0  0  0  0  0  0  0  0
   -0.8768   -0.3314    0.9568 N   0  0  0  0  0  0  0  0  0  0  0  0
    0.2067    0.6285    0.7375 C   0  0  2  0  0  0  0  0  0  0  0  0
    1.0510    0.6228    2.0082 C   0  0  0  0  0  0  0  0  0  0  0  0
    1.8566    1.5138    2.2703 O   0  0  0  0  0  0  0  0  0  0  0  0
   -0.3928    2.0115    0.4419 C   0  0  0  0  0  0  0  0  0  0  0  0
   -1.1473    2.0801   -0.8857 C   0  0  0  0  0  0  0  0  0  0  0  0
   -1.7405    3.4457   -1.1276 C   0  0  0  0  0  0  0  0  0  0  0  0
   -1.7355    4.3473   -0.2992 O   0  0  0  0  0  0  0  0  0  0  0  0
   -2.3066    3.5651   -2.3539 O   0  0  0  0  0  0  0  0  0  0  0  0
   -0.6087   -1.2764    1.1771 H   0  0  0  0  0  0  0  0  0  0  0  0
    0.8004    0.2905   -0.1181 H   0  0  0  0  0  0  0  0  0  0  0  0
   -1.0763    2.2904    1.2550 H   0  0  0  0  0  0  0  0  0  0  0  0
    0.3996    2.7713    0.4243 H   0  0  0  0  0  0  0  0  0  0  0  0
   -0.4554    1.8834   -1.7139 H   0  0  0  0  0  0  0  0  0  0  0  0
   -1.9192    1.3070   -0.9587 H   0  0  0  0  0  0  0  0  0  0  0  0
   -2.7210    4.4332   -2.5448 H   0  0  0  0  0  0  0  0  0  0  0  0
    0.7785   -0.4690    2.8191 N   0  0  0  0  0  0  0  0  0  0  0  0
    1.4436   -0.7045    4.0804 C   0  0  2  0  0  0  0  0  0  0  0  0
    2.6287   -1.6256    3.8224 C   0  0  0  0  0  0  0  0  0  0  0  0
    2.7008   -2.3683    2.8455 O   0  0  0  0  0  0  0  0  0  0  0  0
    0.4946   -1.3126    5.1013 C   0  0  0  0  0  0  0  0  0  0  0  0
    0.0771   -1.1359    2.5113 H   0  0  0  0  0  0  0  0  0  0  0  0
    1.8057    0.2673    4.4332 H   0  0  0  0  0  0  0  0  0  0  0  0
    0.1214   -2.2869    4.7651 H   0  0  0  0  0  0  0  0  0  0  0  0
    0.9923   -1.4639    6.0648 H   0  0  0  0  0  0  0  0  0  0  0  0
   -0.3720   -0.6627    5.2634 H   0  0  0  0  0  0  0  0  0  0  0  0
    3.5764   -1.5524    4.8336 N   0  0  0  0  0  0  0  0  0  0  0  0
    4.7872   -2.3398    4.8259 C   0  0  0  0  0  0  0  0  0  0  0  0
    3.4435   -0.8949    5.5964 H   0  0  0  0  0  0  0  0  0  0  0  0
    4.6191   -3.2772    5.3765 H   0  0  0  0  0  0  0  0  0  0  0  0
    5.0682   -2.5699    3.7876 H   0  0  0  0  0  0  0  0  0  0  0  0
    5.5968   -1.7719    5.3076 H   0  0  0  0  0  0  0  0  0  0  0  0
  1  3  1  0  0  0  0
  1  7  1  0  0  0  0
  1  2  2  0  0  0  0
 34 35  1  0  0  0  0
 35 43  1  0  0  0  0
 35 36  2  0  0  0  0
  8  9  1  0  0  0  0
  9 17  1  0  0  0  0
  9 10  2  0  0  0  0
 18 19  1  0  0  0  0
 19 33  1  0  0  0  0
 19 20  2  0  0  0  0
 22 23  1  0  0  0  0
 23 24  2  0  0  0  0
 23 25  1  0  0  0  0
 34 37  1  0  0  0  0
  8 11  1  0  0  0  0
 43 44  1  0  0  0  0
 21 22  1  0  0  0  0
 18 21  1  0  0  0  0
 33 34  1  0  0  0  0
  7  8  1  0  0  0  0
 17 18  1  0  0  0  0
  3  4  1  0  0  0  0
  3  5  1  0  0  0  0
  3  6  1  0  0  0  0
 37 40  1  0  0  0  0
 37 41  1  0  0  0  0
 37 42  1  0  0  0  0
 11 14  1  0  0  0  0
 11 15  1  0  0  0  0
 11 16  1  0  0  0  0
 44 46  1  0  0  0  0
 44 47  1  0  0  0  0
 44 48  1  0  0  0  0
 22 30  1  0  0  0  0
 22 31  1  0  0  0  0
 21 28  1  0  0  0  0
 21 29  1  0  0  0  0
 34 39  1  0  0  0  0
  8 13  1  0  0  0  0
 18 27  1  0  0  0  0
 43 45  1  0  0  0  0
  7 12  1  0  0  0  0
 33 38  1  0  0  0  0
 17 26  1  0  0  0  0
 25 32  1  0  0  0  0
M  END
$$$$

  -OEChem-05262214473D

 48 47  0     1  0  0  0  0  0999 V2000
   -5.5827   -1.3473    1.4591 C   0  0  0  0  0  0  0  0  0  0  0  0
   -5.7053   -2.4696    0.9825 O   0  0  0  0  0  0  0  0  0  0  0  0
   -6.7879   -0.6277    1.9670 C   0  0  0  0  0  0  0  0  0  0  0  0
   -7.2718   -0.0164    1.1885 H   0  0  0  0  0  0  0  0  0  0  0  0
   -7.5699   -1.3171    2.3239 H   0  0  0  0  0  0  0  0  0  0  0  0
   -6.6057    0.0628    2.8060 H   0  0  0  0  0  0  0  0  0  0  0  0
   -4.4001   -0.6377    1.5884 N   0  0  0  0  0  0  0  0  0  0  0  0
   -3.1220   -1.1455    1.1644 C   0  0  2  0  0  0  0  0  0  0  0  0
   -2.2017    0.0428    0.9187 C   0  0  0  0  0  0  0  0  0  0  0  0
   -2.6171    1.1750    0.6807 O   0  0  0  0  0  0  0  0  0  0  0  0
   -3.2533   -1.9992   -0.0873 C   0  0  0  0  0  0  0  0  0  0  0  0
   -4.4370    0.2910    2.0047 H   0  0  0  0  0  0  0  0  0  0  0  0
   -2.7302   -1.7467    1.9921 H   0  0  0  0  0  0  0  0  0  0  0  0
   -3.6446   -1.4140   -0.9275 H   0  0  0  0  0  0  0  0  0  0  0  0
   -2.2844   -2.4081   -0.3922 H   0  0  0  0  0  0  0  0  0  0  0  0
   -3.9388   -2.8365    0.0822 H   0  0  0  0  0  0  0  0  0  0  0  0
   -0.8768   -0.3314    0.9568 N   0  0  0  0  0  0  0  0  0  0  0  0
    0.2067    0.6285    0.7375 C   0  0  2  0  0  0  0  0  0  0  0  0
    1.0510    0.6228    2.0082 C   0  0  0  0  0  0  0  0  0  0  0  0
    1.6493    1.6195    2.4085 O   0  0  0  0  0  0  0  0  0  0  0  0
   -0.3928    2.0115    0.4419 C   0  0  0  0  0  0  0  0  0  0  0  0
   -1.1473    2.0801   -0.8857 C   0  0  0  0  0  0  0  0  0  0  0  0
   -1.7405    3.4457   -1.1276 C   0  0  0  0  0  0  0  0  0  0  0  0
   -1.7355    4.3473   -0.2992 O   0  0  0  0  0  0  0  0  0  0  0  0
   -2.3066    3.5651   -2.3539 O   0  0  0  0  0  0  0  0  0  0  0  0
   -0.6087   -1.2764    1.1771 H   0  0  0  0  0  0  0  0  0  0  0  0
    0.8004    0.2905   -0.1181 H   0  0  0  0  0  0  0  0  0  0  0  0
   -1.0763    2.2904    1.2550 H   0  0  0  0  0  0  0  0  0  0  0  0
    0.3996    2.7713    0.4243 H   0  0  0  0  0  0  0  0  0  0  0  0
   -0.4554    1.8834   -1.7139 H   0  0  0  0  0  0  0  0  0  0  0  0
   -1.9192    1.3070   -0.9587 H   0  0  0  0  0  0  0  0  0  0  0  0
   -2.7210    4.4332   -2.5448 H   0  0  0  0  0  0  0  0  0  0  0  0
    1.0324   -0.6068    2.6498 N   0  0  0  0  0  0  0  0  0  0  0  0
    1.7511   -0.8717    3.8753 C   0  0  2  0  0  0  0  0  0  0  0  0
    3.1030   -1.4690    3.5079 C   0  0  0  0  0  0  0  0  0  0  0  0
    3.3192   -2.0309    2.4362 O   0  0  0  0  0  0  0  0  0  0  0  0
    0.9707   -1.8100    4.7827 C   0  0  0  0  0  0  0  0  0  0  0  0
    0.4868   -1.3579    2.2380 H   0  0  0  0  0  0  0  0  0  0  0  0
    1.9003    0.0945    4.3696 H   0  0  0  0  0  0  0  0  0  0  0  0
    0.8115   -2.7833    4.3044 H   0  0  0  0  0  0  0  0  0  0  0  0
    1.5035   -1.9870    5.7228 H   0  0  0  0  0  0  0  0  0  0  0  0
   -0.0132   -1.3921    5.0217 H   0  0  0  0  0  0  0  0  0  0  0  0
    4.0275   -1.3391    4.5349 N   0  0  0  0  0  0  0  0  0  0  0  0
    5.3793   -1.8376    4.4348 C   0  0  0  0  0  0  0  0  0  0  0  0
    3.7671   -0.8419    5.3816 H   0  0  0  0  0  0  0  0  0  0  0  0
    5.4254   -2.8582    4.8427 H   0  0  0  0  0  0  0  0  0  0  0  0
    5.6879   -1.8505    3.3790 H   0  0  0  0  0  0  0  0  0  0  0  0
    6.0544   -1.1836    5.0062 H   0  0  0  0  0  0  0  0  0  0  0  0
  1  3  1  0  0  0  0
  1  7  1  0  0  0  0
  1  2  2  0  0  0  0
 34 35  1  0  0  0  0
 35 43  1  0  0  0  0
 35 36  2  0  0  0  0
  8  9  1  0  0  0  0
  9 17  1  0  0  0  0
  9 10  2  0  0  0  0
 18 19  1  0  0  0  0
 19 33  1  0  0  0  0
 19 20  2  0  0  0  0
 22 23  1  0  0  0  0
 23 24  2  0  0  0  0
 23 25  1  0  0  0  0
 34 37  1  0  0  0  0
  8 11  1  0  0  0  0
 43 44  1  0  0  0  0
 21 22  1  0  0  0  0
 18 21  1  0  0  0  0
 33 34  1  0  0  0  0
  7  8  1  0  0  0  0
 17 18  1  0  0  0  0
  3  4  1  0  0  0  0
  3  5  1  0  0  0  0
  3  6  1  0  0  0  0
 37 40  1  0  0  0  0
 37 41  1  0  0  0  0
 37 42  1  0  0  0  0
 11 14  1  0  0  0  0
 11 15  1  0  0  0  0
 11 16  1  0  0  0  0
 44 46  1  0  0  0  0
 44 47  1  0  0  0  0
 44 48  1  0  0  0  0
 22 30  1  0  0  0  0
 22 31  1  0  0  0  0
 21 28  1  0  0  0  0
 21 29  1  0  0  0  0
 34 39  1  0  0  0  0
  8 13  1  0  0  0  0
 18 27  1  0  0  0  0
 43 45  1  0  0  0  0
  7 12  1  0  0  0  0
 33 38  1  0  0  0  0
 17 26  1  0  0  0  0
 25 32  1  0  0  0  0
M  END
$$$$

  -OEChem-05262214473D

 48 47  0     1  0  0  0  0  0999 V2000
   -5.5827   -1.3473    1.4591 C   0  0  0  0  0  0  0  0  0  0  0  0
   -5.7053   -2.4696    0.9825 O   0  0  0  0  0  0  0  0  0  0  0  0
   -6.7879   -0.6277    1.9670 C   0  0  0  0  0  0  0  0  0  0  0  0
   -7.2718   -0.0164    1.1885 H   0  0  0  0  0  0  0  0  0  0  0  0
   -7.5699   -1.3171    2.3239 H   0  0  0  0  0  0  0  0  0  0  0  0
   -6.6057    0.0628    2.8060 H   0  0  0  0  0  0  0  0  0  0  0  0
   -4.4001   -0.6377    1.5884 N   0  0  0  0  0  0  0  0  0  0  0  0
   -3.1220   -1.1455    1.1644 C   0  0  2  0  0  0  0  0  0  0  0  0
   -2.2017    0.0428    0.9187 C   0  0  0  0  0  0  0  0  0  0  0  0
   -2.6171    1.1750    0.6807 O   0  0  0  0  0  0  0  0  0  0  0  0
   -3.2533   -1.9992   -0.0873 C   0  0  0  0  0  0  0  0  0  0  0  0
   -4.4370    0.2910    2.0047 H   0  0  0  0  0  0  0  0  0  0  0  0
   -2.7302   -1.7467    1.9921 H   0  0  0  0  0  0  0  0  0  0  0  0
   -3.6446   -1.4140   -0.9275 H   0  0  0  0  0  0  0  0  0  0  0  0
   -2.2844   -2.4081   -0.3922 H   0  0  0  0  0  0  0  0  0  0  0  0
   -3.9388   -2.8365    0.0822 H   0  0  0  0  0  0  0  0  0  0  0  0
   -0.8768   -0.3314    0.9568 N   0  0  0  0  0  0  0  0  0  0  0  0
    0.2067    0.6285    0.7375 C   0  0  2  0  0  0  0  0  0  0  0  0
    1.0510    0.6228    2.0082 C   0  0  0  0  0  0  0  0  0  0  0  0
    1.4261    1.6571    2.5569 O   0  0  0  0  0  0  0  0  0  0  0  0
   -0.3928    2.0115    0.4419 C   0  0  0  0  0  0  0  0  0  0  0  0
   -1.1473    2.0801   -0.8857 C   0  0  0  0  0  0  0  0  0  0  0  0
   -1.7405    3.4457   -1.1276 C   0  0  0  0  0  0  0  0  0  0  0  0
   -1.7355    4.3473   -0.2992 O   0  0  0  0  0  0  0  0  0  0  0  0
   -2.3066    3.5651   -2.3539 O   0  0  0  0  0  0  0  0  0  0  0  0
   -0.6087   -1.2764    1.1771 H   0  0  0  0  0  0  0  0  0  0  0  0
    0.8004    0.2905   -0.1181 H   0  0  0  0  0  0  0  0  0  0  0  0
   -1.0763    2.2904    1.2550 H   0  0  0  0  0  0  0  0  0  0  0  0
    0.3996    2.7713    0.4243 H   0  0  0  0  0  0  0  0  0  0  0  0
   -0.4554    1.8834   -1.7139 H   0  0  0  0  0  0  0  0  0  0  0  0
   -1.9192    1.3070   -0.9587 H   0  0  0  0  0  0  0  0  0  0  0  0
   -2.7210    4.4332   -2.5448 H   0  0  0  0  0  0  0  0  0  0  0  0
    1.3074   -0.6609    2.4668 N   0  0  0  0  0  0  0  0  0  0  0  0
    2.0844   -0.9375    3.6536 C   0  0  2  0  0  0  0  0  0  0  0  0
    3.5277   -1.1705    3.2271 C   0  0  0  0  0  0  0  0  0  0  0  0
    3.8441   -1.5130    2.0897 O   0  0  0  0  0  0  0  0  0  0  0  0
    1.5381   -2.1420    4.4042 C   0  0  0  0  0  0  0  0  0  0  0  0
    0.9307   -1.4449    1.9427 H   0  0  0  0  0  0  0  0  0  0  0  0
    2.0289   -0.0430    4.2835 H   0  0  0  0  0  0  0  0  0  0  0  0
    1.5855   -3.0479    3.7889 H   0  0  0  0  0  0  0  0  0  0  0  0
    2.1103   -2.3330    5.3181 H   0  0  0  0  0  0  0  0  0  0  0  0
    0.4909   -1.9848    4.6841 H   0  0  0  0  0  0  0  0  0  0  0  0
    4.4174   -0.9930    4.2774 N   0  0  0  0  0  0  0  0  0  0  0  0
    5.8433   -1.1689    4.1294 C   0  0  0  0  0  0  0  0  0  0  0  0
    4.0685   -0.6902    5.1820 H   0  0  0  0  0  0  0  0  0  0  0  0
    6.1145   -2.2032    4.3878 H   0  0  0  0  0  0  0  0  0  0  0  0
    6.1319   -0.9635    3.0880 H   0  0  0  0  0  0  0  0  0  0  0  0
    6.3699   -0.4736    4.7998 H   0  0  0  0  0  0  0  0  0  0  0  0
  1  3  1  0  0  0  0
  1  7  1  0  0  0  0
  1  2  2  0  0  0  0
 34 35  1  0  0  0  0
 35 43  1  0  0  0  0
 35 36  2  0  0  0  0
  8  9  1  0  0  0  0
  9 17  1  0  0  0  0
  9 10  2  0  0  0  0
 18 19  1  0  0  0  0
 19 33  1  0  0  0  0
 19 20  2  0  0  0  0
 22 23  1  0  0  0  0
 23 24  2  0  0  0  0
 23 25  1  0  0  0  0
 34 37  1  0  0  0  0
  8 11  1  0  0  0  0
 43 44  1  0  0  0  0
 21 22  1  0  0  0  0
 18 21  1  0  0  0  0
 33 34  1  0  0  0  0
  7  8  1  0  0  0  0
 17 18  1  0  0  0  0
  3  4  1  0  0  0  0
  3  5  1  0  0  0  0
  3  6  1  0  0  0  0
 37 40  1  0  0  0  0
 37 41  1  0  0  0  0
 37 42  1  0  0  0  0
 11 14  1  0  0  0  0
 11 15  1  0  0  0  0
 11 16  1  0  0  0  0
 44 46  1  0  0  0  0
 44 47  1  0  0  0  0
 44 48  1  0  0  0  0
 22 30  1  0  0  0  0
 22 31  1  0  0  0  0
 21 28  1  0  0  0  0
 21 29  1  0  0  0  0
 34 39  1  0  0  0  0
  8 13  1  0  0  0  0
 18 27  1  0  0  0  0
 43 45  1  0  0  0  0
  7 12  1  0  0  0  0
 33 38  1  0  0  0  0
 17 26  1  0  0  0  0
 25 32  1  0  0  0  0
M  END
$$$$

  -OEChem-05262214473D

 48 47  0     1  0  0  0  0  0999 V2000
   -5.5827   -1.3473    1.4591 C   0  0  0  0  0  0  0  0  0  0  0  0
   -5.7053   -2.4696    0.9825 O   0  0  0  0  0  0  0  0  0  0  0  0
   -6.7879   -0.6277    1.9670 C   0  0  0  0  0  0  0  0  0  0  0  0
   -7.2718   -0.0164    1.1885 H   0  0  0  0  0  0  0  0  0  0  0  0
   -7.5699   -1.3171    2.3239 H   0  0  0  0  0  0  0  0  0  0  0  0
   -6.6057    0.0628    2.8060 H   0  0  0  0  0  0  0  0  0  0  0  0
   -4.4001   -0.6377    1.5884 N   0  0  0  0  0  0  0  0  0  0  0  0
   -3.1220   -1.1455    1.1644 C   0  0  2  0  0  0  0  0  0  0  0  0
   -2.2017    0.0428    0.9187 C   0  0  0  0  0  0  0  0  0  0  0  0
   -2.6171    1.1750    0.6807 O   0  0  0  0  0  0  0  0  0  0  0  0
   -3.2533   -1.9992   -0.0873 C   0  0  0  0  0  0  0  0  0  0  0  0
   -4.4370    0.2910    2.0047 H   0  0  0  0  0  0  0  0  0  0  0  0
   -2.7302   -1.7467    1.9921 H   0  0  0  0  0  0  0  0  0  0  0  0
   -3.6446   -1.4140   -0.9275 H   0  0  0  0  0  0  0  0  0  0  0  0
   -2.2844   -2.4081   -0.3922 H   0  0  0  0  0  0  0  0  0  0  0  0
   -3.9388   -2.8365    0.0822 H   0  0  0  0  0  0  0  0  0  0  0  0
   -0.8768   -0.3314    0.9568 N   0  0  0  0  0  0  0  0  0  0  0  0
    0.2067    0.6285    0.7375 C   0  0  2  0  0  0  0  0  0  0  0  0
    1.0510    0.6228    2.0082 C   0  0  0  0  0  0  0  0  0  0  0  0
    1.2023    1.6240    2.7055 O   0  0  0  0  0  0  0  0  0  0  0  0
   -0.3928    2.0115    0.4419 C   0  0  0  0  0  0  0  0  0  0  0  0
   -1.1473    2.0801   -0.8857 C   0  0  0  0  0  0  0  0  0  0  0  0
   -1.7405    3.4457   -1.1276 C   0  0  0  0  0  0  0  0  0  0  0  0
   -1.7355    4.3473   -0.2992 O   0  0  0  0  0  0  0  0  0  0  0  0
   -2.3066    3.5651   -2.3539 O   0  0  0  0  0  0  0  0  0  0  0  0
   -0.6087   -1.2764    1.1771 H   0  0  0  0  0  0  0  0  0  0  0  0
    0.8004    0.2905   -0.1181 H   0  0  0  0  0  0  0  0  0  0  0  0
   -1.0763    2.2904    1.2550 H   0  0  0  0  0  0  0  0  0  0  0  0
    0.3996    2.7713    0.4243 H   0  0  0  0  0  0  0  0  0  0  0  0
   -0.4554    1.8834   -1.7139 H   0  0  0  0  0  0  0  0  0  0  0  0
   -1.9192    1.3070   -0.9587 H   0  0  0  0  0  0  0  0  0  0  0  0
   -2.7210    4.4332   -2.5448 H   0  0  0  0  0  0  0  0  0  0  0  0
    1.5849   -0.6276    2.2825 N   0  0  0  0  0  0  0  0  0  0  0  0
    2.4207   -0.8975    3.4303 C   0  0  2  0  0  0  0  0  0  0  0  0
    3.8739   -0.7504    2.9990 C   0  0  0  0  0  0  0  0  0  0  0  0
    4.2399   -0.8500    1.8297 O   0  0  0  0  0  0  0  0  0  0  0  0
    2.1582   -2.2863    3.9916 C   0  0  0  0  0  0  0  0  0  0  0  0
    1.3785   -1.3910    1.6455 H   0  0  0  0  0  0  0  0  0  0  0  0
    2.1829   -0.1357    4.1808 H   0  0  0  0  0  0  0  0  0  0  0  0
    2.3907   -3.0629    3.2538 H   0  0  0  0  0  0  0  0  0  0  0  0
    2.7715   -2.4784    4.8781 H   0  0  0  0  0  0  0  0  0  0  0  0
    1.1059   -2.4002    4.2736 H   0  0  0  0  0  0  0  0  0  0  0  0
    4.7197   -0.5377    4.0785 N   0  0  0  0  0  0  0  0  0  0  0  0
    6.1477   -0.3791    3.9308 C   0  0  0  0  0  0  0  0  0  0  0  0
    4.3271   -0.4502    5.0113 H   0  0  0  0  0  0  0  0  0  0  0  0
    6.6392   -1.3568    4.0429 H   0  0  0  0  0  0  0  0  0  0  0  0
    6.3698    0.0307    2.9344 H   0  0  0  0  0  0  0  0  0  0  0  0
    6.5217    0.3099    4.7024 H   0  0  0  0  0  0  0  0  0  0  0  0
  1  3  1  0  0  0  0
  1  7  1  0  0  0  0
  1  2  2  0  0  0  0
 34 35  1  0  0  0  0
 35 43  1  0  0  0  0
 35 36  2  0  0  0  0
  8  9  1  0  0  0  0
  9 17  1  0  0  0  0
  9 10  2  0  0  0  0
 18 19  1  0  0  0  0
 19 33  1  0  0  0  0
 19 20  2  0  0  0  0
 22 23  1  0  0  0  0
 23 24  2  0  0  0  0
 23 25  1  0  0  0  0
 34 37  1  0  0  0  0
  8 11  1  0  0  0  0
 43 44  1  0  0  0  0
 21 22  1  0  0  0  0
 18 21  1  0  0  0  0
 33 34  1  0  0  0  0
  7  8  1  0  0  0  0
 17 18  1  0  0  0  0
  3  4  1  0  0  0  0
  3  5  1  0  0  0  0
  3  6  1  0  0  0  0
 37 40  1  0  0  0  0
 37 41  1  0  0  0  0
 37 42  1  0  0  0  0
 11 14  1  0  0  0  0
 11 15  1  0  0  0  0
 11 16  1  0  0  0  0
 44 46  1  0  0  0  0
 44 47  1  0  0  0  0
 44 48  1  0  0  0  0
 22 30  1  0  0  0  0
 22 31  1  0  0  0  0
 21 28  1  0  0  0  0
 21 29  1  0  0  0  0
 34 39  1  0  0  0  0
  8 13  1  0  0  0  0
 18 27  1  0  0  0  0
 43 45  1  0  0  0  0
  7 12  1  0  0  0  0
 33 38  1  0  0  0  0
 17 26  1  0  0  0  0
 25 32  1  0  0  0  0
M  END
$$$$

  -OEChem-05262214473D

 48 47  0     1  0  0  0  0  0999 V2000
   -5.5827   -1.3473    1.4591 C   0  0  0  0  0  0  0  0  0  0  0  0
   -5.7053   -2.4696    0.9825 O   0  0  0  0  0  0  0  0  0  0  0  0
   -6.7879   -0.6277    1.9670 C   0  0  0  0  0  0  0  0  0  0  0  0
   -7.2718   -0.0164    1.1885 H   0  0  0  0  0  0  0  0  0  0  0  0
   -7.5699   -1.3171    2.3239 H   0  0  0  0  0  0  0  0  0  0  0  0
   -6.6057    0.0628    2.8060 H   0  0  0  0  0  0  0  0  0  0  0  0
   -4.4001   -0.6377    1.5884 N   0  0  0  0  0  0  0  0  0  0  0  0
   -3.1220   -1.1455    1.1644 C   0  0  2  0  0  0  0  0  0  0  0  0
   -2.2017    0.0428    0.9187 C   0  0  0  0  0  0  0  0  0  0  0  0
   -2.6171    1.1750    0.6807 O   0  0  0  0  0  0  0  0  0  0  0  0
   -3.2533   -1.9992   -0.0873 C   0  0  0  0  0  0  0  0  0  0  0  0
   -4.4370    0.2910    2.0047 H   0  0  0  0  0  0  0  0  0  0  0  0
   -2.7302   -1.7467    1.9921 H   0  0  0  0  0  0  0  0  0  0  0  0
   -3.6446   -1.4140   -0.9275 H   0  0  0  0  0  0  0  0  0  0  0  0
   -2.2844   -2.4081   -0.3922 H   0  0  0  0  0  0  0  0  0  0  0  0
   -3.9388   -2.8365    0.0822 H   0  0  0  0  0  0  0  0  0  0  0  0
   -0.8768   -0.3314    0.9568 N   0  0  0  0  0  0  0  0  0  0  0  0
    0.2067    0.6285    0.7375 C   0  0  2  0  0  0  0  0  0  0  0  0
    1.0510    0.6228    2.0082 C   0  0  0  0  0  0  0  0  0  0  0  0
    0.9931    1.5226    2.8440 O   0  0  0  0  0  0  0  0  0  0  0  0
   -0.3928    2.0115    0.4419 C   0  0  0  0  0  0  0  0  0  0  0  0
   -1.1473    2.0801   -0.8857 C   0  0  0  0  0  0  0  0  0  0  0  0
   -1.7405    3.4457   -1.1276 C   0  0  0  0  0  0  0  0  0  0  0  0
   -1.7355    4.3473   -0.2992 O   0  0  0  0  0  0  0  0  0  0  0  0
   -2.3066    3.5651   -2.3539 O   0  0  0  0  0  0  0  0  0  0  0  0
   -0.6087   -1.2764    1.1771 H   0  0  0  0  0  0  0  0  0  0  0  0
    0.8004    0.2905   -0.1181 H   0  0  0  0  0  0  0  0  0  0  0  0
   -1.0763    2.2904    1.2550 H   0  0  0  0  0  0  0  0  0  0  0  0
    0.3996    2.7713    0.4243 H   0  0  0  0  0  0  0  0  0  0  0  0
   -0.4554    1.8834   -1.7139 H   0  0  0  0  0  0  0  0  0  0  0  0
   -1.9192    1.3070   -0.9587 H   0  0  0  0  0  0  0  0  0  0  0  0
   -2.7210    4.4332   -2.5448 H   0  0  0  0  0  0  0  0  0  0  0  0
    1.8460   -0.5092    2.1096 N   0  0  0  0  0  0  0  0  0  0  0  0
    2.7371   -0.7544    3.2207 C   0  0  2  0  0  0  0  0  0  0  0  0
    4.1179   -0.2373    2.8391 C   0  0  0  0  0  0  0  0  0  0  0  0
    4.4795   -0.0870    1.6739 O   0  0  0  0  0  0  0  0  0  0  0  0
    2.7886   -2.2329    3.5730 C   0  0  0  0  0  0  0  0  0  0  0  0
    1.7996   -1.1998    1.3665 H   0  0  0  0  0  0  0  0  0  0  0  0
    2.3518   -0.1773    4.0684 H   0  0  0  0  0  0  0  0  0  0  0  0
    3.1721   -2.8272    2.7356 H   0  0  0  0  0  0  0  0  0  0  0  0
    3.4419   -2.4133    4.4330 H   0  0  0  0  0  0  0  0  0  0  0  0
    1.7899   -2.6101    3.8182 H   0  0  0  0  0  0  0  0  0  0  0  0
    4.9138   -0.0043    3.9520 N   0  0  0  0  0  0  0  0  0  0  0  0
    6.2716    0.4778    3.8523 C   0  0  0  0  0  0  0  0  0  0  0  0
    4.5253   -0.1380    4.8810 H   0  0  0  0  0  0  0  0  0  0  0  0
    6.9640   -0.3767    3.8315 H   0  0  0  0  0  0  0  0  0  0  0  0
    6.3854    1.0643    2.9287 H   0  0  0  0  0  0  0  0  0  0  0  0
    6.4996    1.1133    4.7207 H   0  0  0  0  0  0  0  0  0  0  0  0
  1  3  1  0  0  0  0
  1  7  1  0  0  0  0
  1  2  2  0  0  0  0
 34 35  1  0  0  0  0
 35 43  1  0  0  0  0
 35 36  2  0  0  0  0
  8  9  1  0  0  0  0
  9 17  1  0  0  0  0
  9 10  2  0  0  0  0
 18 19  1  0  0  0  0
 19 33  1  0  0  0  0
 19 20  2  0  0  0  0
 22 23  1  0  0  0  0
 23 24  2  0  0  0  0
 23 25  1  0  0  0  0
 34 37  1  0  0  0  0
  8 11  1  0  0  0  0
 43 44  1  0  0  0  0
 21 22  1  0  0  0  0
 18 21  1  0  0  0  0
 33 34  1  0  0  0  0
  7  8  1  0  0  0  0
 17 18  1  0  0  0  0
  3  4  1  0  0  0  0
  3  5  1  0  0  0  0
  3  6  1  0  0  0  0
 37 40  1  0  0  0  0
 37 41  1  0  0  0  0
 37 42  1  0  0  0  0
 11 14  1  0  0  0  0
 11 15  1  0  0  0  0
 11 16  1  0  0  0  0
 44 46  1  0  0  0  0
 44 47  1  0  0  0  0
 44 48  1  0  0  0  0
 22 30  1  0  0  0  0
 22 31  1  0  0  0  0
 21 28  1  0  0  0  0
 21 29  1  0  0  0  0
 34 39  1  0  0  0  0
  8 13  1  0  0  0  0
 18 27  1  0  0  0  0
 43 45  1  0  0  0  0
  7 12  1  0  0  0  0
 33 38  1  0  0  0  0
 17 26  1  0  0  0  0
 25 32  1  0  0  0  0
M  END
$$$$

  -OEChem-05262214473D

 48 47  0     1  0  0  0  0  0999 V2000
   -5.5827   -1.3473    1.4591 C   0  0  0  0  0  0  0  0  0  0  0  0
   -5.7053   -2.4696    0.9825 O   0  0  0  0  0  0  0  0  0  0  0  0
   -6.7879   -0.6277    1.9670 C   0  0  0  0  0  0  0  0  0  0  0  0
   -7.2718   -0.0164    1.1885 H   0  0  0  0  0  0  0  0  0  0  0  0
   -7.5699   -1.3171    2.3239 H   0  0  0  0  0  0  0  0  0  0  0  0
   -6.6057    0.0628    2.8060 H   0  0  0  0  0  0  0  0  0  0  0  0
   -4.4001   -0.6377    1.5884 N   0  0  0  0  0  0  0  0  0  0  0  0
   -3.1220   -1.1455    1.1644 C   0  0  2  0  0  0  0  0  0  0  0  0
   -2.2017    0.0428    0.9187 C   0  0  0  0  0  0  0  0  0  0  0  0
   -2.6171    1.1750    0.6807 O   0  0  0  0  0  0  0  0  0  0  0  0
   -3.2533   -1.9992   -0.0873 C   0  0  0  0  0  0  0  0  0  0  0  0
   -4.4370    0.2910    2.0047 H   0  0  0  0  0  0  0  0  0  0  0  0
   -2.7302   -1.7467    1.9921 H   0  0  0  0  0  0  0  0  0  0  0  0
   -3.6446   -1.4140   -0.9275 H   0  0  0  0  0  0  0  0  0  0  0  0
   -2.2844   -2.4081   -0.3922 H   0  0  0  0  0  0  0  0  0  0  0  0
   -3.9388   -2.8365    0.0822 H   0  0  0  0  0  0  0  0  0  0  0  0
   -0.8768   -0.3314    0.9568 N   0  0  0  0  0  0  0  0  0  0  0  0
    0.2067    0.6285    0.7375 C   0  0  2  0  0  0  0  0  0  0  0  0
    1.0510    0.6228    2.0082 C   0  0  0  0  0  0  0  0  0  0  0  0
    0.8128    1.3596    2.9631 O   0  0  0  0  0  0  0  0  0  0  0  0
   -0.3928    2.0115    0.4419 C   0  0  0  0  0  0  0  0  0  0  0  0
   -1.1473    2.0801   -0.8857 C   0  0  0  0  0  0  0  0  0  0  0  0
   -1.7405    3.4457   -1.1276 C   0  0  0  0  0  0  0  0  0  0  0  0
   -1.7355    4.3473   -0.2992 O   0  0  0  0  0  0  0  0  0  0  0  0
   -2.3066    3.5651   -2.3539 O   0  0  0  0  0  0  0  0  0  0  0  0
   -0.6087   -1.2764    1.1771 H   0  0  0  0  0  0  0  0  0  0  0  0
    0.8004    0.2905   -0.1181 H   0  0  0  0  0  0  0  0  0  0  0  0
   -1.0763    2.2904    1.2550 H   0  0  0  0  0  0  0  0  0  0  0  0
    0.3996    2.7713    0.4243 H   0  0  0  0  0  0  0  0  0  0  0  0
   -0.4554    1.8834   -1.7139 H   0  0  0  0  0  0  0  0  0  0  0  0
   -1.9192    1.3070   -0.9587 H   0  0  0  0  0  0  0  0  0  0  0  0
   -2.7210    4.4332   -2.5448 H   0  0  0  0  0  0  0  0  0  0  0  0
    2.0728   -0.3139    1.9598 N   0  0  0  0  0  0  0  0  0  0  0  0
    3.0121   -0.5179    3.0390 C   0  0  2  0  0  0  0  0  0  0  0  0
    4.2431    0.3338    2.7585 C   0  0  0  0  0  0  0  0  0  0  0  0
    4.5466    0.7239    1.6330 O   0  0  0  0  0  0  0  0  0  0  0  0
    3.3864   -1.9854    3.1769 C   0  0  0  0  0  0  0  0  0  0  0  0
    2.1655   -0.8844    1.1248 H   0  0  0  0  0  0  0  0  0  0  0  0
    2.5239   -0.1650    3.9540 H   0  0  0  0  0  0  0  0  0  0  0  0
    3.8767   -2.3568    2.2696 H   0  0  0  0  0  0  0  0  0  0  0  0
    4.0758   -2.1422    4.0130 H   0  0  0  0  0  0  0  0  0  0  0  0
    2.4962   -2.6001    3.3489 H   0  0  0  0  0  0  0  0  0  0  0  0
    4.9864    0.5708    3.9063 N   0  0  0  0  0  0  0  0  0  0  0  0
    6.2066    1.3434    3.8993 C   0  0  0  0  0  0  0  0  0  0  0  0
    4.6496    0.2248    4.8000 H   0  0  0  0  0  0  0  0  0  0  0  0
    7.0667    0.6703    3.7680 H   0  0  0  0  0  0  0  0  0  0  0  0
    6.1776    2.0669    3.0712 H   0  0  0  0  0  0  0  0  0  0  0  0
    6.3050    1.8819    4.8534 H   0  0  0  0  0  0  0  0  0  0  0  0
  1  3  1  0  0  0  0
  1  7  1  0  0  0  0
  1  2  2  0  0  0  0
 34 35  1  0  0  0  0
 35 43  1  0  0  0  0
 35 36  2  0  0  0  0
  8  9  1  0  0  0  0
  9 17  1  0  0  0  0
  9 10  2  0  0  0  0
 18 19  1  0  0  0  0
 19 33  1  0  0  0  0
 19 20  2  0  0  0  0
 22 23  1  0  0  0  0
 23 24  2  0  0  0  0
 23 25  1  0  0  0  0
 34 37  1  0  0  0  0
  8 11  1  0  0  0  0
 43 44  1  0  0  0  0
 21 22  1  0  0  0  0
 18 21  1  0  0  0  0
 33 34  1  0  0  0  0
  7  8  1  0  0  0  0
 17 18  1  0  0  0  0
  3  4  1  0  0  0  0
  3  5  1  0  0  0  0
  3  6  1  0  0  0  0
 37 40  1  0  0  0  0
 37 41  1  0  0  0  0
 37 42  1  0  0  0  0
 11 14  1  0  0  0  0
 11 15  1  0  0  0  0
 11 16  1  0  0  0  0
 44 46  1  0  0  0  0
 44 47  1  0  0  0  0
 44 48  1  0  0  0  0
 22 30  1  0  0  0  0
 22 31  1  0  0  0  0
 21 28  1  0  0  0  0
 21 29  1  0  0  0  0
 34 39  1  0  0  0  0
  8 13  1  0  0  0  0
 18 27  1  0  0  0  0
 43 45  1  0  0  0  0
  7 12  1  0  0  0  0
 33 38  1  0  0  0  0
 17 26  1  0  0  0  0
 25 32  1  0  0  0  0
M  END
$$$$

  -OEChem-05262214473D

 48 47  0     1  0  0  0  0  0999 V2000
   -5.5827   -1.3473    1.4591 C   0  0  0  0  0  0  0  0  0  0  0  0
   -5.7053   -2.4696    0.9825 O   0  0  0  0  0  0  0  0  0  0  0  0
   -6.7879   -0.6277    1.9670 C   0  0  0  0  0  0  0  0  0  0  0  0
   -7.2718   -0.0164    1.1885 H   0  0  0  0  0  0  0  0  0  0  0  0
   -7.5699   -1.3171    2.3239 H   0  0  0  0  0  0  0  0  0  0  0  0
   -6.6057    0.0628    2.8060 H   0  0  0  0  0  0  0  0  0  0  0  0
   -4.4001   -0.6377    1.5884 N   0  0  0  0  0  0  0  0  0  0  0  0
   -3.1220   -1.1455    1.1644 C   0  0  2  0  0  0  0  0  0  0  0  0
   -2.2017    0.0428    0.9187 C   0  0  0  0  0  0  0  0  0  0  0  0
   -2.6171    1.1750    0.6807 O   0  0  0  0  0  0  0  0  0  0  0  0
   -3.2533   -1.9992   -0.0873 C   0  0  0  0  0  0  0  0  0  0  0  0
   -4.4370    0.2910    2.0047 H   0  0  0  0  0  0  0  0  0  0  0  0
   -2.7302   -1.7467    1.9921 H   0  0  0  0  0  0  0  0  0  0  0  0
   -3.6446   -1.4140   -0.9275 H   0  0  0  0  0  0  0  0  0  0  0  0
   -2.2844   -2.4081   -0.3922 H   0  0  0  0  0  0  0  0  0  0  0  0
   -3.9388   -2.8365    0.0822 H   0  0  0  0  0  0  0  0  0  0  0  0
   -0.8768   -0.3314    0.9568 N   0  0  0  0  0  0  0  0  0  0  0  0
    0.2067    0.6285    0.7375 C   0  0  2  0  0  0  0  0  0  0  0  0
    1.0510    0.6228    2.0082 C   0  0  0  0  0  0  0  0  0  0  0  0
    0.6736    1.1463    3.0546 O   0  0  0  0  0  0  0  0  0  0  0  0
   -0.3928    2.0115    0.4419 C   0  0  0  0  0  0  0  0  0  0  0  0
   -1.1473    2.0801   -0.8857 C   0  0  0  0  0  0  0  0  0  0  0  0
   -1.7405    3.4457   -1.1276 C   0  0  0  0  0  0  0  0  0  0  0  0
   -1.7355    4.3473   -0.2992 O   0  0  0  0  0  0  0  0  0  0  0  0
   -2.3066    3.5651   -2.3539 O   0  0  0  0  0  0  0  0  0  0  0  0
   -0.6087   -1.2764    1.1771 H   0  0  0  0  0  0  0  0  0  0  0  0
    0.8004    0.2905   -0.1181 H   0  0  0  0  0  0  0  0  0  0  0  0
   -1.0763    2.2904    1.2550 H   0  0  0  0  0  0  0  0  0  0  0  0
    0.3996    2.7713    0.4243 H   0  0  0  0  0  0  0  0  0  0  0  0
   -0.4554    1.8834   -1.7139 H   0  0  0  0  0  0  0  0  0  0  0  0
   -1.9192    1.3070   -0.9587 H   0  0  0  0  0  0  0  0  0  0  0  0
   -2.7210    4.4332   -2.5448 H   0  0  0  0  0  0  0  0  0  0  0  0
    2.2500   -0.0548    1.8432 N   0  0  0  0  0  0  0  0  0  0  0  0
    3.2269   -0.2042    2.8977 C   0  0  2  0  0  0  0  0  0  0  0  0
    4.2410    0.9240    2.7625 C   0  0  0  0  0  0  0  0  0  0  0  0
    4.4366    1.5275    1.7096 O   0  0  0  0  0  0  0  0  0  0  0  0
    3.9108   -1.5608    2.8303 C   0  0  0  0  0  0  0  0  0  0  0  0
    2.4512   -0.4662    0.9368 H   0  0  0  0  0  0  0  0  0  0  0  0
    2.6877   -0.0997    3.8455 H   0  0  0  0  0  0  0  0  0  0  0  0
    4.4563   -1.6838    1.8875 H   0  0  0  0  0  0  0  0  0  0  0  0
    4.6301   -1.6835    3.6467 H   0  0  0  0  0  0  0  0  0  0  0  0
    3.1768   -2.3710    2.8977 H   0  0  0  0  0  0  0  0  0  0  0  0
    4.9325    1.1486    3.9447 N   0  0  0  0  0  0  0  0  0  0  0  0
    5.9573    2.1588    4.0686 C   0  0  0  0  0  0  0  0  0  0  0  0
    4.6916    0.6137    4.7739 H   0  0  0  0  0  0  0  0  0  0  0  0
    6.9402    1.7128    3.8567 H   0  0  0  0  0  0  0  0  0  0  0  0
    5.7607    2.9701    3.3522 H   0  0  0  0  0  0  0  0  0  0  0  0
    5.9513    2.5634    5.0915 H   0  0  0  0  0  0  0  0  0  0  0  0
  1  3  1  0  0  0  0
  1  7  1  0  0  0  0
  1  2  2  0  0  0  0
 34 35  1  0  0  0  0
 35 43  1  0  0  0  0
 35 36  2  0  0  0  0
  8  9  1  0  0  0  0
  9 17  1  0  0  0  0
  9 10  2  0  0  0  0
 18 19  1  0  0  0  0
 19 33  1  0  0  0  0
 19 20  2  0  0  0  0
 22 23  1  0  0  0  0
 23 24  2  0  0  0  0
 23 25  1  0  0  0  0
 34 37  1  0  0  0  0
  8 11  1  0  0  0  0
 43 44  1  0  0  0  0
 21 22  1  0  0  0  0
 18 21  1  0  0  0  0
 33 34  1  0  0  0  0
  7  8  1  0  0  0  0
 17 18  1  0  0  0  0
  3  4  1  0  0  0  0
  3  5  1  0  0  0  0
  3  6  1  0  0  0  0
 37 40  1  0  0  0  0
 37 41  1  0  0  0  0
 37 42  1  0  0  0  0
 11 14  1  0  0  0  0
 11 15  1  0  0  0  0
 11 16  1  0  0  0  0
 44 46  1  0  0  0  0
 44 47  1  0  0  0  0
 44 48  1  0  0  0  0
 22 30  1  0  0  0  0
 22 31  1  0  0  0  0
 21 28  1  0  0  0  0
 21 29  1  0  0  0  0
 34 39  1  0  0  0  0
  8 13  1  0  0  0  0
 18 27  1  0  0  0  0
 43 45  1  0  0  0  0
  7 12  1  0  0  0  0
 33 38  1  0  0  0  0
 17 26  1  0  0  0  0
 25 32  1  0  0  0  0
M  END
$$$$

  -OEChem-05262214473D

 48 47  0     1  0  0  0  0  0999 V2000
   -5.5827   -1.3473    1.4591 C   0  0  0  0  0  0  0  0  0  0  0  0
   -5.7053   -2.4696    0.9825 O   0  0  0  0  0  0  0  0  0  0  0  0
   -6.7879   -0.6277    1.9670 C   0  0  0  0  0  0  0  0  0  0  0  0
   -7.2718   -0.0164    1.1885 H   0  0  0  0  0  0  0  0  0  0  0  0
   -7.5699   -1.3171    2.3239 H   0  0  0  0  0  0  0  0  0  0  0  0
   -6.6057    0.0628    2.8060 H   0  0  0  0  0  0  0  0  0  0  0  0
   -4.4001   -0.6377    1.5884 N   0  0  0  0  0  0  0  0  0  0  0  0
   -3.1220   -1.1455    1.1644 C   0  0  2  0  0  0  0  0  0  0  0  0
   -2.2017    0.0428    0.9187 C   0  0  0  0  0  0  0  0  0  0  0  0
   -2.6171    1.1750    0.6807 O   0  0  0  0  0  0  0  0  0  0  0  0
   -3.2533   -1.9992   -0.0873 C   0  0  0  0  0  0  0  0  0  0  0  0
   -4.4370    0.2910    2.0047 H   0  0  0  0  0  0  0  0  0  0  0  0
   -2.7302   -1.7467    1.9921 H   0  0  0  0  0  0  0  0  0  0  0  0
   -3.6446   -1.4140   -0.9275 H   0  0  0  0  0  0  0  0  0  0  0  0
   -2.2844   -2.4081   -0.3922 H   0  0  0  0  0  0  0  0  0  0  0  0
   -3.9388   -2.8365    0.0822 H   0  0  0  0  0  0  0  0  0  0  0  0
   -0.8768   -0.3314    0.9568 N   0  0  0  0  0  0  0  0  0  0  0  0
    0.2067    0.6285    0.7375 C   0  0  2  0  0  0  0  0  0  0  0  0
    1.0510    0.6228    2.0082 C   0  0  0  0  0  0  0  0  0  0  0  0
    0.5851    0.8972    3.1123 O   0  0  0  0  0  0  0  0  0  0  0  0
   -0.3928    2.0115    0.4419 C   0  0  0  0  0  0  0  0  0  0  0  0
   -1.1473    2.0801   -0.8857 C   0  0  0  0  0  0  0  0  0  0  0  0
   -1.7405    3.4457   -1.1276 C   0  0  0  0  0  0  0  0  0  0  0  0
   -1.7355    4.3473   -0.2992 O   0  0  0  0  0  0  0  0  0  0  0  0
   -2.3066    3.5651   -2.3539 O   0  0  0  0  0  0  0  0  0  0  0  0
   -0.6087   -1.2764    1.1771 H   0  0  0  0  0  0  0  0  0  0  0  0
    0.8004    0.2905   -0.1181 H   0  0  0  0  0  0  0  0  0  0  0  0
   -1.0763    2.2904    1.2550 H   0  0  0  0  0  0  0  0  0  0  0  0
    0.3996    2.7713    0.4243 H   0  0  0  0  0  0  0  0  0  0  0  0
   -0.4554    1.8834   -1.7139 H   0  0  0  0  0  0  0  0  0  0  0  0
   -1.9192    1.3070   -0.9587 H   0  0  0  0  0  0  0  0  0  0  0  0
   -2.7210    4.4332   -2.5448 H   0  0  0  0  0  0  0  0  0  0  0  0
    2.3653    0.2503    1.7679 N   0  0  0  0  0  0  0  0  0  0  0  0
    3.3669    0.1654    2.8063 C   0  0  2  0  0  0  0  0  0  0  0  0
    4.1118    1.4931    2.8509 C   0  0  0  0  0  0  0  0  0  0  0  0
    4.1571    2.2691    1.8987 O   0  0  0  0  0  0  0  0  0  0  0  0
    4.3262   -0.9879    2.5568 C   0  0  0  0  0  0  0  0  0  0  0  0
    2.6371    0.0262    0.8155 H   0  0  0  0  0  0  0  0  0  0  0  0
    2.8319    0.0143    3.7502 H   0  0  0  0  0  0  0  0  0  0  0  0
    4.8714   -0.8541    1.6154 H   0  0  0  0  0  0  0  0  0  0  0  0
    5.0670   -1.0685    3.3592 H   0  0  0  0  0  0  0  0  0  0  0  0
    3.7853   -1.9384    2.4954 H   0  0  0  0  0  0  0  0  0  0  0  0
    4.7560    1.6896    4.0644 N   0  0  0  0  0  0  0  0  0  0  0  0
    5.5404    2.8684    4.3488 C   0  0  0  0  0  0  0  0  0  0  0  0
    4.6482    1.0021    4.8044 H   0  0  0  0  0  0  0  0  0  0  0  0
    6.5932    2.6798    4.0916 H   0  0  0  0  0  0  0  0  0  0  0  0
    5.1631    3.7124    3.7527 H   0  0  0  0  0  0  0  0  0  0  0  0
    5.4624    3.1114    5.4188 H   0  0  0  0  0  0  0  0  0  0  0  0
  1  3  1  0  0  0  0
  1  7  1  0  0  0  0
  1  2  2  0  0  0  0
 34 35  1  0  0  0  0
 35 43  1  0  0  0  0
 35 36  2  0  0  0  0
  8  9  1  0  0  0  0
  9 17  1  0  0  0  0
  9 10  2  0  0  0  0
 18 19  1  0  0  0  0
 19 33  1  0  0  0  0
 19 20  2  0  0  0  0
 22 23  1  0  0  0  0
 23 24  2  0  0  0  0
 23 25  1  0  0  0  0
 34 37  1  0  0  0  0
  8 11  1  0  0  0  0
 43 44  1  0  0  0  0
 21 22  1  0  0  0  0
 18 21  1  0  0  0  0
 33 34  1  0  0  0  0
  7  8  1  0  0  0  0
 17 18  1  0  0  0  0
  3  4  1  0  0  0  0
  3  5  1  0  0  0  0
  3  6  1  0  0  0  0
 37 40  1  0  0  0  0
 37 41  1  0  0  0  0
 37 42  1  0  0  0  0
 11 14  1  0  0  0  0
 11 15  1  0  0  0  0
 11 16  1  0  0  0  0
 44 46  1  0  0  0  0
 44 47  1  0  0  0  0
 44 48  1  0  0  0  0
 22 30  1  0  0  0  0
 22 31  1  0  0  0  0
 21 28  1  0  0  0  0
 21 29  1  0  0  0  0
 34 39  1  0  0  0  0
  8 13  1  0  0  0  0
 18 27  1  0  0  0  0
 43 45  1  0  0  0  0
  7 12  1  0  0  0  0
 33 38  1  0  0  0  0
 17 26  1  0  0  0  0
 25 32  1  0  0  0  0
M  END
$$$$

  -OEChem-05262214473D

 48 47  0     1  0  0  0  0  0999 V2000
   -5.5827   -1.3473    1.4591 C   0  0  0  0  0  0  0  0  0  0  0  0
   -5.7053   -2.4696    0.9825 O   0  0  0  0  0  0  0  0  0  0  0  0
   -6.7879   -0.6277    1.9670 C   0  0  0  0  0  0  0  0  0  0  0  0
   -7.2718   -0.0164    1.1885 H   0  0  0  0  0  0  0  0  0  0  0  0
   -7.5699   -1.3171    2.3239 H   0  0  0  0  0  0  0  0  0  0  0  0
   -6.6057    0.0628    2.8060 H   0  0  0  0  0  0  0  0  0  0  0  0
   -4.4001   -0.6377    1.5884 N   0  0  0  0  0  0  0  0  0  0  0  0
   -3.1220   -1.1455    1.1644 C   0  0  2  0  0  0  0  0  0  0  0  0
   -2.2017    0.0428    0.9187 C   0  0  0  0  0  0  0  0  0  0  0  0
   -2.6171    1.1750    0.6807 O   0  0  0  0  0  0  0  0  0  0  0  0
   -3.2533   -1.9992   -0.0873 C   0  0  0  0  0  0  0  0  0  0  0  0
   -4.4370    0.2910    2.0047 H   0  0  0  0  0  0  0  0  0  0  0  0
   -2.7302   -1.7467    1.9921 H   0  0  0  0  0  0  0  0  0  0  0  0
   -3.6446   -1.4140   -0.9275 H   0  0  0  0  0  0  0  0  0  0  0  0
   -2.2844   -2.4081   -0.3922 H   0  0  0  0  0  0  0  0  0  0  0  0
   -3.9388   -2.8365    0.0822 H   0  0  0  0  0  0  0  0  0  0  0  0
   -0.8768   -0.3314    0.9568 N   0  0  0  0  0  0  0  0  0  0  0  0
    0.2067    0.6285    0.7375 C   0  0  2  0  0  0  0  0  0  0  0  0
    1.0510    0.6228    2.0082 C   0  0  0  0  0  0  0  0  0  0  0  0
    0.5532    0.6291    3.1323 O   0  0  0  0  0  0  0  0  0  0  0  0
   -0.3928    2.0115    0.4419 C   0  0  0  0  0  0  0  0  0  0  0  0
   -1.1473    2.0801   -0.8857 C   0  0  0  0  0  0  0  0  0  0  0  0
   -1.7405    3.4457   -1.1276 C   0  0  0  0  0  0  0  0  0  0  0  0
   -1.7355    4.3473   -0.2992 O   0  0  0  0  0  0  0  0  0  0  0  0
   -2.3066    3.5651   -2.3539 O   0  0  0  0  0  0  0  0  0  0  0  0
   -0.6087   -1.2764    1.1771 H   0  0  0  0  0  0  0  0  0  0  0  0
    0.8004    0.2905   -0.1181 H   0  0  0  0  0  0  0  0  0  0  0  0
   -1.0763    2.2904    1.2550 H   0  0  0  0  0  0  0  0  0  0  0  0
    0.3996    2.7713    0.4243 H   0  0  0  0  0  0  0  0  0  0  0  0
   -0.4554    1.8834   -1.7139 H   0  0  0  0  0  0  0  0  0  0  0  0
   -1.9192    1.3070   -0.9587 H   0  0  0  0  0  0  0  0  0  0  0  0
   -2.7210    4.4332   -2.5448 H   0  0  0  0  0  0  0  0  0  0  0  0
    2.4110    0.5807    1.7390 N   0  0  0  0  0  0  0  0  0  0  0  0
    3.4226    0.5657    2.7711 C   0  0  2  0  0  0  0  0  0  0  0  0
    3.8642    2.0022    3.0177 C   0  0  0  0  0  0  0  0  0  0  0  0
    3.7271    2.8981    2.1872 O   0  0  0  0  0  0  0  0  0  0  0  0
    4.6042   -0.3059    2.3752 C   0  0  0  0  0  0  0  0  0  0  0  0
    2.7107    0.5593    0.7690 H   0  0  0  0  0  0  0  0  0  0  0  0
    2.9467    0.1691    3.6746 H   0  0  0  0  0  0  0  0  0  0  0  0
    5.0938    0.0759    1.4718 H   0  0  0  0  0  0  0  0  0  0  0  0
    5.3567   -0.3391    3.1700 H   0  0  0  0  0  0  0  0  0  0  0  0
    4.2802   -1.3317    2.1693 H   0  0  0  0  0  0  0  0  0  0  0  0
    4.4687    2.1569    4.2574 N   0  0  0  0  0  0  0  0  0  0  0  0
    4.9846    3.4239    4.7206 C   0  0  0  0  0  0  0  0  0  0  0  0
    4.5226    1.3636    4.8895 H   0  0  0  0  0  0  0  0  0  0  0  0
    6.0493    3.5054    4.4566 H   0  0  0  0  0  0  0  0  0  0  0  0
    4.4253    4.2432    4.2453 H   0  0  0  0  0  0  0  0  0  0  0  0
    4.8718    3.4884    5.8129 H   0  0  0  0  0  0  0  0  0  0  0  0
  1  3  1  0  0  0  0
  1  7  1  0  0  0  0
  1  2  2  0  0  0  0
 34 35  1  0  0  0  0
 35 43  1  0  0  0  0
 35 36  2  0  0  0  0
  8  9  1  0  0  0  0
  9 17  1  0  0  0  0
  9 10  2  0  0  0  0
 18 19  1  0  0  0  0
 19 33  1  0  0  0  0
 19 20  2  0  0  0  0
 22 23  1  0  0  0  0
 23 24  2  0  0  0  0
 23 25  1  0  0  0  0
 34 37  1  0  0  0  0
  8 11  1  0  0  0  0
 43 44  1  0  0  0  0
 21 22  1  0  0  0  0
 18 21  1  0  0  0  0
 33 34  1  0  0  0  0
  7  8  1  0  0  0  0
 17 18  1  0  0  0  0
  3  4  1  0  0  0  0
  3  5  1  0  0  0  0
  3  6  1  0  0  0  0
 37 40  1  0  0  0  0
 37 41  1  0  0  0  0
 37 42  1  0  0  0  0
 11 14  1  0  0  0  0
 11 15  1  0  0  0  0
 11 16  1  0  0  0  0
 44 46  1  0  0  0  0
 44 47  1  0  0  0  0
 44 48  1  0  0  0  0
 22 30  1  0  0  0  0
 22 31  1  0  0  0  0
 21 28  1  0  0  0  0
 21 29  1  0  0  0  0
 34 39  1  0  0  0  0
  8 13  1  0  0  0  0
 18 27  1  0  0  0  0
 43 45  1  0  0  0  0
  7 12  1  0  0  0  0
 33 38  1  0  0  0  0
 17 26  1  0  0  0  0
 25 32  1  0  0  0  0
M  END
$$$$

  -OEChem-05262214473D

 48 47  0     1  0  0  0  0  0999 V2000
   -5.5827   -1.3473    1.4591 C   0  0  0  0  0  0  0  0  0  0  0  0
   -5.7053   -2.4696    0.9825 O   0  0  0  0  0  0  0  0  0  0  0  0
   -6.7879   -0.6277    1.9670 C   0  0  0  0  0  0  0  0  0  0  0  0
   -7.2718   -0.0164    1.1885 H   0  0  0  0  0  0  0  0  0  0  0  0
   -7.5699   -1.3171    2.3239 H   0  0  0  0  0  0  0  0  0  0  0  0
   -6.6057    0.0628    2.8060 H   0  0  0  0  0  0  0  0  0  0  0  0
   -4.4001   -0.6377    1.5884 N   0  0  0  0  0  0  0  0  0  0  0  0
   -3.1220   -1.1455    1.1644 C   0  0  2  0  0  0  0  0  0  0  0  0
   -2.2017    0.0428    0.9187 C   0  0  0  0  0  0  0  0  0  0  0  0
   -2.6171    1.1750    0.6807 O   0  0  0  0  0  0  0  0  0  0  0  0
   -3.2533   -1.9992   -0.0873 C   0  0  0  0  0  0  0  0  0  0  0  0
   -4.4370    0.2910    2.0047 H   0  0  0  0  0  0  0  0  0  0  0  0
   -2.7302   -1.7467    1.9921 H   0  0  0  0  0  0  0  0  0  0  0  0
   -3.6446   -1.4140   -0.9275 H   0  0  0  0  0  0  0  0  0  0  0  0
   -2.2844   -2.4081   -0.3922 H   0  0  0  0  0  0  0  0  0  0  0  0
   -3.9388   -2.8365    0.0822 H   0  0  0  0  0  0  0  0  0  0  0  0
   -0.8768   -0.3314    0.9568 N   0  0  0  0  0  0  0  0  0  0  0  0
    0.2067    0.6285    0.7375 C   0  0  2  0  0  0  0  0  0  0  0  0
    1.0510    0.6228    2.0082 C   0  0  0  0  0  0  0  0  0  0  0  0
    0.5802    0.3605    3.1132 O   0  0  0  0  0  0  0  0  0  0  0  0
   -0.3928    2.0115    0.4419 C   0  0  0  0  0  0  0  0  0  0  0  0
   -1.1473    2.0801   -0.8857 C   0  0  0  0  0  0  0  0  0  0  0  0
   -1.7405    3.4457   -1.1276 C   0  0  0  0  0  0  0  0  0  0  0  0
   -1.7355    4.3473   -0.2992 O   0  0  0  0  0  0  0  0  0  0  0  0
   -2.3066    3.5651   -2.3539 O   0  0  0  0  0  0  0  0  0  0  0  0
   -0.6087   -1.2764    1.1771 H   0  0  0  0  0  0  0  0  0  0  0  0
    0.8004    0.2905   -0.1181 H   0  0  0  0  0  0  0  0  0  0  0  0
   -1.0763    2.2904    1.2550 H   0  0  0  0  0  0  0  0  0  0  0  0
    0.3996    2.7713    0.4243 H   0  0  0  0  0  0  0  0  0  0  0  0
   -0.4554    1.8834   -1.7139 H   0  0  0  0  0  0  0  0  0  0  0  0
   -1.9192    1.3070   -0.9587 H   0  0  0  0  0  0  0  0  0  0  0  0
   -2.7210    4.4332   -2.5448 H   0  0  0  0  0  0  0  0  0  0  0  0
    2.3840    0.9138    1.7585 N   0  0  0  0  0  0  0  0  0  0  0  0
    3.3901    0.9693    2.7945 C   0  0  2  0  0  0  0  0  0  0  0  0
    3.5151    2.4168    3.2515 C   0  0  0  0  0  0  0  0  0  0  0  0
    3.1758    3.3716    2.5556 O   0  0  0  0  0  0  0  0  0  0  0  0
    4.7259    0.4389    2.2976 C   0  0  0  0  0  0  0  0  0  0  0  0
    2.6669    1.0968    0.8005 H   0  0  0  0  0  0  0  0  0  0  0  0
    3.0243    0.3542    3.6239 H   0  0  0  0  0  0  0  0  0  0  0  0
    5.1083    1.0426    1.4665 H   0  0  0  0  0  0  0  0  0  0  0  0
    5.4795    0.4551    3.0919 H   0  0  0  0  0  0  0  0  0  0  0  0
    4.6277   -0.5923    1.9417 H   0  0  0  0  0  0  0  0  0  0  0  0
    4.0902    2.5187    4.5105 N   0  0  0  0  0  0  0  0  0  0  0  0
    4.3276    3.7873    5.1588 C   0  0  0  0  0  0  0  0  0  0  0  0
    4.3233    1.6735    5.0233 H   0  0  0  0  0  0  0  0  0  0  0  0
    5.3457    4.1334    4.9270 H   0  0  0  0  0  0  0  0  0  0  0  0
    3.5978    4.5264    4.7963 H   0  0  0  0  0  0  0  0  0  0  0  0
    4.2196    3.6687    6.2470 H   0  0  0  0  0  0  0  0  0  0  0  0
  1  3  1  0  0  0  0
  1  7  1  0  0  0  0
  1  2  2  0  0  0  0
 34 35  1  0  0  0  0
 35 43  1  0  0  0  0
 35 36  2  0  0  0  0
  8  9  1  0  0  0  0
  9 17  1  0  0  0  0
  9 10  2  0  0  0  0
 18 19  1  0  0  0  0
 19 33  1  0  0  0  0
 19 20  2  0  0  0  0
 22 23  1  0  0  0  0
 23 24  2  0  0  0  0
 23 25  1  0  0  0  0
 34 37  1  0  0  0  0
  8 11  1  0  0  0  0
 43 44  1  0  0  0  0
 21 22  1  0  0  0  0
 18 21  1  0  0  0  0
 33 34  1  0  0  0  0
  7  8  1  0  0  0  0
 17 18  1  0  0  0  0
  3  4  1  0  0  0  0
  3  5  1  0  0  0  0
  3  6  1  0  0  0  0
 37 40  1  0  0  0  0
 37 41  1  0  0  0  0
 37 42  1  0  0  0  0
 11 14  1  0  0  0  0
 11 15  1  0  0  0  0
 11 16  1  0  0  0  0
 44 46  1  0  0  0  0
 44 47  1  0  0  0  0
 44 48  1  0  0  0  0
 22 30  1  0  0  0  0
 22 31  1  0  0  0  0
 21 28  1  0  0  0  0
 21 29  1  0  0  0  0
 34 39  1  0  0  0  0
  8 13  1  0  0  0  0
 18 27  1  0  0  0  0
 43 45  1  0  0  0  0
  7 12  1  0  0  0  0
 33 38  1  0  0  0  0
 17 26  1  0  0  0  0
 25 32  1  0  0  0  0
M  END
$$$$

  -OEChem-05262214473D

 48 47  0     1  0  0  0  0  0999 V2000
   -5.5827   -1.3473    1.4591 C   0  0  0  0  0  0  0  0  0  0  0  0
   -5.7053   -2.4696    0.9825 O   0  0  0  0  0  0  0  0  0  0  0  0
   -6.7879   -0.6277    1.9670 C   0  0  0  0  0  0  0  0  0  0  0  0
   -7.2718   -0.0164    1.1885 H   0  0  0  0  0  0  0  0  0  0  0  0
   -7.5699   -1.3171    2.3239 H   0  0  0  0  0  0  0  0  0  0  0  0
   -6.6057    0.0628    2.8060 H   0  0  0  0  0  0  0  0  0  0  0  0
   -4.4001   -0.6377    1.5884 N   0  0  0  0  0  0  0  0  0  0  0  0
   -3.1220   -1.1455    1.1644 C   0  0  2  0  0  0  0  0  0  0  0  0
   -2.2017    0.0428    0.9187 C   0  0  0  0  0  0  0  0  0  0  0  0
   -2.6171    1.1750    0.6807 O   0  0  0  0  0  0  0  0  0  0  0  0
   -3.2533   -1.9992   -0.0873 C   0  0  0  0  0  0  0  0  0  0  0  0
   -4.4370    0.2910    2.0047 H   0  0  0  0  0  0  0  0  0  0  0  0
   -2.7302   -1.7467    1.9921 H   0  0  0  0  0  0  0  0  0  0  0  0
   -3.6446   -1.4140   -0.9275 H   0  0  0  0  0  0  0  0  0  0  0  0
   -2.2844   -2.4081   -0.3922 H   0  0  0  0  0  0  0  0  0  0  0  0
   -3.9388   -2.8365    0.0822 H   0  0  0  0  0  0  0  0  0  0  0  0
   -0.8768   -0.3314    0.9568 N   0  0  0  0  0  0  0  0  0  0  0  0
    0.2067    0.6285    0.7375 C   0  0  2  0  0  0  0  0  0  0  0  0
    1.0510    0.6228    2.0082 C   0  0  0  0  0  0  0  0  0  0  0  0
    0.6642    0.1096    3.0563 O   0  0  0  0  0  0  0  0  0  0  0  0
   -0.3928    2.0115    0.4419 C   0  0  0  0  0  0  0  0  0  0  0  0
   -1.1473    2.0801   -0.8857 C   0  0  0  0  0  0  0  0  0  0  0  0
   -1.7405    3.4457   -1.1276 C   0  0  0  0  0  0  0  0  0  0  0  0
   -1.7355    4.3473   -0.2992 O   0  0  0  0  0  0  0  0  0  0  0  0
   -2.3066    3.5651   -2.3539 O   0  0  0  0  0  0  0  0  0  0  0  0
   -0.6087   -1.2764    1.1771 H   0  0  0  0  0  0  0  0  0  0  0  0
    0.8004    0.2905   -0.1181 H   0  0  0  0  0  0  0  0  0  0  0  0
   -1.0763    2.2904    1.2550 H   0  0  0  0  0  0  0  0  0  0  0  0
    0.3996    2.7713    0.4243 H   0  0  0  0  0  0  0  0  0  0  0  0
   -0.4554    1.8834   -1.7139 H   0  0  0  0  0  0  0  0  0  0  0  0
   -1.9192    1.3070   -0.9587 H   0  0  0  0  0  0  0  0  0  0  0  0
   -2.7210    4.4332   -2.5448 H   0  0  0  0  0  0  0  0  0  0  0  0
    2.2861    1.2269    1.8250 N   0  0  0  0  0  0  0  0  0  0  0  0
    3.2717    1.3489    2.8749 C   0  0  2  0  0  0  0  0  0  0  0  0
    3.0884    2.7085    3.5364 C   0  0  0  0  0  0  0  0  0  0  0  0
    2.5409    3.6574    2.9788 O   0  0  0  0  0  0  0  0  0  0  0  0
    4.6830    1.1956    2.3296 C   0  0  0  0  0  0  0  0  0  0  0  0
    2.5087    1.6020    0.9078 H   0  0  0  0  0  0  0  0  0  0  0  0
    3.0594    0.5570    3.6015 H   0  0  0  0  0  0  0  0  0  0  0  0
    4.9139    1.9803    1.5999 H   0  0  0  0  0  0  0  0  0  0  0  0
    5.4270    1.2598    3.1304 H   0  0  0  0  0  0  0  0  0  0  0  0
    4.8042    0.2294    1.8281 H   0  0  0  0  0  0  0  0  0  0  0  0
    3.6464    2.7504    4.8064 N   0  0  0  0  0  0  0  0  0  0  0  0
    3.6141    3.9340    5.6335 C   0  0  0  0  0  0  0  0  0  0  0  0
    4.0638    1.9107    5.1968 H   0  0  0  0  0  0  0  0  0  0  0  0
    4.5302    4.5209    5.4706 H   0  0  0  0  0  0  0  0  0  0  0  0
    2.7370    4.5426    5.3684 H   0  0  0  0  0  0  0  0  0  0  0  0
    3.5504    3.6402    6.6916 H   0  0  0  0  0  0  0  0  0  0  0  0
  1  3  1  0  0  0  0
  1  7  1  0  0  0  0
  1  2  2  0  0  0  0
 34 35  1  0  0  0  0
 35 43  1  0  0  0  0
 35 36  2  0  0  0  0
  8  9  1  0  0  0  0
  9 17  1  0  0  0  0
  9 10  2  0  0  0  0
 18 19  1  0  0  0  0
 19 33  1  0  0  0  0
 19 20  2  0  0  0  0
 22 23  1  0  0  0  0
 23 24  2  0  0  0  0
 23 25  1  0  0  0  0
 34 37  1  0  0  0  0
  8 11  1  0  0  0  0
 43 44  1  0  0  0  0
 21 22  1  0  0  0  0
 18 21  1  0  0  0  0
 33 34  1  0  0  0  0
  7  8  1  0  0  0  0
 17 18  1  0  0  0  0
  3  4  1  0  0  0  0
  3  5  1  0  0  0  0
  3  6  1  0  0  0  0
 37 40  1  0  0  0  0
 37 41  1  0  0  0  0
 37 42  1  0  0  0  0
 11 14  1  0  0  0  0
 11 15  1  0  0  0  0
 11 16  1  0  0  0  0
 44 46  1  0  0  0  0
 44 47  1  0  0  0  0
 44 48  1  0  0  0  0
 22 30  1  0  0  0  0
 22 31  1  0  0  0  0
 21 28  1  0  0  0  0
 21 29  1  0  0  0  0
 34 39  1  0  0  0  0
  8 13  1  0  0  0  0
 18 27  1  0  0  0  0
 43 45  1  0  0  0  0
  7 12  1  0  0  0  0
 33 38  1  0  0  0  0
 17 26  1  0  0  0  0
 25 32  1  0  0  0  0
M  END
$$$$

  -OEChem-05262214473D

 48 47  0     1  0  0  0  0  0999 V2000
   -5.5827   -1.3473    1.4591 C   0  0  0  0  0  0  0  0  0  0  0  0
   -5.7053   -2.4696    0.9825 O   0  0  0  0  0  0  0  0  0  0  0  0
   -6.7879   -0.6277    1.9670 C   0  0  0  0  0  0  0  0  0  0  0  0
   -7.2718   -0.0164    1.1885 H   0  0  0  0  0  0  0  0  0  0  0  0
   -7.5699   -1.3171    2.3239 H   0  0  0  0  0  0  0  0  0  0  0  0
   -6.6057    0.0628    2.8060 H   0  0  0  0  0  0  0  0  0  0  0  0
   -4.4001   -0.6377    1.5884 N   0  0  0  0  0  0  0  0  0  0  0  0
   -3.1220   -1.1455    1.1644 C   0  0  2  0  0  0  0  0  0  0  0  0
   -2.2017    0.0428    0.9187 C   0  0  0  0  0  0  0  0  0  0  0  0
   -2.6171    1.1750    0.6807 O   0  0  0  0  0  0  0  0  0  0  0  0
   -3.2533   -1.9992   -0.0873 C   0  0  0  0  0  0  0  0  0  0  0  0
   -4.4370    0.2910    2.0047 H   0  0  0  0  0  0  0  0  0  0  0  0
   -2.7302   -1.7467    1.9921 H   0  0  0  0  0  0  0  0  0  0  0  0
   -3.6446   -1.4140   -0.9275 H   0  0  0  0  0  0  0  0  0  0  0  0
   -2.2844   -2.4081   -0.3922 H   0  0  0  0  0  0  0  0  0  0  0  0
   -3.9388   -2.8365    0.0822 H   0  0  0  0  0  0  0  0  0  0  0  0
   -0.8768   -0.3314    0.9568 N   0  0  0  0  0  0  0  0  0  0  0  0
    0.2067    0.6285    0.7375 C   0  0  2  0  0  0  0  0  0  0  0  0
    1.2485    0.3565    1.8183 C   0  0  0  0  0  0  0  0  0  0  0  0
    1.1193   -0.5396    2.6500 O   0  0  0  0  0  0  0  0  0  0  0  0
   -0.3561    2.0556    0.8160 C   0  0  0  0  0  0  0  0  0  0  0  0
   -1.3155    2.3984   -0.3236 C   0  0  0  0  0  0  0  0  0  0  0  0
   -1.8642    3.7977   -0.1975 C   0  0  0  0  0  0  0  0  0  0  0  0
   -1.6719    4.5203    0.7721 O   0  0  0  0  0  0  0  0  0  0  0  0
   -2.6184    4.1664   -1.2623 O   0  0  0  0  0  0  0  0  0  0  0  0
   -0.6087   -1.2764    1.1771 H   0  0  0  0  0  0  0  0  0  0  0  0
    0.6306    0.4506   -0.2562 H   0  0  0  0  0  0  0  0  0  0  0  0
   -0.8788    2.1858    1.7730 H   0  0  0  0  0  0  0  0  0  0  0  0
    0.4632    2.7865    0.8045 H   0  0  0  0  0  0  0  0  0  0  0  0
   -0.7826    2.3515   -1.2812 H   0  0  0  0  0  0  0  0  0  0  0  0
   -2.1303    1.6716   -0.4057 H   0  0  0  0  0  0  0  0  0  0  0  0
   -3.0101    5.0641   -1.2116 H   0  0  0  0  0  0  0  0  0  0  0  0
    2.3410    1.2061    1.7252 N   0  0  0  0  0  0  0  0  0  0  0  0
    3.4658    1.1521    2.6312 C   0  0  2  0  0  0  0  0  0  0  0  0
    3.2161    2.1535    3.7511 C   0  0  0  0  0  0  0  0  0  0  0  0
    2.4583    3.1144    3.6352 O   0  0  0  0  0  0  0  0  0  0  0  0
    4.7708    1.4554    1.9117 C   0  0  0  0  0  0  0  0  0  0  0  0
    2.3510    1.9002    0.9840 H   0  0  0  0  0  0  0  0  0  0  0  0
    3.4897    0.1383    3.0455 H   0  0  0  0  0  0  0  0  0  0  0  0
    4.7655    2.4671    1.4898 H   0  0  0  0  0  0  0  0  0  0  0  0
    5.6250    1.3861    2.5932 H   0  0  0  0  0  0  0  0  0  0  0  0
    4.9341    0.7525    1.0877 H   0  0  0  0  0  0  0  0  0  0  0  0
    3.9720    1.8724    4.8806 N   0  0  0  0  0  0  0  0  0  0  0  0
    3.9217    2.6841    6.0742 C   0  0  0  0  0  0  0  0  0  0  0  0
    4.5595    1.0439    4.8953 H   0  0  0  0  0  0  0  0  0  0  0  0
    4.7086    3.4515    6.0298 H   0  0  0  0  0  0  0  0  0  0  0  0
    2.9381    3.1714    6.1449 H   0  0  0  0  0  0  0  0  0  0  0  0
    4.0799    2.0476    6.9573 H   0  0  0  0  0  0  0  0  0  0  0  0
  1  3  1  0  0  0  0
  1  7  1  0  0  0  0
  1  2  2  0  0  0  0
 34 35  1  0  0  0  0
 35 43  1  0  0  0  0
 35 36  2  0  0  0  0
  8  9  1  0  0  0  0
  9 17  1  0  0  0  0
  9 10  2  0  0  0  0
 18 19  1  0  0  0  0
 19 33  1  0  0  0  0
 19 20  2  0  0  0  0
 22 23  1  0  0  0  0
 23 24  2  0  0  0  0
 23 25  1  0  0  0  0
 34 37  1  0  0  0  0
  8 11  1  0  0  0  0
 43 44  1  0  0  0  0
 21 22  1  0  0  0  0
 18 21  1  0  0  0  0
 33 34  1  0  0  0  0
  7  8  1  0  0  0  0
 17 18  1  0  0  0  0
  3  4  1  0  0  0  0
  3  5  1  0  0  0  0
  3  6  1  0  0  0  0
 37 40  1  0  0  0  0
 37 41  1  0  0  0  0
 37 42  1  0  0  0  0
 11 14  1  0  0  0  0
 11 15  1  0  0  0  0
 11 16  1  0  0  0  0
 44 46  1  0  0  0  0
 44 47  1  0  0  0  0
 44 48  1  0  0  0  0
 22 30  1  0  0  0  0
 22 31  1  0  0  0  0
 21 28  1  0  0  0  0
 21 29  1  0  0  0  0
 34 39  1  0  0  0  0
  8 13  1  0  0  0  0
 18 27  1  0  0  0  0
 43 45  1  0  0  0  0
  7 12  1  0  0  0  0
 33 38  1  0  0  0  0
 17 26  1  0  0  0  0
 25 32  1  0  0  0  0
M  END
$$$$

  -OEChem-05262214473D

 48 47  0     1  0  0  0  0  0999 V2000
   -5.5827   -1.3473    1.4591 C   0  0  0  0  0  0  0  0  0  0  0  0
   -5.7053   -2.4696    0.9825 O   0  0  0  0  0  0  0  0  0  0  0  0
   -6.7879   -0.6277    1.9670 C   0  0  0  0  0  0  0  0  0  0  0  0
   -7.2718   -0.0164    1.1885 H   0  0  0  0  0  0  0  0  0  0  0  0
   -7.5699   -1.3171    2.3239 H   0  0  0  0  0  0  0  0  0  0  0  0
   -6.6057    0.0628    2.8060 H   0  0  0  0  0  0  0  0  0  0  0  0
   -4.4001   -0.6377    1.5884 N   0  0  0  0  0  0  0  0  0  0  0  0
   -3.1220   -1.1455    1.1644 C   0  0  2  0  0  0  0  0  0  0  0  0
   -2.2017    0.0428    0.9187 C   0  0  0  0  0  0  0  0  0  0  0  0
   -2.6171    1.1750    0.6807 O   0  0  0  0  0  0  0  0  0  0  0  0
   -3.2533   -1.9992   -0.0873 C   0  0  0  0  0  0  0  0  0  0  0  0
   -4.4370    0.2910    2.0047 H   0  0  0  0  0  0  0  0  0  0  0  0
   -2.7302   -1.7467    1.9921 H   0  0  0  0  0  0  0  0  0  0  0  0
   -3.6446   -1.4140   -0.9275 H   0  0  0  0  0  0  0  0  0  0  0  0
   -2.2844   -2.4081   -0.3922 H   0  0  0  0  0  0  0  0  0  0  0  0
   -3.9388   -2.8365    0.0822 H   0  0  0  0  0  0  0  0  0  0  0  0
   -0.8768   -0.3314    0.9568 N   0  0  0  0  0  0  0  0  0  0  0  0
    0.2067    0.6285    0.7375 C   0  0  2  0  0  0  0  0  0  0  0  0
    1.2485    0.3565    1.8183 C   0  0  0  0  0  0  0  0  0  0  0  0
    1.2650   -0.6837    2.4733 O   0  0  0  0  0  0  0  0  0  0  0  0
   -0.3561    2.0556    0.8160 C   0  0  0  0  0  0  0  0  0  0  0  0
   -1.3155    2.3984   -0.3236 C   0  0  0  0  0  0  0  0  0  0  0  0
   -1.8642    3.7977   -0.1975 C   0  0  0  0  0  0  0  0  0  0  0  0
   -1.6719    4.5203    0.7721 O   0  0  0  0  0  0  0  0  0  0  0  0
   -2.6184    4.1664   -1.2623 O   0  0  0  0  0  0  0  0  0  0  0  0
   -0.6087   -1.2764    1.1771 H   0  0  0  0  0  0  0  0  0  0  0  0
    0.6306    0.4506   -0.2562 H   0  0  0  0  0  0  0  0  0  0  0  0
   -0.8788    2.1858    1.7730 H   0  0  0  0  0  0  0  0  0  0  0  0
    0.4632    2.7865    0.8045 H   0  0  0  0  0  0  0  0  0  0  0  0
   -0.7826    2.3515   -1.2812 H   0  0  0  0  0  0  0  0  0  0  0  0
   -2.1303    1.6716   -0.4057 H   0  0  0  0  0  0  0  0  0  0  0  0
   -3.0101    5.0641   -1.2116 H   0  0  0  0  0  0  0  0  0  0  0  0
    2.1646    1.3907    1.9417 N   0  0  0  0  0  0  0  0  0  0  0  0
    3.2522    1.3760    2.8934 C   0  0  2  0  0  0  0  0  0  0  0  0
    2.7861    2.0969    4.1514 C   0  0  0  0  0  0  0  0  0  0  0  0
    1.8653    2.9113    4.1557 O   0  0  0  0  0  0  0  0  0  0  0  0
    4.4979    2.0335    2.3202 C   0  0  0  0  0  0  0  0  0  0  0  0
    2.0663    2.1979    1.3334 H   0  0  0  0  0  0  0  0  0  0  0  0
    3.4535    0.3250    3.1274 H   0  0  0  0  0  0  0  0  0  0  0  0
    4.3155    3.0872    2.0795 H   0  0  0  0  0  0  0  0  0  0  0  0
    5.3294    1.9961    3.0317 H   0  0  0  0  0  0  0  0  0  0  0  0
    4.8145    1.5322    1.3991 H   0  0  0  0  0  0  0  0  0  0  0  0
    3.5474    1.7560    5.2606 N   0  0  0  0  0  0  0  0  0  0  0  0
    3.3105    2.3159    6.5707 C   0  0  0  0  0  0  0  0  0  0  0  0
    4.2792    1.0576    5.1689 H   0  0  0  0  0  0  0  0  0  0  0  0
    3.9405    3.2070    6.7087 H   0  0  0  0  0  0  0  0  0  0  0  0
    2.2513    2.5980    6.6627 H   0  0  0  0  0  0  0  0  0  0  0  0
    3.5590    1.5688    7.3390 H   0  0  0  0  0  0  0  0  0  0  0  0
  1  3  1  0  0  0  0
  1  7  1  0  0  0  0
  1  2  2  0  0  0  0
 34 35  1  0  0  0  0
 35 43  1  0  0  0  0
 35 36  2  0  0  0  0
  8  9  1  0  0  0  0
  9 17  1  0  0  0  0
  9 10  2  0  0  0  0
 18 19  1  0  0  0  0
 19 33  1  0  0  0  0
 19 20  2  0  0  0  0
 22 23  1  0  0  0  0
 23 24  2  0  0  0  0
 23 25  1  0  0  0  0
 34 37  1  0  0  0  0
  8 11  1  0  0  0  0
 43 44  1  0  0  0  0
 21 22  1  0  0  0  0
 18 21  1  0  0  0  0
 33 34  1  0  0  0  0
  7  8  1  0  0  0  0
 17 18  1  0  0  0  0
  3  4  1  0  0  0  0
  3  5  1  0  0  0  0
  3  6  1  0  0  0  0
 37 40  1  0  0  0  0
 37 41  1  0  0  0  0
 37 42  1  0  0  0  0
 11 14  1  0  0  0  0
 11 15  1  0  0  0  0
 11 16  1  0  0  0  0
 44 46  1  0  0  0  0
 44 47  1  0  0  0  0
 44 48  1  0  0  0  0
 22 30  1  0  0  0  0
 22 31  1  0  0  0  0
 21 28  1  0  0  0  0
 21 29  1  0  0  0  0
 34 39  1  0  0  0  0
  8 13  1  0  0  0  0
 18 27  1  0  0  0  0
 43 45  1  0  0  0  0
  7 12  1  0  0  0  0
 33 38  1  0  0  0  0
 17 26  1  0  0  0  0
 25 32  1  0  0  0  0
M  END
$$$$

  -OEChem-05262214473D

 48 47  0     1  0  0  0  0  0999 V2000
   -5.5827   -1.3473    1.4591 C   0  0  0  0  0  0  0  0  0  0  0  0
   -5.7053   -2.4696    0.9825 O   0  0  0  0  0  0  0  0  0  0  0  0
   -6.7879   -0.6277    1.9670 C   0  0  0  0  0  0  0  0  0  0  0  0
   -7.2718   -0.0164    1.1885 H   0  0  0  0  0  0  0  0  0  0  0  0
   -7.5699   -1.3171    2.3239 H   0  0  0  0  0  0  0  0  0  0  0  0
   -6.6057    0.0628    2.8060 H   0  0  0  0  0  0  0  0  0  0  0  0
   -4.4001   -0.6377    1.5884 N   0  0  0  0  0  0  0  0  0  0  0  0
   -3.1220   -1.1455    1.1644 C   0  0  2  0  0  0  0  0  0  0  0  0
   -2.2017    0.0428    0.9187 C   0  0  0  0  0  0  0  0  0  0  0  0
   -2.6171    1.1750    0.6807 O   0  0  0  0  0  0  0  0  0  0  0  0
   -3.2533   -1.9992   -0.0873 C   0  0  0  0  0  0  0  0  0  0  0  0
   -4.4370    0.2910    2.0047 H   0  0  0  0  0  0  0  0  0  0  0  0
   -2.7302   -1.7467    1.9921 H   0  0  0  0  0  0  0  0  0  0  0  0
   -3.6446   -1.4140   -0.9275 H   0  0  0  0  0  0  0  0  0  0  0  0
   -2.2844   -2.4081   -0.3922 H   0  0  0  0  0  0  0  0  0  0  0  0
   -3.9388   -2.8365    0.0822 H   0  0  0  0  0  0  0  0  0  0  0  0
   -0.8768   -0.3314    0.9568 N   0  0  0  0  0  0  0  0  0  0  0  0
    0.2067    0.6285    0.7375 C   0  0  2  0  0  0  0  0  0  0  0  0
    1.2485    0.3565    1.8183 C   0  0  0  0  0  0  0  0  0  0  0  0
    1.4404   -0.7650    2.2838 O   0  0  0  0  0  0  0  0  0  0  0  0
   -0.3561    2.0556    0.8160 C   0  0  0  0  0  0  0  0  0  0  0  0
   -1.3155    2.3984   -0.3236 C   0  0  0  0  0  0  0  0  0  0  0  0
   -1.8642    3.7977   -0.1975 C   0  0  0  0  0  0  0  0  0  0  0  0
   -1.6719    4.5203    0.7721 O   0  0  0  0  0  0  0  0  0  0  0  0
   -2.6184    4.1664   -1.2623 O   0  0  0  0  0  0  0  0  0  0  0  0
   -0.6087   -1.2764    1.1771 H   0  0  0  0  0  0  0  0  0  0  0  0
    0.6306    0.4506   -0.2562 H   0  0  0  0  0  0  0  0  0  0  0  0
   -0.8788    2.1858    1.7730 H   0  0  0  0  0  0  0  0  0  0  0  0
    0.4632    2.7865    0.8045 H   0  0  0  0  0  0  0  0  0  0  0  0
   -0.7826    2.3515   -1.2812 H   0  0  0  0  0  0  0  0  0  0  0  0
   -2.1303    1.6716   -0.4057 H   0  0  0  0  0  0  0  0  0  0  0  0
   -3.0101    5.0641   -1.2116 H   0  0  0  0  0  0  0  0  0  0  0  0
    1.9504    1.4984    2.1753 N   0  0  0  0  0  0  0  0  0  0  0  0
    2.9927    1.5068    3.1764 C   0  0  2  0  0  0  0  0  0  0  0  0
    2.3626    1.8926    4.5082 C   0  0  0  0  0  0  0  0  0  0  0  0
    1.3057    2.5144    4.5951 O   0  0  0  0  0  0  0  0  0  0  0  0
    4.1095    2.4696    2.8043 C   0  0  0  0  0  0  0  0  0  0  0  0
    1.7205    2.3715    1.7104 H   0  0  0  0  0  0  0  0  0  0  0  0
    3.3805    0.4842    3.2378 H   0  0  0  0  0  0  0  0  0  0  0  0
    3.7400    3.4995    2.7380 H   0  0  0  0  0  0  0  0  0  0  0  0
    4.9118    2.4537    3.5494 H   0  0  0  0  0  0  0  0  0  0  0  0
    4.5416    2.2084    1.8323 H   0  0  0  0  0  0  0  0  0  0  0  0
    3.1411    1.4986    5.5875 N   0  0  0  0  0  0  0  0  0  0  0  0
    2.7647    1.7604    6.9571 C   0  0  0  0  0  0  0  0  0  0  0  0
    3.9932    0.9710    5.4227 H   0  0  0  0  0  0  0  0  0  0  0  0
    3.2120    2.7100    7.2858 H   0  0  0  0  0  0  0  0  0  0  0  0
    1.6691    1.8267    7.0298 H   0  0  0  0  0  0  0  0  0  0  0  0
    3.1259    0.9434    7.5990 H   0  0  0  0  0  0  0  0  0  0  0  0
  1  3  1  0  0  0  0
  1  7  1  0  0  0  0
  1  2  2  0  0  0  0
 34 35  1  0  0  0  0
 35 43  1  0  0  0  0
 35 36  2  0  0  0  0
  8  9  1  0  0  0  0
  9 17  1  0  0  0  0
  9 10  2  0  0  0  0
 18 19  1  0  0  0  0
 19 33  1  0  0  0  0
 19 20  2  0  0  0  0
 22 23  1  0  0  0  0
 23 24  2  0  0  0  0
 23 25  1  0  0  0  0
 34 37  1  0  0  0  0
  8 11  1  0  0  0  0
 43 44  1  0  0  0  0
 21 22  1  0  0  0  0
 18 21  1  0  0  0  0
 33 34  1  0  0  0  0
  7  8  1  0  0  0  0
 17 18  1  0  0  0  0
  3  4  1  0  0  0  0
  3  5  1  0  0  0  0
  3  6  1  0  0  0  0
 37 40  1  0  0  0  0
 37 41  1  0  0  0  0
 37 42  1  0  0  0  0
 11 14  1  0  0  0  0
 11 15  1  0  0  0  0
 11 16  1  0  0  0  0
 44 46  1  0  0  0  0
 44 47  1  0  0  0  0
 44 48  1  0  0  0  0
 22 30  1  0  0  0  0
 22 31  1  0  0  0  0
 21 28  1  0  0  0  0
 21 29  1  0  0  0  0
 34 39  1  0  0  0  0
  8 13  1  0  0  0  0
 18 27  1  0  0  0  0
 43 45  1  0  0  0  0
  7 12  1  0  0  0  0
 33 38  1  0  0  0  0
 17 26  1  0  0  0  0
 25 32  1  0  0  0  0
M  END
$$$$

  -OEChem-05262214473D

 48 47  0     1  0  0  0  0  0999 V2000
   -5.5827   -1.3473    1.4591 C   0  0  0  0  0  0  0  0  0  0  0  0
   -5.7053   -2.4696    0.9825 O   0  0  0  0  0  0  0  0  0  0  0  0
   -6.7879   -0.6277    1.9670 C   0  0  0  0  0  0  0  0  0  0  0  0
   -7.2718   -0.0164    1.1885 H   0  0  0  0  0  0  0  0  0  0  0  0
   -7.5699   -1.3171    2.3239 H   0  0  0  0  0  0  0  0  0  0  0  0
   -6.6057    0.0628    2.8060 H   0  0  0  0  0  0  0  0  0  0  0  0
   -4.4001   -0.6377    1.5884 N   0  0  0  0  0  0  0  0  0  0  0  0
   -3.1220   -1.1455    1.1644 C   0  0  2  0  0  0  0  0  0  0  0  0
   -2.2017    0.0428    0.9187 C   0  0  0  0  0  0  0  0  0  0  0  0
   -2.6171    1.1750    0.6807 O   0  0  0  0  0  0  0  0  0  0  0  0
   -3.2533   -1.9992   -0.0873 C   0  0  0  0  0  0  0  0  0  0  0  0
   -4.4370    0.2910    2.0047 H   0  0  0  0  0  0  0  0  0  0  0  0
   -2.7302   -1.7467    1.9921 H   0  0  0  0  0  0  0  0  0  0  0  0
   -3.6446   -1.4140   -0.9275 H   0  0  0  0  0  0  0  0  0  0  0  0
   -2.2844   -2.4081   -0.3922 H   0  0  0  0  0  0  0  0  0  0  0  0
   -3.9388   -2.8365    0.0822 H   0  0  0  0  0  0  0  0  0  0  0  0
   -0.8768   -0.3314    0.9568 N   0  0  0  0  0  0  0  0  0  0  0  0
    0.2067    0.6285    0.7375 C   0  0  2  0  0  0  0  0  0  0  0  0
    1.2485    0.3565    1.8183 C   0  0  0  0  0  0  0  0  0  0  0  0
    1.6334   -0.7779    2.0946 O   0  0  0  0  0  0  0  0  0  0  0  0
   -0.3561    2.0556    0.8160 C   0  0  0  0  0  0  0  0  0  0  0  0
   -1.3155    2.3984   -0.3236 C   0  0  0  0  0  0  0  0  0  0  0  0
   -1.8642    3.7977   -0.1975 C   0  0  0  0  0  0  0  0  0  0  0  0
   -1.6719    4.5203    0.7721 O   0  0  0  0  0  0  0  0  0  0  0  0
   -2.6184    4.1664   -1.2623 O   0  0  0  0  0  0  0  0  0  0  0  0
   -0.6087   -1.2764    1.1771 H   0  0  0  0  0  0  0  0  0  0  0  0
    0.6306    0.4506   -0.2562 H   0  0  0  0  0  0  0  0  0  0  0  0
   -0.8788    2.1858    1.7730 H   0  0  0  0  0  0  0  0  0  0  0  0
    0.4632    2.7865    0.8045 H   0  0  0  0  0  0  0  0  0  0  0  0
   -0.7826    2.3515   -1.2812 H   0  0  0  0  0  0  0  0  0  0  0  0
   -2.1303    1.6716   -0.4057 H   0  0  0  0  0  0  0  0  0  0  0  0
   -3.0101    5.0641   -1.2116 H   0  0  0  0  0  0  0  0  0  0  0  0
    1.7129    1.5219    2.4101 N   0  0  0  0  0  0  0  0  0  0  0  0
    2.7050    1.5356    3.4610 C   0  0  2  0  0  0  0  0  0  0  0  0
    1.9745    1.5546    4.7972 C   0  0  0  0  0  0  0  0  0  0  0  0
    0.8177    1.9507    4.9237 O   0  0  0  0  0  0  0  0  0  0  0  0
    3.6320    2.7341    3.3312 C   0  0  0  0  0  0  0  0  0  0  0  0
    1.3373    2.4092    2.0892 H   0  0  0  0  0  0  0  0  0  0  0  0
    3.2757    0.6050    3.3693 H   0  0  0  0  0  0  0  0  0  0  0  0
    3.0781    3.6758    3.4204 H   0  0  0  0  0  0  0  0  0  0  0  0
    4.4006    2.7276    4.1111 H   0  0  0  0  0  0  0  0  0  0  0  0
    4.1341    2.7349    2.3576 H   0  0  0  0  0  0  0  0  0  0  0  0
    2.7807    1.1177    5.8390 N   0  0  0  0  0  0  0  0  0  0  0  0
    2.3215    1.0554    7.2069 C   0  0  0  0  0  0  0  0  0  0  0  0
    3.7212    0.7900    5.6394 H   0  0  0  0  0  0  0  0  0  0  0  0
    2.5729    1.9944    7.7218 H   0  0  0  0  0  0  0  0  0  0  0  0
    1.2312    0.9101    7.2212 H   0  0  0  0  0  0  0  0  0  0  0  0
    2.8103    0.2139    7.7197 H   0  0  0  0  0  0  0  0  0  0  0  0
  1  3  1  0  0  0  0
  1  7  1  0  0  0  0
  1  2  2  0  0  0  0
 34 35  1  0  0  0  0
 35 43  1  0  0  0  0
 35 36  2  0  0  0  0
  8  9  1  0  0  0  0
  9 17  1  0  0  0  0
  9 10  2  0  0  0  0
 18 19  1  0  0  0  0
 19 33  1  0  0  0  0
 19 20  2  0  0  0  0
 22 23  1  0  0  0  0
 23 24  2  0  0  0  0
 23 25  1  0  0  0  0
 34 37  1  0  0  0  0
  8 11  1  0  0  0  0
 43 44  1  0  0  0  0
 21 22  1  0  0  0  0
 18 21  1  0  0  0  0
 33 34  1  0  0  0  0
  7  8  1  0  0  0  0
 17 18  1  0  0  0  0
  3  4  1  0  0  0  0
  3  5  1  0  0  0  0
  3  6  1  0  0  0  0
 37 40  1  0  0  0  0
 37 41  1  0  0  0  0
 37 42  1  0  0  0  0
 11 14  1  0  0  0  0
 11 15  1  0  0  0  0
 11 16  1  0  0  0  0
 44 46  1  0  0  0  0
 44 47  1  0  0  0  0
 44 48  1  0  0  0  0
 22 30  1  0  0  0  0
 22 31  1  0  0  0  0
 21 28  1  0  0  0  0
 21 29  1  0  0  0  0
 34 39  1  0  0  0  0
  8 13  1  0  0  0  0
 18 27  1  0  0  0  0
 43 45  1  0  0  0  0
  7 12  1  0  0  0  0
 33 38  1  0  0  0  0
 17 26  1  0  0  0  0
 25 32  1  0  0  0  0
M  END
$$$$

  -OEChem-05262214473D

 48 47  0     1  0  0  0  0  0999 V2000
   -5.5827   -1.3473    1.4591 C   0  0  0  0  0  0  0  0  0  0  0  0
   -5.7053   -2.4696    0.9825 O   0  0  0  0  0  0  0  0  0  0  0  0
   -6.7879   -0.6277    1.9670 C   0  0  0  0  0  0  0  0  0  0  0  0
   -7.2718   -0.0164    1.1885 H   0  0  0  0  0  0  0  0  0  0  0  0
   -7.5699   -1.3171    2.3239 H   0  0  0  0  0  0  0  0  0  0  0  0
   -6.6057    0.0628    2.8060 H   0  0  0  0  0  0  0  0  0  0  0  0
   -4.4001   -0.6377    1.5884 N   0  0  0  0  0  0  0  0  0  0  0  0
   -3.1220   -1.1455    1.1644 C   0  0  2  0  0  0  0  0  0  0  0  0
   -2.2017    0.0428    0.9187 C   0  0  0  0  0  0  0  0  0  0  0  0
   -2.6171    1.1750    0.6807 O   0  0  0  0  0  0  0  0  0  0  0  0
   -3.2533   -1.9992   -0.0873 C   0  0  0  0  0  0  0  0  0  0  0  0
   -4.4370    0.2910    2.0047 H   0  0  0  0  0  0  0  0  0  0  0  0
   -2.7302   -1.7467    1.9921 H   0  0  0  0  0  0  0  0  0  0  0  0
   -3.6446   -1.4140   -0.9275 H   0  0  0  0  0  0  0  0  0  0  0  0
   -2.2844   -2.4081   -0.3922 H   0  0  0  0  0  0  0  0  0  0  0  0
   -3.9388   -2.8365    0.0822 H   0  0  0  0  0  0  0  0  0  0  0  0
   -0.8768   -0.3314    0.9568 N   0  0  0  0  0  0  0  0  0  0  0  0
    0.2067    0.6285    0.7375 C   0  0  2  0  0  0  0  0  0  0  0  0
    1.2485    0.3565    1.8183 C   0  0  0  0  0  0  0  0  0  0  0  0
    1.8309   -0.7215    1.9183 O   0  0  0  0  0  0  0  0  0  0  0  0
   -0.3561    2.0556    0.8160 C   0  0  0  0  0  0  0  0  0  0  0  0
   -1.3155    2.3984   -0.3236 C   0  0  0  0  0  0  0  0  0  0  0  0
   -1.8642    3.7977   -0.1975 C   0  0  0  0  0  0  0  0  0  0  0  0
   -1.6719    4.5203    0.7721 O   0  0  0  0  0  0  0  0  0  0  0  0
   -2.6184    4.1664   -1.2623 O   0  0  0  0  0  0  0  0  0  0  0  0
   -0.6087   -1.2764    1.1771 H   0  0  0  0  0  0  0  0  0  0  0  0
    0.6306    0.4506   -0.2562 H   0  0  0  0  0  0  0  0  0  0  0  0
   -0.8788    2.1858    1.7730 H   0  0  0  0  0  0  0  0  0  0  0  0
    0.4632    2.7865    0.8045 H   0  0  0  0  0  0  0  0  0  0  0  0
   -0.7826    2.3515   -1.2812 H   0  0  0  0  0  0  0  0  0  0  0  0
   -2.1303    1.6716   -0.4057 H   0  0  0  0  0  0  0  0  0  0  0  0
   -3.0101    5.0641   -1.2116 H   0  0  0  0  0  0  0  0  0  0  0  0
    1.4684    1.4595    2.6301 N   0  0  0  0  0  0  0  0  0  0  0  0
    2.4087    1.4603    3.7276 C   0  0  2  0  0  0  0  0  0  0  0  0
    1.6483    1.1059    4.9987 C   0  0  0  0  0  0  0  0  0  0  0  0
    0.4346    1.2587    5.1189 O   0  0  0  0  0  0  0  0  0  0  0  0
    3.0980    2.8090    3.8647 C   0  0  0  0  0  0  0  0  0  0  0  0
    0.9428    2.3083    2.4441 H   0  0  0  0  0  0  0  0  0  0  0  0
    3.1462    0.6793    3.5127 H   0  0  0  0  0  0  0  0  0  0  0  0
    2.3749    3.6041    4.0802 H   0  0  0  0  0  0  0  0  0  0  0  0
    3.8307    2.7992    4.6784 H   0  0  0  0  0  0  0  0  0  0  0  0
    3.6196    3.0759    2.9393 H   0  0  0  0  0  0  0  0  0  0  0  0
    2.4909    0.6393    5.9980 N   0  0  0  0  0  0  0  0  0  0  0  0
    2.0111    0.2491    7.3031 C   0  0  0  0  0  0  0  0  0  0  0  0
    3.4817    0.5271    5.8041 H   0  0  0  0  0  0  0  0  0  0  0  0
    2.0666    1.1089    7.9870 H   0  0  0  0  0  0  0  0  0  0  0  0
    0.9675   -0.0894    7.2239 H   0  0  0  0  0  0  0  0  0  0  0  0
    2.6336   -0.5699    7.6927 H   0  0  0  0  0  0  0  0  0  0  0  0
  1  3  1  0  0  0  0
  1  7  1  0  0  0  0
  1  2  2  0  0  0  0
 34 35  1  0  0  0  0
 35 43  1  0  0  0  0
 35 36  2  0  0  0  0
  8  9  1  0  0  0  0
  9 17  1  0  0  0  0
  9 10  2  0  0  0  0
 18 19  1  0  0  0  0
 19 33  1  0  0  0  0
 19 20  2  0  0  0  0
 22 23  1  0  0  0  0
 23 24  2  0  0  0  0
 23 25  1  0  0  0  0
 34 37  1  0  0  0  0
  8 11  1  0  0  0  0
 43 44  1  0  0  0  0
 21 22  1  0  0  0  0
 18 21  1  0  0  0  0
 33 34  1  0  0  0  0
  7  8  1  0  0  0  0
 17 18  1  0  0  0  0
  3  4  1  0  0  0  0
  3  5  1  0  0  0  0
  3  6  1  0  0  0  0
 37 40  1  0  0  0  0
 37 41  1  0  0  0  0
 37 42  1  0  0  0  0
 11 14  1  0  0  0  0
 11 15  1  0  0  0  0
 11 16  1  0  0  0  0
 44 46  1  0  0  0  0
 44 47  1  0  0  0  0
 44 48  1  0  0  0  0
 22 30  1  0  0  0  0
 22 31  1  0  0  0  0
 21 28  1  0  0  0  0
 21 29  1  0  0  0  0
 34 39  1  0  0  0  0
  8 13  1  0  0  0  0
 18 27  1  0  0  0  0
 43 45  1  0  0  0  0
  7 12  1  0  0  0  0
 33 38  1  0  0  0  0
 17 26  1  0  0  0  0
 25 32  1  0  0  0  0
M  END
$$$$

  -OEChem-05262214473D

 48 47  0     1  0  0  0  0  0999 V2000
   -5.5827   -1.3473    1.4591 C   0  0  0  0  0  0  0  0  0  0  0  0
   -5.7053   -2.4696    0.9825 O   0  0  0  0  0  0  0  0  0  0  0  0
   -6.7879   -0.6277    1.9670 C   0  0  0  0  0  0  0  0  0  0  0  0
   -7.2718   -0.0164    1.1885 H   0  0  0  0  0  0  0  0  0  0  0  0
   -7.5699   -1.3171    2.3239 H   0  0  0  0  0  0  0  0  0  0  0  0
   -6.6057    0.0628    2.8060 H   0  0  0  0  0  0  0  0  0  0  0  0
   -4.4001   -0.6377    1.5884 N   0  0  0  0  0  0  0  0  0  0  0  0
   -3.1220   -1.1455    1.1644 C   0  0  2  0  0  0  0  0  0  0  0  0
   -2.2017    0.0428    0.9187 C   0  0  0  0  0  0  0  0  0  0  0  0
   -2.6171    1.1750    0.6807 O   0  0  0  0  0  0  0  0  0  0  0  0
   -3.2533   -1.9992   -0.0873 C   0  0  0  0  0  0  0  0  0  0  0  0
   -4.4370    0.2910    2.0047 H   0  0  0  0  0  0  0  0  0  0  0  0
   -2.7302   -1.7467    1.9921 H   0  0  0  0  0  0  0  0  0  0  0  0
   -3.6446   -1.4140   -0.9275 H   0  0  0  0  0  0  0  0  0  0  0  0
   -2.2844   -2.4081   -0.3922 H   0  0  0  0  0  0  0  0  0  0  0  0
   -3.9388   -2.8365    0.0822 H   0  0  0  0  0  0  0  0  0  0  0  0
   -0.8768   -0.3314    0.9568 N   0  0  0  0  0  0  0  0  0  0  0  0
    0.2067    0.6285    0.7375 C   0  0  2  0  0  0  0  0  0  0  0  0
    1.2485    0.3565    1.8183 C   0  0  0  0  0  0  0  0  0  0  0  0
    2.0195   -0.5997    1.7672 O   0  0  0  0  0  0  0  0  0  0  0  0
   -0.3561    2.0556    0.8160 C   0  0  0  0  0  0  0  0  0  0  0  0
   -1.3155    2.3984   -0.3236 C   0  0  0  0  0  0  0  0  0  0  0  0
   -1.8642    3.7977   -0.1975 C   0  0  0  0  0  0  0  0  0  0  0  0
   -1.6719    4.5203    0.7721 O   0  0  0  0  0  0  0  0  0  0  0  0
   -2.6184    4.1664   -1.2623 O   0  0  0  0  0  0  0  0  0  0  0  0
   -0.6087   -1.2764    1.1771 H   0  0  0  0  0  0  0  0  0  0  0  0
    0.6306    0.4506   -0.2562 H   0  0  0  0  0  0  0  0  0  0  0  0
   -0.8788    2.1858    1.7730 H   0  0  0  0  0  0  0  0  0  0  0  0
    0.4632    2.7865    0.8045 H   0  0  0  0  0  0  0  0  0  0  0  0
   -0.7826    2.3515   -1.2812 H   0  0  0  0  0  0  0  0  0  0  0  0
   -2.1303    1.6716   -0.4057 H   0  0  0  0  0  0  0  0  0  0  0  0
   -3.0101    5.0641   -1.2116 H   0  0  0  0  0  0  0  0  0  0  0  0
    1.2335    1.3156    2.8203 N   0  0  0  0  0  0  0  0  0  0  0  0
    2.1241    1.2862    3.9582 C   0  0  2  0  0  0  0  0  0  0  0  0
    1.4062    0.5770    5.0990 C   0  0  0  0  0  0  0  0  0  0  0  0
    0.1823    0.4855    5.1675 O   0  0  0  0  0  0  0  0  0  0  0  0
    2.5438    2.6890    4.3687 C   0  0  0  0  0  0  0  0  0  0  0  0
    0.5638    2.0758    2.7509 H   0  0  0  0  0  0  0  0  0  0  0  0
    3.0010    0.7020    3.6585 H   0  0  0  0  0  0  0  0  0  0  0  0
    1.6784    3.2893    4.6723 H   0  0  0  0  0  0  0  0  0  0  0  0
    3.2409    2.6635    5.2128 H   0  0  0  0  0  0  0  0  0  0  0  0
    3.0334    3.2082    3.5377 H   0  0  0  0  0  0  0  0  0  0  0  0
    2.2914    0.0959    6.0536 N   0  0  0  0  0  0  0  0  0  0  0  0
    1.8547   -0.6037    7.2393 C   0  0  0  0  0  0  0  0  0  0  0  0
    3.2909    0.2000    5.9058 H   0  0  0  0  0  0  0  0  0  0  0  0
    1.7277    0.1139    8.0632 H   0  0  0  0  0  0  0  0  0  0  0  0
    0.8959   -1.1037    7.0376 H   0  0  0  0  0  0  0  0  0  0  0  0
    2.6079   -1.3546    7.5200 H   0  0  0  0  0  0  0  0  0  0  0  0
  1  3  1  0  0  0  0
  1  7  1  0  0  0  0
  1  2  2  0  0  0  0
 34 35  1  0  0  0  0
 35 43  1  0  0  0  0
 35 36  2  0  0  0  0
  8  9  1  0  0  0  0
  9 17  1  0  0  0  0
  9 10  2  0  0  0  0
 18 19  1  0  0  0  0
 19 33  1  0  0  0  0
 19 20  2  0  0  0  0
 22 23  1  0  0  0  0
 23 24  2  0  0  0  0
 23 25  1  0  0  0  0
 34 37  1  0  0  0  0
  8 11  1  0  0  0  0
 43 44  1  0  0  0  0
 21 22  1  0  0  0  0
 18 21  1  0  0  0  0
 33 34  1  0  0  0  0
  7  8  1  0  0  0  0
 17 18  1  0  0  0  0
  3  4  1  0  0  0  0
  3  5  1  0  0  0  0
  3  6  1  0  0  0  0
 37 40  1  0  0  0  0
 37 41  1  0  0  0  0
 37 42  1  0  0  0  0
 11 14  1  0  0  0  0
 11 15  1  0  0  0  0
 11 16  1  0  0  0  0
 44 46  1  0  0  0  0
 44 47  1  0  0  0  0
 44 48  1  0  0  0  0
 22 30  1  0  0  0  0
 22 31  1  0  0  0  0
 21 28  1  0  0  0  0
 21 29  1  0  0  0  0
 34 39  1  0  0  0  0
  8 13  1  0  0  0  0
 18 27  1  0  0  0  0
 43 45  1  0  0  0  0
  7 12  1  0  0  0  0
 33 38  1  0  0  0  0
 17 26  1  0  0  0  0
 25 32  1  0  0  0  0
M  END
$$$$

  -OEChem-05262214473D

 48 47  0     1  0  0  0  0  0999 V2000
   -5.5827   -1.3473    1.4591 C   0  0  0  0  0  0  0  0  0  0  0  0
   -5.7053   -2.4696    0.9825 O   0  0  0  0  0  0  0  0  0  0  0  0
   -6.7879   -0.6277    1.9670 C   0  0  0  0  0  0  0  0  0  0  0  0
   -7.2718   -0.0164    1.1885 H   0  0  0  0  0  0  0  0  0  0  0  0
   -7.5699   -1.3171    2.3239 H   0  0  0  0  0  0  0  0  0  0  0  0
   -6.6057    0.0628    2.8060 H   0  0  0  0  0  0  0  0  0  0  0  0
   -4.4001   -0.6377    1.5884 N   0  0  0  0  0  0  0  0  0  0  0  0
   -3.1220   -1.1455    1.1644 C   0  0  2  0  0  0  0  0  0  0  0  0
   -2.2017    0.0428    0.9187 C   0  0  0  0  0  0  0  0  0  0  0  0
   -2.6171    1.1750    0.6807 O   0  0  0  0  0  0  0  0  0  0  0  0
   -3.2533   -1.9992   -0.0873 C   0  0  0  0  0  0  0  0  0  0  0  0
   -4.4370    0.2910    2.0047 H   0  0  0  0  0  0  0  0  0  0  0  0
   -2.7302   -1.7467    1.9921 H   0  0  0  0  0  0  0  0  0  0  0  0
   -3.6446   -1.4140   -0.9275 H   0  0  0  0  0  0  0  0  0  0  0  0
   -2.2844   -2.4081   -0.3922 H   0  0  0  0  0  0  0  0  0  0  0  0
   -3.9388   -2.8365    0.0822 H   0  0  0  0  0  0  0  0  0  0  0  0
   -0.8768   -0.3314    0.9568 N   0  0  0  0  0  0  0  0  0  0  0  0
    0.2067    0.6285    0.7375 C   0  0  2  0  0  0  0  0  0  0  0  0
    1.2485    0.3565    1.8183 C   0  0  0  0  0  0  0  0  0  0  0  0
    2.1863   -0.4207    1.6515 O   0  0  0  0  0  0  0  0  0  0  0  0
   -0.3561    2.0556    0.8160 C   0  0  0  0  0  0  0  0  0  0  0  0
   -1.3155    2.3984   -0.3236 C   0  0  0  0  0  0  0  0  0  0  0  0
   -1.8642    3.7977   -0.1975 C   0  0  0  0  0  0  0  0  0  0  0  0
   -1.6719    4.5203    0.7721 O   0  0  0  0  0  0  0  0  0  0  0  0
   -2.6184    4.1664   -1.2623 O   0  0  0  0  0  0  0  0  0  0  0  0
   -0.6087   -1.2764    1.1771 H   0  0  0  0  0  0  0  0  0  0  0  0
    0.6306    0.4506   -0.2562 H   0  0  0  0  0  0  0  0  0  0  0  0
   -0.8788    2.1858    1.7730 H   0  0  0  0  0  0  0  0  0  0  0  0
    0.4632    2.7865    0.8045 H   0  0  0  0  0  0  0  0  0  0  0  0
   -0.7826    2.3515   -1.2812 H   0  0  0  0  0  0  0  0  0  0  0  0
   -2.1303    1.6716   -0.4057 H   0  0  0  0  0  0  0  0  0  0  0  0
   -3.0101    5.0641   -1.2116 H   0  0  0  0  0  0  0  0  0  0  0  0
    1.0243    1.0998    2.9677 N   0  0  0  0  0  0  0  0  0  0  0  0
    1.8704    1.0250    4.1370 C   0  0  2  0  0  0  0  0  0  0  0  0
    1.2647    0.0041    5.0912 C   0  0  0  0  0  0  0  0  0  0  0  0
    0.0782   -0.3162    5.0661 O   0  0  0  0  0  0  0  0  0  0  0  0
    2.0073    2.3825    4.8088 C   0  0  0  0  0  0  0  0  0  0  0  0
    0.2262    1.7276    2.9887 H   0  0  0  0  0  0  0  0  0  0  0  0
    2.8497    0.6715    3.7966 H   0  0  0  0  0  0  0  0  0  0  0  0
    1.0360    2.7529    5.1565 H   0  0  0  0  0  0  0  0  0  0  0  0
    2.6714    2.3299    5.6778 H   0  0  0  0  0  0  0  0  0  0  0  0
    2.4152    3.1227    4.1120 H   0  0  0  0  0  0  0  0  0  0  0  0
    2.1957   -0.4754    6.0021 N   0  0  0  0  0  0  0  0  0  0  0  0
    1.8630   -1.4448    7.0196 C   0  0  0  0  0  0  0  0  0  0  0  0
    3.1619   -0.1688    5.9373 H   0  0  0  0  0  0  0  0  0  0  0  0
    1.5793   -0.9228    7.9454 H   0  0  0  0  0  0  0  0  0  0  0  0
    1.0214   -2.0637    6.6751 H   0  0  0  0  0  0  0  0  0  0  0  0
    2.7350   -2.0868    7.2133 H   0  0  0  0  0  0  0  0  0  0  0  0
  1  3  1  0  0  0  0
  1  7  1  0  0  0  0
  1  2  2  0  0  0  0
 34 35  1  0  0  0  0
 35 43  1  0  0  0  0
 35 36  2  0  0  0  0
  8  9  1  0  0  0  0
  9 17  1  0  0  0  0
  9 10  2  0  0  0  0
 18 19  1  0  0  0  0
 19 33  1  0  0  0  0
 19 20  2  0  0  0  0
 22 23  1  0  0  0  0
 23 24  2  0  0  0  0
 23 25  1  0  0  0  0
 34 37  1  0  0  0  0
  8 11  1  0  0  0  0
 43 44  1  0  0  0  0
 21 22  1  0  0  0  0
 18 21  1  0  0  0  0
 33 34  1  0  0  0  0
  7  8  1  0  0  0  0
 17 18  1  0  0  0  0
  3  4  1  0  0  0  0
  3  5  1  0  0  0  0
  3  6  1  0  0  0  0
 37 40  1  0  0  0  0
 37 41  1  0  0  0  0
 37 42  1  0  0  0  0
 11 14  1  0  0  0  0
 11 15  1  0  0  0  0
 11 16  1  0  0  0  0
 44 46  1  0  0  0  0
 44 47  1  0  0  0  0
 44 48  1  0  0  0  0
 22 30  1  0  0  0  0
 22 31  1  0  0  0  0
 21 28  1  0  0  0  0
 21 29  1  0  0  0  0
 34 39  1  0  0  0  0
  8 13  1  0  0  0  0
 18 27  1  0  0  0  0
 43 45  1  0  0  0  0
  7 12  1  0  0  0  0
 33 38  1  0  0  0  0
 17 26  1  0  0  0  0
 25 32  1  0  0  0  0
M  END
$$$$

  -OEChem-05262214473D

 48 47  0     1  0  0  0  0  0999 V2000
   -5.5827   -1.3473    1.4591 C   0  0  0  0  0  0  0  0  0  0  0  0
   -5.7053   -2.4696    0.9825 O   0  0  0  0  0  0  0  0  0  0  0  0
   -6.7879   -0.6277    1.9670 C   0  0  0  0  0  0  0  0  0  0  0  0
   -7.2718   -0.0164    1.1885 H   0  0  0  0  0  0  0  0  0  0  0  0
   -7.5699   -1.3171    2.3239 H   0  0  0  0  0  0  0  0  0  0  0  0
   -6.6057    0.0628    2.8060 H   0  0  0  0  0  0  0  0  0  0  0  0
   -4.4001   -0.6377    1.5884 N   0  0  0  0  0  0  0  0  0  0  0  0
   -3.1220   -1.1455    1.1644 C   0  0  2  0  0  0  0  0  0  0  0  0
   -2.2017    0.0428    0.9187 C   0  0  0  0  0  0  0  0  0  0  0  0
   -2.6171    1.1750    0.6807 O   0  0  0  0  0  0  0  0  0  0  0  0
   -3.2533   -1.9992   -0.0873 C   0  0  0  0  0  0  0  0  0  0  0  0
   -4.4370    0.2910    2.0047 H   0  0  0  0  0  0  0  0  0  0  0  0
   -2.7302   -1.7467    1.9921 H   0  0  0  0  0  0  0  0  0  0  0  0
   -3.6446   -1.4140   -0.9275 H   0  0  0  0  0  0  0  0  0  0  0  0
   -2.2844   -2.4081   -0.3922 H   0  0  0  0  0  0  0  0  0  0  0  0
   -3.9388   -2.8365    0.0822 H   0  0  0  0  0  0  0  0  0  0  0  0
   -0.8768   -0.3314    0.9568 N   0  0  0  0  0  0  0  0  0  0  0  0
    0.2067    0.6285    0.7375 C   0  0  2  0  0  0  0  0  0  0  0  0
    1.2485    0.3565    1.8183 C   0  0  0  0  0  0  0  0  0  0  0  0
    2.3199   -0.1968    1.5790 O   0  0  0  0  0  0  0  0  0  0  0  0
   -0.3561    2.0556    0.8160 C   0  0  0  0  0  0  0  0  0  0  0  0
   -1.3155    2.3984   -0.3236 C   0  0  0  0  0  0  0  0  0  0  0  0
   -1.8642    3.7977   -0.1975 C   0  0  0  0  0  0  0  0  0  0  0  0
   -1.6719    4.5203    0.7721 O   0  0  0  0  0  0  0  0  0  0  0  0
   -2.6184    4.1664   -1.2623 O   0  0  0  0  0  0  0  0  0  0  0  0
   -0.6087   -1.2764    1.1771 H   0  0  0  0  0  0  0  0  0  0  0  0
    0.6306    0.4506   -0.2562 H   0  0  0  0  0  0  0  0  0  0  0  0
   -0.8788    2.1858    1.7730 H   0  0  0  0  0  0  0  0  0  0  0  0
    0.4632    2.7865    0.8045 H   0  0  0  0  0  0  0  0  0  0  0  0
   -0.7826    2.3515   -1.2812 H   0  0  0  0  0  0  0  0  0  0  0  0
   -2.1303    1.6716   -0.4057 H   0  0  0  0  0  0  0  0  0  0  0  0
   -3.0101    5.0641   -1.2116 H   0  0  0  0  0  0  0  0  0  0  0  0
    0.8549    0.8270    3.0624 N   0  0  0  0  0  0  0  0  0  0  0  0
    1.6650    0.6946    4.2519 C   0  0  2  0  0  0  0  0  0  0  0  0
    1.2335   -0.5739    4.9759 C   0  0  0  0  0  0  0  0  0  0  0  0
    0.1293   -1.0917    4.8217 O   0  0  0  0  0  0  0  0  0  0  0  0
    1.5249    1.9102    5.1549 C   0  0  0  0  0  0  0  0  0  0  0  0
   -0.0470    1.2872    3.1412 H   0  0  0  0  0  0  0  0  0  0  0  0
    2.7029    0.5899    3.9176 H   0  0  0  0  0  0  0  0  0  0  0  0
    0.4916    2.0314    5.4998 H   0  0  0  0  0  0  0  0  0  0  0  0
    2.1610    1.8211    6.0417 H   0  0  0  0  0  0  0  0  0  0  0  0
    1.8073    2.8253    4.6232 H   0  0  0  0  0  0  0  0  0  0  0  0
    2.2103   -1.0356    5.8469 N   0  0  0  0  0  0  0  0  0  0  0  0
    2.0353   -2.2170    6.6592 C   0  0  0  0  0  0  0  0  0  0  0  0
    3.1034   -0.5543    5.8966 H   0  0  0  0  0  0  0  0  0  0  0  0
    1.6315   -1.9306    7.6415 H   0  0  0  0  0  0  0  0  0  0  0  0
    1.3353   -2.9038    6.1612 H   0  0  0  0  0  0  0  0  0  0  0  0
    3.0061   -2.7166    6.7935 H   0  0  0  0  0  0  0  0  0  0  0  0
  1  3  1  0  0  0  0
  1  7  1  0  0  0  0
  1  2  2  0  0  0  0
 34 35  1  0  0  0  0
 35 43  1  0  0  0  0
 35 36  2  0  0  0  0
  8  9  1  0  0  0  0
  9 17  1  0  0  0  0
  9 10  2  0  0  0  0
 18 19  1  0  0  0  0
 19 33  1  0  0  0  0
 19 20  2  0  0  0  0
 22 23  1  0  0  0  0
 23 24  2  0  0  0  0
 23 25  1  0  0  0  0
 34 37  1  0  0  0  0
  8 11  1  0  0  0  0
 43 44  1  0  0  0  0
 21 22  1  0  0  0  0
 18 21  1  0  0  0  0
 33 34  1  0  0  0  0
  7  8  1  0  0  0  0
 17 18  1  0  0  0  0
  3  4  1  0  0  0  0
  3  5  1  0  0  0  0
  3  6  1  0  0  0  0
 37 40  1  0  0  0  0
 37 41  1  0  0  0  0
 37 42  1  0  0  0  0
 11 14  1  0  0  0  0
 11 15  1  0  0  0  0
 11 16  1  0  0  0  0
 44 46  1  0  0  0  0
 44 47  1  0  0  0  0
 44 48  1  0  0  0  0
 22 30  1  0  0  0  0
 22 31  1  0  0  0  0
 21 28  1  0  0  0  0
 21 29  1  0  0  0  0
 34 39  1  0  0  0  0
  8 13  1  0  0  0  0
 18 27  1  0  0  0  0
 43 45  1  0  0  0  0
  7 12  1  0  0  0  0
 33 38  1  0  0  0  0
 17 26  1  0  0  0  0
 25 32  1  0  0  0  0
M  END
$$$$

  -OEChem-05262214473D

 48 47  0     1  0  0  0  0  0999 V2000
   -5.5827   -1.3473    1.4591 C   0  0  0  0  0  0  0  0  0  0  0  0
   -5.7053   -2.4696    0.9825 O   0  0  0  0  0  0  0  0  0  0  0  0
   -6.7879   -0.6277    1.9670 C   0  0  0  0  0  0  0  0  0  0  0  0
   -7.2718   -0.0164    1.1885 H   0  0  0  0  0  0  0  0  0  0  0  0
   -7.5699   -1.3171    2.3239 H   0  0  0  0  0  0  0  0  0  0  0  0
   -6.6057    0.0628    2.8060 H   0  0  0  0  0  0  0  0  0  0  0  0
   -4.4001   -0.6377    1.5884 N   0  0  0  0  0  0  0  0  0  0  0  0
   -3.1220   -1.1455    1.1644 C   0  0  2  0  0  0  0  0  0  0  0  0
   -2.2017    0.0428    0.9187 C   0  0  0  0  0  0  0  0  0  0  0  0
   -2.6171    1.1750    0.6807 O   0  0  0  0  0  0  0  0  0  0  0  0
   -3.2533   -1.9992   -0.0873 C   0  0  0  0  0  0  0  0  0  0  0  0
   -4.4370    0.2910    2.0047 H   0  0  0  0  0  0  0  0  0  0  0  0
   -2.7302   -1.7467    1.9921 H   0  0  0  0  0  0  0  0  0  0  0  0
   -3.6446   -1.4140   -0.9275 H   0  0  0  0  0  0  0  0  0  0  0  0
   -2.2844   -2.4081   -0.3922 H   0  0  0  0  0  0  0  0  0  0  0  0
   -3.9388   -2.8365    0.0822 H   0  0  0  0  0  0  0  0  0  0  0  0
   -0.8768   -0.3314    0.9568 N   0  0  0  0  0  0  0  0  0  0  0  0
    0.2067    0.6285    0.7375 C   0  0  2  0  0  0  0  0  0  0  0  0
    1.2485    0.3565    1.8183 C   0  0  0  0  0  0  0  0  0  0  0  0
    2.4113    0.0568    1.5547 O   0  0  0  0  0  0  0  0  0  0  0  0
   -0.3561    2.0556    0.8160 C   0  0  0  0  0  0  0  0  0  0  0  0
   -1.3155    2.3984   -0.3236 C   0  0  0  0  0  0  0  0  0  0  0  0
   -1.8642    3.7977   -0.1975 C   0  0  0  0  0  0  0  0  0  0  0  0
   -1.6719    4.5203    0.7721 O   0  0  0  0  0  0  0  0  0  0  0  0
   -2.6184    4.1664   -1.2623 O   0  0  0  0  0  0  0  0  0  0  0  0
   -0.6087   -1.2764    1.1771 H   0  0  0  0  0  0  0  0  0  0  0  0
    0.6306    0.4506   -0.2562 H   0  0  0  0  0  0  0  0  0  0  0  0
   -0.8788    2.1858    1.7730 H   0  0  0  0  0  0  0  0  0  0  0  0
    0.4632    2.7865    0.8045 H   0  0  0  0  0  0  0  0  0  0  0  0
   -0.7826    2.3515   -1.2812 H   0  0  0  0  0  0  0  0  0  0  0  0
   -2.1303    1.6716   -0.4057 H   0  0  0  0  0  0  0  0  0  0  0  0
   -3.0101    5.0641   -1.2116 H   0  0  0  0  0  0  0  0  0  0  0  0
    0.7369    0.5157    3.0977 N   0  0  0  0  0  0  0  0  0  0  0  0
    1.5218    0.3175    4.2949 C   0  0  2  0  0  0  0  0  0  0  0  0
    1.3146   -1.1176    4.7609 C   0  0  0  0  0  0  0  0  0  0  0  0
    0.3321   -1.7882    4.4509 O   0  0  0  0  0  0  0  0  0  0  0  0
    1.1296    1.3044    5.3835 C   0  0  0  0  0  0  0  0  0  0  0  0
   -0.2372    0.7849    3.1981 H   0  0  0  0  0  0  0  0  0  0  0  0
    2.5704    0.4628    4.0133 H   0  0  0  0  0  0  0  0  0  0  0  0
    0.0821    1.1740    5.6787 H   0  0  0  0  0  0  0  0  0  0  0  0
    1.7446    1.1717    6.2797 H   0  0  0  0  0  0  0  0  0  0  0  0
    1.2511    2.3362    5.0363 H   0  0  0  0  0  0  0  0  0  0  0  0
    2.3344   -1.5467    5.5987 N   0  0  0  0  0  0  0  0  0  0  0  0
    2.3600   -2.8675    6.1825 C   0  0  0  0  0  0  0  0  0  0  0  0
    3.1195   -0.9302    5.7865 H   0  0  0  0  0  0  0  0  0  0  0  0
    1.8807   -2.8408    7.1723 H   0  0  0  0  0  0  0  0  0  0  0  0
    1.8162   -3.5670    5.5307 H   0  0  0  0  0  0  0  0  0  0  0  0
    3.4028   -3.2009    6.2892 H   0  0  0  0  0  0  0  0  0  0  0  0
  1  3  1  0  0  0  0
  1  7  1  0  0  0  0
  1  2  2  0  0  0  0
 34 35  1  0  0  0  0
 35 43  1  0  0  0  0
 35 36  2  0  0  0  0
  8  9  1  0  0  0  0
  9 17  1  0  0  0  0
  9 10  2  0  0  0  0
 18 19  1  0  0  0  0
 19 33  1  0  0  0  0
 19 20  2  0  0  0  0
 22 23  1  0  0  0  0
 23 24  2  0  0  0  0
 23 25  1  0  0  0  0
 34 37  1  0  0  0  0
  8 11  1  0  0  0  0
 43 44  1  0  0  0  0
 21 22  1  0  0  0  0
 18 21  1  0  0  0  0
 33 34  1  0  0  0  0
  7  8  1  0  0  0  0
 17 18  1  0  0  0  0
  3  4  1  0  0  0  0
  3  5  1  0  0  0  0
  3  6  1  0  0  0  0
 37 40  1  0  0  0  0
 37 41  1  0  0  0  0
 37 42  1  0  0  0  0
 11 14  1  0  0  0  0
 11 15  1  0  0  0  0
 11 16  1  0  0  0  0
 44 46  1  0  0  0  0
 44 47  1  0  0  0  0
 44 48  1  0  0  0  0
 22 30  1  0  0  0  0
 22 31  1  0  0  0  0
 21 28  1  0  0  0  0
 21 29  1  0  0  0  0
 34 39  1  0  0  0  0
  8 13  1  0  0  0  0
 18 27  1  0  0  0  0
 43 45  1  0  0  0  0
  7 12  1  0  0  0  0
 33 38  1  0  0  0  0
 17 26  1  0  0  0  0
 25 32  1  0  0  0  0
M  END
$$$$

  -OEChem-05262214473D

 48 47  0     1  0  0  0  0  0999 V2000
   -5.5827   -1.3473    1.4591 C   0  0  0  0  0  0  0  0  0  0  0  0
   -5.7053   -2.4696    0.9825 O   0  0  0  0  0  0  0  0  0  0  0  0
   -6.7879   -0.6277    1.9670 C   0  0  0  0  0  0  0  0  0  0  0  0
   -7.2718   -0.0164    1.1885 H   0  0  0  0  0  0  0  0  0  0  0  0
   -7.5699   -1.3171    2.3239 H   0  0  0  0  0  0  0  0  0  0  0  0
   -6.6057    0.0628    2.8060 H   0  0  0  0  0  0  0  0  0  0  0  0
   -4.4001   -0.6377    1.5884 N   0  0  0  0  0  0  0  0  0  0  0  0
   -3.1220   -1.1455    1.1644 C   0  0  2  0  0  0  0  0  0  0  0  0
   -2.2017    0.0428    0.9187 C   0  0  0  0  0  0  0  0  0  0  0  0
   -2.6171    1.1750    0.6807 O   0  0  0  0  0  0  0  0  0  0  0  0
   -3.2533   -1.9992   -0.0873 C   0  0  0  0  0  0  0  0  0  0  0  0
   -4.4370    0.2910    2.0047 H   0  0  0  0  0  0  0  0  0  0  0  0
   -2.7302   -1.7467    1.9921 H   0  0  0  0  0  0  0  0  0  0  0  0
   -3.6446   -1.4140   -0.9275 H   0  0  0  0  0  0  0  0  0  0  0  0
   -2.2844   -2.4081   -0.3922 H   0  0  0  0  0  0  0  0  0  0  0  0
   -3.9388   -2.8365    0.0822 H   0  0  0  0  0  0  0  0  0  0  0  0
   -0.8768   -0.3314    0.9568 N   0  0  0  0  0  0  0  0  0  0  0  0
    0.2067    0.6285    0.7375 C   0  0  2  0  0  0  0  0  0  0  0  0
    1.2485    0.3565    1.8183 C   0  0  0  0  0  0  0  0  0  0  0  0
    2.4542    0.3228    1.5803 O   0  0  0  0  0  0  0  0  0  0  0  0
   -0.3561    2.0556    0.8160 C   0  0  0  0  0  0  0  0  0  0  0  0
   -1.3155    2.3984   -0.3236 C   0  0  0  0  0  0  0  0  0  0  0  0
   -1.8642    3.7977   -0.1975 C   0  0  0  0  0  0  0  0  0  0  0  0
   -1.6719    4.5203    0.7721 O   0  0  0  0  0  0  0  0  0  0  0  0
   -2.6184    4.1664   -1.2623 O   0  0  0  0  0  0  0  0  0  0  0  0
   -0.6087   -1.2764    1.1771 H   0  0  0  0  0  0  0  0  0  0  0  0
    0.6306    0.4506   -0.2562 H   0  0  0  0  0  0  0  0  0  0  0  0
   -0.8788    2.1858    1.7730 H   0  0  0  0  0  0  0  0  0  0  0  0
    0.4632    2.7865    0.8045 H   0  0  0  0  0  0  0  0  0  0  0  0
   -0.7826    2.3515   -1.2812 H   0  0  0  0  0  0  0  0  0  0  0  0
   -2.1303    1.6716   -0.4057 H   0  0  0  0  0  0  0  0  0  0  0  0
   -3.0101    5.0641   -1.2116 H   0  0  0  0  0  0  0  0  0  0  0  0
    0.6784    0.1872    3.0714 N   0  0  0  0  0  0  0  0  0  0  0  0
    1.4507   -0.0806    4.2633 C   0  0  2  0  0  0  0  0  0  0  0  0
    1.5025   -1.5898    4.4609 C   0  0  0  0  0  0  0  0  0  0  0  0
    0.6729   -2.3583    3.9790 O   0  0  0  0  0  0  0  0  0  0  0  0
    0.8483    0.6064    5.4790 C   0  0  0  0  0  0  0  0  0  0  0  0
   -0.3314    0.2547    3.1555 H   0  0  0  0  0  0  0  0  0  0  0  0
    2.4614    0.2988    4.0772 H   0  0  0  0  0  0  0  0  0  0  0  0
   -0.1644    0.2391    5.6811 H   0  0  0  0  0  0  0  0  0  0  0  0
    1.4504    0.4260    6.3756 H   0  0  0  0  0  0  0  0  0  0  0  0
    0.7844    1.6887    5.3232 H   0  0  0  0  0  0  0  0  0  0  0  0
    2.5594   -1.9737    5.2744 N   0  0  0  0  0  0  0  0  0  0  0  0
    2.8149   -3.3520    5.6221 C   0  0  0  0  0  0  0  0  0  0  0  0
    3.2091   -1.2708    5.6144 H   0  0  0  0  0  0  0  0  0  0  0  0
    2.3099   -3.5913    6.5696 H   0  0  0  0  0  0  0  0  0  0  0  0
    2.4315   -4.0079    4.8266 H   0  0  0  0  0  0  0  0  0  0  0  0
    3.8981   -3.5069    5.7348 H   0  0  0  0  0  0  0  0  0  0  0  0
  1  3  1  0  0  0  0
  1  7  1  0  0  0  0
  1  2  2  0  0  0  0
 34 35  1  0  0  0  0
 35 43  1  0  0  0  0
 35 36  2  0  0  0  0
  8  9  1  0  0  0  0
  9 17  1  0  0  0  0
  9 10  2  0  0  0  0
 18 19  1  0  0  0  0
 19 33  1  0  0  0  0
 19 20  2  0  0  0  0
 22 23  1  0  0  0  0
 23 24  2  0  0  0  0
 23 25  1  0  0  0  0
 34 37  1  0  0  0  0
  8 11  1  0  0  0  0
 43 44  1  0  0  0  0
 21 22  1  0  0  0  0
 18 21  1  0  0  0  0
 33 34  1  0  0  0  0
  7  8  1  0  0  0  0
 17 18  1  0  0  0  0
  3  4  1  0  0  0  0
  3  5  1  0  0  0  0
  3  6  1  0  0  0  0
 37 40  1  0  0  0  0
 37 41  1  0  0  0  0
 37 42  1  0  0  0  0
 11 14  1  0  0  0  0
 11 15  1  0  0  0  0
 11 16  1  0  0  0  0
 44 46  1  0  0  0  0
 44 47  1  0  0  0  0
 44 48  1  0  0  0  0
 22 30  1  0  0  0  0
 22 31  1  0  0  0  0
 21 28  1  0  0  0  0
 21 29  1  0  0  0  0
 34 39  1  0  0  0  0
  8 13  1  0  0  0  0
 18 27  1  0  0  0  0
 43 45  1  0  0  0  0
  7 12  1  0  0  0  0
 33 38  1  0  0  0  0
 17 26  1  0  0  0  0
 25 32  1  0  0  0  0
M  END
$$$$

  -OEChem-05262214473D

 48 47  0     1  0  0  0  0  0999 V2000
   -5.5827   -1.3473    1.4591 C   0  0  0  0  0  0  0  0  0  0  0  0
   -5.7053   -2.4696    0.9825 O   0  0  0  0  0  0  0  0  0  0  0  0
   -6.7879   -0.6277    1.9670 C   0  0  0  0  0  0  0  0  0  0  0  0
   -7.2718   -0.0164    1.1885 H   0  0  0  0  0  0  0  0  0  0  0  0
   -7.5699   -1.3171    2.3239 H   0  0  0  0  0  0  0  0  0  0  0  0
   -6.6057    0.0628    2.8060 H   0  0  0  0  0  0  0  0  0  0  0  0
   -4.4001   -0.6377    1.5884 N   0  0  0  0  0  0  0  0  0  0  0  0
   -3.1220   -1.1455    1.1644 C   0  0  2  0  0  0  0  0  0  0  0  0
   -2.2017    0.0428    0.9187 C   0  0  0  0  0  0  0  0  0  0  0  0
   -2.6171    1.1750    0.6807 O   0  0  0  0  0  0  0  0  0  0  0  0
   -3.2533   -1.9992   -0.0873 C   0  0  0  0  0  0  0  0  0  0  0  0
   -4.4370    0.2910    2.0047 H   0  0  0  0  0  0  0  0  0  0  0  0
   -2.7302   -1.7467    1.9921 H   0  0  0  0  0  0  0  0  0  0  0  0
   -3.6446   -1.4140   -0.9275 H   0  0  0  0  0  0  0  0  0  0  0  0
   -2.2844   -2.4081   -0.3922 H   0  0  0  0  0  0  0  0  0  0  0  0
   -3.9388   -2.8365    0.0822 H   0  0  0  0  0  0  0  0  0  0  0  0
   -0.8768   -0.3314    0.9568 N   0  0  0  0  0  0  0  0  0  0  0  0
    0.2067    0.6285    0.7375 C   0  0  2  0  0  0  0  0  0  0  0  0
    1.2485    0.3565    1.8183 C   0  0  0  0  0  0  0  0  0  0  0  0
    2.4457    0.5831    1.6541 O   0  0  0  0  0  0  0  0  0  0  0  0
   -0.3561    2.0556    0.8160 C   0  0  0  0  0  0  0  0  0  0  0  0
   -1.3155    2.3984   -0.3236 C   0  0  0  0  0  0  0  0  0  0  0  0
   -1.8642    3.7977   -0.1975 C   0  0  0  0  0  0  0  0  0  0  0  0
   -1.6719    4.5203    0.7721 O   0  0  0  0  0  0  0  0  0  0  0  0
   -2.6184    4.1664   -1.2623 O   0  0  0  0  0  0  0  0  0  0  0  0
   -0.6087   -1.2764    1.1771 H   0  0  0  0  0  0  0  0  0  0  0  0
    0.6306    0.4506   -0.2562 H   0  0  0  0  0  0  0  0  0  0  0  0
   -0.8788    2.1858    1.7730 H   0  0  0  0  0  0  0  0  0  0  0  0
    0.4632    2.7865    0.8045 H   0  0  0  0  0  0  0  0  0  0  0  0
   -0.7826    2.3515   -1.2812 H   0  0  0  0  0  0  0  0  0  0  0  0
   -2.1303    1.6716   -0.4057 H   0  0  0  0  0  0  0  0  0  0  0  0
   -3.0101    5.0641   -1.2116 H   0  0  0  0  0  0  0  0  0  0  0  0
    0.6834   -0.1363    2.9852 N   0  0  0  0  0  0  0  0  0  0  0  0
    1.4565   -0.4726    4.1591 C   0  0  2  0  0  0  0  0  0  0  0  0
    1.7845   -1.9585    4.0963 C   0  0  0  0  0  0  0  0  0  0  0  0
    1.1283   -2.7631    3.4381 O   0  0  0  0  0  0  0  0  0  0  0  0
    0.7002   -0.1363    5.4348 C   0  0  0  0  0  0  0  0  0  0  0  0
   -0.3232   -0.2672    3.0163 H   0  0  0  0  0  0  0  0  0  0  0  0
    2.3832    0.1091    4.1048 H   0  0  0  0  0  0  0  0  0  0  0  0
   -0.2313   -0.7096    5.5068 H   0  0  0  0  0  0  0  0  0  0  0  0
    1.2986   -0.3652    6.3229 H   0  0  0  0  0  0  0  0  0  0  0  0
    0.4391    0.9271    5.4643 H   0  0  0  0  0  0  0  0  0  0  0  0
    2.8700   -2.2876    4.8960 N   0  0  0  0  0  0  0  0  0  0  0  0
    3.3690   -3.6376    5.0162 C   0  0  0  0  0  0  0  0  0  0  0  0
    3.3660   -1.5531    5.3922 H   0  0  0  0  0  0  0  0  0  0  0  0
    2.8900   -4.1311    5.8747 H   0  0  0  0  0  0  0  0  0  0  0  0
    3.1391   -4.1965    4.0971 H   0  0  0  0  0  0  0  0  0  0  0  0
    4.4582   -3.6137    5.1681 H   0  0  0  0  0  0  0  0  0  0  0  0
  1  3  1  0  0  0  0
  1  7  1  0  0  0  0
  1  2  2  0  0  0  0
 34 35  1  0  0  0  0
 35 43  1  0  0  0  0
 35 36  2  0  0  0  0
  8  9  1  0  0  0  0
  9 17  1  0  0  0  0
  9 10  2  0  0  0  0
 18 19  1  0  0  0  0
 19 33  1  0  0  0  0
 19 20  2  0  0  0  0
 22 23  1  0  0  0  0
 23 24  2  0  0  0  0
 23 25  1  0  0  0  0
 34 37  1  0  0  0  0
  8 11  1  0  0  0  0
 43 44  1  0  0  0  0
 21 22  1  0  0  0  0
 18 21  1  0  0  0  0
 33 34  1  0  0  0  0
  7  8  1  0  0  0  0
 17 18  1  0  0  0  0
  3  4  1  0  0  0  0
  3  5  1  0  0  0  0
  3  6  1  0  0  0  0
 37 40  1  0  0  0  0
 37 41  1  0  0  0  0
 37 42  1  0  0  0  0
 11 14  1  0  0  0  0
 11 15  1  0  0  0  0
 11 16  1  0  0  0  0
 44 46  1  0  0  0  0
 44 47  1  0  0  0  0
 44 48  1  0  0  0  0
 22 30  1  0  0  0  0
 22 31  1  0  0  0  0
 21 28  1  0  0  0  0
 21 29  1  0  0  0  0
 34 39  1  0  0  0  0
  8 13  1  0  0  0  0
 18 27  1  0  0  0  0
 43 45  1  0  0  0  0
  7 12  1  0  0  0  0
 33 38  1  0  0  0  0
 17 26  1  0  0  0  0
 25 32  1  0  0  0  0
M  END
$$$$

  -OEChem-05262214473D

 48 47  0     1  0  0  0  0  0999 V2000
   -5.5827   -1.3473    1.4591 C   0  0  0  0  0  0  0  0  0  0  0  0
   -5.7053   -2.4696    0.9825 O   0  0  0  0  0  0  0  0  0  0  0  0
   -6.7879   -0.6277    1.9670 C   0  0  0  0  0  0  0  0  0  0  0  0
   -7.2718   -0.0164    1.1885 H   0  0  0  0  0  0  0  0  0  0  0  0
   -7.5699   -1.3171    2.3239 H   0  0  0  0  0  0  0  0  0  0  0  0
   -6.6057    0.0628    2.8060 H   0  0  0  0  0  0  0  0  0  0  0  0
   -4.4001   -0.6377    1.5884 N   0  0  0  0  0  0  0  0  0  0  0  0
   -3.1220   -1.1455    1.1644 C   0  0  2  0  0  0  0  0  0  0  0  0
   -2.2017    0.0428    0.9187 C   0  0  0  0  0  0  0  0  0  0  0  0
   -2.6171    1.1750    0.6807 O   0  0  0  0  0  0  0  0  0  0  0  0
   -3.2533   -1.9992   -0.0873 C   0  0  0  0  0  0  0  0  0  0  0  0
   -4.4370    0.2910    2.0047 H   0  0  0  0  0  0  0  0  0  0  0  0
   -2.7302   -1.7467    1.9921 H   0  0  0  0  0  0  0  0  0  0  0  0
   -3.6446   -1.4140   -0.9275 H   0  0  0  0  0  0  0  0  0  0  0  0
   -2.2844   -2.4081   -0.3922 H   0  0  0  0  0  0  0  0  0  0  0  0
   -3.9388   -2.8365    0.0822 H   0  0  0  0  0  0  0  0  0  0  0  0
   -0.8768   -0.3314    0.9568 N   0  0  0  0  0  0  0  0  0  0  0  0
    0.2067    0.6285    0.7375 C   0  0  2  0  0  0  0  0  0  0  0  0
    1.2485    0.3565    1.8183 C   0  0  0  0  0  0  0  0  0  0  0  0
    2.3863    0.8199    1.7709 O   0  0  0  0  0  0  0  0  0  0  0  0
   -0.3561    2.0556    0.8160 C   0  0  0  0  0  0  0  0  0  0  0  0
   -1.3155    2.3984   -0.3236 C   0  0  0  0  0  0  0  0  0  0  0  0
   -1.8642    3.7977   -0.1975 C   0  0  0  0  0  0  0  0  0  0  0  0
   -1.6719    4.5203    0.7721 O   0  0  0  0  0  0  0  0  0  0  0  0
   -2.6184    4.1664   -1.2623 O   0  0  0  0  0  0  0  0  0  0  0  0
   -0.6087   -1.2764    1.1771 H   0  0  0  0  0  0  0  0  0  0  0  0
    0.6306    0.4506   -0.2562 H   0  0  0  0  0  0  0  0  0  0  0  0
   -0.8788    2.1858    1.7730 H   0  0  0  0  0  0  0  0  0  0  0  0
    0.4632    2.7865    0.8045 H   0  0  0  0  0  0  0  0  0  0  0  0
   -0.7826    2.3515   -1.2812 H   0  0  0  0  0  0  0  0  0  0  0  0
   -2.1303    1.6716   -0.4057 H   0  0  0  0  0  0  0  0  0  0  0  0
   -3.0101    5.0641   -1.2116 H   0  0  0  0  0  0  0  0  0  0  0  0
    0.7515   -0.4325    2.8451 N   0  0  0  0  0  0  0  0  0  0  0  0
    1.5388   -0.8317    3.9894 C   0  0  2  0  0  0  0  0  0  0  0  0
    2.1413   -2.1985    3.6920 C   0  0  0  0  0  0  0  0  0  0  0  0
    1.6674   -2.9749    2.8651 O   0  0  0  0  0  0  0  0  0  0  0  0
    0.6953   -0.8731    5.2541 C   0  0  0  0  0  0  0  0  0  0  0  0
   -0.2132   -0.7452    2.7900 H   0  0  0  0  0  0  0  0  0  0  0  0
    2.3411   -0.0933    4.0944 H   0  0  0  0  0  0  0  0  0  0  0  0
   -0.1139   -1.6074    5.1677 H   0  0  0  0  0  0  0  0  0  0  0  0
    1.2994   -1.1479    6.1251 H   0  0  0  0  0  0  0  0  0  0  0  0
    0.2387    0.1031    5.4501 H   0  0  0  0  0  0  0  0  0  0  0  0
    3.2451   -2.4670    4.4893 N   0  0  0  0  0  0  0  0  0  0  0  0
    3.9845   -3.7048    4.4060 C   0  0  0  0  0  0  0  0  0  0  0  0
    3.5796   -1.7576    5.1348 H   0  0  0  0  0  0  0  0  0  0  0  0
    3.5813   -4.4232    5.1348 H   0  0  0  0  0  0  0  0  0  0  0  0
    3.8909   -4.1201    3.3917 H   0  0  0  0  0  0  0  0  0  0  0  0
    5.0449   -3.5139    4.6276 H   0  0  0  0  0  0  0  0  0  0  0  0
  1  3  1  0  0  0  0
  1  7  1  0  0  0  0
  1  2  2  0  0  0  0
 34 35  1  0  0  0  0
 35 43  1  0  0  0  0
 35 36  2  0  0  0  0
  8  9  1  0  0  0  0
  9 17  1  0  0  0  0
  9 10  2  0  0  0  0
 18 19  1  0  0  0  0
 19 33  1  0  0  0  0
 19 20  2  0  0  0  0
 22 23  1  0  0  0  0
 23 24  2  0  0  0  0
 23 25  1  0  0  0  0
 34 37  1  0  0  0  0
  8 11  1  0  0  0  0
 43 44  1  0  0  0  0
 21 22  1  0  0  0  0
 18 21  1  0  0  0  0
 33 34  1  0  0  0  0
  7  8  1  0  0  0  0
 17 18  1  0  0  0  0
  3  4  1  0  0  0  0
  3  5  1  0  0  0  0
  3  6  1  0  0  0  0
 37 40  1  0  0  0  0
 37 41  1  0  0  0  0
 37 42  1  0  0  0  0
 11 14  1  0  0  0  0
 11 15  1  0  0  0  0
 11 16  1  0  0  0  0
 44 46  1  0  0  0  0
 44 47  1  0  0  0  0
 44 48  1  0  0  0  0
 22 30  1  0  0  0  0
 22 31  1  0  0  0  0
 21 28  1  0  0  0  0
 21 29  1  0  0  0  0
 34 39  1  0  0  0  0
  8 13  1  0  0  0  0
 18 27  1  0  0  0  0
 43 45  1  0  0  0  0
  7 12  1  0  0  0  0
 33 38  1  0  0  0  0
 17 26  1  0  0  0  0
 25 32  1  0  0  0  0
M  END
$$$$

  -OEChem-05262214473D

 48 47  0     1  0  0  0  0  0999 V2000
   -5.5827   -1.3473    1.4591 C   0  0  0  0  0  0  0  0  0  0  0  0
   -5.7053   -2.4696    0.9825 O   0  0  0  0  0  0  0  0  0  0  0  0
   -6.7879   -0.6277    1.9670 C   0  0  0  0  0  0  0  0  0  0  0  0
   -7.2718   -0.0164    1.1885 H   0  0  0  0  0  0  0  0  0  0  0  0
   -7.5699   -1.3171    2.3239 H   0  0  0  0  0  0  0  0  0  0  0  0
   -6.6057    0.0628    2.8060 H   0  0  0  0  0  0  0  0  0  0  0  0
   -4.4001   -0.6377    1.5884 N   0  0  0  0  0  0  0  0  0  0  0  0
   -3.1220   -1.1455    1.1644 C   0  0  2  0  0  0  0  0  0  0  0  0
   -2.2017    0.0428    0.9187 C   0  0  0  0  0  0  0  0  0  0  0  0
   -2.6171    1.1750    0.6807 O   0  0  0  0  0  0  0  0  0  0  0  0
   -3.2533   -1.9992   -0.0873 C   0  0  0  0  0  0  0  0  0  0  0  0
   -4.4370    0.2910    2.0047 H   0  0  0  0  0  0  0  0  0  0  0  0
   -2.7302   -1.7467    1.9921 H   0  0  0  0  0  0  0  0  0  0  0  0
   -3.6446   -1.4140   -0.9275 H   0  0  0  0  0  0  0  0  0  0  0  0
   -2.2844   -2.4081   -0.3922 H   0  0  0  0  0  0  0  0  0  0  0  0
   -3.9388   -2.8365    0.0822 H   0  0  0  0  0  0  0  0  0  0  0  0
   -0.8768   -0.3314    0.9568 N   0  0  0  0  0  0  0  0  0  0  0  0
    0.2067    0.6285    0.7375 C   0  0  2  0  0  0  0  0  0  0  0  0
    1.2485    0.3565    1.8183 C   0  0  0  0  0  0  0  0  0  0  0  0
    2.2801    1.0171    1.9228 O   0  0  0  0  0  0  0  0  0  0  0  0
   -0.3561    2.0556    0.8160 C   0  0  0  0  0  0  0  0  0  0  0  0
   -1.3155    2.3984   -0.3236 C   0  0  0  0  0  0  0  0  0  0  0  0
   -1.8642    3.7977   -0.1975 C   0  0  0  0  0  0  0  0  0  0  0  0
   -1.6719    4.5203    0.7721 O   0  0  0  0  0  0  0  0  0  0  0  0
   -2.6184    4.1664   -1.2623 O   0  0  0  0  0  0  0  0  0  0  0  0
   -0.6087   -1.2764    1.1771 H   0  0  0  0  0  0  0  0  0  0  0  0
    0.6306    0.4506   -0.2562 H   0  0  0  0  0  0  0  0  0  0  0  0
   -0.8788    2.1858    1.7730 H   0  0  0  0  0  0  0  0  0  0  0  0
    0.4632    2.7865    0.8045 H   0  0  0  0  0  0  0  0  0  0  0  0
   -0.7826    2.3515   -1.2812 H   0  0  0  0  0  0  0  0  0  0  0  0
   -2.1303    1.6716   -0.4057 H   0  0  0  0  0  0  0  0  0  0  0  0
   -3.0101    5.0641   -1.2116 H   0  0  0  0  0  0  0  0  0  0  0  0
    0.8780   -0.6815    2.6604 N   0  0  0  0  0  0  0  0  0  0  0  0
    1.6919   -1.1336    3.7658 C   0  0  2  0  0  0  0  0  0  0  0  0
    2.5486   -2.2934    3.2755 C   0  0  0  0  0  0  0  0  0  0  0  0
    2.2534   -2.9795    2.2991 O   0  0  0  0  0  0  0  0  0  0  0  0
    0.8340   -1.5537    4.9491 C   0  0  0  0  0  0  0  0  0  0  0  0
   -0.0089   -1.1467    2.4920 H   0  0  0  0  0  0  0  0  0  0  0  0
    2.3381   -0.2948    4.0466 H   0  0  0  0  0  0  0  0  0  0  0  0
    0.1798   -2.3931    4.6869 H   0  0  0  0  0  0  0  0  0  0  0  0
    1.4528   -1.8689    5.7958 H   0  0  0  0  0  0  0  0  0  0  0  0
    0.1969   -0.7270    5.2815 H   0  0  0  0  0  0  0  0  0  0  0  0
    3.6590   -2.4996    4.0822 N   0  0  0  0  0  0  0  0  0  0  0  0
    4.6196   -3.5490    3.8330 C   0  0  0  0  0  0  0  0  0  0  0  0
    3.8353   -1.8706    4.8600 H   0  0  0  0  0  0  0  0  0  0  0  0
    4.3367   -4.4479    4.4004 H   0  0  0  0  0  0  0  0  0  0  0  0
    4.6356   -3.7837    2.7585 H   0  0  0  0  0  0  0  0  0  0  0  0
    5.6183   -3.2145    4.1502 H   0  0  0  0  0  0  0  0  0  0  0  0
  1  3  1  0  0  0  0
  1  7  1  0  0  0  0
  1  2  2  0  0  0  0
 34 35  1  0  0  0  0
 35 43  1  0  0  0  0
 35 36  2  0  0  0  0
  8  9  1  0  0  0  0
  9 17  1  0  0  0  0
  9 10  2  0  0  0  0
 18 19  1  0  0  0  0
 19 33  1  0  0  0  0
 19 20  2  0  0  0  0
 22 23  1  0  0  0  0
 23 24  2  0  0  0  0
 23 25  1  0  0  0  0
 34 37  1  0  0  0  0
  8 11  1  0  0  0  0
 43 44  1  0  0  0  0
 21 22  1  0  0  0  0
 18 21  1  0  0  0  0
 33 34  1  0  0  0  0
  7  8  1  0  0  0  0
 17 18  1  0  0  0  0
  3  4  1  0  0  0  0
  3  5  1  0  0  0  0
  3  6  1  0  0  0  0
 37 40  1  0  0  0  0
 37 41  1  0  0  0  0
 37 42  1  0  0  0  0
 11 14  1  0  0  0  0
 11 15  1  0  0  0  0
 11 16  1  0  0  0  0
 44 46  1  0  0  0  0
 44 47  1  0  0  0  0
 44 48  1  0  0  0  0
 22 30  1  0  0  0  0
 22 31  1  0  0  0  0
 21 28  1  0  0  0  0
 21 29  1  0  0  0  0
 34 39  1  0  0  0  0
  8 13  1  0  0  0  0
 18 27  1  0  0  0  0
 43 45  1  0  0  0  0
  7 12  1  0  0  0  0
 33 38  1  0  0  0  0
 17 26  1  0  0  0  0
 25 32  1  0  0  0  0
M  END
$$$$

  -OEChem-05262214473D

 48 47  0     1  0  0  0  0  0999 V2000
   -5.5827   -1.3473    1.4591 C   0  0  0  0  0  0  0  0  0  0  0  0
   -5.7053   -2.4696    0.9825 O   0  0  0  0  0  0  0  0  0  0  0  0
   -6.7879   -0.6277    1.9670 C   0  0  0  0  0  0  0  0  0  0  0  0
   -7.2718   -0.0164    1.1885 H   0  0  0  0  0  0  0  0  0  0  0  0
   -7.5699   -1.3171    2.3239 H   0  0  0  0  0  0  0  0  0  0  0  0
   -6.6057    0.0628    2.8060 H   0  0  0  0  0  0  0  0  0  0  0  0
   -4.4001   -0.6377    1.5884 N   0  0  0  0  0  0  0  0  0  0  0  0
   -3.1220   -1.1455    1.1644 C   0  0  2  0  0  0  0  0  0  0  0  0
   -2.2017    0.0428    0.9187 C   0  0  0  0  0  0  0  0  0  0  0  0
   -2.6171    1.1750    0.6807 O   0  0  0  0  0  0  0  0  0  0  0  0
   -3.2533   -1.9992   -0.0873 C   0  0  0  0  0  0  0  0  0  0  0  0
   -4.4370    0.2910    2.0047 H   0  0  0  0  0  0  0  0  0  0  0  0
   -2.7302   -1.7467    1.9921 H   0  0  0  0  0  0  0  0  0  0  0  0
   -3.6446   -1.4140   -0.9275 H   0  0  0  0  0  0  0  0  0  0  0  0
   -2.2844   -2.4081   -0.3922 H   0  0  0  0  0  0  0  0  0  0  0  0
   -3.9388   -2.8365    0.0822 H   0  0  0  0  0  0  0  0  0  0  0  0
   -0.8768   -0.3314    0.9568 N   0  0  0  0  0  0  0  0  0  0  0  0
    0.2067    0.6285    0.7375 C   0  0  2  0  0  0  0  0  0  0  0  0
    1.2485    0.3565    1.8183 C   0  0  0  0  0  0  0  0  0  0  0  0
    2.1344    1.1612    2.0996 O   0  0  0  0  0  0  0  0  0  0  0  0
   -0.3561    2.0556    0.8160 C   0  0  0  0  0  0  0  0  0  0  0  0
   -1.3155    2.3984   -0.3236 C   0  0  0  0  0  0  0  0  0  0  0  0
   -1.8642    3.7977   -0.1975 C   0  0  0  0  0  0  0  0  0  0  0  0
   -1.6719    4.5203    0.7721 O   0  0  0  0  0  0  0  0  0  0  0  0
   -2.6184    4.1664   -1.2623 O   0  0  0  0  0  0  0  0  0  0  0  0
   -0.6087   -1.2764    1.1771 H   0  0  0  0  0  0  0  0  0  0  0  0
    0.6306    0.4506   -0.2562 H   0  0  0  0  0  0  0  0  0  0  0  0
   -0.8788    2.1858    1.7730 H   0  0  0  0  0  0  0  0  0  0  0  0
    0.4632    2.7865    0.8045 H   0  0  0  0  0  0  0  0  0  0  0  0
   -0.7826    2.3515   -1.2812 H   0  0  0  0  0  0  0  0  0  0  0  0
   -2.1303    1.6716   -0.4057 H   0  0  0  0  0  0  0  0  0  0  0  0
   -3.0101    5.0641   -1.2116 H   0  0  0  0  0  0  0  0  0  0  0  0
    1.0544   -0.8661    2.4440 N   0  0  0  0  0  0  0  0  0  0  0  0
    1.9055   -1.3575    3.5036 C   0  0  2  0  0  0  0  0  0  0  0  0
    2.9786   -2.2369    2.8752 C   0  0  0  0  0  0  0  0  0  0  0  0
    2.8464   -2.7764    1.7786 O   0  0  0  0  0  0  0  0  0  0  0  0
    1.1069   -2.1318    4.5406 C   0  0  0  0  0  0  0  0  0  0  0  0
    0.2759   -1.4444    2.1426 H   0  0  0  0  0  0  0  0  0  0  0  0
    2.3743   -0.4814    3.9647 H   0  0  0  0  0  0  0  0  0  0  0  0
    0.6298   -3.0133    4.0971 H   0  0  0  0  0  0  0  0  0  0  0  0
    1.7485   -2.4790    5.3573 H   0  0  0  0  0  0  0  0  0  0  0  0
    0.3165   -1.5068    4.9701 H   0  0  0  0  0  0  0  0  0  0  0  0
    4.0836   -2.3832    3.7022 N   0  0  0  0  0  0  0  0  0  0  0  0
    5.2308   -3.1807    3.3365 C   0  0  0  0  0  0  0  0  0  0  0  0
    4.1156   -1.8842    4.5863 H   0  0  0  0  0  0  0  0  0  0  0  0
    5.1049   -4.2034    3.7215 H   0  0  0  0  0  0  0  0  0  0  0  0
    5.3224   -3.2103    2.2407 H   0  0  0  0  0  0  0  0  0  0  0  0
    6.1393   -2.7357    3.7685 H   0  0  0  0  0  0  0  0  0  0  0  0
  1  3  1  0  0  0  0
  1  7  1  0  0  0  0
  1  2  2  0  0  0  0
 34 35  1  0  0  0  0
 35 43  1  0  0  0  0
 35 36  2  0  0  0  0
  8  9  1  0  0  0  0
  9 17  1  0  0  0  0
  9 10  2  0  0  0  0
 18 19  1  0  0  0  0
 19 33  1  0  0  0  0
 19 20  2  0  0  0  0
 22 23  1  0  0  0  0
 23 24  2  0  0  0  0
 23 25  1  0  0  0  0
 34 37  1  0  0  0  0
  8 11  1  0  0  0  0
 43 44  1  0  0  0  0
 21 22  1  0  0  0  0
 18 21  1  0  0  0  0
 33 34  1  0  0  0  0
  7  8  1  0  0  0  0
 17 18  1  0  0  0  0
  3  4  1  0  0  0  0
  3  5  1  0  0  0  0
  3  6  1  0  0  0  0
 37 40  1  0  0  0  0
 37 41  1  0  0  0  0
 37 42  1  0  0  0  0
 11 14  1  0  0  0  0
 11 15  1  0  0  0  0
 11 16  1  0  0  0  0
 44 46  1  0  0  0  0
 44 47  1  0  0  0  0
 44 48  1  0  0  0  0
 22 30  1  0  0  0  0
 22 31  1  0  0  0  0
 21 28  1  0  0  0  0
 21 29  1  0  0  0  0
 34 39  1  0  0  0  0
  8 13  1  0  0  0  0
 18 27  1  0  0  0  0
 43 45  1  0  0  0  0
  7 12  1  0  0  0  0
 33 38  1  0  0  0  0
 17 26  1  0  0  0  0
 25 32  1  0  0  0  0
M  END
$$$$

  -OEChem-05262214473D

 48 47  0     1  0  0  0  0  0999 V2000
   -5.5827   -1.3473    1.4591 C   0  0  0  0  0  0  0  0  0  0  0  0
   -5.7053   -2.4696    0.9825 O   0  0  0  0  0  0  0  0  0  0  0  0
   -6.7879   -0.6277    1.9670 C   0  0  0  0  0  0  0  0  0  0  0  0
   -7.2718   -0.0164    1.1885 H   0  0  0  0  0  0  0  0  0  0  0  0
   -7.5699   -1.3171    2.3239 H   0  0  0  0  0  0  0  0  0  0  0  0
   -6.6057    0.0628    2.8060 H   0  0  0  0  0  0  0  0  0  0  0  0
   -4.4001   -0.6377    1.5884 N   0  0  0  0  0  0  0  0  0  0  0  0
   -3.1220   -1.1455    1.1644 C   0  0  2  0  0  0  0  0  0  0  0  0
   -2.2017    0.0428    0.9187 C   0  0  0  0  0  0  0  0  0  0  0  0
   -2.6171    1.1750    0.6807 O   0  0  0  0  0  0  0  0  0  0  0  0
   -3.2533   -1.9992   -0.0873 C   0  0  0  0  0  0  0  0  0  0  0  0
   -4.4370    0.2910    2.0047 H   0  0  0  0  0  0  0  0  0  0  0  0
   -2.7302   -1.7467    1.9921 H   0  0  0  0  0  0  0  0  0  0  0  0
   -3.6446   -1.4140   -0.9275 H   0  0  0  0  0  0  0  0  0  0  0  0
   -2.2844   -2.4081   -0.3922 H   0  0  0  0  0  0  0  0  0  0  0  0
   -3.9388   -2.8365    0.0822 H   0  0  0  0  0  0  0  0  0  0  0  0
   -0.8768   -0.3314    0.9568 N   0  0  0  0  0  0  0  0  0  0  0  0
    0.2067    0.6285    0.7375 C   0  0  2  0  0  0  0  0  0  0  0  0
    1.2485    0.3565    1.8183 C   0  0  0  0  0  0  0  0  0  0  0  0
    1.9591    1.2425    2.2890 O   0  0  0  0  0  0  0  0  0  0  0  0
   -0.3561    2.0556    0.8160 C   0  0  0  0  0  0  0  0  0  0  0  0
   -1.3155    2.3984   -0.3236 C   0  0  0  0  0  0  0  0  0  0  0  0
   -1.8642    3.7977   -0.1975 C   0  0  0  0  0  0  0  0  0  0  0  0
   -1.6719    4.5203    0.7721 O   0  0  0  0  0  0  0  0  0  0  0  0
   -2.6184    4.1664   -1.2623 O   0  0  0  0  0  0  0  0  0  0  0  0
   -0.6087   -1.2764    1.1771 H   0  0  0  0  0  0  0  0  0  0  0  0
    0.6306    0.4506   -0.2562 H   0  0  0  0  0  0  0  0  0  0  0  0
   -0.8788    2.1858    1.7730 H   0  0  0  0  0  0  0  0  0  0  0  0
    0.4632    2.7865    0.8045 H   0  0  0  0  0  0  0  0  0  0  0  0
   -0.7826    2.3515   -1.2812 H   0  0  0  0  0  0  0  0  0  0  0  0
   -2.1303    1.6716   -0.4057 H   0  0  0  0  0  0  0  0  0  0  0  0
   -3.0101    5.0641   -1.2116 H   0  0  0  0  0  0  0  0  0  0  0  0
    1.2686   -0.9738    2.2104 N   0  0  0  0  0  0  0  0  0  0  0  0
    2.1650   -1.4883    3.2205 C   0  0  2  0  0  0  0  0  0  0  0  0
    3.4021   -2.0326    2.5185 C   0  0  0  0  0  0  0  0  0  0  0  0
    3.4060   -2.3795    1.3392 O   0  0  0  0  0  0  0  0  0  0  0  0
    1.4953   -2.5679    4.0565 C   0  0  0  0  0  0  0  0  0  0  0  0
    0.6216   -1.6180    1.7656 H   0  0  0  0  0  0  0  0  0  0  0  0
    2.4473   -0.6406    3.8543 H   0  0  0  0  0  0  0  0  0  0  0  0
    1.2053   -3.4255    3.4386 H   0  0  0  0  0  0  0  0  0  0  0  0
    2.1661   -2.9365    4.8396 H   0  0  0  0  0  0  0  0  0  0  0  0
    0.5893   -2.1829    4.5369 H   0  0  0  0  0  0  0  0  0  0  0  0
    4.4899   -2.1258    3.3753 N   0  0  0  0  0  0  0  0  0  0  0  0
    5.7767   -2.6252    2.9502 C   0  0  0  0  0  0  0  0  0  0  0  0
    4.4015   -1.7976    4.3325 H   0  0  0  0  0  0  0  0  0  0  0  0
    5.8333   -3.7065    3.1444 H   0  0  0  0  0  0  0  0  0  0  0  0
    5.9046   -2.4390    1.8736 H   0  0  0  0  0  0  0  0  0  0  0  0
    6.5724   -2.1103    3.5085 H   0  0  0  0  0  0  0  0  0  0  0  0
  1  3  1  0  0  0  0
  1  7  1  0  0  0  0
  1  2  2  0  0  0  0
 34 35  1  0  0  0  0
 35 43  1  0  0  0  0
 35 36  2  0  0  0  0
  8  9  1  0  0  0  0
  9 17  1  0  0  0  0
  9 10  2  0  0  0  0
 18 19  1  0  0  0  0
 19 33  1  0  0  0  0
 19 20  2  0  0  0  0
 22 23  1  0  0  0  0
 23 24  2  0  0  0  0
 23 25  1  0  0  0  0
 34 37  1  0  0  0  0
  8 11  1  0  0  0  0
 43 44  1  0  0  0  0
 21 22  1  0  0  0  0
 18 21  1  0  0  0  0
 33 34  1  0  0  0  0
  7  8  1  0  0  0  0
 17 18  1  0  0  0  0
  3  4  1  0  0  0  0
  3  5  1  0  0  0  0
  3  6  1  0  0  0  0
 37 40  1  0  0  0  0
 37 41  1  0  0  0  0
 37 42  1  0  0  0  0
 11 14  1  0  0  0  0
 11 15  1  0  0  0  0
 11 16  1  0  0  0  0
 44 46  1  0  0  0  0
 44 47  1  0  0  0  0
 44 48  1  0  0  0  0
 22 30  1  0  0  0  0
 22 31  1  0  0  0  0
 21 28  1  0  0  0  0
 21 29  1  0  0  0  0
 34 39  1  0  0  0  0
  8 13  1  0  0  0  0
 18 27  1  0  0  0  0
 43 45  1  0  0  0  0
  7 12  1  0  0  0  0
 33 38  1  0  0  0  0
 17 26  1  0  0  0  0
 25 32  1  0  0  0  0
M  END
$$$$

  -OEChem-05262214473D

 48 47  0     1  0  0  0  0  0999 V2000
   -5.5827   -1.3473    1.4591 C   0  0  0  0  0  0  0  0  0  0  0  0
   -5.7053   -2.4696    0.9825 O   0  0  0  0  0  0  0  0  0  0  0  0
   -6.7879   -0.6277    1.9670 C   0  0  0  0  0  0  0  0  0  0  0  0
   -7.2718   -0.0164    1.1885 H   0  0  0  0  0  0  0  0  0  0  0  0
   -7.5699   -1.3171    2.3239 H   0  0  0  0  0  0  0  0  0  0  0  0
   -6.6057    0.0628    2.8060 H   0  0  0  0  0  0  0  0  0  0  0  0
   -4.4001   -0.6377    1.5884 N   0  0  0  0  0  0  0  0  0  0  0  0
   -3.1220   -1.1455    1.1644 C   0  0  2  0  0  0  0  0  0  0  0  0
   -2.2017    0.0428    0.9187 C   0  0  0  0  0  0  0  0  0  0  0  0
   -2.6171    1.1750    0.6807 O   0  0  0  0  0  0  0  0  0  0  0  0
   -3.2533   -1.9992   -0.0873 C   0  0  0  0  0  0  0  0  0  0  0  0
   -4.4370    0.2910    2.0047 H   0  0  0  0  0  0  0  0  0  0  0  0
   -2.7302   -1.7467    1.9921 H   0  0  0  0  0  0  0  0  0  0  0  0
   -3.6446   -1.4140   -0.9275 H   0  0  0  0  0  0  0  0  0  0  0  0
   -2.2844   -2.4081   -0.3922 H   0  0  0  0  0  0  0  0  0  0  0  0
   -3.9388   -2.8365    0.0822 H   0  0  0  0  0  0  0  0  0  0  0  0
   -0.8768   -0.3314    0.9568 N   0  0  0  0  0  0  0  0  0  0  0  0
    0.2067    0.6285    0.7375 C   0  0  2  0  0  0  0  0  0  0  0  0
    1.2485    0.3565    1.8183 C   0  0  0  0  0  0  0  0  0  0  0  0
    1.7661    1.2554    2.4783 O   0  0  0  0  0  0  0  0  0  0  0  0
   -0.3561    2.0556    0.8160 C   0  0  0  0  0  0  0  0  0  0  0  0
   -1.3155    2.3984   -0.3236 C   0  0  0  0  0  0  0  0  0  0  0  0
   -1.8642    3.7977   -0.1975 C   0  0  0  0  0  0  0  0  0  0  0  0
   -1.6719    4.5203    0.7721 O   0  0  0  0  0  0  0  0  0  0  0  0
   -2.6184    4.1664   -1.2623 O   0  0  0  0  0  0  0  0  0  0  0  0
   -0.6087   -1.2764    1.1771 H   0  0  0  0  0  0  0  0  0  0  0  0
    0.6306    0.4506   -0.2562 H   0  0  0  0  0  0  0  0  0  0  0  0
   -0.8788    2.1858    1.7730 H   0  0  0  0  0  0  0  0  0  0  0  0
    0.4632    2.7865    0.8045 H   0  0  0  0  0  0  0  0  0  0  0  0
   -0.7826    2.3515   -1.2812 H   0  0  0  0  0  0  0  0  0  0  0  0
   -2.1303    1.6716   -0.4057 H   0  0  0  0  0  0  0  0  0  0  0  0
   -3.0101    5.0641   -1.2116 H   0  0  0  0  0  0  0  0  0  0  0  0
    1.5061   -0.9973    1.9756 N   0  0  0  0  0  0  0  0  0  0  0  0
    2.4527   -1.5171    2.9360 C   0  0  2  0  0  0  0  0  0  0  0  0
    3.7901   -1.6946    2.2295 C   0  0  0  0  0  0  0  0  0  0  0  0
    3.8940   -1.8158    1.0106 O   0  0  0  0  0  0  0  0  0  0  0  0
    1.9728   -2.8324    3.5297 C   0  0  0  0  0  0  0  0  0  0  0  0
    1.0048   -1.6556    1.3868 H   0  0  0  0  0  0  0  0  0  0  0  0
    2.5521   -0.7615    3.7229 H   0  0  0  0  0  0  0  0  0  0  0  0
    1.8672   -3.6018    2.7562 H   0  0  0  0  0  0  0  0  0  0  0  0
    2.6773   -3.2104    4.2779 H   0  0  0  0  0  0  0  0  0  0  0  0
    0.9969   -2.7094    4.0116 H   0  0  0  0  0  0  0  0  0  0  0  0
    4.8502   -1.7449    3.1238 N   0  0  0  0  0  0  0  0  0  0  0  0
    6.2198   -1.9203    2.7004 C   0  0  0  0  0  0  0  0  0  0  0  0
    4.6735   -1.6166    4.1158 H   0  0  0  0  0  0  0  0  0  0  0  0
    6.4725   -2.9908    2.7084 H   0  0  0  0  0  0  0  0  0  0  0  0
    6.3425   -1.5224    1.6822 H   0  0  0  0  0  0  0  0  0  0  0  0
    6.8880   -1.3808    3.3879 H   0  0  0  0  0  0  0  0  0  0  0  0
  1  3  1  0  0  0  0
  1  7  1  0  0  0  0
  1  2  2  0  0  0  0
 34 35  1  0  0  0  0
 35 43  1  0  0  0  0
 35 36  2  0  0  0  0
  8  9  1  0  0  0  0
  9 17  1  0  0  0  0
  9 10  2  0  0  0  0
 18 19  1  0  0  0  0
 19 33  1  0  0  0  0
 19 20  2  0  0  0  0
 22 23  1  0  0  0  0
 23 24  2  0  0  0  0
 23 25  1  0  0  0  0
 34 37  1  0  0  0  0
  8 11  1  0  0  0  0
 43 44  1  0  0  0  0
 21 22  1  0  0  0  0
 18 21  1  0  0  0  0
 33 34  1  0  0  0  0
  7  8  1  0  0  0  0
 17 18  1  0  0  0  0
  3  4  1  0  0  0  0
  3  5  1  0  0  0  0
  3  6  1  0  0  0  0
 37 40  1  0  0  0  0
 37 41  1  0  0  0  0
 37 42  1  0  0  0  0
 11 14  1  0  0  0  0
 11 15  1  0  0  0  0
 11 16  1  0  0  0  0
 44 46  1  0  0  0  0
 44 47  1  0  0  0  0
 44 48  1  0  0  0  0
 22 30  1  0  0  0  0
 22 31  1  0  0  0  0
 21 28  1  0  0  0  0
 21 29  1  0  0  0  0
 34 39  1  0  0  0  0
  8 13  1  0  0  0  0
 18 27  1  0  0  0  0
 43 45  1  0  0  0  0
  7 12  1  0  0  0  0
 33 38  1  0  0  0  0
 17 26  1  0  0  0  0
 25 32  1  0  0  0  0
M  END
$$$$

  -OEChem-05262214473D

 48 47  0     1  0  0  0  0  0999 V2000
   -5.5827   -1.3473    1.4591 C   0  0  0  0  0  0  0  0  0  0  0  0
   -5.7053   -2.4696    0.9825 O   0  0  0  0  0  0  0  0  0  0  0  0
   -6.7879   -0.6277    1.9670 C   0  0  0  0  0  0  0  0  0  0  0  0
   -7.2718   -0.0164    1.1885 H   0  0  0  0  0  0  0  0  0  0  0  0
   -7.5699   -1.3171    2.3239 H   0  0  0  0  0  0  0  0  0  0  0  0
   -6.6057    0.0628    2.8060 H   0  0  0  0  0  0  0  0  0  0  0  0
   -4.4001   -0.6377    1.5884 N   0  0  0  0  0  0  0  0  0  0  0  0
   -3.1220   -1.1455    1.1644 C   0  0  2  0  0  0  0  0  0  0  0  0
   -2.2017    0.0428    0.9187 C   0  0  0  0  0  0  0  0  0  0  0  0
   -2.6171    1.1750    0.6807 O   0  0  0  0  0  0  0  0  0  0  0  0
   -3.2533   -1.9992   -0.0873 C   0  0  0  0  0  0  0  0  0  0  0  0
   -4.4370    0.2910    2.0047 H   0  0  0  0  0  0  0  0  0  0  0  0
   -2.7302   -1.7467    1.9921 H   0  0  0  0  0  0  0  0  0  0  0  0
   -3.6446   -1.4140   -0.9275 H   0  0  0  0  0  0  0  0  0  0  0  0
   -2.2844   -2.4081   -0.3922 H   0  0  0  0  0  0  0  0  0  0  0  0
   -3.9388   -2.8365    0.0822 H   0  0  0  0  0  0  0  0  0  0  0  0
   -0.8768   -0.3314    0.9568 N   0  0  0  0  0  0  0  0  0  0  0  0
    0.2067    0.6285    0.7375 C   0  0  2  0  0  0  0  0  0  0  0  0
    1.2485    0.3565    1.8183 C   0  0  0  0  0  0  0  0  0  0  0  0
    1.5685    1.1990    2.6545 O   0  0  0  0  0  0  0  0  0  0  0  0
   -0.3561    2.0556    0.8160 C   0  0  0  0  0  0  0  0  0  0  0  0
   -1.3155    2.3984   -0.3236 C   0  0  0  0  0  0  0  0  0  0  0  0
   -1.8642    3.7977   -0.1975 C   0  0  0  0  0  0  0  0  0  0  0  0
   -1.6719    4.5203    0.7721 O   0  0  0  0  0  0  0  0  0  0  0  0
   -2.6184    4.1664   -1.2623 O   0  0  0  0  0  0  0  0  0  0  0  0
   -0.6087   -1.2764    1.1771 H   0  0  0  0  0  0  0  0  0  0  0  0
    0.6306    0.4506   -0.2562 H   0  0  0  0  0  0  0  0  0  0  0  0
   -0.8788    2.1858    1.7730 H   0  0  0  0  0  0  0  0  0  0  0  0
    0.4632    2.7865    0.8045 H   0  0  0  0  0  0  0  0  0  0  0  0
   -0.7826    2.3515   -1.2812 H   0  0  0  0  0  0  0  0  0  0  0  0
   -2.1303    1.6716   -0.4057 H   0  0  0  0  0  0  0  0  0  0  0  0
   -3.0101    5.0641   -1.2116 H   0  0  0  0  0  0  0  0  0  0  0  0
    1.7506   -0.9349    1.7556 N   0  0  0  0  0  0  0  0  0  0  0  0
    2.7490   -1.4418    2.6694 C   0  0  2  0  0  0  0  0  0  0  0  0
    4.1163   -1.2459    2.0280 C   0  0  0  0  0  0  0  0  0  0  0  0
    4.2772   -1.1238    0.8154 O   0  0  0  0  0  0  0  0  0  0  0  0
    2.5068   -2.9072    2.9961 C   0  0  0  0  0  0  0  0  0  0  0  0
    1.3994   -1.5548    1.0319 H   0  0  0  0  0  0  0  0  0  0  0  0
    2.6816   -0.8358    3.5794 H   0  0  0  0  0  0  0  0  0  0  0  0
    2.5704   -3.5302    2.0964 H   0  0  0  0  0  0  0  0  0  0  0  0
    3.2472   -3.2820    3.7106 H   0  0  0  0  0  0  0  0  0  0  0  0
    1.5113   -3.0505    3.4299 H   0  0  0  0  0  0  0  0  0  0  0  0
    5.1400   -1.2665    2.9648 N   0  0  0  0  0  0  0  0  0  0  0  0
    6.5302   -1.1139    2.6041 C   0  0  0  0  0  0  0  0  0  0  0  0
    4.9131   -1.3537    3.9511 H   0  0  0  0  0  0  0  0  0  0  0  0
    6.9788   -2.1054    2.4432 H   0  0  0  0  0  0  0  0  0  0  0  0
    6.6062   -0.5228    1.6796 H   0  0  0  0  0  0  0  0  0  0  0  0
    7.0646   -0.5970    3.4148 H   0  0  0  0  0  0  0  0  0  0  0  0
  1  3  1  0  0  0  0
  1  7  1  0  0  0  0
  1  2  2  0  0  0  0
 34 35  1  0  0  0  0
 35 43  1  0  0  0  0
 35 36  2  0  0  0  0
  8  9  1  0  0  0  0
  9 17  1  0  0  0  0
  9 10  2  0  0  0  0
 18 19  1  0  0  0  0
 19 33  1  0  0  0  0
 19 20  2  0  0  0  0
 22 23  1  0  0  0  0
 23 24  2  0  0  0  0
 23 25  1  0  0  0  0
 34 37  1  0  0  0  0
  8 11  1  0  0  0  0
 43 44  1  0  0  0  0
 21 22  1  0  0  0  0
 18 21  1  0  0  0  0
 33 34  1  0  0  0  0
  7  8  1  0  0  0  0
 17 18  1  0  0  0  0
  3  4  1  0  0  0  0
  3  5  1  0  0  0  0
  3  6  1  0  0  0  0
 37 40  1  0  0  0  0
 37 41  1  0  0  0  0
 37 42  1  0  0  0  0
 11 14  1  0  0  0  0
 11 15  1  0  0  0  0
 11 16  1  0  0  0  0
 44 46  1  0  0  0  0
 44 47  1  0  0  0  0
 44 48  1  0  0  0  0
 22 30  1  0  0  0  0
 22 31  1  0  0  0  0
 21 28  1  0  0  0  0
 21 29  1  0  0  0  0
 34 39  1  0  0  0  0
  8 13  1  0  0  0  0
 18 27  1  0  0  0  0
 43 45  1  0  0  0  0
  7 12  1  0  0  0  0
 33 38  1  0  0  0  0
 17 26  1  0  0  0  0
 25 32  1  0  0  0  0
M  END
$$$$

  -OEChem-05262214473D

 48 47  0     1  0  0  0  0  0999 V2000
   -5.5827   -1.3473    1.4591 C   0  0  0  0  0  0  0  0  0  0  0  0
   -5.7053   -2.4696    0.9825 O   0  0  0  0  0  0  0  0  0  0  0  0
   -6.7879   -0.6277    1.9670 C   0  0  0  0  0  0  0  0  0  0  0  0
   -7.2718   -0.0164    1.1885 H   0  0  0  0  0  0  0  0  0  0  0  0
   -7.5699   -1.3171    2.3239 H   0  0  0  0  0  0  0  0  0  0  0  0
   -6.6057    0.0628    2.8060 H   0  0  0  0  0  0  0  0  0  0  0  0
   -4.4001   -0.6377    1.5884 N   0  0  0  0  0  0  0  0  0  0  0  0
   -3.1220   -1.1455    1.1644 C   0  0  2  0  0  0  0  0  0  0  0  0
   -2.2017    0.0428    0.9187 C   0  0  0  0  0  0  0  0  0  0  0  0
   -2.6171    1.1750    0.6807 O   0  0  0  0  0  0  0  0  0  0  0  0
   -3.2533   -1.9992   -0.0873 C   0  0  0  0  0  0  0  0  0  0  0  0
   -4.4370    0.2910    2.0047 H   0  0  0  0  0  0  0  0  0  0  0  0
   -2.7302   -1.7467    1.9921 H   0  0  0  0  0  0  0  0  0  0  0  0
   -3.6446   -1.4140   -0.9275 H   0  0  0  0  0  0  0  0  0  0  0  0
   -2.2844   -2.4081   -0.3922 H   0  0  0  0  0  0  0  0  0  0  0  0
   -3.9388   -2.8365    0.0822 H   0  0  0  0  0  0  0  0  0  0  0  0
   -0.8768   -0.3314    0.9568 N   0  0  0  0  0  0  0  0  0  0  0  0
    0.2067    0.6285    0.7375 C   0  0  2  0  0  0  0  0  0  0  0  0
    1.2485    0.3565    1.8183 C   0  0  0  0  0  0  0  0  0  0  0  0
    1.3800    1.0772    2.8057 O   0  0  0  0  0  0  0  0  0  0  0  0
   -0.3561    2.0556    0.8160 C   0  0  0  0  0  0  0  0  0  0  0  0
   -1.3155    2.3984   -0.3236 C   0  0  0  0  0  0  0  0  0  0  0  0
   -1.8642    3.7977   -0.1975 C   0  0  0  0  0  0  0  0  0  0  0  0
   -1.6719    4.5203    0.7721 O   0  0  0  0  0  0  0  0  0  0  0  0
   -2.6184    4.1664   -1.2623 O   0  0  0  0  0  0  0  0  0  0  0  0
   -0.6087   -1.2764    1.1771 H   0  0  0  0  0  0  0  0  0  0  0  0
    0.6306    0.4506   -0.2562 H   0  0  0  0  0  0  0  0  0  0  0  0
   -0.8788    2.1858    1.7730 H   0  0  0  0  0  0  0  0  0  0  0  0
    0.4632    2.7865    0.8045 H   0  0  0  0  0  0  0  0  0  0  0  0
   -0.7826    2.3515   -1.2812 H   0  0  0  0  0  0  0  0  0  0  0  0
   -2.1303    1.6716   -0.4057 H   0  0  0  0  0  0  0  0  0  0  0  0
   -3.0101    5.0641   -1.2116 H   0  0  0  0  0  0  0  0  0  0  0  0
    1.9855   -0.7910    1.5654 N   0  0  0  0  0  0  0  0  0  0  0  0
    3.0336   -1.2677    2.4388 C   0  0  2  0  0  0  0  0  0  0  0  0
    4.3584   -0.7170    1.9277 C   0  0  0  0  0  0  0  0  0  0  0  0
    4.5294   -0.3506    0.7668 O   0  0  0  0  0  0  0  0  0  0  0  0
    3.0610   -2.7873    2.4921 C   0  0  0  0  0  0  0  0  0  0  0  0
    1.7783   -1.3223    0.7251 H   0  0  0  0  0  0  0  0  0  0  0  0
    2.8268   -0.8585    3.4337 H   0  0  0  0  0  0  0  0  0  0  0  0
    3.2669   -3.2154    1.5043 H   0  0  0  0  0  0  0  0  0  0  0  0
    3.8370   -3.1464    3.1762 H   0  0  0  0  0  0  0  0  0  0  0  0
    2.0976   -3.1827    2.8315 H   0  0  0  0  0  0  0  0  0  0  0  0
    5.3396   -0.7231    2.9092 N   0  0  0  0  0  0  0  0  0  0  0  0
    6.6866   -0.2611    2.6680 C   0  0  0  0  0  0  0  0  0  0  0  0
    5.1039   -1.0266    3.8495 H   0  0  0  0  0  0  0  0  0  0  0  0
    7.3176   -1.1104    2.3670 H   0  0  0  0  0  0  0  0  0  0  0  0
    6.6778    0.4915    1.8658 H   0  0  0  0  0  0  0  0  0  0  0  0
    7.0903    0.1877    3.5875 H   0  0  0  0  0  0  0  0  0  0  0  0
  1  3  1  0  0  0  0
  1  7  1  0  0  0  0
  1  2  2  0  0  0  0
 34 35  1  0  0  0  0
 35 43  1  0  0  0  0
 35 36  2  0  0  0  0
  8  9  1  0  0  0  0
  9 17  1  0  0  0  0
  9 10  2  0  0  0  0
 18 19  1  0  0  0  0
 19 33  1  0  0  0  0
 19 20  2  0  0  0  0
 22 23  1  0  0  0  0
 23 24  2  0  0  0  0
 23 25  1  0  0  0  0
 34 37  1  0  0  0  0
  8 11  1  0  0  0  0
 43 44  1  0  0  0  0
 21 22  1  0  0  0  0
 18 21  1  0  0  0  0
 33 34  1  0  0  0  0
  7  8  1  0  0  0  0
 17 18  1  0  0  0  0
  3  4  1  0  0  0  0
  3  5  1  0  0  0  0
  3  6  1  0  0  0  0
 37 40  1  0  0  0  0
 37 41  1  0  0  0  0
 37 42  1  0  0  0  0
 11 14  1  0  0  0  0
 11 15  1  0  0  0  0
 11 16  1  0  0  0  0
 44 46  1  0  0  0  0
 44 47  1  0  0  0  0
 44 48  1  0  0  0  0
 22 30  1  0  0  0  0
 22 31  1  0  0  0  0
 21 28  1  0  0  0  0
 21 29  1  0  0  0  0
 34 39  1  0  0  0  0
  8 13  1  0  0  0  0
 18 27  1  0  0  0  0
 43 45  1  0  0  0  0
  7 12  1  0  0  0  0
 33 38  1  0  0  0  0
 17 26  1  0  0  0  0
 25 32  1  0  0  0  0
M  END
$$$$

  -OEChem-05262214473D

 48 47  0     1  0  0  0  0  0999 V2000
   -5.5827   -1.3473    1.4591 C   0  0  0  0  0  0  0  0  0  0  0  0
   -5.7053   -2.4696    0.9825 O   0  0  0  0  0  0  0  0  0  0  0  0
   -6.7879   -0.6277    1.9670 C   0  0  0  0  0  0  0  0  0  0  0  0
   -7.2718   -0.0164    1.1885 H   0  0  0  0  0  0  0  0  0  0  0  0
   -7.5699   -1.3171    2.3239 H   0  0  0  0  0  0  0  0  0  0  0  0
   -6.6057    0.0628    2.8060 H   0  0  0  0  0  0  0  0  0  0  0  0
   -4.4001   -0.6377    1.5884 N   0  0  0  0  0  0  0  0  0  0  0  0
   -3.1220   -1.1455    1.1644 C   0  0  2  0  0  0  0  0  0  0  0  0
   -2.2017    0.0428    0.9187 C   0  0  0  0  0  0  0  0  0  0  0  0
   -2.6171    1.1750    0.6807 O   0  0  0  0  0  0  0  0  0  0  0  0
   -3.2533   -1.9992   -0.0873 C   0  0  0  0  0  0  0  0  0  0  0  0
   -4.4370    0.2910    2.0047 H   0  0  0  0  0  0  0  0  0  0  0  0
   -2.7302   -1.7467    1.9921 H   0  0  0  0  0  0  0  0  0  0  0  0
   -3.6446   -1.4140   -0.9275 H   0  0  0  0  0  0  0  0  0  0  0  0
   -2.2844   -2.4081   -0.3922 H   0  0  0  0  0  0  0  0  0  0  0  0
   -3.9388   -2.8365    0.0822 H   0  0  0  0  0  0  0  0  0  0  0  0
   -0.8768   -0.3314    0.9568 N   0  0  0  0  0  0  0  0  0  0  0  0
    0.2067    0.6285    0.7375 C   0  0  2  0  0  0  0  0  0  0  0  0
    1.2485    0.3565    1.8183 C   0  0  0  0  0  0  0  0  0  0  0  0
    1.2131    0.8982    2.9214 O   0  0  0  0  0  0  0  0  0  0  0  0
   -0.3561    2.0556    0.8160 C   0  0  0  0  0  0  0  0  0  0  0  0
   -1.3155    2.3984   -0.3236 C   0  0  0  0  0  0  0  0  0  0  0  0
   -1.8642    3.7977   -0.1975 C   0  0  0  0  0  0  0  0  0  0  0  0
   -1.6719    4.5203    0.7721 O   0  0  0  0  0  0  0  0  0  0  0  0
   -2.6184    4.1664   -1.2623 O   0  0  0  0  0  0  0  0  0  0  0  0
   -0.6087   -1.2764    1.1771 H   0  0  0  0  0  0  0  0  0  0  0  0
    0.6306    0.4506   -0.2562 H   0  0  0  0  0  0  0  0  0  0  0  0
   -0.8788    2.1858    1.7730 H   0  0  0  0  0  0  0  0  0  0  0  0
    0.4632    2.7865    0.8045 H   0  0  0  0  0  0  0  0  0  0  0  0
   -0.7826    2.3515   -1.2812 H   0  0  0  0  0  0  0  0  0  0  0  0
   -2.1303    1.6716   -0.4057 H   0  0  0  0  0  0  0  0  0  0  0  0
   -3.0101    5.0641   -1.2116 H   0  0  0  0  0  0  0  0  0  0  0  0
    2.1948   -0.5752    1.4180 N   0  0  0  0  0  0  0  0  0  0  0  0
    3.2873   -1.0065    2.2599 C   0  0  2  0  0  0  0  0  0  0  0  0
    4.4999   -0.1440    1.9355 C   0  0  0  0  0  0  0  0  0  0  0  0
    4.6335    0.4511    0.8682 O   0  0  0  0  0  0  0  0  0  0  0  0
    3.5976   -2.4807    2.0521 C   0  0  0  0  0  0  0  0  0  0  0  0
    2.1159   -0.9740    0.4873 H   0  0  0  0  0  0  0  0  0  0  0  0
    2.9781   -0.8280    3.2956 H   0  0  0  0  0  0  0  0  0  0  0  0
    3.9093   -2.6790    1.0201 H   0  0  0  0  0  0  0  0  0  0  0  0
    4.4064   -2.8127    2.7112 H   0  0  0  0  0  0  0  0  0  0  0  0
    2.7157   -3.0972    2.2572 H   0  0  0  0  0  0  0  0  0  0  0  0
    5.4353   -0.1518    2.9607 N   0  0  0  0  0  0  0  0  0  0  0  0
    6.6783    0.5800    2.8876 C   0  0  0  0  0  0  0  0  0  0  0  0
    5.2329   -0.6578    3.8179 H   0  0  0  0  0  0  0  0  0  0  0  0
    7.4661   -0.0736    2.4848 H   0  0  0  0  0  0  0  0  0  0  0  0
    6.5524    1.4514    2.2283 H   0  0  0  0  0  0  0  0  0  0  0  0
    6.9633    0.9199    3.8942 H   0  0  0  0  0  0  0  0  0  0  0  0
  1  3  1  0  0  0  0
  1  7  1  0  0  0  0
  1  2  2  0  0  0  0
 34 35  1  0  0  0  0
 35 43  1  0  0  0  0
 35 36  2  0  0  0  0
  8  9  1  0  0  0  0
  9 17  1  0  0  0  0
  9 10  2  0  0  0  0
 18 19  1  0  0  0  0
 19 33  1  0  0  0  0
 19 20  2  0  0  0  0
 22 23  1  0  0  0  0
 23 24  2  0  0  0  0
 23 25  1  0  0  0  0
 34 37  1  0  0  0  0
  8 11  1  0  0  0  0
 43 44  1  0  0  0  0
 21 22  1  0  0  0  0
 18 21  1  0  0  0  0
 33 34  1  0  0  0  0
  7  8  1  0  0  0  0
 17 18  1  0  0  0  0
  3  4  1  0  0  0  0
  3  5  1  0  0  0  0
  3  6  1  0  0  0  0
 37 40  1  0  0  0  0
 37 41  1  0  0  0  0
 37 42  1  0  0  0  0
 11 14  1  0  0  0  0
 11 15  1  0  0  0  0
 11 16  1  0  0  0  0
 44 46  1  0  0  0  0
 44 47  1  0  0  0  0
 44 48  1  0  0  0  0
 22 30  1  0  0  0  0
 22 31  1  0  0  0  0
 21 28  1  0  0  0  0
 21 29  1  0  0  0  0
 34 39  1  0  0  0  0
  8 13  1  0  0  0  0
 18 27  1  0  0  0  0
 43 45  1  0  0  0  0
  7 12  1  0  0  0  0
 33 38  1  0  0  0  0
 17 26  1  0  0  0  0
 25 32  1  0  0  0  0
M  END
$$$$

  -OEChem-05262214473D

 48 47  0     1  0  0  0  0  0999 V2000
   -5.5827   -1.3473    1.4591 C   0  0  0  0  0  0  0  0  0  0  0  0
   -5.7053   -2.4696    0.9825 O   0  0  0  0  0  0  0  0  0  0  0  0
   -6.7879   -0.6277    1.9670 C   0  0  0  0  0  0  0  0  0  0  0  0
   -7.2718   -0.0164    1.1885 H   0  0  0  0  0  0  0  0  0  0  0  0
   -7.5699   -1.3171    2.3239 H   0  0  0  0  0  0  0  0  0  0  0  0
   -6.6057    0.0628    2.8060 H   0  0  0  0  0  0  0  0  0  0  0  0
   -4.4001   -0.6377    1.5884 N   0  0  0  0  0  0  0  0  0  0  0  0
   -3.1220   -1.1455    1.1644 C   0  0  2  0  0  0  0  0  0  0  0  0
   -2.2017    0.0428    0.9187 C   0  0  0  0  0  0  0  0  0  0  0  0
   -2.6171    1.1750    0.6807 O   0  0  0  0  0  0  0  0  0  0  0  0
   -3.2533   -1.9992   -0.0873 C   0  0  0  0  0  0  0  0  0  0  0  0
   -4.4370    0.2910    2.0047 H   0  0  0  0  0  0  0  0  0  0  0  0
   -2.7302   -1.7467    1.9921 H   0  0  0  0  0  0  0  0  0  0  0  0
   -3.6446   -1.4140   -0.9275 H   0  0  0  0  0  0  0  0  0  0  0  0
   -2.2844   -2.4081   -0.3922 H   0  0  0  0  0  0  0  0  0  0  0  0
   -3.9388   -2.8365    0.0822 H   0  0  0  0  0  0  0  0  0  0  0  0
   -0.8768   -0.3314    0.9568 N   0  0  0  0  0  0  0  0  0  0  0  0
    0.2067    0.6285    0.7375 C   0  0  2  0  0  0  0  0  0  0  0  0
    1.2485    0.3565    1.8183 C   0  0  0  0  0  0  0  0  0  0  0  0
    1.0795    0.6743    2.9939 O   0  0  0  0  0  0  0  0  0  0  0  0
   -0.3561    2.0556    0.8160 C   0  0  0  0  0  0  0  0  0  0  0  0
   -1.3155    2.3984   -0.3236 C   0  0  0  0  0  0  0  0  0  0  0  0
   -1.8642    3.7977   -0.1975 C   0  0  0  0  0  0  0  0  0  0  0  0
   -1.6719    4.5203    0.7721 O   0  0  0  0  0  0  0  0  0  0  0  0
   -2.6184    4.1664   -1.2623 O   0  0  0  0  0  0  0  0  0  0  0  0
   -0.6087   -1.2764    1.1771 H   0  0  0  0  0  0  0  0  0  0  0  0
    0.6306    0.4506   -0.2562 H   0  0  0  0  0  0  0  0  0  0  0  0
   -0.8788    2.1858    1.7730 H   0  0  0  0  0  0  0  0  0  0  0  0
    0.4632    2.7865    0.8045 H   0  0  0  0  0  0  0  0  0  0  0  0
   -0.7826    2.3515   -1.2812 H   0  0  0  0  0  0  0  0  0  0  0  0
   -2.1303    1.6716   -0.4057 H   0  0  0  0  0  0  0  0  0  0  0  0
   -3.0101    5.0641   -1.2116 H   0  0  0  0  0  0  0  0  0  0  0  0
    2.3641   -0.3024    1.3233 N   0  0  0  0  0  0  0  0  0  0  0  0
    3.4927   -0.6761    2.1451 C   0  0  2  0  0  0  0  0  0  0  0  0
    4.5312    0.4339    2.0508 C   0  0  0  0  0  0  0  0  0  0  0  0
    4.5824    1.2266    1.1126 O   0  0  0  0  0  0  0  0  0  0  0  0
    4.0799   -2.0084    1.7060 C   0  0  0  0  0  0  0  0  0  0  0  0
    2.3891   -0.5337    0.3348 H   0  0  0  0  0  0  0  0  0  0  0  0
    3.1249   -0.7464    3.1745 H   0  0  0  0  0  0  0  0  0  0  0  0
    4.4537   -1.9575    0.6768 H   0  0  0  0  0  0  0  0  0  0  0  0
    4.9168   -2.3039    2.3473 H   0  0  0  0  0  0  0  0  0  0  0  0
    3.3236   -2.7998    1.7460 H   0  0  0  0  0  0  0  0  0  0  0  0
    5.4206    0.4084    3.1159 N   0  0  0  0  0  0  0  0  0  0  0  0
    6.5060    1.3521    3.2480 C   0  0  0  0  0  0  0  0  0  0  0  0
    5.2914   -0.2723    3.8586 H   0  0  0  0  0  0  0  0  0  0  0  0
    7.4139    0.9341    2.7887 H   0  0  0  0  0  0  0  0  0  0  0  0
    6.2385    2.2916    2.7423 H   0  0  0  0  0  0  0  0  0  0  0  0
    6.6922    1.5496    4.3140 H   0  0  0  0  0  0  0  0  0  0  0  0
  1  3  1  0  0  0  0
  1  7  1  0  0  0  0
  1  2  2  0  0  0  0
 34 35  1  0  0  0  0
 35 43  1  0  0  0  0
 35 36  2  0  0  0  0
  8  9  1  0  0  0  0
  9 17  1  0  0  0  0
  9 10  2  0  0  0  0
 18 19  1  0  0  0  0
 19 33  1  0  0  0  0
 19 20  2  0  0  0  0
 22 23  1  0  0  0  0
 23 24  2  0  0  0  0
 23 25  1  0  0  0  0
 34 37  1  0  0  0  0
  8 11  1  0  0  0  0
 43 44  1  0  0  0  0
 21 22  1  0  0  0  0
 18 21  1  0  0  0  0
 33 34  1  0  0  0  0
  7  8  1  0  0  0  0
 17 18  1  0  0  0  0
  3  4  1  0  0  0  0
  3  5  1  0  0  0  0
  3  6  1  0  0  0  0
 37 40  1  0  0  0  0
 37 41  1  0  0  0  0
 37 42  1  0  0  0  0
 11 14  1  0  0  0  0
 11 15  1  0  0  0  0
 11 16  1  0  0  0  0
 44 46  1  0  0  0  0
 44 47  1  0  0  0  0
 44 48  1  0  0  0  0
 22 30  1  0  0  0  0
 22 31  1  0  0  0  0
 21 28  1  0  0  0  0
 21 29  1  0  0  0  0
 34 39  1  0  0  0  0
  8 13  1  0  0  0  0
 18 27  1  0  0  0  0
 43 45  1  0  0  0  0
  7 12  1  0  0  0  0
 33 38  1  0  0  0  0
 17 26  1  0  0  0  0
 25 32  1  0  0  0  0
M  END
$$$$

  -OEChem-05262214473D

 48 47  0     1  0  0  0  0  0999 V2000
   -5.5827   -1.3473    1.4591 C   0  0  0  0  0  0  0  0  0  0  0  0
   -5.7053   -2.4696    0.9825 O   0  0  0  0  0  0  0  0  0  0  0  0
   -6.7879   -0.6277    1.9670 C   0  0  0  0  0  0  0  0  0  0  0  0
   -7.2718   -0.0164    1.1885 H   0  0  0  0  0  0  0  0  0  0  0  0
   -7.5699   -1.3171    2.3239 H   0  0  0  0  0  0  0  0  0  0  0  0
   -6.6057    0.0628    2.8060 H   0  0  0  0  0  0  0  0  0  0  0  0
   -4.4001   -0.6377    1.5884 N   0  0  0  0  0  0  0  0  0  0  0  0
   -3.1220   -1.1455    1.1644 C   0  0  2  0  0  0  0  0  0  0  0  0
   -2.2017    0.0428    0.9187 C   0  0  0  0  0  0  0  0  0  0  0  0
   -2.6171    1.1750    0.6807 O   0  0  0  0  0  0  0  0  0  0  0  0
   -3.2533   -1.9992   -0.0873 C   0  0  0  0  0  0  0  0  0  0  0  0
   -4.4370    0.2910    2.0047 H   0  0  0  0  0  0  0  0  0  0  0  0
   -2.7302   -1.7467    1.9921 H   0  0  0  0  0  0  0  0  0  0  0  0
   -3.6446   -1.4140   -0.9275 H   0  0  0  0  0  0  0  0  0  0  0  0
   -2.2844   -2.4081   -0.3922 H   0  0  0  0  0  0  0  0  0  0  0  0
   -3.9388   -2.8365    0.0822 H   0  0  0  0  0  0  0  0  0  0  0  0
   -0.8768   -0.3314    0.9568 N   0  0  0  0  0  0  0  0  0  0  0  0
    0.2067    0.6285    0.7375 C   0  0  2  0  0  0  0  0  0  0  0  0
    1.2485    0.3565    1.8183 C   0  0  0  0  0  0  0  0  0  0  0  0
    0.9881    0.4207    3.0181 O   0  0  0  0  0  0  0  0  0  0  0  0
   -0.3561    2.0556    0.8160 C   0  0  0  0  0  0  0  0  0  0  0  0
   -1.3155    2.3984   -0.3236 C   0  0  0  0  0  0  0  0  0  0  0  0
   -1.8642    3.7977   -0.1975 C   0  0  0  0  0  0  0  0  0  0  0  0
   -1.6719    4.5203    0.7721 O   0  0  0  0  0  0  0  0  0  0  0  0
   -2.6184    4.1664   -1.2623 O   0  0  0  0  0  0  0  0  0  0  0  0
   -0.6087   -1.2764    1.1771 H   0  0  0  0  0  0  0  0  0  0  0  0
    0.6306    0.4506   -0.2562 H   0  0  0  0  0  0  0  0  0  0  0  0
   -0.8788    2.1858    1.7730 H   0  0  0  0  0  0  0  0  0  0  0  0
    0.4632    2.7865    0.8045 H   0  0  0  0  0  0  0  0  0  0  0  0
   -0.7826    2.3515   -1.2812 H   0  0  0  0  0  0  0  0  0  0  0  0
   -2.1303    1.6716   -0.4057 H   0  0  0  0  0  0  0  0  0  0  0  0
   -3.0101    5.0641   -1.2116 H   0  0  0  0  0  0  0  0  0  0  0  0
    2.4821    0.0089    1.2880 N   0  0  0  0  0  0  0  0  0  0  0  0
    3.6359   -0.2990    2.1020 C   0  0  2  0  0  0  0  0  0  0  0  0
    4.4501    0.9776    2.2658 C   0  0  0  0  0  0  0  0  0  0  0  0
    4.3796    1.9231    1.4834 O   0  0  0  0  0  0  0  0  0  0  0  0
    4.4752   -1.4027    1.4774 C   0  0  0  0  0  0  0  0  0  0  0  0
    2.5793   -0.0313    0.2779 H   0  0  0  0  0  0  0  0  0  0  0  0
    3.2574   -0.6193    3.0789 H   0  0  0  0  0  0  0  0  0  0  0  0
    4.8632   -1.1001    0.4979 H   0  0  0  0  0  0  0  0  0  0  0  0
    5.3333   -1.6545    2.1093 H   0  0  0  0  0  0  0  0  0  0  0  0
    3.8799   -2.3107    1.3329 H   0  0  0  0  0  0  0  0  0  0  0  0
    5.2965    0.9195    3.3641 N   0  0  0  0  0  0  0  0  0  0  0  0
    6.1813    2.0026    3.7247 C   0  0  0  0  0  0  0  0  0  0  0  0
    5.2752    0.1036    3.9687 H   0  0  0  0  0  0  0  0  0  0  0  0
    7.1647    1.8443    3.2579 H   0  0  0  0  0  0  0  0  0  0  0  0
    5.7575    2.9547    3.3728 H   0  0  0  0  0  0  0  0  0  0  0  0
    6.2955    2.0340    4.8183 H   0  0  0  0  0  0  0  0  0  0  0  0
  1  3  1  0  0  0  0
  1  7  1  0  0  0  0
  1  2  2  0  0  0  0
 34 35  1  0  0  0  0
 35 43  1  0  0  0  0
 35 36  2  0  0  0  0
  8  9  1  0  0  0  0
  9 17  1  0  0  0  0
  9 10  2  0  0  0  0
 18 19  1  0  0  0  0
 19 33  1  0  0  0  0
 19 20  2  0  0  0  0
 22 23  1  0  0  0  0
 23 24  2  0  0  0  0
 23 25  1  0  0  0  0
 34 37  1  0  0  0  0
  8 11  1  0  0  0  0
 43 44  1  0  0  0  0
 21 22  1  0  0  0  0
 18 21  1  0  0  0  0
 33 34  1  0  0  0  0
  7  8  1  0  0  0  0
 17 18  1  0  0  0  0
  3  4  1  0  0  0  0
  3  5  1  0  0  0  0
  3  6  1  0  0  0  0
 37 40  1  0  0  0  0
 37 41  1  0  0  0  0
 37 42  1  0  0  0  0
 11 14  1  0  0  0  0
 11 15  1  0  0  0  0
 11 16  1  0  0  0  0
 44 46  1  0  0  0  0
 44 47  1  0  0  0  0
 44 48  1  0  0  0  0
 22 30  1  0  0  0  0
 22 31  1  0  0  0  0
 21 28  1  0  0  0  0
 21 29  1  0  0  0  0
 34 39  1  0  0  0  0
  8 13  1  0  0  0  0
 18 27  1  0  0  0  0
 43 45  1  0  0  0  0
  7 12  1  0  0  0  0
 33 38  1  0  0  0  0
 17 26  1  0  0  0  0
 25 32  1  0  0  0  0
M  END
$$$$

  -OEChem-05262214473D

 48 47  0     1  0  0  0  0  0999 V2000
   -5.5827   -1.3473    1.4591 C   0  0  0  0  0  0  0  0  0  0  0  0
   -5.7053   -2.4696    0.9825 O   0  0  0  0  0  0  0  0  0  0  0  0
   -6.7879   -0.6277    1.9670 C   0  0  0  0  0  0  0  0  0  0  0  0
   -7.2718   -0.0164    1.1885 H   0  0  0  0  0  0  0  0  0  0  0  0
   -7.5699   -1.3171    2.3239 H   0  0  0  0  0  0  0  0  0  0  0  0
   -6.6057    0.0628    2.8060 H   0  0  0  0  0  0  0  0  0  0  0  0
   -4.4001   -0.6377    1.5884 N   0  0  0  0  0  0  0  0  0  0  0  0
   -3.1220   -1.1455    1.1644 C   0  0  2  0  0  0  0  0  0  0  0  0
   -2.2017    0.0428    0.9187 C   0  0  0  0  0  0  0  0  0  0  0  0
   -2.6171    1.1750    0.6807 O   0  0  0  0  0  0  0  0  0  0  0  0
   -3.2533   -1.9992   -0.0873 C   0  0  0  0  0  0  0  0  0  0  0  0
   -4.4370    0.2910    2.0047 H   0  0  0  0  0  0  0  0  0  0  0  0
   -2.7302   -1.7467    1.9921 H   0  0  0  0  0  0  0  0  0  0  0  0
   -3.6446   -1.4140   -0.9275 H   0  0  0  0  0  0  0  0  0  0  0  0
   -2.2844   -2.4081   -0.3922 H   0  0  0  0  0  0  0  0  0  0  0  0
   -3.9388   -2.8365    0.0822 H   0  0  0  0  0  0  0  0  0  0  0  0
   -0.8768   -0.3314    0.9568 N   0  0  0  0  0  0  0  0  0  0  0  0
    0.2067    0.6285    0.7375 C   0  0  2  0  0  0  0  0  0  0  0  0
    1.2485    0.3565    1.8183 C   0  0  0  0  0  0  0  0  0  0  0  0
    0.9453    0.1547    2.9925 O   0  0  0  0  0  0  0  0  0  0  0  0
   -0.3561    2.0556    0.8160 C   0  0  0  0  0  0  0  0  0  0  0  0
   -1.3155    2.3984   -0.3236 C   0  0  0  0  0  0  0  0  0  0  0  0
   -1.8642    3.7977   -0.1975 C   0  0  0  0  0  0  0  0  0  0  0  0
   -1.6719    4.5203    0.7721 O   0  0  0  0  0  0  0  0  0  0  0  0
   -2.6184    4.1664   -1.2623 O   0  0  0  0  0  0  0  0  0  0  0  0
   -0.6087   -1.2764    1.1771 H   0  0  0  0  0  0  0  0  0  0  0  0
    0.6306    0.4506   -0.2562 H   0  0  0  0  0  0  0  0  0  0  0  0
   -0.8788    2.1858    1.7730 H   0  0  0  0  0  0  0  0  0  0  0  0
    0.4632    2.7865    0.8045 H   0  0  0  0  0  0  0  0  0  0  0  0
   -0.7826    2.3515   -1.2812 H   0  0  0  0  0  0  0  0  0  0  0  0
   -2.1303    1.6716   -0.4057 H   0  0  0  0  0  0  0  0  0  0  0  0
   -3.0101    5.0641   -1.2116 H   0  0  0  0  0  0  0  0  0  0  0  0
    2.5406    0.3374    1.3143 N   0  0  0  0  0  0  0  0  0  0  0  0
    3.7070    0.0991    2.1337 C   0  0  2  0  0  0  0  0  0  0  0  0
    4.2621    1.4499    2.5658 C   0  0  0  0  0  0  0  0  0  0  0  0
    4.0388    2.4932    1.9553 O   0  0  0  0  0  0  0  0  0  0  0  0
    4.7565   -0.7046    1.3819 C   0  0  0  0  0  0  0  0  0  0  0  0
    2.6735    0.4988    0.3205 H   0  0  0  0  0  0  0  0  0  0  0  0
    3.3664   -0.4553    3.0150 H   0  0  0  0  0  0  0  0  0  0  0  0
    5.1098   -0.1652    0.4955 H   0  0  0  0  0  0  0  0  0  0  0  0
    5.6274   -0.9088    2.0134 H   0  0  0  0  0  0  0  0  0  0  0  0
    4.3466   -1.6632    1.0460 H   0  0  0  0  0  0  0  0  0  0  0  0
    5.0715    1.3465    3.6884 N   0  0  0  0  0  0  0  0  0  0  0  0
    5.7264    2.4872    4.2851 C   0  0  0  0  0  0  0  0  0  0  0  0
    5.1857    0.4442    4.1408 H   0  0  0  0  0  0  0  0  0  0  0  0
    6.7355    2.5949    3.8605 H   0  0  0  0  0  0  0  0  0  0  0  0
    5.1422    3.3956    4.0768 H   0  0  0  0  0  0  0  0  0  0  0  0
    5.8002    2.3400    5.3727 H   0  0  0  0  0  0  0  0  0  0  0  0
  1  3  1  0  0  0  0
  1  7  1  0  0  0  0
  1  2  2  0  0  0  0
 34 35  1  0  0  0  0
 35 43  1  0  0  0  0
 35 36  2  0  0  0  0
  8  9  1  0  0  0  0
  9 17  1  0  0  0  0
  9 10  2  0  0  0  0
 18 19  1  0  0  0  0
 19 33  1  0  0  0  0
 19 20  2  0  0  0  0
 22 23  1  0  0  0  0
 23 24  2  0  0  0  0
 23 25  1  0  0  0  0
 34 37  1  0  0  0  0
  8 11  1  0  0  0  0
 43 44  1  0  0  0  0
 21 22  1  0  0  0  0
 18 21  1  0  0  0  0
 33 34  1  0  0  0  0
  7  8  1  0  0  0  0
 17 18  1  0  0  0  0
  3  4  1  0  0  0  0
  3  5  1  0  0  0  0
  3  6  1  0  0  0  0
 37 40  1  0  0  0  0
 37 41  1  0  0  0  0
 37 42  1  0  0  0  0
 11 14  1  0  0  0  0
 11 15  1  0  0  0  0
 11 16  1  0  0  0  0
 44 46  1  0  0  0  0
 44 47  1  0  0  0  0
 44 48  1  0  0  0  0
 22 30  1  0  0  0  0
 22 31  1  0  0  0  0
 21 28  1  0  0  0  0
 21 29  1  0  0  0  0
 34 39  1  0  0  0  0
  8 13  1  0  0  0  0
 18 27  1  0  0  0  0
 43 45  1  0  0  0  0
  7 12  1  0  0  0  0
 33 38  1  0  0  0  0
 17 26  1  0  0  0  0
 25 32  1  0  0  0  0
M  END
$$$$

  -OEChem-05262214473D

 48 47  0     1  0  0  0  0  0999 V2000
   -5.5827   -1.3473    1.4591 C   0  0  0  0  0  0  0  0  0  0  0  0
   -5.7053   -2.4696    0.9825 O   0  0  0  0  0  0  0  0  0  0  0  0
   -6.7879   -0.6277    1.9670 C   0  0  0  0  0  0  0  0  0  0  0  0
   -7.2718   -0.0164    1.1885 H   0  0  0  0  0  0  0  0  0  0  0  0
   -7.5699   -1.3171    2.3239 H   0  0  0  0  0  0  0  0  0  0  0  0
   -6.6057    0.0628    2.8060 H   0  0  0  0  0  0  0  0  0  0  0  0
   -4.4001   -0.6377    1.5884 N   0  0  0  0  0  0  0  0  0  0  0  0
   -3.1220   -1.1455    1.1644 C   0  0  2  0  0  0  0  0  0  0  0  0
   -2.2017    0.0428    0.9187 C   0  0  0  0  0  0  0  0  0  0  0  0
   -2.6171    1.1750    0.6807 O   0  0  0  0  0  0  0  0  0  0  0  0
   -3.2533   -1.9992   -0.0873 C   0  0  0  0  0  0  0  0  0  0  0  0
   -4.4370    0.2910    2.0047 H   0  0  0  0  0  0  0  0  0  0  0  0
   -2.7302   -1.7467    1.9921 H   0  0  0  0  0  0  0  0  0  0  0  0
   -3.6446   -1.4140   -0.9275 H   0  0  0  0  0  0  0  0  0  0  0  0
   -2.2844   -2.4081   -0.3922 H   0  0  0  0  0  0  0  0  0  0  0  0
   -3.9388   -2.8365    0.0822 H   0  0  0  0  0  0  0  0  0  0  0  0
   -0.8768   -0.3314    0.9568 N   0  0  0  0  0  0  0  0  0  0  0  0
    0.2067    0.6285    0.7375 C   0  0  2  0  0  0  0  0  0  0  0  0
    1.2485    0.3565    1.8183 C   0  0  0  0  0  0  0  0  0  0  0  0
    0.9538   -0.1056    2.9188 O   0  0  0  0  0  0  0  0  0  0  0  0
   -0.3561    2.0556    0.8160 C   0  0  0  0  0  0  0  0  0  0  0  0
   -1.3155    2.3984   -0.3236 C   0  0  0  0  0  0  0  0  0  0  0  0
   -1.8642    3.7977   -0.1975 C   0  0  0  0  0  0  0  0  0  0  0  0
   -1.6719    4.5203    0.7721 O   0  0  0  0  0  0  0  0  0  0  0  0
   -2.6184    4.1664   -1.2623 O   0  0  0  0  0  0  0  0  0  0  0  0
   -0.6087   -1.2764    1.1771 H   0  0  0  0  0  0  0  0  0  0  0  0
    0.6306    0.4506   -0.2562 H   0  0  0  0  0  0  0  0  0  0  0  0
   -0.8788    2.1858    1.7730 H   0  0  0  0  0  0  0  0  0  0  0  0
    0.4632    2.7865    0.8045 H   0  0  0  0  0  0  0  0  0  0  0  0
   -0.7826    2.3515   -1.2812 H   0  0  0  0  0  0  0  0  0  0  0  0
   -2.1303    1.6716   -0.4057 H   0  0  0  0  0  0  0  0  0  0  0  0
   -3.0101    5.0641   -1.2116 H   0  0  0  0  0  0  0  0  0  0  0  0
    2.5356    0.6609    1.4004 N   0  0  0  0  0  0  0  0  0  0  0  0
    3.7012    0.4911    2.2379 C   0  0  2  0  0  0  0  0  0  0  0  0
    3.9802    1.8186    2.9303 C   0  0  0  0  0  0  0  0  0  0  0  0
    3.5834    2.8980    2.4962 O   0  0  0  0  0  0  0  0  0  0  0  0
    4.9046    0.0381    1.4260 C   0  0  0  0  0  0  0  0  0  0  0  0
    2.6654    1.0207    0.4597 H   0  0  0  0  0  0  0  0  0  0  0  0
    3.4446   -0.2656    2.9873 H   0  0  0  0  0  0  0  0  0  0  0  0
    5.1766    0.7835    0.6698 H   0  0  0  0  0  0  0  0  0  0  0  0
    5.7793   -0.1176    2.0661 H   0  0  0  0  0  0  0  0  0  0  0  0
    4.6918   -0.9016    0.9049 H   0  0  0  0  0  0  0  0  0  0  0  0
    4.7609    1.6604    4.0668 N   0  0  0  0  0  0  0  0  0  0  0  0
    5.1723    2.7728    4.8911 C   0  0  0  0  0  0  0  0  0  0  0  0
    5.0288    0.7264    4.3630 H   0  0  0  0  0  0  0  0  0  0  0  0
    6.1554    3.1346    4.5555 H   0  0  0  0  0  0  0  0  0  0  0  0
    4.4346    3.5843    4.8064 H   0  0  0  0  0  0  0  0  0  0  0  0
    5.2401    2.4468    5.9395 H   0  0  0  0  0  0  0  0  0  0  0  0
  1  3  1  0  0  0  0
  1  7  1  0  0  0  0
  1  2  2  0  0  0  0
 34 35  1  0  0  0  0
 35 43  1  0  0  0  0
 35 36  2  0  0  0  0
  8  9  1  0  0  0  0
  9 17  1  0  0  0  0
  9 10  2  0  0  0  0
 18 19  1  0  0  0  0
 19 33  1  0  0  0  0
 19 20  2  0  0  0  0
 22 23  1  0  0  0  0
 23 24  2  0  0  0  0
 23 25  1  0  0  0  0
 34 37  1  0  0  0  0
  8 11  1  0  0  0  0
 43 44  1  0  0  0  0
 21 22  1  0  0  0  0
 18 21  1  0  0  0  0
 33 34  1  0  0  0  0
  7  8  1  0  0  0  0
 17 18  1  0  0  0  0
  3  4  1  0  0  0  0
  3  5  1  0  0  0  0
  3  6  1  0  0  0  0
 37 40  1  0  0  0  0
 37 41  1  0  0  0  0
 37 42  1  0  0  0  0
 11 14  1  0  0  0  0
 11 15  1  0  0  0  0
 11 16  1  0  0  0  0
 44 46  1  0  0  0  0
 44 47  1  0  0  0  0
 44 48  1  0  0  0  0
 22 30  1  0  0  0  0
 22 31  1  0  0  0  0
 21 28  1  0  0  0  0
 21 29  1  0  0  0  0
 34 39  1  0  0  0  0
  8 13  1  0  0  0  0
 18 27  1  0  0  0  0
 43 45  1  0  0  0  0
  7 12  1  0  0  0  0
 33 38  1  0  0  0  0
 17 26  1  0  0  0  0
 25 32  1  0  0  0  0
M  END
$$$$

  -OEChem-05262214473D

 48 47  0     1  0  0  0  0  0999 V2000
   -5.5827   -1.3473    1.4591 C   0  0  0  0  0  0  0  0  0  0  0  0
   -5.7053   -2.4696    0.9825 O   0  0  0  0  0  0  0  0  0  0  0  0
   -6.7879   -0.6277    1.9670 C   0  0  0  0  0  0  0  0  0  0  0  0
   -7.2718   -0.0164    1.1885 H   0  0  0  0  0  0  0  0  0  0  0  0
   -7.5699   -1.3171    2.3239 H   0  0  0  0  0  0  0  0  0  0  0  0
   -6.6057    0.0628    2.8060 H   0  0  0  0  0  0  0  0  0  0  0  0
   -4.4001   -0.6377    1.5884 N   0  0  0  0  0  0  0  0  0  0  0  0
   -3.1220   -1.1455    1.1644 C   0  0  2  0  0  0  0  0  0  0  0  0
   -2.2017    0.0428    0.9187 C   0  0  0  0  0  0  0  0  0  0  0  0
   -2.6171    1.1750    0.6807 O   0  0  0  0  0  0  0  0  0  0  0  0
   -3.2533   -1.9992   -0.0873 C   0  0  0  0  0  0  0  0  0  0  0  0
   -4.4370    0.2910    2.0047 H   0  0  0  0  0  0  0  0  0  0  0  0
   -2.7302   -1.7467    1.9921 H   0  0  0  0  0  0  0  0  0  0  0  0
   -3.6446   -1.4140   -0.9275 H   0  0  0  0  0  0  0  0  0  0  0  0
   -2.2844   -2.4081   -0.3922 H   0  0  0  0  0  0  0  0  0  0  0  0
   -3.9388   -2.8365    0.0822 H   0  0  0  0  0  0  0  0  0  0  0  0
   -0.8768   -0.3314    0.9568 N   0  0  0  0  0  0  0  0  0  0  0  0
    0.2067    0.6285    0.7375 C   0  0  2  0  0  0  0  0  0  0  0  0
    1.2485    0.3565    1.8183 C   0  0  0  0  0  0  0  0  0  0  0  0
    1.0132   -0.3424    2.8020 O   0  0  0  0  0  0  0  0  0  0  0  0
   -0.3561    2.0556    0.8160 C   0  0  0  0  0  0  0  0  0  0  0  0
   -1.3155    2.3984   -0.3236 C   0  0  0  0  0  0  0  0  0  0  0  0
   -1.8642    3.7977   -0.1975 C   0  0  0  0  0  0  0  0  0  0  0  0
   -1.6719    4.5203    0.7721 O   0  0  0  0  0  0  0  0  0  0  0  0
   -2.6184    4.1664   -1.2623 O   0  0  0  0  0  0  0  0  0  0  0  0
   -0.6087   -1.2764    1.1771 H   0  0  0  0  0  0  0  0  0  0  0  0
    0.6306    0.4506   -0.2562 H   0  0  0  0  0  0  0  0  0  0  0  0
   -0.8788    2.1858    1.7730 H   0  0  0  0  0  0  0  0  0  0  0  0
    0.4632    2.7865    0.8045 H   0  0  0  0  0  0  0  0  0  0  0  0
   -0.7826    2.3515   -1.2812 H   0  0  0  0  0  0  0  0  0  0  0  0
   -2.1303    1.6716   -0.4057 H   0  0  0  0  0  0  0  0  0  0  0  0
   -3.0101    5.0641   -1.2116 H   0  0  0  0  0  0  0  0  0  0  0  0
    2.4676    0.9571    1.5406 N   0  0  0  0  0  0  0  0  0  0  0  0
    3.6189    0.8502    2.4076 C   0  0  2  0  0  0  0  0  0  0  0  0
    3.6234    2.0585    3.3346 C   0  0  0  0  0  0  0  0  0  0  0  0
    3.0443    3.1098    3.0692 O   0  0  0  0  0  0  0  0  0  0  0  0
    4.9095    0.7748    1.6067 C   0  0  0  0  0  0  0  0  0  0  0  0
    2.5554    1.4987    0.6860 H   0  0  0  0  0  0  0  0  0  0  0  0
    3.4867   -0.0631    2.9977 H   0  0  0  0  0  0  0  0  0  0  0  0
    5.0592    1.6813    1.0089 H   0  0  0  0  0  0  0  0  0  0  0  0
    5.7785    0.6651    2.2639 H   0  0  0  0  0  0  0  0  0  0  0  0
    4.8922   -0.0776    0.9191 H   0  0  0  0  0  0  0  0  0  0  0  0
    4.3859    1.8398    4.4735 N   0  0  0  0  0  0  0  0  0  0  0  0
    4.5568    2.8399    5.5013 C   0  0  0  0  0  0  0  0  0  0  0  0
    4.8152    0.9310    4.6204 H   0  0  0  0  0  0  0  0  0  0  0  0
    5.4641    3.4268    5.2954 H   0  0  0  0  0  0  0  0  0  0  0  0
    3.6828    3.5078    5.5118 H   0  0  0  0  0  0  0  0  0  0  0  0
    4.6533    2.3470    6.4799 H   0  0  0  0  0  0  0  0  0  0  0  0
  1  3  1  0  0  0  0
  1  7  1  0  0  0  0
  1  2  2  0  0  0  0
 34 35  1  0  0  0  0
 35 43  1  0  0  0  0
 35 36  2  0  0  0  0
  8  9  1  0  0  0  0
  9 17  1  0  0  0  0
  9 10  2  0  0  0  0
 18 19  1  0  0  0  0
 19 33  1  0  0  0  0
 19 20  2  0  0  0  0
 22 23  1  0  0  0  0
 23 24  2  0  0  0  0
 23 25  1  0  0  0  0
 34 37  1  0  0  0  0
  8 11  1  0  0  0  0
 43 44  1  0  0  0  0
 21 22  1  0  0  0  0
 18 21  1  0  0  0  0
 33 34  1  0  0  0  0
  7  8  1  0  0  0  0
 17 18  1  0  0  0  0
  3  4  1  0  0  0  0
  3  5  1  0  0  0  0
  3  6  1  0  0  0  0
 37 40  1  0  0  0  0
 37 41  1  0  0  0  0
 37 42  1  0  0  0  0
 11 14  1  0  0  0  0
 11 15  1  0  0  0  0
 11 16  1  0  0  0  0
 44 46  1  0  0  0  0
 44 47  1  0  0  0  0
 44 48  1  0  0  0  0
 22 30  1  0  0  0  0
 22 31  1  0  0  0  0
 21 28  1  0  0  0  0
 21 29  1  0  0  0  0
 34 39  1  0  0  0  0
  8 13  1  0  0  0  0
 18 27  1  0  0  0  0
 43 45  1  0  0  0  0
  7 12  1  0  0  0  0
 33 38  1  0  0  0  0
 17 26  1  0  0  0  0
 25 32  1  0  0  0  0
M  END
$$$$

  -OEChem-05262214473D

 48 47  0     1  0  0  0  0  0999 V2000
   -5.5827   -1.3473    1.4591 C   0  0  0  0  0  0  0  0  0  0  0  0
   -5.7053   -2.4696    0.9825 O   0  0  0  0  0  0  0  0  0  0  0  0
   -6.7879   -0.6277    1.9670 C   0  0  0  0  0  0  0  0  0  0  0  0
   -7.2718   -0.0164    1.1885 H   0  0  0  0  0  0  0  0  0  0  0  0
   -7.5699   -1.3171    2.3239 H   0  0  0  0  0  0  0  0  0  0  0  0
   -6.6057    0.0628    2.8060 H   0  0  0  0  0  0  0  0  0  0  0  0
   -4.4001   -0.6377    1.5884 N   0  0  0  0  0  0  0  0  0  0  0  0
   -3.1220   -1.1455    1.1644 C   0  0  2  0  0  0  0  0  0  0  0  0
   -2.2017    0.0428    0.9187 C   0  0  0  0  0  0  0  0  0  0  0  0
   -2.6171    1.1750    0.6807 O   0  0  0  0  0  0  0  0  0  0  0  0
   -3.2533   -1.9992   -0.0873 C   0  0  0  0  0  0  0  0  0  0  0  0
   -4.4370    0.2910    2.0047 H   0  0  0  0  0  0  0  0  0  0  0  0
   -2.7302   -1.7467    1.9921 H   0  0  0  0  0  0  0  0  0  0  0  0
   -3.6446   -1.4140   -0.9275 H   0  0  0  0  0  0  0  0  0  0  0  0
   -2.2844   -2.4081   -0.3922 H   0  0  0  0  0  0  0  0  0  0  0  0
   -3.9388   -2.8365    0.0822 H   0  0  0  0  0  0  0  0  0  0  0  0
   -0.8768   -0.3314    0.9568 N   0  0  0  0  0  0  0  0  0  0  0  0
    0.2067    0.6285    0.7375 C   0  0  2  0  0  0  0  0  0  0  0  0
    1.3968    0.1280    1.5504 C   0  0  0  0  0  0  0  0  0  0  0  0
    1.3580   -0.9099    2.2082 O   0  0  0  0  0  0  0  0  0  0  0  0
   -0.2555    2.0251    1.1796 C   0  0  0  0  0  0  0  0  0  0  0  0
   -1.3702    2.6046    0.3089 C   0  0  0  0  0  0  0  0  0  0  0  0
   -1.8122    3.9644    0.7893 C   0  0  0  0  0  0  0  0  0  0  0  0
   -1.4220    4.4798    1.8292 O   0  0  0  0  0  0  0  0  0  0  0  0
   -2.7110    4.5502   -0.0398 O   0  0  0  0  0  0  0  0  0  0  0  0
   -0.6087   -1.2764    1.1771 H   0  0  0  0  0  0  0  0  0  0  0  0
    0.4494    0.6383   -0.3302 H   0  0  0  0  0  0  0  0  0  0  0  0
   -0.6041    1.9779    2.2199 H   0  0  0  0  0  0  0  0  0  0  0  0
    0.5897    2.7258    1.1639 H   0  0  0  0  0  0  0  0  0  0  0  0
   -1.0070    2.7334   -0.7181 H   0  0  0  0  0  0  0  0  0  0  0  0
   -2.2263    1.9261    0.2341 H   0  0  0  0  0  0  0  0  0  0  0  0
   -3.0387    5.4293    0.2461 H   0  0  0  0  0  0  0  0  0  0  0  0
    2.5039    0.9549    1.4308 N   0  0  0  0  0  0  0  0  0  0  0  0
    3.7587    0.7004    2.1012 C   0  0  2  0  0  0  0  0  0  0  0  0
    3.7541    1.4696    3.4156 C   0  0  0  0  0  0  0  0  0  0  0  0
    3.0418    2.4513    3.6158 O   0  0  0  0  0  0  0  0  0  0  0  0
    4.9410    1.1091    1.2364 C   0  0  0  0  0  0  0  0  0  0  0  0
    2.4292    1.7798    0.8431 H   0  0  0  0  0  0  0  0  0  0  0  0
    3.7950   -0.3750    2.3068 H   0  0  0  0  0  0  0  0  0  0  0  0
    4.9217    2.1834    1.0198 H   0  0  0  0  0  0  0  0  0  0  0  0
    5.8913    0.8893    1.7340 H   0  0  0  0  0  0  0  0  0  0  0  0
    4.9261    0.5768    0.2792 H   0  0  0  0  0  0  0  0  0  0  0  0
    4.6702    0.9571    4.3235 N   0  0  0  0  0  0  0  0  0  0  0  0
    4.8637    1.5215    5.6388 C   0  0  0  0  0  0  0  0  0  0  0  0
    5.2053    0.1288    4.0798 H   0  0  0  0  0  0  0  0  0  0  0  0
    5.6735    2.2652    5.6037 H   0  0  0  0  0  0  0  0  0  0  0  0
    3.9339    2.0075    5.9695 H   0  0  0  0  0  0  0  0  0  0  0  0
    5.1307    0.7218    6.3452 H   0  0  0  0  0  0  0  0  0  0  0  0
  1  3  1  0  0  0  0
  1  7  1  0  0  0  0
  1  2  2  0  0  0  0
 34 35  1  0  0  0  0
 35 43  1  0  0  0  0
 35 36  2  0  0  0  0
  8  9  1  0  0  0  0
  9 17  1  0  0  0  0
  9 10  2  0  0  0  0
 18 19  1  0  0  0  0
 19 33  1  0  0  0  0
 19 20  2  0  0  0  0
 22 23  1  0  0  0  0
 23 24  2  0  0  0  0
 23 25  1  0  0  0  0
 34 37  1  0  0  0  0
  8 11  1  0  0  0  0
 43 44  1  0  0  0  0
 21 22  1  0  0  0  0
 18 21  1  0  0  0  0
 33 34  1  0  0  0  0
  7  8  1  0  0  0  0
 17 18  1  0  0  0  0
  3  4  1  0  0  0  0
  3  5  1  0  0  0  0
  3  6  1  0  0  0  0
 37 40  1  0  0  0  0
 37 41  1  0  0  0  0
 37 42  1  0  0  0  0
 11 14  1  0  0  0  0
 11 15  1  0  0  0  0
 11 16  1  0  0  0  0
 44 46  1  0  0  0  0
 44 47  1  0  0  0  0
 44 48  1  0  0  0  0
 22 30  1  0  0  0  0
 22 31  1  0  0  0  0
 21 28  1  0  0  0  0
 21 29  1  0  0  0  0
 34 39  1  0  0  0  0
  8 13  1  0  0  0  0
 18 27  1  0  0  0  0
 43 45  1  0  0  0  0
  7 12  1  0  0  0  0
 33 38  1  0  0  0  0
 17 26  1  0  0  0  0
 25 32  1  0  0  0  0
M  END
$$$$

  -OEChem-05262214473D

 48 47  0     1  0  0  0  0  0999 V2000
   -5.5827   -1.3473    1.4591 C   0  0  0  0  0  0  0  0  0  0  0  0
   -5.7053   -2.4696    0.9825 O   0  0  0  0  0  0  0  0  0  0  0  0
   -6.7879   -0.6277    1.9670 C   0  0  0  0  0  0  0  0  0  0  0  0
   -7.2718   -0.0164    1.1885 H   0  0  0  0  0  0  0  0  0  0  0  0
   -7.5699   -1.3171    2.3239 H   0  0  0  0  0  0  0  0  0  0  0  0
   -6.6057    0.0628    2.8060 H   0  0  0  0  0  0  0  0  0  0  0  0
   -4.4001   -0.6377    1.5884 N   0  0  0  0  0  0  0  0  0  0  0  0
   -3.1220   -1.1455    1.1644 C   0  0  2  0  0  0  0  0  0  0  0  0
   -2.2017    0.0428    0.9187 C   0  0  0  0  0  0  0  0  0  0  0  0
   -2.6171    1.1750    0.6807 O   0  0  0  0  0  0  0  0  0  0  0  0
   -3.2533   -1.9992   -0.0873 C   0  0  0  0  0  0  0  0  0  0  0  0
   -4.4370    0.2910    2.0047 H   0  0  0  0  0  0  0  0  0  0  0  0
   -2.7302   -1.7467    1.9921 H   0  0  0  0  0  0  0  0  0  0  0  0
   -3.6446   -1.4140   -0.9275 H   0  0  0  0  0  0  0  0  0  0  0  0
   -2.2844   -2.4081   -0.3922 H   0  0  0  0  0  0  0  0  0  0  0  0
   -3.9388   -2.8365    0.0822 H   0  0  0  0  0  0  0  0  0  0  0  0
   -0.8768   -0.3314    0.9568 N   0  0  0  0  0  0  0  0  0  0  0  0
    0.2067    0.6285    0.7375 C   0  0  2  0  0  0  0  0  0  0  0  0
    1.3968    0.1280    1.5504 C   0  0  0  0  0  0  0  0  0  0  0  0
    1.4642   -1.0201    1.9849 O   0  0  0  0  0  0  0  0  0  0  0  0
   -0.2555    2.0251    1.1796 C   0  0  0  0  0  0  0  0  0  0  0  0
   -1.3702    2.6046    0.3089 C   0  0  0  0  0  0  0  0  0  0  0  0
   -1.8122    3.9644    0.7893 C   0  0  0  0  0  0  0  0  0  0  0  0
   -1.4220    4.4798    1.8292 O   0  0  0  0  0  0  0  0  0  0  0  0
   -2.7110    4.5502   -0.0398 O   0  0  0  0  0  0  0  0  0  0  0  0
   -0.6087   -1.2764    1.1771 H   0  0  0  0  0  0  0  0  0  0  0  0
    0.4494    0.6383   -0.3302 H   0  0  0  0  0  0  0  0  0  0  0  0
   -0.6041    1.9779    2.2199 H   0  0  0  0  0  0  0  0  0  0  0  0
    0.5897    2.7258    1.1639 H   0  0  0  0  0  0  0  0  0  0  0  0
   -1.0070    2.7334   -0.7181 H   0  0  0  0  0  0  0  0  0  0  0  0
   -2.2263    1.9261    0.2341 H   0  0  0  0  0  0  0  0  0  0  0  0
   -3.0387    5.4293    0.2461 H   0  0  0  0  0  0  0  0  0  0  0  0
    2.3764    1.0977    1.7054 N   0  0  0  0  0  0  0  0  0  0  0  0
    3.6043    0.8737    2.4339 C   0  0  2  0  0  0  0  0  0  0  0  0
    3.3940    1.3457    3.8665 C   0  0  0  0  0  0  0  0  0  0  0  0
    2.5331    2.1639    4.1836 O   0  0  0  0  0  0  0  0  0  0  0  0
    4.7721    1.6024    1.7874 C   0  0  0  0  0  0  0  0  0  0  0  0
    2.2233    2.0100    1.2863 H   0  0  0  0  0  0  0  0  0  0  0  0
    3.7832   -0.2071    2.4274 H   0  0  0  0  0  0  0  0  0  0  0  0
    4.6108    2.6866    1.7847 H   0  0  0  0  0  0  0  0  0  0  0  0
    5.7067    1.4086    2.3240 H   0  0  0  0  0  0  0  0  0  0  0  0
    4.9032    1.2833    0.7478 H   0  0  0  0  0  0  0  0  0  0  0  0
    4.3088    0.7784    4.7426 N   0  0  0  0  0  0  0  0  0  0  0  0
    4.3238    1.0773    6.1555 C   0  0  0  0  0  0  0  0  0  0  0  0
    4.9754    0.0951    4.3955 H   0  0  0  0  0  0  0  0  0  0  0  0
    5.0163    1.9102    6.3473 H   0  0  0  0  0  0  0  0  0  0  0  0
    3.3118    1.3596    6.4813 H   0  0  0  0  0  0  0  0  0  0  0  0
    4.6547    0.1895    6.7145 H   0  0  0  0  0  0  0  0  0  0  0  0
  1  3  1  0  0  0  0
  1  7  1  0  0  0  0
  1  2  2  0  0  0  0
 34 35  1  0  0  0  0
 35 43  1  0  0  0  0
 35 36  2  0  0  0  0
  8  9  1  0  0  0  0
  9 17  1  0  0  0  0
  9 10  2  0  0  0  0
 18 19  1  0  0  0  0
 19 33  1  0  0  0  0
 19 20  2  0  0  0  0
 22 23  1  0  0  0  0
 23 24  2  0  0  0  0
 23 25  1  0  0  0  0
 34 37  1  0  0  0  0
  8 11  1  0  0  0  0
 43 44  1  0  0  0  0
 21 22  1  0  0  0  0
 18 21  1  0  0  0  0
 33 34  1  0  0  0  0
  7  8  1  0  0  0  0
 17 18  1  0  0  0  0
  3  4  1  0  0  0  0
  3  5  1  0  0  0  0
  3  6  1  0  0  0  0
 37 40  1  0  0  0  0
 37 41  1  0  0  0  0
 37 42  1  0  0  0  0
 11 14  1  0  0  0  0
 11 15  1  0  0  0  0
 11 16  1  0  0  0  0
 44 46  1  0  0  0  0
 44 47  1  0  0  0  0
 44 48  1  0  0  0  0
 22 30  1  0  0  0  0
 22 31  1  0  0  0  0
 21 28  1  0  0  0  0
 21 29  1  0  0  0  0
 34 39  1  0  0  0  0
  8 13  1  0  0  0  0
 18 27  1  0  0  0  0
 43 45  1  0  0  0  0
  7 12  1  0  0  0  0
 33 38  1  0  0  0  0
 17 26  1  0  0  0  0
 25 32  1  0  0  0  0
M  END
$$$$

  -OEChem-05262214473D

 48 47  0     1  0  0  0  0  0999 V2000
   -5.5827   -1.3473    1.4591 C   0  0  0  0  0  0  0  0  0  0  0  0
   -5.7053   -2.4696    0.9825 O   0  0  0  0  0  0  0  0  0  0  0  0
   -6.7879   -0.6277    1.9670 C   0  0  0  0  0  0  0  0  0  0  0  0
   -7.2718   -0.0164    1.1885 H   0  0  0  0  0  0  0  0  0  0  0  0
   -7.5699   -1.3171    2.3239 H   0  0  0  0  0  0  0  0  0  0  0  0
   -6.6057    0.0628    2.8060 H   0  0  0  0  0  0  0  0  0  0  0  0
   -4.4001   -0.6377    1.5884 N   0  0  0  0  0  0  0  0  0  0  0  0
   -3.1220   -1.1455    1.1644 C   0  0  2  0  0  0  0  0  0  0  0  0
   -2.2017    0.0428    0.9187 C   0  0  0  0  0  0  0  0  0  0  0  0
   -2.6171    1.1750    0.6807 O   0  0  0  0  0  0  0  0  0  0  0  0
   -3.2533   -1.9992   -0.0873 C   0  0  0  0  0  0  0  0  0  0  0  0
   -4.4370    0.2910    2.0047 H   0  0  0  0  0  0  0  0  0  0  0  0
   -2.7302   -1.7467    1.9921 H   0  0  0  0  0  0  0  0  0  0  0  0
   -3.6446   -1.4140   -0.9275 H   0  0  0  0  0  0  0  0  0  0  0  0
   -2.2844   -2.4081   -0.3922 H   0  0  0  0  0  0  0  0  0  0  0  0
   -3.9388   -2.8365    0.0822 H   0  0  0  0  0  0  0  0  0  0  0  0
   -0.8768   -0.3314    0.9568 N   0  0  0  0  0  0  0  0  0  0  0  0
    0.2067    0.6285    0.7375 C   0  0  2  0  0  0  0  0  0  0  0  0
    1.3968    0.1280    1.5504 C   0  0  0  0  0  0  0  0  0  0  0  0
    1.6009   -1.0668    1.7561 O   0  0  0  0  0  0  0  0  0  0  0  0
   -0.2555    2.0251    1.1796 C   0  0  0  0  0  0  0  0  0  0  0  0
   -1.3702    2.6046    0.3089 C   0  0  0  0  0  0  0  0  0  0  0  0
   -1.8122    3.9644    0.7893 C   0  0  0  0  0  0  0  0  0  0  0  0
   -1.4220    4.4798    1.8292 O   0  0  0  0  0  0  0  0  0  0  0  0
   -2.7110    4.5502   -0.0398 O   0  0  0  0  0  0  0  0  0  0  0  0
   -0.6087   -1.2764    1.1771 H   0  0  0  0  0  0  0  0  0  0  0  0
    0.4494    0.6383   -0.3302 H   0  0  0  0  0  0  0  0  0  0  0  0
   -0.6041    1.9779    2.2199 H   0  0  0  0  0  0  0  0  0  0  0  0
    0.5897    2.7258    1.1639 H   0  0  0  0  0  0  0  0  0  0  0  0
   -1.0070    2.7334   -0.7181 H   0  0  0  0  0  0  0  0  0  0  0  0
   -2.2263    1.9261    0.2341 H   0  0  0  0  0  0  0  0  0  0  0  0
   -3.0387    5.4293    0.2461 H   0  0  0  0  0  0  0  0  0  0  0  0
    2.2102    1.1625    1.9886 N   0  0  0  0  0  0  0  0  0  0  0  0
    3.4030    0.9525    2.7771 C   0  0  2  0  0  0  0  0  0  0  0  0
    3.0249    1.0853    4.2465 C   0  0  0  0  0  0  0  0  0  0  0  0
    2.0332    1.7015    4.6309 O   0  0  0  0  0  0  0  0  0  0  0  0
    4.4941    1.9443    2.4049 C   0  0  0  0  0  0  0  0  0  0  0  0
    1.9550    2.1144    1.7433 H   0  0  0  0  0  0  0  0  0  0  0  0
    3.7385   -0.0709    2.5768 H   0  0  0  0  0  0  0  0  0  0  0  0
    4.1762    2.9753    2.5987 H   0  0  0  0  0  0  0  0  0  0  0  0
    5.4067    1.7657    2.9830 H   0  0  0  0  0  0  0  0  0  0  0  0
    4.7438    1.8680    1.3411 H   0  0  0  0  0  0  0  0  0  0  0  0
    3.9487    0.4713    5.0806 N   0  0  0  0  0  0  0  0  0  0  0  0
    3.8198    0.4694    6.5191 C   0  0  0  0  0  0  0  0  0  0  0  0
    4.7312   -0.0329    4.6742 H   0  0  0  0  0  0  0  0  0  0  0  0
    4.3674    1.3266    6.9380 H   0  0  0  0  0  0  0  0  0  0  0  0
    2.7569    0.5447    6.7920 H   0  0  0  0  0  0  0  0  0  0  0  0
    4.2368   -0.4648    6.9233 H   0  0  0  0  0  0  0  0  0  0  0  0
  1  3  1  0  0  0  0
  1  7  1  0  0  0  0
  1  2  2  0  0  0  0
 34 35  1  0  0  0  0
 35 43  1  0  0  0  0
 35 36  2  0  0  0  0
  8  9  1  0  0  0  0
  9 17  1  0  0  0  0
  9 10  2  0  0  0  0
 18 19  1  0  0  0  0
 19 33  1  0  0  0  0
 19 20  2  0  0  0  0
 22 23  1  0  0  0  0
 23 24  2  0  0  0  0
 23 25  1  0  0  0  0
 34 37  1  0  0  0  0
  8 11  1  0  0  0  0
 43 44  1  0  0  0  0
 21 22  1  0  0  0  0
 18 21  1  0  0  0  0
 33 34  1  0  0  0  0
  7  8  1  0  0  0  0
 17 18  1  0  0  0  0
  3  4  1  0  0  0  0
  3  5  1  0  0  0  0
  3  6  1  0  0  0  0
 37 40  1  0  0  0  0
 37 41  1  0  0  0  0
 37 42  1  0  0  0  0
 11 14  1  0  0  0  0
 11 15  1  0  0  0  0
 11 16  1  0  0  0  0
 44 46  1  0  0  0  0
 44 47  1  0  0  0  0
 44 48  1  0  0  0  0
 22 30  1  0  0  0  0
 22 31  1  0  0  0  0
 21 28  1  0  0  0  0
 21 29  1  0  0  0  0
 34 39  1  0  0  0  0
  8 13  1  0  0  0  0
 18 27  1  0  0  0  0
 43 45  1  0  0  0  0
  7 12  1  0  0  0  0
 33 38  1  0  0  0  0
 17 26  1  0  0  0  0
 25 32  1  0  0  0  0
M  END
$$$$

  -OEChem-05262214473D

 48 47  0     1  0  0  0  0  0999 V2000
   -5.5827   -1.3473    1.4591 C   0  0  0  0  0  0  0  0  0  0  0  0
   -5.7053   -2.4696    0.9825 O   0  0  0  0  0  0  0  0  0  0  0  0
   -6.7879   -0.6277    1.9670 C   0  0  0  0  0  0  0  0  0  0  0  0
   -7.2718   -0.0164    1.1885 H   0  0  0  0  0  0  0  0  0  0  0  0
   -7.5699   -1.3171    2.3239 H   0  0  0  0  0  0  0  0  0  0  0  0
   -6.6057    0.0628    2.8060 H   0  0  0  0  0  0  0  0  0  0  0  0
   -4.4001   -0.6377    1.5884 N   0  0  0  0  0  0  0  0  0  0  0  0
   -3.1220   -1.1455    1.1644 C   0  0  2  0  0  0  0  0  0  0  0  0
   -2.2017    0.0428    0.9187 C   0  0  0  0  0  0  0  0  0  0  0  0
   -2.6171    1.1750    0.6807 O   0  0  0  0  0  0  0  0  0  0  0  0
   -3.2533   -1.9992   -0.0873 C   0  0  0  0  0  0  0  0  0  0  0  0
   -4.4370    0.2910    2.0047 H   0  0  0  0  0  0  0  0  0  0  0  0
   -2.7302   -1.7467    1.9921 H   0  0  0  0  0  0  0  0  0  0  0  0
   -3.6446   -1.4140   -0.9275 H   0  0  0  0  0  0  0  0  0  0  0  0
   -2.2844   -2.4081   -0.3922 H   0  0  0  0  0  0  0  0  0  0  0  0
   -3.9388   -2.8365    0.0822 H   0  0  0  0  0  0  0  0  0  0  0  0
   -0.8768   -0.3314    0.9568 N   0  0  0  0  0  0  0  0  0  0  0  0
    0.2067    0.6285    0.7375 C   0  0  2  0  0  0  0  0  0  0  0  0
    1.3968    0.1280    1.5504 C   0  0  0  0  0  0  0  0  0  0  0  0
    1.7588   -1.0468    1.5372 O   0  0  0  0  0  0  0  0  0  0  0  0
   -0.2555    2.0251    1.1796 C   0  0  0  0  0  0  0  0  0  0  0  0
   -1.3702    2.6046    0.3089 C   0  0  0  0  0  0  0  0  0  0  0  0
   -1.8122    3.9644    0.7893 C   0  0  0  0  0  0  0  0  0  0  0  0
   -1.4220    4.4798    1.8292 O   0  0  0  0  0  0  0  0  0  0  0  0
   -2.7110    4.5502   -0.0398 O   0  0  0  0  0  0  0  0  0  0  0  0
   -0.6087   -1.2764    1.1771 H   0  0  0  0  0  0  0  0  0  0  0  0
    0.4494    0.6383   -0.3302 H   0  0  0  0  0  0  0  0  0  0  0  0
   -0.6041    1.9779    2.2199 H   0  0  0  0  0  0  0  0  0  0  0  0
    0.5897    2.7258    1.1639 H   0  0  0  0  0  0  0  0  0  0  0  0
   -1.0070    2.7334   -0.7181 H   0  0  0  0  0  0  0  0  0  0  0  0
   -2.2263    1.9261    0.2341 H   0  0  0  0  0  0  0  0  0  0  0  0
   -3.0387    5.4293    0.2461 H   0  0  0  0  0  0  0  0  0  0  0  0
    2.0166    1.1451    2.2612 N   0  0  0  0  0  0  0  0  0  0  0  0
    3.1686    0.9317    3.1075 C   0  0  2  0  0  0  0  0  0  0  0  0
    2.6721    0.7062    4.5295 C   0  0  0  0  0  0  0  0  0  0  0  0
    1.5760    1.0956    4.9271 O   0  0  0  0  0  0  0  0  0  0  0  0
    4.1260    2.1116    3.0468 C   0  0  0  0  0  0  0  0  0  0  0  0
    1.6426    2.0860    2.1831 H   0  0  0  0  0  0  0  0  0  0  0  0
    3.6638    0.0244    2.7448 H   0  0  0  0  0  0  0  0  0  0  0  0
    3.6475    3.0299    3.4064 H   0  0  0  0  0  0  0  0  0  0  0  0
    5.0118    1.9362    3.6662 H   0  0  0  0  0  0  0  0  0  0  0  0
    4.4588    2.2910    2.0187 H   0  0  0  0  0  0  0  0  0  0  0  0
    3.6146    0.0568    5.3146 N   0  0  0  0  0  0  0  0  0  0  0  0
    3.3859   -0.2607    6.7048 C   0  0  0  0  0  0  0  0  0  0  0  0
    4.4893   -0.2465    4.8968 H   0  0  0  0  0  0  0  0  0  0  0  0
    3.7708    0.5541    7.3357 H   0  0  0  0  0  0  0  0  0  0  0  0
    2.3068   -0.3817    6.8805 H   0  0  0  0  0  0  0  0  0  0  0  0
    3.9058   -1.1966    6.9574 H   0  0  0  0  0  0  0  0  0  0  0  0
  1  3  1  0  0  0  0
  1  7  1  0  0  0  0
  1  2  2  0  0  0  0
 34 35  1  0  0  0  0
 35 43  1  0  0  0  0
 35 36  2  0  0  0  0
  8  9  1  0  0  0  0
  9 17  1  0  0  0  0
  9 10  2  0  0  0  0
 18 19  1  0  0  0  0
 19 33  1  0  0  0  0
 19 20  2  0  0  0  0
 22 23  1  0  0  0  0
 23 24  2  0  0  0  0
 23 25  1  0  0  0  0
 34 37  1  0  0  0  0
  8 11  1  0  0  0  0
 43 44  1  0  0  0  0
 21 22  1  0  0  0  0
 18 21  1  0  0  0  0
 33 34  1  0  0  0  0
  7  8  1  0  0  0  0
 17 18  1  0  0  0  0
  3  4  1  0  0  0  0
  3  5  1  0  0  0  0
  3  6  1  0  0  0  0
 37 40  1  0  0  0  0
 37 41  1  0  0  0  0
 37 42  1  0  0  0  0
 11 14  1  0  0  0  0
 11 15  1  0  0  0  0
 11 16  1  0  0  0  0
 44 46  1  0  0  0  0
 44 47  1  0  0  0  0
 44 48  1  0  0  0  0
 22 30  1  0  0  0  0
 22 31  1  0  0  0  0
 21 28  1  0  0  0  0
 21 29  1  0  0  0  0
 34 39  1  0  0  0  0
  8 13  1  0  0  0  0
 18 27  1  0  0  0  0
 43 45  1  0  0  0  0
  7 12  1  0  0  0  0
 33 38  1  0  0  0  0
 17 26  1  0  0  0  0
 25 32  1  0  0  0  0
M  END
$$$$

  -OEChem-05262214473D

 48 47  0     1  0  0  0  0  0999 V2000
   -5.5827   -1.3473    1.4591 C   0  0  0  0  0  0  0  0  0  0  0  0
   -5.7053   -2.4696    0.9825 O   0  0  0  0  0  0  0  0  0  0  0  0
   -6.7879   -0.6277    1.9670 C   0  0  0  0  0  0  0  0  0  0  0  0
   -7.2718   -0.0164    1.1885 H   0  0  0  0  0  0  0  0  0  0  0  0
   -7.5699   -1.3171    2.3239 H   0  0  0  0  0  0  0  0  0  0  0  0
   -6.6057    0.0628    2.8060 H   0  0  0  0  0  0  0  0  0  0  0  0
   -4.4001   -0.6377    1.5884 N   0  0  0  0  0  0  0  0  0  0  0  0
   -3.1220   -1.1455    1.1644 C   0  0  2  0  0  0  0  0  0  0  0  0
   -2.2017    0.0428    0.9187 C   0  0  0  0  0  0  0  0  0  0  0  0
   -2.6171    1.1750    0.6807 O   0  0  0  0  0  0  0  0  0  0  0  0
   -3.2533   -1.9992   -0.0873 C   0  0  0  0  0  0  0  0  0  0  0  0
   -4.4370    0.2910    2.0047 H   0  0  0  0  0  0  0  0  0  0  0  0
   -2.7302   -1.7467    1.9921 H   0  0  0  0  0  0  0  0  0  0  0  0
   -3.6446   -1.4140   -0.9275 H   0  0  0  0  0  0  0  0  0  0  0  0
   -2.2844   -2.4081   -0.3922 H   0  0  0  0  0  0  0  0  0  0  0  0
   -3.9388   -2.8365    0.0822 H   0  0  0  0  0  0  0  0  0  0  0  0
   -0.8768   -0.3314    0.9568 N   0  0  0  0  0  0  0  0  0  0  0  0
    0.2067    0.6285    0.7375 C   0  0  2  0  0  0  0  0  0  0  0  0
    1.3968    0.1280    1.5504 C   0  0  0  0  0  0  0  0  0  0  0  0
    1.9272   -0.9616    1.3432 O   0  0  0  0  0  0  0  0  0  0  0  0
   -0.2555    2.0251    1.1796 C   0  0  0  0  0  0  0  0  0  0  0  0
   -1.3702    2.6046    0.3089 C   0  0  0  0  0  0  0  0  0  0  0  0
   -1.8122    3.9644    0.7893 C   0  0  0  0  0  0  0  0  0  0  0  0
   -1.4220    4.4798    1.8292 O   0  0  0  0  0  0  0  0  0  0  0  0
   -2.7110    4.5502   -0.0398 O   0  0  0  0  0  0  0  0  0  0  0  0
   -0.6087   -1.2764    1.1771 H   0  0  0  0  0  0  0  0  0  0  0  0
    0.4494    0.6383   -0.3302 H   0  0  0  0  0  0  0  0  0  0  0  0
   -0.6041    1.9779    2.2199 H   0  0  0  0  0  0  0  0  0  0  0  0
    0.5897    2.7258    1.1639 H   0  0  0  0  0  0  0  0  0  0  0  0
   -1.0070    2.7334   -0.7181 H   0  0  0  0  0  0  0  0  0  0  0  0
   -2.2263    1.9261    0.2341 H   0  0  0  0  0  0  0  0  0  0  0  0
   -3.0387    5.4293    0.2461 H   0  0  0  0  0  0  0  0  0  0  0  0
    1.8090    1.0465    2.5046 N   0  0  0  0  0  0  0  0  0  0  0  0
    2.9169    0.8125    3.4025 C   0  0  2  0  0  0  0  0  0  0  0  0
    2.3596    0.2341    4.6965 C   0  0  0  0  0  0  0  0  0  0  0  0
    1.1929    0.3875    5.0520 O   0  0  0  0  0  0  0  0  0  0  0  0
    3.6929    2.0929    3.6693 C   0  0  0  0  0  0  0  0  0  0  0  0
    1.3075    1.9267    2.5757 H   0  0  0  0  0  0  0  0  0  0  0  0
    3.5642    0.0721    2.9199 H   0  0  0  0  0  0  0  0  0  0  0  0
    3.0607    2.8467    4.1526 H   0  0  0  0  0  0  0  0  0  0  0  0
    4.5488    1.9084    4.3270 H   0  0  0  0  0  0  0  0  0  0  0  0
    4.0677    2.5234    2.7345 H   0  0  0  0  0  0  0  0  0  0  0  0
    3.3292   -0.4369    5.4285 N   0  0  0  0  0  0  0  0  0  0  0  0
    3.0517   -1.0632    6.7000 C   0  0  0  0  0  0  0  0  0  0  0  0
    4.2663   -0.5312    5.0481 H   0  0  0  0  0  0  0  0  0  0  0  0
    3.2674   -0.3546    7.5132 H   0  0  0  0  0  0  0  0  0  0  0  0
    1.9923   -1.3565    6.7407 H   0  0  0  0  0  0  0  0  0  0  0  0
    3.6840   -1.9560    6.8145 H   0  0  0  0  0  0  0  0  0  0  0  0
  1  3  1  0  0  0  0
  1  7  1  0  0  0  0
  1  2  2  0  0  0  0
 34 35  1  0  0  0  0
 35 43  1  0  0  0  0
 35 36  2  0  0  0  0
  8  9  1  0  0  0  0
  9 17  1  0  0  0  0
  9 10  2  0  0  0  0
 18 19  1  0  0  0  0
 19 33  1  0  0  0  0
 19 20  2  0  0  0  0
 22 23  1  0  0  0  0
 23 24  2  0  0  0  0
 23 25  1  0  0  0  0
 34 37  1  0  0  0  0
  8 11  1  0  0  0  0
 43 44  1  0  0  0  0
 21 22  1  0  0  0  0
 18 21  1  0  0  0  0
 33 34  1  0  0  0  0
  7  8  1  0  0  0  0
 17 18  1  0  0  0  0
  3  4  1  0  0  0  0
  3  5  1  0  0  0  0
  3  6  1  0  0  0  0
 37 40  1  0  0  0  0
 37 41  1  0  0  0  0
 37 42  1  0  0  0  0
 11 14  1  0  0  0  0
 11 15  1  0  0  0  0
 11 16  1  0  0  0  0
 44 46  1  0  0  0  0
 44 47  1  0  0  0  0
 44 48  1  0  0  0  0
 22 30  1  0  0  0  0
 22 31  1  0  0  0  0
 21 28  1  0  0  0  0
 21 29  1  0  0  0  0
 34 39  1  0  0  0  0
  8 13  1  0  0  0  0
 18 27  1  0  0  0  0
 43 45  1  0  0  0  0
  7 12  1  0  0  0  0
 33 38  1  0  0  0  0
 17 26  1  0  0  0  0
 25 32  1  0  0  0  0
M  END
$$$$

  -OEChem-05262214473D

 48 47  0     1  0  0  0  0  0999 V2000
   -5.5827   -1.3473    1.4591 C   0  0  0  0  0  0  0  0  0  0  0  0
   -5.7053   -2.4696    0.9825 O   0  0  0  0  0  0  0  0  0  0  0  0
   -6.7879   -0.6277    1.9670 C   0  0  0  0  0  0  0  0  0  0  0  0
   -7.2718   -0.0164    1.1885 H   0  0  0  0  0  0  0  0  0  0  0  0
   -7.5699   -1.3171    2.3239 H   0  0  0  0  0  0  0  0  0  0  0  0
   -6.6057    0.0628    2.8060 H   0  0  0  0  0  0  0  0  0  0  0  0
   -4.4001   -0.6377    1.5884 N   0  0  0  0  0  0  0  0  0  0  0  0
   -3.1220   -1.1455    1.1644 C   0  0  2  0  0  0  0  0  0  0  0  0
   -2.2017    0.0428    0.9187 C   0  0  0  0  0  0  0  0  0  0  0  0
   -2.6171    1.1750    0.6807 O   0  0  0  0  0  0  0  0  0  0  0  0
   -3.2533   -1.9992   -0.0873 C   0  0  0  0  0  0  0  0  0  0  0  0
   -4.4370    0.2910    2.0047 H   0  0  0  0  0  0  0  0  0  0  0  0
   -2.7302   -1.7467    1.9921 H   0  0  0  0  0  0  0  0  0  0  0  0
   -3.6446   -1.4140   -0.9275 H   0  0  0  0  0  0  0  0  0  0  0  0
   -2.2844   -2.4081   -0.3922 H   0  0  0  0  0  0  0  0  0  0  0  0
   -3.9388   -2.8365    0.0822 H   0  0  0  0  0  0  0  0  0  0  0  0
   -0.8768   -0.3314    0.9568 N   0  0  0  0  0  0  0  0  0  0  0  0
    0.2067    0.6285    0.7375 C   0  0  2  0  0  0  0  0  0  0  0  0
    1.3968    0.1280    1.5504 C   0  0  0  0  0  0  0  0  0  0  0  0
    2.0945   -0.8168    1.1873 O   0  0  0  0  0  0  0  0  0  0  0  0
   -0.2555    2.0251    1.1796 C   0  0  0  0  0  0  0  0  0  0  0  0
   -1.3702    2.6046    0.3089 C   0  0  0  0  0  0  0  0  0  0  0  0
   -1.8122    3.9644    0.7893 C   0  0  0  0  0  0  0  0  0  0  0  0
   -1.4220    4.4798    1.8292 O   0  0  0  0  0  0  0  0  0  0  0  0
   -2.7110    4.5502   -0.0398 O   0  0  0  0  0  0  0  0  0  0  0  0
   -0.6087   -1.2764    1.1771 H   0  0  0  0  0  0  0  0  0  0  0  0
    0.4494    0.6383   -0.3302 H   0  0  0  0  0  0  0  0  0  0  0  0
   -0.6041    1.9779    2.2199 H   0  0  0  0  0  0  0  0  0  0  0  0
    0.5897    2.7258    1.1639 H   0  0  0  0  0  0  0  0  0  0  0  0
   -1.0070    2.7334   -0.7181 H   0  0  0  0  0  0  0  0  0  0  0  0
   -2.2263    1.9261    0.2341 H   0  0  0  0  0  0  0  0  0  0  0  0
   -3.0387    5.4293    0.2461 H   0  0  0  0  0  0  0  0  0  0  0  0
    1.6013    0.8735    2.7021 N   0  0  0  0  0  0  0  0  0  0  0  0
    2.6653    0.6031    3.6420 C   0  0  2  0  0  0  0  0  0  0  0  0
    2.1086   -0.2986    4.7359 C   0  0  0  0  0  0  0  0  0  0  0  0
    0.9098   -0.3745    4.9972 O   0  0  0  0  0  0  0  0  0  0  0  0
    3.2243    1.8894    4.2301 C   0  0  0  0  0  0  0  0  0  0  0  0
    0.9724    1.6474    2.8943 H   0  0  0  0  0  0  0  0  0  0  0  0
    3.4466    0.0692    3.0903 H   0  0  0  0  0  0  0  0  0  0  0  0
    2.4558    2.4381    4.7867 H   0  0  0  0  0  0  0  0  0  0  0  0
    4.0492    1.6844    4.9203 H   0  0  0  0  0  0  0  0  0  0  0  0
    3.5971    2.5495    3.4395 H   0  0  0  0  0  0  0  0  0  0  0  0
    3.1118   -0.9761    5.4146 N   0  0  0  0  0  0  0  0  0  0  0  0
    2.8400   -1.8835    6.5049 C   0  0  0  0  0  0  0  0  0  0  0  0
    4.0772   -0.8674    5.1179 H   0  0  0  0  0  0  0  0  0  0  0  0
    2.8914   -1.3376    7.4585 H   0  0  0  0  0  0  0  0  0  0  0  0
    1.8349   -2.3132    6.3822 H   0  0  0  0  0  0  0  0  0  0  0  0
    3.5867   -2.6913    6.5043 H   0  0  0  0  0  0  0  0  0  0  0  0
  1  3  1  0  0  0  0
  1  7  1  0  0  0  0
  1  2  2  0  0  0  0
 34 35  1  0  0  0  0
 35 43  1  0  0  0  0
 35 36  2  0  0  0  0
  8  9  1  0  0  0  0
  9 17  1  0  0  0  0
  9 10  2  0  0  0  0
 18 19  1  0  0  0  0
 19 33  1  0  0  0  0
 19 20  2  0  0  0  0
 22 23  1  0  0  0  0
 23 24  2  0  0  0  0
 23 25  1  0  0  0  0
 34 37  1  0  0  0  0
  8 11  1  0  0  0  0
 43 44  1  0  0  0  0
 21 22  1  0  0  0  0
 18 21  1  0  0  0  0
 33 34  1  0  0  0  0
  7  8  1  0  0  0  0
 17 18  1  0  0  0  0
  3  4  1  0  0  0  0
  3  5  1  0  0  0  0
  3  6  1  0  0  0  0
 37 40  1  0  0  0  0
 37 41  1  0  0  0  0
 37 42  1  0  0  0  0
 11 14  1  0  0  0  0
 11 15  1  0  0  0  0
 11 16  1  0  0  0  0
 44 46  1  0  0  0  0
 44 47  1  0  0  0  0
 44 48  1  0  0  0  0
 22 30  1  0  0  0  0
 22 31  1  0  0  0  0
 21 28  1  0  0  0  0
 21 29  1  0  0  0  0
 34 39  1  0  0  0  0
  8 13  1  0  0  0  0
 18 27  1  0  0  0  0
 43 45  1  0  0  0  0
  7 12  1  0  0  0  0
 33 38  1  0  0  0  0
 17 26  1  0  0  0  0
 25 32  1  0  0  0  0
M  END
$$$$

  -OEChem-05262214473D

 48 47  0     1  0  0  0  0  0999 V2000
   -5.5827   -1.3473    1.4591 C   0  0  0  0  0  0  0  0  0  0  0  0
   -5.7053   -2.4696    0.9825 O   0  0  0  0  0  0  0  0  0  0  0  0
   -6.7879   -0.6277    1.9670 C   0  0  0  0  0  0  0  0  0  0  0  0
   -7.2718   -0.0164    1.1885 H   0  0  0  0  0  0  0  0  0  0  0  0
   -7.5699   -1.3171    2.3239 H   0  0  0  0  0  0  0  0  0  0  0  0
   -6.6057    0.0628    2.8060 H   0  0  0  0  0  0  0  0  0  0  0  0
   -4.4001   -0.6377    1.5884 N   0  0  0  0  0  0  0  0  0  0  0  0
   -3.1220   -1.1455    1.1644 C   0  0  2  0  0  0  0  0  0  0  0  0
   -2.2017    0.0428    0.9187 C   0  0  0  0  0  0  0  0  0  0  0  0
   -2.6171    1.1750    0.6807 O   0  0  0  0  0  0  0  0  0  0  0  0
   -3.2533   -1.9992   -0.0873 C   0  0  0  0  0  0  0  0  0  0  0  0
   -4.4370    0.2910    2.0047 H   0  0  0  0  0  0  0  0  0  0  0  0
   -2.7302   -1.7467    1.9921 H   0  0  0  0  0  0  0  0  0  0  0  0
   -3.6446   -1.4140   -0.9275 H   0  0  0  0  0  0  0  0  0  0  0  0
   -2.2844   -2.4081   -0.3922 H   0  0  0  0  0  0  0  0  0  0  0  0
   -3.9388   -2.8365    0.0822 H   0  0  0  0  0  0  0  0  0  0  0  0
   -0.8768   -0.3314    0.9568 N   0  0  0  0  0  0  0  0  0  0  0  0
    0.2067    0.6285    0.7375 C   0  0  2  0  0  0  0  0  0  0  0  0
    1.3968    0.1280    1.5504 C   0  0  0  0  0  0  0  0  0  0  0  0
    2.2494   -0.6225    1.0801 O   0  0  0  0  0  0  0  0  0  0  0  0
   -0.2555    2.0251    1.1796 C   0  0  0  0  0  0  0  0  0  0  0  0
   -1.3702    2.6046    0.3089 C   0  0  0  0  0  0  0  0  0  0  0  0
   -1.8122    3.9644    0.7893 C   0  0  0  0  0  0  0  0  0  0  0  0
   -1.4220    4.4798    1.8292 O   0  0  0  0  0  0  0  0  0  0  0  0
   -2.7110    4.5502   -0.0398 O   0  0  0  0  0  0  0  0  0  0  0  0
   -0.6087   -1.2764    1.1771 H   0  0  0  0  0  0  0  0  0  0  0  0
    0.4494    0.6383   -0.3302 H   0  0  0  0  0  0  0  0  0  0  0  0
   -0.6041    1.9779    2.2199 H   0  0  0  0  0  0  0  0  0  0  0  0
    0.5897    2.7258    1.1639 H   0  0  0  0  0  0  0  0  0  0  0  0
   -1.0070    2.7334   -0.7181 H   0  0  0  0  0  0  0  0  0  0  0  0
   -2.2263    1.9261    0.2341 H   0  0  0  0  0  0  0  0  0  0  0  0
   -3.0387    5.4293    0.2461 H   0  0  0  0  0  0  0  0  0  0  0  0
    1.4078    0.6379    2.8403 N   0  0  0  0  0  0  0  0  0  0  0  0
    2.4307    0.3178    3.8098 C   0  0  2  0  0  0  0  0  0  0  0  0
    1.9363   -0.8558    4.6451 C   0  0  0  0  0  0  0  0  0  0  0  0
    0.7462   -1.1385    4.7664 O   0  0  0  0  0  0  0  0  0  0  0  0
    2.7520    1.5149    4.6908 C   0  0  0  0  0  0  0  0  0  0  0  0
    0.6602    1.2671    3.1171 H   0  0  0  0  0  0  0  0  0  0  0  0
    3.3190    0.0158    3.2443 H   0  0  0  0  0  0  0  0  0  0  0  0
    1.8740    1.8320    5.2652 H   0  0  0  0  0  0  0  0  0  0  0  0
    3.5472    1.2793    5.4058 H   0  0  0  0  0  0  0  0  0  0  0  0
    3.0790    2.3675    4.0859 H   0  0  0  0  0  0  0  0  0  0  0  0
    2.9775   -1.5241    5.2739 N   0  0  0  0  0  0  0  0  0  0  0  0
    2.7652   -2.6657    6.1329 C   0  0  0  0  0  0  0  0  0  0  0  0
    3.9350   -1.2323    5.1014 H   0  0  0  0  0  0  0  0  0  0  0  0
    2.6684   -2.3279    7.1752 H   0  0  0  0  0  0  0  0  0  0  0  0
    1.8451   -3.1866    5.8294 H   0  0  0  0  0  0  0  0  0  0  0  0
    3.6204   -3.3523    6.0480 H   0  0  0  0  0  0  0  0  0  0  0  0
  1  3  1  0  0  0  0
  1  7  1  0  0  0  0
  1  2  2  0  0  0  0
 34 35  1  0  0  0  0
 35 43  1  0  0  0  0
 35 36  2  0  0  0  0
  8  9  1  0  0  0  0
  9 17  1  0  0  0  0
  9 10  2  0  0  0  0
 18 19  1  0  0  0  0
 19 33  1  0  0  0  0
 19 20  2  0  0  0  0
 22 23  1  0  0  0  0
 23 24  2  0  0  0  0
 23 25  1  0  0  0  0
 34 37  1  0  0  0  0
  8 11  1  0  0  0  0
 43 44  1  0  0  0  0
 21 22  1  0  0  0  0
 18 21  1  0  0  0  0
 33 34  1  0  0  0  0
  7  8  1  0  0  0  0
 17 18  1  0  0  0  0
  3  4  1  0  0  0  0
  3  5  1  0  0  0  0
  3  6  1  0  0  0  0
 37 40  1  0  0  0  0
 37 41  1  0  0  0  0
 37 42  1  0  0  0  0
 11 14  1  0  0  0  0
 11 15  1  0  0  0  0
 11 16  1  0  0  0  0
 44 46  1  0  0  0  0
 44 47  1  0  0  0  0
 44 48  1  0  0  0  0
 22 30  1  0  0  0  0
 22 31  1  0  0  0  0
 21 28  1  0  0  0  0
 21 29  1  0  0  0  0
 34 39  1  0  0  0  0
  8 13  1  0  0  0  0
 18 27  1  0  0  0  0
 43 45  1  0  0  0  0
  7 12  1  0  0  0  0
 33 38  1  0  0  0  0
 17 26  1  0  0  0  0
 25 32  1  0  0  0  0
M  END
$$$$

  -OEChem-05262214473D

 48 47  0     1  0  0  0  0  0999 V2000
   -5.5827   -1.3473    1.4591 C   0  0  0  0  0  0  0  0  0  0  0  0
   -5.7053   -2.4696    0.9825 O   0  0  0  0  0  0  0  0  0  0  0  0
   -6.7879   -0.6277    1.9670 C   0  0  0  0  0  0  0  0  0  0  0  0
   -7.2718   -0.0164    1.1885 H   0  0  0  0  0  0  0  0  0  0  0  0
   -7.5699   -1.3171    2.3239 H   0  0  0  0  0  0  0  0  0  0  0  0
   -6.6057    0.0628    2.8060 H   0  0  0  0  0  0  0  0  0  0  0  0
   -4.4001   -0.6377    1.5884 N   0  0  0  0  0  0  0  0  0  0  0  0
   -3.1220   -1.1455    1.1644 C   0  0  2  0  0  0  0  0  0  0  0  0
   -2.2017    0.0428    0.9187 C   0  0  0  0  0  0  0  0  0  0  0  0
   -2.6171    1.1750    0.6807 O   0  0  0  0  0  0  0  0  0  0  0  0
   -3.2533   -1.9992   -0.0873 C   0  0  0  0  0  0  0  0  0  0  0  0
   -4.4370    0.2910    2.0047 H   0  0  0  0  0  0  0  0  0  0  0  0
   -2.7302   -1.7467    1.9921 H   0  0  0  0  0  0  0  0  0  0  0  0
   -3.6446   -1.4140   -0.9275 H   0  0  0  0  0  0  0  0  0  0  0  0
   -2.2844   -2.4081   -0.3922 H   0  0  0  0  0  0  0  0  0  0  0  0
   -3.9388   -2.8365    0.0822 H   0  0  0  0  0  0  0  0  0  0  0  0
   -0.8768   -0.3314    0.9568 N   0  0  0  0  0  0  0  0  0  0  0  0
    0.2067    0.6285    0.7375 C   0  0  2  0  0  0  0  0  0  0  0  0
    1.3968    0.1280    1.5504 C   0  0  0  0  0  0  0  0  0  0  0  0
    2.3814   -0.3918    1.0290 O   0  0  0  0  0  0  0  0  0  0  0  0
   -0.2555    2.0251    1.1796 C   0  0  0  0  0  0  0  0  0  0  0  0
   -1.3702    2.6046    0.3089 C   0  0  0  0  0  0  0  0  0  0  0  0
   -1.8122    3.9644    0.7893 C   0  0  0  0  0  0  0  0  0  0  0  0
   -1.4220    4.4798    1.8292 O   0  0  0  0  0  0  0  0  0  0  0  0
   -2.7110    4.5502   -0.0398 O   0  0  0  0  0  0  0  0  0  0  0  0
   -0.6087   -1.2764    1.1771 H   0  0  0  0  0  0  0  0  0  0  0  0
    0.4494    0.6383   -0.3302 H   0  0  0  0  0  0  0  0  0  0  0  0
   -0.6041    1.9779    2.2199 H   0  0  0  0  0  0  0  0  0  0  0  0
    0.5897    2.7258    1.1639 H   0  0  0  0  0  0  0  0  0  0  0  0
   -1.0070    2.7334   -0.7181 H   0  0  0  0  0  0  0  0  0  0  0  0
   -2.2263    1.9261    0.2341 H   0  0  0  0  0  0  0  0  0  0  0  0
   -3.0387    5.4293    0.2461 H   0  0  0  0  0  0  0  0  0  0  0  0
    1.2416    0.3557    2.9098 N   0  0  0  0  0  0  0  0  0  0  0  0
    2.2293   -0.0240    3.8942 C   0  0  2  0  0  0  0  0  0  0  0  0
    1.8544   -1.3994    4.4303 C   0  0  0  0  0  0  0  0  0  0  0  0
    0.7130   -1.8525    4.3753 O   0  0  0  0  0  0  0  0  0  0  0  0
    2.3084    0.9951    5.0202 C   0  0  0  0  0  0  0  0  0  0  0  0
    0.3922    0.8117    3.2291 H   0  0  0  0  0  0  0  0  0  0  0  0
    3.1900   -0.0846    3.3714 H   0  0  0  0  0  0  0  0  0  0  0  0
    1.3549    1.0697    5.5557 H   0  0  0  0  0  0  0  0  0  0  0  0
    3.0770    0.7208    5.7504 H   0  0  0  0  0  0  0  0  0  0  0  0
    2.5488    1.9898    4.6295 H   0  0  0  0  0  0  0  0  0  0  0  0
    2.9352   -2.0436    5.0160 N   0  0  0  0  0  0  0  0  0  0  0  0
    2.8324   -3.3564    5.6092 C   0  0  0  0  0  0  0  0  0  0  0  0
    3.8494   -1.6011    4.9996 H   0  0  0  0  0  0  0  0  0  0  0  0
    2.6136   -3.2580    6.6828 H   0  0  0  0  0  0  0  0  0  0  0  0
    2.0225   -3.9173    5.1200 H   0  0  0  0  0  0  0  0  0  0  0  0
    3.7828   -3.8940    5.4766 H   0  0  0  0  0  0  0  0  0  0  0  0
  1  3  1  0  0  0  0
  1  7  1  0  0  0  0
  1  2  2  0  0  0  0
 34 35  1  0  0  0  0
 35 43  1  0  0  0  0
 35 36  2  0  0  0  0
  8  9  1  0  0  0  0
  9 17  1  0  0  0  0
  9 10  2  0  0  0  0
 18 19  1  0  0  0  0
 19 33  1  0  0  0  0
 19 20  2  0  0  0  0
 22 23  1  0  0  0  0
 23 24  2  0  0  0  0
 23 25  1  0  0  0  0
 34 37  1  0  0  0  0
  8 11  1  0  0  0  0
 43 44  1  0  0  0  0
 21 22  1  0  0  0  0
 18 21  1  0  0  0  0
 33 34  1  0  0  0  0
  7  8  1  0  0  0  0
 17 18  1  0  0  0  0
  3  4  1  0  0  0  0
  3  5  1  0  0  0  0
  3  6  1  0  0  0  0
 37 40  1  0  0  0  0
 37 41  1  0  0  0  0
 37 42  1  0  0  0  0
 11 14  1  0  0  0  0
 11 15  1  0  0  0  0
 11 16  1  0  0  0  0
 44 46  1  0  0  0  0
 44 47  1  0  0  0  0
 44 48  1  0  0  0  0
 22 30  1  0  0  0  0
 22 31  1  0  0  0  0
 21 28  1  0  0  0  0
 21 29  1  0  0  0  0
 34 39  1  0  0  0  0
  8 13  1  0  0  0  0
 18 27  1  0  0  0  0
 43 45  1  0  0  0  0
  7 12  1  0  0  0  0
 33 38  1  0  0  0  0
 17 26  1  0  0  0  0
 25 32  1  0  0  0  0
M  END
$$$$

  -OEChem-05262214473D

 48 47  0     1  0  0  0  0  0999 V2000
   -5.5827   -1.3473    1.4591 C   0  0  0  0  0  0  0  0  0  0  0  0
   -5.7053   -2.4696    0.9825 O   0  0  0  0  0  0  0  0  0  0  0  0
   -6.7879   -0.6277    1.9670 C   0  0  0  0  0  0  0  0  0  0  0  0
   -7.2718   -0.0164    1.1885 H   0  0  0  0  0  0  0  0  0  0  0  0
   -7.5699   -1.3171    2.3239 H   0  0  0  0  0  0  0  0  0  0  0  0
   -6.6057    0.0628    2.8060 H   0  0  0  0  0  0  0  0  0  0  0  0
   -4.4001   -0.6377    1.5884 N   0  0  0  0  0  0  0  0  0  0  0  0
   -3.1220   -1.1455    1.1644 C   0  0  2  0  0  0  0  0  0  0  0  0
   -2.2017    0.0428    0.9187 C   0  0  0  0  0  0  0  0  0  0  0  0
   -2.6171    1.1750    0.6807 O   0  0  0  0  0  0  0  0  0  0  0  0
   -3.2533   -1.9992   -0.0873 C   0  0  0  0  0  0  0  0  0  0  0  0
   -4.4370    0.2910    2.0047 H   0  0  0  0  0  0  0  0  0  0  0  0
   -2.7302   -1.7467    1.9921 H   0  0  0  0  0  0  0  0  0  0  0  0
   -3.6446   -1.4140   -0.9275 H   0  0  0  0  0  0  0  0  0  0  0  0
   -2.2844   -2.4081   -0.3922 H   0  0  0  0  0  0  0  0  0  0  0  0
   -3.9388   -2.8365    0.0822 H   0  0  0  0  0  0  0  0  0  0  0  0
   -0.8768   -0.3314    0.9568 N   0  0  0  0  0  0  0  0  0  0  0  0
    0.2067    0.6285    0.7375 C   0  0  2  0  0  0  0  0  0  0  0  0
    1.3968    0.1280    1.5504 C   0  0  0  0  0  0  0  0  0  0  0  0
    2.4813   -0.1404    1.0375 O   0  0  0  0  0  0  0  0  0  0  0  0
   -0.2555    2.0251    1.1796 C   0  0  0  0  0  0  0  0  0  0  0  0
   -1.3702    2.6046    0.3089 C   0  0  0  0  0  0  0  0  0  0  0  0
   -1.8122    3.9644    0.7893 C   0  0  0  0  0  0  0  0  0  0  0  0
   -1.4220    4.4798    1.8292 O   0  0  0  0  0  0  0  0  0  0  0  0
   -2.7110    4.5502   -0.0398 O   0  0  0  0  0  0  0  0  0  0  0  0
   -0.6087   -1.2764    1.1771 H   0  0  0  0  0  0  0  0  0  0  0  0
    0.4494    0.6383   -0.3302 H   0  0  0  0  0  0  0  0  0  0  0  0
   -0.6041    1.9779    2.2199 H   0  0  0  0  0  0  0  0  0  0  0  0
    0.5897    2.7258    1.1639 H   0  0  0  0  0  0  0  0  0  0  0  0
   -1.0070    2.7334   -0.7181 H   0  0  0  0  0  0  0  0  0  0  0  0
   -2.2263    1.9261    0.2341 H   0  0  0  0  0  0  0  0  0  0  0  0
   -3.0387    5.4293    0.2461 H   0  0  0  0  0  0  0  0  0  0  0  0
    1.1141    0.0462    2.9059 N   0  0  0  0  0  0  0  0  0  0  0  0
    2.0746   -0.3990    3.8897 C   0  0  2  0  0  0  0  0  0  0  0  0
    1.8685   -1.8924    4.1061 C   0  0  0  0  0  0  0  0  0  0  0  0
    0.8127   -2.4677    3.8506 O   0  0  0  0  0  0  0  0  0  0  0  0
    1.9237    0.3654    5.1958 C   0  0  0  0  0  0  0  0  0  0  0  0
    0.1866    0.3122    3.2226 H   0  0  0  0  0  0  0  0  0  0  0  0
    3.0684   -0.2249    3.4629 H   0  0  0  0  0  0  0  0  0  0  0  0
    0.9341    0.2032    5.6384 H   0  0  0  0  0  0  0  0  0  0  0  0
    2.6705    0.0469    5.9305 H   0  0  0  0  0  0  0  0  0  0  0  0
    2.0427    1.4420    5.0332 H   0  0  0  0  0  0  0  0  0  0  0  0
    2.9879   -2.4991    4.6583 N   0  0  0  0  0  0  0  0  0  0  0  0
    3.0370   -3.9086    4.9697 C   0  0  0  0  0  0  0  0  0  0  0  0
    3.8262   -1.9486    4.8197 H   0  0  0  0  0  0  0  0  0  0  0  0
    2.7307   -4.0646    6.0146 H   0  0  0  0  0  0  0  0  0  0  0  0
    2.3547   -4.4554    4.3022 H   0  0  0  0  0  0  0  0  0  0  0  0
    4.0630   -4.2795    4.8292 H   0  0  0  0  0  0  0  0  0  0  0  0
  1  3  1  0  0  0  0
  1  7  1  0  0  0  0
  1  2  2  0  0  0  0
 34 35  1  0  0  0  0
 35 43  1  0  0  0  0
 35 36  2  0  0  0  0
  8  9  1  0  0  0  0
  9 17  1  0  0  0  0
  9 10  2  0  0  0  0
 18 19  1  0  0  0  0
 19 33  1  0  0  0  0
 19 20  2  0  0  0  0
 22 23  1  0  0  0  0
 23 24  2  0  0  0  0
 23 25  1  0  0  0  0
 34 37  1  0  0  0  0
  8 11  1  0  0  0  0
 43 44  1  0  0  0  0
 21 22  1  0  0  0  0
 18 21  1  0  0  0  0
 33 34  1  0  0  0  0
  7  8  1  0  0  0  0
 17 18  1  0  0  0  0
  3  4  1  0  0  0  0
  3  5  1  0  0  0  0
  3  6  1  0  0  0  0
 37 40  1  0  0  0  0
 37 41  1  0  0  0  0
 37 42  1  0  0  0  0
 11 14  1  0  0  0  0
 11 15  1  0  0  0  0
 11 16  1  0  0  0  0
 44 46  1  0  0  0  0
 44 47  1  0  0  0  0
 44 48  1  0  0  0  0
 22 30  1  0  0  0  0
 22 31  1  0  0  0  0
 21 28  1  0  0  0  0
 21 29  1  0  0  0  0
 34 39  1  0  0  0  0
  8 13  1  0  0  0  0
 18 27  1  0  0  0  0
 43 45  1  0  0  0  0
  7 12  1  0  0  0  0
 33 38  1  0  0  0  0
 17 26  1  0  0  0  0
 25 32  1  0  0  0  0
M  END
$$$$

  -OEChem-05262214473D

 48 47  0     1  0  0  0  0  0999 V2000
   -5.5827   -1.3473    1.4591 C   0  0  0  0  0  0  0  0  0  0  0  0
   -5.7053   -2.4696    0.9825 O   0  0  0  0  0  0  0  0  0  0  0  0
   -6.7879   -0.6277    1.9670 C   0  0  0  0  0  0  0  0  0  0  0  0
   -7.2718   -0.0164    1.1885 H   0  0  0  0  0  0  0  0  0  0  0  0
   -7.5699   -1.3171    2.3239 H   0  0  0  0  0  0  0  0  0  0  0  0
   -6.6057    0.0628    2.8060 H   0  0  0  0  0  0  0  0  0  0  0  0
   -4.4001   -0.6377    1.5884 N   0  0  0  0  0  0  0  0  0  0  0  0
   -3.1220   -1.1455    1.1644 C   0  0  2  0  0  0  0  0  0  0  0  0
   -2.2017    0.0428    0.9187 C   0  0  0  0  0  0  0  0  0  0  0  0
   -2.6171    1.1750    0.6807 O   0  0  0  0  0  0  0  0  0  0  0  0
   -3.2533   -1.9992   -0.0873 C   0  0  0  0  0  0  0  0  0  0  0  0
   -4.4370    0.2910    2.0047 H   0  0  0  0  0  0  0  0  0  0  0  0
   -2.7302   -1.7467    1.9921 H   0  0  0  0  0  0  0  0  0  0  0  0
   -3.6446   -1.4140   -0.9275 H   0  0  0  0  0  0  0  0  0  0  0  0
   -2.2844   -2.4081   -0.3922 H   0  0  0  0  0  0  0  0  0  0  0  0
   -3.9388   -2.8365    0.0822 H   0  0  0  0  0  0  0  0  0  0  0  0
   -0.8768   -0.3314    0.9568 N   0  0  0  0  0  0  0  0  0  0  0  0
    0.2067    0.6285    0.7375 C   0  0  2  0  0  0  0  0  0  0  0  0
    1.3968    0.1280    1.5504 C   0  0  0  0  0  0  0  0  0  0  0  0
    2.5425    0.1145    1.1048 O   0  0  0  0  0  0  0  0  0  0  0  0
   -0.2555    2.0251    1.1796 C   0  0  0  0  0  0  0  0  0  0  0  0
   -1.3702    2.6046    0.3089 C   0  0  0  0  0  0  0  0  0  0  0  0
   -1.8122    3.9644    0.7893 C   0  0  0  0  0  0  0  0  0  0  0  0
   -1.4220    4.4798    1.8292 O   0  0  0  0  0  0  0  0  0  0  0  0
   -2.7110    4.5502   -0.0398 O   0  0  0  0  0  0  0  0  0  0  0  0
   -0.6087   -1.2764    1.1771 H   0  0  0  0  0  0  0  0  0  0  0  0
    0.4494    0.6383   -0.3302 H   0  0  0  0  0  0  0  0  0  0  0  0
   -0.6041    1.9779    2.2199 H   0  0  0  0  0  0  0  0  0  0  0  0
    0.5897    2.7258    1.1639 H   0  0  0  0  0  0  0  0  0  0  0  0
   -1.0070    2.7334   -0.7181 H   0  0  0  0  0  0  0  0  0  0  0  0
   -2.2263    1.9261    0.2341 H   0  0  0  0  0  0  0  0  0  0  0  0
   -3.0387    5.4293    0.2461 H   0  0  0  0  0  0  0  0  0  0  0  0
    1.0340   -0.2696    2.8288 N   0  0  0  0  0  0  0  0  0  0  0  0
    1.9774   -0.7816    3.7966 C   0  0  2  0  0  0  0  0  0  0  0  0
    1.9777   -2.3012    3.6946 C   0  0  0  0  0  0  0  0  0  0  0  0
    1.0384   -2.9424    3.2280 O   0  0  0  0  0  0  0  0  0  0  0  0
    1.6239   -0.3315    5.2055 C   0  0  0  0  0  0  0  0  0  0  0  0
    0.0574   -0.1973    3.0980 H   0  0  0  0  0  0  0  0  0  0  0  0
    2.9625   -0.3957    3.5127 H   0  0  0  0  0  0  0  0  0  0  0  0
    0.6400   -0.7085    5.5075 H   0  0  0  0  0  0  0  0  0  0  0  0
    2.3556   -0.6965    5.9339 H   0  0  0  0  0  0  0  0  0  0  0  0
    1.5950    0.7616    5.2697 H   0  0  0  0  0  0  0  0  0  0  0  0
    3.1321   -2.8596    4.2254 N   0  0  0  0  0  0  0  0  0  0  0  0
    3.3651   -4.2846    4.2579 C   0  0  0  0  0  0  0  0  0  0  0  0
    3.8670   -2.2511    4.5737 H   0  0  0  0  0  0  0  0  0  0  0  0
    3.0119   -4.6927    5.2164 H   0  0  0  0  0  0  0  0  0  0  0  0
    2.8193   -4.7642    3.4319 H   0  0  0  0  0  0  0  0  0  0  0  0
    4.4417   -4.4825    4.1497 H   0  0  0  0  0  0  0  0  0  0  0  0
  1  3  1  0  0  0  0
  1  7  1  0  0  0  0
  1  2  2  0  0  0  0
 34 35  1  0  0  0  0
 35 43  1  0  0  0  0
 35 36  2  0  0  0  0
  8  9  1  0  0  0  0
  9 17  1  0  0  0  0
  9 10  2  0  0  0  0
 18 19  1  0  0  0  0
 19 33  1  0  0  0  0
 19 20  2  0  0  0  0
 22 23  1  0  0  0  0
 23 24  2  0  0  0  0
 23 25  1  0  0  0  0
 34 37  1  0  0  0  0
  8 11  1  0  0  0  0
 43 44  1  0  0  0  0
 21 22  1  0  0  0  0
 18 21  1  0  0  0  0
 33 34  1  0  0  0  0
  7  8  1  0  0  0  0
 17 18  1  0  0  0  0
  3  4  1  0  0  0  0
  3  5  1  0  0  0  0
  3  6  1  0  0  0  0
 37 40  1  0  0  0  0
 37 41  1  0  0  0  0
 37 42  1  0  0  0  0
 11 14  1  0  0  0  0
 11 15  1  0  0  0  0
 11 16  1  0  0  0  0
 44 46  1  0  0  0  0
 44 47  1  0  0  0  0
 44 48  1  0  0  0  0
 22 30  1  0  0  0  0
 22 31  1  0  0  0  0
 21 28  1  0  0  0  0
 21 29  1  0  0  0  0
 34 39  1  0  0  0  0
  8 13  1  0  0  0  0
 18 27  1  0  0  0  0
 43 45  1  0  0  0  0
  7 12  1  0  0  0  0
 33 38  1  0  0  0  0
 17 26  1  0  0  0  0
 25 32  1  0  0  0  0
M  END
$$$$

  -OEChem-05262214473D

 48 47  0     1  0  0  0  0  0999 V2000
   -5.5827   -1.3473    1.4591 C   0  0  0  0  0  0  0  0  0  0  0  0
   -5.7053   -2.4696    0.9825 O   0  0  0  0  0  0  0  0  0  0  0  0
   -6.7879   -0.6277    1.9670 C   0  0  0  0  0  0  0  0  0  0  0  0
   -7.2718   -0.0164    1.1885 H   0  0  0  0  0  0  0  0  0  0  0  0
   -7.5699   -1.3171    2.3239 H   0  0  0  0  0  0  0  0  0  0  0  0
   -6.6057    0.0628    2.8060 H   0  0  0  0  0  0  0  0  0  0  0  0
   -4.4001   -0.6377    1.5884 N   0  0  0  0  0  0  0  0  0  0  0  0
   -3.1220   -1.1455    1.1644 C   0  0  2  0  0  0  0  0  0  0  0  0
   -2.2017    0.0428    0.9187 C   0  0  0  0  0  0  0  0  0  0  0  0
   -2.6171    1.1750    0.6807 O   0  0  0  0  0  0  0  0  0  0  0  0
   -3.2533   -1.9992   -0.0873 C   0  0  0  0  0  0  0  0  0  0  0  0
   -4.4370    0.2910    2.0047 H   0  0  0  0  0  0  0  0  0  0  0  0
   -2.7302   -1.7467    1.9921 H   0  0  0  0  0  0  0  0  0  0  0  0
   -3.6446   -1.4140   -0.9275 H   0  0  0  0  0  0  0  0  0  0  0  0
   -2.2844   -2.4081   -0.3922 H   0  0  0  0  0  0  0  0  0  0  0  0
   -3.9388   -2.8365    0.0822 H   0  0  0  0  0  0  0  0  0  0  0  0
   -0.8768   -0.3314    0.9568 N   0  0  0  0  0  0  0  0  0  0  0  0
    0.2067    0.6285    0.7375 C   0  0  2  0  0  0  0  0  0  0  0  0
    1.3968    0.1280    1.5504 C   0  0  0  0  0  0  0  0  0  0  0  0
    2.5607    0.3555    1.2266 O   0  0  0  0  0  0  0  0  0  0  0  0
   -0.2555    2.0251    1.1796 C   0  0  0  0  0  0  0  0  0  0  0  0
   -1.3702    2.6046    0.3089 C   0  0  0  0  0  0  0  0  0  0  0  0
   -1.8122    3.9644    0.7893 C   0  0  0  0  0  0  0  0  0  0  0  0
   -1.4220    4.4798    1.8292 O   0  0  0  0  0  0  0  0  0  0  0  0
   -2.7110    4.5502   -0.0398 O   0  0  0  0  0  0  0  0  0  0  0  0
   -0.6087   -1.2764    1.1771 H   0  0  0  0  0  0  0  0  0  0  0  0
    0.4494    0.6383   -0.3302 H   0  0  0  0  0  0  0  0  0  0  0  0
   -0.6041    1.9779    2.2199 H   0  0  0  0  0  0  0  0  0  0  0  0
    0.5897    2.7258    1.1639 H   0  0  0  0  0  0  0  0  0  0  0  0
   -1.0070    2.7334   -0.7181 H   0  0  0  0  0  0  0  0  0  0  0  0
   -2.2263    1.9261    0.2341 H   0  0  0  0  0  0  0  0  0  0  0  0
   -3.0387    5.4293    0.2461 H   0  0  0  0  0  0  0  0  0  0  0  0
    1.0067   -0.5700    2.6838 N   0  0  0  0  0  0  0  0  0  0  0  0
    1.9441   -1.1458    3.6210 C   0  0  2  0  0  0  0  0  0  0  0  0
    2.1744   -2.5979    3.2238 C   0  0  0  0  0  0  0  0  0  0  0  0
    1.3747   -3.2440    2.5500 O   0  0  0  0  0  0  0  0  0  0  0  0
    1.4297   -1.0479    5.0488 C   0  0  0  0  0  0  0  0  0  0  0  0
    0.0135   -0.6821    2.8638 H   0  0  0  0  0  0  0  0  0  0  0  0
    2.8796   -0.5854    3.5173 H   0  0  0  0  0  0  0  0  0  0  0  0
    0.4928   -1.6033    5.1721 H   0  0  0  0  0  0  0  0  0  0  0  0
    2.1535   -1.4586    5.7604 H   0  0  0  0  0  0  0  0  0  0  0  0
    1.2363   -0.0051    5.3227 H   0  0  0  0  0  0  0  0  0  0  0  0
    3.3577   -3.1006    3.7466 N   0  0  0  0  0  0  0  0  0  0  0  0
    3.7943   -4.4589    3.5222 C   0  0  0  0  0  0  0  0  0  0  0  0
    3.9690   -2.4880    4.2785 H   0  0  0  0  0  0  0  0  0  0  0  0
    3.4378   -5.0994    4.3424 H   0  0  0  0  0  0  0  0  0  0  0  0
    3.3846   -4.8227    2.5684 H   0  0  0  0  0  0  0  0  0  0  0  0
    4.8932   -4.4892    3.4846 H   0  0  0  0  0  0  0  0  0  0  0  0
  1  3  1  0  0  0  0
  1  7  1  0  0  0  0
  1  2  2  0  0  0  0
 34 35  1  0  0  0  0
 35 43  1  0  0  0  0
 35 36  2  0  0  0  0
  8  9  1  0  0  0  0
  9 17  1  0  0  0  0
  9 10  2  0  0  0  0
 18 19  1  0  0  0  0
 19 33  1  0  0  0  0
 19 20  2  0  0  0  0
 22 23  1  0  0  0  0
 23 24  2  0  0  0  0
 23 25  1  0  0  0  0
 34 37  1  0  0  0  0
  8 11  1  0  0  0  0
 43 44  1  0  0  0  0
 21 22  1  0  0  0  0
 18 21  1  0  0  0  0
 33 34  1  0  0  0  0
  7  8  1  0  0  0  0
 17 18  1  0  0  0  0
  3  4  1  0  0  0  0
  3  5  1  0  0  0  0
  3  6  1  0  0  0  0
 37 40  1  0  0  0  0
 37 41  1  0  0  0  0
 37 42  1  0  0  0  0
 11 14  1  0  0  0  0
 11 15  1  0  0  0  0
 11 16  1  0  0  0  0
 44 46  1  0  0  0  0
 44 47  1  0  0  0  0
 44 48  1  0  0  0  0
 22 30  1  0  0  0  0
 22 31  1  0  0  0  0
 21 28  1  0  0  0  0
 21 29  1  0  0  0  0
 34 39  1  0  0  0  0
  8 13  1  0  0  0  0
 18 27  1  0  0  0  0
 43 45  1  0  0  0  0
  7 12  1  0  0  0  0
 33 38  1  0  0  0  0
 17 26  1  0  0  0  0
 25 32  1  0  0  0  0
M  END
$$$$

  -OEChem-05262214473D

 48 47  0     1  0  0  0  0  0999 V2000
   -5.5827   -1.3473    1.4591 C   0  0  0  0  0  0  0  0  0  0  0  0
   -5.7053   -2.4696    0.9825 O   0  0  0  0  0  0  0  0  0  0  0  0
   -6.7879   -0.6277    1.9670 C   0  0  0  0  0  0  0  0  0  0  0  0
   -7.2718   -0.0164    1.1885 H   0  0  0  0  0  0  0  0  0  0  0  0
   -7.5699   -1.3171    2.3239 H   0  0  0  0  0  0  0  0  0  0  0  0
   -6.6057    0.0628    2.8060 H   0  0  0  0  0  0  0  0  0  0  0  0
   -4.4001   -0.6377    1.5884 N   0  0  0  0  0  0  0  0  0  0  0  0
   -3.1220   -1.1455    1.1644 C   0  0  2  0  0  0  0  0  0  0  0  0
   -2.2017    0.0428    0.9187 C   0  0  0  0  0  0  0  0  0  0  0  0
   -2.6171    1.1750    0.6807 O   0  0  0  0  0  0  0  0  0  0  0  0
   -3.2533   -1.9992   -0.0873 C   0  0  0  0  0  0  0  0  0  0  0  0
   -4.4370    0.2910    2.0047 H   0  0  0  0  0  0  0  0  0  0  0  0
   -2.7302   -1.7467    1.9921 H   0  0  0  0  0  0  0  0  0  0  0  0
   -3.6446   -1.4140   -0.9275 H   0  0  0  0  0  0  0  0  0  0  0  0
   -2.2844   -2.4081   -0.3922 H   0  0  0  0  0  0  0  0  0  0  0  0
   -3.9388   -2.8365    0.0822 H   0  0  0  0  0  0  0  0  0  0  0  0
   -0.8768   -0.3314    0.9568 N   0  0  0  0  0  0  0  0  0  0  0  0
    0.2067    0.6285    0.7375 C   0  0  2  0  0  0  0  0  0  0  0  0
    1.3968    0.1280    1.5504 C   0  0  0  0  0  0  0  0  0  0  0  0
    2.5347    0.5663    1.3943 O   0  0  0  0  0  0  0  0  0  0  0  0
   -0.2555    2.0251    1.1796 C   0  0  0  0  0  0  0  0  0  0  0  0
   -1.3702    2.6046    0.3089 C   0  0  0  0  0  0  0  0  0  0  0  0
   -1.8122    3.9644    0.7893 C   0  0  0  0  0  0  0  0  0  0  0  0
   -1.4220    4.4798    1.8292 O   0  0  0  0  0  0  0  0  0  0  0  0
   -2.7110    4.5502   -0.0398 O   0  0  0  0  0  0  0  0  0  0  0  0
   -0.6087   -1.2764    1.1771 H   0  0  0  0  0  0  0  0  0  0  0  0
    0.4494    0.6383   -0.3302 H   0  0  0  0  0  0  0  0  0  0  0  0
   -0.6041    1.9779    2.2199 H   0  0  0  0  0  0  0  0  0  0  0  0
    0.5897    2.7258    1.1639 H   0  0  0  0  0  0  0  0  0  0  0  0
   -1.0070    2.7334   -0.7181 H   0  0  0  0  0  0  0  0  0  0  0  0
   -2.2263    1.9261    0.2341 H   0  0  0  0  0  0  0  0  0  0  0  0
   -3.0387    5.4293    0.2461 H   0  0  0  0  0  0  0  0  0  0  0  0
    1.0341   -0.8348    2.4807 N   0  0  0  0  0  0  0  0  0  0  0  0
    1.9771   -1.4667    3.3752 C   0  0  2  0  0  0  0  0  0  0  0  0
    2.4454   -2.7624    2.7260 C   0  0  0  0  0  0  0  0  0  0  0  0
    1.7987   -3.3521    1.8627 O   0  0  0  0  0  0  0  0  0  0  0  0
    1.3542   -1.7350    4.7363 C   0  0  0  0  0  0  0  0  0  0  0  0
    0.0579   -1.1091    2.5360 H   0  0  0  0  0  0  0  0  0  0  0  0
    2.8253   -0.7809    3.4765 H   0  0  0  0  0  0  0  0  0  0  0  0
    0.5025   -2.4202    4.6549 H   0  0  0  0  0  0  0  0  0  0  0  0
    2.0783   -2.1877    5.4218 H   0  0  0  0  0  0  0  0  0  0  0  0
    0.9911   -0.8058    5.1887 H   0  0  0  0  0  0  0  0  0  0  0  0
    3.6496   -3.2055    3.2547 N   0  0  0  0  0  0  0  0  0  0  0  0
    4.2954   -4.4195    2.8129 C   0  0  0  0  0  0  0  0  0  0  0  0
    4.1253   -2.6432    3.9542 H   0  0  0  0  0  0  0  0  0  0  0  0
    3.9796   -5.2571    3.4522 H   0  0  0  0  0  0  0  0  0  0  0  0
    4.0119   -4.6270    1.7705 H   0  0  0  0  0  0  0  0  0  0  0  0
    5.3868   -4.2991    2.8791 H   0  0  0  0  0  0  0  0  0  0  0  0
  1  3  1  0  0  0  0
  1  7  1  0  0  0  0
  1  2  2  0  0  0  0
 34 35  1  0  0  0  0
 35 43  1  0  0  0  0
 35 36  2  0  0  0  0
  8  9  1  0  0  0  0
  9 17  1  0  0  0  0
  9 10  2  0  0  0  0
 18 19  1  0  0  0  0
 19 33  1  0  0  0  0
 19 20  2  0  0  0  0
 22 23  1  0  0  0  0
 23 24  2  0  0  0  0
 23 25  1  0  0  0  0
 34 37  1  0  0  0  0
  8 11  1  0  0  0  0
 43 44  1  0  0  0  0
 21 22  1  0  0  0  0
 18 21  1  0  0  0  0
 33 34  1  0  0  0  0
  7  8  1  0  0  0  0
 17 18  1  0  0  0  0
  3  4  1  0  0  0  0
  3  5  1  0  0  0  0
  3  6  1  0  0  0  0
 37 40  1  0  0  0  0
 37 41  1  0  0  0  0
 37 42  1  0  0  0  0
 11 14  1  0  0  0  0
 11 15  1  0  0  0  0
 11 16  1  0  0  0  0
 44 46  1  0  0  0  0
 44 47  1  0  0  0  0
 44 48  1  0  0  0  0
 22 30  1  0  0  0  0
 22 31  1  0  0  0  0
 21 28  1  0  0  0  0
 21 29  1  0  0  0  0
 34 39  1  0  0  0  0
  8 13  1  0  0  0  0
 18 27  1  0  0  0  0
 43 45  1  0  0  0  0
  7 12  1  0  0  0  0
 33 38  1  0  0  0  0
 17 26  1  0  0  0  0
 25 32  1  0  0  0  0
M  END
$$$$

  -OEChem-05262214473D

 48 47  0     1  0  0  0  0  0999 V2000
   -5.5827   -1.3473    1.4591 C   0  0  0  0  0  0  0  0  0  0  0  0
   -5.7053   -2.4696    0.9825 O   0  0  0  0  0  0  0  0  0  0  0  0
   -6.7879   -0.6277    1.9670 C   0  0  0  0  0  0  0  0  0  0  0  0
   -7.2718   -0.0164    1.1885 H   0  0  0  0  0  0  0  0  0  0  0  0
   -7.5699   -1.3171    2.3239 H   0  0  0  0  0  0  0  0  0  0  0  0
   -6.6057    0.0628    2.8060 H   0  0  0  0  0  0  0  0  0  0  0  0
   -4.4001   -0.6377    1.5884 N   0  0  0  0  0  0  0  0  0  0  0  0
   -3.1220   -1.1455    1.1644 C   0  0  2  0  0  0  0  0  0  0  0  0
   -2.2017    0.0428    0.9187 C   0  0  0  0  0  0  0  0  0  0  0  0
   -2.6171    1.1750    0.6807 O   0  0  0  0  0  0  0  0  0  0  0  0
   -3.2533   -1.9992   -0.0873 C   0  0  0  0  0  0  0  0  0  0  0  0
   -4.4370    0.2910    2.0047 H   0  0  0  0  0  0  0  0  0  0  0  0
   -2.7302   -1.7467    1.9921 H   0  0  0  0  0  0  0  0  0  0  0  0
   -3.6446   -1.4140   -0.9275 H   0  0  0  0  0  0  0  0  0  0  0  0
   -2.2844   -2.4081   -0.3922 H   0  0  0  0  0  0  0  0  0  0  0  0
   -3.9388   -2.8365    0.0822 H   0  0  0  0  0  0  0  0  0  0  0  0
   -0.8768   -0.3314    0.9568 N   0  0  0  0  0  0  0  0  0  0  0  0
    0.2067    0.6285    0.7375 C   0  0  2  0  0  0  0  0  0  0  0  0
    1.3968    0.1280    1.5504 C   0  0  0  0  0  0  0  0  0  0  0  0
    2.4663    0.7324    1.5968 O   0  0  0  0  0  0  0  0  0  0  0  0
   -0.2555    2.0251    1.1796 C   0  0  0  0  0  0  0  0  0  0  0  0
   -1.3702    2.6046    0.3089 C   0  0  0  0  0  0  0  0  0  0  0  0
   -1.8122    3.9644    0.7893 C   0  0  0  0  0  0  0  0  0  0  0  0
   -1.4220    4.4798    1.8292 O   0  0  0  0  0  0  0  0  0  0  0  0
   -2.7110    4.5502   -0.0398 O   0  0  0  0  0  0  0  0  0  0  0  0
   -0.6087   -1.2764    1.1771 H   0  0  0  0  0  0  0  0  0  0  0  0
    0.4494    0.6383   -0.3302 H   0  0  0  0  0  0  0  0  0  0  0  0
   -0.6041    1.9779    2.2199 H   0  0  0  0  0  0  0  0  0  0  0  0
    0.5897    2.7258    1.1639 H   0  0  0  0  0  0  0  0  0  0  0  0
   -1.0070    2.7334   -0.7181 H   0  0  0  0  0  0  0  0  0  0  0  0
   -2.2263    1.9261    0.2341 H   0  0  0  0  0  0  0  0  0  0  0  0
   -3.0387    5.4293    0.2461 H   0  0  0  0  0  0  0  0  0  0  0  0
    1.1143   -1.0457    2.2334 N   0  0  0  0  0  0  0  0  0  0  0  0
    2.0741   -1.7225    3.0757 C   0  0  2  0  0  0  0  0  0  0  0  0
    2.7720   -2.7834    2.2348 C   0  0  0  0  0  0  0  0  0  0  0  0
    2.2815   -3.2592    1.2131 O   0  0  0  0  0  0  0  0  0  0  0  0
    1.4025   -2.3460    4.2893 C   0  0  0  0  0  0  0  0  0  0  0  0
    0.1874   -1.4493    2.1369 H   0  0  0  0  0  0  0  0  0  0  0  0
    2.8033   -0.9691    3.3929 H   0  0  0  0  0  0  0  0  0  0  0  0
    0.6685   -3.1035    3.9913 H   0  0  0  0  0  0  0  0  0  0  0  0
    2.1348   -2.8338    4.9411 H   0  0  0  0  0  0  0  0  0  0  0  0
    0.8761   -1.5860    4.8768 H   0  0  0  0  0  0  0  0  0  0  0  0
    3.9878   -3.1674    2.7832 N   0  0  0  0  0  0  0  0  0  0  0  0
    4.8342   -4.1692    2.1782 C   0  0  0  0  0  0  0  0  0  0  0  0
    4.3252   -2.7061    3.6229 H   0  0  0  0  0  0  0  0  0  0  0  0
    4.6001   -5.1550    2.6066 H   0  0  0  0  0  0  0  0  0  0  0  0
    4.6587   -4.1903    1.0925 H   0  0  0  0  0  0  0  0  0  0  0  0
    5.8887   -3.9252    2.3745 H   0  0  0  0  0  0  0  0  0  0  0  0
  1  3  1  0  0  0  0
  1  7  1  0  0  0  0
  1  2  2  0  0  0  0
 34 35  1  0  0  0  0
 35 43  1  0  0  0  0
 35 36  2  0  0  0  0
  8  9  1  0  0  0  0
  9 17  1  0  0  0  0
  9 10  2  0  0  0  0
 18 19  1  0  0  0  0
 19 33  1  0  0  0  0
 19 20  2  0  0  0  0
 22 23  1  0  0  0  0
 23 24  2  0  0  0  0
 23 25  1  0  0  0  0
 34 37  1  0  0  0  0
  8 11  1  0  0  0  0
 43 44  1  0  0  0  0
 21 22  1  0  0  0  0
 18 21  1  0  0  0  0
 33 34  1  0  0  0  0
  7  8  1  0  0  0  0
 17 18  1  0  0  0  0
  3  4  1  0  0  0  0
  3  5  1  0  0  0  0
  3  6  1  0  0  0  0
 37 40  1  0  0  0  0
 37 41  1  0  0  0  0
 37 42  1  0  0  0  0
 11 14  1  0  0  0  0
 11 15  1  0  0  0  0
 11 16  1  0  0  0  0
 44 46  1  0  0  0  0
 44 47  1  0  0  0  0
 44 48  1  0  0  0  0
 22 30  1  0  0  0  0
 22 31  1  0  0  0  0
 21 28  1  0  0  0  0
 21 29  1  0  0  0  0
 34 39  1  0  0  0  0
  8 13  1  0  0  0  0
 18 27  1  0  0  0  0
 43 45  1  0  0  0  0
  7 12  1  0  0  0  0
 33 38  1  0  0  0  0
 17 26  1  0  0  0  0
 25 32  1  0  0  0  0
M  END
$$$$

  -OEChem-05262214473D

 48 47  0     1  0  0  0  0  0999 V2000
   -5.5827   -1.3473    1.4591 C   0  0  0  0  0  0  0  0  0  0  0  0
   -5.7053   -2.4696    0.9825 O   0  0  0  0  0  0  0  0  0  0  0  0
   -6.7879   -0.6277    1.9670 C   0  0  0  0  0  0  0  0  0  0  0  0
   -7.2718   -0.0164    1.1885 H   0  0  0  0  0  0  0  0  0  0  0  0
   -7.5699   -1.3171    2.3239 H   0  0  0  0  0  0  0  0  0  0  0  0
   -6.6057    0.0628    2.8060 H   0  0  0  0  0  0  0  0  0  0  0  0
   -4.4001   -0.6377    1.5884 N   0  0  0  0  0  0  0  0  0  0  0  0
   -3.1220   -1.1455    1.1644 C   0  0  2  0  0  0  0  0  0  0  0  0
   -2.2017    0.0428    0.9187 C   0  0  0  0  0  0  0  0  0  0  0  0
   -2.6171    1.1750    0.6807 O   0  0  0  0  0  0  0  0  0  0  0  0
   -3.2533   -1.9992   -0.0873 C   0  0  0  0  0  0  0  0  0  0  0  0
   -4.4370    0.2910    2.0047 H   0  0  0  0  0  0  0  0  0  0  0  0
   -2.7302   -1.7467    1.9921 H   0  0  0  0  0  0  0  0  0  0  0  0
   -3.6446   -1.4140   -0.9275 H   0  0  0  0  0  0  0  0  0  0  0  0
   -2.2844   -2.4081   -0.3922 H   0  0  0  0  0  0  0  0  0  0  0  0
   -3.9388   -2.8365    0.0822 H   0  0  0  0  0  0  0  0  0  0  0  0
   -0.8768   -0.3314    0.9568 N   0  0  0  0  0  0  0  0  0  0  0  0
    0.2067    0.6285    0.7375 C   0  0  2  0  0  0  0  0  0  0  0  0
    1.3968    0.1280    1.5504 C   0  0  0  0  0  0  0  0  0  0  0  0
    2.3602    0.8426    1.8200 O   0  0  0  0  0  0  0  0  0  0  0  0
   -0.2555    2.0251    1.1796 C   0  0  0  0  0  0  0  0  0  0  0  0
   -1.3702    2.6046    0.3089 C   0  0  0  0  0  0  0  0  0  0  0  0
   -1.8122    3.9644    0.7893 C   0  0  0  0  0  0  0  0  0  0  0  0
   -1.4220    4.4798    1.8292 O   0  0  0  0  0  0  0  0  0  0  0  0
   -2.7110    4.5502   -0.0398 O   0  0  0  0  0  0  0  0  0  0  0  0
   -0.6087   -1.2764    1.1771 H   0  0  0  0  0  0  0  0  0  0  0  0
    0.4494    0.6383   -0.3302 H   0  0  0  0  0  0  0  0  0  0  0  0
   -0.6041    1.9779    2.2199 H   0  0  0  0  0  0  0  0  0  0  0  0
    0.5897    2.7258    1.1639 H   0  0  0  0  0  0  0  0  0  0  0  0
   -1.0070    2.7334   -0.7181 H   0  0  0  0  0  0  0  0  0  0  0  0
   -2.2263    1.9261    0.2341 H   0  0  0  0  0  0  0  0  0  0  0  0
   -3.0387    5.4293    0.2461 H   0  0  0  0  0  0  0  0  0  0  0  0
    1.2418   -1.1885    1.9588 N   0  0  0  0  0  0  0  0  0  0  0  0
    2.2285   -1.8958    2.7430 C   0  0  2  0  0  0  0  0  0  0  0  0
    3.1321   -2.6594    1.7839 C   0  0  0  0  0  0  0  0  0  0  0  0
    2.7902   -2.9718    0.6453 O   0  0  0  0  0  0  0  0  0  0  0  0
    1.5714   -2.8393    3.7383 C   0  0  0  0  0  0  0  0  0  0  0  0
    0.3933   -1.6795    1.6937 H   0  0  0  0  0  0  0  0  0  0  0  0
    2.8150   -1.1370    3.2723 H   0  0  0  0  0  0  0  0  0  0  0  0
    0.9793   -3.6067    3.2264 H   0  0  0  0  0  0  0  0  0  0  0  0
    2.3194   -3.3532    4.3511 H   0  0  0  0  0  0  0  0  0  0  0  0
    0.8990   -2.2926    4.4082 H   0  0  0  0  0  0  0  0  0  0  0  0
    4.3492   -2.9887    2.3641 N   0  0  0  0  0  0  0  0  0  0  0  0
    5.3740   -3.7249    1.6615 C   0  0  0  0  0  0  0  0  0  0  0  0
    4.5550   -2.6723    3.3071 H   0  0  0  0  0  0  0  0  0  0  0  0
    5.2573   -4.8000    1.8631 H   0  0  0  0  0  0  0  0  0  0  0  0
    5.2807   -3.5424    0.5808 H   0  0  0  0  0  0  0  0  0  0  0  0
    6.3648   -3.3930    2.0053 H   0  0  0  0  0  0  0  0  0  0  0  0
  1  3  1  0  0  0  0
  1  7  1  0  0  0  0
  1  2  2  0  0  0  0
 34 35  1  0  0  0  0
 35 43  1  0  0  0  0
 35 36  2  0  0  0  0
  8  9  1  0  0  0  0
  9 17  1  0  0  0  0
  9 10  2  0  0  0  0
 18 19  1  0  0  0  0
 19 33  1  0  0  0  0
 19 20  2  0  0  0  0
 22 23  1  0  0  0  0
 23 24  2  0  0  0  0
 23 25  1  0  0  0  0
 34 37  1  0  0  0  0
  8 11  1  0  0  0  0
 43 44  1  0  0  0  0
 21 22  1  0  0  0  0
 18 21  1  0  0  0  0
 33 34  1  0  0  0  0
  7  8  1  0  0  0  0
 17 18  1  0  0  0  0
  3  4  1  0  0  0  0
  3  5  1  0  0  0  0
  3  6  1  0  0  0  0
 37 40  1  0  0  0  0
 37 41  1  0  0  0  0
 37 42  1  0  0  0  0
 11 14  1  0  0  0  0
 11 15  1  0  0  0  0
 11 16  1  0  0  0  0
 44 46  1  0  0  0  0
 44 47  1  0  0  0  0
 44 48  1  0  0  0  0
 22 30  1  0  0  0  0
 22 31  1  0  0  0  0
 21 28  1  0  0  0  0
 21 29  1  0  0  0  0
 34 39  1  0  0  0  0
  8 13  1  0  0  0  0
 18 27  1  0  0  0  0
 43 45  1  0  0  0  0
  7 12  1  0  0  0  0
 33 38  1  0  0  0  0
 17 26  1  0  0  0  0
 25 32  1  0  0  0  0
M  END
$$$$

  -OEChem-05262214473D

 48 47  0     1  0  0  0  0  0999 V2000
   -5.5827   -1.3473    1.4591 C   0  0  0  0  0  0  0  0  0  0  0  0
   -5.7053   -2.4696    0.9825 O   0  0  0  0  0  0  0  0  0  0  0  0
   -6.7879   -0.6277    1.9670 C   0  0  0  0  0  0  0  0  0  0  0  0
   -7.2718   -0.0164    1.1885 H   0  0  0  0  0  0  0  0  0  0  0  0
   -7.5699   -1.3171    2.3239 H   0  0  0  0  0  0  0  0  0  0  0  0
   -6.6057    0.0628    2.8060 H   0  0  0  0  0  0  0  0  0  0  0  0
   -4.4001   -0.6377    1.5884 N   0  0  0  0  0  0  0  0  0  0  0  0
   -3.1220   -1.1455    1.1644 C   0  0  2  0  0  0  0  0  0  0  0  0
   -2.2017    0.0428    0.9187 C   0  0  0  0  0  0  0  0  0  0  0  0
   -2.6171    1.1750    0.6807 O   0  0  0  0  0  0  0  0  0  0  0  0
   -3.2533   -1.9992   -0.0873 C   0  0  0  0  0  0  0  0  0  0  0  0
   -4.4370    0.2910    2.0047 H   0  0  0  0  0  0  0  0  0  0  0  0
   -2.7302   -1.7467    1.9921 H   0  0  0  0  0  0  0  0  0  0  0  0
   -3.6446   -1.4140   -0.9275 H   0  0  0  0  0  0  0  0  0  0  0  0
   -2.2844   -2.4081   -0.3922 H   0  0  0  0  0  0  0  0  0  0  0  0
   -3.9388   -2.8365    0.0822 H   0  0  0  0  0  0  0  0  0  0  0  0
   -0.8768   -0.3314    0.9568 N   0  0  0  0  0  0  0  0  0  0  0  0
    0.2067    0.6285    0.7375 C   0  0  2  0  0  0  0  0  0  0  0  0
    1.3968    0.1280    1.5504 C   0  0  0  0  0  0  0  0  0  0  0  0
    2.2235    0.8893    2.0489 O   0  0  0  0  0  0  0  0  0  0  0  0
   -0.2555    2.0251    1.1796 C   0  0  0  0  0  0  0  0  0  0  0  0
   -1.3702    2.6046    0.3089 C   0  0  0  0  0  0  0  0  0  0  0  0
   -1.8122    3.9644    0.7893 C   0  0  0  0  0  0  0  0  0  0  0  0
   -1.4220    4.4798    1.8292 O   0  0  0  0  0  0  0  0  0  0  0  0
   -2.7110    4.5502   -0.0398 O   0  0  0  0  0  0  0  0  0  0  0  0
   -0.6087   -1.2764    1.1771 H   0  0  0  0  0  0  0  0  0  0  0  0
    0.4494    0.6383   -0.3302 H   0  0  0  0  0  0  0  0  0  0  0  0
   -0.6041    1.9779    2.2199 H   0  0  0  0  0  0  0  0  0  0  0  0
    0.5897    2.7258    1.1639 H   0  0  0  0  0  0  0  0  0  0  0  0
   -1.0070    2.7334   -0.7181 H   0  0  0  0  0  0  0  0  0  0  0  0
   -2.2263    1.9261    0.2341 H   0  0  0  0  0  0  0  0  0  0  0  0
   -3.0387    5.4293    0.2461 H   0  0  0  0  0  0  0  0  0  0  0  0
    1.4080   -1.2533    1.6755 N   0  0  0  0  0  0  0  0  0  0  0  0
    2.4298   -1.9747    2.3997 C   0  0  2  0  0  0  0  0  0  0  0  0
    3.5012   -2.3990    1.4040 C   0  0  0  0  0  0  0  0  0  0  0  0
    3.2902   -2.5094    0.1980 O   0  0  0  0  0  0  0  0  0  0  0  0
    1.8494   -3.1813    3.1209 C   0  0  0  0  0  0  0  0  0  0  0  0
    0.6616   -1.7839    1.2366 H   0  0  0  0  0  0  0  0  0  0  0  0
    2.8598   -1.2732    3.1229 H   0  0  0  0  0  0  0  0  0  0  0  0
    1.4139   -3.8954    2.4124 H   0  0  0  0  0  0  0  0  0  0  0  0
    2.6194   -3.7102    3.6921 H   0  0  0  0  0  0  0  0  0  0  0  0
    1.0584   -2.8772    3.8149 H   0  0  0  0  0  0  0  0  0  0  0  0
    4.7092   -2.6816    2.0261 N   0  0  0  0  0  0  0  0  0  0  0  0
    5.8780   -3.1171    1.2979 C   0  0  0  0  0  0  0  0  0  0  0  0
    4.7992   -2.5443    3.0285 H   0  0  0  0  0  0  0  0  0  0  0  0
    5.9063   -4.2164    1.2723 H   0  0  0  0  0  0  0  0  0  0  0  0
    5.8357   -2.7275    0.2700 H   0  0  0  0  0  0  0  0  0  0  0  0
    6.7826   -2.7386    1.7965 H   0  0  0  0  0  0  0  0  0  0  0  0
  1  3  1  0  0  0  0
  1  7  1  0  0  0  0
  1  2  2  0  0  0  0
 34 35  1  0  0  0  0
 35 43  1  0  0  0  0
 35 36  2  0  0  0  0
  8  9  1  0  0  0  0
  9 17  1  0  0  0  0
  9 10  2  0  0  0  0
 18 19  1  0  0  0  0
 19 33  1  0  0  0  0
 19 20  2  0  0  0  0
 22 23  1  0  0  0  0
 23 24  2  0  0  0  0
 23 25  1  0  0  0  0
 34 37  1  0  0  0  0
  8 11  1  0  0  0  0
 43 44  1  0  0  0  0
 21 22  1  0  0  0  0
 18 21  1  0  0  0  0
 33 34  1  0  0  0  0
  7  8  1  0  0  0  0
 17 18  1  0  0  0  0
  3  4  1  0  0  0  0
  3  5  1  0  0  0  0
  3  6  1  0  0  0  0
 37 40  1  0  0  0  0
 37 41  1  0  0  0  0
 37 42  1  0  0  0  0
 11 14  1  0  0  0  0
 11 15  1  0  0  0  0
 11 16  1  0  0  0  0
 44 46  1  0  0  0  0
 44 47  1  0  0  0  0
 44 48  1  0  0  0  0
 22 30  1  0  0  0  0
 22 31  1  0  0  0  0
 21 28  1  0  0  0  0
 21 29  1  0  0  0  0
 34 39  1  0  0  0  0
  8 13  1  0  0  0  0
 18 27  1  0  0  0  0
 43 45  1  0  0  0  0
  7 12  1  0  0  0  0
 33 38  1  0  0  0  0
 17 26  1  0  0  0  0
 25 32  1  0  0  0  0
M  END
$$$$

  -OEChem-05262214473D

 48 47  0     1  0  0  0  0  0999 V2000
   -5.5827   -1.3473    1.4591 C   0  0  0  0  0  0  0  0  0  0  0  0
   -5.7053   -2.4696    0.9825 O   0  0  0  0  0  0  0  0  0  0  0  0
   -6.7879   -0.6277    1.9670 C   0  0  0  0  0  0  0  0  0  0  0  0
   -7.2718   -0.0164    1.1885 H   0  0  0  0  0  0  0  0  0  0  0  0
   -7.5699   -1.3171    2.3239 H   0  0  0  0  0  0  0  0  0  0  0  0
   -6.6057    0.0628    2.8060 H   0  0  0  0  0  0  0  0  0  0  0  0
   -4.4001   -0.6377    1.5884 N   0  0  0  0  0  0  0  0  0  0  0  0
   -3.1220   -1.1455    1.1644 C   0  0  2  0  0  0  0  0  0  0  0  0
   -2.2017    0.0428    0.9187 C   0  0  0  0  0  0  0  0  0  0  0  0
   -2.6171    1.1750    0.6807 O   0  0  0  0  0  0  0  0  0  0  0  0
   -3.2533   -1.9992   -0.0873 C   0  0  0  0  0  0  0  0  0  0  0  0
   -4.4370    0.2910    2.0047 H   0  0  0  0  0  0  0  0  0  0  0  0
   -2.7302   -1.7467    1.9921 H   0  0  0  0  0  0  0  0  0  0  0  0
   -3.6446   -1.4140   -0.9275 H   0  0  0  0  0  0  0  0  0  0  0  0
   -2.2844   -2.4081   -0.3922 H   0  0  0  0  0  0  0  0  0  0  0  0
   -3.9388   -2.8365    0.0822 H   0  0  0  0  0  0  0  0  0  0  0  0
   -0.8768   -0.3314    0.9568 N   0  0  0  0  0  0  0  0  0  0  0  0
    0.2067    0.6285    0.7375 C   0  0  2  0  0  0  0  0  0  0  0  0
    1.3968    0.1280    1.5504 C   0  0  0  0  0  0  0  0  0  0  0  0
    2.0656    0.8693    2.2678 O   0  0  0  0  0  0  0  0  0  0  0  0
   -0.2555    2.0251    1.1796 C   0  0  0  0  0  0  0  0  0  0  0  0
   -1.3702    2.6046    0.3089 C   0  0  0  0  0  0  0  0  0  0  0  0
   -1.8122    3.9644    0.7893 C   0  0  0  0  0  0  0  0  0  0  0  0
   -1.4220    4.4798    1.8292 O   0  0  0  0  0  0  0  0  0  0  0  0
   -2.7110    4.5502   -0.0398 O   0  0  0  0  0  0  0  0  0  0  0  0
   -0.6087   -1.2764    1.1771 H   0  0  0  0  0  0  0  0  0  0  0  0
    0.4494    0.6383   -0.3302 H   0  0  0  0  0  0  0  0  0  0  0  0
   -0.6041    1.9779    2.2199 H   0  0  0  0  0  0  0  0  0  0  0  0
    0.5897    2.7258    1.1639 H   0  0  0  0  0  0  0  0  0  0  0  0
   -1.0070    2.7334   -0.7181 H   0  0  0  0  0  0  0  0  0  0  0  0
   -2.2263    1.9261    0.2341 H   0  0  0  0  0  0  0  0  0  0  0  0
   -3.0387    5.4293    0.2461 H   0  0  0  0  0  0  0  0  0  0  0  0
    1.6016   -1.2359    1.4029 N   0  0  0  0  0  0  0  0  0  0  0  0
    2.6642   -1.9538    2.0693 C   0  0  2  0  0  0  0  0  0  0  0  0
    3.8540   -2.0199    1.1209 C   0  0  0  0  0  0  0  0  0  0  0  0
    3.7473   -1.9035   -0.0982 O   0  0  0  0  0  0  0  0  0  0  0  0
    2.2175   -3.3486    2.4790 C   0  0  0  0  0  0  0  0  0  0  0  0
    0.9740   -1.7555    0.7968 H   0  0  0  0  0  0  0  0  0  0  0  0
    2.9344   -1.3684    2.9550 H   0  0  0  0  0  0  0  0  0  0  0  0
    1.9427   -3.9500    1.6048 H   0  0  0  0  0  0  0  0  0  0  0  0
    3.0144   -3.8807    3.0089 H   0  0  0  0  0  0  0  0  0  0  0  0
    1.3434   -3.3002    3.1373 H   0  0  0  0  0  0  0  0  0  0  0  0
    5.0433   -2.2671    1.7921 N   0  0  0  0  0  0  0  0  0  0  0  0
    6.3119   -2.3870    1.1122 C   0  0  0  0  0  0  0  0  0  0  0  0
    5.0411   -2.3307    2.8059 H   0  0  0  0  0  0  0  0  0  0  0  0
    6.5028   -3.4439    0.8746 H   0  0  0  0  0  0  0  0  0  0  0  0
    6.2858   -1.8011    0.1815 H   0  0  0  0  0  0  0  0  0  0  0  0
    7.1136   -2.0068    1.7624 H   0  0  0  0  0  0  0  0  0  0  0  0
  1  3  1  0  0  0  0
  1  7  1  0  0  0  0
  1  2  2  0  0  0  0
 34 35  1  0  0  0  0
 35 43  1  0  0  0  0
 35 36  2  0  0  0  0
  8  9  1  0  0  0  0
  9 17  1  0  0  0  0
  9 10  2  0  0  0  0
 18 19  1  0  0  0  0
 19 33  1  0  0  0  0
 19 20  2  0  0  0  0
 22 23  1  0  0  0  0
 23 24  2  0  0  0  0
 23 25  1  0  0  0  0
 34 37  1  0  0  0  0
  8 11  1  0  0  0  0
 43 44  1  0  0  0  0
 21 22  1  0  0  0  0
 18 21  1  0  0  0  0
 33 34  1  0  0  0  0
  7  8  1  0  0  0  0
 17 18  1  0  0  0  0
  3  4  1  0  0  0  0
  3  5  1  0  0  0  0
  3  6  1  0  0  0  0
 37 40  1  0  0  0  0
 37 41  1  0  0  0  0
 37 42  1  0  0  0  0
 11 14  1  0  0  0  0
 11 15  1  0  0  0  0
 11 16  1  0  0  0  0
 44 46  1  0  0  0  0
 44 47  1  0  0  0  0
 44 48  1  0  0  0  0
 22 30  1  0  0  0  0
 22 31  1  0  0  0  0
 21 28  1  0  0  0  0
 21 29  1  0  0  0  0
 34 39  1  0  0  0  0
  8 13  1  0  0  0  0
 18 27  1  0  0  0  0
 43 45  1  0  0  0  0
  7 12  1  0  0  0  0
 33 38  1  0  0  0  0
 17 26  1  0  0  0  0
 25 32  1  0  0  0  0
M  END
$$$$

  -OEChem-05262214473D

 48 47  0     1  0  0  0  0  0999 V2000
   -5.5827   -1.3473    1.4591 C   0  0  0  0  0  0  0  0  0  0  0  0
   -5.7053   -2.4696    0.9825 O   0  0  0  0  0  0  0  0  0  0  0  0
   -6.7879   -0.6277    1.9670 C   0  0  0  0  0  0  0  0  0  0  0  0
   -7.2718   -0.0164    1.1885 H   0  0  0  0  0  0  0  0  0  0  0  0
   -7.5699   -1.3171    2.3239 H   0  0  0  0  0  0  0  0  0  0  0  0
   -6.6057    0.0628    2.8060 H   0  0  0  0  0  0  0  0  0  0  0  0
   -4.4001   -0.6377    1.5884 N   0  0  0  0  0  0  0  0  0  0  0  0
   -3.1220   -1.1455    1.1644 C   0  0  2  0  0  0  0  0  0  0  0  0
   -2.2017    0.0428    0.9187 C   0  0  0  0  0  0  0  0  0  0  0  0
   -2.6171    1.1750    0.6807 O   0  0  0  0  0  0  0  0  0  0  0  0
   -3.2533   -1.9992   -0.0873 C   0  0  0  0  0  0  0  0  0  0  0  0
   -4.4370    0.2910    2.0047 H   0  0  0  0  0  0  0  0  0  0  0  0
   -2.7302   -1.7467    1.9921 H   0  0  0  0  0  0  0  0  0  0  0  0
   -3.6446   -1.4140   -0.9275 H   0  0  0  0  0  0  0  0  0  0  0  0
   -2.2844   -2.4081   -0.3922 H   0  0  0  0  0  0  0  0  0  0  0  0
   -3.9388   -2.8365    0.0822 H   0  0  0  0  0  0  0  0  0  0  0  0
   -0.8768   -0.3314    0.9568 N   0  0  0  0  0  0  0  0  0  0  0  0
    0.2067    0.6285    0.7375 C   0  0  2  0  0  0  0  0  0  0  0  0
    1.3968    0.1280    1.5504 C   0  0  0  0  0  0  0  0  0  0  0  0
    1.8972    0.7841    2.4618 O   0  0  0  0  0  0  0  0  0  0  0  0
   -0.2555    2.0251    1.1796 C   0  0  0  0  0  0  0  0  0  0  0  0
   -1.3702    2.6046    0.3089 C   0  0  0  0  0  0  0  0  0  0  0  0
   -1.8122    3.9644    0.7893 C   0  0  0  0  0  0  0  0  0  0  0  0
   -1.4220    4.4798    1.8292 O   0  0  0  0  0  0  0  0  0  0  0  0
   -2.7110    4.5502   -0.0398 O   0  0  0  0  0  0  0  0  0  0  0  0
   -0.6087   -1.2764    1.1771 H   0  0  0  0  0  0  0  0  0  0  0  0
    0.4494    0.6383   -0.3302 H   0  0  0  0  0  0  0  0  0  0  0  0
   -0.6041    1.9779    2.2199 H   0  0  0  0  0  0  0  0  0  0  0  0
    0.5897    2.7258    1.1639 H   0  0  0  0  0  0  0  0  0  0  0  0
   -1.0070    2.7334   -0.7181 H   0  0  0  0  0  0  0  0  0  0  0  0
   -2.2263    1.9261    0.2341 H   0  0  0  0  0  0  0  0  0  0  0  0
   -3.0387    5.4293    0.2461 H   0  0  0  0  0  0  0  0  0  0  0  0
    1.8093   -1.1373    1.1596 N   0  0  0  0  0  0  0  0  0  0  0  0
    2.9158   -1.8346    1.7743 C   0  0  2  0  0  0  0  0  0  0  0  0
    4.1665   -1.5478    0.9540 C   0  0  0  0  0  0  0  0  0  0  0  0
    4.1305   -1.1954   -0.2231 O   0  0  0  0  0  0  0  0  0  0  0  0
    2.6506   -3.3298    1.8564 C   0  0  0  0  0  0  0  0  0  0  0  0
    1.3091   -1.5963    0.4043 H   0  0  0  0  0  0  0  0  0  0  0  0
    3.0340   -1.4162    2.7798 H   0  0  0  0  0  0  0  0  0  0  0  0
    2.5295   -3.7668    0.8585 H   0  0  0  0  0  0  0  0  0  0  0  0
    3.4774   -3.8530    2.3482 H   0  0  0  0  0  0  0  0  0  0  0  0
    1.7345   -3.5327    2.4215 H   0  0  0  0  0  0  0  0  0  0  0  0
    5.3288   -1.7734    1.6782 N   0  0  0  0  0  0  0  0  0  0  0  0
    6.6461   -1.5844    1.1170 C   0  0  0  0  0  0  0  0  0  0  0  0
    5.2642   -2.0461    2.6545 H   0  0  0  0  0  0  0  0  0  0  0  0
    7.0062   -2.5352    0.6971 H   0  0  0  0  0  0  0  0  0  0  0  0
    6.6002   -0.8263    0.3213 H   0  0  0  0  0  0  0  0  0  0  0  0
    7.3354   -1.2474    1.9053 H   0  0  0  0  0  0  0  0  0  0  0  0
  1  3  1  0  0  0  0
  1  7  1  0  0  0  0
  1  2  2  0  0  0  0
 34 35  1  0  0  0  0
 35 43  1  0  0  0  0
 35 36  2  0  0  0  0
  8  9  1  0  0  0  0
  9 17  1  0  0  0  0
  9 10  2  0  0  0  0
 18 19  1  0  0  0  0
 19 33  1  0  0  0  0
 19 20  2  0  0  0  0
 22 23  1  0  0  0  0
 23 24  2  0  0  0  0
 23 25  1  0  0  0  0
 34 37  1  0  0  0  0
  8 11  1  0  0  0  0
 43 44  1  0  0  0  0
 21 22  1  0  0  0  0
 18 21  1  0  0  0  0
 33 34  1  0  0  0  0
  7  8  1  0  0  0  0
 17 18  1  0  0  0  0
  3  4  1  0  0  0  0
  3  5  1  0  0  0  0
  3  6  1  0  0  0  0
 37 40  1  0  0  0  0
 37 41  1  0  0  0  0
 37 42  1  0  0  0  0
 11 14  1  0  0  0  0
 11 15  1  0  0  0  0
 11 16  1  0  0  0  0
 44 46  1  0  0  0  0
 44 47  1  0  0  0  0
 44 48  1  0  0  0  0
 22 30  1  0  0  0  0
 22 31  1  0  0  0  0
 21 28  1  0  0  0  0
 21 29  1  0  0  0  0
 34 39  1  0  0  0  0
  8 13  1  0  0  0  0
 18 27  1  0  0  0  0
 43 45  1  0  0  0  0
  7 12  1  0  0  0  0
 33 38  1  0  0  0  0
 17 26  1  0  0  0  0
 25 32  1  0  0  0  0
M  END
$$$$

  -OEChem-05262214473D

 48 47  0     1  0  0  0  0  0999 V2000
   -5.5827   -1.3473    1.4591 C   0  0  0  0  0  0  0  0  0  0  0  0
   -5.7053   -2.4696    0.9825 O   0  0  0  0  0  0  0  0  0  0  0  0
   -6.7879   -0.6277    1.9670 C   0  0  0  0  0  0  0  0  0  0  0  0
   -7.2718   -0.0164    1.1885 H   0  0  0  0  0  0  0  0  0  0  0  0
   -7.5699   -1.3171    2.3239 H   0  0  0  0  0  0  0  0  0  0  0  0
   -6.6057    0.0628    2.8060 H   0  0  0  0  0  0  0  0  0  0  0  0
   -4.4001   -0.6377    1.5884 N   0  0  0  0  0  0  0  0  0  0  0  0
   -3.1220   -1.1455    1.1644 C   0  0  2  0  0  0  0  0  0  0  0  0
   -2.2017    0.0428    0.9187 C   0  0  0  0  0  0  0  0  0  0  0  0
   -2.6171    1.1750    0.6807 O   0  0  0  0  0  0  0  0  0  0  0  0
   -3.2533   -1.9992   -0.0873 C   0  0  0  0  0  0  0  0  0  0  0  0
   -4.4370    0.2910    2.0047 H   0  0  0  0  0  0  0  0  0  0  0  0
   -2.7302   -1.7467    1.9921 H   0  0  0  0  0  0  0  0  0  0  0  0
   -3.6446   -1.4140   -0.9275 H   0  0  0  0  0  0  0  0  0  0  0  0
   -2.2844   -2.4081   -0.3922 H   0  0  0  0  0  0  0  0  0  0  0  0
   -3.9388   -2.8365    0.0822 H   0  0  0  0  0  0  0  0  0  0  0  0
   -0.8768   -0.3314    0.9568 N   0  0  0  0  0  0  0  0  0  0  0  0
    0.2067    0.6285    0.7375 C   0  0  2  0  0  0  0  0  0  0  0  0
    1.3968    0.1280    1.5504 C   0  0  0  0  0  0  0  0  0  0  0  0
    1.7298    0.6394    2.6177 O   0  0  0  0  0  0  0  0  0  0  0  0
   -0.2555    2.0251    1.1796 C   0  0  0  0  0  0  0  0  0  0  0  0
   -1.3702    2.6046    0.3089 C   0  0  0  0  0  0  0  0  0  0  0  0
   -1.8122    3.9644    0.7893 C   0  0  0  0  0  0  0  0  0  0  0  0
   -1.4220    4.4798    1.8292 O   0  0  0  0  0  0  0  0  0  0  0  0
   -2.7110    4.5502   -0.0398 O   0  0  0  0  0  0  0  0  0  0  0  0
   -0.6087   -1.2764    1.1771 H   0  0  0  0  0  0  0  0  0  0  0  0
    0.4494    0.6383   -0.3302 H   0  0  0  0  0  0  0  0  0  0  0  0
   -0.6041    1.9779    2.2199 H   0  0  0  0  0  0  0  0  0  0  0  0
    0.5897    2.7258    1.1639 H   0  0  0  0  0  0  0  0  0  0  0  0
   -1.0070    2.7334   -0.7181 H   0  0  0  0  0  0  0  0  0  0  0  0
   -2.2263    1.9261    0.2341 H   0  0  0  0  0  0  0  0  0  0  0  0
   -3.0387    5.4293    0.2461 H   0  0  0  0  0  0  0  0  0  0  0  0
    2.0169   -0.9643    0.9621 N   0  0  0  0  0  0  0  0  0  0  0  0
    3.1675   -1.6252    1.5348 C   0  0  2  0  0  0  0  0  0  0  0  0
    4.4175   -1.0151    0.9146 C   0  0  0  0  0  0  0  0  0  0  0  0
    4.4135   -0.4334   -0.1683 O   0  0  0  0  0  0  0  0  0  0  0  0
    3.1193   -3.1263    1.2957 C   0  0  0  0  0  0  0  0  0  0  0  0
    1.6442   -1.3169    0.0857 H   0  0  0  0  0  0  0  0  0  0  0  0
    3.1516   -1.4133    2.6095 H   0  0  0  0  0  0  0  0  0  0  0  0
    3.1344   -3.3582    0.2245 H   0  0  0  0  0  0  0  0  0  0  0  0
    3.9769   -3.6290    1.7548 H   0  0  0  0  0  0  0  0  0  0  0  0
    2.2051   -3.5588    1.7165 H   0  0  0  0  0  0  0  0  0  0  0  0
    5.5461   -1.2342    1.6921 N   0  0  0  0  0  0  0  0  0  0  0  0
    6.8578   -0.7641    1.3121 C   0  0  0  0  0  0  0  0  0  0  0  0
    5.4532   -1.7098    2.5848 H   0  0  0  0  0  0  0  0  0  0  0  0
    7.3823   -1.5522    0.7518 H   0  0  0  0  0  0  0  0  0  0  0  0
    6.7577    0.1304    0.6798 H   0  0  0  0  0  0  0  0  0  0  0  0
    7.4328   -0.5122    2.2154 H   0  0  0  0  0  0  0  0  0  0  0  0
  1  3  1  0  0  0  0
  1  7  1  0  0  0  0
  1  2  2  0  0  0  0
 34 35  1  0  0  0  0
 35 43  1  0  0  0  0
 35 36  2  0  0  0  0
  8  9  1  0  0  0  0
  9 17  1  0  0  0  0
  9 10  2  0  0  0  0
 18 19  1  0  0  0  0
 19 33  1  0  0  0  0
 19 20  2  0  0  0  0
 22 23  1  0  0  0  0
 23 24  2  0  0  0  0
 23 25  1  0  0  0  0
 34 37  1  0  0  0  0
  8 11  1  0  0  0  0
 43 44  1  0  0  0  0
 21 22  1  0  0  0  0
 18 21  1  0  0  0  0
 33 34  1  0  0  0  0
  7  8  1  0  0  0  0
 17 18  1  0  0  0  0
  3  4  1  0  0  0  0
  3  5  1  0  0  0  0
  3  6  1  0  0  0  0
 37 40  1  0  0  0  0
 37 41  1  0  0  0  0
 37 42  1  0  0  0  0
 11 14  1  0  0  0  0
 11 15  1  0  0  0  0
 11 16  1  0  0  0  0
 44 46  1  0  0  0  0
 44 47  1  0  0  0  0
 44 48  1  0  0  0  0
 22 30  1  0  0  0  0
 22 31  1  0  0  0  0
 21 28  1  0  0  0  0
 21 29  1  0  0  0  0
 34 39  1  0  0  0  0
  8 13  1  0  0  0  0
 18 27  1  0  0  0  0
 43 45  1  0  0  0  0
  7 12  1  0  0  0  0
 33 38  1  0  0  0  0
 17 26  1  0  0  0  0
 25 32  1  0  0  0  0
M  END
$$$$

  -OEChem-05262214473D

 48 47  0     1  0  0  0  0  0999 V2000
   -5.5827   -1.3473    1.4591 C   0  0  0  0  0  0  0  0  0  0  0  0
   -5.7053   -2.4696    0.9825 O   0  0  0  0  0  0  0  0  0  0  0  0
   -6.7879   -0.6277    1.9670 C   0  0  0  0  0  0  0  0  0  0  0  0
   -7.2718   -0.0164    1.1885 H   0  0  0  0  0  0  0  0  0  0  0  0
   -7.5699   -1.3171    2.3239 H   0  0  0  0  0  0  0  0  0  0  0  0
   -6.6057    0.0628    2.8060 H   0  0  0  0  0  0  0  0  0  0  0  0
   -4.4001   -0.6377    1.5884 N   0  0  0  0  0  0  0  0  0  0  0  0
   -3.1220   -1.1455    1.1644 C   0  0  2  0  0  0  0  0  0  0  0  0
   -2.2017    0.0428    0.9187 C   0  0  0  0  0  0  0  0  0  0  0  0
   -2.6171    1.1750    0.6807 O   0  0  0  0  0  0  0  0  0  0  0  0
   -3.2533   -1.9992   -0.0873 C   0  0  0  0  0  0  0  0  0  0  0  0
   -4.4370    0.2910    2.0047 H   0  0  0  0  0  0  0  0  0  0  0  0
   -2.7302   -1.7467    1.9921 H   0  0  0  0  0  0  0  0  0  0  0  0
   -3.6446   -1.4140   -0.9275 H   0  0  0  0  0  0  0  0  0  0  0  0
   -2.2844   -2.4081   -0.3922 H   0  0  0  0  0  0  0  0  0  0  0  0
   -3.9388   -2.8365    0.0822 H   0  0  0  0  0  0  0  0  0  0  0  0
   -0.8768   -0.3314    0.9568 N   0  0  0  0  0  0  0  0  0  0  0  0
    0.2067    0.6285    0.7375 C   0  0  2  0  0  0  0  0  0  0  0  0
    1.3968    0.1280    1.5504 C   0  0  0  0  0  0  0  0  0  0  0  0
    1.5749    0.4450    2.7248 O   0  0  0  0  0  0  0  0  0  0  0  0
   -0.2555    2.0251    1.1796 C   0  0  0  0  0  0  0  0  0  0  0  0
   -1.3702    2.6046    0.3089 C   0  0  0  0  0  0  0  0  0  0  0  0
   -1.8122    3.9644    0.7893 C   0  0  0  0  0  0  0  0  0  0  0  0
   -1.4220    4.4798    1.8292 O   0  0  0  0  0  0  0  0  0  0  0  0
   -2.7110    4.5502   -0.0398 O   0  0  0  0  0  0  0  0  0  0  0  0
   -0.6087   -1.2764    1.1771 H   0  0  0  0  0  0  0  0  0  0  0  0
    0.4494    0.6383   -0.3302 H   0  0  0  0  0  0  0  0  0  0  0  0
   -0.6041    1.9779    2.2199 H   0  0  0  0  0  0  0  0  0  0  0  0
    0.5897    2.7258    1.1639 H   0  0  0  0  0  0  0  0  0  0  0  0
   -1.0070    2.7334   -0.7181 H   0  0  0  0  0  0  0  0  0  0  0  0
   -2.2263    1.9261    0.2341 H   0  0  0  0  0  0  0  0  0  0  0  0
   -3.0387    5.4293    0.2461 H   0  0  0  0  0  0  0  0  0  0  0  0
    2.2105   -0.7287    0.8239 N   0  0  0  0  0  0  0  0  0  0  0  0
    3.4021   -1.3399    1.3671 C   0  0  2  0  0  0  0  0  0  0  0  0
    4.5898   -0.4579    1.0054 C   0  0  0  0  0  0  0  0  0  0  0  0
    4.5772    0.3306    0.0625 O   0  0  0  0  0  0  0  0  0  0  0  0
    3.5915   -2.7519    0.8349 C   0  0  0  0  0  0  0  0  0  0  0  0
    1.9564   -0.9366   -0.1372 H   0  0  0  0  0  0  0  0  0  0  0  0
    3.2792   -1.3598    2.4555 H   0  0  0  0  0  0  0  0  0  0  0  0
    3.7162   -2.7521   -0.2541 H   0  0  0  0  0  0  0  0  0  0  0  0
    4.4789   -3.2239    1.2693 H   0  0  0  0  0  0  0  0  0  0  0  0
    2.7232   -3.3768    1.0701 H   0  0  0  0  0  0  0  0  0  0  0  0
    5.6805   -0.6862    1.8328 N   0  0  0  0  0  0  0  0  0  0  0  0
    6.9326    0.0180    1.6842 C   0  0  0  0  0  0  0  0  0  0  0  0
    5.5954   -1.3449    2.6013 H   0  0  0  0  0  0  0  0  0  0  0  0
    7.6053   -0.5619    1.0351 H   0  0  0  0  0  0  0  0  0  0  0  0
    6.7474    1.0038    1.2326 H   0  0  0  0  0  0  0  0  0  0  0  0
    7.3990    0.1489    2.6718 H   0  0  0  0  0  0  0  0  0  0  0  0
  1  3  1  0  0  0  0
  1  7  1  0  0  0  0
  1  2  2  0  0  0  0
 34 35  1  0  0  0  0
 35 43  1  0  0  0  0
 35 36  2  0  0  0  0
  8  9  1  0  0  0  0
  9 17  1  0  0  0  0
  9 10  2  0  0  0  0
 18 19  1  0  0  0  0
 19 33  1  0  0  0  0
 19 20  2  0  0  0  0
 22 23  1  0  0  0  0
 23 24  2  0  0  0  0
 23 25  1  0  0  0  0
 34 37  1  0  0  0  0
  8 11  1  0  0  0  0
 43 44  1  0  0  0  0
 21 22  1  0  0  0  0
 18 21  1  0  0  0  0
 33 34  1  0  0  0  0
  7  8  1  0  0  0  0
 17 18  1  0  0  0  0
  3  4  1  0  0  0  0
  3  5  1  0  0  0  0
  3  6  1  0  0  0  0
 37 40  1  0  0  0  0
 37 41  1  0  0  0  0
 37 42  1  0  0  0  0
 11 14  1  0  0  0  0
 11 15  1  0  0  0  0
 11 16  1  0  0  0  0
 44 46  1  0  0  0  0
 44 47  1  0  0  0  0
 44 48  1  0  0  0  0
 22 30  1  0  0  0  0
 22 31  1  0  0  0  0
 21 28  1  0  0  0  0
 21 29  1  0  0  0  0
 34 39  1  0  0  0  0
  8 13  1  0  0  0  0
 18 27  1  0  0  0  0
 43 45  1  0  0  0  0
  7 12  1  0  0  0  0
 33 38  1  0  0  0  0
 17 26  1  0  0  0  0
 25 32  1  0  0  0  0
M  END
$$$$

  -OEChem-05262214473D

 48 47  0     1  0  0  0  0  0999 V2000
   -5.5827   -1.3473    1.4591 C   0  0  0  0  0  0  0  0  0  0  0  0
   -5.7053   -2.4696    0.9825 O   0  0  0  0  0  0  0  0  0  0  0  0
   -6.7879   -0.6277    1.9670 C   0  0  0  0  0  0  0  0  0  0  0  0
   -7.2718   -0.0164    1.1885 H   0  0  0  0  0  0  0  0  0  0  0  0
   -7.5699   -1.3171    2.3239 H   0  0  0  0  0  0  0  0  0  0  0  0
   -6.6057    0.0628    2.8060 H   0  0  0  0  0  0  0  0  0  0  0  0
   -4.4001   -0.6377    1.5884 N   0  0  0  0  0  0  0  0  0  0  0  0
   -3.1220   -1.1455    1.1644 C   0  0  2  0  0  0  0  0  0  0  0  0
   -2.2017    0.0428    0.9187 C   0  0  0  0  0  0  0  0  0  0  0  0
   -2.6171    1.1750    0.6807 O   0  0  0  0  0  0  0  0  0  0  0  0
   -3.2533   -1.9992   -0.0873 C   0  0  0  0  0  0  0  0  0  0  0  0
   -4.4370    0.2910    2.0047 H   0  0  0  0  0  0  0  0  0  0  0  0
   -2.7302   -1.7467    1.9921 H   0  0  0  0  0  0  0  0  0  0  0  0
   -3.6446   -1.4140   -0.9275 H   0  0  0  0  0  0  0  0  0  0  0  0
   -2.2844   -2.4081   -0.3922 H   0  0  0  0  0  0  0  0  0  0  0  0
   -3.9388   -2.8365    0.0822 H   0  0  0  0  0  0  0  0  0  0  0  0
   -0.8768   -0.3314    0.9568 N   0  0  0  0  0  0  0  0  0  0  0  0
    0.2067    0.6285    0.7375 C   0  0  2  0  0  0  0  0  0  0  0  0
    1.3968    0.1280    1.5504 C   0  0  0  0  0  0  0  0  0  0  0  0
    1.4430    0.2143    2.7759 O   0  0  0  0  0  0  0  0  0  0  0  0
   -0.2555    2.0251    1.1796 C   0  0  0  0  0  0  0  0  0  0  0  0
   -1.3702    2.6046    0.3089 C   0  0  0  0  0  0  0  0  0  0  0  0
   -1.8122    3.9644    0.7893 C   0  0  0  0  0  0  0  0  0  0  0  0
   -1.4220    4.4798    1.8292 O   0  0  0  0  0  0  0  0  0  0  0  0
   -2.7110    4.5502   -0.0398 O   0  0  0  0  0  0  0  0  0  0  0  0
   -0.6087   -1.2764    1.1771 H   0  0  0  0  0  0  0  0  0  0  0  0
    0.4494    0.6383   -0.3302 H   0  0  0  0  0  0  0  0  0  0  0  0
   -0.6041    1.9779    2.2199 H   0  0  0  0  0  0  0  0  0  0  0  0
    0.5897    2.7258    1.1639 H   0  0  0  0  0  0  0  0  0  0  0  0
   -1.0070    2.7334   -0.7181 H   0  0  0  0  0  0  0  0  0  0  0  0
   -2.2263    1.9261    0.2341 H   0  0  0  0  0  0  0  0  0  0  0  0
   -3.0387    5.4293    0.2461 H   0  0  0  0  0  0  0  0  0  0  0  0
    2.3766   -0.4465    0.7543 N   0  0  0  0  0  0  0  0  0  0  0  0
    3.6035   -0.9981    1.2826 C   0  0  2  0  0  0  0  0  0  0  0  0
    4.6717    0.0857    1.2202 C   0  0  0  0  0  0  0  0  0  0  0  0
    4.6103    1.0446    0.4536 O   0  0  0  0  0  0  0  0  0  0  0  0
    4.0351   -2.2321    0.5055 C   0  0  0  0  0  0  0  0  0  0  0  0
    2.2244   -0.4812   -0.2491 H   0  0  0  0  0  0  0  0  0  0  0  0
    3.4083   -1.2595    2.3284 H   0  0  0  0  0  0  0  0  0  0  0  0
    4.2352   -1.9898   -0.5446 H   0  0  0  0  0  0  0  0  0  0  0  0
    4.9492   -2.6654    0.9247 H   0  0  0  0  0  0  0  0  0  0  0  0
    3.2534   -2.9990    0.5265 H   0  0  0  0  0  0  0  0  0  0  0  0
    5.7227   -0.1667    2.0907 N   0  0  0  0  0  0  0  0  0  0  0  0
    6.8655    0.7087    2.2078 C   0  0  0  0  0  0  0  0  0  0  0  0
    5.6810   -0.9761    2.7030 H   0  0  0  0  0  0  0  0  0  0  0  0
    7.6601    0.3683    1.5276 H   0  0  0  0  0  0  0  0  0  0  0  0
    6.5701    1.7345    1.9421 H   0  0  0  0  0  0  0  0  0  0  0  0
    7.2366    0.6906    3.2431 H   0  0  0  0  0  0  0  0  0  0  0  0
  1  3  1  0  0  0  0
  1  7  1  0  0  0  0
  1  2  2  0  0  0  0
 34 35  1  0  0  0  0
 35 43  1  0  0  0  0
 35 36  2  0  0  0  0
  8  9  1  0  0  0  0
  9 17  1  0  0  0  0
  9 10  2  0  0  0  0
 18 19  1  0  0  0  0
 19 33  1  0  0  0  0
 19 20  2  0  0  0  0
 22 23  1  0  0  0  0
 23 24  2  0  0  0  0
 23 25  1  0  0  0  0
 34 37  1  0  0  0  0
  8 11  1  0  0  0  0
 43 44  1  0  0  0  0
 21 22  1  0  0  0  0
 18 21  1  0  0  0  0
 33 34  1  0  0  0  0
  7  8  1  0  0  0  0
 17 18  1  0  0  0  0
  3  4  1  0  0  0  0
  3  5  1  0  0  0  0
  3  6  1  0  0  0  0
 37 40  1  0  0  0  0
 37 41  1  0  0  0  0
 37 42  1  0  0  0  0
 11 14  1  0  0  0  0
 11 15  1  0  0  0  0
 11 16  1  0  0  0  0
 44 46  1  0  0  0  0
 44 47  1  0  0  0  0
 44 48  1  0  0  0  0
 22 30  1  0  0  0  0
 22 31  1  0  0  0  0
 21 28  1  0  0  0  0
 21 29  1  0  0  0  0
 34 39  1  0  0  0  0
  8 13  1  0  0  0  0
 18 27  1  0  0  0  0
 43 45  1  0  0  0  0
  7 12  1  0  0  0  0
 33 38  1  0  0  0  0
 17 26  1  0  0  0  0
 25 32  1  0  0  0  0
M  END
$$$$

  -OEChem-05262214473D

 48 47  0     1  0  0  0  0  0999 V2000
   -5.5827   -1.3473    1.4591 C   0  0  0  0  0  0  0  0  0  0  0  0
   -5.7053   -2.4696    0.9825 O   0  0  0  0  0  0  0  0  0  0  0  0
   -6.7879   -0.6277    1.9670 C   0  0  0  0  0  0  0  0  0  0  0  0
   -7.2718   -0.0164    1.1885 H   0  0  0  0  0  0  0  0  0  0  0  0
   -7.5699   -1.3171    2.3239 H   0  0  0  0  0  0  0  0  0  0  0  0
   -6.6057    0.0628    2.8060 H   0  0  0  0  0  0  0  0  0  0  0  0
   -4.4001   -0.6377    1.5884 N   0  0  0  0  0  0  0  0  0  0  0  0
   -3.1220   -1.1455    1.1644 C   0  0  2  0  0  0  0  0  0  0  0  0
   -2.2017    0.0428    0.9187 C   0  0  0  0  0  0  0  0  0  0  0  0
   -2.6171    1.1750    0.6807 O   0  0  0  0  0  0  0  0  0  0  0  0
   -3.2533   -1.9992   -0.0873 C   0  0  0  0  0  0  0  0  0  0  0  0
   -4.4370    0.2910    2.0047 H   0  0  0  0  0  0  0  0  0  0  0  0
   -2.7302   -1.7467    1.9921 H   0  0  0  0  0  0  0  0  0  0  0  0
   -3.6446   -1.4140   -0.9275 H   0  0  0  0  0  0  0  0  0  0  0  0
   -2.2844   -2.4081   -0.3922 H   0  0  0  0  0  0  0  0  0  0  0  0
   -3.9388   -2.8365    0.0822 H   0  0  0  0  0  0  0  0  0  0  0  0
   -0.8768   -0.3314    0.9568 N   0  0  0  0  0  0  0  0  0  0  0  0
    0.2067    0.6285    0.7375 C   0  0  2  0  0  0  0  0  0  0  0  0
    1.3968    0.1280    1.5504 C   0  0  0  0  0  0  0  0  0  0  0  0
    1.3430   -0.0371    2.7675 O   0  0  0  0  0  0  0  0  0  0  0  0
   -0.2555    2.0251    1.1796 C   0  0  0  0  0  0  0  0  0  0  0  0
   -1.3702    2.6046    0.3089 C   0  0  0  0  0  0  0  0  0  0  0  0
   -1.8122    3.9644    0.7893 C   0  0  0  0  0  0  0  0  0  0  0  0
   -1.4220    4.4798    1.8292 O   0  0  0  0  0  0  0  0  0  0  0  0
   -2.7110    4.5502   -0.0398 O   0  0  0  0  0  0  0  0  0  0  0  0
   -0.6087   -1.2764    1.1771 H   0  0  0  0  0  0  0  0  0  0  0  0
    0.4494    0.6383   -0.3302 H   0  0  0  0  0  0  0  0  0  0  0  0
   -0.6041    1.9779    2.2199 H   0  0  0  0  0  0  0  0  0  0  0  0
    0.5897    2.7258    1.1639 H   0  0  0  0  0  0  0  0  0  0  0  0
   -1.0070    2.7334   -0.7181 H   0  0  0  0  0  0  0  0  0  0  0  0
   -2.2263    1.9261    0.2341 H   0  0  0  0  0  0  0  0  0  0  0  0
   -3.0387    5.4293    0.2461 H   0  0  0  0  0  0  0  0  0  0  0  0
    2.5041   -0.1370    0.7583 N   0  0  0  0  0  0  0  0  0  0  0  0
    3.7581   -0.6231    1.2871 C   0  0  2  0  0  0  0  0  0  0  0  0
    4.6576    0.5787    1.5444 C   0  0  0  0  0  0  0  0  0  0  0  0
    4.5106    1.6599    0.9783 O   0  0  0  0  0  0  0  0  0  0  0  0
    4.4199   -1.6023    0.3300 C   0  0  0  0  0  0  0  0  0  0  0  0
    2.4300    0.0183   -0.2426 H   0  0  0  0  0  0  0  0  0  0  0  0
    3.5298   -1.1191    2.2368 H   0  0  0  0  0  0  0  0  0  0  0  0
    4.6561   -1.1233   -0.6272 H   0  0  0  0  0  0  0  0  0  0  0  0
    5.3556   -1.9915    0.7446 H   0  0  0  0  0  0  0  0  0  0  0  0
    3.7595   -2.4513    0.1227 H   0  0  0  0  0  0  0  0  0  0  0  0
    5.6700    0.2888    2.4484 N   0  0  0  0  0  0  0  0  0  0  0  0
    6.6608    1.2609    2.8473 C   0  0  0  0  0  0  0  0  0  0  0  0
    5.7042   -0.6286    2.8830 H   0  0  0  0  0  0  0  0  0  0  0  0
    7.5429    1.1748    2.1957 H   0  0  0  0  0  0  0  0  0  0  0  0
    6.2378    2.2726    2.7598 H   0  0  0  0  0  0  0  0  0  0  0  0
    6.9564    1.0761    3.8906 H   0  0  0  0  0  0  0  0  0  0  0  0
  1  3  1  0  0  0  0
  1  7  1  0  0  0  0
  1  2  2  0  0  0  0
 34 35  1  0  0  0  0
 35 43  1  0  0  0  0
 35 36  2  0  0  0  0
  8  9  1  0  0  0  0
  9 17  1  0  0  0  0
  9 10  2  0  0  0  0
 18 19  1  0  0  0  0
 19 33  1  0  0  0  0
 19 20  2  0  0  0  0
 22 23  1  0  0  0  0
 23 24  2  0  0  0  0
 23 25  1  0  0  0  0
 34 37  1  0  0  0  0
  8 11  1  0  0  0  0
 43 44  1  0  0  0  0
 21 22  1  0  0  0  0
 18 21  1  0  0  0  0
 33 34  1  0  0  0  0
  7  8  1  0  0  0  0
 17 18  1  0  0  0  0
  3  4  1  0  0  0  0
  3  5  1  0  0  0  0
  3  6  1  0  0  0  0
 37 40  1  0  0  0  0
 37 41  1  0  0  0  0
 37 42  1  0  0  0  0
 11 14  1  0  0  0  0
 11 15  1  0  0  0  0
 11 16  1  0  0  0  0
 44 46  1  0  0  0  0
 44 47  1  0  0  0  0
 44 48  1  0  0  0  0
 22 30  1  0  0  0  0
 22 31  1  0  0  0  0
 21 28  1  0  0  0  0
 21 29  1  0  0  0  0
 34 39  1  0  0  0  0
  8 13  1  0  0  0  0
 18 27  1  0  0  0  0
 43 45  1  0  0  0  0
  7 12  1  0  0  0  0
 33 38  1  0  0  0  0
 17 26  1  0  0  0  0
 25 32  1  0  0  0  0
M  END
$$$$

  -OEChem-05262214473D

 48 47  0     1  0  0  0  0  0999 V2000
   -5.5827   -1.3473    1.4591 C   0  0  0  0  0  0  0  0  0  0  0  0
   -5.7053   -2.4696    0.9825 O   0  0  0  0  0  0  0  0  0  0  0  0
   -6.7879   -0.6277    1.9670 C   0  0  0  0  0  0  0  0  0  0  0  0
   -7.2718   -0.0164    1.1885 H   0  0  0  0  0  0  0  0  0  0  0  0
   -7.5699   -1.3171    2.3239 H   0  0  0  0  0  0  0  0  0  0  0  0
   -6.6057    0.0628    2.8060 H   0  0  0  0  0  0  0  0  0  0  0  0
   -4.4001   -0.6377    1.5884 N   0  0  0  0  0  0  0  0  0  0  0  0
   -3.1220   -1.1455    1.1644 C   0  0  2  0  0  0  0  0  0  0  0  0
   -2.2017    0.0428    0.9187 C   0  0  0  0  0  0  0  0  0  0  0  0
   -2.6171    1.1750    0.6807 O   0  0  0  0  0  0  0  0  0  0  0  0
   -3.2533   -1.9992   -0.0873 C   0  0  0  0  0  0  0  0  0  0  0  0
   -4.4370    0.2910    2.0047 H   0  0  0  0  0  0  0  0  0  0  0  0
   -2.7302   -1.7467    1.9921 H   0  0  0  0  0  0  0  0  0  0  0  0
   -3.6446   -1.4140   -0.9275 H   0  0  0  0  0  0  0  0  0  0  0  0
   -2.2844   -2.4081   -0.3922 H   0  0  0  0  0  0  0  0  0  0  0  0
   -3.9388   -2.8365    0.0822 H   0  0  0  0  0  0  0  0  0  0  0  0
   -0.8768   -0.3314    0.9568 N   0  0  0  0  0  0  0  0  0  0  0  0
    0.2067    0.6285    0.7375 C   0  0  2  0  0  0  0  0  0  0  0  0
    1.3968    0.1280    1.5504 C   0  0  0  0  0  0  0  0  0  0  0  0
    1.2818   -0.2920    2.7001 O   0  0  0  0  0  0  0  0  0  0  0  0
   -0.2555    2.0251    1.1796 C   0  0  0  0  0  0  0  0  0  0  0  0
   -1.3702    2.6046    0.3089 C   0  0  0  0  0  0  0  0  0  0  0  0
   -1.8122    3.9644    0.7893 C   0  0  0  0  0  0  0  0  0  0  0  0
   -1.4220    4.4798    1.8292 O   0  0  0  0  0  0  0  0  0  0  0  0
   -2.7110    4.5502   -0.0398 O   0  0  0  0  0  0  0  0  0  0  0  0
   -0.6087   -1.2764    1.1771 H   0  0  0  0  0  0  0  0  0  0  0  0
    0.4494    0.6383   -0.3302 H   0  0  0  0  0  0  0  0  0  0  0  0
   -0.6041    1.9779    2.2199 H   0  0  0  0  0  0  0  0  0  0  0  0
    0.5897    2.7258    1.1639 H   0  0  0  0  0  0  0  0  0  0  0  0
   -1.0070    2.7334   -0.7181 H   0  0  0  0  0  0  0  0  0  0  0  0
   -2.2263    1.9261    0.2341 H   0  0  0  0  0  0  0  0  0  0  0  0
   -3.0387    5.4293    0.2461 H   0  0  0  0  0  0  0  0  0  0  0  0
    2.5842    0.1788    0.8354 N   0  0  0  0  0  0  0  0  0  0  0  0
    3.8554   -0.2405    1.3803 C   0  0  2  0  0  0  0  0  0  0  0  0
    4.5484    0.9875    1.9559 C   0  0  0  0  0  0  0  0  0  0  0  0
    4.2850    2.1345    1.6009 O   0  0  0  0  0  0  0  0  0  0  0  0
    4.7196   -0.9055    0.3202 C   0  0  0  0  0  0  0  0  0  0  0  0
    2.5591    0.5278   -0.1180 H   0  0  0  0  0  0  0  0  0  0  0  0
    3.6357   -0.9483    2.1870 H   0  0  0  0  0  0  0  0  0  0  0  0
    4.9501   -0.2116   -0.4964 H   0  0  0  0  0  0  0  0  0  0  0  0
    5.6706   -1.2481    0.7412 H   0  0  0  0  0  0  0  0  0  0  0  0
    4.2072   -1.7709   -0.1137 H   0  0  0  0  0  0  0  0  0  0  0  0
    5.5259    0.6493    2.8813 N   0  0  0  0  0  0  0  0  0  0  0  0
    6.3328    1.6370    3.5591 C   0  0  0  0  0  0  0  0  0  0  0  0
    5.6634   -0.3261    3.1290 H   0  0  0  0  0  0  0  0  0  0  0  0
    7.2618    1.8029    2.9939 H   0  0  0  0  0  0  0  0  0  0  0  0
    5.7732    2.5814    3.6301 H   0  0  0  0  0  0  0  0  0  0  0  0
    6.5777    1.2791    4.5700 H   0  0  0  0  0  0  0  0  0  0  0  0
  1  3  1  0  0  0  0
  1  7  1  0  0  0  0
  1  2  2  0  0  0  0
 34 35  1  0  0  0  0
 35 43  1  0  0  0  0
 35 36  2  0  0  0  0
  8  9  1  0  0  0  0
  9 17  1  0  0  0  0
  9 10  2  0  0  0  0
 18 19  1  0  0  0  0
 19 33  1  0  0  0  0
 19 20  2  0  0  0  0
 22 23  1  0  0  0  0
 23 24  2  0  0  0  0
 23 25  1  0  0  0  0
 34 37  1  0  0  0  0
  8 11  1  0  0  0  0
 43 44  1  0  0  0  0
 21 22  1  0  0  0  0
 18 21  1  0  0  0  0
 33 34  1  0  0  0  0
  7  8  1  0  0  0  0
 17 18  1  0  0  0  0
  3  4  1  0  0  0  0
  3  5  1  0  0  0  0
  3  6  1  0  0  0  0
 37 40  1  0  0  0  0
 37 41  1  0  0  0  0
 37 42  1  0  0  0  0
 11 14  1  0  0  0  0
 11 15  1  0  0  0  0
 11 16  1  0  0  0  0
 44 46  1  0  0  0  0
 44 47  1  0  0  0  0
 44 48  1  0  0  0  0
 22 30  1  0  0  0  0
 22 31  1  0  0  0  0
 21 28  1  0  0  0  0
 21 29  1  0  0  0  0
 34 39  1  0  0  0  0
  8 13  1  0  0  0  0
 18 27  1  0  0  0  0
 43 45  1  0  0  0  0
  7 12  1  0  0  0  0
 33 38  1  0  0  0  0
 17 26  1  0  0  0  0
 25 32  1  0  0  0  0
M  END
$$$$

  -OEChem-05262214473D

 48 47  0     1  0  0  0  0  0999 V2000
   -5.5827   -1.3473    1.4591 C   0  0  0  0  0  0  0  0  0  0  0  0
   -5.7053   -2.4696    0.9825 O   0  0  0  0  0  0  0  0  0  0  0  0
   -6.7879   -0.6277    1.9670 C   0  0  0  0  0  0  0  0  0  0  0  0
   -7.2718   -0.0164    1.1885 H   0  0  0  0  0  0  0  0  0  0  0  0
   -7.5699   -1.3171    2.3239 H   0  0  0  0  0  0  0  0  0  0  0  0
   -6.6057    0.0628    2.8060 H   0  0  0  0  0  0  0  0  0  0  0  0
   -4.4001   -0.6377    1.5884 N   0  0  0  0  0  0  0  0  0  0  0  0
   -3.1220   -1.1455    1.1644 C   0  0  2  0  0  0  0  0  0  0  0  0
   -2.2017    0.0428    0.9187 C   0  0  0  0  0  0  0  0  0  0  0  0
   -2.6171    1.1750    0.6807 O   0  0  0  0  0  0  0  0  0  0  0  0
   -3.2533   -1.9992   -0.0873 C   0  0  0  0  0  0  0  0  0  0  0  0
   -4.4370    0.2910    2.0047 H   0  0  0  0  0  0  0  0  0  0  0  0
   -2.7302   -1.7467    1.9921 H   0  0  0  0  0  0  0  0  0  0  0  0
   -3.6446   -1.4140   -0.9275 H   0  0  0  0  0  0  0  0  0  0  0  0
   -2.2844   -2.4081   -0.3922 H   0  0  0  0  0  0  0  0  0  0  0  0
   -3.9388   -2.8365    0.0822 H   0  0  0  0  0  0  0  0  0  0  0  0
   -0.8768   -0.3314    0.9568 N   0  0  0  0  0  0  0  0  0  0  0  0
    0.2067    0.6285    0.7375 C   0  0  2  0  0  0  0  0  0  0  0  0
    1.3968    0.1280    1.5504 C   0  0  0  0  0  0  0  0  0  0  0  0
    1.2636   -0.5330    2.5784 O   0  0  0  0  0  0  0  0  0  0  0  0
   -0.2555    2.0251    1.1796 C   0  0  0  0  0  0  0  0  0  0  0  0
   -1.3702    2.6046    0.3089 C   0  0  0  0  0  0  0  0  0  0  0  0
   -1.8122    3.9644    0.7893 C   0  0  0  0  0  0  0  0  0  0  0  0
   -1.4220    4.4798    1.8292 O   0  0  0  0  0  0  0  0  0  0  0  0
   -2.7110    4.5502   -0.0398 O   0  0  0  0  0  0  0  0  0  0  0  0
   -0.6087   -1.2764    1.1771 H   0  0  0  0  0  0  0  0  0  0  0  0
    0.4494    0.6383   -0.3302 H   0  0  0  0  0  0  0  0  0  0  0  0
   -0.6041    1.9779    2.2199 H   0  0  0  0  0  0  0  0  0  0  0  0
    0.5897    2.7258    1.1639 H   0  0  0  0  0  0  0  0  0  0  0  0
   -1.0070    2.7334   -0.7181 H   0  0  0  0  0  0  0  0  0  0  0  0
   -2.2263    1.9261    0.2341 H   0  0  0  0  0  0  0  0  0  0  0  0
   -3.0387    5.4293    0.2461 H   0  0  0  0  0  0  0  0  0  0  0  0
    2.6115    0.4793    0.9804 N   0  0  0  0  0  0  0  0  0  0  0  0
    3.8887    0.1237    1.5558 C   0  0  2  0  0  0  0  0  0  0  0  0
    4.3517    1.2842    2.4266 C   0  0  0  0  0  0  0  0  0  0  0  0
    3.9487    2.4361    2.2789 O   0  0  0  0  0  0  0  0  0  0  0  0
    4.9138   -0.1891    0.4769 C   0  0  0  0  0  0  0  0  0  0  0  0
    2.6031    1.0126    0.1162 H   0  0  0  0  0  0  0  0  0  0  0  0
    3.7186   -0.7587    2.1824 H   0  0  0  0  0  0  0  0  0  0  0  0
    5.0973    0.6832   -0.1609 H   0  0  0  0  0  0  0  0  0  0  0  0
    5.8726   -0.4859    0.9147 H   0  0  0  0  0  0  0  0  0  0  0  0
    4.5659   -1.0042   -0.1667 H   0  0  0  0  0  0  0  0  0  0  0  0
    5.3002    0.8903    3.3600 N   0  0  0  0  0  0  0  0  0  0  0  0
    5.9035    1.8113    4.2948 C   0  0  0  0  0  0  0  0  0  0  0  0
    5.5614   -0.0892    3.4242 H   0  0  0  0  0  0  0  0  0  0  0  0
    6.8358    2.2096    3.8679 H   0  0  0  0  0  0  0  0  0  0  0  0
    5.2080    2.6399    4.4936 H   0  0  0  0  0  0  0  0  0  0  0  0
    6.1262    1.2858    5.2352 H   0  0  0  0  0  0  0  0  0  0  0  0
  1  3  1  0  0  0  0
  1  7  1  0  0  0  0
  1  2  2  0  0  0  0
 34 35  1  0  0  0  0
 35 43  1  0  0  0  0
 35 36  2  0  0  0  0
  8  9  1  0  0  0  0
  9 17  1  0  0  0  0
  9 10  2  0  0  0  0
 18 19  1  0  0  0  0
 19 33  1  0  0  0  0
 19 20  2  0  0  0  0
 22 23  1  0  0  0  0
 23 24  2  0  0  0  0
 23 25  1  0  0  0  0
 34 37  1  0  0  0  0
  8 11  1  0  0  0  0
 43 44  1  0  0  0  0
 21 22  1  0  0  0  0
 18 21  1  0  0  0  0
 33 34  1  0  0  0  0
  7  8  1  0  0  0  0
 17 18  1  0  0  0  0
  3  4  1  0  0  0  0
  3  5  1  0  0  0  0
  3  6  1  0  0  0  0
 37 40  1  0  0  0  0
 37 41  1  0  0  0  0
 37 42  1  0  0  0  0
 11 14  1  0  0  0  0
 11 15  1  0  0  0  0
 11 16  1  0  0  0  0
 44 46  1  0  0  0  0
 44 47  1  0  0  0  0
 44 48  1  0  0  0  0
 22 30  1  0  0  0  0
 22 31  1  0  0  0  0
 21 28  1  0  0  0  0
 21 29  1  0  0  0  0
 34 39  1  0  0  0  0
  8 13  1  0  0  0  0
 18 27  1  0  0  0  0
 43 45  1  0  0  0  0
  7 12  1  0  0  0  0
 33 38  1  0  0  0  0
 17 26  1  0  0  0  0
 25 32  1  0  0  0  0
M  END
$$$$

  -OEChem-05262214473D

 48 47  0     1  0  0  0  0  0999 V2000
   -5.5827   -1.3473    1.4591 C   0  0  0  0  0  0  0  0  0  0  0  0
   -5.7053   -2.4696    0.9825 O   0  0  0  0  0  0  0  0  0  0  0  0
   -6.7879   -0.6277    1.9670 C   0  0  0  0  0  0  0  0  0  0  0  0
   -7.2718   -0.0164    1.1885 H   0  0  0  0  0  0  0  0  0  0  0  0
   -7.5699   -1.3171    2.3239 H   0  0  0  0  0  0  0  0  0  0  0  0
   -6.6057    0.0628    2.8060 H   0  0  0  0  0  0  0  0  0  0  0  0
   -4.4001   -0.6377    1.5884 N   0  0  0  0  0  0  0  0  0  0  0  0
   -3.1220   -1.1455    1.1644 C   0  0  2  0  0  0  0  0  0  0  0  0
   -2.2017    0.0428    0.9187 C   0  0  0  0  0  0  0  0  0  0  0  0
   -2.6171    1.1750    0.6807 O   0  0  0  0  0  0  0  0  0  0  0  0
   -3.2533   -1.9992   -0.0873 C   0  0  0  0  0  0  0  0  0  0  0  0
   -4.4370    0.2910    2.0047 H   0  0  0  0  0  0  0  0  0  0  0  0
   -2.7302   -1.7467    1.9921 H   0  0  0  0  0  0  0  0  0  0  0  0
   -3.6446   -1.4140   -0.9275 H   0  0  0  0  0  0  0  0  0  0  0  0
   -2.2844   -2.4081   -0.3922 H   0  0  0  0  0  0  0  0  0  0  0  0
   -3.9388   -2.8365    0.0822 H   0  0  0  0  0  0  0  0  0  0  0  0
   -0.8768   -0.3314    0.9568 N   0  0  0  0  0  0  0  0  0  0  0  0
    0.2067    0.6285    0.7375 C   0  0  2  0  0  0  0  0  0  0  0  0
    1.3968    0.1280    1.5504 C   0  0  0  0  0  0  0  0  0  0  0  0
    1.2896   -0.7438    2.4106 O   0  0  0  0  0  0  0  0  0  0  0  0
   -0.2555    2.0251    1.1796 C   0  0  0  0  0  0  0  0  0  0  0  0
   -1.3702    2.6046    0.3089 C   0  0  0  0  0  0  0  0  0  0  0  0
   -1.8122    3.9644    0.7893 C   0  0  0  0  0  0  0  0  0  0  0  0
   -1.4220    4.4798    1.8292 O   0  0  0  0  0  0  0  0  0  0  0  0
   -2.7110    4.5502   -0.0398 O   0  0  0  0  0  0  0  0  0  0  0  0
   -0.6087   -1.2764    1.1771 H   0  0  0  0  0  0  0  0  0  0  0  0
    0.4494    0.6383   -0.3302 H   0  0  0  0  0  0  0  0  0  0  0  0
   -0.6041    1.9779    2.2199 H   0  0  0  0  0  0  0  0  0  0  0  0
    0.5897    2.7258    1.1639 H   0  0  0  0  0  0  0  0  0  0  0  0
   -1.0070    2.7334   -0.7181 H   0  0  0  0  0  0  0  0  0  0  0  0
   -2.2263    1.9261    0.2341 H   0  0  0  0  0  0  0  0  0  0  0  0
   -3.0387    5.4293    0.2461 H   0  0  0  0  0  0  0  0  0  0  0  0
    2.5841    0.7440    1.1835 N   0  0  0  0  0  0  0  0  0  0  0  0
    3.8557    0.4446    1.8017 C   0  0  2  0  0  0  0  0  0  0  0  0
    4.0807    1.4487    2.9245 C   0  0  0  0  0  0  0  0  0  0  0  0
    3.5247    2.5442    2.9662 O   0  0  0  0  0  0  0  0  0  0  0  0
    4.9893    0.4980    0.7894 C   0  0  0  0  0  0  0  0  0  0  0  0
    2.5587    1.4396    0.4440 H   0  0  0  0  0  0  0  0  0  0  0  0
    3.7729   -0.5631    2.2233 H   0  0  0  0  0  0  0  0  0  0  0  0
    5.0876    1.5001    0.3562 H   0  0  0  0  0  0  0  0  0  0  0  0
    5.9479    0.2431    1.2534 H   0  0  0  0  0  0  0  0  0  0  0  0
    4.8111   -0.2035   -0.0327 H   0  0  0  0  0  0  0  0  0  0  0  0
    5.0083    0.9953    3.8520 N   0  0  0  0  0  0  0  0  0  0  0  0
    5.4025    1.7719    5.0041 C   0  0  0  0  0  0  0  0  0  0  0  0
    5.4052    0.0660    3.7485 H   0  0  0  0  0  0  0  0  0  0  0  0
    6.2941    2.3673    4.7581 H   0  0  0  0  0  0  0  0  0  0  0  0
    4.5806    2.4442    5.2915 H   0  0  0  0  0  0  0  0  0  0  0  0
    5.6327    1.0957    5.8407 H   0  0  0  0  0  0  0  0  0  0  0  0
  1  3  1  0  0  0  0
  1  7  1  0  0  0  0
  1  2  2  0  0  0  0
 34 35  1  0  0  0  0
 35 43  1  0  0  0  0
 35 36  2  0  0  0  0
  8  9  1  0  0  0  0
  9 17  1  0  0  0  0
  9 10  2  0  0  0  0
 18 19  1  0  0  0  0
 19 33  1  0  0  0  0
 19 20  2  0  0  0  0
 22 23  1  0  0  0  0
 23 24  2  0  0  0  0
 23 25  1  0  0  0  0
 34 37  1  0  0  0  0
  8 11  1  0  0  0  0
 43 44  1  0  0  0  0
 21 22  1  0  0  0  0
 18 21  1  0  0  0  0
 33 34  1  0  0  0  0
  7  8  1  0  0  0  0
 17 18  1  0  0  0  0
  3  4  1  0  0  0  0
  3  5  1  0  0  0  0
  3  6  1  0  0  0  0
 37 40  1  0  0  0  0
 37 41  1  0  0  0  0
 37 42  1  0  0  0  0
 11 14  1  0  0  0  0
 11 15  1  0  0  0  0
 11 16  1  0  0  0  0
 44 46  1  0  0  0  0
 44 47  1  0  0  0  0
 44 48  1  0  0  0  0
 22 30  1  0  0  0  0
 22 31  1  0  0  0  0
 21 28  1  0  0  0  0
 21 29  1  0  0  0  0
 34 39  1  0  0  0  0
  8 13  1  0  0  0  0
 18 27  1  0  0  0  0
 43 45  1  0  0  0  0
  7 12  1  0  0  0  0
 33 38  1  0  0  0  0
 17 26  1  0  0  0  0
 25 32  1  0  0  0  0
M  END
$$$$

  -OEChem-05262214473D

 48 47  0     1  0  0  0  0  0999 V2000
   -5.5827   -1.3473    1.4591 C   0  0  0  0  0  0  0  0  0  0  0  0
   -5.7053   -2.4696    0.9825 O   0  0  0  0  0  0  0  0  0  0  0  0
   -6.7879   -0.6277    1.9670 C   0  0  0  0  0  0  0  0  0  0  0  0
   -7.2718   -0.0164    1.1885 H   0  0  0  0  0  0  0  0  0  0  0  0
   -7.5699   -1.3171    2.3239 H   0  0  0  0  0  0  0  0  0  0  0  0
   -6.6057    0.0628    2.8060 H   0  0  0  0  0  0  0  0  0  0  0  0
   -4.4001   -0.6377    1.5884 N   0  0  0  0  0  0  0  0  0  0  0  0
   -3.1220   -1.1455    1.1644 C   0  0  2  0  0  0  0  0  0  0  0  0
   -2.2017    0.0428    0.9187 C   0  0  0  0  0  0  0  0  0  0  0  0
   -2.6171    1.1750    0.6807 O   0  0  0  0  0  0  0  0  0  0  0  0
   -3.2533   -1.9992   -0.0873 C   0  0  0  0  0  0  0  0  0  0  0  0
   -4.4370    0.2910    2.0047 H   0  0  0  0  0  0  0  0  0  0  0  0
   -2.7302   -1.7467    1.9921 H   0  0  0  0  0  0  0  0  0  0  0  0
   -3.6446   -1.4140   -0.9275 H   0  0  0  0  0  0  0  0  0  0  0  0
   -2.2844   -2.4081   -0.3922 H   0  0  0  0  0  0  0  0  0  0  0  0
   -3.9388   -2.8365    0.0822 H   0  0  0  0  0  0  0  0  0  0  0  0
   -0.8768   -0.3314    0.9568 N   0  0  0  0  0  0  0  0  0  0  0  0
    0.2067    0.6285    0.7375 C   0  0  2  0  0  0  0  0  0  0  0  0
    1.4856   -0.0471    1.2227 C   0  0  0  0  0  0  0  0  0  0  0  0
    1.4992   -1.1922    1.6700 O   0  0  0  0  0  0  0  0  0  0  0  0
   -0.0978    1.9221    1.5078 C   0  0  0  0  0  0  0  0  0  0  0  0
   -1.3078    2.6848    0.9686 C   0  0  0  0  0  0  0  0  0  0  0  0
   -1.5880    3.9344    1.7655 C   0  0  0  0  0  0  0  0  0  0  0  0
   -1.0028    4.2284    2.8001 O   0  0  0  0  0  0  0  0  0  0  0  0
   -2.5782    4.6903    1.2302 O   0  0  0  0  0  0  0  0  0  0  0  0
   -0.6087   -1.2764    1.1771 H   0  0  0  0  0  0  0  0  0  0  0  0
    0.2690    0.8408   -0.3349 H   0  0  0  0  0  0  0  0  0  0  0  0
   -0.2710    1.6808    2.5651 H   0  0  0  0  0  0  0  0  0  0  0  0
    0.7705    2.5934    1.4779 H   0  0  0  0  0  0  0  0  0  0  0  0
   -1.1134    3.0032   -0.0629 H   0  0  0  0  0  0  0  0  0  0  0  0
   -2.2006    2.0531    0.9171 H   0  0  0  0  0  0  0  0  0  0  0  0
   -2.8047    5.5039    1.7289 H   0  0  0  0  0  0  0  0  0  0  0  0
    2.6016    0.7624    1.0706 N   0  0  0  0  0  0  0  0  0  0  0  0
    3.9342    0.3543    1.4531 C   0  0  2  0  0  0  0  0  0  0  0  0
    4.1903    0.8525    2.8693 C   0  0  0  0  0  0  0  0  0  0  0  0
    3.5765    1.7920    3.3712 O   0  0  0  0  0  0  0  0  0  0  0  0
    4.9774    0.8973    0.4889 C   0  0  0  0  0  0  0  0  0  0  0  0
    2.4761    1.6874    0.6707 H   0  0  0  0  0  0  0  0  0  0  0  0
    3.9446   -0.7411    1.4432 H   0  0  0  0  0  0  0  0  0  0  0  0
    4.9818    1.9934    0.4851 H   0  0  0  0  0  0  0  0  0  0  0  0
    5.9835    0.5636    0.7637 H   0  0  0  0  0  0  0  0  0  0  0  0
    4.7745    0.5622   -0.5340 H   0  0  0  0  0  0  0  0  0  0  0  0
    5.2146    0.1526    3.4916 N   0  0  0  0  0  0  0  0  0  0  0  0
    5.6545    0.4455    4.8357 C   0  0  0  0  0  0  0  0  0  0  0  0
    5.6552   -0.6239    3.0073 H   0  0  0  0  0  0  0  0  0  0  0  0
    6.4872    1.1635    4.8013 H   0  0  0  0  0  0  0  0  0  0  0  0
    4.8208    0.8782    5.4081 H   0  0  0  0  0  0  0  0  0  0  0  0
    5.9905   -0.4823    5.3217 H   0  0  0  0  0  0  0  0  0  0  0  0
  1  3  1  0  0  0  0
  1  7  1  0  0  0  0
  1  2  2  0  0  0  0
 34 35  1  0  0  0  0
 35 43  1  0  0  0  0
 35 36  2  0  0  0  0
  8  9  1  0  0  0  0
  9 17  1  0  0  0  0
  9 10  2  0  0  0  0
 18 19  1  0  0  0  0
 19 33  1  0  0  0  0
 19 20  2  0  0  0  0
 22 23  1  0  0  0  0
 23 24  2  0  0  0  0
 23 25  1  0  0  0  0
 34 37  1  0  0  0  0
  8 11  1  0  0  0  0
 43 44  1  0  0  0  0
 21 22  1  0  0  0  0
 18 21  1  0  0  0  0
 33 34  1  0  0  0  0
  7  8  1  0  0  0  0
 17 18  1  0  0  0  0
  3  4  1  0  0  0  0
  3  5  1  0  0  0  0
  3  6  1  0  0  0  0
 37 40  1  0  0  0  0
 37 41  1  0  0  0  0
 37 42  1  0  0  0  0
 11 14  1  0  0  0  0
 11 15  1  0  0  0  0
 11 16  1  0  0  0  0
 44 46  1  0  0  0  0
 44 47  1  0  0  0  0
 44 48  1  0  0  0  0
 22 30  1  0  0  0  0
 22 31  1  0  0  0  0
 21 28  1  0  0  0  0
 21 29  1  0  0  0  0
 34 39  1  0  0  0  0
  8 13  1  0  0  0  0
 18 27  1  0  0  0  0
 43 45  1  0  0  0  0
  7 12  1  0  0  0  0
 33 38  1  0  0  0  0
 17 26  1  0  0  0  0
 25 32  1  0  0  0  0
M  END
$$$$

  -OEChem-05262214473D

 48 47  0     1  0  0  0  0  0999 V2000
   -5.5827   -1.3473    1.4591 C   0  0  0  0  0  0  0  0  0  0  0  0
   -5.7053   -2.4696    0.9825 O   0  0  0  0  0  0  0  0  0  0  0  0
   -6.7879   -0.6277    1.9670 C   0  0  0  0  0  0  0  0  0  0  0  0
   -7.2718   -0.0164    1.1885 H   0  0  0  0  0  0  0  0  0  0  0  0
   -7.5699   -1.3171    2.3239 H   0  0  0  0  0  0  0  0  0  0  0  0
   -6.6057    0.0628    2.8060 H   0  0  0  0  0  0  0  0  0  0  0  0
   -4.4001   -0.6377    1.5884 N   0  0  0  0  0  0  0  0  0  0  0  0
   -3.1220   -1.1455    1.1644 C   0  0  2  0  0  0  0  0  0  0  0  0
   -2.2017    0.0428    0.9187 C   0  0  0  0  0  0  0  0  0  0  0  0
   -2.6171    1.1750    0.6807 O   0  0  0  0  0  0  0  0  0  0  0  0
   -3.2533   -1.9992   -0.0873 C   0  0  0  0  0  0  0  0  0  0  0  0
   -4.4370    0.2910    2.0047 H   0  0  0  0  0  0  0  0  0  0  0  0
   -2.7302   -1.7467    1.9921 H   0  0  0  0  0  0  0  0  0  0  0  0
   -3.6446   -1.4140   -0.9275 H   0  0  0  0  0  0  0  0  0  0  0  0
   -2.2844   -2.4081   -0.3922 H   0  0  0  0  0  0  0  0  0  0  0  0
   -3.9388   -2.8365    0.0822 H   0  0  0  0  0  0  0  0  0  0  0  0
   -0.8768   -0.3314    0.9568 N   0  0  0  0  0  0  0  0  0  0  0  0
    0.2067    0.6285    0.7375 C   0  0  2  0  0  0  0  0  0  0  0  0
    1.4856   -0.0471    1.2227 C   0  0  0  0  0  0  0  0  0  0  0  0
    1.5606   -1.2591    1.4150 O   0  0  0  0  0  0  0  0  0  0  0  0
   -0.0978    1.9221    1.5078 C   0  0  0  0  0  0  0  0  0  0  0  0
   -1.3078    2.6848    0.9686 C   0  0  0  0  0  0  0  0  0  0  0  0
   -1.5880    3.9344    1.7655 C   0  0  0  0  0  0  0  0  0  0  0  0
   -1.0028    4.2284    2.8001 O   0  0  0  0  0  0  0  0  0  0  0  0
   -2.5782    4.6903    1.2302 O   0  0  0  0  0  0  0  0  0  0  0  0
   -0.6087   -1.2764    1.1771 H   0  0  0  0  0  0  0  0  0  0  0  0
    0.2690    0.8408   -0.3349 H   0  0  0  0  0  0  0  0  0  0  0  0
   -0.2710    1.6808    2.5651 H   0  0  0  0  0  0  0  0  0  0  0  0
    0.7705    2.5934    1.4779 H   0  0  0  0  0  0  0  0  0  0  0  0
   -1.1134    3.0032   -0.0629 H   0  0  0  0  0  0  0  0  0  0  0  0
   -2.2006    2.0531    0.9171 H   0  0  0  0  0  0  0  0  0  0  0  0
   -2.8047    5.5039    1.7289 H   0  0  0  0  0  0  0  0  0  0  0  0
    2.5295    0.8517    1.3850 N   0  0  0  0  0  0  0  0  0  0  0  0
    3.8470    0.4628    1.8341 C   0  0  2  0  0  0  0  0  0  0  0  0
    3.9037    0.6511    3.3443 C   0  0  0  0  0  0  0  0  0  0  0  0
    3.1540    1.4108    3.9542 O   0  0  0  0  0  0  0  0  0  0  0  0
    4.9298    1.2774    1.1437 C   0  0  0  0  0  0  0  0  0  0  0  0
    2.3596    1.8313    1.1781 H   0  0  0  0  0  0  0  0  0  0  0  0
    3.9623   -0.5997    1.5934 H   0  0  0  0  0  0  0  0  0  0  0  0
    4.8305    2.3446    1.3731 H   0  0  0  0  0  0  0  0  0  0  0  0
    5.9283    0.9620    1.4638 H   0  0  0  0  0  0  0  0  0  0  0  0
    4.8687    1.1642    0.0559 H   0  0  0  0  0  0  0  0  0  0  0  0
    4.9184   -0.0962    3.9257 N   0  0  0  0  0  0  0  0  0  0  0  0
    5.1842   -0.0788    5.3453 C   0  0  0  0  0  0  0  0  0  0  0  0
    5.4794   -0.7134    3.3460 H   0  0  0  0  0  0  0  0  0  0  0  0
    5.9439    0.6852    5.5672 H   0  0  0  0  0  0  0  0  0  0  0  0
    4.2574    0.1570    5.8888 H   0  0  0  0  0  0  0  0  0  0  0  0
    5.5536   -1.0656    5.6611 H   0  0  0  0  0  0  0  0  0  0  0  0
  1  3  1  0  0  0  0
  1  7  1  0  0  0  0
  1  2  2  0  0  0  0
 34 35  1  0  0  0  0
 35 43  1  0  0  0  0
 35 36  2  0  0  0  0
  8  9  1  0  0  0  0
  9 17  1  0  0  0  0
  9 10  2  0  0  0  0
 18 19  1  0  0  0  0
 19 33  1  0  0  0  0
 19 20  2  0  0  0  0
 22 23  1  0  0  0  0
 23 24  2  0  0  0  0
 23 25  1  0  0  0  0
 34 37  1  0  0  0  0
  8 11  1  0  0  0  0
 43 44  1  0  0  0  0
 21 22  1  0  0  0  0
 18 21  1  0  0  0  0
 33 34  1  0  0  0  0
  7  8  1  0  0  0  0
 17 18  1  0  0  0  0
  3  4  1  0  0  0  0
  3  5  1  0  0  0  0
  3  6  1  0  0  0  0
 37 40  1  0  0  0  0
 37 41  1  0  0  0  0
 37 42  1  0  0  0  0
 11 14  1  0  0  0  0
 11 15  1  0  0  0  0
 11 16  1  0  0  0  0
 44 46  1  0  0  0  0
 44 47  1  0  0  0  0
 44 48  1  0  0  0  0
 22 30  1  0  0  0  0
 22 31  1  0  0  0  0
 21 28  1  0  0  0  0
 21 29  1  0  0  0  0
 34 39  1  0  0  0  0
  8 13  1  0  0  0  0
 18 27  1  0  0  0  0
 43 45  1  0  0  0  0
  7 12  1  0  0  0  0
 33 38  1  0  0  0  0
 17 26  1  0  0  0  0
 25 32  1  0  0  0  0
M  END
$$$$

  -OEChem-05262214473D

 48 47  0     1  0  0  0  0  0999 V2000
   -5.5827   -1.3473    1.4591 C   0  0  0  0  0  0  0  0  0  0  0  0
   -5.7053   -2.4696    0.9825 O   0  0  0  0  0  0  0  0  0  0  0  0
   -6.7879   -0.6277    1.9670 C   0  0  0  0  0  0  0  0  0  0  0  0
   -7.2718   -0.0164    1.1885 H   0  0  0  0  0  0  0  0  0  0  0  0
   -7.5699   -1.3171    2.3239 H   0  0  0  0  0  0  0  0  0  0  0  0
   -6.6057    0.0628    2.8060 H   0  0  0  0  0  0  0  0  0  0  0  0
   -4.4001   -0.6377    1.5884 N   0  0  0  0  0  0  0  0  0  0  0  0
   -3.1220   -1.1455    1.1644 C   0  0  2  0  0  0  0  0  0  0  0  0
   -2.2017    0.0428    0.9187 C   0  0  0  0  0  0  0  0  0  0  0  0
   -2.6171    1.1750    0.6807 O   0  0  0  0  0  0  0  0  0  0  0  0
   -3.2533   -1.9992   -0.0873 C   0  0  0  0  0  0  0  0  0  0  0  0
   -4.4370    0.2910    2.0047 H   0  0  0  0  0  0  0  0  0  0  0  0
   -2.7302   -1.7467    1.9921 H   0  0  0  0  0  0  0  0  0  0  0  0
   -3.6446   -1.4140   -0.9275 H   0  0  0  0  0  0  0  0  0  0  0  0
   -2.2844   -2.4081   -0.3922 H   0  0  0  0  0  0  0  0  0  0  0  0
   -3.9388   -2.8365    0.0822 H   0  0  0  0  0  0  0  0  0  0  0  0
   -0.8768   -0.3314    0.9568 N   0  0  0  0  0  0  0  0  0  0  0  0
    0.2067    0.6285    0.7375 C   0  0  2  0  0  0  0  0  0  0  0  0
    1.4856   -0.0471    1.2227 C   0  0  0  0  0  0  0  0  0  0  0  0
    1.6546   -1.2633    1.1612 O   0  0  0  0  0  0  0  0  0  0  0  0
   -0.0978    1.9221    1.5078 C   0  0  0  0  0  0  0  0  0  0  0  0
   -1.3078    2.6848    0.9686 C   0  0  0  0  0  0  0  0  0  0  0  0
   -1.5880    3.9344    1.7655 C   0  0  0  0  0  0  0  0  0  0  0  0
   -1.0028    4.2284    2.8001 O   0  0  0  0  0  0  0  0  0  0  0  0
   -2.5782    4.6903    1.2302 O   0  0  0  0  0  0  0  0  0  0  0  0
   -0.6087   -1.2764    1.1771 H   0  0  0  0  0  0  0  0  0  0  0  0
    0.2690    0.8408   -0.3349 H   0  0  0  0  0  0  0  0  0  0  0  0
   -0.2710    1.6808    2.5651 H   0  0  0  0  0  0  0  0  0  0  0  0
    0.7705    2.5934    1.4779 H   0  0  0  0  0  0  0  0  0  0  0  0
   -1.1134    3.0032   -0.0629 H   0  0  0  0  0  0  0  0  0  0  0  0
   -2.2006    2.0531    0.9171 H   0  0  0  0  0  0  0  0  0  0  0  0
   -2.8047    5.5039    1.7289 H   0  0  0  0  0  0  0  0  0  0  0  0
    2.4164    0.8638    1.6999 N   0  0  0  0  0  0  0  0  0  0  0  0
    3.7101    0.4777    2.2157 C   0  0  2  0  0  0  0  0  0  0  0  0
    3.5890    0.3299    3.7266 C   0  0  0  0  0  0  0  0  0  0  0  0
    2.7104    0.8813    4.3862 O   0  0  0  0  0  0  0  0  0  0  0  0
    4.7774    1.4985    1.8532 C   0  0  0  0  0  0  0  0  0  0  0  0
    2.1771    1.8507    1.6862 H   0  0  0  0  0  0  0  0  0  0  0  0
    3.9505   -0.4942    1.7712 H   0  0  0  0  0  0  0  0  0  0  0  0
    4.5536    2.4787    2.2897 H   0  0  0  0  0  0  0  0  0  0  0  0
    5.7621    1.1904    2.2201 H   0  0  0  0  0  0  0  0  0  0  0  0
    4.8426    1.6254    0.7672 H   0  0  0  0  0  0  0  0  0  0  0  0
    4.6030   -0.4552    4.2572 N   0  0  0  0  0  0  0  0  0  0  0  0
    4.7147   -0.7345    5.6698 C   0  0  0  0  0  0  0  0  0  0  0  0
    5.2781   -0.8879    3.6337 H   0  0  0  0  0  0  0  0  0  0  0  0
    5.3707    0.0122    6.1410 H   0  0  0  0  0  0  0  0  0  0  0  0
    3.7175   -0.6903    6.1321 H   0  0  0  0  0  0  0  0  0  0  0  0
    5.1407   -1.7386    5.8123 H   0  0  0  0  0  0  0  0  0  0  0  0
  1  3  1  0  0  0  0
  1  7  1  0  0  0  0
  1  2  2  0  0  0  0
 34 35  1  0  0  0  0
 35 43  1  0  0  0  0
 35 36  2  0  0  0  0
  8  9  1  0  0  0  0
  9 17  1  0  0  0  0
  9 10  2  0  0  0  0
 18 19  1  0  0  0  0
 19 33  1  0  0  0  0
 19 20  2  0  0  0  0
 22 23  1  0  0  0  0
 23 24  2  0  0  0  0
 23 25  1  0  0  0  0
 34 37  1  0  0  0  0
  8 11  1  0  0  0  0
 43 44  1  0  0  0  0
 21 22  1  0  0  0  0
 18 21  1  0  0  0  0
 33 34  1  0  0  0  0
  7  8  1  0  0  0  0
 17 18  1  0  0  0  0
  3  4  1  0  0  0  0
  3  5  1  0  0  0  0
  3  6  1  0  0  0  0
 37 40  1  0  0  0  0
 37 41  1  0  0  0  0
 37 42  1  0  0  0  0
 11 14  1  0  0  0  0
 11 15  1  0  0  0  0
 11 16  1  0  0  0  0
 44 46  1  0  0  0  0
 44 47  1  0  0  0  0
 44 48  1  0  0  0  0
 22 30  1  0  0  0  0
 22 31  1  0  0  0  0
 21 28  1  0  0  0  0
 21 29  1  0  0  0  0
 34 39  1  0  0  0  0
  8 13  1  0  0  0  0
 18 27  1  0  0  0  0
 43 45  1  0  0  0  0
  7 12  1  0  0  0  0
 33 38  1  0  0  0  0
 17 26  1  0  0  0  0
 25 32  1  0  0  0  0
M  END
$$$$

  -OEChem-05262214473D

 48 47  0     1  0  0  0  0  0999 V2000
   -5.5827   -1.3473    1.4591 C   0  0  0  0  0  0  0  0  0  0  0  0
   -5.7053   -2.4696    0.9825 O   0  0  0  0  0  0  0  0  0  0  0  0
   -6.7879   -0.6277    1.9670 C   0  0  0  0  0  0  0  0  0  0  0  0
   -7.2718   -0.0164    1.1885 H   0  0  0  0  0  0  0  0  0  0  0  0
   -7.5699   -1.3171    2.3239 H   0  0  0  0  0  0  0  0  0  0  0  0
   -6.6057    0.0628    2.8060 H   0  0  0  0  0  0  0  0  0  0  0  0
   -4.4001   -0.6377    1.5884 N   0  0  0  0  0  0  0  0  0  0  0  0
   -3.1220   -1.1455    1.1644 C   0  0  2  0  0  0  0  0  0  0  0  0
   -2.2017    0.0428    0.9187 C   0  0  0  0  0  0  0  0  0  0  0  0
   -2.6171    1.1750    0.6807 O   0  0  0  0  0  0  0  0  0  0  0  0
   -3.2533   -1.9992   -0.0873 C   0  0  0  0  0  0  0  0  0  0  0  0
   -4.4370    0.2910    2.0047 H   0  0  0  0  0  0  0  0  0  0  0  0
   -2.7302   -1.7467    1.9921 H   0  0  0  0  0  0  0  0  0  0  0  0
   -3.6446   -1.4140   -0.9275 H   0  0  0  0  0  0  0  0  0  0  0  0
   -2.2844   -2.4081   -0.3922 H   0  0  0  0  0  0  0  0  0  0  0  0
   -3.9388   -2.8365    0.0822 H   0  0  0  0  0  0  0  0  0  0  0  0
   -0.8768   -0.3314    0.9568 N   0  0  0  0  0  0  0  0  0  0  0  0
    0.2067    0.6285    0.7375 C   0  0  2  0  0  0  0  0  0  0  0  0
    1.4856   -0.0471    1.2227 C   0  0  0  0  0  0  0  0  0  0  0  0
    1.7749   -1.2046    0.9260 O   0  0  0  0  0  0  0  0  0  0  0  0
   -0.0978    1.9221    1.5078 C   0  0  0  0  0  0  0  0  0  0  0  0
   -1.3078    2.6848    0.9686 C   0  0  0  0  0  0  0  0  0  0  0  0
   -1.5880    3.9344    1.7655 C   0  0  0  0  0  0  0  0  0  0  0  0
   -1.0028    4.2284    2.8001 O   0  0  0  0  0  0  0  0  0  0  0  0
   -2.5782    4.6903    1.2302 O   0  0  0  0  0  0  0  0  0  0  0  0
   -0.6087   -1.2764    1.1771 H   0  0  0  0  0  0  0  0  0  0  0  0
    0.2690    0.8408   -0.3349 H   0  0  0  0  0  0  0  0  0  0  0  0
   -0.2710    1.6808    2.5651 H   0  0  0  0  0  0  0  0  0  0  0  0
    0.7705    2.5934    1.4779 H   0  0  0  0  0  0  0  0  0  0  0  0
   -1.1134    3.0032   -0.0629 H   0  0  0  0  0  0  0  0  0  0  0  0
   -2.2006    2.0531    0.9171 H   0  0  0  0  0  0  0  0  0  0  0  0
   -2.8047    5.5039    1.7289 H   0  0  0  0  0  0  0  0  0  0  0  0
    2.2701    0.7979    1.9937 N   0  0  0  0  0  0  0  0  0  0  0  0
    3.5329    0.3981    2.5718 C   0  0  2  0  0  0  0  0  0  0  0  0
    3.2676   -0.0892    3.9901 C   0  0  0  0  0  0  0  0  0  0  0  0
    2.2759    0.2396    4.6378 O   0  0  0  0  0  0  0  0  0  0  0  0
    4.5308    1.5457    2.5690 C   0  0  0  0  0  0  0  0  0  0  0  0
    1.9410    1.7441    2.1602 H   0  0  0  0  0  0  0  0  0  0  0  0
    3.9101   -0.4319    1.9645 H   0  0  0  0  0  0  0  0  0  0  0  0
    4.1701    2.3866    3.1725 H   0  0  0  0  0  0  0  0  0  0  0  0
    5.4960    1.2332    2.9811 H   0  0  0  0  0  0  0  0  0  0  0  0
    4.6978    1.9144    1.5512 H   0  0  0  0  0  0  0  0  0  0  0  0
    4.2899   -0.8998    4.4633 N   0  0  0  0  0  0  0  0  0  0  0  0
    4.2779   -1.4770    5.7872 C   0  0  0  0  0  0  0  0  0  0  0  0
    5.0651   -1.1353    3.8506 H   0  0  0  0  0  0  0  0  0  0  0  0
    4.8066   -0.8095    6.4836 H   0  0  0  0  0  0  0  0  0  0  0  0
    3.2379   -1.6059    6.1214 H   0  0  0  0  0  0  0  0  0  0  0  0
    4.7799   -2.4555    5.7650 H   0  0  0  0  0  0  0  0  0  0  0  0
  1  3  1  0  0  0  0
  1  7  1  0  0  0  0
  1  2  2  0  0  0  0
 34 35  1  0  0  0  0
 35 43  1  0  0  0  0
 35 36  2  0  0  0  0
  8  9  1  0  0  0  0
  9 17  1  0  0  0  0
  9 10  2  0  0  0  0
 18 19  1  0  0  0  0
 19 33  1  0  0  0  0
 19 20  2  0  0  0  0
 22 23  1  0  0  0  0
 23 24  2  0  0  0  0
 23 25  1  0  0  0  0
 34 37  1  0  0  0  0
  8 11  1  0  0  0  0
 43 44  1  0  0  0  0
 21 22  1  0  0  0  0
 18 21  1  0  0  0  0
 33 34  1  0  0  0  0
  7  8  1  0  0  0  0
 17 18  1  0  0  0  0
  3  4  1  0  0  0  0
  3  5  1  0  0  0  0
  3  6  1  0  0  0  0
 37 40  1  0  0  0  0
 37 41  1  0  0  0  0
 37 42  1  0  0  0  0
 11 14  1  0  0  0  0
 11 15  1  0  0  0  0
 11 16  1  0  0  0  0
 44 46  1  0  0  0  0
 44 47  1  0  0  0  0
 44 48  1  0  0  0  0
 22 30  1  0  0  0  0
 22 31  1  0  0  0  0
 21 28  1  0  0  0  0
 21 29  1  0  0  0  0
 34 39  1  0  0  0  0
  8 13  1  0  0  0  0
 18 27  1  0  0  0  0
 43 45  1  0  0  0  0
  7 12  1  0  0  0  0
 33 38  1  0  0  0  0
 17 26  1  0  0  0  0
 25 32  1  0  0  0  0
M  END
$$$$

  -OEChem-05262214473D

 48 47  0     1  0  0  0  0  0999 V2000
   -5.5827   -1.3473    1.4591 C   0  0  0  0  0  0  0  0  0  0  0  0
   -5.7053   -2.4696    0.9825 O   0  0  0  0  0  0  0  0  0  0  0  0
   -6.7879   -0.6277    1.9670 C   0  0  0  0  0  0  0  0  0  0  0  0
   -7.2718   -0.0164    1.1885 H   0  0  0  0  0  0  0  0  0  0  0  0
   -7.5699   -1.3171    2.3239 H   0  0  0  0  0  0  0  0  0  0  0  0
   -6.6057    0.0628    2.8060 H   0  0  0  0  0  0  0  0  0  0  0  0
   -4.4001   -0.6377    1.5884 N   0  0  0  0  0  0  0  0  0  0  0  0
   -3.1220   -1.1455    1.1644 C   0  0  2  0  0  0  0  0  0  0  0  0
   -2.2017    0.0428    0.9187 C   0  0  0  0  0  0  0  0  0  0  0  0
   -2.6171    1.1750    0.6807 O   0  0  0  0  0  0  0  0  0  0  0  0
   -3.2533   -1.9992   -0.0873 C   0  0  0  0  0  0  0  0  0  0  0  0
   -4.4370    0.2910    2.0047 H   0  0  0  0  0  0  0  0  0  0  0  0
   -2.7302   -1.7467    1.9921 H   0  0  0  0  0  0  0  0  0  0  0  0
   -3.6446   -1.4140   -0.9275 H   0  0  0  0  0  0  0  0  0  0  0  0
   -2.2844   -2.4081   -0.3922 H   0  0  0  0  0  0  0  0  0  0  0  0
   -3.9388   -2.8365    0.0822 H   0  0  0  0  0  0  0  0  0  0  0  0
   -0.8768   -0.3314    0.9568 N   0  0  0  0  0  0  0  0  0  0  0  0
    0.2067    0.6285    0.7375 C   0  0  2  0  0  0  0  0  0  0  0  0
    1.4856   -0.0471    1.2227 C   0  0  0  0  0  0  0  0  0  0  0  0
    1.9132   -1.0869    0.7253 O   0  0  0  0  0  0  0  0  0  0  0  0
   -0.0978    1.9221    1.5078 C   0  0  0  0  0  0  0  0  0  0  0  0
   -1.3078    2.6848    0.9686 C   0  0  0  0  0  0  0  0  0  0  0  0
   -1.5880    3.9344    1.7655 C   0  0  0  0  0  0  0  0  0  0  0  0
   -1.0028    4.2284    2.8001 O   0  0  0  0  0  0  0  0  0  0  0  0
   -2.5782    4.6903    1.2302 O   0  0  0  0  0  0  0  0  0  0  0  0
   -0.6087   -1.2764    1.1771 H   0  0  0  0  0  0  0  0  0  0  0  0
    0.2690    0.8408   -0.3349 H   0  0  0  0  0  0  0  0  0  0  0  0
   -0.2710    1.6808    2.5651 H   0  0  0  0  0  0  0  0  0  0  0  0
    0.7705    2.5934    1.4779 H   0  0  0  0  0  0  0  0  0  0  0  0
   -1.1134    3.0032   -0.0629 H   0  0  0  0  0  0  0  0  0  0  0  0
   -2.2006    2.0531    0.9171 H   0  0  0  0  0  0  0  0  0  0  0  0
   -2.8047    5.5039    1.7289 H   0  0  0  0  0  0  0  0  0  0  0  0
    2.1006    0.6584    2.2464 N   0  0  0  0  0  0  0  0  0  0  0  0
    3.3275    0.2293    2.8782 C   0  0  2  0  0  0  0  0  0  0  0  0
    2.9615   -0.5776    4.1169 C   0  0  0  0  0  0  0  0  0  0  0  0
    1.8802   -0.4705    4.6919 O   0  0  0  0  0  0  0  0  0  0  0  0
    4.2066    1.4156    3.2424 C   0  0  0  0  0  0  0  0  0  0  0  0
    1.6673    1.5188    2.5678 H   0  0  0  0  0  0  0  0  0  0  0  0
    3.8438   -0.4170    2.1600 H   0  0  0  0  0  0  0  0  0  0  0  0
    3.7060    2.0746    3.9612 H   0  0  0  0  0  0  0  0  0  0  0  0
    5.1482    1.0875    3.6950 H   0  0  0  0  0  0  0  0  0  0  0  0
    4.4443    2.0116    2.3547 H   0  0  0  0  0  0  0  0  0  0  0  0
    4.0005   -1.3998    4.5301 N   0  0  0  0  0  0  0  0  0  0  0  0
    3.9037   -2.2556    5.6894 C   0  0  0  0  0  0  0  0  0  0  0  0
    4.8548   -1.4389    3.9820 H   0  0  0  0  0  0  0  0  0  0  0  0
    4.2901   -1.7240    6.5715 H   0  0  0  0  0  0  0  0  0  0  0  0
    2.8511   -2.5275    5.8574 H   0  0  0  0  0  0  0  0  0  0  0  0
    4.4958   -3.1674    5.5224 H   0  0  0  0  0  0  0  0  0  0  0  0
  1  3  1  0  0  0  0
  1  7  1  0  0  0  0
  1  2  2  0  0  0  0
 34 35  1  0  0  0  0
 35 43  1  0  0  0  0
 35 36  2  0  0  0  0
  8  9  1  0  0  0  0
  9 17  1  0  0  0  0
  9 10  2  0  0  0  0
 18 19  1  0  0  0  0
 19 33  1  0  0  0  0
 19 20  2  0  0  0  0
 22 23  1  0  0  0  0
 23 24  2  0  0  0  0
 23 25  1  0  0  0  0
 34 37  1  0  0  0  0
  8 11  1  0  0  0  0
 43 44  1  0  0  0  0
 21 22  1  0  0  0  0
 18 21  1  0  0  0  0
 33 34  1  0  0  0  0
  7  8  1  0  0  0  0
 17 18  1  0  0  0  0
  3  4  1  0  0  0  0
  3  5  1  0  0  0  0
  3  6  1  0  0  0  0
 37 40  1  0  0  0  0
 37 41  1  0  0  0  0
 37 42  1  0  0  0  0
 11 14  1  0  0  0  0
 11 15  1  0  0  0  0
 11 16  1  0  0  0  0
 44 46  1  0  0  0  0
 44 47  1  0  0  0  0
 44 48  1  0  0  0  0
 22 30  1  0  0  0  0
 22 31  1  0  0  0  0
 21 28  1  0  0  0  0
 21 29  1  0  0  0  0
 34 39  1  0  0  0  0
  8 13  1  0  0  0  0
 18 27  1  0  0  0  0
 43 45  1  0  0  0  0
  7 12  1  0  0  0  0
 33 38  1  0  0  0  0
 17 26  1  0  0  0  0
 25 32  1  0  0  0  0
M  END
$$$$

  -OEChem-05262214473D

 48 47  0     1  0  0  0  0  0999 V2000
   -5.5827   -1.3473    1.4591 C   0  0  0  0  0  0  0  0  0  0  0  0
   -5.7053   -2.4696    0.9825 O   0  0  0  0  0  0  0  0  0  0  0  0
   -6.7879   -0.6277    1.9670 C   0  0  0  0  0  0  0  0  0  0  0  0
   -7.2718   -0.0164    1.1885 H   0  0  0  0  0  0  0  0  0  0  0  0
   -7.5699   -1.3171    2.3239 H   0  0  0  0  0  0  0  0  0  0  0  0
   -6.6057    0.0628    2.8060 H   0  0  0  0  0  0  0  0  0  0  0  0
   -4.4001   -0.6377    1.5884 N   0  0  0  0  0  0  0  0  0  0  0  0
   -3.1220   -1.1455    1.1644 C   0  0  2  0  0  0  0  0  0  0  0  0
   -2.2017    0.0428    0.9187 C   0  0  0  0  0  0  0  0  0  0  0  0
   -2.6171    1.1750    0.6807 O   0  0  0  0  0  0  0  0  0  0  0  0
   -3.2533   -1.9992   -0.0873 C   0  0  0  0  0  0  0  0  0  0  0  0
   -4.4370    0.2910    2.0047 H   0  0  0  0  0  0  0  0  0  0  0  0
   -2.7302   -1.7467    1.9921 H   0  0  0  0  0  0  0  0  0  0  0  0
   -3.6446   -1.4140   -0.9275 H   0  0  0  0  0  0  0  0  0  0  0  0
   -2.2844   -2.4081   -0.3922 H   0  0  0  0  0  0  0  0  0  0  0  0
   -3.9388   -2.8365    0.0822 H   0  0  0  0  0  0  0  0  0  0  0  0
   -0.8768   -0.3314    0.9568 N   0  0  0  0  0  0  0  0  0  0  0  0
    0.2067    0.6285    0.7375 C   0  0  2  0  0  0  0  0  0  0  0  0
    1.4856   -0.0471    1.2227 C   0  0  0  0  0  0  0  0  0  0  0  0
    2.0601   -0.9184    0.5728 O   0  0  0  0  0  0  0  0  0  0  0  0
   -0.0978    1.9221    1.5078 C   0  0  0  0  0  0  0  0  0  0  0  0
   -1.3078    2.6848    0.9686 C   0  0  0  0  0  0  0  0  0  0  0  0
   -1.5880    3.9344    1.7655 C   0  0  0  0  0  0  0  0  0  0  0  0
   -1.0028    4.2284    2.8001 O   0  0  0  0  0  0  0  0  0  0  0  0
   -2.5782    4.6903    1.2302 O   0  0  0  0  0  0  0  0  0  0  0  0
   -0.6087   -1.2764    1.1771 H   0  0  0  0  0  0  0  0  0  0  0  0
    0.2690    0.8408   -0.3349 H   0  0  0  0  0  0  0  0  0  0  0  0
   -0.2710    1.6808    2.5651 H   0  0  0  0  0  0  0  0  0  0  0  0
    0.7705    2.5934    1.4779 H   0  0  0  0  0  0  0  0  0  0  0  0
   -1.1134    3.0032   -0.0629 H   0  0  0  0  0  0  0  0  0  0  0  0
   -2.2006    2.0531    0.9171 H   0  0  0  0  0  0  0  0  0  0  0  0
   -2.8047    5.5039    1.7289 H   0  0  0  0  0  0  0  0  0  0  0  0
    1.9193    0.4549    2.4408 N   0  0  0  0  0  0  0  0  0  0  0  0
    3.1079   -0.0171    3.1140 C   0  0  2  0  0  0  0  0  0  0  0  0
    2.6914   -1.1021    4.0983 C   0  0  0  0  0  0  0  0  0  0  0  0
    1.5503   -1.2008    4.5446 O   0  0  0  0  0  0  0  0  0  0  0  0
    3.8270    1.1172    3.8275 C   0  0  0  0  0  0  0  0  0  0  0  0
    1.3748    1.1903    2.8813 H   0  0  0  0  0  0  0  0  0  0  0  0
    3.7561   -0.4505    2.3446 H   0  0  0  0  0  0  0  0  0  0  0  0
    3.1930    1.5638    4.6022 H   0  0  0  0  0  0  0  0  0  0  0  0
    4.7424    0.7633    4.3131 H   0  0  0  0  0  0  0  0  0  0  0  0
    4.0994    1.9103    3.1229 H   0  0  0  0  0  0  0  0  0  0  0  0
    3.7544   -1.9210    4.4529 N   0  0  0  0  0  0  0  0  0  0  0  0
    3.6175   -3.0172    5.3832 C   0  0  0  0  0  0  0  0  0  0  0  0
    4.6616   -1.7780    4.0190 H   0  0  0  0  0  0  0  0  0  0  0  0
    3.8565   -2.6689    6.3989 H   0  0  0  0  0  0  0  0  0  0  0  0
    2.5837   -3.3923    5.3581 H   0  0  0  0  0  0  0  0  0  0  0  0
    4.3079   -3.8258    5.1011 H   0  0  0  0  0  0  0  0  0  0  0  0
  1  3  1  0  0  0  0
  1  7  1  0  0  0  0
  1  2  2  0  0  0  0
 34 35  1  0  0  0  0
 35 43  1  0  0  0  0
 35 36  2  0  0  0  0
  8  9  1  0  0  0  0
  9 17  1  0  0  0  0
  9 10  2  0  0  0  0
 18 19  1  0  0  0  0
 19 33  1  0  0  0  0
 19 20  2  0  0  0  0
 22 23  1  0  0  0  0
 23 24  2  0  0  0  0
 23 25  1  0  0  0  0
 34 37  1  0  0  0  0
  8 11  1  0  0  0  0
 43 44  1  0  0  0  0
 21 22  1  0  0  0  0
 18 21  1  0  0  0  0
 33 34  1  0  0  0  0
  7  8  1  0  0  0  0
 17 18  1  0  0  0  0
  3  4  1  0  0  0  0
  3  5  1  0  0  0  0
  3  6  1  0  0  0  0
 37 40  1  0  0  0  0
 37 41  1  0  0  0  0
 37 42  1  0  0  0  0
 11 14  1  0  0  0  0
 11 15  1  0  0  0  0
 11 16  1  0  0  0  0
 44 46  1  0  0  0  0
 44 47  1  0  0  0  0
 44 48  1  0  0  0  0
 22 30  1  0  0  0  0
 22 31  1  0  0  0  0
 21 28  1  0  0  0  0
 21 29  1  0  0  0  0
 34 39  1  0  0  0  0
  8 13  1  0  0  0  0
 18 27  1  0  0  0  0
 43 45  1  0  0  0  0
  7 12  1  0  0  0  0
 33 38  1  0  0  0  0
 17 26  1  0  0  0  0
 25 32  1  0  0  0  0
M  END
$$$$

  -OEChem-05262214473D

 48 47  0     1  0  0  0  0  0999 V2000
   -5.5827   -1.3473    1.4591 C   0  0  0  0  0  0  0  0  0  0  0  0
   -5.7053   -2.4696    0.9825 O   0  0  0  0  0  0  0  0  0  0  0  0
   -6.7879   -0.6277    1.9670 C   0  0  0  0  0  0  0  0  0  0  0  0
   -7.2718   -0.0164    1.1885 H   0  0  0  0  0  0  0  0  0  0  0  0
   -7.5699   -1.3171    2.3239 H   0  0  0  0  0  0  0  0  0  0  0  0
   -6.6057    0.0628    2.8060 H   0  0  0  0  0  0  0  0  0  0  0  0
   -4.4001   -0.6377    1.5884 N   0  0  0  0  0  0  0  0  0  0  0  0
   -3.1220   -1.1455    1.1644 C   0  0  2  0  0  0  0  0  0  0  0  0
   -2.2017    0.0428    0.9187 C   0  0  0  0  0  0  0  0  0  0  0  0
   -2.6171    1.1750    0.6807 O   0  0  0  0  0  0  0  0  0  0  0  0
   -3.2533   -1.9992   -0.0873 C   0  0  0  0  0  0  0  0  0  0  0  0
   -4.4370    0.2910    2.0047 H   0  0  0  0  0  0  0  0  0  0  0  0
   -2.7302   -1.7467    1.9921 H   0  0  0  0  0  0  0  0  0  0  0  0
   -3.6446   -1.4140   -0.9275 H   0  0  0  0  0  0  0  0  0  0  0  0
   -2.2844   -2.4081   -0.3922 H   0  0  0  0  0  0  0  0  0  0  0  0
   -3.9388   -2.8365    0.0822 H   0  0  0  0  0  0  0  0  0  0  0  0
   -0.8768   -0.3314    0.9568 N   0  0  0  0  0  0  0  0  0  0  0  0
    0.2067    0.6285    0.7375 C   0  0  2  0  0  0  0  0  0  0  0  0
    1.4856   -0.0471    1.2227 C   0  0  0  0  0  0  0  0  0  0  0  0
    2.2056   -0.7104    0.4789 O   0  0  0  0  0  0  0  0  0  0  0  0
   -0.0978    1.9221    1.5078 C   0  0  0  0  0  0  0  0  0  0  0  0
   -1.3078    2.6848    0.9686 C   0  0  0  0  0  0  0  0  0  0  0  0
   -1.5880    3.9344    1.7655 C   0  0  0  0  0  0  0  0  0  0  0  0
   -1.0028    4.2284    2.8001 O   0  0  0  0  0  0  0  0  0  0  0  0
   -2.5782    4.6903    1.2302 O   0  0  0  0  0  0  0  0  0  0  0  0
   -0.6087   -1.2764    1.1771 H   0  0  0  0  0  0  0  0  0  0  0  0
    0.2690    0.8408   -0.3349 H   0  0  0  0  0  0  0  0  0  0  0  0
   -0.2710    1.6808    2.5651 H   0  0  0  0  0  0  0  0  0  0  0  0
    0.7705    2.5934    1.4779 H   0  0  0  0  0  0  0  0  0  0  0  0
   -1.1134    3.0032   -0.0629 H   0  0  0  0  0  0  0  0  0  0  0  0
   -2.2006    2.0531    0.9171 H   0  0  0  0  0  0  0  0  0  0  0  0
   -2.8047    5.5039    1.7289 H   0  0  0  0  0  0  0  0  0  0  0  0
    1.7387    0.2012    2.5637 N   0  0  0  0  0  0  0  0  0  0  0  0
    2.8890   -0.3243    3.2631 C   0  0  2  0  0  0  0  0  0  0  0  0
    2.4759   -1.6269    3.9355 C   0  0  0  0  0  0  0  0  0  0  0  0
    1.3086   -1.9013    4.2061 O   0  0  0  0  0  0  0  0  0  0  0  0
    3.4178    0.6707    4.2844 C   0  0  0  0  0  0  0  0  0  0  0  0
    1.0834    0.7808    3.0793 H   0  0  0  0  0  0  0  0  0  0  0  0
    3.6530   -0.5300    2.5055 H   0  0  0  0  0  0  0  0  0  0  0  0
    2.6661    0.8892    5.0517 H   0  0  0  0  0  0  0  0  0  0  0  0
    4.3063    0.2827    4.7933 H   0  0  0  0  0  0  0  0  0  0  0  0
    3.6865    1.6174    3.8033 H   0  0  0  0  0  0  0  0  0  0  0  0
    3.5685   -2.4279    4.2370 N   0  0  0  0  0  0  0  0  0  0  0  0
    3.4388   -3.7100    4.8894 C   0  0  0  0  0  0  0  0  0  0  0  0
    4.4987   -2.1295    3.9590 H   0  0  0  0  0  0  0  0  0  0  0  0
    3.5351   -3.5798    5.9774 H   0  0  0  0  0  0  0  0  0  0  0  0
    2.4538   -4.1413    4.6576 H   0  0  0  0  0  0  0  0  0  0  0  0
    4.2288   -4.3858    4.5297 H   0  0  0  0  0  0  0  0  0  0  0  0
  1  3  1  0  0  0  0
  1  7  1  0  0  0  0
  1  2  2  0  0  0  0
 34 35  1  0  0  0  0
 35 43  1  0  0  0  0
 35 36  2  0  0  0  0
  8  9  1  0  0  0  0
  9 17  1  0  0  0  0
  9 10  2  0  0  0  0
 18 19  1  0  0  0  0
 19 33  1  0  0  0  0
 19 20  2  0  0  0  0
 22 23  1  0  0  0  0
 23 24  2  0  0  0  0
 23 25  1  0  0  0  0
 34 37  1  0  0  0  0
  8 11  1  0  0  0  0
 43 44  1  0  0  0  0
 21 22  1  0  0  0  0
 18 21  1  0  0  0  0
 33 34  1  0  0  0  0
  7  8  1  0  0  0  0
 17 18  1  0  0  0  0
  3  4  1  0  0  0  0
  3  5  1  0  0  0  0
  3  6  1  0  0  0  0
 37 40  1  0  0  0  0
 37 41  1  0  0  0  0
 37 42  1  0  0  0  0
 11 14  1  0  0  0  0
 11 15  1  0  0  0  0
 11 16  1  0  0  0  0
 44 46  1  0  0  0  0
 44 47  1  0  0  0  0
 44 48  1  0  0  0  0
 22 30  1  0  0  0  0
 22 31  1  0  0  0  0
 21 28  1  0  0  0  0
 21 29  1  0  0  0  0
 34 39  1  0  0  0  0
  8 13  1  0  0  0  0
 18 27  1  0  0  0  0
 43 45  1  0  0  0  0
  7 12  1  0  0  0  0
 33 38  1  0  0  0  0
 17 26  1  0  0  0  0
 25 32  1  0  0  0  0
M  END
$$$$

  -OEChem-05262214473D

 48 47  0     1  0  0  0  0  0999 V2000
   -5.5827   -1.3473    1.4591 C   0  0  0  0  0  0  0  0  0  0  0  0
   -5.7053   -2.4696    0.9825 O   0  0  0  0  0  0  0  0  0  0  0  0
   -6.7879   -0.6277    1.9670 C   0  0  0  0  0  0  0  0  0  0  0  0
   -7.2718   -0.0164    1.1885 H   0  0  0  0  0  0  0  0  0  0  0  0
   -7.5699   -1.3171    2.3239 H   0  0  0  0  0  0  0  0  0  0  0  0
   -6.6057    0.0628    2.8060 H   0  0  0  0  0  0  0  0  0  0  0  0
   -4.4001   -0.6377    1.5884 N   0  0  0  0  0  0  0  0  0  0  0  0
   -3.1220   -1.1455    1.1644 C   0  0  2  0  0  0  0  0  0  0  0  0
   -2.2017    0.0428    0.9187 C   0  0  0  0  0  0  0  0  0  0  0  0
   -2.6171    1.1750    0.6807 O   0  0  0  0  0  0  0  0  0  0  0  0
   -3.2533   -1.9992   -0.0873 C   0  0  0  0  0  0  0  0  0  0  0  0
   -4.4370    0.2910    2.0047 H   0  0  0  0  0  0  0  0  0  0  0  0
   -2.7302   -1.7467    1.9921 H   0  0  0  0  0  0  0  0  0  0  0  0
   -3.6446   -1.4140   -0.9275 H   0  0  0  0  0  0  0  0  0  0  0  0
   -2.2844   -2.4081   -0.3922 H   0  0  0  0  0  0  0  0  0  0  0  0
   -3.9388   -2.8365    0.0822 H   0  0  0  0  0  0  0  0  0  0  0  0
   -0.8768   -0.3314    0.9568 N   0  0  0  0  0  0  0  0  0  0  0  0
    0.2067    0.6285    0.7375 C   0  0  2  0  0  0  0  0  0  0  0  0
    1.4856   -0.0471    1.2227 C   0  0  0  0  0  0  0  0  0  0  0  0
    2.3398   -0.4771    0.4500 O   0  0  0  0  0  0  0  0  0  0  0  0
   -0.0978    1.9221    1.5078 C   0  0  0  0  0  0  0  0  0  0  0  0
   -1.3078    2.6848    0.9686 C   0  0  0  0  0  0  0  0  0  0  0  0
   -1.5880    3.9344    1.7655 C   0  0  0  0  0  0  0  0  0  0  0  0
   -1.0028    4.2284    2.8001 O   0  0  0  0  0  0  0  0  0  0  0  0
   -2.5782    4.6903    1.2302 O   0  0  0  0  0  0  0  0  0  0  0  0
   -0.6087   -1.2764    1.1771 H   0  0  0  0  0  0  0  0  0  0  0  0
    0.2690    0.8408   -0.3349 H   0  0  0  0  0  0  0  0  0  0  0  0
   -0.2710    1.6808    2.5651 H   0  0  0  0  0  0  0  0  0  0  0  0
    0.7705    2.5934    1.4779 H   0  0  0  0  0  0  0  0  0  0  0  0
   -1.1134    3.0032   -0.0629 H   0  0  0  0  0  0  0  0  0  0  0  0
   -2.2006    2.0531    0.9171 H   0  0  0  0  0  0  0  0  0  0  0  0
   -2.8047    5.5039    1.7289 H   0  0  0  0  0  0  0  0  0  0  0  0
    1.5710   -0.0854    2.6066 N   0  0  0  0  0  0  0  0  0  0  0  0
    2.6858   -0.6715    3.3154 C   0  0  2  0  0  0  0  0  0  0  0  0
    2.3296   -2.1163    3.6398 C   0  0  0  0  0  0  0  0  0  0  0  0
    1.1716   -2.5245    3.6994 O   0  0  0  0  0  0  0  0  0  0  0  0
    3.0069    0.1067    4.5819 C   0  0  0  0  0  0  0  0  0  0  0  0
    0.8129    0.3184    3.1484 H   0  0  0  0  0  0  0  0  0  0  0  0
    3.5416   -0.6503    2.6319 H   0  0  0  0  0  0  0  0  0  0  0  0
    2.1611    0.0967    5.2791 H   0  0  0  0  0  0  0  0  0  0  0  0
    3.8696   -0.3217    5.1028 H   0  0  0  0  0  0  0  0  0  0  0  0
    3.2338    1.1528    4.3497 H   0  0  0  0  0  0  0  0  0  0  0  0
    3.4553   -2.8861    3.8972 N   0  0  0  0  0  0  0  0  0  0  0  0
    3.3799   -4.2867    4.2415 C   0  0  0  0  0  0  0  0  0  0  0  0
    4.3772   -2.4694    3.8061 H   0  0  0  0  0  0  0  0  0  0  0  0
    3.3480   -4.3947    5.3358 H   0  0  0  0  0  0  0  0  0  0  0  0
    2.4703   -4.7234    3.8035 H   0  0  0  0  0  0  0  0  0  0  0  0
    4.2640   -4.8092    3.8473 H   0  0  0  0  0  0  0  0  0  0  0  0
  1  3  1  0  0  0  0
  1  7  1  0  0  0  0
  1  2  2  0  0  0  0
 34 35  1  0  0  0  0
 35 43  1  0  0  0  0
 35 36  2  0  0  0  0
  8  9  1  0  0  0  0
  9 17  1  0  0  0  0
  9 10  2  0  0  0  0
 18 19  1  0  0  0  0
 19 33  1  0  0  0  0
 19 20  2  0  0  0  0
 22 23  1  0  0  0  0
 23 24  2  0  0  0  0
 23 25  1  0  0  0  0
 34 37  1  0  0  0  0
  8 11  1  0  0  0  0
 43 44  1  0  0  0  0
 21 22  1  0  0  0  0
 18 21  1  0  0  0  0
 33 34  1  0  0  0  0
  7  8  1  0  0  0  0
 17 18  1  0  0  0  0
  3  4  1  0  0  0  0
  3  5  1  0  0  0  0
  3  6  1  0  0  0  0
 37 40  1  0  0  0  0
 37 41  1  0  0  0  0
 37 42  1  0  0  0  0
 11 14  1  0  0  0  0
 11 15  1  0  0  0  0
 11 16  1  0  0  0  0
 44 46  1  0  0  0  0
 44 47  1  0  0  0  0
 44 48  1  0  0  0  0
 22 30  1  0  0  0  0
 22 31  1  0  0  0  0
 21 28  1  0  0  0  0
 21 29  1  0  0  0  0
 34 39  1  0  0  0  0
  8 13  1  0  0  0  0
 18 27  1  0  0  0  0
 43 45  1  0  0  0  0
  7 12  1  0  0  0  0
 33 38  1  0  0  0  0
 17 26  1  0  0  0  0
 25 32  1  0  0  0  0
M  END
$$$$

  -OEChem-05262214473D

 48 47  0     1  0  0  0  0  0999 V2000
   -5.5827   -1.3473    1.4591 C   0  0  0  0  0  0  0  0  0  0  0  0
   -5.7053   -2.4696    0.9825 O   0  0  0  0  0  0  0  0  0  0  0  0
   -6.7879   -0.6277    1.9670 C   0  0  0  0  0  0  0  0  0  0  0  0
   -7.2718   -0.0164    1.1885 H   0  0  0  0  0  0  0  0  0  0  0  0
   -7.5699   -1.3171    2.3239 H   0  0  0  0  0  0  0  0  0  0  0  0
   -6.6057    0.0628    2.8060 H   0  0  0  0  0  0  0  0  0  0  0  0
   -4.4001   -0.6377    1.5884 N   0  0  0  0  0  0  0  0  0  0  0  0
   -3.1220   -1.1455    1.1644 C   0  0  2  0  0  0  0  0  0  0  0  0
   -2.2017    0.0428    0.9187 C   0  0  0  0  0  0  0  0  0  0  0  0
   -2.6171    1.1750    0.6807 O   0  0  0  0  0  0  0  0  0  0  0  0
   -3.2533   -1.9992   -0.0873 C   0  0  0  0  0  0  0  0  0  0  0  0
   -4.4370    0.2910    2.0047 H   0  0  0  0  0  0  0  0  0  0  0  0
   -2.7302   -1.7467    1.9921 H   0  0  0  0  0  0  0  0  0  0  0  0
   -3.6446   -1.4140   -0.9275 H   0  0  0  0  0  0  0  0  0  0  0  0
   -2.2844   -2.4081   -0.3922 H   0  0  0  0  0  0  0  0  0  0  0  0
   -3.9388   -2.8365    0.0822 H   0  0  0  0  0  0  0  0  0  0  0  0
   -0.8768   -0.3314    0.9568 N   0  0  0  0  0  0  0  0  0  0  0  0
    0.2067    0.6285    0.7375 C   0  0  2  0  0  0  0  0  0  0  0  0
    1.4856   -0.0471    1.2227 C   0  0  0  0  0  0  0  0  0  0  0  0
    2.4535   -0.2345    0.4882 O   0  0  0  0  0  0  0  0  0  0  0  0
   -0.0978    1.9221    1.5078 C   0  0  0  0  0  0  0  0  0  0  0  0
   -1.3078    2.6848    0.9686 C   0  0  0  0  0  0  0  0  0  0  0  0
   -1.5880    3.9344    1.7655 C   0  0  0  0  0  0  0  0  0  0  0  0
   -1.0028    4.2284    2.8001 O   0  0  0  0  0  0  0  0  0  0  0  0
   -2.5782    4.6903    1.2302 O   0  0  0  0  0  0  0  0  0  0  0  0
   -0.6087   -1.2764    1.1771 H   0  0  0  0  0  0  0  0  0  0  0  0
    0.2690    0.8408   -0.3349 H   0  0  0  0  0  0  0  0  0  0  0  0
   -0.2710    1.6808    2.5651 H   0  0  0  0  0  0  0  0  0  0  0  0
    0.7705    2.5934    1.4779 H   0  0  0  0  0  0  0  0  0  0  0  0
   -1.1134    3.0032   -0.0629 H   0  0  0  0  0  0  0  0  0  0  0  0
   -2.2006    2.0531    0.9171 H   0  0  0  0  0  0  0  0  0  0  0  0
   -2.8047    5.5039    1.7289 H   0  0  0  0  0  0  0  0  0  0  0  0
    1.4277   -0.3853    2.5666 N   0  0  0  0  0  0  0  0  0  0  0  0
    2.5121   -1.0349    3.2673 C   0  0  2  0  0  0  0  0  0  0  0  0
    2.2625   -2.5368    3.2312 C   0  0  0  0  0  0  0  0  0  0  0  0
    1.1487   -3.0278    3.0591 O   0  0  0  0  0  0  0  0  0  0  0  0
    2.6224   -0.5365    4.6999 C   0  0  0  0  0  0  0  0  0  0  0  0
    0.5818   -0.1655    3.0837 H   0  0  0  0  0  0  0  0  0  0  0  0
    3.4293   -0.8031    2.7151 H   0  0  0  0  0  0  0  0  0  0  0  0
    1.7125   -0.7598    5.2689 H   0  0  0  0  0  0  0  0  0  0  0  0
    3.4620   -1.0086    5.2206 H   0  0  0  0  0  0  0  0  0  0  0  0
    2.7721    0.5482    4.7247 H   0  0  0  0  0  0  0  0  0  0  0  0
    3.4227   -3.2643    3.4566 N   0  0  0  0  0  0  0  0  0  0  0  0
    3.4447   -4.7081    3.4839 C   0  0  0  0  0  0  0  0  0  0  0  0
    4.3052   -2.7746    3.5708 H   0  0  0  0  0  0  0  0  0  0  0  0
    3.3079   -5.0580    4.5178 H   0  0  0  0  0  0  0  0  0  0  0  0
    2.6320   -5.0991    2.8541 H   0  0  0  0  0  0  0  0  0  0  0  0
    4.4111   -5.0673    3.1002 H   0  0  0  0  0  0  0  0  0  0  0  0
  1  3  1  0  0  0  0
  1  7  1  0  0  0  0
  1  2  2  0  0  0  0
 34 35  1  0  0  0  0
 35 43  1  0  0  0  0
 35 36  2  0  0  0  0
  8  9  1  0  0  0  0
  9 17  1  0  0  0  0
  9 10  2  0  0  0  0
 18 19  1  0  0  0  0
 19 33  1  0  0  0  0
 19 20  2  0  0  0  0
 22 23  1  0  0  0  0
 23 24  2  0  0  0  0
 23 25  1  0  0  0  0
 34 37  1  0  0  0  0
  8 11  1  0  0  0  0
 43 44  1  0  0  0  0
 21 22  1  0  0  0  0
 18 21  1  0  0  0  0
 33 34  1  0  0  0  0
  7  8  1  0  0  0  0
 17 18  1  0  0  0  0
  3  4  1  0  0  0  0
  3  5  1  0  0  0  0
  3  6  1  0  0  0  0
 37 40  1  0  0  0  0
 37 41  1  0  0  0  0
 37 42  1  0  0  0  0
 11 14  1  0  0  0  0
 11 15  1  0  0  0  0
 11 16  1  0  0  0  0
 44 46  1  0  0  0  0
 44 47  1  0  0  0  0
 44 48  1  0  0  0  0
 22 30  1  0  0  0  0
 22 31  1  0  0  0  0
 21 28  1  0  0  0  0
 21 29  1  0  0  0  0
 34 39  1  0  0  0  0
  8 13  1  0  0  0  0
 18 27  1  0  0  0  0
 43 45  1  0  0  0  0
  7 12  1  0  0  0  0
 33 38  1  0  0  0  0
 17 26  1  0  0  0  0
 25 32  1  0  0  0  0
M  END
$$$$

  -OEChem-05262214473D

 48 47  0     1  0  0  0  0  0999 V2000
   -5.5827   -1.3473    1.4591 C   0  0  0  0  0  0  0  0  0  0  0  0
   -5.7053   -2.4696    0.9825 O   0  0  0  0  0  0  0  0  0  0  0  0
   -6.7879   -0.6277    1.9670 C   0  0  0  0  0  0  0  0  0  0  0  0
   -7.2718   -0.0164    1.1885 H   0  0  0  0  0  0  0  0  0  0  0  0
   -7.5699   -1.3171    2.3239 H   0  0  0  0  0  0  0  0  0  0  0  0
   -6.6057    0.0628    2.8060 H   0  0  0  0  0  0  0  0  0  0  0  0
   -4.4001   -0.6377    1.5884 N   0  0  0  0  0  0  0  0  0  0  0  0
   -3.1220   -1.1455    1.1644 C   0  0  2  0  0  0  0  0  0  0  0  0
   -2.2017    0.0428    0.9187 C   0  0  0  0  0  0  0  0  0  0  0  0
   -2.6171    1.1750    0.6807 O   0  0  0  0  0  0  0  0  0  0  0  0
   -3.2533   -1.9992   -0.0873 C   0  0  0  0  0  0  0  0  0  0  0  0
   -4.4370    0.2910    2.0047 H   0  0  0  0  0  0  0  0  0  0  0  0
   -2.7302   -1.7467    1.9921 H   0  0  0  0  0  0  0  0  0  0  0  0
   -3.6446   -1.4140   -0.9275 H   0  0  0  0  0  0  0  0  0  0  0  0
   -2.2844   -2.4081   -0.3922 H   0  0  0  0  0  0  0  0  0  0  0  0
   -3.9388   -2.8365    0.0822 H   0  0  0  0  0  0  0  0  0  0  0  0
   -0.8768   -0.3314    0.9568 N   0  0  0  0  0  0  0  0  0  0  0  0
    0.2067    0.6285    0.7375 C   0  0  2  0  0  0  0  0  0  0  0  0
    1.4856   -0.0471    1.2227 C   0  0  0  0  0  0  0  0  0  0  0  0
    2.5390    0.0010    0.5906 O   0  0  0  0  0  0  0  0  0  0  0  0
   -0.0978    1.9221    1.5078 C   0  0  0  0  0  0  0  0  0  0  0  0
   -1.3078    2.6848    0.9686 C   0  0  0  0  0  0  0  0  0  0  0  0
   -1.5880    3.9344    1.7655 C   0  0  0  0  0  0  0  0  0  0  0  0
   -1.0028    4.2284    2.8001 O   0  0  0  0  0  0  0  0  0  0  0  0
   -2.5782    4.6903    1.2302 O   0  0  0  0  0  0  0  0  0  0  0  0
   -0.6087   -1.2764    1.1771 H   0  0  0  0  0  0  0  0  0  0  0  0
    0.2690    0.8408   -0.3349 H   0  0  0  0  0  0  0  0  0  0  0  0
   -0.2710    1.6808    2.5651 H   0  0  0  0  0  0  0  0  0  0  0  0
    0.7705    2.5934    1.4779 H   0  0  0  0  0  0  0  0  0  0  0  0
   -1.1134    3.0032   -0.0629 H   0  0  0  0  0  0  0  0  0  0  0  0
   -2.2006    2.0531    0.9171 H   0  0  0  0  0  0  0  0  0  0  0  0
   -2.8047    5.5039    1.7289 H   0  0  0  0  0  0  0  0  0  0  0  0
    1.3186   -0.6781    2.4466 N   0  0  0  0  0  0  0  0  0  0  0  0
    2.3797   -1.3897    3.1221 C   0  0  2  0  0  0  0  0  0  0  0  0
    2.2790   -2.8599    2.7375 C   0  0  0  0  0  0  0  0  0  0  0  0
    1.2413   -3.3768    2.3288 O   0  0  0  0  0  0  0  0  0  0  0  0
    2.2904   -1.2151    4.6302 C   0  0  0  0  0  0  0  0  0  0  0  0
    0.4057   -0.6380    2.8898 H   0  0  0  0  0  0  0  0  0  0  0  0
    3.3239   -0.9779    2.7494 H   0  0  0  0  0  0  0  0  0  0  0  0
    1.3509   -1.6218    5.0218 H   0  0  0  0  0  0  0  0  0  0  0  0
    3.1114   -1.7312    5.1387 H   0  0  0  0  0  0  0  0  0  0  0  0
    2.3330   -0.1551    4.9029 H   0  0  0  0  0  0  0  0  0  0  0  0
    3.4728   -3.5366    2.9453 N   0  0  0  0  0  0  0  0  0  0  0  0
    3.6288   -4.9454    2.6681 C   0  0  0  0  0  0  0  0  0  0  0  0
    4.2879   -3.0242    3.2690 H   0  0  0  0  0  0  0  0  0  0  0  0
    3.4175   -5.5245    3.5792 H   0  0  0  0  0  0  0  0  0  0  0  0
    2.9279   -5.2426    1.8741 H   0  0  0  0  0  0  0  0  0  0  0  0
    4.6600   -5.1424    2.3395 H   0  0  0  0  0  0  0  0  0  0  0  0
  1  3  1  0  0  0  0
  1  7  1  0  0  0  0
  1  2  2  0  0  0  0
 34 35  1  0  0  0  0
 35 43  1  0  0  0  0
 35 36  2  0  0  0  0
  8  9  1  0  0  0  0
  9 17  1  0  0  0  0
  9 10  2  0  0  0  0
 18 19  1  0  0  0  0
 19 33  1  0  0  0  0
 19 20  2  0  0  0  0
 22 23  1  0  0  0  0
 23 24  2  0  0  0  0
 23 25  1  0  0  0  0
 34 37  1  0  0  0  0
  8 11  1  0  0  0  0
 43 44  1  0  0  0  0
 21 22  1  0  0  0  0
 18 21  1  0  0  0  0
 33 34  1  0  0  0  0
  7  8  1  0  0  0  0
 17 18  1  0  0  0  0
  3  4  1  0  0  0  0
  3  5  1  0  0  0  0
  3  6  1  0  0  0  0
 37 40  1  0  0  0  0
 37 41  1  0  0  0  0
 37 42  1  0  0  0  0
 11 14  1  0  0  0  0
 11 15  1  0  0  0  0
 11 16  1  0  0  0  0
 44 46  1  0  0  0  0
 44 47  1  0  0  0  0
 44 48  1  0  0  0  0
 22 30  1  0  0  0  0
 22 31  1  0  0  0  0
 21 28  1  0  0  0  0
 21 29  1  0  0  0  0
 34 39  1  0  0  0  0
  8 13  1  0  0  0  0
 18 27  1  0  0  0  0
 43 45  1  0  0  0  0
  7 12  1  0  0  0  0
 33 38  1  0  0  0  0
 17 26  1  0  0  0  0
 25 32  1  0  0  0  0
M  END
$$$$

  -OEChem-05262214473D

 48 47  0     1  0  0  0  0  0999 V2000
   -5.5827   -1.3473    1.4591 C   0  0  0  0  0  0  0  0  0  0  0  0
   -5.7053   -2.4696    0.9825 O   0  0  0  0  0  0  0  0  0  0  0  0
   -6.7879   -0.6277    1.9670 C   0  0  0  0  0  0  0  0  0  0  0  0
   -7.2718   -0.0164    1.1885 H   0  0  0  0  0  0  0  0  0  0  0  0
   -7.5699   -1.3171    2.3239 H   0  0  0  0  0  0  0  0  0  0  0  0
   -6.6057    0.0628    2.8060 H   0  0  0  0  0  0  0  0  0  0  0  0
   -4.4001   -0.6377    1.5884 N   0  0  0  0  0  0  0  0  0  0  0  0
   -3.1220   -1.1455    1.1644 C   0  0  2  0  0  0  0  0  0  0  0  0
   -2.2017    0.0428    0.9187 C   0  0  0  0  0  0  0  0  0  0  0  0
   -2.6171    1.1750    0.6807 O   0  0  0  0  0  0  0  0  0  0  0  0
   -3.2533   -1.9992   -0.0873 C   0  0  0  0  0  0  0  0  0  0  0  0
   -4.4370    0.2910    2.0047 H   0  0  0  0  0  0  0  0  0  0  0  0
   -2.7302   -1.7467    1.9921 H   0  0  0  0  0  0  0  0  0  0  0  0
   -3.6446   -1.4140   -0.9275 H   0  0  0  0  0  0  0  0  0  0  0  0
   -2.2844   -2.4081   -0.3922 H   0  0  0  0  0  0  0  0  0  0  0  0
   -3.9388   -2.8365    0.0822 H   0  0  0  0  0  0  0  0  0  0  0  0
   -0.8768   -0.3314    0.9568 N   0  0  0  0  0  0  0  0  0  0  0  0
    0.2067    0.6285    0.7375 C   0  0  2  0  0  0  0  0  0  0  0  0
    1.4856   -0.0471    1.2227 C   0  0  0  0  0  0  0  0  0  0  0  0
    2.5905    0.2132    0.7505 O   0  0  0  0  0  0  0  0  0  0  0  0
   -0.0978    1.9221    1.5078 C   0  0  0  0  0  0  0  0  0  0  0  0
   -1.3078    2.6848    0.9686 C   0  0  0  0  0  0  0  0  0  0  0  0
   -1.5880    3.9344    1.7655 C   0  0  0  0  0  0  0  0  0  0  0  0
   -1.0028    4.2284    2.8001 O   0  0  0  0  0  0  0  0  0  0  0  0
   -2.5782    4.6903    1.2302 O   0  0  0  0  0  0  0  0  0  0  0  0
   -0.6087   -1.2764    1.1771 H   0  0  0  0  0  0  0  0  0  0  0  0
    0.2690    0.8408   -0.3349 H   0  0  0  0  0  0  0  0  0  0  0  0
   -0.2710    1.6808    2.5651 H   0  0  0  0  0  0  0  0  0  0  0  0
    0.7705    2.5934    1.4779 H   0  0  0  0  0  0  0  0  0  0  0  0
   -1.1134    3.0032   -0.0629 H   0  0  0  0  0  0  0  0  0  0  0  0
   -2.2006    2.0531    0.9171 H   0  0  0  0  0  0  0  0  0  0  0  0
   -2.8047    5.5039    1.7289 H   0  0  0  0  0  0  0  0  0  0  0  0
    1.2510   -0.9438    2.2546 N   0  0  0  0  0  0  0  0  0  0  0  0
    2.2976   -1.7119    2.8897 C   0  0  2  0  0  0  0  0  0  0  0  0
    2.3782   -3.0635    2.1925 C   0  0  0  0  0  0  0  0  0  0  0  0
    1.4433   -3.5479    1.5582 O   0  0  0  0  0  0  0  0  0  0  0  0
    2.0335   -1.8827    4.3776 C   0  0  0  0  0  0  0  0  0  0  0  0
    0.2968   -1.0667    2.5798 H   0  0  0  0  0  0  0  0  0  0  0  0
    3.2325   -1.1630    2.7326 H   0  0  0  0  0  0  0  0  0  0  0  0
    1.1008   -2.4305    4.5547 H   0  0  0  0  0  0  0  0  0  0  0  0
    2.8416   -2.4402    4.8626 H   0  0  0  0  0  0  0  0  0  0  0  0
    1.9462   -0.9092    4.8721 H   0  0  0  0  0  0  0  0  0  0  0  0
    3.6022   -3.6846    2.3980 N   0  0  0  0  0  0  0  0  0  0  0  0
    3.9197   -4.9825    1.8497 C   0  0  0  0  0  0  0  0  0  0  0  0
    4.3262   -3.2012    2.9214 H   0  0  0  0  0  0  0  0  0  0  0  0
    3.6694   -5.7625    2.5838 H   0  0  0  0  0  0  0  0  0  0  0  0
    3.3379   -5.1443    0.9303 H   0  0  0  0  0  0  0  0  0  0  0  0
    4.9938   -5.0293    1.6170 H   0  0  0  0  0  0  0  0  0  0  0  0
  1  3  1  0  0  0  0
  1  7  1  0  0  0  0
  1  2  2  0  0  0  0
 34 35  1  0  0  0  0
 35 43  1  0  0  0  0
 35 36  2  0  0  0  0
  8  9  1  0  0  0  0
  9 17  1  0  0  0  0
  9 10  2  0  0  0  0
 18 19  1  0  0  0  0
 19 33  1  0  0  0  0
 19 20  2  0  0  0  0
 22 23  1  0  0  0  0
 23 24  2  0  0  0  0
 23 25  1  0  0  0  0
 34 37  1  0  0  0  0
  8 11  1  0  0  0  0
 43 44  1  0  0  0  0
 21 22  1  0  0  0  0
 18 21  1  0  0  0  0
 33 34  1  0  0  0  0
  7  8  1  0  0  0  0
 17 18  1  0  0  0  0
  3  4  1  0  0  0  0
  3  5  1  0  0  0  0
  3  6  1  0  0  0  0
 37 40  1  0  0  0  0
 37 41  1  0  0  0  0
 37 42  1  0  0  0  0
 11 14  1  0  0  0  0
 11 15  1  0  0  0  0
 11 16  1  0  0  0  0
 44 46  1  0  0  0  0
 44 47  1  0  0  0  0
 44 48  1  0  0  0  0
 22 30  1  0  0  0  0
 22 31  1  0  0  0  0
 21 28  1  0  0  0  0
 21 29  1  0  0  0  0
 34 39  1  0  0  0  0
  8 13  1  0  0  0  0
 18 27  1  0  0  0  0
 43 45  1  0  0  0  0
  7 12  1  0  0  0  0
 33 38  1  0  0  0  0
 17 26  1  0  0  0  0
 25 32  1  0  0  0  0
M  END
$$$$

  -OEChem-05262214473D

 48 47  0     1  0  0  0  0  0999 V2000
   -5.5827   -1.3473    1.4591 C   0  0  0  0  0  0  0  0  0  0  0  0
   -5.7053   -2.4696    0.9825 O   0  0  0  0  0  0  0  0  0  0  0  0
   -6.7879   -0.6277    1.9670 C   0  0  0  0  0  0  0  0  0  0  0  0
   -7.2718   -0.0164    1.1885 H   0  0  0  0  0  0  0  0  0  0  0  0
   -7.5699   -1.3171    2.3239 H   0  0  0  0  0  0  0  0  0  0  0  0
   -6.6057    0.0628    2.8060 H   0  0  0  0  0  0  0  0  0  0  0  0
   -4.4001   -0.6377    1.5884 N   0  0  0  0  0  0  0  0  0  0  0  0
   -3.1220   -1.1455    1.1644 C   0  0  2  0  0  0  0  0  0  0  0  0
   -2.2017    0.0428    0.9187 C   0  0  0  0  0  0  0  0  0  0  0  0
   -2.6171    1.1750    0.6807 O   0  0  0  0  0  0  0  0  0  0  0  0
   -3.2533   -1.9992   -0.0873 C   0  0  0  0  0  0  0  0  0  0  0  0
   -4.4370    0.2910    2.0047 H   0  0  0  0  0  0  0  0  0  0  0  0
   -2.7302   -1.7467    1.9921 H   0  0  0  0  0  0  0  0  0  0  0  0
   -3.6446   -1.4140   -0.9275 H   0  0  0  0  0  0  0  0  0  0  0  0
   -2.2844   -2.4081   -0.3922 H   0  0  0  0  0  0  0  0  0  0  0  0
   -3.9388   -2.8365    0.0822 H   0  0  0  0  0  0  0  0  0  0  0  0
   -0.8768   -0.3314    0.9568 N   0  0  0  0  0  0  0  0  0  0  0  0
    0.2067    0.6285    0.7375 C   0  0  2  0  0  0  0  0  0  0  0  0
    1.4856   -0.0471    1.2227 C   0  0  0  0  0  0  0  0  0  0  0  0
    2.6044    0.3878    0.9569 O   0  0  0  0  0  0  0  0  0  0  0  0
   -0.0978    1.9221    1.5078 C   0  0  0  0  0  0  0  0  0  0  0  0
   -1.3078    2.6848    0.9686 C   0  0  0  0  0  0  0  0  0  0  0  0
   -1.5880    3.9344    1.7655 C   0  0  0  0  0  0  0  0  0  0  0  0
   -1.0028    4.2284    2.8001 O   0  0  0  0  0  0  0  0  0  0  0  0
   -2.5782    4.6903    1.2302 O   0  0  0  0  0  0  0  0  0  0  0  0
   -0.6087   -1.2764    1.1771 H   0  0  0  0  0  0  0  0  0  0  0  0
    0.2690    0.8408   -0.3349 H   0  0  0  0  0  0  0  0  0  0  0  0
   -0.2710    1.6808    2.5651 H   0  0  0  0  0  0  0  0  0  0  0  0
    0.7705    2.5934    1.4779 H   0  0  0  0  0  0  0  0  0  0  0  0
   -1.1134    3.0032   -0.0629 H   0  0  0  0  0  0  0  0  0  0  0  0
   -2.2006    2.0531    0.9171 H   0  0  0  0  0  0  0  0  0  0  0  0
   -2.8047    5.5039    1.7289 H   0  0  0  0  0  0  0  0  0  0  0  0
    1.2297   -1.1645    2.0037 N   0  0  0  0  0  0  0  0  0  0  0  0
    2.2716   -1.9794    2.5859 C   0  0  2  0  0  0  0  0  0  0  0  0
    2.5533   -3.1338    1.6332 C   0  0  0  0  0  0  0  0  0  0  0  0
    1.7407   -3.5294    0.8000 O   0  0  0  0  0  0  0  0  0  0  0  0
    1.8693   -2.4939    3.9593 C   0  0  0  0  0  0  0  0  0  0  0  0
    0.2625   -1.4226    2.1749 H   0  0  0  0  0  0  0  0  0  0  0  0
    3.1614   -1.3456    2.6657 H   0  0  0  0  0  0  0  0  0  0  0  0
    0.9794   -3.1310    3.8994 H   0  0  0  0  0  0  0  0  0  0  0  0
    2.6709   -3.0874    4.4111 H   0  0  0  0  0  0  0  0  0  0  0  0
    1.6383   -1.6629    4.6344 H   0  0  0  0  0  0  0  0  0  0  0  0
    3.8022   -3.6982    1.8521 N   0  0  0  0  0  0  0  0  0  0  0  0
    4.2976   -4.8168    1.0845 C   0  0  0  0  0  0  0  0  0  0  0  0
    4.4177   -3.2936    2.5515 H   0  0  0  0  0  0  0  0  0  0  0  0
    4.0464   -5.7557    1.5997 H   0  0  0  0  0  0  0  0  0  0  0  0
    3.8341   -4.8108    0.0869 H   0  0  0  0  0  0  0  0  0  0  0  0
    5.3898   -4.7359    0.9818 H   0  0  0  0  0  0  0  0  0  0  0  0
  1  3  1  0  0  0  0
  1  7  1  0  0  0  0
  1  2  2  0  0  0  0
 34 35  1  0  0  0  0
 35 43  1  0  0  0  0
 35 36  2  0  0  0  0
  8  9  1  0  0  0  0
  9 17  1  0  0  0  0
  9 10  2  0  0  0  0
 18 19  1  0  0  0  0
 19 33  1  0  0  0  0
 19 20  2  0  0  0  0
 22 23  1  0  0  0  0
 23 24  2  0  0  0  0
 23 25  1  0  0  0  0
 34 37  1  0  0  0  0
  8 11  1  0  0  0  0
 43 44  1  0  0  0  0
 21 22  1  0  0  0  0
 18 21  1  0  0  0  0
 33 34  1  0  0  0  0
  7  8  1  0  0  0  0
 17 18  1  0  0  0  0
  3  4  1  0  0  0  0
  3  5  1  0  0  0  0
  3  6  1  0  0  0  0
 37 40  1  0  0  0  0
 37 41  1  0  0  0  0
 37 42  1  0  0  0  0
 11 14  1  0  0  0  0
 11 15  1  0  0  0  0
 11 16  1  0  0  0  0
 44 46  1  0  0  0  0
 44 47  1  0  0  0  0
 44 48  1  0  0  0  0
 22 30  1  0  0  0  0
 22 31  1  0  0  0  0
 21 28  1  0  0  0  0
 21 29  1  0  0  0  0
 34 39  1  0  0  0  0
  8 13  1  0  0  0  0
 18 27  1  0  0  0  0
 43 45  1  0  0  0  0
  7 12  1  0  0  0  0
 33 38  1  0  0  0  0
 17 26  1  0  0  0  0
 25 32  1  0  0  0  0
M  END
$$$$

  -OEChem-05262214473D

 48 47  0     1  0  0  0  0  0999 V2000
   -5.5827   -1.3473    1.4591 C   0  0  0  0  0  0  0  0  0  0  0  0
   -5.7053   -2.4696    0.9825 O   0  0  0  0  0  0  0  0  0  0  0  0
   -6.7879   -0.6277    1.9670 C   0  0  0  0  0  0  0  0  0  0  0  0
   -7.2718   -0.0164    1.1885 H   0  0  0  0  0  0  0  0  0  0  0  0
   -7.5699   -1.3171    2.3239 H   0  0  0  0  0  0  0  0  0  0  0  0
   -6.6057    0.0628    2.8060 H   0  0  0  0  0  0  0  0  0  0  0  0
   -4.4001   -0.6377    1.5884 N   0  0  0  0  0  0  0  0  0  0  0  0
   -3.1220   -1.1455    1.1644 C   0  0  2  0  0  0  0  0  0  0  0  0
   -2.2017    0.0428    0.9187 C   0  0  0  0  0  0  0  0  0  0  0  0
   -2.6171    1.1750    0.6807 O   0  0  0  0  0  0  0  0  0  0  0  0
   -3.2533   -1.9992   -0.0873 C   0  0  0  0  0  0  0  0  0  0  0  0
   -4.4370    0.2910    2.0047 H   0  0  0  0  0  0  0  0  0  0  0  0
   -2.7302   -1.7467    1.9921 H   0  0  0  0  0  0  0  0  0  0  0  0
   -3.6446   -1.4140   -0.9275 H   0  0  0  0  0  0  0  0  0  0  0  0
   -2.2844   -2.4081   -0.3922 H   0  0  0  0  0  0  0  0  0  0  0  0
   -3.9388   -2.8365    0.0822 H   0  0  0  0  0  0  0  0  0  0  0  0
   -0.8768   -0.3314    0.9568 N   0  0  0  0  0  0  0  0  0  0  0  0
    0.2067    0.6285    0.7375 C   0  0  2  0  0  0  0  0  0  0  0  0
    1.4856   -0.0471    1.2227 C   0  0  0  0  0  0  0  0  0  0  0  0
    2.5798    0.5127    1.1957 O   0  0  0  0  0  0  0  0  0  0  0  0
   -0.0978    1.9221    1.5078 C   0  0  0  0  0  0  0  0  0  0  0  0
   -1.3078    2.6848    0.9686 C   0  0  0  0  0  0  0  0  0  0  0  0
   -1.5880    3.9344    1.7655 C   0  0  0  0  0  0  0  0  0  0  0  0
   -1.0028    4.2284    2.8001 O   0  0  0  0  0  0  0  0  0  0  0  0
   -2.5782    4.6903    1.2302 O   0  0  0  0  0  0  0  0  0  0  0  0
   -0.6087   -1.2764    1.1771 H   0  0  0  0  0  0  0  0  0  0  0  0
    0.2690    0.8408   -0.3349 H   0  0  0  0  0  0  0  0  0  0  0  0
   -0.2710    1.6808    2.5651 H   0  0  0  0  0  0  0  0  0  0  0  0
    0.7705    2.5934    1.4779 H   0  0  0  0  0  0  0  0  0  0  0  0
   -1.1134    3.0032   -0.0629 H   0  0  0  0  0  0  0  0  0  0  0  0
   -2.2006    2.0531    0.9171 H   0  0  0  0  0  0  0  0  0  0  0  0
   -2.8047    5.5039    1.7289 H   0  0  0  0  0  0  0  0  0  0  0  0
    1.2559   -1.3249    1.7111 N   0  0  0  0  0  0  0  0  0  0  0  0
    2.3032   -2.1740    2.2314 C   0  0  2  0  0  0  0  0  0  0  0  0
    2.7923   -3.0659    1.0978 C   0  0  0  0  0  0  0  0  0  0  0  0
    2.1134   -3.3225    0.1056 O   0  0  0  0  0  0  0  0  0  0  0  0
    1.8090   -3.0070    3.4038 C   0  0  0  0  0  0  0  0  0  0  0  0
    0.3050   -1.6812    1.7026 H   0  0  0  0  0  0  0  0  0  0  0  0
    3.1155   -1.5133    2.5533 H   0  0  0  0  0  0  0  0  0  0  0  0
    0.9949   -3.6754    3.1005 H   0  0  0  0  0  0  0  0  0  0  0  0
    2.6111   -3.6287    3.8150 H   0  0  0  0  0  0  0  0  0  0  0  0
    1.4301   -2.3646    4.2060 H   0  0  0  0  0  0  0  0  0  0  0  0
    4.0590   -3.5764    1.3447 N   0  0  0  0  0  0  0  0  0  0  0  0
    4.7366   -4.4596    0.4246 C   0  0  0  0  0  0  0  0  0  0  0  0
    4.5560   -3.2951    2.1848 H   0  0  0  0  0  0  0  0  0  0  0  0
    4.5227   -5.5045    0.6938 H   0  0  0  0  0  0  0  0  0  0  0  0
    4.3825   -4.2648   -0.5985 H   0  0  0  0  0  0  0  0  0  0  0  0
    5.8209   -4.2821    0.4773 H   0  0  0  0  0  0  0  0  0  0  0  0
  1  3  1  0  0  0  0
  1  7  1  0  0  0  0
  1  2  2  0  0  0  0
 34 35  1  0  0  0  0
 35 43  1  0  0  0  0
 35 36  2  0  0  0  0
  8  9  1  0  0  0  0
  9 17  1  0  0  0  0
  9 10  2  0  0  0  0
 18 19  1  0  0  0  0
 19 33  1  0  0  0  0
 19 20  2  0  0  0  0
 22 23  1  0  0  0  0
 23 24  2  0  0  0  0
 23 25  1  0  0  0  0
 34 37  1  0  0  0  0
  8 11  1  0  0  0  0
 43 44  1  0  0  0  0
 21 22  1  0  0  0  0
 18 21  1  0  0  0  0
 33 34  1  0  0  0  0
  7  8  1  0  0  0  0
 17 18  1  0  0  0  0
  3  4  1  0  0  0  0
  3  5  1  0  0  0  0
  3  6  1  0  0  0  0
 37 40  1  0  0  0  0
 37 41  1  0  0  0  0
 37 42  1  0  0  0  0
 11 14  1  0  0  0  0
 11 15  1  0  0  0  0
 11 16  1  0  0  0  0
 44 46  1  0  0  0  0
 44 47  1  0  0  0  0
 44 48  1  0  0  0  0
 22 30  1  0  0  0  0
 22 31  1  0  0  0  0
 21 28  1  0  0  0  0
 21 29  1  0  0  0  0
 34 39  1  0  0  0  0
  8 13  1  0  0  0  0
 18 27  1  0  0  0  0
 43 45  1  0  0  0  0
  7 12  1  0  0  0  0
 33 38  1  0  0  0  0
 17 26  1  0  0  0  0
 25 32  1  0  0  0  0
M  END
$$$$

  -OEChem-05262214473D

 48 47  0     1  0  0  0  0  0999 V2000
   -5.5827   -1.3473    1.4591 C   0  0  0  0  0  0  0  0  0  0  0  0
   -5.7053   -2.4696    0.9825 O   0  0  0  0  0  0  0  0  0  0  0  0
   -6.7879   -0.6277    1.9670 C   0  0  0  0  0  0  0  0  0  0  0  0
   -7.2718   -0.0164    1.1885 H   0  0  0  0  0  0  0  0  0  0  0  0
   -7.5699   -1.3171    2.3239 H   0  0  0  0  0  0  0  0  0  0  0  0
   -6.6057    0.0628    2.8060 H   0  0  0  0  0  0  0  0  0  0  0  0
   -4.4001   -0.6377    1.5884 N   0  0  0  0  0  0  0  0  0  0  0  0
   -3.1220   -1.1455    1.1644 C   0  0  2  0  0  0  0  0  0  0  0  0
   -2.2017    0.0428    0.9187 C   0  0  0  0  0  0  0  0  0  0  0  0
   -2.6171    1.1750    0.6807 O   0  0  0  0  0  0  0  0  0  0  0  0
   -3.2533   -1.9992   -0.0873 C   0  0  0  0  0  0  0  0  0  0  0  0
   -4.4370    0.2910    2.0047 H   0  0  0  0  0  0  0  0  0  0  0  0
   -2.7302   -1.7467    1.9921 H   0  0  0  0  0  0  0  0  0  0  0  0
   -3.6446   -1.4140   -0.9275 H   0  0  0  0  0  0  0  0  0  0  0  0
   -2.2844   -2.4081   -0.3922 H   0  0  0  0  0  0  0  0  0  0  0  0
   -3.9388   -2.8365    0.0822 H   0  0  0  0  0  0  0  0  0  0  0  0
   -0.8768   -0.3314    0.9568 N   0  0  0  0  0  0  0  0  0  0  0  0
    0.2067    0.6285    0.7375 C   0  0  2  0  0  0  0  0  0  0  0  0
    1.4856   -0.0471    1.2227 C   0  0  0  0  0  0  0  0  0  0  0  0
    2.5184    0.5796    1.4507 O   0  0  0  0  0  0  0  0  0  0  0  0
   -0.0978    1.9221    1.5078 C   0  0  0  0  0  0  0  0  0  0  0  0
   -1.3078    2.6848    0.9686 C   0  0  0  0  0  0  0  0  0  0  0  0
   -1.5880    3.9344    1.7655 C   0  0  0  0  0  0  0  0  0  0  0  0
   -1.0028    4.2284    2.8001 O   0  0  0  0  0  0  0  0  0  0  0  0
   -2.5782    4.6903    1.2302 O   0  0  0  0  0  0  0  0  0  0  0  0
   -0.6087   -1.2764    1.1771 H   0  0  0  0  0  0  0  0  0  0  0  0
    0.2690    0.8408   -0.3349 H   0  0  0  0  0  0  0  0  0  0  0  0
   -0.2710    1.6808    2.5651 H   0  0  0  0  0  0  0  0  0  0  0  0
    0.7705    2.5934    1.4779 H   0  0  0  0  0  0  0  0  0  0  0  0
   -1.1134    3.0032   -0.0629 H   0  0  0  0  0  0  0  0  0  0  0  0
   -2.2006    2.0531    0.9171 H   0  0  0  0  0  0  0  0  0  0  0  0
   -2.8047    5.5039    1.7289 H   0  0  0  0  0  0  0  0  0  0  0  0
    1.3281   -1.4142    1.3966 N   0  0  0  0  0  0  0  0  0  0  0  0
    2.3905   -2.2825    1.8504 C   0  0  2  0  0  0  0  0  0  0  0  0
    3.0789   -2.8645    0.6228 C   0  0  0  0  0  0  0  0  0  0  0  0
    2.5360   -2.9413   -0.4774 O   0  0  0  0  0  0  0  0  0  0  0  0
    1.8566   -3.3871    2.7490 C   0  0  0  0  0  0  0  0  0  0  0  0
    0.4215   -1.8251    1.1951 H   0  0  0  0  0  0  0  0  0  0  0  0
    3.0978   -1.6547    2.4031 H   0  0  0  0  0  0  0  0  0  0  0  0
    1.1462   -4.0266    2.2125 H   0  0  0  0  0  0  0  0  0  0  0  0
    2.6663   -4.0270    3.1149 H   0  0  0  0  0  0  0  0  0  0  0  0
    1.3359   -2.9666    3.6161 H   0  0  0  0  0  0  0  0  0  0  0  0
    4.3552   -3.3275    0.9106 N   0  0  0  0  0  0  0  0  0  0  0  0
    5.2069   -3.9353   -0.0850 C   0  0  0  0  0  0  0  0  0  0  0  0
    4.7318   -3.2056    1.8460 H   0  0  0  0  0  0  0  0  0  0  0  0
    5.0660   -5.0262   -0.0722 H   0  0  0  0  0  0  0  0  0  0  0  0
    4.9459   -3.5436   -1.0792 H   0  0  0  0  0  0  0  0  0  0  0  0
    6.2578   -3.6988    0.1379 H   0  0  0  0  0  0  0  0  0  0  0  0
  1  3  1  0  0  0  0
  1  7  1  0  0  0  0
  1  2  2  0  0  0  0
 34 35  1  0  0  0  0
 35 43  1  0  0  0  0
 35 36  2  0  0  0  0
  8  9  1  0  0  0  0
  9 17  1  0  0  0  0
  9 10  2  0  0  0  0
 18 19  1  0  0  0  0
 19 33  1  0  0  0  0
 19 20  2  0  0  0  0
 22 23  1  0  0  0  0
 23 24  2  0  0  0  0
 23 25  1  0  0  0  0
 34 37  1  0  0  0  0
  8 11  1  0  0  0  0
 43 44  1  0  0  0  0
 21 22  1  0  0  0  0
 18 21  1  0  0  0  0
 33 34  1  0  0  0  0
  7  8  1  0  0  0  0
 17 18  1  0  0  0  0
  3  4  1  0  0  0  0
  3  5  1  0  0  0  0
  3  6  1  0  0  0  0
 37 40  1  0  0  0  0
 37 41  1  0  0  0  0
 37 42  1  0  0  0  0
 11 14  1  0  0  0  0
 11 15  1  0  0  0  0
 11 16  1  0  0  0  0
 44 46  1  0  0  0  0
 44 47  1  0  0  0  0
 44 48  1  0  0  0  0
 22 30  1  0  0  0  0
 22 31  1  0  0  0  0
 21 28  1  0  0  0  0
 21 29  1  0  0  0  0
 34 39  1  0  0  0  0
  8 13  1  0  0  0  0
 18 27  1  0  0  0  0
 43 45  1  0  0  0  0
  7 12  1  0  0  0  0
 33 38  1  0  0  0  0
 17 26  1  0  0  0  0
 25 32  1  0  0  0  0
M  END
$$$$

  -OEChem-05262214473D

 48 47  0     1  0  0  0  0  0999 V2000
   -5.5827   -1.3473    1.4591 C   0  0  0  0  0  0  0  0  0  0  0  0
   -5.7053   -2.4696    0.9825 O   0  0  0  0  0  0  0  0  0  0  0  0
   -6.7879   -0.6277    1.9670 C   0  0  0  0  0  0  0  0  0  0  0  0
   -7.2718   -0.0164    1.1885 H   0  0  0  0  0  0  0  0  0  0  0  0
   -7.5699   -1.3171    2.3239 H   0  0  0  0  0  0  0  0  0  0  0  0
   -6.6057    0.0628    2.8060 H   0  0  0  0  0  0  0  0  0  0  0  0
   -4.4001   -0.6377    1.5884 N   0  0  0  0  0  0  0  0  0  0  0  0
   -3.1220   -1.1455    1.1644 C   0  0  2  0  0  0  0  0  0  0  0  0
   -2.2017    0.0428    0.9187 C   0  0  0  0  0  0  0  0  0  0  0  0
   -2.6171    1.1750    0.6807 O   0  0  0  0  0  0  0  0  0  0  0  0
   -3.2533   -1.9992   -0.0873 C   0  0  0  0  0  0  0  0  0  0  0  0
   -4.4370    0.2910    2.0047 H   0  0  0  0  0  0  0  0  0  0  0  0
   -2.7302   -1.7467    1.9921 H   0  0  0  0  0  0  0  0  0  0  0  0
   -3.6446   -1.4140   -0.9275 H   0  0  0  0  0  0  0  0  0  0  0  0
   -2.2844   -2.4081   -0.3922 H   0  0  0  0  0  0  0  0  0  0  0  0
   -3.9388   -2.8365    0.0822 H   0  0  0  0  0  0  0  0  0  0  0  0
   -0.8768   -0.3314    0.9568 N   0  0  0  0  0  0  0  0  0  0  0  0
    0.2067    0.6285    0.7375 C   0  0  2  0  0  0  0  0  0  0  0  0
    1.4856   -0.0471    1.2227 C   0  0  0  0  0  0  0  0  0  0  0  0
    2.4244    0.5838    1.7044 O   0  0  0  0  0  0  0  0  0  0  0  0
   -0.0978    1.9221    1.5078 C   0  0  0  0  0  0  0  0  0  0  0  0
   -1.3078    2.6848    0.9686 C   0  0  0  0  0  0  0  0  0  0  0  0
   -1.5880    3.9344    1.7655 C   0  0  0  0  0  0  0  0  0  0  0  0
   -1.0028    4.2284    2.8001 O   0  0  0  0  0  0  0  0  0  0  0  0
   -2.5782    4.6903    1.2302 O   0  0  0  0  0  0  0  0  0  0  0  0
   -0.6087   -1.2764    1.1771 H   0  0  0  0  0  0  0  0  0  0  0  0
    0.2690    0.8408   -0.3349 H   0  0  0  0  0  0  0  0  0  0  0  0
   -0.2710    1.6808    2.5651 H   0  0  0  0  0  0  0  0  0  0  0  0
    0.7705    2.5934    1.4779 H   0  0  0  0  0  0  0  0  0  0  0  0
   -1.1134    3.0032   -0.0629 H   0  0  0  0  0  0  0  0  0  0  0  0
   -2.2006    2.0531    0.9171 H   0  0  0  0  0  0  0  0  0  0  0  0
   -2.8047    5.5039    1.7289 H   0  0  0  0  0  0  0  0  0  0  0  0
    1.4411   -1.4263    1.0817 N   0  0  0  0  0  0  0  0  0  0  0  0
    2.5273   -2.2974    1.4688 C   0  0  2  0  0  0  0  0  0  0  0  0
    3.3936   -2.5433    0.2405 C   0  0  0  0  0  0  0  0  0  0  0  0
    2.9796   -2.4119   -0.9095 O   0  0  0  0  0  0  0  0  0  0  0  0
    2.0089   -3.6083    2.0395 C   0  0  0  0  0  0  0  0  0  0  0  0
    0.6040   -1.8445    0.6871 H   0  0  0  0  0  0  0  0  0  0  0  0
    3.1095   -1.7601    2.2253 H   0  0  0  0  0  0  0  0  0  0  0  0
    1.4231   -4.1608    1.2959 H   0  0  0  0  0  0  0  0  0  0  0  0
    2.8325   -4.2554    2.3586 H   0  0  0  0  0  0  0  0  0  0  0  0
    1.3620   -3.4278    2.9049 H   0  0  0  0  0  0  0  0  0  0  0  0
    4.6706   -2.9685    0.5791 N   0  0  0  0  0  0  0  0  0  0  0  0
    5.6765   -3.2796   -0.4095 C   0  0  0  0  0  0  0  0  0  0  0  0
    4.9331   -3.0312    1.5583 H   0  0  0  0  0  0  0  0  0  0  0  0
    5.6393   -4.3532   -0.6460 H   0  0  0  0  0  0  0  0  0  0  0  0
    5.4858   -2.6963   -1.3225 H   0  0  0  0  0  0  0  0  0  0  0  0
    6.6707   -3.0258   -0.0133 H   0  0  0  0  0  0  0  0  0  0  0  0
  1  3  1  0  0  0  0
  1  7  1  0  0  0  0
  1  2  2  0  0  0  0
 34 35  1  0  0  0  0
 35 43  1  0  0  0  0
 35 36  2  0  0  0  0
  8  9  1  0  0  0  0
  9 17  1  0  0  0  0
  9 10  2  0  0  0  0
 18 19  1  0  0  0  0
 19 33  1  0  0  0  0
 19 20  2  0  0  0  0
 22 23  1  0  0  0  0
 23 24  2  0  0  0  0
 23 25  1  0  0  0  0
 34 37  1  0  0  0  0
  8 11  1  0  0  0  0
 43 44  1  0  0  0  0
 21 22  1  0  0  0  0
 18 21  1  0  0  0  0
 33 34  1  0  0  0  0
  7  8  1  0  0  0  0
 17 18  1  0  0  0  0
  3  4  1  0  0  0  0
  3  5  1  0  0  0  0
  3  6  1  0  0  0  0
 37 40  1  0  0  0  0
 37 41  1  0  0  0  0
 37 42  1  0  0  0  0
 11 14  1  0  0  0  0
 11 15  1  0  0  0  0
 11 16  1  0  0  0  0
 44 46  1  0  0  0  0
 44 47  1  0  0  0  0
 44 48  1  0  0  0  0
 22 30  1  0  0  0  0
 22 31  1  0  0  0  0
 21 28  1  0  0  0  0
 21 29  1  0  0  0  0
 34 39  1  0  0  0  0
  8 13  1  0  0  0  0
 18 27  1  0  0  0  0
 43 45  1  0  0  0  0
  7 12  1  0  0  0  0
 33 38  1  0  0  0  0
 17 26  1  0  0  0  0
 25 32  1  0  0  0  0
M  END
$$$$

  -OEChem-05262214473D

 48 47  0     1  0  0  0  0  0999 V2000
   -5.5827   -1.3473    1.4591 C   0  0  0  0  0  0  0  0  0  0  0  0
   -5.7053   -2.4696    0.9825 O   0  0  0  0  0  0  0  0  0  0  0  0
   -6.7879   -0.6277    1.9670 C   0  0  0  0  0  0  0  0  0  0  0  0
   -7.2718   -0.0164    1.1885 H   0  0  0  0  0  0  0  0  0  0  0  0
   -7.5699   -1.3171    2.3239 H   0  0  0  0  0  0  0  0  0  0  0  0
   -6.6057    0.0628    2.8060 H   0  0  0  0  0  0  0  0  0  0  0  0
   -4.4001   -0.6377    1.5884 N   0  0  0  0  0  0  0  0  0  0  0  0
   -3.1220   -1.1455    1.1644 C   0  0  2  0  0  0  0  0  0  0  0  0
   -2.2017    0.0428    0.9187 C   0  0  0  0  0  0  0  0  0  0  0  0
   -2.6171    1.1750    0.6807 O   0  0  0  0  0  0  0  0  0  0  0  0
   -3.2533   -1.9992   -0.0873 C   0  0  0  0  0  0  0  0  0  0  0  0
   -4.4370    0.2910    2.0047 H   0  0  0  0  0  0  0  0  0  0  0  0
   -2.7302   -1.7467    1.9921 H   0  0  0  0  0  0  0  0  0  0  0  0
   -3.6446   -1.4140   -0.9275 H   0  0  0  0  0  0  0  0  0  0  0  0
   -2.2844   -2.4081   -0.3922 H   0  0  0  0  0  0  0  0  0  0  0  0
   -3.9388   -2.8365    0.0822 H   0  0  0  0  0  0  0  0  0  0  0  0
   -0.8768   -0.3314    0.9568 N   0  0  0  0  0  0  0  0  0  0  0  0
    0.2067    0.6285    0.7375 C   0  0  2  0  0  0  0  0  0  0  0  0
    1.4856   -0.0471    1.2227 C   0  0  0  0  0  0  0  0  0  0  0  0
    2.3041    0.5251    1.9397 O   0  0  0  0  0  0  0  0  0  0  0  0
   -0.0978    1.9221    1.5078 C   0  0  0  0  0  0  0  0  0  0  0  0
   -1.3078    2.6848    0.9686 C   0  0  0  0  0  0  0  0  0  0  0  0
   -1.5880    3.9344    1.7655 C   0  0  0  0  0  0  0  0  0  0  0  0
   -1.0028    4.2284    2.8001 O   0  0  0  0  0  0  0  0  0  0  0  0
   -2.5782    4.6903    1.2302 O   0  0  0  0  0  0  0  0  0  0  0  0
   -0.6087   -1.2764    1.1771 H   0  0  0  0  0  0  0  0  0  0  0  0
    0.2690    0.8408   -0.3349 H   0  0  0  0  0  0  0  0  0  0  0  0
   -0.2710    1.6808    2.5651 H   0  0  0  0  0  0  0  0  0  0  0  0
    0.7705    2.5934    1.4779 H   0  0  0  0  0  0  0  0  0  0  0  0
   -1.1134    3.0032   -0.0629 H   0  0  0  0  0  0  0  0  0  0  0  0
   -2.2006    2.0531    0.9171 H   0  0  0  0  0  0  0  0  0  0  0  0
   -2.8047    5.5039    1.7289 H   0  0  0  0  0  0  0  0  0  0  0  0
    1.5874   -1.3603    0.7879 N   0  0  0  0  0  0  0  0  0  0  0  0
    2.7045   -2.2178    1.1127 C   0  0  2  0  0  0  0  0  0  0  0  0
    3.7149   -2.1242   -0.0230 C   0  0  0  0  0  0  0  0  0  0  0  0
    3.4141   -1.7702   -1.1611 O   0  0  0  0  0  0  0  0  0  0  0  0
    2.2556   -3.6554    1.3237 C   0  0  0  0  0  0  0  0  0  0  0  0
    0.8402   -1.7379    0.2131 H   0  0  0  0  0  0  0  0  0  0  0  0
    3.1499   -1.8224    2.0321 H   0  0  0  0  0  0  0  0  0  0  0  0
    1.8066   -4.0687    0.4131 H   0  0  0  0  0  0  0  0  0  0  0  0
    3.0986   -4.2982    1.5976 H   0  0  0  0  0  0  0  0  0  0  0  0
    1.5068   -3.7168    2.1208 H   0  0  0  0  0  0  0  0  0  0  0  0
    4.9837   -2.5239    0.3730 N   0  0  0  0  0  0  0  0  0  0  0  0
    6.1132   -2.5371   -0.5269 C   0  0  0  0  0  0  0  0  0  0  0  0
    5.1461   -2.7838    1.3414 H   0  0  0  0  0  0  0  0  0  0  0  0
    6.2033   -3.5315   -0.9886 H   0  0  0  0  0  0  0  0  0  0  0  0
    5.9655   -1.7807   -1.3118 H   0  0  0  0  0  0  0  0  0  0  0  0
    7.0315   -2.3089    0.0341 H   0  0  0  0  0  0  0  0  0  0  0  0
  1  3  1  0  0  0  0
  1  7  1  0  0  0  0
  1  2  2  0  0  0  0
 34 35  1  0  0  0  0
 35 43  1  0  0  0  0
 35 36  2  0  0  0  0
  8  9  1  0  0  0  0
  9 17  1  0  0  0  0
  9 10  2  0  0  0  0
 18 19  1  0  0  0  0
 19 33  1  0  0  0  0
 19 20  2  0  0  0  0
 22 23  1  0  0  0  0
 23 24  2  0  0  0  0
 23 25  1  0  0  0  0
 34 37  1  0  0  0  0
  8 11  1  0  0  0  0
 43 44  1  0  0  0  0
 21 22  1  0  0  0  0
 18 21  1  0  0  0  0
 33 34  1  0  0  0  0
  7  8  1  0  0  0  0
 17 18  1  0  0  0  0
  3  4  1  0  0  0  0
  3  5  1  0  0  0  0
  3  6  1  0  0  0  0
 37 40  1  0  0  0  0
 37 41  1  0  0  0  0
 37 42  1  0  0  0  0
 11 14  1  0  0  0  0
 11 15  1  0  0  0  0
 11 16  1  0  0  0  0
 44 46  1  0  0  0  0
 44 47  1  0  0  0  0
 44 48  1  0  0  0  0
 22 30  1  0  0  0  0
 22 31  1  0  0  0  0
 21 28  1  0  0  0  0
 21 29  1  0  0  0  0
 34 39  1  0  0  0  0
  8 13  1  0  0  0  0
 18 27  1  0  0  0  0
 43 45  1  0  0  0  0
  7 12  1  0  0  0  0
 33 38  1  0  0  0  0
 17 26  1  0  0  0  0
 25 32  1  0  0  0  0
M  END
$$$$

  -OEChem-05262214473D

 48 47  0     1  0  0  0  0  0999 V2000
   -5.5827   -1.3473    1.4591 C   0  0  0  0  0  0  0  0  0  0  0  0
   -5.7053   -2.4696    0.9825 O   0  0  0  0  0  0  0  0  0  0  0  0
   -6.7879   -0.6277    1.9670 C   0  0  0  0  0  0  0  0  0  0  0  0
   -7.2718   -0.0164    1.1885 H   0  0  0  0  0  0  0  0  0  0  0  0
   -7.5699   -1.3171    2.3239 H   0  0  0  0  0  0  0  0  0  0  0  0
   -6.6057    0.0628    2.8060 H   0  0  0  0  0  0  0  0  0  0  0  0
   -4.4001   -0.6377    1.5884 N   0  0  0  0  0  0  0  0  0  0  0  0
   -3.1220   -1.1455    1.1644 C   0  0  2  0  0  0  0  0  0  0  0  0
   -2.2017    0.0428    0.9187 C   0  0  0  0  0  0  0  0  0  0  0  0
   -2.6171    1.1750    0.6807 O   0  0  0  0  0  0  0  0  0  0  0  0
   -3.2533   -1.9992   -0.0873 C   0  0  0  0  0  0  0  0  0  0  0  0
   -4.4370    0.2910    2.0047 H   0  0  0  0  0  0  0  0  0  0  0  0
   -2.7302   -1.7467    1.9921 H   0  0  0  0  0  0  0  0  0  0  0  0
   -3.6446   -1.4140   -0.9275 H   0  0  0  0  0  0  0  0  0  0  0  0
   -2.2844   -2.4081   -0.3922 H   0  0  0  0  0  0  0  0  0  0  0  0
   -3.9388   -2.8365    0.0822 H   0  0  0  0  0  0  0  0  0  0  0  0
   -0.8768   -0.3314    0.9568 N   0  0  0  0  0  0  0  0  0  0  0  0
    0.2067    0.6285    0.7375 C   0  0  2  0  0  0  0  0  0  0  0  0
    1.4856   -0.0471    1.2227 C   0  0  0  0  0  0  0  0  0  0  0  0
    2.1658    0.4075    2.1404 O   0  0  0  0  0  0  0  0  0  0  0  0
   -0.0978    1.9221    1.5078 C   0  0  0  0  0  0  0  0  0  0  0  0
   -1.3078    2.6848    0.9686 C   0  0  0  0  0  0  0  0  0  0  0  0
   -1.5880    3.9344    1.7655 C   0  0  0  0  0  0  0  0  0  0  0  0
   -1.0028    4.2284    2.8001 O   0  0  0  0  0  0  0  0  0  0  0  0
   -2.5782    4.6903    1.2302 O   0  0  0  0  0  0  0  0  0  0  0  0
   -0.6087   -1.2764    1.1771 H   0  0  0  0  0  0  0  0  0  0  0  0
    0.2690    0.8408   -0.3349 H   0  0  0  0  0  0  0  0  0  0  0  0
   -0.2710    1.6808    2.5651 H   0  0  0  0  0  0  0  0  0  0  0  0
    0.7705    2.5934    1.4779 H   0  0  0  0  0  0  0  0  0  0  0  0
   -1.1134    3.0032   -0.0629 H   0  0  0  0  0  0  0  0  0  0  0  0
   -2.2006    2.0531    0.9171 H   0  0  0  0  0  0  0  0  0  0  0  0
   -2.8047    5.5039    1.7289 H   0  0  0  0  0  0  0  0  0  0  0  0
    1.7570   -1.2209    0.5352 N   0  0  0  0  0  0  0  0  0  0  0  0
    2.9099   -2.0491    0.8063 C   0  0  2  0  0  0  0  0  0  0  0  0
    4.0211   -1.6358   -0.1497 C   0  0  0  0  0  0  0  0  0  0  0  0
    3.8097   -1.0600   -1.2151 O   0  0  0  0  0  0  0  0  0  0  0  0
    2.5797   -3.5253    0.6503 C   0  0  0  0  0  0  0  0  0  0  0  0
    1.1138   -1.5126   -0.1946 H   0  0  0  0  0  0  0  0  0  0  0  0
    3.2162   -1.8373    1.8365 H   0  0  0  0  0  0  0  0  0  0  0  0
    2.2707   -3.7566   -0.3756 H   0  0  0  0  0  0  0  0  0  0  0  0
    3.4464   -4.1526    0.8837 H   0  0  0  0  0  0  0  0  0  0  0  0
    1.7603   -3.8140    1.3173 H   0  0  0  0  0  0  0  0  0  0  0  0
    5.2731   -2.0240    0.3063 N   0  0  0  0  0  0  0  0  0  0  0  0
    6.4875   -1.7586   -0.4292 C   0  0  0  0  0  0  0  0  0  0  0  0
    5.3564   -2.4801    1.2100 H   0  0  0  0  0  0  0  0  0  0  0  0
    6.7198   -2.6171   -1.0765 H   0  0  0  0  0  0  0  0  0  0  0  0
    6.3522   -0.8591   -1.0478 H   0  0  0  0  0  0  0  0  0  0  0  0
    7.3156   -1.5970    0.2766 H   0  0  0  0  0  0  0  0  0  0  0  0
  1  3  1  0  0  0  0
  1  7  1  0  0  0  0
  1  2  2  0  0  0  0
 34 35  1  0  0  0  0
 35 43  1  0  0  0  0
 35 36  2  0  0  0  0
  8  9  1  0  0  0  0
  9 17  1  0  0  0  0
  9 10  2  0  0  0  0
 18 19  1  0  0  0  0
 19 33  1  0  0  0  0
 19 20  2  0  0  0  0
 22 23  1  0  0  0  0
 23 24  2  0  0  0  0
 23 25  1  0  0  0  0
 34 37  1  0  0  0  0
  8 11  1  0  0  0  0
 43 44  1  0  0  0  0
 21 22  1  0  0  0  0
 18 21  1  0  0  0  0
 33 34  1  0  0  0  0
  7  8  1  0  0  0  0
 17 18  1  0  0  0  0
  3  4  1  0  0  0  0
  3  5  1  0  0  0  0
  3  6  1  0  0  0  0
 37 40  1  0  0  0  0
 37 41  1  0  0  0  0
 37 42  1  0  0  0  0
 11 14  1  0  0  0  0
 11 15  1  0  0  0  0
 11 16  1  0  0  0  0
 44 46  1  0  0  0  0
 44 47  1  0  0  0  0
 44 48  1  0  0  0  0
 22 30  1  0  0  0  0
 22 31  1  0  0  0  0
 21 28  1  0  0  0  0
 21 29  1  0  0  0  0
 34 39  1  0  0  0  0
  8 13  1  0  0  0  0
 18 27  1  0  0  0  0
 43 45  1  0  0  0  0
  7 12  1  0  0  0  0
 33 38  1  0  0  0  0
 17 26  1  0  0  0  0
 25 32  1  0  0  0  0
M  END
$$$$

  -OEChem-05262214473D

 48 47  0     1  0  0  0  0  0999 V2000
   -5.5827   -1.3473    1.4591 C   0  0  0  0  0  0  0  0  0  0  0  0
   -5.7053   -2.4696    0.9825 O   0  0  0  0  0  0  0  0  0  0  0  0
   -6.7879   -0.6277    1.9670 C   0  0  0  0  0  0  0  0  0  0  0  0
   -7.2718   -0.0164    1.1885 H   0  0  0  0  0  0  0  0  0  0  0  0
   -7.5699   -1.3171    2.3239 H   0  0  0  0  0  0  0  0  0  0  0  0
   -6.6057    0.0628    2.8060 H   0  0  0  0  0  0  0  0  0  0  0  0
   -4.4001   -0.6377    1.5884 N   0  0  0  0  0  0  0  0  0  0  0  0
   -3.1220   -1.1455    1.1644 C   0  0  2  0  0  0  0  0  0  0  0  0
   -2.2017    0.0428    0.9187 C   0  0  0  0  0  0  0  0  0  0  0  0
   -2.6171    1.1750    0.6807 O   0  0  0  0  0  0  0  0  0  0  0  0
   -3.2533   -1.9992   -0.0873 C   0  0  0  0  0  0  0  0  0  0  0  0
   -4.4370    0.2910    2.0047 H   0  0  0  0  0  0  0  0  0  0  0  0
   -2.7302   -1.7467    1.9921 H   0  0  0  0  0  0  0  0  0  0  0  0
   -3.6446   -1.4140   -0.9275 H   0  0  0  0  0  0  0  0  0  0  0  0
   -2.2844   -2.4081   -0.3922 H   0  0  0  0  0  0  0  0  0  0  0  0
   -3.9388   -2.8365    0.0822 H   0  0  0  0  0  0  0  0  0  0  0  0
   -0.8768   -0.3314    0.9568 N   0  0  0  0  0  0  0  0  0  0  0  0
    0.2067    0.6285    0.7375 C   0  0  2  0  0  0  0  0  0  0  0  0
    1.4856   -0.0471    1.2227 C   0  0  0  0  0  0  0  0  0  0  0  0
    2.0189    0.2389    2.2928 O   0  0  0  0  0  0  0  0  0  0  0  0
   -0.0978    1.9221    1.5078 C   0  0  0  0  0  0  0  0  0  0  0  0
   -1.3078    2.6848    0.9686 C   0  0  0  0  0  0  0  0  0  0  0  0
   -1.5880    3.9344    1.7655 C   0  0  0  0  0  0  0  0  0  0  0  0
   -1.0028    4.2284    2.8001 O   0  0  0  0  0  0  0  0  0  0  0  0
   -2.5782    4.6903    1.2302 O   0  0  0  0  0  0  0  0  0  0  0  0
   -0.6087   -1.2764    1.1771 H   0  0  0  0  0  0  0  0  0  0  0  0
    0.2690    0.8408   -0.3349 H   0  0  0  0  0  0  0  0  0  0  0  0
   -0.2710    1.6808    2.5651 H   0  0  0  0  0  0  0  0  0  0  0  0
    0.7705    2.5934    1.4779 H   0  0  0  0  0  0  0  0  0  0  0  0
   -1.1134    3.0032   -0.0629 H   0  0  0  0  0  0  0  0  0  0  0  0
   -2.2006    2.0531    0.9171 H   0  0  0  0  0  0  0  0  0  0  0  0
   -2.8047    5.5039    1.7289 H   0  0  0  0  0  0  0  0  0  0  0  0
    1.9382   -1.0173    0.3408 N   0  0  0  0  0  0  0  0  0  0  0  0
    3.1295   -1.8027    0.5705 C   0  0  2  0  0  0  0  0  0  0  0  0
    4.2911   -1.1113   -0.1311 C   0  0  0  0  0  0  0  0  0  0  0  0
    4.1397   -0.3298   -1.0678 O   0  0  0  0  0  0  0  0  0  0  0  0
    2.9594   -3.2269    0.0652 C   0  0  0  0  0  0  0  0  0  0  0  0
    1.4063   -1.1841   -0.5081 H   0  0  0  0  0  0  0  0  0  0  0  0
    3.3039   -1.8039    1.6520 H   0  0  0  0  0  0  0  0  0  0  0  0
    2.7837   -3.2459   -1.0166 H   0  0  0  0  0  0  0  0  0  0  0  0
    3.8522   -3.8283    0.2656 H   0  0  0  0  0  0  0  0  0  0  0  0
    2.1052   -3.7127    0.5492 H   0  0  0  0  0  0  0  0  0  0  0  0
    5.5192   -1.5027    0.3834 N   0  0  0  0  0  0  0  0  0  0  0  0
    6.7736   -0.9969   -0.1229 C   0  0  0  0  0  0  0  0  0  0  0  0
    5.5496   -2.1410    1.1730 H   0  0  0  0  0  0  0  0  0  0  0  0
    7.1534   -1.6722   -0.9038 H   0  0  0  0  0  0  0  0  0  0  0  0
    6.6196    0.0057   -0.5485 H   0  0  0  0  0  0  0  0  0  0  0  0
    7.5035   -0.9387    0.6980 H   0  0  0  0  0  0  0  0  0  0  0  0
  1  3  1  0  0  0  0
  1  7  1  0  0  0  0
  1  2  2  0  0  0  0
 34 35  1  0  0  0  0
 35 43  1  0  0  0  0
 35 36  2  0  0  0  0
  8  9  1  0  0  0  0
  9 17  1  0  0  0  0
  9 10  2  0  0  0  0
 18 19  1  0  0  0  0
 19 33  1  0  0  0  0
 19 20  2  0  0  0  0
 22 23  1  0  0  0  0
 23 24  2  0  0  0  0
 23 25  1  0  0  0  0
 34 37  1  0  0  0  0
  8 11  1  0  0  0  0
 43 44  1  0  0  0  0
 21 22  1  0  0  0  0
 18 21  1  0  0  0  0
 33 34  1  0  0  0  0
  7  8  1  0  0  0  0
 17 18  1  0  0  0  0
  3  4  1  0  0  0  0
  3  5  1  0  0  0  0
  3  6  1  0  0  0  0
 37 40  1  0  0  0  0
 37 41  1  0  0  0  0
 37 42  1  0  0  0  0
 11 14  1  0  0  0  0
 11 15  1  0  0  0  0
 11 16  1  0  0  0  0
 44 46  1  0  0  0  0
 44 47  1  0  0  0  0
 44 48  1  0  0  0  0
 22 30  1  0  0  0  0
 22 31  1  0  0  0  0
 21 28  1  0  0  0  0
 21 29  1  0  0  0  0
 34 39  1  0  0  0  0
  8 13  1  0  0  0  0
 18 27  1  0  0  0  0
 43 45  1  0  0  0  0
  7 12  1  0  0  0  0
 33 38  1  0  0  0  0
 17 26  1  0  0  0  0
 25 32  1  0  0  0  0
M  END
$$$$

  -OEChem-05262214473D

 48 47  0     1  0  0  0  0  0999 V2000
   -5.5827   -1.3473    1.4591 C   0  0  0  0  0  0  0  0  0  0  0  0
   -5.7053   -2.4696    0.9825 O   0  0  0  0  0  0  0  0  0  0  0  0
   -6.7879   -0.6277    1.9670 C   0  0  0  0  0  0  0  0  0  0  0  0
   -7.2718   -0.0164    1.1885 H   0  0  0  0  0  0  0  0  0  0  0  0
   -7.5699   -1.3171    2.3239 H   0  0  0  0  0  0  0  0  0  0  0  0
   -6.6057    0.0628    2.8060 H   0  0  0  0  0  0  0  0  0  0  0  0
   -4.4001   -0.6377    1.5884 N   0  0  0  0  0  0  0  0  0  0  0  0
   -3.1220   -1.1455    1.1644 C   0  0  2  0  0  0  0  0  0  0  0  0
   -2.2017    0.0428    0.9187 C   0  0  0  0  0  0  0  0  0  0  0  0
   -2.6171    1.1750    0.6807 O   0  0  0  0  0  0  0  0  0  0  0  0
   -3.2533   -1.9992   -0.0873 C   0  0  0  0  0  0  0  0  0  0  0  0
   -4.4370    0.2910    2.0047 H   0  0  0  0  0  0  0  0  0  0  0  0
   -2.7302   -1.7467    1.9921 H   0  0  0  0  0  0  0  0  0  0  0  0
   -3.6446   -1.4140   -0.9275 H   0  0  0  0  0  0  0  0  0  0  0  0
   -2.2844   -2.4081   -0.3922 H   0  0  0  0  0  0  0  0  0  0  0  0
   -3.9388   -2.8365    0.0822 H   0  0  0  0  0  0  0  0  0  0  0  0
   -0.8768   -0.3314    0.9568 N   0  0  0  0  0  0  0  0  0  0  0  0
    0.2067    0.6285    0.7375 C   0  0  2  0  0  0  0  0  0  0  0  0
    1.4856   -0.0471    1.2227 C   0  0  0  0  0  0  0  0  0  0  0  0
    1.8734    0.0309    2.3867 O   0  0  0  0  0  0  0  0  0  0  0  0
   -0.0978    1.9221    1.5078 C   0  0  0  0  0  0  0  0  0  0  0  0
   -1.3078    2.6848    0.9686 C   0  0  0  0  0  0  0  0  0  0  0  0
   -1.5880    3.9344    1.7655 C   0  0  0  0  0  0  0  0  0  0  0  0
   -1.0028    4.2284    2.8001 O   0  0  0  0  0  0  0  0  0  0  0  0
   -2.5782    4.6903    1.2302 O   0  0  0  0  0  0  0  0  0  0  0  0
   -0.6087   -1.2764    1.1771 H   0  0  0  0  0  0  0  0  0  0  0  0
    0.2690    0.8408   -0.3349 H   0  0  0  0  0  0  0  0  0  0  0  0
   -0.2710    1.6808    2.5651 H   0  0  0  0  0  0  0  0  0  0  0  0
    0.7705    2.5934    1.4779 H   0  0  0  0  0  0  0  0  0  0  0  0
   -1.1134    3.0032   -0.0629 H   0  0  0  0  0  0  0  0  0  0  0  0
   -2.2006    2.0531    0.9171 H   0  0  0  0  0  0  0  0  0  0  0  0
   -2.8047    5.5039    1.7289 H   0  0  0  0  0  0  0  0  0  0  0  0
    2.1188   -0.7637    0.2180 N   0  0  0  0  0  0  0  0  0  0  0  0
    3.3484   -1.4954    0.4214 C   0  0  2  0  0  0  0  0  0  0  0  0
    4.5066   -0.5865    0.0316 C   0  0  0  0  0  0  0  0  0  0  0  0
    4.3813    0.3708   -0.7293 O   0  0  0  0  0  0  0  0  0  0  0  0
    3.3685   -2.7804   -0.3917 C   0  0  0  0  0  0  0  0  0  0  0  0
    1.6977   -0.7746   -0.7061 H   0  0  0  0  0  0  0  0  0  0  0  0
    3.4070   -1.7243    1.4910 H   0  0  0  0  0  0  0  0  0  0  0  0
    3.3106   -2.5712   -1.4661 H   0  0  0  0  0  0  0  0  0  0  0  0
    4.2883   -3.3477   -0.2146 H   0  0  0  0  0  0  0  0  0  0  0  0
    2.5181   -3.4198   -0.1313 H   0  0  0  0  0  0  0  0  0  0  0  0
    5.7051   -0.9958    0.5993 N   0  0  0  0  0  0  0  0  0  0  0  0
    6.9523   -0.3041    0.3709 C   0  0  0  0  0  0  0  0  0  0  0  0
    5.7125   -1.7896    1.2330 H   0  0  0  0  0  0  0  0  0  0  0  0
    7.4748   -0.7612   -0.4824 H   0  0  0  0  0  0  0  0  0  0  0  0
    6.7495    0.7546    0.1521 H   0  0  0  0  0  0  0  0  0  0  0  0
    7.5826   -0.3787    1.2693 H   0  0  0  0  0  0  0  0  0  0  0  0
  1  3  1  0  0  0  0
  1  7  1  0  0  0  0
  1  2  2  0  0  0  0
 34 35  1  0  0  0  0
 35 43  1  0  0  0  0
 35 36  2  0  0  0  0
  8  9  1  0  0  0  0
  9 17  1  0  0  0  0
  9 10  2  0  0  0  0
 18 19  1  0  0  0  0
 19 33  1  0  0  0  0
 19 20  2  0  0  0  0
 22 23  1  0  0  0  0
 23 24  2  0  0  0  0
 23 25  1  0  0  0  0
 34 37  1  0  0  0  0
  8 11  1  0  0  0  0
 43 44  1  0  0  0  0
 21 22  1  0  0  0  0
 18 21  1  0  0  0  0
 33 34  1  0  0  0  0
  7  8  1  0  0  0  0
 17 18  1  0  0  0  0
  3  4  1  0  0  0  0
  3  5  1  0  0  0  0
  3  6  1  0  0  0  0
 37 40  1  0  0  0  0
 37 41  1  0  0  0  0
 37 42  1  0  0  0  0
 11 14  1  0  0  0  0
 11 15  1  0  0  0  0
 11 16  1  0  0  0  0
 44 46  1  0  0  0  0
 44 47  1  0  0  0  0
 44 48  1  0  0  0  0
 22 30  1  0  0  0  0
 22 31  1  0  0  0  0
 21 28  1  0  0  0  0
 21 29  1  0  0  0  0
 34 39  1  0  0  0  0
  8 13  1  0  0  0  0
 18 27  1  0  0  0  0
 43 45  1  0  0  0  0
  7 12  1  0  0  0  0
 33 38  1  0  0  0  0
 17 26  1  0  0  0  0
 25 32  1  0  0  0  0
M  END
$$$$

  -OEChem-05262214473D

 48 47  0     1  0  0  0  0  0999 V2000
   -5.5827   -1.3473    1.4591 C   0  0  0  0  0  0  0  0  0  0  0  0
   -5.7053   -2.4696    0.9825 O   0  0  0  0  0  0  0  0  0  0  0  0
   -6.7879   -0.6277    1.9670 C   0  0  0  0  0  0  0  0  0  0  0  0
   -7.2718   -0.0164    1.1885 H   0  0  0  0  0  0  0  0  0  0  0  0
   -7.5699   -1.3171    2.3239 H   0  0  0  0  0  0  0  0  0  0  0  0
   -6.6057    0.0628    2.8060 H   0  0  0  0  0  0  0  0  0  0  0  0
   -4.4001   -0.6377    1.5884 N   0  0  0  0  0  0  0  0  0  0  0  0
   -3.1220   -1.1455    1.1644 C   0  0  2  0  0  0  0  0  0  0  0  0
   -2.2017    0.0428    0.9187 C   0  0  0  0  0  0  0  0  0  0  0  0
   -2.6171    1.1750    0.6807 O   0  0  0  0  0  0  0  0  0  0  0  0
   -3.2533   -1.9992   -0.0873 C   0  0  0  0  0  0  0  0  0  0  0  0
   -4.4370    0.2910    2.0047 H   0  0  0  0  0  0  0  0  0  0  0  0
   -2.7302   -1.7467    1.9921 H   0  0  0  0  0  0  0  0  0  0  0  0
   -3.6446   -1.4140   -0.9275 H   0  0  0  0  0  0  0  0  0  0  0  0
   -2.2844   -2.4081   -0.3922 H   0  0  0  0  0  0  0  0  0  0  0  0
   -3.9388   -2.8365    0.0822 H   0  0  0  0  0  0  0  0  0  0  0  0
   -0.8768   -0.3314    0.9568 N   0  0  0  0  0  0  0  0  0  0  0  0
    0.2067    0.6285    0.7375 C   0  0  2  0  0  0  0  0  0  0  0  0
    1.4856   -0.0471    1.2227 C   0  0  0  0  0  0  0  0  0  0  0  0
    1.7393   -0.2024    2.4156 O   0  0  0  0  0  0  0  0  0  0  0  0
   -0.0978    1.9221    1.5078 C   0  0  0  0  0  0  0  0  0  0  0  0
   -1.3078    2.6848    0.9686 C   0  0  0  0  0  0  0  0  0  0  0  0
   -1.5880    3.9344    1.7655 C   0  0  0  0  0  0  0  0  0  0  0  0
   -1.0028    4.2284    2.8001 O   0  0  0  0  0  0  0  0  0  0  0  0
   -2.5782    4.6903    1.2302 O   0  0  0  0  0  0  0  0  0  0  0  0
   -0.6087   -1.2764    1.1771 H   0  0  0  0  0  0  0  0  0  0  0  0
    0.2690    0.8408   -0.3349 H   0  0  0  0  0  0  0  0  0  0  0  0
   -0.2710    1.6808    2.5651 H   0  0  0  0  0  0  0  0  0  0  0  0
    0.7705    2.5934    1.4779 H   0  0  0  0  0  0  0  0  0  0  0  0
   -1.1134    3.0032   -0.0629 H   0  0  0  0  0  0  0  0  0  0  0  0
   -2.2006    2.0531    0.9171 H   0  0  0  0  0  0  0  0  0  0  0  0
   -2.8047    5.5039    1.7289 H   0  0  0  0  0  0  0  0  0  0  0  0
    2.2865   -0.4771    0.1750 N   0  0  0  0  0  0  0  0  0  0  0  0
    3.5517   -1.1483    0.3691 C   0  0  2  0  0  0  0  0  0  0  0  0
    4.6529   -0.0971    0.3274 C   0  0  0  0  0  0  0  0  0  0  0  0
    4.5183    0.9940   -0.2226 O   0  0  0  0  0  0  0  0  0  0  0  0
    3.7794   -2.2164   -0.6892 C   0  0  0  0  0  0  0  0  0  0  0  0
    1.9682   -0.3122   -0.7751 H   0  0  0  0  0  0  0  0  0  0  0  0
    3.5185   -1.6040    1.3647 H   0  0  0  0  0  0  0  0  0  0  0  0
    3.8156   -1.7787   -1.6935 H   0  0  0  0  0  0  0  0  0  0  0  0
    4.7250   -2.7433   -0.5241 H   0  0  0  0  0  0  0  0  0  0  0  0
    2.9708   -2.9552   -0.6776 H   0  0  0  0  0  0  0  0  0  0  0  0
    5.8183   -0.5376    0.9391 N   0  0  0  0  0  0  0  0  0  0  0  0
    7.0112    0.2726    1.0187 C   0  0  0  0  0  0  0  0  0  0  0  0
    5.8341   -1.4497    1.3859 H   0  0  0  0  0  0  0  0  0  0  0  0
    7.6619    0.0536    0.1592 H   0  0  0  0  0  0  0  0  0  0  0  0
    6.7331    1.3368    1.0061 H   0  0  0  0  0  0  0  0  0  0  0  0
    7.5474    0.0448    1.9518 H   0  0  0  0  0  0  0  0  0  0  0  0
  1  3  1  0  0  0  0
  1  7  1  0  0  0  0
  1  2  2  0  0  0  0
 34 35  1  0  0  0  0
 35 43  1  0  0  0  0
 35 36  2  0  0  0  0
  8  9  1  0  0  0  0
  9 17  1  0  0  0  0
  9 10  2  0  0  0  0
 18 19  1  0  0  0  0
 19 33  1  0  0  0  0
 19 20  2  0  0  0  0
 22 23  1  0  0  0  0
 23 24  2  0  0  0  0
 23 25  1  0  0  0  0
 34 37  1  0  0  0  0
  8 11  1  0  0  0  0
 43 44  1  0  0  0  0
 21 22  1  0  0  0  0
 18 21  1  0  0  0  0
 33 34  1  0  0  0  0
  7  8  1  0  0  0  0
 17 18  1  0  0  0  0
  3  4  1  0  0  0  0
  3  5  1  0  0  0  0
  3  6  1  0  0  0  0
 37 40  1  0  0  0  0
 37 41  1  0  0  0  0
 37 42  1  0  0  0  0
 11 14  1  0  0  0  0
 11 15  1  0  0  0  0
 11 16  1  0  0  0  0
 44 46  1  0  0  0  0
 44 47  1  0  0  0  0
 44 48  1  0  0  0  0
 22 30  1  0  0  0  0
 22 31  1  0  0  0  0
 21 28  1  0  0  0  0
 21 29  1  0  0  0  0
 34 39  1  0  0  0  0
  8 13  1  0  0  0  0
 18 27  1  0  0  0  0
 43 45  1  0  0  0  0
  7 12  1  0  0  0  0
 33 38  1  0  0  0  0
 17 26  1  0  0  0  0
 25 32  1  0  0  0  0
M  END
$$$$

  -OEChem-05262214473D

 48 47  0     1  0  0  0  0  0999 V2000
   -5.5827   -1.3473    1.4591 C   0  0  0  0  0  0  0  0  0  0  0  0
   -5.7053   -2.4696    0.9825 O   0  0  0  0  0  0  0  0  0  0  0  0
   -6.7879   -0.6277    1.9670 C   0  0  0  0  0  0  0  0  0  0  0  0
   -7.2718   -0.0164    1.1885 H   0  0  0  0  0  0  0  0  0  0  0  0
   -7.5699   -1.3171    2.3239 H   0  0  0  0  0  0  0  0  0  0  0  0
   -6.6057    0.0628    2.8060 H   0  0  0  0  0  0  0  0  0  0  0  0
   -4.4001   -0.6377    1.5884 N   0  0  0  0  0  0  0  0  0  0  0  0
   -3.1220   -1.1455    1.1644 C   0  0  2  0  0  0  0  0  0  0  0  0
   -2.2017    0.0428    0.9187 C   0  0  0  0  0  0  0  0  0  0  0  0
   -2.6171    1.1750    0.6807 O   0  0  0  0  0  0  0  0  0  0  0  0
   -3.2533   -1.9992   -0.0873 C   0  0  0  0  0  0  0  0  0  0  0  0
   -4.4370    0.2910    2.0047 H   0  0  0  0  0  0  0  0  0  0  0  0
   -2.7302   -1.7467    1.9921 H   0  0  0  0  0  0  0  0  0  0  0  0
   -3.6446   -1.4140   -0.9275 H   0  0  0  0  0  0  0  0  0  0  0  0
   -2.2844   -2.4081   -0.3922 H   0  0  0  0  0  0  0  0  0  0  0  0
   -3.9388   -2.8365    0.0822 H   0  0  0  0  0  0  0  0  0  0  0  0
   -0.8768   -0.3314    0.9568 N   0  0  0  0  0  0  0  0  0  0  0  0
    0.2067    0.6285    0.7375 C   0  0  2  0  0  0  0  0  0  0  0  0
    1.4856   -0.0471    1.2227 C   0  0  0  0  0  0  0  0  0  0  0  0
    1.6255   -0.4450    2.3775 O   0  0  0  0  0  0  0  0  0  0  0  0
   -0.0978    1.9221    1.5078 C   0  0  0  0  0  0  0  0  0  0  0  0
   -1.3078    2.6848    0.9686 C   0  0  0  0  0  0  0  0  0  0  0  0
   -1.5880    3.9344    1.7655 C   0  0  0  0  0  0  0  0  0  0  0  0
   -1.0028    4.2284    2.8001 O   0  0  0  0  0  0  0  0  0  0  0  0
   -2.5782    4.6903    1.2302 O   0  0  0  0  0  0  0  0  0  0  0  0
   -0.6087   -1.2764    1.1771 H   0  0  0  0  0  0  0  0  0  0  0  0
    0.2690    0.8408   -0.3349 H   0  0  0  0  0  0  0  0  0  0  0  0
   -0.2710    1.6808    2.5651 H   0  0  0  0  0  0  0  0  0  0  0  0
    0.7705    2.5934    1.4779 H   0  0  0  0  0  0  0  0  0  0  0  0
   -1.1134    3.0032   -0.0629 H   0  0  0  0  0  0  0  0  0  0  0  0
   -2.2006    2.0531    0.9171 H   0  0  0  0  0  0  0  0  0  0  0  0
   -2.8047    5.5039    1.7289 H   0  0  0  0  0  0  0  0  0  0  0  0
    2.4298   -0.1772    0.2150 N   0  0  0  0  0  0  0  0  0  0  0  0
    3.7254   -0.7849    0.4172 C   0  0  2  0  0  0  0  0  0  0  0  0
    4.7201    0.3234    0.7360 C   0  0  0  0  0  0  0  0  0  0  0  0
    4.5413    1.4972    0.4177 O   0  0  0  0  0  0  0  0  0  0  0  0
    4.1639   -1.5732   -0.8072 C   0  0  0  0  0  0  0  0  0  0  0  0
    2.1994    0.1717   -0.7105 H   0  0  0  0  0  0  0  0  0  0  0  0
    3.6307   -1.4513    1.2815 H   0  0  0  0  0  0  0  0  0  0  0  0
    4.2642   -0.9222   -1.6833 H   0  0  0  0  0  0  0  0  0  0  0  0
    5.1326   -2.0564   -0.6419 H   0  0  0  0  0  0  0  0  0  0  0  0
    3.4325   -2.3507   -1.0527 H   0  0  0  0  0  0  0  0  0  0  0  0
    5.8509   -0.1595    1.3797 N   0  0  0  0  0  0  0  0  0  0  0  0
    6.9464    0.6940    1.7764 C   0  0  0  0  0  0  0  0  0  0  0  0
    5.9060   -1.1445    1.6212 H   0  0  0  0  0  0  0  0  0  0  0  0
    7.7020    0.7170    0.9772 H   0  0  0  0  0  0  0  0  0  0  0  0
    6.5713    1.7124    1.9555 H   0  0  0  0  0  0  0  0  0  0  0  0
    7.4003    0.3028    2.6988 H   0  0  0  0  0  0  0  0  0  0  0  0
  1  3  1  0  0  0  0
  1  7  1  0  0  0  0
  1  2  2  0  0  0  0
 34 35  1  0  0  0  0
 35 43  1  0  0  0  0
 35 36  2  0  0  0  0
  8  9  1  0  0  0  0
  9 17  1  0  0  0  0
  9 10  2  0  0  0  0
 18 19  1  0  0  0  0
 19 33  1  0  0  0  0
 19 20  2  0  0  0  0
 22 23  1  0  0  0  0
 23 24  2  0  0  0  0
 23 25  1  0  0  0  0
 34 37  1  0  0  0  0
  8 11  1  0  0  0  0
 43 44  1  0  0  0  0
 21 22  1  0  0  0  0
 18 21  1  0  0  0  0
 33 34  1  0  0  0  0
  7  8  1  0  0  0  0
 17 18  1  0  0  0  0
  3  4  1  0  0  0  0
  3  5  1  0  0  0  0
  3  6  1  0  0  0  0
 37 40  1  0  0  0  0
 37 41  1  0  0  0  0
 37 42  1  0  0  0  0
 11 14  1  0  0  0  0
 11 15  1  0  0  0  0
 11 16  1  0  0  0  0
 44 46  1  0  0  0  0
 44 47  1  0  0  0  0
 44 48  1  0  0  0  0
 22 30  1  0  0  0  0
 22 31  1  0  0  0  0
 21 28  1  0  0  0  0
 21 29  1  0  0  0  0
 34 39  1  0  0  0  0
  8 13  1  0  0  0  0
 18 27  1  0  0  0  0
 43 45  1  0  0  0  0
  7 12  1  0  0  0  0
 33 38  1  0  0  0  0
 17 26  1  0  0  0  0
 25 32  1  0  0  0  0
M  END
$$$$

  -OEChem-05262214473D

 48 47  0     1  0  0  0  0  0999 V2000
   -5.5827   -1.3473    1.4591 C   0  0  0  0  0  0  0  0  0  0  0  0
   -5.7053   -2.4696    0.9825 O   0  0  0  0  0  0  0  0  0  0  0  0
   -6.7879   -0.6277    1.9670 C   0  0  0  0  0  0  0  0  0  0  0  0
   -7.2718   -0.0164    1.1885 H   0  0  0  0  0  0  0  0  0  0  0  0
   -7.5699   -1.3171    2.3239 H   0  0  0  0  0  0  0  0  0  0  0  0
   -6.6057    0.0628    2.8060 H   0  0  0  0  0  0  0  0  0  0  0  0
   -4.4001   -0.6377    1.5884 N   0  0  0  0  0  0  0  0  0  0  0  0
   -3.1220   -1.1455    1.1644 C   0  0  2  0  0  0  0  0  0  0  0  0
   -2.2017    0.0428    0.9187 C   0  0  0  0  0  0  0  0  0  0  0  0
   -2.6171    1.1750    0.6807 O   0  0  0  0  0  0  0  0  0  0  0  0
   -3.2533   -1.9992   -0.0873 C   0  0  0  0  0  0  0  0  0  0  0  0
   -4.4370    0.2910    2.0047 H   0  0  0  0  0  0  0  0  0  0  0  0
   -2.7302   -1.7467    1.9921 H   0  0  0  0  0  0  0  0  0  0  0  0
   -3.6446   -1.4140   -0.9275 H   0  0  0  0  0  0  0  0  0  0  0  0
   -2.2844   -2.4081   -0.3922 H   0  0  0  0  0  0  0  0  0  0  0  0
   -3.9388   -2.8365    0.0822 H   0  0  0  0  0  0  0  0  0  0  0  0
   -0.8768   -0.3314    0.9568 N   0  0  0  0  0  0  0  0  0  0  0  0
    0.2067    0.6285    0.7375 C   0  0  2  0  0  0  0  0  0  0  0  0
    1.4856   -0.0471    1.2227 C   0  0  0  0  0  0  0  0  0  0  0  0
    1.5400   -0.6805    2.2750 O   0  0  0  0  0  0  0  0  0  0  0  0
   -0.0978    1.9221    1.5078 C   0  0  0  0  0  0  0  0  0  0  0  0
   -1.3078    2.6848    0.9686 C   0  0  0  0  0  0  0  0  0  0  0  0
   -1.5880    3.9344    1.7655 C   0  0  0  0  0  0  0  0  0  0  0  0
   -1.0028    4.2284    2.8001 O   0  0  0  0  0  0  0  0  0  0  0  0
   -2.5782    4.6903    1.2302 O   0  0  0  0  0  0  0  0  0  0  0  0
   -0.6087   -1.2764    1.1771 H   0  0  0  0  0  0  0  0  0  0  0  0
    0.2690    0.8408   -0.3349 H   0  0  0  0  0  0  0  0  0  0  0  0
   -0.2710    1.6808    2.5651 H   0  0  0  0  0  0  0  0  0  0  0  0
    0.7705    2.5934    1.4779 H   0  0  0  0  0  0  0  0  0  0  0  0
   -1.1134    3.0032   -0.0629 H   0  0  0  0  0  0  0  0  0  0  0  0
   -2.2006    2.0531    0.9171 H   0  0  0  0  0  0  0  0  0  0  0  0
   -2.8047    5.5039    1.7289 H   0  0  0  0  0  0  0  0  0  0  0  0
    2.5389    0.1156    0.3350 N   0  0  0  0  0  0  0  0  0  0  0  0
    3.8578   -0.4300    0.5624 C   0  0  2  0  0  0  0  0  0  0  0  0
    4.7035    0.6465    1.2296 C   0  0  0  0  0  0  0  0  0  0  0  0
    4.4486    1.8463    1.1480 O   0  0  0  0  0  0  0  0  0  0  0  0
    4.4960   -0.8947   -0.7375 C   0  0  0  0  0  0  0  0  0  0  0  0
    2.3754    0.6442   -0.5166 H   0  0  0  0  0  0  0  0  0  0  0  0
    3.7362   -1.2764    1.2471 H   0  0  0  0  0  0  0  0  0  0  0  0
    4.6258   -0.0603   -1.4363 H   0  0  0  0  0  0  0  0  0  0  0  0
    5.4832   -1.3338   -0.5600 H   0  0  0  0  0  0  0  0  0  0  0  0
    3.8716   -1.6473   -1.2309 H   0  0  0  0  0  0  0  0  0  0  0  0
    5.8008    0.1129    1.8910 N   0  0  0  0  0  0  0  0  0  0  0  0
    6.7623    0.9313    2.5922 C   0  0  0  0  0  0  0  0  0  0  0  0
    5.9234   -0.8949    1.9230 H   0  0  0  0  0  0  0  0  0  0  0  0
    7.5924    1.1835    1.9159 H   0  0  0  0  0  0  0  0  0  0  0  0
    6.2754    1.8560    2.9355 H   0  0  0  0  0  0  0  0  0  0  0  0
    7.1514    0.3779    3.4596 H   0  0  0  0  0  0  0  0  0  0  0  0
  1  3  1  0  0  0  0
  1  7  1  0  0  0  0
  1  2  2  0  0  0  0
 34 35  1  0  0  0  0
 35 43  1  0  0  0  0
 35 36  2  0  0  0  0
  8  9  1  0  0  0  0
  9 17  1  0  0  0  0
  9 10  2  0  0  0  0
 18 19  1  0  0  0  0
 19 33  1  0  0  0  0
 19 20  2  0  0  0  0
 22 23  1  0  0  0  0
 23 24  2  0  0  0  0
 23 25  1  0  0  0  0
 34 37  1  0  0  0  0
  8 11  1  0  0  0  0
 43 44  1  0  0  0  0
 21 22  1  0  0  0  0
 18 21  1  0  0  0  0
 33 34  1  0  0  0  0
  7  8  1  0  0  0  0
 17 18  1  0  0  0  0
  3  4  1  0  0  0  0
  3  5  1  0  0  0  0
  3  6  1  0  0  0  0
 37 40  1  0  0  0  0
 37 41  1  0  0  0  0
 37 42  1  0  0  0  0
 11 14  1  0  0  0  0
 11 15  1  0  0  0  0
 11 16  1  0  0  0  0
 44 46  1  0  0  0  0
 44 47  1  0  0  0  0
 44 48  1  0  0  0  0
 22 30  1  0  0  0  0
 22 31  1  0  0  0  0
 21 28  1  0  0  0  0
 21 29  1  0  0  0  0
 34 39  1  0  0  0  0
  8 13  1  0  0  0  0
 18 27  1  0  0  0  0
 43 45  1  0  0  0  0
  7 12  1  0  0  0  0
 33 38  1  0  0  0  0
 17 26  1  0  0  0  0
 25 32  1  0  0  0  0
M  END
$$$$

  -OEChem-05262214473D

 48 47  0     1  0  0  0  0  0999 V2000
   -5.5827   -1.3473    1.4591 C   0  0  0  0  0  0  0  0  0  0  0  0
   -5.7053   -2.4696    0.9825 O   0  0  0  0  0  0  0  0  0  0  0  0
   -6.7879   -0.6277    1.9670 C   0  0  0  0  0  0  0  0  0  0  0  0
   -7.2718   -0.0164    1.1885 H   0  0  0  0  0  0  0  0  0  0  0  0
   -7.5699   -1.3171    2.3239 H   0  0  0  0  0  0  0  0  0  0  0  0
   -6.6057    0.0628    2.8060 H   0  0  0  0  0  0  0  0  0  0  0  0
   -4.4001   -0.6377    1.5884 N   0  0  0  0  0  0  0  0  0  0  0  0
   -3.1220   -1.1455    1.1644 C   0  0  2  0  0  0  0  0  0  0  0  0
   -2.2017    0.0428    0.9187 C   0  0  0  0  0  0  0  0  0  0  0  0
   -2.6171    1.1750    0.6807 O   0  0  0  0  0  0  0  0  0  0  0  0
   -3.2533   -1.9992   -0.0873 C   0  0  0  0  0  0  0  0  0  0  0  0
   -4.4370    0.2910    2.0047 H   0  0  0  0  0  0  0  0  0  0  0  0
   -2.7302   -1.7467    1.9921 H   0  0  0  0  0  0  0  0  0  0  0  0
   -3.6446   -1.4140   -0.9275 H   0  0  0  0  0  0  0  0  0  0  0  0
   -2.2844   -2.4081   -0.3922 H   0  0  0  0  0  0  0  0  0  0  0  0
   -3.9388   -2.8365    0.0822 H   0  0  0  0  0  0  0  0  0  0  0  0
   -0.8768   -0.3314    0.9568 N   0  0  0  0  0  0  0  0  0  0  0  0
    0.2067    0.6285    0.7375 C   0  0  2  0  0  0  0  0  0  0  0  0
    1.4856   -0.0471    1.2227 C   0  0  0  0  0  0  0  0  0  0  0  0
    1.4886   -0.8927    2.1151 O   0  0  0  0  0  0  0  0  0  0  0  0
   -0.0978    1.9221    1.5078 C   0  0  0  0  0  0  0  0  0  0  0  0
   -1.3078    2.6848    0.9686 C   0  0  0  0  0  0  0  0  0  0  0  0
   -1.5880    3.9344    1.7655 C   0  0  0  0  0  0  0  0  0  0  0  0
   -1.0028    4.2284    2.8001 O   0  0  0  0  0  0  0  0  0  0  0  0
   -2.5782    4.6903    1.2302 O   0  0  0  0  0  0  0  0  0  0  0  0
   -0.6087   -1.2764    1.1771 H   0  0  0  0  0  0  0  0  0  0  0  0
    0.2690    0.8408   -0.3349 H   0  0  0  0  0  0  0  0  0  0  0  0
   -0.2710    1.6808    2.5651 H   0  0  0  0  0  0  0  0  0  0  0  0
    0.7705    2.5934    1.4779 H   0  0  0  0  0  0  0  0  0  0  0  0
   -1.1134    3.0032   -0.0629 H   0  0  0  0  0  0  0  0  0  0  0  0
   -2.2006    2.0531    0.9171 H   0  0  0  0  0  0  0  0  0  0  0  0
   -2.8047    5.5039    1.7289 H   0  0  0  0  0  0  0  0  0  0  0  0
    2.6065    0.3814    0.5270 N   0  0  0  0  0  0  0  0  0  0  0  0
    3.9398   -0.1079    0.7948 C   0  0  2  0  0  0  0  0  0  0  0  0
    4.6043    0.8501    1.7747 C   0  0  0  0  0  0  0  0  0  0  0  0
    4.2467    2.0174    1.9186 O   0  0  0  0  0  0  0  0  0  0  0  0
    4.7528   -0.2271   -0.4848 C   0  0  0  0  0  0  0  0  0  0  0  0
    2.4843    1.0729   -0.2066 H   0  0  0  0  0  0  0  0  0  0  0  0
    3.8275   -1.0914    1.2640 H   0  0  0  0  0  0  0  0  0  0  0  0
    4.8759    0.7485   -0.9692 H   0  0  0  0  0  0  0  0  0  0  0  0
    5.7530   -0.6248   -0.2838 H   0  0  0  0  0  0  0  0  0  0  0  0
    4.2584   -0.8932   -1.2001 H   0  0  0  0  0  0  0  0  0  0  0  0
    5.6713    0.2609    2.4383 N   0  0  0  0  0  0  0  0  0  0  0  0
    6.4714    0.9684    3.4106 C   0  0  0  0  0  0  0  0  0  0  0  0
    5.8850   -0.7179    2.2707 H   0  0  0  0  0  0  0  0  0  0  0  0
    7.3405    1.4215    2.9112 H   0  0  0  0  0  0  0  0  0  0  0  0
    5.8654    1.7577    3.8794 H   0  0  0  0  0  0  0  0  0  0  0  0
    6.8176    0.2649    4.1821 H   0  0  0  0  0  0  0  0  0  0  0  0
  1  3  1  0  0  0  0
  1  7  1  0  0  0  0
  1  2  2  0  0  0  0
 34 35  1  0  0  0  0
 35 43  1  0  0  0  0
 35 36  2  0  0  0  0
  8  9  1  0  0  0  0
  9 17  1  0  0  0  0
  9 10  2  0  0  0  0
 18 19  1  0  0  0  0
 19 33  1  0  0  0  0
 19 20  2  0  0  0  0
 22 23  1  0  0  0  0
 23 24  2  0  0  0  0
 23 25  1  0  0  0  0
 34 37  1  0  0  0  0
  8 11  1  0  0  0  0
 43 44  1  0  0  0  0
 21 22  1  0  0  0  0
 18 21  1  0  0  0  0
 33 34  1  0  0  0  0
  7  8  1  0  0  0  0
 17 18  1  0  0  0  0
  3  4  1  0  0  0  0
  3  5  1  0  0  0  0
  3  6  1  0  0  0  0
 37 40  1  0  0  0  0
 37 41  1  0  0  0  0
 37 42  1  0  0  0  0
 11 14  1  0  0  0  0
 11 15  1  0  0  0  0
 11 16  1  0  0  0  0
 44 46  1  0  0  0  0
 44 47  1  0  0  0  0
 44 48  1  0  0  0  0
 22 30  1  0  0  0  0
 22 31  1  0  0  0  0
 21 28  1  0  0  0  0
 21 29  1  0  0  0  0
 34 39  1  0  0  0  0
  8 13  1  0  0  0  0
 18 27  1  0  0  0  0
 43 45  1  0  0  0  0
  7 12  1  0  0  0  0
 33 38  1  0  0  0  0
 17 26  1  0  0  0  0
 25 32  1  0  0  0  0
M  END
$$$$

  -OEChem-05262214473D

 48 47  0     1  0  0  0  0  0999 V2000
   -5.5827   -1.3473    1.4591 C   0  0  0  0  0  0  0  0  0  0  0  0
   -5.7053   -2.4696    0.9825 O   0  0  0  0  0  0  0  0  0  0  0  0
   -6.7879   -0.6277    1.9670 C   0  0  0  0  0  0  0  0  0  0  0  0
   -7.2718   -0.0164    1.1885 H   0  0  0  0  0  0  0  0  0  0  0  0
   -7.5699   -1.3171    2.3239 H   0  0  0  0  0  0  0  0  0  0  0  0
   -6.6057    0.0628    2.8060 H   0  0  0  0  0  0  0  0  0  0  0  0
   -4.4001   -0.6377    1.5884 N   0  0  0  0  0  0  0  0  0  0  0  0
   -3.1220   -1.1455    1.1644 C   0  0  2  0  0  0  0  0  0  0  0  0
   -2.2017    0.0428    0.9187 C   0  0  0  0  0  0  0  0  0  0  0  0
   -2.6171    1.1750    0.6807 O   0  0  0  0  0  0  0  0  0  0  0  0
   -3.2533   -1.9992   -0.0873 C   0  0  0  0  0  0  0  0  0  0  0  0
   -4.4370    0.2910    2.0047 H   0  0  0  0  0  0  0  0  0  0  0  0
   -2.7302   -1.7467    1.9921 H   0  0  0  0  0  0  0  0  0  0  0  0
   -3.6446   -1.4140   -0.9275 H   0  0  0  0  0  0  0  0  0  0  0  0
   -2.2844   -2.4081   -0.3922 H   0  0  0  0  0  0  0  0  0  0  0  0
   -3.9388   -2.8365    0.0822 H   0  0  0  0  0  0  0  0  0  0  0  0
   -0.8768   -0.3314    0.9568 N   0  0  0  0  0  0  0  0  0  0  0  0
    0.2067    0.6285    0.7375 C   0  0  2  0  0  0  0  0  0  0  0  0
    1.4856   -0.0471    1.2227 C   0  0  0  0  0  0  0  0  0  0  0  0
    1.4746   -1.0672    1.9088 O   0  0  0  0  0  0  0  0  0  0  0  0
   -0.0978    1.9221    1.5078 C   0  0  0  0  0  0  0  0  0  0  0  0
   -1.3078    2.6848    0.9686 C   0  0  0  0  0  0  0  0  0  0  0  0
   -1.5880    3.9344    1.7655 C   0  0  0  0  0  0  0  0  0  0  0  0
   -1.0028    4.2284    2.8001 O   0  0  0  0  0  0  0  0  0  0  0  0
   -2.5782    4.6903    1.2302 O   0  0  0  0  0  0  0  0  0  0  0  0
   -0.6087   -1.2764    1.1771 H   0  0  0  0  0  0  0  0  0  0  0  0
    0.2690    0.8408   -0.3349 H   0  0  0  0  0  0  0  0  0  0  0  0
   -0.2710    1.6808    2.5651 H   0  0  0  0  0  0  0  0  0  0  0  0
    0.7705    2.5934    1.4779 H   0  0  0  0  0  0  0  0  0  0  0  0
   -1.1134    3.0032   -0.0629 H   0  0  0  0  0  0  0  0  0  0  0  0
   -2.2006    2.0531    0.9171 H   0  0  0  0  0  0  0  0  0  0  0  0
   -2.8047    5.5039    1.7289 H   0  0  0  0  0  0  0  0  0  0  0  0
    2.6279    0.6020    0.7779 N   0  0  0  0  0  0  0  0  0  0  0  0
    3.9659    0.1597    1.0986 C   0  0  2  0  0  0  0  0  0  0  0  0
    4.4293    0.9204    2.3339 C   0  0  0  0  0  0  0  0  0  0  0  0
    3.9493    1.9989    2.6768 O   0  0  0  0  0  0  0  0  0  0  0  0
    4.9170    0.3841   -0.0666 C   0  0  0  0  0  0  0  0  0  0  0  0
    2.5186    1.4288    0.1984 H   0  0  0  0  0  0  0  0  0  0  0  0
    3.8986   -0.9088    1.3309 H   0  0  0  0  0  0  0  0  0  0  0  0
    4.9973    1.4490   -0.3138 H   0  0  0  0  0  0  0  0  0  0  0  0
    5.9237    0.0224    0.1677 H   0  0  0  0  0  0  0  0  0  0  0  0
    4.5663   -0.1396   -0.9624 H   0  0  0  0  0  0  0  0  0  0  0  0
    5.4714    0.2744    2.9842 N   0  0  0  0  0  0  0  0  0  0  0  0
    6.0935    0.8027    4.1758 C   0  0  0  0  0  0  0  0  0  0  0  0
    5.7935   -0.6255    2.6405 H   0  0  0  0  0  0  0  0  0  0  0  0
    6.9635    1.4147    3.8953 H   0  0  0  0  0  0  0  0  0  0  0  0
    5.3693    1.4242    4.7227 H   0  0  0  0  0  0  0  0  0  0  0  0
    6.4216   -0.0285    4.8173 H   0  0  0  0  0  0  0  0  0  0  0  0
  1  3  1  0  0  0  0
  1  7  1  0  0  0  0
  1  2  2  0  0  0  0
 34 35  1  0  0  0  0
 35 43  1  0  0  0  0
 35 36  2  0  0  0  0
  8  9  1  0  0  0  0
  9 17  1  0  0  0  0
  9 10  2  0  0  0  0
 18 19  1  0  0  0  0
 19 33  1  0  0  0  0
 19 20  2  0  0  0  0
 22 23  1  0  0  0  0
 23 24  2  0  0  0  0
 23 25  1  0  0  0  0
 34 37  1  0  0  0  0
  8 11  1  0  0  0  0
 43 44  1  0  0  0  0
 21 22  1  0  0  0  0
 18 21  1  0  0  0  0
 33 34  1  0  0  0  0
  7  8  1  0  0  0  0
 17 18  1  0  0  0  0
  3  4  1  0  0  0  0
  3  5  1  0  0  0  0
  3  6  1  0  0  0  0
 37 40  1  0  0  0  0
 37 41  1  0  0  0  0
 37 42  1  0  0  0  0
 11 14  1  0  0  0  0
 11 15  1  0  0  0  0
 11 16  1  0  0  0  0
 44 46  1  0  0  0  0
 44 47  1  0  0  0  0
 44 48  1  0  0  0  0
 22 30  1  0  0  0  0
 22 31  1  0  0  0  0
 21 28  1  0  0  0  0
 21 29  1  0  0  0  0
 34 39  1  0  0  0  0
  8 13  1  0  0  0  0
 18 27  1  0  0  0  0
 43 45  1  0  0  0  0
  7 12  1  0  0  0  0
 33 38  1  0  0  0  0
 17 26  1  0  0  0  0
 25 32  1  0  0  0  0
M  END
$$$$
