@<TRIPOS>MOLECULE
default_name
   27    26     1     0     0
SMALL
No Charge or Current Charge


@<TRIPOS>ATOM
      1 H1          25.8580    25.3060    24.6910 H          1 ACE       0.112300
      2 CH3         25.9550    26.2270    24.1190 C.3        1 ACE      -0.366200
      3 H2          25.2200    26.9540    24.4580 H          1 ACE       0.112300
      4 H3          25.8140    26.0180    23.0600 H          1 ACE       0.112300
      5 C           27.3400    26.7880    24.3270 C.2        1 ACE       0.597200
      6 O           28.1320    26.2120    25.0610 O.2        1 ACE      -0.567900
      7 N           27.6120    27.9240    23.6950 N.am       2 GLU      -0.516300
      8 H           26.8820    28.3670    23.1590 H          2 GLU       0.293600
      9 CA          28.9030    28.6210    23.7180 C.3        2 GLU       0.039700
     10 HA          29.4710    28.2800    24.5840 H          2 GLU       0.110500
     11 CB          29.7050    28.2410    22.4570 C.3        2 GLU       0.056000
     12 HB2         29.8200    27.1560    22.4460 H          2 GLU      -0.017300
     13 HB3         29.1430    28.5370    21.5700 H          2 GLU      -0.017300
     14 CG          31.1030    28.8800    22.4050 C.3        2 GLU       0.013600
     15 HG2         31.0010    29.9450    22.1830 H          2 GLU      -0.042500
     16 HG3         31.5610    28.7840    23.3930 H          2 GLU      -0.042500
     17 CD          32.0260    28.2440    21.3550 C.2        2 GLU       0.805400
     18 OE1         31.5120    27.7970    20.3050 O.co2      2 GLU      -0.818800
     19 OE2         33.2500    28.2380    21.6140 O.co2      2 GLU      -0.818800
     20 C           28.7000    30.1430    23.8690 C.2        2 GLU       0.536600
     21 O           27.6320    30.6690    23.5490 O.2        2 GLU      -0.581900
     22 N           29.7150    30.8520    24.3800 N.am       3 NME      -0.415700
     23 H           30.5770    30.3620    24.5680 H          3 NME       0.271900
     24 CH3         29.6900    32.3000    24.5700 C.3        3 NME      -0.149000
     25 HH31        28.7900    32.5840    25.1180 H          3 NME       0.097600
     26 HH32        30.5720    32.6210    25.1260 H          3 NME       0.097600
     27 HH33        29.6770    32.7930    23.5960 H          3 NME       0.097600
@<TRIPOS>BOND
     1     5     6 2   
     2     5     7 am  
     3     2     3 1   
     4     2     4 1   
     5     2     5 1   
     6     1     2 1   
     7    20    21 2   
     8    20    22 am  
     9    17    18 1   
    10    17    19 1   
    11    14    15 1   
    12    14    16 1   
    13    14    17 1   
    14    11    12 1   
    15    11    13 1   
    16    11    14 1   
    17     9    10 1   
    18     9    11 1   
    19     9    20 1   
    20     7     8 1   
    21     7     9 1   
    22    24    25 1   
    23    24    26 1   
    24    24    27 1   
    25    22    23 1   
    26    22    24 1   
@<TRIPOS>SUBSTRUCTURE
     1 ACE         1 TEMP              0 ****  ****    0 ROOT
