@<TRIPOS>MOLECULE
default_name
   26    25     1     0     0
SMALL
No Charge or Current Charge


@<TRIPOS>ATOM
      1 H1          26.0020    25.1650    24.5090 H          1 ACE       0.112300
      2 CH3         26.0170    26.1890    24.1370 C.3        1 ACE      -0.366200
      3 H2          25.3920    26.8160    24.7710 H          1 ACE       0.112300
      4 H3          25.6490    26.2130    23.1140 H          1 ACE       0.112300
      5 C           27.4370    26.7020    24.1710 C.2        1 ACE       0.597200
      6 O           28.3420    25.9810    24.5690 O.2        1 ACE      -0.567900
      7 N           27.6300    27.9490    23.7480 N.am       2 ASN      -0.415700
      8 H           26.8280    28.4930    23.4630 H          2 ASN       0.271900
      9 CA          28.9130    28.6580    23.7710 C.3        2 ASN       0.014300
     10 HA          29.4500    28.3750    24.6800 H          2 ASN       0.104800
     11 CB          29.7440    28.2210    22.5440 C.3        2 ASN      -0.204100
     12 HB2         29.7050    27.1360    22.4540 H          2 ASN       0.079700
     13 HB3         29.3110    28.6550    21.6440 H          2 ASN       0.079700
     14 CG          31.2130    28.6040    22.6240 C.2        2 ASN       0.713000
     15 OD1         31.7130    29.1130    23.6120 O.2        2 ASN      -0.593100
     16 ND2         31.9620    28.3790    21.5720 N.am       2 ASN      -0.919100
     17 HD21        32.9320    28.6260    21.6600 H          2 ASN       0.419600
     18 HD22        31.5790    27.9440    20.7540 H          2 ASN       0.419600
     19 C           28.6710    30.1830    23.8120 C.2        2 ASN       0.597300
     20 O           27.5840    30.6420    23.4610 O.2        2 ASN      -0.567900
     21 N           29.6750    30.9620    24.2260 N.am       3 NME      -0.415700
     22 H           30.5610    30.5080    24.4240 H          3 NME       0.271900
     23 CH3         29.6030    32.4180    24.3340 C.3        3 NME      -0.149000
     24 HH31        28.7720    32.6980    24.9850 H          3 NME       0.097600
     25 HH32        30.5330    32.8090    24.7490 H          3 NME       0.097600
     26 HH33        29.4370    32.8530    23.3470 H          3 NME       0.097600
@<TRIPOS>BOND
     1     5     6 2   
     2     5     7 am  
     3     2     3 1   
     4     2     4 1   
     5     2     5 1   
     6     1     2 1   
     7    19    20 2   
     8    19    21 am  
     9    16    17 1   
    10    16    18 1   
    11    14    15 2   
    12    14    16 am  
    13    11    12 1   
    14    11    13 1   
    15    11    14 1   
    16     9    10 1   
    17     9    11 1   
    18     9    19 1   
    19     7     8 1   
    20     7     9 1   
    21    23    24 1   
    22    23    25 1   
    23    23    26 1   
    24    21    22 1   
    25    21    23 1   
@<TRIPOS>SUBSTRUCTURE
     1 ACE         1 TEMP              0 ****  ****    0 ROOT
