default_name
  -OEChem-01062215323D

 28 27  0     1  0  0  0  0  0999 V2000
   -3.2133   -3.5565    1.2809 H   0  0  0  0  0  0  0  0  0  0  0  0
   -3.1873   -2.5755    0.8089 C   0  0  0  0  0  0  0  0  0  0  0  0
   -3.8793   -1.9065    1.3169 H   0  0  0  0  0  0  0  0  0  0  0  0
   -3.4623   -2.6685   -0.2401 H   0  0  0  0  0  0  0  0  0  0  0  0
   -1.7863   -2.0195    0.9119 C   0  0  0  0  0  0  0  0  0  0  0  0
   -0.9073   -2.6615    1.4699 O   0  0  0  0  0  0  0  0  0  0  0  0
   -1.5803   -0.8195    0.3749 N   0  0  0  0  0  0  0  0  0  0  0  0
   -2.3603   -0.3345   -0.0451 H   0  0  0  0  0  0  0  0  0  0  0  0
   -0.2933   -0.1205    0.3719 C   0  0  1  0  0  0  0  0  0  0  0  0
    0.0070    0.0626    1.4046 H   0  0  0  0  0  0  0  0  0  0  0  0
    0.7673   -1.0239   -0.2898 C   0  0  0  0  0  0  0  0  0  0  0  0
    0.3956   -1.3194   -1.2724 H   0  0  0  0  0  0  0  0  0  0  0  0
    1.6869   -0.4544   -0.4321 H   0  0  0  0  0  0  0  0  0  0  0  0
    1.0974   -2.2916    0.5169 C   0  0  0  0  0  0  0  0  0  0  0  0
    1.4899   -2.0169    1.4961 H   0  0  0  0  0  0  0  0  0  0  0  0
    0.1891   -2.8785    0.6487 H   0  0  0  0  0  0  0  0  0  0  0  0
    2.1309   -3.1690   -0.1820 C   0  0  0  0  0  0  0  0  0  0  0  0
    2.5614   -2.9818   -1.3087 O   0  0  0  0  0  0  0  0  0  0  0  0
    2.5681   -4.2265    0.5266 O   0  0  0  0  0  0  0  0  0  0  0  0
    3.1912   -4.6740   -0.0485 H   0  0  0  0  0  0  0  0  0  0  0  0
   -0.4261    1.2387   -0.3335 C   0  0  0  0  0  0  0  0  0  0  0  0
   -1.5082    1.5846   -0.8037 O   0  0  0  0  0  0  0  0  0  0  0  0
    0.6729    1.9982   -0.4162 N   0  0  0  0  0  0  0  0  0  0  0  0
    1.5201    1.6576    0.0134 H   0  0  0  0  0  0  0  0  0  0  0  0
    0.7159    3.3032   -1.0728 C   0  0  0  0  0  0  0  0  0  0  0  0
   -0.0211    3.9689   -0.6200 H   0  0  0  0  0  0  0  0  0  0  0  0
    1.7081    3.7455   -0.9722 H   0  0  0  0  0  0  0  0  0  0  0  0
    0.4769    3.1909   -2.1321 H   0  0  0  0  0  0  0  0  0  0  0  0
  5  6  2  0  0  0  0
  5  7  1  0  0  0  0
  2  3  1  0  0  0  0
  2  4  1  0  0  0  0
  2  5  1  0  0  0  0
  1  2  1  0  0  0  0
 21 22  2  0  0  0  0
 21 23  1  0  0  0  0
 19 20  1  0  0  0  0
 17 18  2  0  0  0  0
 17 19  1  0  0  0  0
 14 15  1  0  0  0  0
 14 16  1  0  0  0  0
 14 17  1  0  0  0  0
 11 12  1  0  0  0  0
 11 13  1  0  0  0  0
 11 14  1  0  0  0  0
  9 10  1  0  0  0  0
  9 11  1  0  0  0  0
  9 21  1  0  0  0  0
  7  8  1  0  0  0  0
  7  9  1  0  0  0  0
 25 26  1  0  0  0  0
 25 27  1  0  0  0  0
 25 28  1  0  0  0  0
 23 24  1  0  0  0  0
 23 25  1  0  0  0  0
M  END
$$$$
default_name
  -OEChem-01062215323D

 28 27  0     1  0  0  0  0  0999 V2000
   -3.2133   -3.5565    1.2809 H   0  0  0  0  0  0  0  0  0  0  0  0
   -3.1873   -2.5755    0.8089 C   0  0  0  0  0  0  0  0  0  0  0  0
   -3.8793   -1.9065    1.3169 H   0  0  0  0  0  0  0  0  0  0  0  0
   -3.4623   -2.6685   -0.2401 H   0  0  0  0  0  0  0  0  0  0  0  0
   -1.7863   -2.0195    0.9119 C   0  0  0  0  0  0  0  0  0  0  0  0
   -0.9073   -2.6615    1.4699 O   0  0  0  0  0  0  0  0  0  0  0  0
   -1.5803   -0.8195    0.3749 N   0  0  0  0  0  0  0  0  0  0  0  0
   -2.3603   -0.3345   -0.0451 H   0  0  0  0  0  0  0  0  0  0  0  0
   -0.2933   -0.1205    0.3719 C   0  0  1  0  0  0  0  0  0  0  0  0
    0.0070    0.0626    1.4046 H   0  0  0  0  0  0  0  0  0  0  0  0
    0.7673   -1.0239   -0.2898 C   0  0  0  0  0  0  0  0  0  0  0  0
    0.3956   -1.3194   -1.2724 H   0  0  0  0  0  0  0  0  0  0  0  0
    1.6869   -0.4544   -0.4321 H   0  0  0  0  0  0  0  0  0  0  0  0
    1.0974   -2.2916    0.5169 C   0  0  0  0  0  0  0  0  0  0  0  0
    1.4899   -2.0169    1.4961 H   0  0  0  0  0  0  0  0  0  0  0  0
    0.1891   -2.8785    0.6487 H   0  0  0  0  0  0  0  0  0  0  0  0
    2.1309   -3.1690   -0.1820 C   0  0  0  0  0  0  0  0  0  0  0  0
    2.5614   -2.9818   -1.3087 O   0  0  0  0  0  0  0  0  0  0  0  0
    2.5681   -4.2265    0.5266 O   0  0  0  0  0  0  0  0  0  0  0  0
    3.1912   -4.6740   -0.0485 H   0  0  0  0  0  0  0  0  0  0  0  0
   -0.4261    1.2387   -0.3335 C   0  0  0  0  0  0  0  0  0  0  0  0
   -1.5396    1.7094   -0.5574 O   0  0  0  0  0  0  0  0  0  0  0  0
    0.7050    1.8584   -0.6915 N   0  0  0  0  0  0  0  0  0  0  0  0
    1.5828    1.4212   -0.4539 H   0  0  0  0  0  0  0  0  0  0  0  0
    0.7470    3.1429   -1.3874 C   0  0  0  0  0  0  0  0  0  0  0  0
    0.2164    3.8970   -0.8033 H   0  0  0  0  0  0  0  0  0  0  0  0
    1.7801    3.4624   -1.5313 H   0  0  0  0  0  0  0  0  0  0  0  0
    0.2591    3.0515   -2.3598 H   0  0  0  0  0  0  0  0  0  0  0  0
  5  6  2  0  0  0  0
  5  7  1  0  0  0  0
  2  3  1  0  0  0  0
  2  4  1  0  0  0  0
  2  5  1  0  0  0  0
  1  2  1  0  0  0  0
 21 22  2  0  0  0  0
 21 23  1  0  0  0  0
 19 20  1  0  0  0  0
 17 18  2  0  0  0  0
 17 19  1  0  0  0  0
 14 15  1  0  0  0  0
 14 16  1  0  0  0  0
 14 17  1  0  0  0  0
 11 12  1  0  0  0  0
 11 13  1  0  0  0  0
 11 14  1  0  0  0  0
  9 10  1  0  0  0  0
  9 11  1  0  0  0  0
  9 21  1  0  0  0  0
  7  8  1  0  0  0  0
  7  9  1  0  0  0  0
 25 26  1  0  0  0  0
 25 27  1  0  0  0  0
 25 28  1  0  0  0  0
 23 24  1  0  0  0  0
 23 25  1  0  0  0  0
M  END
$$$$
default_name
  -OEChem-01062215323D

 28 27  0     1  0  0  0  0  0999 V2000
   -3.2133   -3.5565    1.2809 H   0  0  0  0  0  0  0  0  0  0  0  0
   -3.1873   -2.5755    0.8089 C   0  0  0  0  0  0  0  0  0  0  0  0
   -3.8793   -1.9065    1.3169 H   0  0  0  0  0  0  0  0  0  0  0  0
   -3.4623   -2.6685   -0.2401 H   0  0  0  0  0  0  0  0  0  0  0  0
   -1.7863   -2.0195    0.9119 C   0  0  0  0  0  0  0  0  0  0  0  0
   -0.9073   -2.6615    1.4699 O   0  0  0  0  0  0  0  0  0  0  0  0
   -1.5803   -0.8195    0.3749 N   0  0  0  0  0  0  0  0  0  0  0  0
   -2.3603   -0.3345   -0.0451 H   0  0  0  0  0  0  0  0  0  0  0  0
   -0.2933   -0.1205    0.3719 C   0  0  1  0  0  0  0  0  0  0  0  0
    0.0070    0.0626    1.4046 H   0  0  0  0  0  0  0  0  0  0  0  0
    0.7673   -1.0239   -0.2898 C   0  0  0  0  0  0  0  0  0  0  0  0
    0.3956   -1.3194   -1.2724 H   0  0  0  0  0  0  0  0  0  0  0  0
    1.6869   -0.4544   -0.4321 H   0  0  0  0  0  0  0  0  0  0  0  0
    1.0974   -2.2916    0.5169 C   0  0  0  0  0  0  0  0  0  0  0  0
    1.4899   -2.0169    1.4961 H   0  0  0  0  0  0  0  0  0  0  0  0
    0.1891   -2.8785    0.6487 H   0  0  0  0  0  0  0  0  0  0  0  0
    2.1309   -3.1690   -0.1820 C   0  0  0  0  0  0  0  0  0  0  0  0
    2.5614   -2.9818   -1.3087 O   0  0  0  0  0  0  0  0  0  0  0  0
    2.5681   -4.2265    0.5266 O   0  0  0  0  0  0  0  0  0  0  0  0
    3.1912   -4.6740   -0.0485 H   0  0  0  0  0  0  0  0  0  0  0  0
   -0.4261    1.2387   -0.3335 C   0  0  0  0  0  0  0  0  0  0  0  0
   -1.4988    1.8392   -0.3150 O   0  0  0  0  0  0  0  0  0  0  0  0
    0.6563    1.7135   -0.9616 N   0  0  0  0  0  0  0  0  0  0  0  0
    1.5083    1.1750   -0.9143 H   0  0  0  0  0  0  0  0  0  0  0  0
    0.6859    2.9774   -1.6949 C   0  0  0  0  0  0  0  0  0  0  0  0
    0.3954    3.7953   -1.0330 H   0  0  0  0  0  0  0  0  0  0  0  0
    1.6881    3.1678   -2.0815 H   0  0  0  0  0  0  0  0  0  0  0  0
   -0.0200    2.9375   -2.5268 H   0  0  0  0  0  0  0  0  0  0  0  0
  5  6  2  0  0  0  0
  5  7  1  0  0  0  0
  2  3  1  0  0  0  0
  2  4  1  0  0  0  0
  2  5  1  0  0  0  0
  1  2  1  0  0  0  0
 21 22  2  0  0  0  0
 21 23  1  0  0  0  0
 19 20  1  0  0  0  0
 17 18  2  0  0  0  0
 17 19  1  0  0  0  0
 14 15  1  0  0  0  0
 14 16  1  0  0  0  0
 14 17  1  0  0  0  0
 11 12  1  0  0  0  0
 11 13  1  0  0  0  0
 11 14  1  0  0  0  0
  9 10  1  0  0  0  0
  9 11  1  0  0  0  0
  9 21  1  0  0  0  0
  7  8  1  0  0  0  0
  7  9  1  0  0  0  0
 25 26  1  0  0  0  0
 25 27  1  0  0  0  0
 25 28  1  0  0  0  0
 23 24  1  0  0  0  0
 23 25  1  0  0  0  0
M  END
$$$$
default_name
  -OEChem-01062215323D

 28 27  0     1  0  0  0  0  0999 V2000
   -3.2133   -3.5565    1.2809 H   0  0  0  0  0  0  0  0  0  0  0  0
   -3.1873   -2.5755    0.8089 C   0  0  0  0  0  0  0  0  0  0  0  0
   -3.8793   -1.9065    1.3169 H   0  0  0  0  0  0  0  0  0  0  0  0
   -3.4623   -2.6685   -0.2401 H   0  0  0  0  0  0  0  0  0  0  0  0
   -1.7863   -2.0195    0.9119 C   0  0  0  0  0  0  0  0  0  0  0  0
   -0.9073   -2.6615    1.4699 O   0  0  0  0  0  0  0  0  0  0  0  0
   -1.5803   -0.8195    0.3749 N   0  0  0  0  0  0  0  0  0  0  0  0
   -2.3603   -0.3345   -0.0451 H   0  0  0  0  0  0  0  0  0  0  0  0
   -0.2933   -0.1205    0.3719 C   0  0  1  0  0  0  0  0  0  0  0  0
    0.0070    0.0626    1.4046 H   0  0  0  0  0  0  0  0  0  0  0  0
    0.7673   -1.0239   -0.2898 C   0  0  0  0  0  0  0  0  0  0  0  0
    0.3956   -1.3194   -1.2724 H   0  0  0  0  0  0  0  0  0  0  0  0
    1.6869   -0.4544   -0.4321 H   0  0  0  0  0  0  0  0  0  0  0  0
    1.0974   -2.2916    0.5169 C   0  0  0  0  0  0  0  0  0  0  0  0
    1.4899   -2.0169    1.4961 H   0  0  0  0  0  0  0  0  0  0  0  0
    0.1891   -2.8785    0.6487 H   0  0  0  0  0  0  0  0  0  0  0  0
    2.1309   -3.1690   -0.1820 C   0  0  0  0  0  0  0  0  0  0  0  0
    2.5614   -2.9818   -1.3087 O   0  0  0  0  0  0  0  0  0  0  0  0
    2.5681   -4.2265    0.5266 O   0  0  0  0  0  0  0  0  0  0  0  0
    3.1912   -4.6740   -0.0485 H   0  0  0  0  0  0  0  0  0  0  0  0
   -0.4261    1.2387   -0.3335 C   0  0  0  0  0  0  0  0  0  0  0  0
   -1.3885    1.9651   -0.0932 O   0  0  0  0  0  0  0  0  0  0  0  0
    0.5302    1.5732   -1.2082 N   0  0  0  0  0  0  0  0  0  0  0  0
    1.3018    0.9357   -1.3365 H   0  0  0  0  0  0  0  0  0  0  0  0
    0.5369    2.8179   -1.9742 C   0  0  0  0  0  0  0  0  0  0  0  0
    0.5036    3.6706   -1.2936 H   0  0  0  0  0  0  0  0  0  0  0  0
    1.4383    2.8819   -2.5853 H   0  0  0  0  0  0  0  0  0  0  0  0
   -0.3413    2.8569   -2.6217 H   0  0  0  0  0  0  0  0  0  0  0  0
  5  6  2  0  0  0  0
  5  7  1  0  0  0  0
  2  3  1  0  0  0  0
  2  4  1  0  0  0  0
  2  5  1  0  0  0  0
  1  2  1  0  0  0  0
 21 22  2  0  0  0  0
 21 23  1  0  0  0  0
 19 20  1  0  0  0  0
 17 18  2  0  0  0  0
 17 19  1  0  0  0  0
 14 15  1  0  0  0  0
 14 16  1  0  0  0  0
 14 17  1  0  0  0  0
 11 12  1  0  0  0  0
 11 13  1  0  0  0  0
 11 14  1  0  0  0  0
  9 10  1  0  0  0  0
  9 11  1  0  0  0  0
  9 21  1  0  0  0  0
  7  8  1  0  0  0  0
  7  9  1  0  0  0  0
 25 26  1  0  0  0  0
 25 27  1  0  0  0  0
 25 28  1  0  0  0  0
 23 24  1  0  0  0  0
 23 25  1  0  0  0  0
M  END
$$$$
default_name
  -OEChem-01062215323D

 28 27  0     1  0  0  0  0  0999 V2000
   -3.2133   -3.5565    1.2809 H   0  0  0  0  0  0  0  0  0  0  0  0
   -3.1873   -2.5755    0.8089 C   0  0  0  0  0  0  0  0  0  0  0  0
   -3.8793   -1.9065    1.3169 H   0  0  0  0  0  0  0  0  0  0  0  0
   -3.4623   -2.6685   -0.2401 H   0  0  0  0  0  0  0  0  0  0  0  0
   -1.7863   -2.0195    0.9119 C   0  0  0  0  0  0  0  0  0  0  0  0
   -0.9073   -2.6615    1.4699 O   0  0  0  0  0  0  0  0  0  0  0  0
   -1.5803   -0.8195    0.3749 N   0  0  0  0  0  0  0  0  0  0  0  0
   -2.3603   -0.3345   -0.0451 H   0  0  0  0  0  0  0  0  0  0  0  0
   -0.2933   -0.1205    0.3719 C   0  0  1  0  0  0  0  0  0  0  0  0
    0.0070    0.0626    1.4046 H   0  0  0  0  0  0  0  0  0  0  0  0
    0.7673   -1.0239   -0.2898 C   0  0  0  0  0  0  0  0  0  0  0  0
    0.3956   -1.3194   -1.2724 H   0  0  0  0  0  0  0  0  0  0  0  0
    1.6869   -0.4544   -0.4321 H   0  0  0  0  0  0  0  0  0  0  0  0
    1.0974   -2.2916    0.5169 C   0  0  0  0  0  0  0  0  0  0  0  0
    1.4899   -2.0169    1.4961 H   0  0  0  0  0  0  0  0  0  0  0  0
    0.1891   -2.8785    0.6487 H   0  0  0  0  0  0  0  0  0  0  0  0
    2.1309   -3.1690   -0.1820 C   0  0  0  0  0  0  0  0  0  0  0  0
    2.5614   -2.9818   -1.3087 O   0  0  0  0  0  0  0  0  0  0  0  0
    2.5681   -4.2265    0.5266 O   0  0  0  0  0  0  0  0  0  0  0  0
    3.1912   -4.6740   -0.0485 H   0  0  0  0  0  0  0  0  0  0  0  0
   -0.4261    1.2387   -0.3335 C   0  0  0  0  0  0  0  0  0  0  0  0
   -1.2163    2.0785    0.0930 O   0  0  0  0  0  0  0  0  0  0  0  0
    0.3354    1.4472   -1.4143 N   0  0  0  0  0  0  0  0  0  0  0  0
    0.9772    0.7196   -1.6916 H   0  0  0  0  0  0  0  0  0  0  0  0
    0.3101    2.6752   -2.2063 C   0  0  0  0  0  0  0  0  0  0  0  0
    0.5337    3.5315   -1.5673 H   0  0  0  0  0  0  0  0  0  0  0  0
    1.0478    2.6242   -3.0084 H   0  0  0  0  0  0  0  0  0  0  0  0
   -0.6829    2.8150   -2.6380 H   0  0  0  0  0  0  0  0  0  0  0  0
  5  6  2  0  0  0  0
  5  7  1  0  0  0  0
  2  3  1  0  0  0  0
  2  4  1  0  0  0  0
  2  5  1  0  0  0  0
  1  2  1  0  0  0  0
 21 22  2  0  0  0  0
 21 23  1  0  0  0  0
 19 20  1  0  0  0  0
 17 18  2  0  0  0  0
 17 19  1  0  0  0  0
 14 15  1  0  0  0  0
 14 16  1  0  0  0  0
 14 17  1  0  0  0  0
 11 12  1  0  0  0  0
 11 13  1  0  0  0  0
 11 14  1  0  0  0  0
  9 10  1  0  0  0  0
  9 11  1  0  0  0  0
  9 21  1  0  0  0  0
  7  8  1  0  0  0  0
  7  9  1  0  0  0  0
 25 26  1  0  0  0  0
 25 27  1  0  0  0  0
 25 28  1  0  0  0  0
 23 24  1  0  0  0  0
 23 25  1  0  0  0  0
M  END
$$$$
default_name
  -OEChem-01062215323D

 28 27  0     1  0  0  0  0  0999 V2000
   -3.2133   -3.5565    1.2809 H   0  0  0  0  0  0  0  0  0  0  0  0
   -3.1873   -2.5755    0.8089 C   0  0  0  0  0  0  0  0  0  0  0  0
   -3.8793   -1.9065    1.3169 H   0  0  0  0  0  0  0  0  0  0  0  0
   -3.4623   -2.6685   -0.2401 H   0  0  0  0  0  0  0  0  0  0  0  0
   -1.7863   -2.0195    0.9119 C   0  0  0  0  0  0  0  0  0  0  0  0
   -0.9073   -2.6615    1.4699 O   0  0  0  0  0  0  0  0  0  0  0  0
   -1.5803   -0.8195    0.3749 N   0  0  0  0  0  0  0  0  0  0  0  0
   -2.3603   -0.3345   -0.0451 H   0  0  0  0  0  0  0  0  0  0  0  0
   -0.2933   -0.1205    0.3719 C   0  0  1  0  0  0  0  0  0  0  0  0
    0.0070    0.0626    1.4046 H   0  0  0  0  0  0  0  0  0  0  0  0
    0.7673   -1.0239   -0.2898 C   0  0  0  0  0  0  0  0  0  0  0  0
    0.3956   -1.3194   -1.2724 H   0  0  0  0  0  0  0  0  0  0  0  0
    1.6869   -0.4544   -0.4321 H   0  0  0  0  0  0  0  0  0  0  0  0
    1.0974   -2.2916    0.5169 C   0  0  0  0  0  0  0  0  0  0  0  0
    1.4899   -2.0169    1.4961 H   0  0  0  0  0  0  0  0  0  0  0  0
    0.1891   -2.8785    0.6487 H   0  0  0  0  0  0  0  0  0  0  0  0
    2.1309   -3.1690   -0.1820 C   0  0  0  0  0  0  0  0  0  0  0  0
    2.5614   -2.9818   -1.3087 O   0  0  0  0  0  0  0  0  0  0  0  0
    2.5681   -4.2265    0.5266 O   0  0  0  0  0  0  0  0  0  0  0  0
    3.1912   -4.6740   -0.0485 H   0  0  0  0  0  0  0  0  0  0  0  0
   -0.4261    1.2387   -0.3335 C   0  0  0  0  0  0  0  0  0  0  0  0
   -0.9938    2.1719    0.2309 O   0  0  0  0  0  0  0  0  0  0  0  0
    0.0850    1.3440   -1.5660 N   0  0  0  0  0  0  0  0  0  0  0  0
    0.5568    0.5416   -1.9556 H   0  0  0  0  0  0  0  0  0  0  0  0
    0.0209    2.5592   -2.3754 C   0  0  0  0  0  0  0  0  0  0  0  0
    0.4835    3.3874   -1.8355 H   0  0  0  0  0  0  0  0  0  0  0  0
    0.5431    2.4122   -3.3219 H   0  0  0  0  0  0  0  0  0  0  0  0
   -1.0216    2.8148   -2.5746 H   0  0  0  0  0  0  0  0  0  0  0  0
  5  6  2  0  0  0  0
  5  7  1  0  0  0  0
  2  3  1  0  0  0  0
  2  4  1  0  0  0  0
  2  5  1  0  0  0  0
  1  2  1  0  0  0  0
 21 22  2  0  0  0  0
 21 23  1  0  0  0  0
 19 20  1  0  0  0  0
 17 18  2  0  0  0  0
 17 19  1  0  0  0  0
 14 15  1  0  0  0  0
 14 16  1  0  0  0  0
 14 17  1  0  0  0  0
 11 12  1  0  0  0  0
 11 13  1  0  0  0  0
 11 14  1  0  0  0  0
  9 10  1  0  0  0  0
  9 11  1  0  0  0  0
  9 21  1  0  0  0  0
  7  8  1  0  0  0  0
  7  9  1  0  0  0  0
 25 26  1  0  0  0  0
 25 27  1  0  0  0  0
 25 28  1  0  0  0  0
 23 24  1  0  0  0  0
 23 25  1  0  0  0  0
M  END
$$$$
default_name
  -OEChem-01062215323D

 28 27  0     1  0  0  0  0  0999 V2000
   -3.2133   -3.5565    1.2809 H   0  0  0  0  0  0  0  0  0  0  0  0
   -3.1873   -2.5755    0.8089 C   0  0  0  0  0  0  0  0  0  0  0  0
   -3.8793   -1.9065    1.3169 H   0  0  0  0  0  0  0  0  0  0  0  0
   -3.4623   -2.6685   -0.2401 H   0  0  0  0  0  0  0  0  0  0  0  0
   -1.7863   -2.0195    0.9119 C   0  0  0  0  0  0  0  0  0  0  0  0
   -0.9073   -2.6615    1.4699 O   0  0  0  0  0  0  0  0  0  0  0  0
   -1.5803   -0.8195    0.3749 N   0  0  0  0  0  0  0  0  0  0  0  0
   -2.3603   -0.3345   -0.0451 H   0  0  0  0  0  0  0  0  0  0  0  0
   -0.2933   -0.1205    0.3719 C   0  0  1  0  0  0  0  0  0  0  0  0
    0.0070    0.0626    1.4046 H   0  0  0  0  0  0  0  0  0  0  0  0
    0.7673   -1.0239   -0.2898 C   0  0  0  0  0  0  0  0  0  0  0  0
    0.3956   -1.3194   -1.2724 H   0  0  0  0  0  0  0  0  0  0  0  0
    1.6869   -0.4544   -0.4321 H   0  0  0  0  0  0  0  0  0  0  0  0
    1.0974   -2.2916    0.5169 C   0  0  0  0  0  0  0  0  0  0  0  0
    1.4899   -2.0169    1.4961 H   0  0  0  0  0  0  0  0  0  0  0  0
    0.1891   -2.8785    0.6487 H   0  0  0  0  0  0  0  0  0  0  0  0
    2.1309   -3.1690   -0.1820 C   0  0  0  0  0  0  0  0  0  0  0  0
    2.5614   -2.9818   -1.3087 O   0  0  0  0  0  0  0  0  0  0  0  0
    2.5681   -4.2265    0.5266 O   0  0  0  0  0  0  0  0  0  0  0  0
    3.1912   -4.6740   -0.0485 H   0  0  0  0  0  0  0  0  0  0  0  0
   -0.4261    1.2387   -0.3335 C   0  0  0  0  0  0  0  0  0  0  0  0
   -0.7363    2.2387    0.3111 O   0  0  0  0  0  0  0  0  0  0  0  0
   -0.2038    1.2706   -1.6530 N   0  0  0  0  0  0  0  0  0  0  0  0
    0.0691    0.4136   -2.1104 H   0  0  0  0  0  0  0  0  0  0  0  0
   -0.3108    2.4777   -2.4700 C   0  0  0  0  0  0  0  0  0  0  0  0
    0.3566    3.2482   -2.0798 H   0  0  0  0  0  0  0  0  0  0  0  0
   -0.0413    2.2603   -3.5045 H   0  0  0  0  0  0  0  0  0  0  0  0
   -1.3343    2.8563   -2.4359 H   0  0  0  0  0  0  0  0  0  0  0  0
  5  6  2  0  0  0  0
  5  7  1  0  0  0  0
  2  3  1  0  0  0  0
  2  4  1  0  0  0  0
  2  5  1  0  0  0  0
  1  2  1  0  0  0  0
 21 22  2  0  0  0  0
 21 23  1  0  0  0  0
 19 20  1  0  0  0  0
 17 18  2  0  0  0  0
 17 19  1  0  0  0  0
 14 15  1  0  0  0  0
 14 16  1  0  0  0  0
 14 17  1  0  0  0  0
 11 12  1  0  0  0  0
 11 13  1  0  0  0  0
 11 14  1  0  0  0  0
  9 10  1  0  0  0  0
  9 11  1  0  0  0  0
  9 21  1  0  0  0  0
  7  8  1  0  0  0  0
  7  9  1  0  0  0  0
 25 26  1  0  0  0  0
 25 27  1  0  0  0  0
 25 28  1  0  0  0  0
 23 24  1  0  0  0  0
 23 25  1  0  0  0  0
M  END
$$$$
default_name
  -OEChem-01062215323D

 28 27  0     1  0  0  0  0  0999 V2000
   -3.2133   -3.5565    1.2809 H   0  0  0  0  0  0  0  0  0  0  0  0
   -3.1873   -2.5755    0.8089 C   0  0  0  0  0  0  0  0  0  0  0  0
   -3.8793   -1.9065    1.3169 H   0  0  0  0  0  0  0  0  0  0  0  0
   -3.4623   -2.6685   -0.2401 H   0  0  0  0  0  0  0  0  0  0  0  0
   -1.7863   -2.0195    0.9119 C   0  0  0  0  0  0  0  0  0  0  0  0
   -0.9073   -2.6615    1.4699 O   0  0  0  0  0  0  0  0  0  0  0  0
   -1.5803   -0.8195    0.3749 N   0  0  0  0  0  0  0  0  0  0  0  0
   -2.3603   -0.3345   -0.0451 H   0  0  0  0  0  0  0  0  0  0  0  0
   -0.2933   -0.1205    0.3719 C   0  0  1  0  0  0  0  0  0  0  0  0
    0.0070    0.0626    1.4046 H   0  0  0  0  0  0  0  0  0  0  0  0
    0.7673   -1.0239   -0.2898 C   0  0  0  0  0  0  0  0  0  0  0  0
    0.3956   -1.3194   -1.2724 H   0  0  0  0  0  0  0  0  0  0  0  0
    1.6869   -0.4544   -0.4321 H   0  0  0  0  0  0  0  0  0  0  0  0
    1.0974   -2.2916    0.5169 C   0  0  0  0  0  0  0  0  0  0  0  0
    1.4899   -2.0169    1.4961 H   0  0  0  0  0  0  0  0  0  0  0  0
    0.1891   -2.8785    0.6487 H   0  0  0  0  0  0  0  0  0  0  0  0
    2.1309   -3.1690   -0.1820 C   0  0  0  0  0  0  0  0  0  0  0  0
    2.5614   -2.9818   -1.3087 O   0  0  0  0  0  0  0  0  0  0  0  0
    2.5681   -4.2265    0.5266 O   0  0  0  0  0  0  0  0  0  0  0  0
    3.1912   -4.6740   -0.0485 H   0  0  0  0  0  0  0  0  0  0  0  0
   -0.4261    1.2387   -0.3335 C   0  0  0  0  0  0  0  0  0  0  0  0
   -0.4612    2.2744    0.3282 O   0  0  0  0  0  0  0  0  0  0  0  0
   -0.5114    1.2322   -1.6692 N   0  0  0  0  0  0  0  0  0  0  0  0
   -0.4525    0.3444   -2.1454 H   0  0  0  0  0  0  0  0  0  0  0  0
   -0.6626    2.4363   -2.4836 C   0  0  0  0  0  0  0  0  0  0  0  0
    0.1616    3.1234   -2.2836 H   0  0  0  0  0  0  0  0  0  0  0  0
   -0.6657    2.1790   -3.5437 H   0  0  0  0  0  0  0  0  0  0  0  0
   -1.5997    2.9366   -2.2312 H   0  0  0  0  0  0  0  0  0  0  0  0
  5  6  2  0  0  0  0
  5  7  1  0  0  0  0
  2  3  1  0  0  0  0
  2  4  1  0  0  0  0
  2  5  1  0  0  0  0
  1  2  1  0  0  0  0
 21 22  2  0  0  0  0
 21 23  1  0  0  0  0
 19 20  1  0  0  0  0
 17 18  2  0  0  0  0
 17 19  1  0  0  0  0
 14 15  1  0  0  0  0
 14 16  1  0  0  0  0
 14 17  1  0  0  0  0
 11 12  1  0  0  0  0
 11 13  1  0  0  0  0
 11 14  1  0  0  0  0
  9 10  1  0  0  0  0
  9 11  1  0  0  0  0
  9 21  1  0  0  0  0
  7  8  1  0  0  0  0
  7  9  1  0  0  0  0
 25 26  1  0  0  0  0
 25 27  1  0  0  0  0
 25 28  1  0  0  0  0
 23 24  1  0  0  0  0
 23 25  1  0  0  0  0
M  END
$$$$
default_name
  -OEChem-01062215323D

 28 27  0     1  0  0  0  0  0999 V2000
   -3.2133   -3.5565    1.2809 H   0  0  0  0  0  0  0  0  0  0  0  0
   -3.1873   -2.5755    0.8089 C   0  0  0  0  0  0  0  0  0  0  0  0
   -3.8793   -1.9065    1.3169 H   0  0  0  0  0  0  0  0  0  0  0  0
   -3.4623   -2.6685   -0.2401 H   0  0  0  0  0  0  0  0  0  0  0  0
   -1.7863   -2.0195    0.9119 C   0  0  0  0  0  0  0  0  0  0  0  0
   -0.9073   -2.6615    1.4699 O   0  0  0  0  0  0  0  0  0  0  0  0
   -1.5803   -0.8195    0.3749 N   0  0  0  0  0  0  0  0  0  0  0  0
   -2.3603   -0.3345   -0.0451 H   0  0  0  0  0  0  0  0  0  0  0  0
   -0.2933   -0.1205    0.3719 C   0  0  1  0  0  0  0  0  0  0  0  0
    0.0070    0.0626    1.4046 H   0  0  0  0  0  0  0  0  0  0  0  0
    0.7673   -1.0239   -0.2898 C   0  0  0  0  0  0  0  0  0  0  0  0
    0.3956   -1.3194   -1.2724 H   0  0  0  0  0  0  0  0  0  0  0  0
    1.6869   -0.4544   -0.4321 H   0  0  0  0  0  0  0  0  0  0  0  0
    1.0974   -2.2916    0.5169 C   0  0  0  0  0  0  0  0  0  0  0  0
    1.4899   -2.0169    1.4961 H   0  0  0  0  0  0  0  0  0  0  0  0
    0.1891   -2.8785    0.6487 H   0  0  0  0  0  0  0  0  0  0  0  0
    2.1309   -3.1690   -0.1820 C   0  0  0  0  0  0  0  0  0  0  0  0
    2.5614   -2.9818   -1.3087 O   0  0  0  0  0  0  0  0  0  0  0  0
    2.5681   -4.2265    0.5266 O   0  0  0  0  0  0  0  0  0  0  0  0
    3.1912   -4.6740   -0.0485 H   0  0  0  0  0  0  0  0  0  0  0  0
   -0.4261    1.2387   -0.3335 C   0  0  0  0  0  0  0  0  0  0  0  0
   -0.1874    2.2766    0.2809 O   0  0  0  0  0  0  0  0  0  0  0  0
   -0.8167    1.2312   -1.6137 N   0  0  0  0  0  0  0  0  0  0  0  0
   -0.9726    0.3388   -2.0583 H   0  0  0  0  0  0  0  0  0  0  0  0
   -1.0105    2.4378   -2.4153 C   0  0  0  0  0  0  0  0  0  0  0  0
   -0.0883    3.0214   -2.4331 H   0  0  0  0  0  0  0  0  0  0  0  0
   -1.2873    2.1737   -3.4369 H   0  0  0  0  0  0  0  0  0  0  0  0
   -1.7996    3.0502   -1.9746 H   0  0  0  0  0  0  0  0  0  0  0  0
  5  6  2  0  0  0  0
  5  7  1  0  0  0  0
  2  3  1  0  0  0  0
  2  4  1  0  0  0  0
  2  5  1  0  0  0  0
  1  2  1  0  0  0  0
 21 22  2  0  0  0  0
 21 23  1  0  0  0  0
 19 20  1  0  0  0  0
 17 18  2  0  0  0  0
 17 19  1  0  0  0  0
 14 15  1  0  0  0  0
 14 16  1  0  0  0  0
 14 17  1  0  0  0  0
 11 12  1  0  0  0  0
 11 13  1  0  0  0  0
 11 14  1  0  0  0  0
  9 10  1  0  0  0  0
  9 11  1  0  0  0  0
  9 21  1  0  0  0  0
  7  8  1  0  0  0  0
  7  9  1  0  0  0  0
 25 26  1  0  0  0  0
 25 27  1  0  0  0  0
 25 28  1  0  0  0  0
 23 24  1  0  0  0  0
 23 25  1  0  0  0  0
M  END
$$$$
default_name
  -OEChem-01062215323D

 28 27  0     1  0  0  0  0  0999 V2000
   -3.2133   -3.5565    1.2809 H   0  0  0  0  0  0  0  0  0  0  0  0
   -3.1873   -2.5755    0.8089 C   0  0  0  0  0  0  0  0  0  0  0  0
   -3.8793   -1.9065    1.3169 H   0  0  0  0  0  0  0  0  0  0  0  0
   -3.4623   -2.6685   -0.2401 H   0  0  0  0  0  0  0  0  0  0  0  0
   -1.7863   -2.0195    0.9119 C   0  0  0  0  0  0  0  0  0  0  0  0
   -0.9073   -2.6615    1.4699 O   0  0  0  0  0  0  0  0  0  0  0  0
   -1.5803   -0.8195    0.3749 N   0  0  0  0  0  0  0  0  0  0  0  0
   -2.3603   -0.3345   -0.0451 H   0  0  0  0  0  0  0  0  0  0  0  0
   -0.2933   -0.1205    0.3719 C   0  0  1  0  0  0  0  0  0  0  0  0
    0.0070    0.0626    1.4046 H   0  0  0  0  0  0  0  0  0  0  0  0
    0.7673   -1.0239   -0.2898 C   0  0  0  0  0  0  0  0  0  0  0  0
    0.3956   -1.3194   -1.2724 H   0  0  0  0  0  0  0  0  0  0  0  0
    1.6869   -0.4544   -0.4321 H   0  0  0  0  0  0  0  0  0  0  0  0
    1.0974   -2.2916    0.5169 C   0  0  0  0  0  0  0  0  0  0  0  0
    1.4899   -2.0169    1.4961 H   0  0  0  0  0  0  0  0  0  0  0  0
    0.1891   -2.8785    0.6487 H   0  0  0  0  0  0  0  0  0  0  0  0
    2.1309   -3.1690   -0.1820 C   0  0  0  0  0  0  0  0  0  0  0  0
    2.5614   -2.9818   -1.3087 O   0  0  0  0  0  0  0  0  0  0  0  0
    2.5681   -4.2265    0.5266 O   0  0  0  0  0  0  0  0  0  0  0  0
    3.1912   -4.6740   -0.0485 H   0  0  0  0  0  0  0  0  0  0  0  0
   -0.4261    1.2387   -0.3335 C   0  0  0  0  0  0  0  0  0  0  0  0
    0.0666    2.2451    0.1725 O   0  0  0  0  0  0  0  0  0  0  0  0
   -1.0991    1.2677   -1.4901 N   0  0  0  0  0  0  0  0  0  0  0  0
   -1.4558    0.3971   -1.8549 H   0  0  0  0  0  0  0  0  0  0  0  0
   -1.3306    2.4820   -2.2697 C   0  0  0  0  0  0  0  0  0  0  0  0
   -0.3759    2.9492   -2.5180 H   0  0  0  0  0  0  0  0  0  0  0  0
   -1.8640    2.2448   -3.1913 H   0  0  0  0  0  0  0  0  0  0  0  0
   -1.9205    3.1895   -1.6836 H   0  0  0  0  0  0  0  0  0  0  0  0
  5  6  2  0  0  0  0
  5  7  1  0  0  0  0
  2  3  1  0  0  0  0
  2  4  1  0  0  0  0
  2  5  1  0  0  0  0
  1  2  1  0  0  0  0
 21 22  2  0  0  0  0
 21 23  1  0  0  0  0
 19 20  1  0  0  0  0
 17 18  2  0  0  0  0
 17 19  1  0  0  0  0
 14 15  1  0  0  0  0
 14 16  1  0  0  0  0
 14 17  1  0  0  0  0
 11 12  1  0  0  0  0
 11 13  1  0  0  0  0
 11 14  1  0  0  0  0
  9 10  1  0  0  0  0
  9 11  1  0  0  0  0
  9 21  1  0  0  0  0
  7  8  1  0  0  0  0
  7  9  1  0  0  0  0
 25 26  1  0  0  0  0
 25 27  1  0  0  0  0
 25 28  1  0  0  0  0
 23 24  1  0  0  0  0
 23 25  1  0  0  0  0
M  END
$$$$
default_name
  -OEChem-01062215323D

 28 27  0     1  0  0  0  0  0999 V2000
   -3.2133   -3.5565    1.2809 H   0  0  0  0  0  0  0  0  0  0  0  0
   -3.1873   -2.5755    0.8089 C   0  0  0  0  0  0  0  0  0  0  0  0
   -3.8793   -1.9065    1.3169 H   0  0  0  0  0  0  0  0  0  0  0  0
   -3.4623   -2.6685   -0.2401 H   0  0  0  0  0  0  0  0  0  0  0  0
   -1.7863   -2.0195    0.9119 C   0  0  0  0  0  0  0  0  0  0  0  0
   -0.9073   -2.6615    1.4699 O   0  0  0  0  0  0  0  0  0  0  0  0
   -1.5803   -0.8195    0.3749 N   0  0  0  0  0  0  0  0  0  0  0  0
   -2.3603   -0.3345   -0.0451 H   0  0  0  0  0  0  0  0  0  0  0  0
   -0.2933   -0.1205    0.3719 C   0  0  1  0  0  0  0  0  0  0  0  0
    0.0070    0.0626    1.4046 H   0  0  0  0  0  0  0  0  0  0  0  0
    0.7673   -1.0239   -0.2898 C   0  0  0  0  0  0  0  0  0  0  0  0
    0.3956   -1.3194   -1.2724 H   0  0  0  0  0  0  0  0  0  0  0  0
    1.6869   -0.4544   -0.4321 H   0  0  0  0  0  0  0  0  0  0  0  0
    1.0974   -2.2916    0.5169 C   0  0  0  0  0  0  0  0  0  0  0  0
    1.4899   -2.0169    1.4961 H   0  0  0  0  0  0  0  0  0  0  0  0
    0.1891   -2.8785    0.6487 H   0  0  0  0  0  0  0  0  0  0  0  0
    2.1309   -3.1690   -0.1820 C   0  0  0  0  0  0  0  0  0  0  0  0
    2.5614   -2.9818   -1.3087 O   0  0  0  0  0  0  0  0  0  0  0  0
    2.5681   -4.2265    0.5266 O   0  0  0  0  0  0  0  0  0  0  0  0
    3.1912   -4.6740   -0.0485 H   0  0  0  0  0  0  0  0  0  0  0  0
   -0.4261    1.2387   -0.3335 C   0  0  0  0  0  0  0  0  0  0  0  0
    0.2833    2.1822    0.0104 O   0  0  0  0  0  0  0  0  0  0  0  0
   -1.3392    1.3393   -1.3069 N   0  0  0  0  0  0  0  0  0  0  0  0
   -1.8690    0.5154   -1.5493 H   0  0  0  0  0  0  0  0  0  0  0  0
   -1.6013    2.5661   -2.0568 C   0  0  0  0  0  0  0  0  0  0  0  0
   -0.6818    2.9118   -2.5325 H   0  0  0  0  0  0  0  0  0  0  0  0
   -2.3564    2.3875   -2.8237 H   0  0  0  0  0  0  0  0  0  0  0  0
   -1.9541    3.3448   -1.3779 H   0  0  0  0  0  0  0  0  0  0  0  0
  5  6  2  0  0  0  0
  5  7  1  0  0  0  0
  2  3  1  0  0  0  0
  2  4  1  0  0  0  0
  2  5  1  0  0  0  0
  1  2  1  0  0  0  0
 21 22  2  0  0  0  0
 21 23  1  0  0  0  0
 19 20  1  0  0  0  0
 17 18  2  0  0  0  0
 17 19  1  0  0  0  0
 14 15  1  0  0  0  0
 14 16  1  0  0  0  0
 14 17  1  0  0  0  0
 11 12  1  0  0  0  0
 11 13  1  0  0  0  0
 11 14  1  0  0  0  0
  9 10  1  0  0  0  0
  9 11  1  0  0  0  0
  9 21  1  0  0  0  0
  7  8  1  0  0  0  0
  7  9  1  0  0  0  0
 25 26  1  0  0  0  0
 25 27  1  0  0  0  0
 25 28  1  0  0  0  0
 23 24  1  0  0  0  0
 23 25  1  0  0  0  0
M  END
$$$$
default_name
  -OEChem-01062215323D

 28 27  0     1  0  0  0  0  0999 V2000
   -3.2133   -3.5565    1.2809 H   0  0  0  0  0  0  0  0  0  0  0  0
   -3.1873   -2.5755    0.8089 C   0  0  0  0  0  0  0  0  0  0  0  0
   -3.8793   -1.9065    1.3169 H   0  0  0  0  0  0  0  0  0  0  0  0
   -3.4623   -2.6685   -0.2401 H   0  0  0  0  0  0  0  0  0  0  0  0
   -1.7863   -2.0195    0.9119 C   0  0  0  0  0  0  0  0  0  0  0  0
   -0.9073   -2.6615    1.4699 O   0  0  0  0  0  0  0  0  0  0  0  0
   -1.5803   -0.8195    0.3749 N   0  0  0  0  0  0  0  0  0  0  0  0
   -2.3603   -0.3345   -0.0451 H   0  0  0  0  0  0  0  0  0  0  0  0
   -0.2933   -0.1205    0.3719 C   0  0  1  0  0  0  0  0  0  0  0  0
    0.0070    0.0626    1.4046 H   0  0  0  0  0  0  0  0  0  0  0  0
    0.7673   -1.0239   -0.2898 C   0  0  0  0  0  0  0  0  0  0  0  0
    0.3956   -1.3194   -1.2724 H   0  0  0  0  0  0  0  0  0  0  0  0
    1.6869   -0.4544   -0.4321 H   0  0  0  0  0  0  0  0  0  0  0  0
    1.0974   -2.2916    0.5169 C   0  0  0  0  0  0  0  0  0  0  0  0
    1.4899   -2.0169    1.4961 H   0  0  0  0  0  0  0  0  0  0  0  0
    0.1891   -2.8785    0.6487 H   0  0  0  0  0  0  0  0  0  0  0  0
    2.1309   -3.1690   -0.1820 C   0  0  0  0  0  0  0  0  0  0  0  0
    2.5614   -2.9818   -1.3087 O   0  0  0  0  0  0  0  0  0  0  0  0
    2.5681   -4.2265    0.5266 O   0  0  0  0  0  0  0  0  0  0  0  0
    3.1912   -4.6740   -0.0485 H   0  0  0  0  0  0  0  0  0  0  0  0
   -0.4261    1.2387   -0.3335 C   0  0  0  0  0  0  0  0  0  0  0  0
    0.4481    2.0920   -0.1944 O   0  0  0  0  0  0  0  0  0  0  0  0
   -1.5208    1.4411   -1.0766 N   0  0  0  0  0  0  0  0  0  0  0  0
   -2.1841    0.6856   -1.1622 H   0  0  0  0  0  0  0  0  0  0  0  0
   -1.8041    2.6841   -1.7911 C   0  0  0  0  0  0  0  0  0  0  0  0
   -0.9850    2.9116   -2.4758 H   0  0  0  0  0  0  0  0  0  0  0  0
   -2.7309    2.5920   -2.3591 H   0  0  0  0  0  0  0  0  0  0  0  0
   -1.8982    3.5058   -1.0783 H   0  0  0  0  0  0  0  0  0  0  0  0
  5  6  2  0  0  0  0
  5  7  1  0  0  0  0
  2  3  1  0  0  0  0
  2  4  1  0  0  0  0
  2  5  1  0  0  0  0
  1  2  1  0  0  0  0
 21 22  2  0  0  0  0
 21 23  1  0  0  0  0
 19 20  1  0  0  0  0
 17 18  2  0  0  0  0
 17 19  1  0  0  0  0
 14 15  1  0  0  0  0
 14 16  1  0  0  0  0
 14 17  1  0  0  0  0
 11 12  1  0  0  0  0
 11 13  1  0  0  0  0
 11 14  1  0  0  0  0
  9 10  1  0  0  0  0
  9 11  1  0  0  0  0
  9 21  1  0  0  0  0
  7  8  1  0  0  0  0
  7  9  1  0  0  0  0
 25 26  1  0  0  0  0
 25 27  1  0  0  0  0
 25 28  1  0  0  0  0
 23 24  1  0  0  0  0
 23 25  1  0  0  0  0
M  END
$$$$
default_name
  -OEChem-01062215323D

 28 27  0     1  0  0  0  0  0999 V2000
   -3.2133   -3.5565    1.2809 H   0  0  0  0  0  0  0  0  0  0  0  0
   -3.1873   -2.5755    0.8089 C   0  0  0  0  0  0  0  0  0  0  0  0
   -3.8793   -1.9065    1.3169 H   0  0  0  0  0  0  0  0  0  0  0  0
   -3.4623   -2.6685   -0.2401 H   0  0  0  0  0  0  0  0  0  0  0  0
   -1.7863   -2.0195    0.9119 C   0  0  0  0  0  0  0  0  0  0  0  0
   -0.9073   -2.6615    1.4699 O   0  0  0  0  0  0  0  0  0  0  0  0
   -1.5803   -0.8195    0.3749 N   0  0  0  0  0  0  0  0  0  0  0  0
   -2.3603   -0.3345   -0.0451 H   0  0  0  0  0  0  0  0  0  0  0  0
   -0.2933   -0.1205    0.3719 C   0  0  1  0  0  0  0  0  0  0  0  0
    0.0070    0.0626    1.4046 H   0  0  0  0  0  0  0  0  0  0  0  0
    0.7673   -1.0239   -0.2898 C   0  0  0  0  0  0  0  0  0  0  0  0
    0.3956   -1.3194   -1.2724 H   0  0  0  0  0  0  0  0  0  0  0  0
    1.6869   -0.4544   -0.4321 H   0  0  0  0  0  0  0  0  0  0  0  0
    1.0974   -2.2916    0.5169 C   0  0  0  0  0  0  0  0  0  0  0  0
    1.4899   -2.0169    1.4961 H   0  0  0  0  0  0  0  0  0  0  0  0
    0.1891   -2.8785    0.6487 H   0  0  0  0  0  0  0  0  0  0  0  0
    2.1309   -3.1690   -0.1820 C   0  0  0  0  0  0  0  0  0  0  0  0
    2.5614   -2.9818   -1.3087 O   0  0  0  0  0  0  0  0  0  0  0  0
    2.5681   -4.2265    0.5266 O   0  0  0  0  0  0  0  0  0  0  0  0
    3.1912   -4.6740   -0.0485 H   0  0  0  0  0  0  0  0  0  0  0  0
   -0.4261    1.2387   -0.3335 C   0  0  0  0  0  0  0  0  0  0  0  0
    0.5497    1.9807   -0.4279 O   0  0  0  0  0  0  0  0  0  0  0  0
   -1.6313    1.5661   -0.8149 N   0  0  0  0  0  0  0  0  0  0  0  0
   -2.3797    0.8960   -0.7199 H   0  0  0  0  0  0  0  0  0  0  0  0
   -1.9252    2.8282   -1.4907 C   0  0  0  0  0  0  0  0  0  0  0  0
   -1.2649    2.9487   -2.3515 H   0  0  0  0  0  0  0  0  0  0  0  0
   -2.9621    2.8444   -1.8292 H   0  0  0  0  0  0  0  0  0  0  0  0
   -1.7565    3.6613   -0.8054 H   0  0  0  0  0  0  0  0  0  0  0  0
  5  6  2  0  0  0  0
  5  7  1  0  0  0  0
  2  3  1  0  0  0  0
  2  4  1  0  0  0  0
  2  5  1  0  0  0  0
  1  2  1  0  0  0  0
 21 22  2  0  0  0  0
 21 23  1  0  0  0  0
 19 20  1  0  0  0  0
 17 18  2  0  0  0  0
 17 19  1  0  0  0  0
 14 15  1  0  0  0  0
 14 16  1  0  0  0  0
 14 17  1  0  0  0  0
 11 12  1  0  0  0  0
 11 13  1  0  0  0  0
 11 14  1  0  0  0  0
  9 10  1  0  0  0  0
  9 11  1  0  0  0  0
  9 21  1  0  0  0  0
  7  8  1  0  0  0  0
  7  9  1  0  0  0  0
 25 26  1  0  0  0  0
 25 27  1  0  0  0  0
 25 28  1  0  0  0  0
 23 24  1  0  0  0  0
 23 25  1  0  0  0  0
M  END
$$$$
default_name
  -OEChem-01062215323D

 28 27  0     1  0  0  0  0  0999 V2000
   -3.2133   -3.5565    1.2809 H   0  0  0  0  0  0  0  0  0  0  0  0
   -3.1873   -2.5755    0.8089 C   0  0  0  0  0  0  0  0  0  0  0  0
   -3.8793   -1.9065    1.3169 H   0  0  0  0  0  0  0  0  0  0  0  0
   -3.4623   -2.6685   -0.2401 H   0  0  0  0  0  0  0  0  0  0  0  0
   -1.7863   -2.0195    0.9119 C   0  0  0  0  0  0  0  0  0  0  0  0
   -0.9073   -2.6615    1.4699 O   0  0  0  0  0  0  0  0  0  0  0  0
   -1.5803   -0.8195    0.3749 N   0  0  0  0  0  0  0  0  0  0  0  0
   -2.3603   -0.3345   -0.0451 H   0  0  0  0  0  0  0  0  0  0  0  0
   -0.2933   -0.1205    0.3719 C   0  0  1  0  0  0  0  0  0  0  0  0
    0.0070    0.0626    1.4046 H   0  0  0  0  0  0  0  0  0  0  0  0
    0.7673   -1.0239   -0.2898 C   0  0  0  0  0  0  0  0  0  0  0  0
    0.3956   -1.3194   -1.2724 H   0  0  0  0  0  0  0  0  0  0  0  0
    1.6869   -0.4544   -0.4321 H   0  0  0  0  0  0  0  0  0  0  0  0
    1.0974   -2.2916    0.5169 C   0  0  0  0  0  0  0  0  0  0  0  0
    1.4899   -2.0169    1.4961 H   0  0  0  0  0  0  0  0  0  0  0  0
    0.1891   -2.8785    0.6487 H   0  0  0  0  0  0  0  0  0  0  0  0
    2.1309   -3.1690   -0.1820 C   0  0  0  0  0  0  0  0  0  0  0  0
    2.5614   -2.9818   -1.3087 O   0  0  0  0  0  0  0  0  0  0  0  0
    2.5681   -4.2265    0.5266 O   0  0  0  0  0  0  0  0  0  0  0  0
    3.1912   -4.6740   -0.0485 H   0  0  0  0  0  0  0  0  0  0  0  0
   -0.4261    1.2387   -0.3335 C   0  0  0  0  0  0  0  0  0  0  0  0
    0.5812    1.8559   -0.6743 O   0  0  0  0  0  0  0  0  0  0  0  0
   -1.6633    1.7059   -0.5396 N   0  0  0  0  0  0  0  0  0  0  0  0
   -2.4424    1.1324   -0.2526 H   0  0  0  0  0  0  0  0  0  0  0  0
   -1.9562    2.9885   -1.1761 C   0  0  0  0  0  0  0  0  0  0  0  0
   -1.5025    3.0206   -2.1683 H   0  0  0  0  0  0  0  0  0  0  0  0
   -3.0341    3.1276   -1.2701 H   0  0  0  0  0  0  0  0  0  0  0  0
   -1.5387    3.8007   -0.5777 H   0  0  0  0  0  0  0  0  0  0  0  0
  5  6  2  0  0  0  0
  5  7  1  0  0  0  0
  2  3  1  0  0  0  0
  2  4  1  0  0  0  0
  2  5  1  0  0  0  0
  1  2  1  0  0  0  0
 21 22  2  0  0  0  0
 21 23  1  0  0  0  0
 19 20  1  0  0  0  0
 17 18  2  0  0  0  0
 17 19  1  0  0  0  0
 14 15  1  0  0  0  0
 14 16  1  0  0  0  0
 14 17  1  0  0  0  0
 11 12  1  0  0  0  0
 11 13  1  0  0  0  0
 11 14  1  0  0  0  0
  9 10  1  0  0  0  0
  9 11  1  0  0  0  0
  9 21  1  0  0  0  0
  7  8  1  0  0  0  0
  7  9  1  0  0  0  0
 25 26  1  0  0  0  0
 25 27  1  0  0  0  0
 25 28  1  0  0  0  0
 23 24  1  0  0  0  0
 23 25  1  0  0  0  0
M  END
$$$$
default_name
  -OEChem-01062215323D

 28 27  0     1  0  0  0  0  0999 V2000
   -3.2133   -3.5565    1.2809 H   0  0  0  0  0  0  0  0  0  0  0  0
   -3.1873   -2.5755    0.8089 C   0  0  0  0  0  0  0  0  0  0  0  0
   -3.8793   -1.9065    1.3169 H   0  0  0  0  0  0  0  0  0  0  0  0
   -3.4623   -2.6685   -0.2401 H   0  0  0  0  0  0  0  0  0  0  0  0
   -1.7863   -2.0195    0.9119 C   0  0  0  0  0  0  0  0  0  0  0  0
   -0.9073   -2.6615    1.4699 O   0  0  0  0  0  0  0  0  0  0  0  0
   -1.5803   -0.8195    0.3749 N   0  0  0  0  0  0  0  0  0  0  0  0
   -2.3603   -0.3345   -0.0451 H   0  0  0  0  0  0  0  0  0  0  0  0
   -0.2933   -0.1205    0.3719 C   0  0  1  0  0  0  0  0  0  0  0  0
    0.0070    0.0626    1.4046 H   0  0  0  0  0  0  0  0  0  0  0  0
    0.7673   -1.0239   -0.2898 C   0  0  0  0  0  0  0  0  0  0  0  0
    0.3956   -1.3194   -1.2724 H   0  0  0  0  0  0  0  0  0  0  0  0
    1.6869   -0.4544   -0.4321 H   0  0  0  0  0  0  0  0  0  0  0  0
    1.0974   -2.2916    0.5169 C   0  0  0  0  0  0  0  0  0  0  0  0
    1.4899   -2.0169    1.4961 H   0  0  0  0  0  0  0  0  0  0  0  0
    0.1891   -2.8785    0.6487 H   0  0  0  0  0  0  0  0  0  0  0  0
    2.1309   -3.1690   -0.1820 C   0  0  0  0  0  0  0  0  0  0  0  0
    2.5614   -2.9818   -1.3087 O   0  0  0  0  0  0  0  0  0  0  0  0
    2.5681   -4.2265    0.5266 O   0  0  0  0  0  0  0  0  0  0  0  0
    3.1912   -4.6740   -0.0485 H   0  0  0  0  0  0  0  0  0  0  0  0
   -0.4261    1.2387   -0.3335 C   0  0  0  0  0  0  0  0  0  0  0  0
    0.5404    1.7262   -0.9166 O   0  0  0  0  0  0  0  0  0  0  0  0
   -1.6147    1.8508   -0.2695 N   0  0  0  0  0  0  0  0  0  0  0  0
   -2.3679    1.3786    0.2078 H   0  0  0  0  0  0  0  0  0  0  0  0
   -1.8951    3.1540   -0.8686 C   0  0  0  0  0  0  0  0  0  0  0  0
   -1.6814    3.1224   -1.9385 H   0  0  0  0  0  0  0  0  0  0  0  0
   -2.9421    3.4221   -0.7199 H   0  0  0  0  0  0  0  0  0  0  0  0
   -1.2596    3.9146   -0.4108 H   0  0  0  0  0  0  0  0  0  0  0  0
  5  6  2  0  0  0  0
  5  7  1  0  0  0  0
  2  3  1  0  0  0  0
  2  4  1  0  0  0  0
  2  5  1  0  0  0  0
  1  2  1  0  0  0  0
 21 22  2  0  0  0  0
 21 23  1  0  0  0  0
 19 20  1  0  0  0  0
 17 18  2  0  0  0  0
 17 19  1  0  0  0  0
 14 15  1  0  0  0  0
 14 16  1  0  0  0  0
 14 17  1  0  0  0  0
 11 12  1  0  0  0  0
 11 13  1  0  0  0  0
 11 14  1  0  0  0  0
  9 10  1  0  0  0  0
  9 11  1  0  0  0  0
  9 21  1  0  0  0  0
  7  8  1  0  0  0  0
  7  9  1  0  0  0  0
 25 26  1  0  0  0  0
 25 27  1  0  0  0  0
 25 28  1  0  0  0  0
 23 24  1  0  0  0  0
 23 25  1  0  0  0  0
M  END
$$$$
default_name
  -OEChem-01062215323D

 28 27  0     1  0  0  0  0  0999 V2000
   -3.2133   -3.5565    1.2809 H   0  0  0  0  0  0  0  0  0  0  0  0
   -3.1873   -2.5755    0.8089 C   0  0  0  0  0  0  0  0  0  0  0  0
   -3.8793   -1.9065    1.3169 H   0  0  0  0  0  0  0  0  0  0  0  0
   -3.4623   -2.6685   -0.2401 H   0  0  0  0  0  0  0  0  0  0  0  0
   -1.7863   -2.0195    0.9119 C   0  0  0  0  0  0  0  0  0  0  0  0
   -0.9073   -2.6615    1.4699 O   0  0  0  0  0  0  0  0  0  0  0  0
   -1.5803   -0.8195    0.3749 N   0  0  0  0  0  0  0  0  0  0  0  0
   -2.3603   -0.3345   -0.0451 H   0  0  0  0  0  0  0  0  0  0  0  0
   -0.2933   -0.1205    0.3719 C   0  0  1  0  0  0  0  0  0  0  0  0
    0.0070    0.0626    1.4046 H   0  0  0  0  0  0  0  0  0  0  0  0
    0.7673   -1.0239   -0.2898 C   0  0  0  0  0  0  0  0  0  0  0  0
    0.3956   -1.3194   -1.2724 H   0  0  0  0  0  0  0  0  0  0  0  0
    1.6869   -0.4544   -0.4321 H   0  0  0  0  0  0  0  0  0  0  0  0
    1.0974   -2.2916    0.5169 C   0  0  0  0  0  0  0  0  0  0  0  0
    1.4899   -2.0169    1.4961 H   0  0  0  0  0  0  0  0  0  0  0  0
    0.1891   -2.8785    0.6487 H   0  0  0  0  0  0  0  0  0  0  0  0
    2.1309   -3.1690   -0.1820 C   0  0  0  0  0  0  0  0  0  0  0  0
    2.5614   -2.9818   -1.3087 O   0  0  0  0  0  0  0  0  0  0  0  0
    2.5681   -4.2265    0.5266 O   0  0  0  0  0  0  0  0  0  0  0  0
    3.1912   -4.6740   -0.0485 H   0  0  0  0  0  0  0  0  0  0  0  0
   -0.4261    1.2387   -0.3335 C   0  0  0  0  0  0  0  0  0  0  0  0
    0.4301    1.6003   -1.1384 O   0  0  0  0  0  0  0  0  0  0  0  0
   -1.4886    1.9911   -0.0229 N   0  0  0  0  0  0  0  0  0  0  0  0
   -2.1614    1.6179    0.6300 H   0  0  0  0  0  0  0  0  0  0  0  0
   -1.7461    3.3136   -0.5893 C   0  0  0  0  0  0  0  0  0  0  0  0
   -1.7896    3.2471   -1.6779 H   0  0  0  0  0  0  0  0  0  0  0  0
   -2.6923    3.7080   -0.2161 H   0  0  0  0  0  0  0  0  0  0  0  0
   -0.9383    3.9953   -0.3159 H   0  0  0  0  0  0  0  0  0  0  0  0
  5  6  2  0  0  0  0
  5  7  1  0  0  0  0
  2  3  1  0  0  0  0
  2  4  1  0  0  0  0
  2  5  1  0  0  0  0
  1  2  1  0  0  0  0
 21 22  2  0  0  0  0
 21 23  1  0  0  0  0
 19 20  1  0  0  0  0
 17 18  2  0  0  0  0
 17 19  1  0  0  0  0
 14 15  1  0  0  0  0
 14 16  1  0  0  0  0
 14 17  1  0  0  0  0
 11 12  1  0  0  0  0
 11 13  1  0  0  0  0
 11 14  1  0  0  0  0
  9 10  1  0  0  0  0
  9 11  1  0  0  0  0
  9 21  1  0  0  0  0
  7  8  1  0  0  0  0
  7  9  1  0  0  0  0
 25 26  1  0  0  0  0
 25 27  1  0  0  0  0
 25 28  1  0  0  0  0
 23 24  1  0  0  0  0
 23 25  1  0  0  0  0
M  END
$$$$
default_name
  -OEChem-01062215323D

 28 27  0     1  0  0  0  0  0999 V2000
   -3.2133   -3.5565    1.2809 H   0  0  0  0  0  0  0  0  0  0  0  0
   -3.1873   -2.5755    0.8089 C   0  0  0  0  0  0  0  0  0  0  0  0
   -3.8793   -1.9065    1.3169 H   0  0  0  0  0  0  0  0  0  0  0  0
   -3.4623   -2.6685   -0.2401 H   0  0  0  0  0  0  0  0  0  0  0  0
   -1.7863   -2.0195    0.9119 C   0  0  0  0  0  0  0  0  0  0  0  0
   -0.9073   -2.6615    1.4699 O   0  0  0  0  0  0  0  0  0  0  0  0
   -1.5803   -0.8195    0.3749 N   0  0  0  0  0  0  0  0  0  0  0  0
   -2.3603   -0.3345   -0.0451 H   0  0  0  0  0  0  0  0  0  0  0  0
   -0.2933   -0.1205    0.3719 C   0  0  1  0  0  0  0  0  0  0  0  0
    0.0070    0.0626    1.4046 H   0  0  0  0  0  0  0  0  0  0  0  0
    0.7673   -1.0239   -0.2898 C   0  0  0  0  0  0  0  0  0  0  0  0
    0.3956   -1.3194   -1.2724 H   0  0  0  0  0  0  0  0  0  0  0  0
    1.6869   -0.4544   -0.4321 H   0  0  0  0  0  0  0  0  0  0  0  0
    1.0974   -2.2916    0.5169 C   0  0  0  0  0  0  0  0  0  0  0  0
    1.4899   -2.0169    1.4961 H   0  0  0  0  0  0  0  0  0  0  0  0
    0.1891   -2.8785    0.6487 H   0  0  0  0  0  0  0  0  0  0  0  0
    2.1309   -3.1690   -0.1820 C   0  0  0  0  0  0  0  0  0  0  0  0
    2.5614   -2.9818   -1.3087 O   0  0  0  0  0  0  0  0  0  0  0  0
    2.5681   -4.2265    0.5266 O   0  0  0  0  0  0  0  0  0  0  0  0
    3.1912   -4.6740   -0.0485 H   0  0  0  0  0  0  0  0  0  0  0  0
   -0.4261    1.2387   -0.3335 C   0  0  0  0  0  0  0  0  0  0  0  0
    0.2578    1.4868   -1.3247 O   0  0  0  0  0  0  0  0  0  0  0  0
   -1.2938    2.1171    0.1832 N   0  0  0  0  0  0  0  0  0  0  0  0
   -1.8368    1.8339    0.9851 H   0  0  0  0  0  0  0  0  0  0  0  0
   -1.5193    3.4562   -0.3572 C   0  0  0  0  0  0  0  0  0  0  0  0
   -1.8197    3.3862   -1.4042 H   0  0  0  0  0  0  0  0  0  0  0  0
   -2.3018    3.9657    0.2069 H   0  0  0  0  0  0  0  0  0  0  0  0
   -0.5967    4.0371   -0.2996 H   0  0  0  0  0  0  0  0  0  0  0  0
  5  6  2  0  0  0  0
  5  7  1  0  0  0  0
  2  3  1  0  0  0  0
  2  4  1  0  0  0  0
  2  5  1  0  0  0  0
  1  2  1  0  0  0  0
 21 22  2  0  0  0  0
 21 23  1  0  0  0  0
 19 20  1  0  0  0  0
 17 18  2  0  0  0  0
 17 19  1  0  0  0  0
 14 15  1  0  0  0  0
 14 16  1  0  0  0  0
 14 17  1  0  0  0  0
 11 12  1  0  0  0  0
 11 13  1  0  0  0  0
 11 14  1  0  0  0  0
  9 10  1  0  0  0  0
  9 11  1  0  0  0  0
  9 21  1  0  0  0  0
  7  8  1  0  0  0  0
  7  9  1  0  0  0  0
 25 26  1  0  0  0  0
 25 27  1  0  0  0  0
 25 28  1  0  0  0  0
 23 24  1  0  0  0  0
 23 25  1  0  0  0  0
M  END
$$$$
default_name
  -OEChem-01062215323D

 28 27  0     1  0  0  0  0  0999 V2000
   -3.2133   -3.5565    1.2809 H   0  0  0  0  0  0  0  0  0  0  0  0
   -3.1873   -2.5755    0.8089 C   0  0  0  0  0  0  0  0  0  0  0  0
   -3.8793   -1.9065    1.3169 H   0  0  0  0  0  0  0  0  0  0  0  0
   -3.4623   -2.6685   -0.2401 H   0  0  0  0  0  0  0  0  0  0  0  0
   -1.7863   -2.0195    0.9119 C   0  0  0  0  0  0  0  0  0  0  0  0
   -0.9073   -2.6615    1.4699 O   0  0  0  0  0  0  0  0  0  0  0  0
   -1.5803   -0.8195    0.3749 N   0  0  0  0  0  0  0  0  0  0  0  0
   -2.3603   -0.3345   -0.0451 H   0  0  0  0  0  0  0  0  0  0  0  0
   -0.2933   -0.1205    0.3719 C   0  0  1  0  0  0  0  0  0  0  0  0
    0.0070    0.0626    1.4046 H   0  0  0  0  0  0  0  0  0  0  0  0
    0.7673   -1.0239   -0.2898 C   0  0  0  0  0  0  0  0  0  0  0  0
    0.3956   -1.3194   -1.2724 H   0  0  0  0  0  0  0  0  0  0  0  0
    1.6869   -0.4544   -0.4321 H   0  0  0  0  0  0  0  0  0  0  0  0
    1.0974   -2.2916    0.5169 C   0  0  0  0  0  0  0  0  0  0  0  0
    1.4899   -2.0169    1.4961 H   0  0  0  0  0  0  0  0  0  0  0  0
    0.1891   -2.8785    0.6487 H   0  0  0  0  0  0  0  0  0  0  0  0
    2.1309   -3.1690   -0.1820 C   0  0  0  0  0  0  0  0  0  0  0  0
    2.5614   -2.9818   -1.3087 O   0  0  0  0  0  0  0  0  0  0  0  0
    2.5681   -4.2265    0.5266 O   0  0  0  0  0  0  0  0  0  0  0  0
    3.1912   -4.6740   -0.0485 H   0  0  0  0  0  0  0  0  0  0  0  0
   -0.4261    1.2387   -0.3335 C   0  0  0  0  0  0  0  0  0  0  0  0
    0.0353    1.3935   -1.4626 O   0  0  0  0  0  0  0  0  0  0  0  0
   -1.0434    2.2204    0.3349 N   0  0  0  0  0  0  0  0  0  0  0  0
   -1.4164    2.0120    1.2491 H   0  0  0  0  0  0  0  0  0  0  0  0
   -1.2302    3.5722   -0.1881 C   0  0  0  0  0  0  0  0  0  0  0  0
   -1.7696    3.5303   -1.1361 H   0  0  0  0  0  0  0  0  0  0  0  0
   -1.7971    4.1777    0.5204 H   0  0  0  0  0  0  0  0  0  0  0  0
   -0.2580    4.0373   -0.3629 H   0  0  0  0  0  0  0  0  0  0  0  0
  5  6  2  0  0  0  0
  5  7  1  0  0  0  0
  2  3  1  0  0  0  0
  2  4  1  0  0  0  0
  2  5  1  0  0  0  0
  1  2  1  0  0  0  0
 21 22  2  0  0  0  0
 21 23  1  0  0  0  0
 19 20  1  0  0  0  0
 17 18  2  0  0  0  0
 17 19  1  0  0  0  0
 14 15  1  0  0  0  0
 14 16  1  0  0  0  0
 14 17  1  0  0  0  0
 11 12  1  0  0  0  0
 11 13  1  0  0  0  0
 11 14  1  0  0  0  0
  9 10  1  0  0  0  0
  9 11  1  0  0  0  0
  9 21  1  0  0  0  0
  7  8  1  0  0  0  0
  7  9  1  0  0  0  0
 25 26  1  0  0  0  0
 25 27  1  0  0  0  0
 25 28  1  0  0  0  0
 23 24  1  0  0  0  0
 23 25  1  0  0  0  0
M  END
$$$$
default_name
  -OEChem-01062215323D

 28 27  0     1  0  0  0  0  0999 V2000
   -3.2133   -3.5565    1.2809 H   0  0  0  0  0  0  0  0  0  0  0  0
   -3.1873   -2.5755    0.8089 C   0  0  0  0  0  0  0  0  0  0  0  0
   -3.8793   -1.9065    1.3169 H   0  0  0  0  0  0  0  0  0  0  0  0
   -3.4623   -2.6685   -0.2401 H   0  0  0  0  0  0  0  0  0  0  0  0
   -1.7863   -2.0195    0.9119 C   0  0  0  0  0  0  0  0  0  0  0  0
   -0.9073   -2.6615    1.4699 O   0  0  0  0  0  0  0  0  0  0  0  0
   -1.5803   -0.8195    0.3749 N   0  0  0  0  0  0  0  0  0  0  0  0
   -2.3603   -0.3345   -0.0451 H   0  0  0  0  0  0  0  0  0  0  0  0
   -0.2933   -0.1205    0.3719 C   0  0  1  0  0  0  0  0  0  0  0  0
    0.0070    0.0626    1.4046 H   0  0  0  0  0  0  0  0  0  0  0  0
    0.7673   -1.0239   -0.2898 C   0  0  0  0  0  0  0  0  0  0  0  0
    0.3956   -1.3194   -1.2724 H   0  0  0  0  0  0  0  0  0  0  0  0
    1.6869   -0.4544   -0.4321 H   0  0  0  0  0  0  0  0  0  0  0  0
    1.0974   -2.2916    0.5169 C   0  0  0  0  0  0  0  0  0  0  0  0
    1.4899   -2.0169    1.4961 H   0  0  0  0  0  0  0  0  0  0  0  0
    0.1891   -2.8785    0.6487 H   0  0  0  0  0  0  0  0  0  0  0  0
    2.1309   -3.1690   -0.1820 C   0  0  0  0  0  0  0  0  0  0  0  0
    2.5614   -2.9818   -1.3087 O   0  0  0  0  0  0  0  0  0  0  0  0
    2.5681   -4.2265    0.5266 O   0  0  0  0  0  0  0  0  0  0  0  0
    3.1912   -4.6740   -0.0485 H   0  0  0  0  0  0  0  0  0  0  0  0
   -0.4261    1.2387   -0.3335 C   0  0  0  0  0  0  0  0  0  0  0  0
   -0.2222    1.3267   -1.5428 O   0  0  0  0  0  0  0  0  0  0  0  0
   -0.7546    2.2937    0.4219 N   0  0  0  0  0  0  0  0  0  0  0  0
   -0.9288    2.1400    1.4038 H   0  0  0  0  0  0  0  0  0  0  0  0
   -0.8984    3.6537   -0.0935 C   0  0  0  0  0  0  0  0  0  0  0  0
   -1.6427    3.6695   -0.8918 H   0  0  0  0  0  0  0  0  0  0  0  0
   -1.2127    4.3296    0.7030 H   0  0  0  0  0  0  0  0  0  0  0  0
    0.0547    3.9959   -0.5017 H   0  0  0  0  0  0  0  0  0  0  0  0
  5  6  2  0  0  0  0
  5  7  1  0  0  0  0
  2  3  1  0  0  0  0
  2  4  1  0  0  0  0
  2  5  1  0  0  0  0
  1  2  1  0  0  0  0
 21 22  2  0  0  0  0
 21 23  1  0  0  0  0
 19 20  1  0  0  0  0
 17 18  2  0  0  0  0
 17 19  1  0  0  0  0
 14 15  1  0  0  0  0
 14 16  1  0  0  0  0
 14 17  1  0  0  0  0
 11 12  1  0  0  0  0
 11 13  1  0  0  0  0
 11 14  1  0  0  0  0
  9 10  1  0  0  0  0
  9 11  1  0  0  0  0
  9 21  1  0  0  0  0
  7  8  1  0  0  0  0
  7  9  1  0  0  0  0
 25 26  1  0  0  0  0
 25 27  1  0  0  0  0
 25 28  1  0  0  0  0
 23 24  1  0  0  0  0
 23 25  1  0  0  0  0
M  END
$$$$
default_name
  -OEChem-01062215323D

 28 27  0     1  0  0  0  0  0999 V2000
   -3.2133   -3.5565    1.2809 H   0  0  0  0  0  0  0  0  0  0  0  0
   -3.1873   -2.5755    0.8089 C   0  0  0  0  0  0  0  0  0  0  0  0
   -3.8793   -1.9065    1.3169 H   0  0  0  0  0  0  0  0  0  0  0  0
   -3.4623   -2.6685   -0.2401 H   0  0  0  0  0  0  0  0  0  0  0  0
   -1.7863   -2.0195    0.9119 C   0  0  0  0  0  0  0  0  0  0  0  0
   -0.9073   -2.6615    1.4699 O   0  0  0  0  0  0  0  0  0  0  0  0
   -1.5803   -0.8195    0.3749 N   0  0  0  0  0  0  0  0  0  0  0  0
   -2.3603   -0.3345   -0.0451 H   0  0  0  0  0  0  0  0  0  0  0  0
   -0.2933   -0.1205    0.3719 C   0  0  1  0  0  0  0  0  0  0  0  0
    0.0070    0.0626    1.4046 H   0  0  0  0  0  0  0  0  0  0  0  0
    0.7673   -1.0239   -0.2898 C   0  0  0  0  0  0  0  0  0  0  0  0
    0.3956   -1.3194   -1.2724 H   0  0  0  0  0  0  0  0  0  0  0  0
    1.6869   -0.4544   -0.4321 H   0  0  0  0  0  0  0  0  0  0  0  0
    1.0974   -2.2916    0.5169 C   0  0  0  0  0  0  0  0  0  0  0  0
    1.4899   -2.0169    1.4961 H   0  0  0  0  0  0  0  0  0  0  0  0
    0.1891   -2.8785    0.6487 H   0  0  0  0  0  0  0  0  0  0  0  0
    2.1309   -3.1690   -0.1820 C   0  0  0  0  0  0  0  0  0  0  0  0
    2.5614   -2.9818   -1.3087 O   0  0  0  0  0  0  0  0  0  0  0  0
    2.5681   -4.2265    0.5266 O   0  0  0  0  0  0  0  0  0  0  0  0
    3.1912   -4.6740   -0.0485 H   0  0  0  0  0  0  0  0  0  0  0  0
   -0.4261    1.2387   -0.3335 C   0  0  0  0  0  0  0  0  0  0  0  0
   -0.4973    1.2910   -1.5598 O   0  0  0  0  0  0  0  0  0  0  0  0
   -0.4470    2.3322    0.4381 N   0  0  0  0  0  0  0  0  0  0  0  0
   -0.4071    2.2091    1.4388 H   0  0  0  0  0  0  0  0  0  0  0  0
   -0.5466    3.6951   -0.0799 C   0  0  0  0  0  0  0  0  0  0  0  0
   -1.4476    3.7943   -0.6879 H   0  0  0  0  0  0  0  0  0  0  0  0
   -0.5884    4.4110    0.7422 H   0  0  0  0  0  0  0  0  0  0  0  0
    0.3200    3.9156   -0.7063 H   0  0  0  0  0  0  0  0  0  0  0  0
  5  6  2  0  0  0  0
  5  7  1  0  0  0  0
  2  3  1  0  0  0  0
  2  4  1  0  0  0  0
  2  5  1  0  0  0  0
  1  2  1  0  0  0  0
 21 22  2  0  0  0  0
 21 23  1  0  0  0  0
 19 20  1  0  0  0  0
 17 18  2  0  0  0  0
 17 19  1  0  0  0  0
 14 15  1  0  0  0  0
 14 16  1  0  0  0  0
 14 17  1  0  0  0  0
 11 12  1  0  0  0  0
 11 13  1  0  0  0  0
 11 14  1  0  0  0  0
  9 10  1  0  0  0  0
  9 11  1  0  0  0  0
  9 21  1  0  0  0  0
  7  8  1  0  0  0  0
  7  9  1  0  0  0  0
 25 26  1  0  0  0  0
 25 27  1  0  0  0  0
 25 28  1  0  0  0  0
 23 24  1  0  0  0  0
 23 25  1  0  0  0  0
M  END
$$$$
default_name
  -OEChem-01062215323D

 28 27  0     1  0  0  0  0  0999 V2000
   -3.2133   -3.5565    1.2809 H   0  0  0  0  0  0  0  0  0  0  0  0
   -3.1873   -2.5755    0.8089 C   0  0  0  0  0  0  0  0  0  0  0  0
   -3.8793   -1.9065    1.3169 H   0  0  0  0  0  0  0  0  0  0  0  0
   -3.4623   -2.6685   -0.2401 H   0  0  0  0  0  0  0  0  0  0  0  0
   -1.7863   -2.0195    0.9119 C   0  0  0  0  0  0  0  0  0  0  0  0
   -0.9073   -2.6615    1.4699 O   0  0  0  0  0  0  0  0  0  0  0  0
   -1.5803   -0.8195    0.3749 N   0  0  0  0  0  0  0  0  0  0  0  0
   -2.3603   -0.3345   -0.0451 H   0  0  0  0  0  0  0  0  0  0  0  0
   -0.2933   -0.1205    0.3719 C   0  0  1  0  0  0  0  0  0  0  0  0
    0.0070    0.0626    1.4046 H   0  0  0  0  0  0  0  0  0  0  0  0
    0.7673   -1.0239   -0.2898 C   0  0  0  0  0  0  0  0  0  0  0  0
    0.3956   -1.3194   -1.2724 H   0  0  0  0  0  0  0  0  0  0  0  0
    1.6869   -0.4544   -0.4321 H   0  0  0  0  0  0  0  0  0  0  0  0
    1.0974   -2.2916    0.5169 C   0  0  0  0  0  0  0  0  0  0  0  0
    1.4899   -2.0169    1.4961 H   0  0  0  0  0  0  0  0  0  0  0  0
    0.1891   -2.8785    0.6487 H   0  0  0  0  0  0  0  0  0  0  0  0
    2.1309   -3.1690   -0.1820 C   0  0  0  0  0  0  0  0  0  0  0  0
    2.5614   -2.9818   -1.3087 O   0  0  0  0  0  0  0  0  0  0  0  0
    2.5681   -4.2265    0.5266 O   0  0  0  0  0  0  0  0  0  0  0  0
    3.1912   -4.6740   -0.0485 H   0  0  0  0  0  0  0  0  0  0  0  0
   -0.4261    1.2387   -0.3335 C   0  0  0  0  0  0  0  0  0  0  0  0
   -0.7711    1.2888   -1.5125 O   0  0  0  0  0  0  0  0  0  0  0  0
   -0.1416    2.3332    0.3826 N   0  0  0  0  0  0  0  0  0  0  0  0
    0.1130    2.2147    1.3517 H   0  0  0  0  0  0  0  0  0  0  0  0
   -0.1987    3.6937   -0.1482 C   0  0  0  0  0  0  0  0  0  0  0  0
   -1.1978    3.8963   -0.5385 H   0  0  0  0  0  0  0  0  0  0  0  0
    0.0333    4.4163    0.6354 H   0  0  0  0  0  0  0  0  0  0  0  0
    0.5200    3.8020   -0.9629 H   0  0  0  0  0  0  0  0  0  0  0  0
  5  6  2  0  0  0  0
  5  7  1  0  0  0  0
  2  3  1  0  0  0  0
  2  4  1  0  0  0  0
  2  5  1  0  0  0  0
  1  2  1  0  0  0  0
 21 22  2  0  0  0  0
 21 23  1  0  0  0  0
 19 20  1  0  0  0  0
 17 18  2  0  0  0  0
 17 19  1  0  0  0  0
 14 15  1  0  0  0  0
 14 16  1  0  0  0  0
 14 17  1  0  0  0  0
 11 12  1  0  0  0  0
 11 13  1  0  0  0  0
 11 14  1  0  0  0  0
  9 10  1  0  0  0  0
  9 11  1  0  0  0  0
  9 21  1  0  0  0  0
  7  8  1  0  0  0  0
  7  9  1  0  0  0  0
 25 26  1  0  0  0  0
 25 27  1  0  0  0  0
 25 28  1  0  0  0  0
 23 24  1  0  0  0  0
 23 25  1  0  0  0  0
M  END
$$$$
default_name
  -OEChem-01062215323D

 28 27  0     1  0  0  0  0  0999 V2000
   -3.2133   -3.5565    1.2809 H   0  0  0  0  0  0  0  0  0  0  0  0
   -3.1873   -2.5755    0.8089 C   0  0  0  0  0  0  0  0  0  0  0  0
   -3.8793   -1.9065    1.3169 H   0  0  0  0  0  0  0  0  0  0  0  0
   -3.4623   -2.6685   -0.2401 H   0  0  0  0  0  0  0  0  0  0  0  0
   -1.7863   -2.0195    0.9119 C   0  0  0  0  0  0  0  0  0  0  0  0
   -0.9073   -2.6615    1.4699 O   0  0  0  0  0  0  0  0  0  0  0  0
   -1.5803   -0.8195    0.3749 N   0  0  0  0  0  0  0  0  0  0  0  0
   -2.3603   -0.3345   -0.0451 H   0  0  0  0  0  0  0  0  0  0  0  0
   -0.2933   -0.1205    0.3719 C   0  0  1  0  0  0  0  0  0  0  0  0
    0.0070    0.0626    1.4046 H   0  0  0  0  0  0  0  0  0  0  0  0
    0.7673   -1.0239   -0.2898 C   0  0  0  0  0  0  0  0  0  0  0  0
    0.3956   -1.3194   -1.2724 H   0  0  0  0  0  0  0  0  0  0  0  0
    1.6869   -0.4544   -0.4321 H   0  0  0  0  0  0  0  0  0  0  0  0
    1.0974   -2.2916    0.5169 C   0  0  0  0  0  0  0  0  0  0  0  0
    1.4899   -2.0169    1.4961 H   0  0  0  0  0  0  0  0  0  0  0  0
    0.1891   -2.8785    0.6487 H   0  0  0  0  0  0  0  0  0  0  0  0
    2.1309   -3.1690   -0.1820 C   0  0  0  0  0  0  0  0  0  0  0  0
    2.5614   -2.9818   -1.3087 O   0  0  0  0  0  0  0  0  0  0  0  0
    2.5681   -4.2265    0.5266 O   0  0  0  0  0  0  0  0  0  0  0  0
    3.1912   -4.6740   -0.0485 H   0  0  0  0  0  0  0  0  0  0  0  0
   -0.4261    1.2387   -0.3335 C   0  0  0  0  0  0  0  0  0  0  0  0
   -1.0251    1.3202   -1.4041 O   0  0  0  0  0  0  0  0  0  0  0  0
    0.1407    2.2966    0.2590 N   0  0  0  0  0  0  0  0  0  0  0  0
    0.5962    2.1564    1.1484 H   0  0  0  0  0  0  0  0  0  0  0  0
    0.1214    3.6494   -0.2938 C   0  0  0  0  0  0  0  0  0  0  0  0
   -0.9101    3.9685   -0.4536 H   0  0  0  0  0  0  0  0  0  0  0  0
    0.6100    4.3452    0.3898 H   0  0  0  0  0  0  0  0  0  0  0  0
    0.6409    3.6627   -1.2540 H   0  0  0  0  0  0  0  0  0  0  0  0
  5  6  2  0  0  0  0
  5  7  1  0  0  0  0
  2  3  1  0  0  0  0
  2  4  1  0  0  0  0
  2  5  1  0  0  0  0
  1  2  1  0  0  0  0
 21 22  2  0  0  0  0
 21 23  1  0  0  0  0
 19 20  1  0  0  0  0
 17 18  2  0  0  0  0
 17 19  1  0  0  0  0
 14 15  1  0  0  0  0
 14 16  1  0  0  0  0
 14 17  1  0  0  0  0
 11 12  1  0  0  0  0
 11 13  1  0  0  0  0
 11 14  1  0  0  0  0
  9 10  1  0  0  0  0
  9 11  1  0  0  0  0
  9 21  1  0  0  0  0
  7  8  1  0  0  0  0
  7  9  1  0  0  0  0
 25 26  1  0  0  0  0
 25 27  1  0  0  0  0
 25 28  1  0  0  0  0
 23 24  1  0  0  0  0
 23 25  1  0  0  0  0
M  END
$$$$
default_name
  -OEChem-01062215323D

 28 27  0     1  0  0  0  0  0999 V2000
   -3.2133   -3.5565    1.2809 H   0  0  0  0  0  0  0  0  0  0  0  0
   -3.1873   -2.5755    0.8089 C   0  0  0  0  0  0  0  0  0  0  0  0
   -3.8793   -1.9065    1.3169 H   0  0  0  0  0  0  0  0  0  0  0  0
   -3.4623   -2.6685   -0.2401 H   0  0  0  0  0  0  0  0  0  0  0  0
   -1.7863   -2.0195    0.9119 C   0  0  0  0  0  0  0  0  0  0  0  0
   -0.9073   -2.6615    1.4699 O   0  0  0  0  0  0  0  0  0  0  0  0
   -1.5803   -0.8195    0.3749 N   0  0  0  0  0  0  0  0  0  0  0  0
   -2.3603   -0.3345   -0.0451 H   0  0  0  0  0  0  0  0  0  0  0  0
   -0.2933   -0.1205    0.3719 C   0  0  1  0  0  0  0  0  0  0  0  0
    0.0070    0.0626    1.4046 H   0  0  0  0  0  0  0  0  0  0  0  0
    0.7673   -1.0239   -0.2898 C   0  0  0  0  0  0  0  0  0  0  0  0
    0.3956   -1.3194   -1.2724 H   0  0  0  0  0  0  0  0  0  0  0  0
    1.6869   -0.4544   -0.4321 H   0  0  0  0  0  0  0  0  0  0  0  0
    1.0974   -2.2916    0.5169 C   0  0  0  0  0  0  0  0  0  0  0  0
    1.4899   -2.0169    1.4961 H   0  0  0  0  0  0  0  0  0  0  0  0
    0.1891   -2.8785    0.6487 H   0  0  0  0  0  0  0  0  0  0  0  0
    2.1309   -3.1690   -0.1820 C   0  0  0  0  0  0  0  0  0  0  0  0
    2.5614   -2.9818   -1.3087 O   0  0  0  0  0  0  0  0  0  0  0  0
    2.5681   -4.2265    0.5266 O   0  0  0  0  0  0  0  0  0  0  0  0
    3.1912   -4.6740   -0.0485 H   0  0  0  0  0  0  0  0  0  0  0  0
   -0.4261    1.2387   -0.3335 C   0  0  0  0  0  0  0  0  0  0  0  0
   -1.2418    1.3832   -1.2420 O   0  0  0  0  0  0  0  0  0  0  0  0
    0.3809    2.2250    0.0758 N   0  0  0  0  0  0  0  0  0  0  0  0
    1.0094    2.0382    0.8428 H   0  0  0  0  0  0  0  0  0  0  0  0
    0.3921    3.5654   -0.5067 C   0  0  0  0  0  0  0  0  0  0  0  0
   -0.6042    4.0059   -0.4390 H   0  0  0  0  0  0  0  0  0  0  0  0
    1.1024    4.2025    0.0222 H   0  0  0  0  0  0  0  0  0  0  0  0
    0.6745    3.5073   -1.5597 H   0  0  0  0  0  0  0  0  0  0  0  0
  5  6  2  0  0  0  0
  5  7  1  0  0  0  0
  2  3  1  0  0  0  0
  2  4  1  0  0  0  0
  2  5  1  0  0  0  0
  1  2  1  0  0  0  0
 21 22  2  0  0  0  0
 21 23  1  0  0  0  0
 19 20  1  0  0  0  0
 17 18  2  0  0  0  0
 17 19  1  0  0  0  0
 14 15  1  0  0  0  0
 14 16  1  0  0  0  0
 14 17  1  0  0  0  0
 11 12  1  0  0  0  0
 11 13  1  0  0  0  0
 11 14  1  0  0  0  0
  9 10  1  0  0  0  0
  9 11  1  0  0  0  0
  9 21  1  0  0  0  0
  7  8  1  0  0  0  0
  7  9  1  0  0  0  0
 25 26  1  0  0  0  0
 25 27  1  0  0  0  0
 25 28  1  0  0  0  0
 23 24  1  0  0  0  0
 23 25  1  0  0  0  0
M  END
$$$$
default_name
  -OEChem-01062215323D

 28 27  0     1  0  0  0  0  0999 V2000
   -3.2133   -3.5565    1.2809 H   0  0  0  0  0  0  0  0  0  0  0  0
   -3.1873   -2.5755    0.8089 C   0  0  0  0  0  0  0  0  0  0  0  0
   -3.8793   -1.9065    1.3169 H   0  0  0  0  0  0  0  0  0  0  0  0
   -3.4623   -2.6685   -0.2401 H   0  0  0  0  0  0  0  0  0  0  0  0
   -1.7863   -2.0195    0.9119 C   0  0  0  0  0  0  0  0  0  0  0  0
   -0.9073   -2.6615    1.4699 O   0  0  0  0  0  0  0  0  0  0  0  0
   -1.5803   -0.8195    0.3749 N   0  0  0  0  0  0  0  0  0  0  0  0
   -2.3603   -0.3345   -0.0451 H   0  0  0  0  0  0  0  0  0  0  0  0
   -0.2933   -0.1205    0.3719 C   0  0  1  0  0  0  0  0  0  0  0  0
    0.0070    0.0626    1.4046 H   0  0  0  0  0  0  0  0  0  0  0  0
    0.7673   -1.0239   -0.2898 C   0  0  0  0  0  0  0  0  0  0  0  0
    0.3956   -1.3194   -1.2724 H   0  0  0  0  0  0  0  0  0  0  0  0
    1.6869   -0.4544   -0.4321 H   0  0  0  0  0  0  0  0  0  0  0  0
    1.0974   -2.2916    0.5169 C   0  0  0  0  0  0  0  0  0  0  0  0
    1.4899   -2.0169    1.4961 H   0  0  0  0  0  0  0  0  0  0  0  0
    0.1891   -2.8785    0.6487 H   0  0  0  0  0  0  0  0  0  0  0  0
    2.1309   -3.1690   -0.1820 C   0  0  0  0  0  0  0  0  0  0  0  0
    2.5614   -2.9818   -1.3087 O   0  0  0  0  0  0  0  0  0  0  0  0
    2.5681   -4.2265    0.5266 O   0  0  0  0  0  0  0  0  0  0  0  0
    3.1912   -4.6740   -0.0485 H   0  0  0  0  0  0  0  0  0  0  0  0
   -0.4261    1.2387   -0.3335 C   0  0  0  0  0  0  0  0  0  0  0  0
   -1.4066    1.4734   -1.0372 O   0  0  0  0  0  0  0  0  0  0  0  0
    0.5624    2.1232   -0.1545 N   0  0  0  0  0  0  0  0  0  0  0  0
    1.3245    1.8680    0.4556 H   0  0  0  0  0  0  0  0  0  0  0  0
    0.5949    3.4473   -0.7724 C   0  0  0  0  0  0  0  0  0  0  0  0
   -0.3010    4.0061   -0.4958 H   0  0  0  0  0  0  0  0  0  0  0  0
    1.4769    3.9980   -0.4423 H   0  0  0  0  0  0  0  0  0  0  0  0
    0.6186    3.3464   -1.8592 H   0  0  0  0  0  0  0  0  0  0  0  0
  5  6  2  0  0  0  0
  5  7  1  0  0  0  0
  2  3  1  0  0  0  0
  2  4  1  0  0  0  0
  2  5  1  0  0  0  0
  1  2  1  0  0  0  0
 21 22  2  0  0  0  0
 21 23  1  0  0  0  0
 19 20  1  0  0  0  0
 17 18  2  0  0  0  0
 17 19  1  0  0  0  0
 14 15  1  0  0  0  0
 14 16  1  0  0  0  0
 14 17  1  0  0  0  0
 11 12  1  0  0  0  0
 11 13  1  0  0  0  0
 11 14  1  0  0  0  0
  9 10  1  0  0  0  0
  9 11  1  0  0  0  0
  9 21  1  0  0  0  0
  7  8  1  0  0  0  0
  7  9  1  0  0  0  0
 25 26  1  0  0  0  0
 25 27  1  0  0  0  0
 25 28  1  0  0  0  0
 23 24  1  0  0  0  0
 23 25  1  0  0  0  0
M  END
$$$$
default_name
  -OEChem-01062215323D

 28 27  0     1  0  0  0  0  0999 V2000
   -3.2133   -3.5565    1.2809 H   0  0  0  0  0  0  0  0  0  0  0  0
   -3.1873   -2.5755    0.8089 C   0  0  0  0  0  0  0  0  0  0  0  0
   -3.8793   -1.9065    1.3169 H   0  0  0  0  0  0  0  0  0  0  0  0
   -3.4623   -2.6685   -0.2401 H   0  0  0  0  0  0  0  0  0  0  0  0
   -1.7863   -2.0195    0.9119 C   0  0  0  0  0  0  0  0  0  0  0  0
   -0.9073   -2.6615    1.4699 O   0  0  0  0  0  0  0  0  0  0  0  0
   -1.5803   -0.8195    0.3749 N   0  0  0  0  0  0  0  0  0  0  0  0
   -2.3603   -0.3345   -0.0451 H   0  0  0  0  0  0  0  0  0  0  0  0
   -0.2933   -0.1205    0.3719 C   0  0  1  0  0  0  0  0  0  0  0  0
    0.1349   -0.1730    1.3739 H   0  0  0  0  0  0  0  0  0  0  0  0
    0.6640   -0.8350   -0.6038 C   0  0  0  0  0  0  0  0  0  0  0  0
    0.1695   -0.9043   -1.5742 H   0  0  0  0  0  0  0  0  0  0  0  0
    1.5673   -0.2355   -0.7254 H   0  0  0  0  0  0  0  0  0  0  0  0
    1.0723   -2.2483   -0.1536 C   0  0  0  0  0  0  0  0  0  0  0  0
    1.5867   -2.1982    0.8062 H   0  0  0  0  0  0  0  0  0  0  0  0
    0.1787   -2.8623   -0.0475 H   0  0  0  0  0  0  0  0  0  0  0  0
    1.9985   -2.9294   -1.1560 C   0  0  0  0  0  0  0  0  0  0  0  0
    2.2893   -2.4849   -2.2550 O   0  0  0  0  0  0  0  0  0  0  0  0
    2.5041   -4.1143   -0.7661 O   0  0  0  0  0  0  0  0  0  0  0  0
    3.0448   -4.4106   -1.5003 H   0  0  0  0  0  0  0  0  0  0  0  0
   -0.4920    1.3615    0.0160 C   0  0  0  0  0  0  0  0  0  0  0  0
   -1.6186    1.7905   -0.2257 O   0  0  0  0  0  0  0  0  0  0  0  0
    0.5995    2.1350   -0.0270 N   0  0  0  0  0  0  0  0  0  0  0  0
    1.4881    1.7173    0.2058 H   0  0  0  0  0  0  0  0  0  0  0  0
    0.5805    3.5556   -0.3697 C   0  0  0  0  0  0  0  0  0  0  0  0
   -0.0851    4.0907    0.3101 H   0  0  0  0  0  0  0  0  0  0  0  0
    1.5839    3.9771   -0.2946 H   0  0  0  0  0  0  0  0  0  0  0  0
    0.2108    3.6840   -1.3889 H   0  0  0  0  0  0  0  0  0  0  0  0
  5  6  2  0  0  0  0
  5  7  1  0  0  0  0
  2  3  1  0  0  0  0
  2  4  1  0  0  0  0
  2  5  1  0  0  0  0
  1  2  1  0  0  0  0
 21 22  2  0  0  0  0
 21 23  1  0  0  0  0
 19 20  1  0  0  0  0
 17 18  2  0  0  0  0
 17 19  1  0  0  0  0
 14 15  1  0  0  0  0
 14 16  1  0  0  0  0
 14 17  1  0  0  0  0
 11 12  1  0  0  0  0
 11 13  1  0  0  0  0
 11 14  1  0  0  0  0
  9 10  1  0  0  0  0
  9 11  1  0  0  0  0
  9 21  1  0  0  0  0
  7  8  1  0  0  0  0
  7  9  1  0  0  0  0
 25 26  1  0  0  0  0
 25 27  1  0  0  0  0
 25 28  1  0  0  0  0
 23 24  1  0  0  0  0
 23 25  1  0  0  0  0
M  END
$$$$
default_name
  -OEChem-01062215323D

 28 27  0     1  0  0  0  0  0999 V2000
   -3.2133   -3.5565    1.2809 H   0  0  0  0  0  0  0  0  0  0  0  0
   -3.1873   -2.5755    0.8089 C   0  0  0  0  0  0  0  0  0  0  0  0
   -3.8793   -1.9065    1.3169 H   0  0  0  0  0  0  0  0  0  0  0  0
   -3.4623   -2.6685   -0.2401 H   0  0  0  0  0  0  0  0  0  0  0  0
   -1.7863   -2.0195    0.9119 C   0  0  0  0  0  0  0  0  0  0  0  0
   -0.9073   -2.6615    1.4699 O   0  0  0  0  0  0  0  0  0  0  0  0
   -1.5803   -0.8195    0.3749 N   0  0  0  0  0  0  0  0  0  0  0  0
   -2.3603   -0.3345   -0.0451 H   0  0  0  0  0  0  0  0  0  0  0  0
   -0.2933   -0.1205    0.3719 C   0  0  1  0  0  0  0  0  0  0  0  0
    0.1349   -0.1730    1.3739 H   0  0  0  0  0  0  0  0  0  0  0  0
    0.6640   -0.8350   -0.6038 C   0  0  0  0  0  0  0  0  0  0  0  0
    0.1695   -0.9043   -1.5742 H   0  0  0  0  0  0  0  0  0  0  0  0
    1.5673   -0.2355   -0.7254 H   0  0  0  0  0  0  0  0  0  0  0  0
    1.0723   -2.2483   -0.1536 C   0  0  0  0  0  0  0  0  0  0  0  0
    1.5867   -2.1982    0.8062 H   0  0  0  0  0  0  0  0  0  0  0  0
    0.1787   -2.8623   -0.0475 H   0  0  0  0  0  0  0  0  0  0  0  0
    1.9985   -2.9294   -1.1560 C   0  0  0  0  0  0  0  0  0  0  0  0
    2.2893   -2.4849   -2.2550 O   0  0  0  0  0  0  0  0  0  0  0  0
    2.5041   -4.1143   -0.7661 O   0  0  0  0  0  0  0  0  0  0  0  0
    3.0448   -4.4106   -1.5003 H   0  0  0  0  0  0  0  0  0  0  0  0
   -0.4920    1.3615    0.0160 C   0  0  0  0  0  0  0  0  0  0  0  0
   -1.6176    1.8555    0.0444 O   0  0  0  0  0  0  0  0  0  0  0  0
    0.5952    2.0620   -0.3286 N   0  0  0  0  0  0  0  0  0  0  0  0
    1.4891    1.5943   -0.3070 H   0  0  0  0  0  0  0  0  0  0  0  0
    0.5701    3.4716   -0.7139 C   0  0  0  0  0  0  0  0  0  0  0  0
    0.1269    4.0657    0.0874 H   0  0  0  0  0  0  0  0  0  0  0  0
    1.5821    3.8296   -0.9080 H   0  0  0  0  0  0  0  0  0  0  0  0
   -0.0355    3.5970   -1.6137 H   0  0  0  0  0  0  0  0  0  0  0  0
  5  6  2  0  0  0  0
  5  7  1  0  0  0  0
  2  3  1  0  0  0  0
  2  4  1  0  0  0  0
  2  5  1  0  0  0  0
  1  2  1  0  0  0  0
 21 22  2  0  0  0  0
 21 23  1  0  0  0  0
 19 20  1  0  0  0  0
 17 18  2  0  0  0  0
 17 19  1  0  0  0  0
 14 15  1  0  0  0  0
 14 16  1  0  0  0  0
 14 17  1  0  0  0  0
 11 12  1  0  0  0  0
 11 13  1  0  0  0  0
 11 14  1  0  0  0  0
  9 10  1  0  0  0  0
  9 11  1  0  0  0  0
  9 21  1  0  0  0  0
  7  8  1  0  0  0  0
  7  9  1  0  0  0  0
 25 26  1  0  0  0  0
 25 27  1  0  0  0  0
 25 28  1  0  0  0  0
 23 24  1  0  0  0  0
 23 25  1  0  0  0  0
M  END
$$$$
default_name
  -OEChem-01062215323D

 28 27  0     1  0  0  0  0  0999 V2000
   -3.2133   -3.5565    1.2809 H   0  0  0  0  0  0  0  0  0  0  0  0
   -3.1873   -2.5755    0.8089 C   0  0  0  0  0  0  0  0  0  0  0  0
   -3.8793   -1.9065    1.3169 H   0  0  0  0  0  0  0  0  0  0  0  0
   -3.4623   -2.6685   -0.2401 H   0  0  0  0  0  0  0  0  0  0  0  0
   -1.7863   -2.0195    0.9119 C   0  0  0  0  0  0  0  0  0  0  0  0
   -0.9073   -2.6615    1.4699 O   0  0  0  0  0  0  0  0  0  0  0  0
   -1.5803   -0.8195    0.3749 N   0  0  0  0  0  0  0  0  0  0  0  0
   -2.3603   -0.3345   -0.0451 H   0  0  0  0  0  0  0  0  0  0  0  0
   -0.2933   -0.1205    0.3719 C   0  0  1  0  0  0  0  0  0  0  0  0
    0.1349   -0.1730    1.3739 H   0  0  0  0  0  0  0  0  0  0  0  0
    0.6640   -0.8350   -0.6038 C   0  0  0  0  0  0  0  0  0  0  0  0
    0.1695   -0.9043   -1.5742 H   0  0  0  0  0  0  0  0  0  0  0  0
    1.5673   -0.2355   -0.7254 H   0  0  0  0  0  0  0  0  0  0  0  0
    1.0723   -2.2483   -0.1536 C   0  0  0  0  0  0  0  0  0  0  0  0
    1.5867   -2.1982    0.8062 H   0  0  0  0  0  0  0  0  0  0  0  0
    0.1787   -2.8623   -0.0475 H   0  0  0  0  0  0  0  0  0  0  0  0
    1.9985   -2.9294   -1.1560 C   0  0  0  0  0  0  0  0  0  0  0  0
    2.2893   -2.4849   -2.2550 O   0  0  0  0  0  0  0  0  0  0  0  0
    2.5041   -4.1143   -0.7661 O   0  0  0  0  0  0  0  0  0  0  0  0
    3.0448   -4.4106   -1.5003 H   0  0  0  0  0  0  0  0  0  0  0  0
   -0.4920    1.3615    0.0160 C   0  0  0  0  0  0  0  0  0  0  0  0
   -1.5453    1.9273    0.3030 O   0  0  0  0  0  0  0  0  0  0  0  0
    0.5114    1.9816   -0.6165 N   0  0  0  0  0  0  0  0  0  0  0  0
    1.3547    1.4583   -0.7985 H   0  0  0  0  0  0  0  0  0  0  0  0
    0.4690    3.3795   -1.0410 C   0  0  0  0  0  0  0  0  0  0  0  0
    0.2746    4.0213   -0.1798 H   0  0  0  0  0  0  0  0  0  0  0  0
    1.4185    3.6667   -1.4950 H   0  0  0  0  0  0  0  0  0  0  0  0
   -0.3347    3.5202   -1.7664 H   0  0  0  0  0  0  0  0  0  0  0  0
  5  6  2  0  0  0  0
  5  7  1  0  0  0  0
  2  3  1  0  0  0  0
  2  4  1  0  0  0  0
  2  5  1  0  0  0  0
  1  2  1  0  0  0  0
 21 22  2  0  0  0  0
 21 23  1  0  0  0  0
 19 20  1  0  0  0  0
 17 18  2  0  0  0  0
 17 19  1  0  0  0  0
 14 15  1  0  0  0  0
 14 16  1  0  0  0  0
 14 17  1  0  0  0  0
 11 12  1  0  0  0  0
 11 13  1  0  0  0  0
 11 14  1  0  0  0  0
  9 10  1  0  0  0  0
  9 11  1  0  0  0  0
  9 21  1  0  0  0  0
  7  8  1  0  0  0  0
  7  9  1  0  0  0  0
 25 26  1  0  0  0  0
 25 27  1  0  0  0  0
 25 28  1  0  0  0  0
 23 24  1  0  0  0  0
 23 25  1  0  0  0  0
M  END
$$$$
default_name
  -OEChem-01062215323D

 28 27  0     1  0  0  0  0  0999 V2000
   -3.2133   -3.5565    1.2809 H   0  0  0  0  0  0  0  0  0  0  0  0
   -3.1873   -2.5755    0.8089 C   0  0  0  0  0  0  0  0  0  0  0  0
   -3.8793   -1.9065    1.3169 H   0  0  0  0  0  0  0  0  0  0  0  0
   -3.4623   -2.6685   -0.2401 H   0  0  0  0  0  0  0  0  0  0  0  0
   -1.7863   -2.0195    0.9119 C   0  0  0  0  0  0  0  0  0  0  0  0
   -0.9073   -2.6615    1.4699 O   0  0  0  0  0  0  0  0  0  0  0  0
   -1.5803   -0.8195    0.3749 N   0  0  0  0  0  0  0  0  0  0  0  0
   -2.3603   -0.3345   -0.0451 H   0  0  0  0  0  0  0  0  0  0  0  0
   -0.2933   -0.1205    0.3719 C   0  0  1  0  0  0  0  0  0  0  0  0
    0.1349   -0.1730    1.3739 H   0  0  0  0  0  0  0  0  0  0  0  0
    0.6640   -0.8350   -0.6038 C   0  0  0  0  0  0  0  0  0  0  0  0
    0.1695   -0.9043   -1.5742 H   0  0  0  0  0  0  0  0  0  0  0  0
    1.5673   -0.2355   -0.7254 H   0  0  0  0  0  0  0  0  0  0  0  0
    1.0723   -2.2483   -0.1536 C   0  0  0  0  0  0  0  0  0  0  0  0
    1.5867   -2.1982    0.8062 H   0  0  0  0  0  0  0  0  0  0  0  0
    0.1787   -2.8623   -0.0475 H   0  0  0  0  0  0  0  0  0  0  0  0
    1.9985   -2.9294   -1.1560 C   0  0  0  0  0  0  0  0  0  0  0  0
    2.2893   -2.4849   -2.2550 O   0  0  0  0  0  0  0  0  0  0  0  0
    2.5041   -4.1143   -0.7661 O   0  0  0  0  0  0  0  0  0  0  0  0
    3.0448   -4.4106   -1.5003 H   0  0  0  0  0  0  0  0  0  0  0  0
   -0.4920    1.3615    0.0160 C   0  0  0  0  0  0  0  0  0  0  0  0
   -1.4066    2.0009    0.5323 O   0  0  0  0  0  0  0  0  0  0  0  0
    0.3538    1.8994   -0.8710 N   0  0  0  0  0  0  0  0  0  0  0  0
    1.0941    1.3184   -1.2352 H   0  0  0  0  0  0  0  0  0  0  0  0
    0.2843    3.2857   -1.3286 C   0  0  0  0  0  0  0  0  0  0  0  0
    0.3480    3.9607   -0.4733 H   0  0  0  0  0  0  0  0  0  0  0  0
    1.1042    3.4995   -2.0158 H   0  0  0  0  0  0  0  0  0  0  0  0
   -0.6664    3.4588   -1.8367 H   0  0  0  0  0  0  0  0  0  0  0  0
  5  6  2  0  0  0  0
  5  7  1  0  0  0  0
  2  3  1  0  0  0  0
  2  4  1  0  0  0  0
  2  5  1  0  0  0  0
  1  2  1  0  0  0  0
 21 22  2  0  0  0  0
 21 23  1  0  0  0  0
 19 20  1  0  0  0  0
 17 18  2  0  0  0  0
 17 19  1  0  0  0  0
 14 15  1  0  0  0  0
 14 16  1  0  0  0  0
 14 17  1  0  0  0  0
 11 12  1  0  0  0  0
 11 13  1  0  0  0  0
 11 14  1  0  0  0  0
  9 10  1  0  0  0  0
  9 11  1  0  0  0  0
  9 21  1  0  0  0  0
  7  8  1  0  0  0  0
  7  9  1  0  0  0  0
 25 26  1  0  0  0  0
 25 27  1  0  0  0  0
 25 28  1  0  0  0  0
 23 24  1  0  0  0  0
 23 25  1  0  0  0  0
M  END
$$$$
default_name
  -OEChem-01062215323D

 28 27  0     1  0  0  0  0  0999 V2000
   -3.2133   -3.5565    1.2809 H   0  0  0  0  0  0  0  0  0  0  0  0
   -3.1873   -2.5755    0.8089 C   0  0  0  0  0  0  0  0  0  0  0  0
   -3.8793   -1.9065    1.3169 H   0  0  0  0  0  0  0  0  0  0  0  0
   -3.4623   -2.6685   -0.2401 H   0  0  0  0  0  0  0  0  0  0  0  0
   -1.7863   -2.0195    0.9119 C   0  0  0  0  0  0  0  0  0  0  0  0
   -0.9073   -2.6615    1.4699 O   0  0  0  0  0  0  0  0  0  0  0  0
   -1.5803   -0.8195    0.3749 N   0  0  0  0  0  0  0  0  0  0  0  0
   -2.3603   -0.3345   -0.0451 H   0  0  0  0  0  0  0  0  0  0  0  0
   -0.2933   -0.1205    0.3719 C   0  0  1  0  0  0  0  0  0  0  0  0
    0.1349   -0.1730    1.3739 H   0  0  0  0  0  0  0  0  0  0  0  0
    0.6640   -0.8350   -0.6038 C   0  0  0  0  0  0  0  0  0  0  0  0
    0.1695   -0.9043   -1.5742 H   0  0  0  0  0  0  0  0  0  0  0  0
    1.5673   -0.2355   -0.7254 H   0  0  0  0  0  0  0  0  0  0  0  0
    1.0723   -2.2483   -0.1536 C   0  0  0  0  0  0  0  0  0  0  0  0
    1.5867   -2.1982    0.8062 H   0  0  0  0  0  0  0  0  0  0  0  0
    0.1787   -2.8623   -0.0475 H   0  0  0  0  0  0  0  0  0  0  0  0
    1.9985   -2.9294   -1.1560 C   0  0  0  0  0  0  0  0  0  0  0  0
    2.2893   -2.4849   -2.2550 O   0  0  0  0  0  0  0  0  0  0  0  0
    2.5041   -4.1143   -0.7661 O   0  0  0  0  0  0  0  0  0  0  0  0
    3.0448   -4.4106   -1.5003 H   0  0  0  0  0  0  0  0  0  0  0  0
   -0.4920    1.3615    0.0160 C   0  0  0  0  0  0  0  0  0  0  0  0
   -1.2110    2.0714    0.7166 O   0  0  0  0  0  0  0  0  0  0  0  0
    0.1332    1.8209   -1.0747 N   0  0  0  0  0  0  0  0  0  0  0  0
    0.7250    1.1844   -1.5873 H   0  0  0  0  0  0  0  0  0  0  0  0
    0.0285    3.1965   -1.5572 C   0  0  0  0  0  0  0  0  0  0  0  0
    0.3419    3.8879   -0.7730 H   0  0  0  0  0  0  0  0  0  0  0  0
    0.6607    3.3394   -2.4348 H   0  0  0  0  0  0  0  0  0  0  0  0
   -1.0080    3.4171   -1.8197 H   0  0  0  0  0  0  0  0  0  0  0  0
  5  6  2  0  0  0  0
  5  7  1  0  0  0  0
  2  3  1  0  0  0  0
  2  4  1  0  0  0  0
  2  5  1  0  0  0  0
  1  2  1  0  0  0  0
 21 22  2  0  0  0  0
 21 23  1  0  0  0  0
 19 20  1  0  0  0  0
 17 18  2  0  0  0  0
 17 19  1  0  0  0  0
 14 15  1  0  0  0  0
 14 16  1  0  0  0  0
 14 17  1  0  0  0  0
 11 12  1  0  0  0  0
 11 13  1  0  0  0  0
 11 14  1  0  0  0  0
  9 10  1  0  0  0  0
  9 11  1  0  0  0  0
  9 21  1  0  0  0  0
  7  8  1  0  0  0  0
  7  9  1  0  0  0  0
 25 26  1  0  0  0  0
 25 27  1  0  0  0  0
 25 28  1  0  0  0  0
 23 24  1  0  0  0  0
 23 25  1  0  0  0  0
M  END
$$$$
default_name
  -OEChem-01062215323D

 28 27  0     1  0  0  0  0  0999 V2000
   -3.2133   -3.5565    1.2809 H   0  0  0  0  0  0  0  0  0  0  0  0
   -3.1873   -2.5755    0.8089 C   0  0  0  0  0  0  0  0  0  0  0  0
   -3.8793   -1.9065    1.3169 H   0  0  0  0  0  0  0  0  0  0  0  0
   -3.4623   -2.6685   -0.2401 H   0  0  0  0  0  0  0  0  0  0  0  0
   -1.7863   -2.0195    0.9119 C   0  0  0  0  0  0  0  0  0  0  0  0
   -0.9073   -2.6615    1.4699 O   0  0  0  0  0  0  0  0  0  0  0  0
   -1.5803   -0.8195    0.3749 N   0  0  0  0  0  0  0  0  0  0  0  0
   -2.3603   -0.3345   -0.0451 H   0  0  0  0  0  0  0  0  0  0  0  0
   -0.2933   -0.1205    0.3719 C   0  0  1  0  0  0  0  0  0  0  0  0
    0.1349   -0.1730    1.3739 H   0  0  0  0  0  0  0  0  0  0  0  0
    0.6640   -0.8350   -0.6038 C   0  0  0  0  0  0  0  0  0  0  0  0
    0.1695   -0.9043   -1.5742 H   0  0  0  0  0  0  0  0  0  0  0  0
    1.5673   -0.2355   -0.7254 H   0  0  0  0  0  0  0  0  0  0  0  0
    1.0723   -2.2483   -0.1536 C   0  0  0  0  0  0  0  0  0  0  0  0
    1.5867   -2.1982    0.8062 H   0  0  0  0  0  0  0  0  0  0  0  0
    0.1787   -2.8623   -0.0475 H   0  0  0  0  0  0  0  0  0  0  0  0
    1.9985   -2.9294   -1.1560 C   0  0  0  0  0  0  0  0  0  0  0  0
    2.2893   -2.4849   -2.2550 O   0  0  0  0  0  0  0  0  0  0  0  0
    2.5041   -4.1143   -0.7661 O   0  0  0  0  0  0  0  0  0  0  0  0
    3.0448   -4.4106   -1.5003 H   0  0  0  0  0  0  0  0  0  0  0  0
   -0.4920    1.3615    0.0160 C   0  0  0  0  0  0  0  0  0  0  0  0
   -0.9718    2.1340    0.8436 O   0  0  0  0  0  0  0  0  0  0  0  0
   -0.1355    1.7515   -1.2137 N   0  0  0  0  0  0  0  0  0  0  0  0
    0.2726    1.0653   -1.8308 H   0  0  0  0  0  0  0  0  0  0  0  0
   -0.2810    3.1180   -1.7112 C   0  0  0  0  0  0  0  0  0  0  0  0
    0.2569    3.8079   -1.0585 H   0  0  0  0  0  0  0  0  0  0  0  0
    0.1181    3.1973   -2.7235 H   0  0  0  0  0  0  0  0  0  0  0  0
   -1.3363    3.3978   -1.7167 H   0  0  0  0  0  0  0  0  0  0  0  0
  5  6  2  0  0  0  0
  5  7  1  0  0  0  0
  2  3  1  0  0  0  0
  2  4  1  0  0  0  0
  2  5  1  0  0  0  0
  1  2  1  0  0  0  0
 21 22  2  0  0  0  0
 21 23  1  0  0  0  0
 19 20  1  0  0  0  0
 17 18  2  0  0  0  0
 17 19  1  0  0  0  0
 14 15  1  0  0  0  0
 14 16  1  0  0  0  0
 14 17  1  0  0  0  0
 11 12  1  0  0  0  0
 11 13  1  0  0  0  0
 11 14  1  0  0  0  0
  9 10  1  0  0  0  0
  9 11  1  0  0  0  0
  9 21  1  0  0  0  0
  7  8  1  0  0  0  0
  7  9  1  0  0  0  0
 25 26  1  0  0  0  0
 25 27  1  0  0  0  0
 25 28  1  0  0  0  0
 23 24  1  0  0  0  0
 23 25  1  0  0  0  0
M  END
$$$$
default_name
  -OEChem-01062215323D

 28 27  0     1  0  0  0  0  0999 V2000
   -3.2133   -3.5565    1.2809 H   0  0  0  0  0  0  0  0  0  0  0  0
   -3.1873   -2.5755    0.8089 C   0  0  0  0  0  0  0  0  0  0  0  0
   -3.8793   -1.9065    1.3169 H   0  0  0  0  0  0  0  0  0  0  0  0
   -3.4623   -2.6685   -0.2401 H   0  0  0  0  0  0  0  0  0  0  0  0
   -1.7863   -2.0195    0.9119 C   0  0  0  0  0  0  0  0  0  0  0  0
   -0.9073   -2.6615    1.4699 O   0  0  0  0  0  0  0  0  0  0  0  0
   -1.5803   -0.8195    0.3749 N   0  0  0  0  0  0  0  0  0  0  0  0
   -2.3603   -0.3345   -0.0451 H   0  0  0  0  0  0  0  0  0  0  0  0
   -0.2933   -0.1205    0.3719 C   0  0  1  0  0  0  0  0  0  0  0  0
    0.1349   -0.1730    1.3739 H   0  0  0  0  0  0  0  0  0  0  0  0
    0.6640   -0.8350   -0.6038 C   0  0  0  0  0  0  0  0  0  0  0  0
    0.1695   -0.9043   -1.5742 H   0  0  0  0  0  0  0  0  0  0  0  0
    1.5673   -0.2355   -0.7254 H   0  0  0  0  0  0  0  0  0  0  0  0
    1.0723   -2.2483   -0.1536 C   0  0  0  0  0  0  0  0  0  0  0  0
    1.5867   -2.1982    0.8062 H   0  0  0  0  0  0  0  0  0  0  0  0
    0.1787   -2.8623   -0.0475 H   0  0  0  0  0  0  0  0  0  0  0  0
    1.9985   -2.9294   -1.1560 C   0  0  0  0  0  0  0  0  0  0  0  0
    2.2893   -2.4849   -2.2550 O   0  0  0  0  0  0  0  0  0  0  0  0
    2.5041   -4.1143   -0.7661 O   0  0  0  0  0  0  0  0  0  0  0  0
    3.0448   -4.4106   -1.5003 H   0  0  0  0  0  0  0  0  0  0  0  0
   -0.4920    1.3615    0.0160 C   0  0  0  0  0  0  0  0  0  0  0  0
   -0.7054    2.1843    0.9044 O   0  0  0  0  0  0  0  0  0  0  0  0
   -0.4339    1.6959   -1.2787 N   0  0  0  0  0  0  0  0  0  0  0  0
   -0.2322    0.9692   -1.9491 H   0  0  0  0  0  0  0  0  0  0  0  0
   -0.6231    3.0556   -1.7801 C   0  0  0  0  0  0  0  0  0  0  0  0
    0.0988    3.7262   -1.3105 H   0  0  0  0  0  0  0  0  0  0  0  0
   -0.4866    3.0829   -2.8621 H   0  0  0  0  0  0  0  0  0  0  0  0
   -1.6288    3.4023   -1.5346 H   0  0  0  0  0  0  0  0  0  0  0  0
  5  6  2  0  0  0  0
  5  7  1  0  0  0  0
  2  3  1  0  0  0  0
  2  4  1  0  0  0  0
  2  5  1  0  0  0  0
  1  2  1  0  0  0  0
 21 22  2  0  0  0  0
 21 23  1  0  0  0  0
 19 20  1  0  0  0  0
 17 18  2  0  0  0  0
 17 19  1  0  0  0  0
 14 15  1  0  0  0  0
 14 16  1  0  0  0  0
 14 17  1  0  0  0  0
 11 12  1  0  0  0  0
 11 13  1  0  0  0  0
 11 14  1  0  0  0  0
  9 10  1  0  0  0  0
  9 11  1  0  0  0  0
  9 21  1  0  0  0  0
  7  8  1  0  0  0  0
  7  9  1  0  0  0  0
 25 26  1  0  0  0  0
 25 27  1  0  0  0  0
 25 28  1  0  0  0  0
 23 24  1  0  0  0  0
 23 25  1  0  0  0  0
M  END
$$$$
default_name
  -OEChem-01062215323D

 28 27  0     1  0  0  0  0  0999 V2000
   -3.2133   -3.5565    1.2809 H   0  0  0  0  0  0  0  0  0  0  0  0
   -3.1873   -2.5755    0.8089 C   0  0  0  0  0  0  0  0  0  0  0  0
   -3.8793   -1.9065    1.3169 H   0  0  0  0  0  0  0  0  0  0  0  0
   -3.4623   -2.6685   -0.2401 H   0  0  0  0  0  0  0  0  0  0  0  0
   -1.7863   -2.0195    0.9119 C   0  0  0  0  0  0  0  0  0  0  0  0
   -0.9073   -2.6615    1.4699 O   0  0  0  0  0  0  0  0  0  0  0  0
   -1.5803   -0.8195    0.3749 N   0  0  0  0  0  0  0  0  0  0  0  0
   -2.3603   -0.3345   -0.0451 H   0  0  0  0  0  0  0  0  0  0  0  0
   -0.2933   -0.1205    0.3719 C   0  0  1  0  0  0  0  0  0  0  0  0
    0.1349   -0.1730    1.3739 H   0  0  0  0  0  0  0  0  0  0  0  0
    0.6640   -0.8350   -0.6038 C   0  0  0  0  0  0  0  0  0  0  0  0
    0.1695   -0.9043   -1.5742 H   0  0  0  0  0  0  0  0  0  0  0  0
    1.5673   -0.2355   -0.7254 H   0  0  0  0  0  0  0  0  0  0  0  0
    1.0723   -2.2483   -0.1536 C   0  0  0  0  0  0  0  0  0  0  0  0
    1.5867   -2.1982    0.8062 H   0  0  0  0  0  0  0  0  0  0  0  0
    0.1787   -2.8623   -0.0475 H   0  0  0  0  0  0  0  0  0  0  0  0
    1.9985   -2.9294   -1.1560 C   0  0  0  0  0  0  0  0  0  0  0  0
    2.2893   -2.4849   -2.2550 O   0  0  0  0  0  0  0  0  0  0  0  0
    2.5041   -4.1143   -0.7661 O   0  0  0  0  0  0  0  0  0  0  0  0
    3.0448   -4.4106   -1.5003 H   0  0  0  0  0  0  0  0  0  0  0  0
   -0.4920    1.3615    0.0160 C   0  0  0  0  0  0  0  0  0  0  0  0
   -0.4298    2.2190    0.8950 O   0  0  0  0  0  0  0  0  0  0  0  0
   -0.7416    1.6579   -1.2651 N   0  0  0  0  0  0  0  0  0  0  0  0
   -0.7552    0.9026   -1.9342 H   0  0  0  0  0  0  0  0  0  0  0  0
   -0.9744    3.0135   -1.7592 C   0  0  0  0  0  0  0  0  0  0  0  0
   -0.1217    3.6483   -1.5117 H   0  0  0  0  0  0  0  0  0  0  0  0
   -1.1121    3.0040   -2.8413 H   0  0  0  0  0  0  0  0  0  0  0  0
   -1.8656    3.4303   -1.2859 H   0  0  0  0  0  0  0  0  0  0  0  0
  5  6  2  0  0  0  0
  5  7  1  0  0  0  0
  2  3  1  0  0  0  0
  2  4  1  0  0  0  0
  2  5  1  0  0  0  0
  1  2  1  0  0  0  0
 21 22  2  0  0  0  0
 21 23  1  0  0  0  0
 19 20  1  0  0  0  0
 17 18  2  0  0  0  0
 17 19  1  0  0  0  0
 14 15  1  0  0  0  0
 14 16  1  0  0  0  0
 14 17  1  0  0  0  0
 11 12  1  0  0  0  0
 11 13  1  0  0  0  0
 11 14  1  0  0  0  0
  9 10  1  0  0  0  0
  9 11  1  0  0  0  0
  9 21  1  0  0  0  0
  7  8  1  0  0  0  0
  7  9  1  0  0  0  0
 25 26  1  0  0  0  0
 25 27  1  0  0  0  0
 25 28  1  0  0  0  0
 23 24  1  0  0  0  0
 23 25  1  0  0  0  0
M  END
$$$$
default_name
  -OEChem-01062215323D

 28 27  0     1  0  0  0  0  0999 V2000
   -3.2133   -3.5565    1.2809 H   0  0  0  0  0  0  0  0  0  0  0  0
   -3.1873   -2.5755    0.8089 C   0  0  0  0  0  0  0  0  0  0  0  0
   -3.8793   -1.9065    1.3169 H   0  0  0  0  0  0  0  0  0  0  0  0
   -3.4623   -2.6685   -0.2401 H   0  0  0  0  0  0  0  0  0  0  0  0
   -1.7863   -2.0195    0.9119 C   0  0  0  0  0  0  0  0  0  0  0  0
   -0.9073   -2.6615    1.4699 O   0  0  0  0  0  0  0  0  0  0  0  0
   -1.5803   -0.8195    0.3749 N   0  0  0  0  0  0  0  0  0  0  0  0
   -2.3603   -0.3345   -0.0451 H   0  0  0  0  0  0  0  0  0  0  0  0
   -0.2933   -0.1205    0.3719 C   0  0  1  0  0  0  0  0  0  0  0  0
    0.1349   -0.1730    1.3739 H   0  0  0  0  0  0  0  0  0  0  0  0
    0.6640   -0.8350   -0.6038 C   0  0  0  0  0  0  0  0  0  0  0  0
    0.1695   -0.9043   -1.5742 H   0  0  0  0  0  0  0  0  0  0  0  0
    1.5673   -0.2355   -0.7254 H   0  0  0  0  0  0  0  0  0  0  0  0
    1.0723   -2.2483   -0.1536 C   0  0  0  0  0  0  0  0  0  0  0  0
    1.5867   -2.1982    0.8062 H   0  0  0  0  0  0  0  0  0  0  0  0
    0.1787   -2.8623   -0.0475 H   0  0  0  0  0  0  0  0  0  0  0  0
    1.9985   -2.9294   -1.1560 C   0  0  0  0  0  0  0  0  0  0  0  0
    2.2893   -2.4849   -2.2550 O   0  0  0  0  0  0  0  0  0  0  0  0
    2.5041   -4.1143   -0.7661 O   0  0  0  0  0  0  0  0  0  0  0  0
    3.0448   -4.4106   -1.5003 H   0  0  0  0  0  0  0  0  0  0  0  0
   -0.4920    1.3615    0.0160 C   0  0  0  0  0  0  0  0  0  0  0  0
   -0.1639    2.2357    0.8160 O   0  0  0  0  0  0  0  0  0  0  0  0
   -1.0378    1.6400   -1.1740 N   0  0  0  0  0  0  0  0  0  0  0  0
   -1.2606    0.8702   -1.7870 H   0  0  0  0  0  0  0  0  0  0  0  0
   -1.3111    2.9946   -1.6499 C   0  0  0  0  0  0  0  0  0  0  0  0
   -0.3896    3.5796   -1.6484 H   0  0  0  0  0  0  0  0  0  0  0  0
   -1.7159    2.9660   -2.6625 H   0  0  0  0  0  0  0  0  0  0  0  0
   -2.0306    3.4798   -0.9875 H   0  0  0  0  0  0  0  0  0  0  0  0
  5  6  2  0  0  0  0
  5  7  1  0  0  0  0
  2  3  1  0  0  0  0
  2  4  1  0  0  0  0
  2  5  1  0  0  0  0
  1  2  1  0  0  0  0
 21 22  2  0  0  0  0
 21 23  1  0  0  0  0
 19 20  1  0  0  0  0
 17 18  2  0  0  0  0
 17 19  1  0  0  0  0
 14 15  1  0  0  0  0
 14 16  1  0  0  0  0
 14 17  1  0  0  0  0
 11 12  1  0  0  0  0
 11 13  1  0  0  0  0
 11 14  1  0  0  0  0
  9 10  1  0  0  0  0
  9 11  1  0  0  0  0
  9 21  1  0  0  0  0
  7  8  1  0  0  0  0
  7  9  1  0  0  0  0
 25 26  1  0  0  0  0
 25 27  1  0  0  0  0
 25 28  1  0  0  0  0
 23 24  1  0  0  0  0
 23 25  1  0  0  0  0
M  END
$$$$
default_name
  -OEChem-01062215323D

 28 27  0     1  0  0  0  0  0999 V2000
   -3.2133   -3.5565    1.2809 H   0  0  0  0  0  0  0  0  0  0  0  0
   -3.1873   -2.5755    0.8089 C   0  0  0  0  0  0  0  0  0  0  0  0
   -3.8793   -1.9065    1.3169 H   0  0  0  0  0  0  0  0  0  0  0  0
   -3.4623   -2.6685   -0.2401 H   0  0  0  0  0  0  0  0  0  0  0  0
   -1.7863   -2.0195    0.9119 C   0  0  0  0  0  0  0  0  0  0  0  0
   -0.9073   -2.6615    1.4699 O   0  0  0  0  0  0  0  0  0  0  0  0
   -1.5803   -0.8195    0.3749 N   0  0  0  0  0  0  0  0  0  0  0  0
   -2.3603   -0.3345   -0.0451 H   0  0  0  0  0  0  0  0  0  0  0  0
   -0.2933   -0.1205    0.3719 C   0  0  1  0  0  0  0  0  0  0  0  0
    0.1349   -0.1730    1.3739 H   0  0  0  0  0  0  0  0  0  0  0  0
    0.6640   -0.8350   -0.6038 C   0  0  0  0  0  0  0  0  0  0  0  0
    0.1695   -0.9043   -1.5742 H   0  0  0  0  0  0  0  0  0  0  0  0
    1.5673   -0.2355   -0.7254 H   0  0  0  0  0  0  0  0  0  0  0  0
    1.0723   -2.2483   -0.1536 C   0  0  0  0  0  0  0  0  0  0  0  0
    1.5867   -2.1982    0.8062 H   0  0  0  0  0  0  0  0  0  0  0  0
    0.1787   -2.8623   -0.0475 H   0  0  0  0  0  0  0  0  0  0  0  0
    1.9985   -2.9294   -1.1560 C   0  0  0  0  0  0  0  0  0  0  0  0
    2.2893   -2.4849   -2.2550 O   0  0  0  0  0  0  0  0  0  0  0  0
    2.5041   -4.1143   -0.7661 O   0  0  0  0  0  0  0  0  0  0  0  0
    3.0448   -4.4106   -1.5003 H   0  0  0  0  0  0  0  0  0  0  0  0
   -0.4920    1.3615    0.0160 C   0  0  0  0  0  0  0  0  0  0  0  0
    0.0742    2.2332    0.6728 O   0  0  0  0  0  0  0  0  0  0  0  0
   -1.3022    1.6436   -1.0114 N   0  0  0  0  0  0  0  0  0  0  0  0
   -1.7140    0.8741   -1.5177 H   0  0  0  0  0  0  0  0  0  0  0  0
   -1.6102    3.0002   -1.4597 C   0  0  0  0  0  0  0  0  0  0  0  0
   -0.6866    3.5247   -1.7112 H   0  0  0  0  0  0  0  0  0  0  0  0
   -2.2567    2.9715   -2.3379 H   0  0  0  0  0  0  0  0  0  0  0  0
   -2.1126    3.5476   -0.6597 H   0  0  0  0  0  0  0  0  0  0  0  0
  5  6  2  0  0  0  0
  5  7  1  0  0  0  0
  2  3  1  0  0  0  0
  2  4  1  0  0  0  0
  2  5  1  0  0  0  0
  1  2  1  0  0  0  0
 21 22  2  0  0  0  0
 21 23  1  0  0  0  0
 19 20  1  0  0  0  0
 17 18  2  0  0  0  0
 17 19  1  0  0  0  0
 14 15  1  0  0  0  0
 14 16  1  0  0  0  0
 14 17  1  0  0  0  0
 11 12  1  0  0  0  0
 11 13  1  0  0  0  0
 11 14  1  0  0  0  0
  9 10  1  0  0  0  0
  9 11  1  0  0  0  0
  9 21  1  0  0  0  0
  7  8  1  0  0  0  0
  7  9  1  0  0  0  0
 25 26  1  0  0  0  0
 25 27  1  0  0  0  0
 25 28  1  0  0  0  0
 23 24  1  0  0  0  0
 23 25  1  0  0  0  0
M  END
$$$$
default_name
  -OEChem-01062215323D

 28 27  0     1  0  0  0  0  0999 V2000
   -3.2133   -3.5565    1.2809 H   0  0  0  0  0  0  0  0  0  0  0  0
   -3.1873   -2.5755    0.8089 C   0  0  0  0  0  0  0  0  0  0  0  0
   -3.8793   -1.9065    1.3169 H   0  0  0  0  0  0  0  0  0  0  0  0
   -3.4623   -2.6685   -0.2401 H   0  0  0  0  0  0  0  0  0  0  0  0
   -1.7863   -2.0195    0.9119 C   0  0  0  0  0  0  0  0  0  0  0  0
   -0.9073   -2.6615    1.4699 O   0  0  0  0  0  0  0  0  0  0  0  0
   -1.5803   -0.8195    0.3749 N   0  0  0  0  0  0  0  0  0  0  0  0
   -2.3603   -0.3345   -0.0451 H   0  0  0  0  0  0  0  0  0  0  0  0
   -0.2933   -0.1205    0.3719 C   0  0  1  0  0  0  0  0  0  0  0  0
    0.1349   -0.1730    1.3739 H   0  0  0  0  0  0  0  0  0  0  0  0
    0.6640   -0.8350   -0.6038 C   0  0  0  0  0  0  0  0  0  0  0  0
    0.1695   -0.9043   -1.5742 H   0  0  0  0  0  0  0  0  0  0  0  0
    1.5673   -0.2355   -0.7254 H   0  0  0  0  0  0  0  0  0  0  0  0
    1.0723   -2.2483   -0.1536 C   0  0  0  0  0  0  0  0  0  0  0  0
    1.5867   -2.1982    0.8062 H   0  0  0  0  0  0  0  0  0  0  0  0
    0.1787   -2.8623   -0.0475 H   0  0  0  0  0  0  0  0  0  0  0  0
    1.9985   -2.9294   -1.1560 C   0  0  0  0  0  0  0  0  0  0  0  0
    2.2893   -2.4849   -2.2550 O   0  0  0  0  0  0  0  0  0  0  0  0
    2.5041   -4.1143   -0.7661 O   0  0  0  0  0  0  0  0  0  0  0  0
    3.0448   -4.4106   -1.5003 H   0  0  0  0  0  0  0  0  0  0  0  0
   -0.4920    1.3615    0.0160 C   0  0  0  0  0  0  0  0  0  0  0  0
    0.2683    2.2118    0.4750 O   0  0  0  0  0  0  0  0  0  0  0  0
   -1.5168    1.6684   -0.7885 N   0  0  0  0  0  0  0  0  0  0  0  0
   -2.0845    0.9140   -1.1445 H   0  0  0  0  0  0  0  0  0  0  0  0
   -1.8512    3.0298   -1.2015 C   0  0  0  0  0  0  0  0  0  0  0  0
   -0.9924    3.4873   -1.6960 H   0  0  0  0  0  0  0  0  0  0  0  0
   -2.6978    3.0200   -1.8895 H   0  0  0  0  0  0  0  0  0  0  0  0
   -2.1059    3.6288   -0.3249 H   0  0  0  0  0  0  0  0  0  0  0  0
  5  6  2  0  0  0  0
  5  7  1  0  0  0  0
  2  3  1  0  0  0  0
  2  4  1  0  0  0  0
  2  5  1  0  0  0  0
  1  2  1  0  0  0  0
 21 22  2  0  0  0  0
 21 23  1  0  0  0  0
 19 20  1  0  0  0  0
 17 18  2  0  0  0  0
 17 19  1  0  0  0  0
 14 15  1  0  0  0  0
 14 16  1  0  0  0  0
 14 17  1  0  0  0  0
 11 12  1  0  0  0  0
 11 13  1  0  0  0  0
 11 14  1  0  0  0  0
  9 10  1  0  0  0  0
  9 11  1  0  0  0  0
  9 21  1  0  0  0  0
  7  8  1  0  0  0  0
  7  9  1  0  0  0  0
 25 26  1  0  0  0  0
 25 27  1  0  0  0  0
 25 28  1  0  0  0  0
 23 24  1  0  0  0  0
 23 25  1  0  0  0  0
M  END
$$$$
default_name
  -OEChem-01062215323D

 28 27  0     1  0  0  0  0  0999 V2000
   -3.2133   -3.5565    1.2809 H   0  0  0  0  0  0  0  0  0  0  0  0
   -3.1873   -2.5755    0.8089 C   0  0  0  0  0  0  0  0  0  0  0  0
   -3.8793   -1.9065    1.3169 H   0  0  0  0  0  0  0  0  0  0  0  0
   -3.4623   -2.6685   -0.2401 H   0  0  0  0  0  0  0  0  0  0  0  0
   -1.7863   -2.0195    0.9119 C   0  0  0  0  0  0  0  0  0  0  0  0
   -0.9073   -2.6615    1.4699 O   0  0  0  0  0  0  0  0  0  0  0  0
   -1.5803   -0.8195    0.3749 N   0  0  0  0  0  0  0  0  0  0  0  0
   -2.3603   -0.3345   -0.0451 H   0  0  0  0  0  0  0  0  0  0  0  0
   -0.2933   -0.1205    0.3719 C   0  0  1  0  0  0  0  0  0  0  0  0
    0.1349   -0.1730    1.3739 H   0  0  0  0  0  0  0  0  0  0  0  0
    0.6640   -0.8350   -0.6038 C   0  0  0  0  0  0  0  0  0  0  0  0
    0.1695   -0.9043   -1.5742 H   0  0  0  0  0  0  0  0  0  0  0  0
    1.5673   -0.2355   -0.7254 H   0  0  0  0  0  0  0  0  0  0  0  0
    1.0723   -2.2483   -0.1536 C   0  0  0  0  0  0  0  0  0  0  0  0
    1.5867   -2.1982    0.8062 H   0  0  0  0  0  0  0  0  0  0  0  0
    0.1787   -2.8623   -0.0475 H   0  0  0  0  0  0  0  0  0  0  0  0
    1.9985   -2.9294   -1.1560 C   0  0  0  0  0  0  0  0  0  0  0  0
    2.2893   -2.4849   -2.2550 O   0  0  0  0  0  0  0  0  0  0  0  0
    2.5041   -4.1143   -0.7661 O   0  0  0  0  0  0  0  0  0  0  0  0
    3.0448   -4.4106   -1.5003 H   0  0  0  0  0  0  0  0  0  0  0  0
   -0.4920    1.3615    0.0160 C   0  0  0  0  0  0  0  0  0  0  0  0
    0.4052    2.1728    0.2364 O   0  0  0  0  0  0  0  0  0  0  0  0
   -1.6669    1.7126   -0.5204 N   0  0  0  0  0  0  0  0  0  0  0  0
   -2.3469    0.9873   -0.6929 H   0  0  0  0  0  0  0  0  0  0  0  0
   -2.0179    3.0816   -0.8929 C   0  0  0  0  0  0  0  0  0  0  0  0
   -1.2863    3.4701   -1.6037 H   0  0  0  0  0  0  0  0  0  0  0  0
   -3.0090    3.1083   -1.3480 H   0  0  0  0  0  0  0  0  0  0  0  0
   -2.0110    3.7182   -0.0060 H   0  0  0  0  0  0  0  0  0  0  0  0
  5  6  2  0  0  0  0
  5  7  1  0  0  0  0
  2  3  1  0  0  0  0
  2  4  1  0  0  0  0
  2  5  1  0  0  0  0
  1  2  1  0  0  0  0
 21 22  2  0  0  0  0
 21 23  1  0  0  0  0
 19 20  1  0  0  0  0
 17 18  2  0  0  0  0
 17 19  1  0  0  0  0
 14 15  1  0  0  0  0
 14 16  1  0  0  0  0
 14 17  1  0  0  0  0
 11 12  1  0  0  0  0
 11 13  1  0  0  0  0
 11 14  1  0  0  0  0
  9 10  1  0  0  0  0
  9 11  1  0  0  0  0
  9 21  1  0  0  0  0
  7  8  1  0  0  0  0
  7  9  1  0  0  0  0
 25 26  1  0  0  0  0
 25 27  1  0  0  0  0
 25 28  1  0  0  0  0
 23 24  1  0  0  0  0
 23 25  1  0  0  0  0
M  END
$$$$
default_name
  -OEChem-01062215323D

 28 27  0     1  0  0  0  0  0999 V2000
   -3.2133   -3.5565    1.2809 H   0  0  0  0  0  0  0  0  0  0  0  0
   -3.1873   -2.5755    0.8089 C   0  0  0  0  0  0  0  0  0  0  0  0
   -3.8793   -1.9065    1.3169 H   0  0  0  0  0  0  0  0  0  0  0  0
   -3.4623   -2.6685   -0.2401 H   0  0  0  0  0  0  0  0  0  0  0  0
   -1.7863   -2.0195    0.9119 C   0  0  0  0  0  0  0  0  0  0  0  0
   -0.9073   -2.6615    1.4699 O   0  0  0  0  0  0  0  0  0  0  0  0
   -1.5803   -0.8195    0.3749 N   0  0  0  0  0  0  0  0  0  0  0  0
   -2.3603   -0.3345   -0.0451 H   0  0  0  0  0  0  0  0  0  0  0  0
   -0.2933   -0.1205    0.3719 C   0  0  1  0  0  0  0  0  0  0  0  0
    0.1349   -0.1730    1.3739 H   0  0  0  0  0  0  0  0  0  0  0  0
    0.6640   -0.8350   -0.6038 C   0  0  0  0  0  0  0  0  0  0  0  0
    0.1695   -0.9043   -1.5742 H   0  0  0  0  0  0  0  0  0  0  0  0
    1.5673   -0.2355   -0.7254 H   0  0  0  0  0  0  0  0  0  0  0  0
    1.0723   -2.2483   -0.1536 C   0  0  0  0  0  0  0  0  0  0  0  0
    1.5867   -2.1982    0.8062 H   0  0  0  0  0  0  0  0  0  0  0  0
    0.1787   -2.8623   -0.0475 H   0  0  0  0  0  0  0  0  0  0  0  0
    1.9985   -2.9294   -1.1560 C   0  0  0  0  0  0  0  0  0  0  0  0
    2.2893   -2.4849   -2.2550 O   0  0  0  0  0  0  0  0  0  0  0  0
    2.5041   -4.1143   -0.7661 O   0  0  0  0  0  0  0  0  0  0  0  0
    3.0448   -4.4106   -1.5003 H   0  0  0  0  0  0  0  0  0  0  0  0
   -0.4920    1.3615    0.0160 C   0  0  0  0  0  0  0  0  0  0  0  0
    0.4755    2.1190   -0.0271 O   0  0  0  0  0  0  0  0  0  0  0  0
   -1.7425    1.7733   -0.2255 N   0  0  0  0  0  0  0  0  0  0  0  0
   -2.4832    1.0889   -0.1937 H   0  0  0  0  0  0  0  0  0  0  0  0
   -2.0988    3.1519   -0.5550 C   0  0  0  0  0  0  0  0  0  0  0  0
   -1.5481    3.4741   -1.4407 H   0  0  0  0  0  0  0  0  0  0  0  0
   -3.1692    3.2304   -0.7501 H   0  0  0  0  0  0  0  0  0  0  0  0
   -1.8344    3.8094    0.2755 H   0  0  0  0  0  0  0  0  0  0  0  0
  5  6  2  0  0  0  0
  5  7  1  0  0  0  0
  2  3  1  0  0  0  0
  2  4  1  0  0  0  0
  2  5  1  0  0  0  0
  1  2  1  0  0  0  0
 21 22  2  0  0  0  0
 21 23  1  0  0  0  0
 19 20  1  0  0  0  0
 17 18  2  0  0  0  0
 17 19  1  0  0  0  0
 14 15  1  0  0  0  0
 14 16  1  0  0  0  0
 14 17  1  0  0  0  0
 11 12  1  0  0  0  0
 11 13  1  0  0  0  0
 11 14  1  0  0  0  0
  9 10  1  0  0  0  0
  9 11  1  0  0  0  0
  9 21  1  0  0  0  0
  7  8  1  0  0  0  0
  7  9  1  0  0  0  0
 25 26  1  0  0  0  0
 25 27  1  0  0  0  0
 25 28  1  0  0  0  0
 23 24  1  0  0  0  0
 23 25  1  0  0  0  0
M  END
$$$$
default_name
  -OEChem-01062215323D

 28 27  0     1  0  0  0  0  0999 V2000
   -3.2133   -3.5565    1.2809 H   0  0  0  0  0  0  0  0  0  0  0  0
   -3.1873   -2.5755    0.8089 C   0  0  0  0  0  0  0  0  0  0  0  0
   -3.8793   -1.9065    1.3169 H   0  0  0  0  0  0  0  0  0  0  0  0
   -3.4623   -2.6685   -0.2401 H   0  0  0  0  0  0  0  0  0  0  0  0
   -1.7863   -2.0195    0.9119 C   0  0  0  0  0  0  0  0  0  0  0  0
   -0.9073   -2.6615    1.4699 O   0  0  0  0  0  0  0  0  0  0  0  0
   -1.5803   -0.8195    0.3749 N   0  0  0  0  0  0  0  0  0  0  0  0
   -2.3603   -0.3345   -0.0451 H   0  0  0  0  0  0  0  0  0  0  0  0
   -0.2933   -0.1205    0.3719 C   0  0  1  0  0  0  0  0  0  0  0  0
    0.1349   -0.1730    1.3739 H   0  0  0  0  0  0  0  0  0  0  0  0
    0.6640   -0.8350   -0.6038 C   0  0  0  0  0  0  0  0  0  0  0  0
    0.1695   -0.9043   -1.5742 H   0  0  0  0  0  0  0  0  0  0  0  0
    1.5673   -0.2355   -0.7254 H   0  0  0  0  0  0  0  0  0  0  0  0
    1.0723   -2.2483   -0.1536 C   0  0  0  0  0  0  0  0  0  0  0  0
    1.5867   -2.1982    0.8062 H   0  0  0  0  0  0  0  0  0  0  0  0
    0.1787   -2.8623   -0.0475 H   0  0  0  0  0  0  0  0  0  0  0  0
    1.9985   -2.9294   -1.1560 C   0  0  0  0  0  0  0  0  0  0  0  0
    2.2893   -2.4849   -2.2550 O   0  0  0  0  0  0  0  0  0  0  0  0
    2.5041   -4.1143   -0.7661 O   0  0  0  0  0  0  0  0  0  0  0  0
    3.0448   -4.4106   -1.5003 H   0  0  0  0  0  0  0  0  0  0  0  0
   -0.4920    1.3615    0.0160 C   0  0  0  0  0  0  0  0  0  0  0  0
    0.4745    2.0540   -0.2972 O   0  0  0  0  0  0  0  0  0  0  0  0
   -1.7382    1.8463    0.0761 N   0  0  0  0  0  0  0  0  0  0  0  0
   -2.4842    1.2119    0.3192 H   0  0  0  0  0  0  0  0  0  0  0  0
   -2.0883    3.2359   -0.2108 C   0  0  0  0  0  0  0  0  0  0  0  0
   -1.7601    3.4992   -1.2180 H   0  0  0  0  0  0  0  0  0  0  0  0
   -3.1674    3.3779   -0.1368 H   0  0  0  0  0  0  0  0  0  0  0  0
   -1.5882    3.8964    0.5002 H   0  0  0  0  0  0  0  0  0  0  0  0
  5  6  2  0  0  0  0
  5  7  1  0  0  0  0
  2  3  1  0  0  0  0
  2  4  1  0  0  0  0
  2  5  1  0  0  0  0
  1  2  1  0  0  0  0
 21 22  2  0  0  0  0
 21 23  1  0  0  0  0
 19 20  1  0  0  0  0
 17 18  2  0  0  0  0
 17 19  1  0  0  0  0
 14 15  1  0  0  0  0
 14 16  1  0  0  0  0
 14 17  1  0  0  0  0
 11 12  1  0  0  0  0
 11 13  1  0  0  0  0
 11 14  1  0  0  0  0
  9 10  1  0  0  0  0
  9 11  1  0  0  0  0
  9 21  1  0  0  0  0
  7  8  1  0  0  0  0
  7  9  1  0  0  0  0
 25 26  1  0  0  0  0
 25 27  1  0  0  0  0
 25 28  1  0  0  0  0
 23 24  1  0  0  0  0
 23 25  1  0  0  0  0
M  END
$$$$
default_name
  -OEChem-01062215323D

 28 27  0     1  0  0  0  0  0999 V2000
   -3.2133   -3.5565    1.2809 H   0  0  0  0  0  0  0  0  0  0  0  0
   -3.1873   -2.5755    0.8089 C   0  0  0  0  0  0  0  0  0  0  0  0
   -3.8793   -1.9065    1.3169 H   0  0  0  0  0  0  0  0  0  0  0  0
   -3.4623   -2.6685   -0.2401 H   0  0  0  0  0  0  0  0  0  0  0  0
   -1.7863   -2.0195    0.9119 C   0  0  0  0  0  0  0  0  0  0  0  0
   -0.9073   -2.6615    1.4699 O   0  0  0  0  0  0  0  0  0  0  0  0
   -1.5803   -0.8195    0.3749 N   0  0  0  0  0  0  0  0  0  0  0  0
   -2.3603   -0.3345   -0.0451 H   0  0  0  0  0  0  0  0  0  0  0  0
   -0.2933   -0.1205    0.3719 C   0  0  1  0  0  0  0  0  0  0  0  0
    0.1349   -0.1730    1.3739 H   0  0  0  0  0  0  0  0  0  0  0  0
    0.6640   -0.8350   -0.6038 C   0  0  0  0  0  0  0  0  0  0  0  0
    0.1695   -0.9043   -1.5742 H   0  0  0  0  0  0  0  0  0  0  0  0
    1.5673   -0.2355   -0.7254 H   0  0  0  0  0  0  0  0  0  0  0  0
    1.0723   -2.2483   -0.1536 C   0  0  0  0  0  0  0  0  0  0  0  0
    1.5867   -2.1982    0.8062 H   0  0  0  0  0  0  0  0  0  0  0  0
    0.1787   -2.8623   -0.0475 H   0  0  0  0  0  0  0  0  0  0  0  0
    1.9985   -2.9294   -1.1560 C   0  0  0  0  0  0  0  0  0  0  0  0
    2.2893   -2.4849   -2.2550 O   0  0  0  0  0  0  0  0  0  0  0  0
    2.5041   -4.1143   -0.7661 O   0  0  0  0  0  0  0  0  0  0  0  0
    3.0448   -4.4106   -1.5003 H   0  0  0  0  0  0  0  0  0  0  0  0
   -0.4920    1.3615    0.0160 C   0  0  0  0  0  0  0  0  0  0  0  0
    0.4022    1.9822   -0.5558 O   0  0  0  0  0  0  0  0  0  0  0  0
   -1.6544    1.9267    0.3640 N   0  0  0  0  0  0  0  0  0  0  0  0
   -2.3499    1.3480    0.8107 H   0  0  0  0  0  0  0  0  0  0  0  0
   -1.9873    3.3280    0.1163 C   0  0  0  0  0  0  0  0  0  0  0  0
   -1.9078    3.5435   -0.9508 H   0  0  0  0  0  0  0  0  0  0  0  0
   -3.0038    3.5408    0.4502 H   0  0  0  0  0  0  0  0  0  0  0  0
   -1.2890    3.9732    0.6529 H   0  0  0  0  0  0  0  0  0  0  0  0
  5  6  2  0  0  0  0
  5  7  1  0  0  0  0
  2  3  1  0  0  0  0
  2  4  1  0  0  0  0
  2  5  1  0  0  0  0
  1  2  1  0  0  0  0
 21 22  2  0  0  0  0
 21 23  1  0  0  0  0
 19 20  1  0  0  0  0
 17 18  2  0  0  0  0
 17 19  1  0  0  0  0
 14 15  1  0  0  0  0
 14 16  1  0  0  0  0
 14 17  1  0  0  0  0
 11 12  1  0  0  0  0
 11 13  1  0  0  0  0
 11 14  1  0  0  0  0
  9 10  1  0  0  0  0
  9 11  1  0  0  0  0
  9 21  1  0  0  0  0
  7  8  1  0  0  0  0
  7  9  1  0  0  0  0
 25 26  1  0  0  0  0
 25 27  1  0  0  0  0
 25 28  1  0  0  0  0
 23 24  1  0  0  0  0
 23 25  1  0  0  0  0
M  END
$$$$
default_name
  -OEChem-01062215323D

 28 27  0     1  0  0  0  0  0999 V2000
   -3.2133   -3.5565    1.2809 H   0  0  0  0  0  0  0  0  0  0  0  0
   -3.1873   -2.5755    0.8089 C   0  0  0  0  0  0  0  0  0  0  0  0
   -3.8793   -1.9065    1.3169 H   0  0  0  0  0  0  0  0  0  0  0  0
   -3.4623   -2.6685   -0.2401 H   0  0  0  0  0  0  0  0  0  0  0  0
   -1.7863   -2.0195    0.9119 C   0  0  0  0  0  0  0  0  0  0  0  0
   -0.9073   -2.6615    1.4699 O   0  0  0  0  0  0  0  0  0  0  0  0
   -1.5803   -0.8195    0.3749 N   0  0  0  0  0  0  0  0  0  0  0  0
   -2.3603   -0.3345   -0.0451 H   0  0  0  0  0  0  0  0  0  0  0  0
   -0.2933   -0.1205    0.3719 C   0  0  1  0  0  0  0  0  0  0  0  0
    0.1349   -0.1730    1.3739 H   0  0  0  0  0  0  0  0  0  0  0  0
    0.6640   -0.8350   -0.6038 C   0  0  0  0  0  0  0  0  0  0  0  0
    0.1695   -0.9043   -1.5742 H   0  0  0  0  0  0  0  0  0  0  0  0
    1.5673   -0.2355   -0.7254 H   0  0  0  0  0  0  0  0  0  0  0  0
    1.0723   -2.2483   -0.1536 C   0  0  0  0  0  0  0  0  0  0  0  0
    1.5867   -2.1982    0.8062 H   0  0  0  0  0  0  0  0  0  0  0  0
    0.1787   -2.8623   -0.0475 H   0  0  0  0  0  0  0  0  0  0  0  0
    1.9985   -2.9294   -1.1560 C   0  0  0  0  0  0  0  0  0  0  0  0
    2.2893   -2.4849   -2.2550 O   0  0  0  0  0  0  0  0  0  0  0  0
    2.5041   -4.1143   -0.7661 O   0  0  0  0  0  0  0  0  0  0  0  0
    3.0448   -4.4106   -1.5003 H   0  0  0  0  0  0  0  0  0  0  0  0
   -0.4920    1.3615    0.0160 C   0  0  0  0  0  0  0  0  0  0  0  0
    0.2635    1.9085   -0.7851 O   0  0  0  0  0  0  0  0  0  0  0  0
   -1.4968    2.0089    0.6184 N   0  0  0  0  0  0  0  0  0  0  0  0
   -2.0893    1.4878    1.2473 H   0  0  0  0  0  0  0  0  0  0  0  0
   -1.8026    3.4219    0.4039 C   0  0  0  0  0  0  0  0  0  0  0  0
   -1.9812    3.6042   -0.6574 H   0  0  0  0  0  0  0  0  0  0  0  0
   -2.6895    3.7080    0.9710 H   0  0  0  0  0  0  0  0  0  0  0  0
   -0.9573    4.0346    0.7232 H   0  0  0  0  0  0  0  0  0  0  0  0
  5  6  2  0  0  0  0
  5  7  1  0  0  0  0
  2  3  1  0  0  0  0
  2  4  1  0  0  0  0
  2  5  1  0  0  0  0
  1  2  1  0  0  0  0
 21 22  2  0  0  0  0
 21 23  1  0  0  0  0
 19 20  1  0  0  0  0
 17 18  2  0  0  0  0
 17 19  1  0  0  0  0
 14 15  1  0  0  0  0
 14 16  1  0  0  0  0
 14 17  1  0  0  0  0
 11 12  1  0  0  0  0
 11 13  1  0  0  0  0
 11 14  1  0  0  0  0
  9 10  1  0  0  0  0
  9 11  1  0  0  0  0
  9 21  1  0  0  0  0
  7  8  1  0  0  0  0
  7  9  1  0  0  0  0
 25 26  1  0  0  0  0
 25 27  1  0  0  0  0
 25 28  1  0  0  0  0
 23 24  1  0  0  0  0
 23 25  1  0  0  0  0
M  END
$$$$
default_name
  -OEChem-01062215323D

 28 27  0     1  0  0  0  0  0999 V2000
   -3.2133   -3.5565    1.2809 H   0  0  0  0  0  0  0  0  0  0  0  0
   -3.1873   -2.5755    0.8089 C   0  0  0  0  0  0  0  0  0  0  0  0
   -3.8793   -1.9065    1.3169 H   0  0  0  0  0  0  0  0  0  0  0  0
   -3.4623   -2.6685   -0.2401 H   0  0  0  0  0  0  0  0  0  0  0  0
   -1.7863   -2.0195    0.9119 C   0  0  0  0  0  0  0  0  0  0  0  0
   -0.9073   -2.6615    1.4699 O   0  0  0  0  0  0  0  0  0  0  0  0
   -1.5803   -0.8195    0.3749 N   0  0  0  0  0  0  0  0  0  0  0  0
   -2.3603   -0.3345   -0.0451 H   0  0  0  0  0  0  0  0  0  0  0  0
   -0.2933   -0.1205    0.3719 C   0  0  1  0  0  0  0  0  0  0  0  0
    0.1349   -0.1730    1.3739 H   0  0  0  0  0  0  0  0  0  0  0  0
    0.6640   -0.8350   -0.6038 C   0  0  0  0  0  0  0  0  0  0  0  0
    0.1695   -0.9043   -1.5742 H   0  0  0  0  0  0  0  0  0  0  0  0
    1.5673   -0.2355   -0.7254 H   0  0  0  0  0  0  0  0  0  0  0  0
    1.0723   -2.2483   -0.1536 C   0  0  0  0  0  0  0  0  0  0  0  0
    1.5867   -2.1982    0.8062 H   0  0  0  0  0  0  0  0  0  0  0  0
    0.1787   -2.8623   -0.0475 H   0  0  0  0  0  0  0  0  0  0  0  0
    1.9985   -2.9294   -1.1560 C   0  0  0  0  0  0  0  0  0  0  0  0
    2.2893   -2.4849   -2.2550 O   0  0  0  0  0  0  0  0  0  0  0  0
    2.5041   -4.1143   -0.7661 O   0  0  0  0  0  0  0  0  0  0  0  0
    3.0448   -4.4106   -1.5003 H   0  0  0  0  0  0  0  0  0  0  0  0
   -0.4920    1.3615    0.0160 C   0  0  0  0  0  0  0  0  0  0  0  0
    0.0679    1.8380   -0.9695 O   0  0  0  0  0  0  0  0  0  0  0  0
   -1.2761    2.0874    0.8221 N   0  0  0  0  0  0  0  0  0  0  0  0
   -1.7202    1.6218    1.5994 H   0  0  0  0  0  0  0  0  0  0  0  0
   -1.5468    3.5111    0.6325 C   0  0  0  0  0  0  0  0  0  0  0  0
   -1.9752    3.6769   -0.3576 H   0  0  0  0  0  0  0  0  0  0  0  0
   -2.2460    3.8681    1.3900 H   0  0  0  0  0  0  0  0  0  0  0  0
   -0.6156    4.0763    0.7063 H   0  0  0  0  0  0  0  0  0  0  0  0
  5  6  2  0  0  0  0
  5  7  1  0  0  0  0
  2  3  1  0  0  0  0
  2  4  1  0  0  0  0
  2  5  1  0  0  0  0
  1  2  1  0  0  0  0
 21 22  2  0  0  0  0
 21 23  1  0  0  0  0
 19 20  1  0  0  0  0
 17 18  2  0  0  0  0
 17 19  1  0  0  0  0
 14 15  1  0  0  0  0
 14 16  1  0  0  0  0
 14 17  1  0  0  0  0
 11 12  1  0  0  0  0
 11 13  1  0  0  0  0
 11 14  1  0  0  0  0
  9 10  1  0  0  0  0
  9 11  1  0  0  0  0
  9 21  1  0  0  0  0
  7  8  1  0  0  0  0
  7  9  1  0  0  0  0
 25 26  1  0  0  0  0
 25 27  1  0  0  0  0
 25 28  1  0  0  0  0
 23 24  1  0  0  0  0
 23 25  1  0  0  0  0
M  END
$$$$
default_name
  -OEChem-01062215323D

 28 27  0     1  0  0  0  0  0999 V2000
   -3.2133   -3.5565    1.2809 H   0  0  0  0  0  0  0  0  0  0  0  0
   -3.1873   -2.5755    0.8089 C   0  0  0  0  0  0  0  0  0  0  0  0
   -3.8793   -1.9065    1.3169 H   0  0  0  0  0  0  0  0  0  0  0  0
   -3.4623   -2.6685   -0.2401 H   0  0  0  0  0  0  0  0  0  0  0  0
   -1.7863   -2.0195    0.9119 C   0  0  0  0  0  0  0  0  0  0  0  0
   -0.9073   -2.6615    1.4699 O   0  0  0  0  0  0  0  0  0  0  0  0
   -1.5803   -0.8195    0.3749 N   0  0  0  0  0  0  0  0  0  0  0  0
   -2.3603   -0.3345   -0.0451 H   0  0  0  0  0  0  0  0  0  0  0  0
   -0.2933   -0.1205    0.3719 C   0  0  1  0  0  0  0  0  0  0  0  0
    0.1349   -0.1730    1.3739 H   0  0  0  0  0  0  0  0  0  0  0  0
    0.6640   -0.8350   -0.6038 C   0  0  0  0  0  0  0  0  0  0  0  0
    0.1695   -0.9043   -1.5742 H   0  0  0  0  0  0  0  0  0  0  0  0
    1.5673   -0.2355   -0.7254 H   0  0  0  0  0  0  0  0  0  0  0  0
    1.0723   -2.2483   -0.1536 C   0  0  0  0  0  0  0  0  0  0  0  0
    1.5867   -2.1982    0.8062 H   0  0  0  0  0  0  0  0  0  0  0  0
    0.1787   -2.8623   -0.0475 H   0  0  0  0  0  0  0  0  0  0  0  0
    1.9985   -2.9294   -1.1560 C   0  0  0  0  0  0  0  0  0  0  0  0
    2.2893   -2.4849   -2.2550 O   0  0  0  0  0  0  0  0  0  0  0  0
    2.5041   -4.1143   -0.7661 O   0  0  0  0  0  0  0  0  0  0  0  0
    3.0448   -4.4106   -1.5003 H   0  0  0  0  0  0  0  0  0  0  0  0
   -0.4920    1.3615    0.0160 C   0  0  0  0  0  0  0  0  0  0  0  0
   -0.1713    1.7755   -1.0964 O   0  0  0  0  0  0  0  0  0  0  0  0
   -1.0075    2.1569    0.9612 N   0  0  0  0  0  0  0  0  0  0  0  0
   -1.2678    1.7409    1.8429 H   0  0  0  0  0  0  0  0  0  0  0  0
   -1.2373    3.5895    0.7865 C   0  0  0  0  0  0  0  0  0  0  0  0
   -1.8902    3.7569   -0.0721 H   0  0  0  0  0  0  0  0  0  0  0  0
   -1.7034    4.0102    1.6787 H   0  0  0  0  0  0  0  0  0  0  0  0
   -0.2874    4.0956    0.6032 H   0  0  0  0  0  0  0  0  0  0  0  0
  5  6  2  0  0  0  0
  5  7  1  0  0  0  0
  2  3  1  0  0  0  0
  2  4  1  0  0  0  0
  2  5  1  0  0  0  0
  1  2  1  0  0  0  0
 21 22  2  0  0  0  0
 21 23  1  0  0  0  0
 19 20  1  0  0  0  0
 17 18  2  0  0  0  0
 17 19  1  0  0  0  0
 14 15  1  0  0  0  0
 14 16  1  0  0  0  0
 14 17  1  0  0  0  0
 11 12  1  0  0  0  0
 11 13  1  0  0  0  0
 11 14  1  0  0  0  0
  9 10  1  0  0  0  0
  9 11  1  0  0  0  0
  9 21  1  0  0  0  0
  7  8  1  0  0  0  0
  7  9  1  0  0  0  0
 25 26  1  0  0  0  0
 25 27  1  0  0  0  0
 25 28  1  0  0  0  0
 23 24  1  0  0  0  0
 23 25  1  0  0  0  0
M  END
$$$$
default_name
  -OEChem-01062215323D

 28 27  0     1  0  0  0  0  0999 V2000
   -3.2133   -3.5565    1.2809 H   0  0  0  0  0  0  0  0  0  0  0  0
   -3.1873   -2.5755    0.8089 C   0  0  0  0  0  0  0  0  0  0  0  0
   -3.8793   -1.9065    1.3169 H   0  0  0  0  0  0  0  0  0  0  0  0
   -3.4623   -2.6685   -0.2401 H   0  0  0  0  0  0  0  0  0  0  0  0
   -1.7863   -2.0195    0.9119 C   0  0  0  0  0  0  0  0  0  0  0  0
   -0.9073   -2.6615    1.4699 O   0  0  0  0  0  0  0  0  0  0  0  0
   -1.5803   -0.8195    0.3749 N   0  0  0  0  0  0  0  0  0  0  0  0
   -2.3603   -0.3345   -0.0451 H   0  0  0  0  0  0  0  0  0  0  0  0
   -0.2933   -0.1205    0.3719 C   0  0  1  0  0  0  0  0  0  0  0  0
    0.1349   -0.1730    1.3739 H   0  0  0  0  0  0  0  0  0  0  0  0
    0.6640   -0.8350   -0.6038 C   0  0  0  0  0  0  0  0  0  0  0  0
    0.1695   -0.9043   -1.5742 H   0  0  0  0  0  0  0  0  0  0  0  0
    1.5673   -0.2355   -0.7254 H   0  0  0  0  0  0  0  0  0  0  0  0
    1.0723   -2.2483   -0.1536 C   0  0  0  0  0  0  0  0  0  0  0  0
    1.5867   -2.1982    0.8062 H   0  0  0  0  0  0  0  0  0  0  0  0
    0.1787   -2.8623   -0.0475 H   0  0  0  0  0  0  0  0  0  0  0  0
    1.9985   -2.9294   -1.1560 C   0  0  0  0  0  0  0  0  0  0  0  0
    2.2893   -2.4849   -2.2550 O   0  0  0  0  0  0  0  0  0  0  0  0
    2.5041   -4.1143   -0.7661 O   0  0  0  0  0  0  0  0  0  0  0  0
    3.0448   -4.4106   -1.5003 H   0  0  0  0  0  0  0  0  0  0  0  0
   -0.4920    1.3615    0.0160 C   0  0  0  0  0  0  0  0  0  0  0  0
   -0.4377    1.7251   -1.1572 O   0  0  0  0  0  0  0  0  0  0  0  0
   -0.7091    2.2125    1.0262 N   0  0  0  0  0  0  0  0  0  0  0  0
   -0.7629    1.8370    1.9612 H   0  0  0  0  0  0  0  0  0  0  0  0
   -0.8952    3.6520    0.8554 C   0  0  0  0  0  0  0  0  0  0  0  0
   -1.7320    3.8386    0.1799 H   0  0  0  0  0  0  0  0  0  0  0  0
   -1.0987    4.1246    1.8173 H   0  0  0  0  0  0  0  0  0  0  0  0
    0.0051    4.0911    0.4212 H   0  0  0  0  0  0  0  0  0  0  0  0
  5  6  2  0  0  0  0
  5  7  1  0  0  0  0
  2  3  1  0  0  0  0
  2  4  1  0  0  0  0
  2  5  1  0  0  0  0
  1  2  1  0  0  0  0
 21 22  2  0  0  0  0
 21 23  1  0  0  0  0
 19 20  1  0  0  0  0
 17 18  2  0  0  0  0
 17 19  1  0  0  0  0
 14 15  1  0  0  0  0
 14 16  1  0  0  0  0
 14 17  1  0  0  0  0
 11 12  1  0  0  0  0
 11 13  1  0  0  0  0
 11 14  1  0  0  0  0
  9 10  1  0  0  0  0
  9 11  1  0  0  0  0
  9 21  1  0  0  0  0
  7  8  1  0  0  0  0
  7  9  1  0  0  0  0
 25 26  1  0  0  0  0
 25 27  1  0  0  0  0
 25 28  1  0  0  0  0
 23 24  1  0  0  0  0
 23 25  1  0  0  0  0
M  END
$$$$
default_name
  -OEChem-01062215323D

 28 27  0     1  0  0  0  0  0999 V2000
   -3.2133   -3.5565    1.2809 H   0  0  0  0  0  0  0  0  0  0  0  0
   -3.1873   -2.5755    0.8089 C   0  0  0  0  0  0  0  0  0  0  0  0
   -3.8793   -1.9065    1.3169 H   0  0  0  0  0  0  0  0  0  0  0  0
   -3.4623   -2.6685   -0.2401 H   0  0  0  0  0  0  0  0  0  0  0  0
   -1.7863   -2.0195    0.9119 C   0  0  0  0  0  0  0  0  0  0  0  0
   -0.9073   -2.6615    1.4699 O   0  0  0  0  0  0  0  0  0  0  0  0
   -1.5803   -0.8195    0.3749 N   0  0  0  0  0  0  0  0  0  0  0  0
   -2.3603   -0.3345   -0.0451 H   0  0  0  0  0  0  0  0  0  0  0  0
   -0.2933   -0.1205    0.3719 C   0  0  1  0  0  0  0  0  0  0  0  0
    0.1349   -0.1730    1.3739 H   0  0  0  0  0  0  0  0  0  0  0  0
    0.6640   -0.8350   -0.6038 C   0  0  0  0  0  0  0  0  0  0  0  0
    0.1695   -0.9043   -1.5742 H   0  0  0  0  0  0  0  0  0  0  0  0
    1.5673   -0.2355   -0.7254 H   0  0  0  0  0  0  0  0  0  0  0  0
    1.0723   -2.2483   -0.1536 C   0  0  0  0  0  0  0  0  0  0  0  0
    1.5867   -2.1982    0.8062 H   0  0  0  0  0  0  0  0  0  0  0  0
    0.1787   -2.8623   -0.0475 H   0  0  0  0  0  0  0  0  0  0  0  0
    1.9985   -2.9294   -1.1560 C   0  0  0  0  0  0  0  0  0  0  0  0
    2.2893   -2.4849   -2.2550 O   0  0  0  0  0  0  0  0  0  0  0  0
    2.5041   -4.1143   -0.7661 O   0  0  0  0  0  0  0  0  0  0  0  0
    3.0448   -4.4106   -1.5003 H   0  0  0  0  0  0  0  0  0  0  0  0
   -0.4920    1.3615    0.0160 C   0  0  0  0  0  0  0  0  0  0  0  0
   -0.7133    1.6904   -1.1478 O   0  0  0  0  0  0  0  0  0  0  0  0
   -0.4013    2.2505    1.0126 N   0  0  0  0  0  0  0  0  0  0  0  0
   -0.2400    1.9036    1.9463 H   0  0  0  0  0  0  0  0  0  0  0  0
   -0.5439    3.6940    0.8345 C   0  0  0  0  0  0  0  0  0  0  0  0
   -1.5115    3.9165    0.3811 H   0  0  0  0  0  0  0  0  0  0  0  0
   -0.4732    4.2034    1.7966 H   0  0  0  0  0  0  0  0  0  0  0  0
    0.2420    4.0631    0.1725 H   0  0  0  0  0  0  0  0  0  0  0  0
  5  6  2  0  0  0  0
  5  7  1  0  0  0  0
  2  3  1  0  0  0  0
  2  4  1  0  0  0  0
  2  5  1  0  0  0  0
  1  2  1  0  0  0  0
 21 22  2  0  0  0  0
 21 23  1  0  0  0  0
 19 20  1  0  0  0  0
 17 18  2  0  0  0  0
 17 19  1  0  0  0  0
 14 15  1  0  0  0  0
 14 16  1  0  0  0  0
 14 17  1  0  0  0  0
 11 12  1  0  0  0  0
 11 13  1  0  0  0  0
 11 14  1  0  0  0  0
  9 10  1  0  0  0  0
  9 11  1  0  0  0  0
  9 21  1  0  0  0  0
  7  8  1  0  0  0  0
  7  9  1  0  0  0  0
 25 26  1  0  0  0  0
 25 27  1  0  0  0  0
 25 28  1  0  0  0  0
 23 24  1  0  0  0  0
 23 25  1  0  0  0  0
M  END
$$$$
default_name
  -OEChem-01062215323D

 28 27  0     1  0  0  0  0  0999 V2000
   -3.2133   -3.5565    1.2809 H   0  0  0  0  0  0  0  0  0  0  0  0
   -3.1873   -2.5755    0.8089 C   0  0  0  0  0  0  0  0  0  0  0  0
   -3.8793   -1.9065    1.3169 H   0  0  0  0  0  0  0  0  0  0  0  0
   -3.4623   -2.6685   -0.2401 H   0  0  0  0  0  0  0  0  0  0  0  0
   -1.7863   -2.0195    0.9119 C   0  0  0  0  0  0  0  0  0  0  0  0
   -0.9073   -2.6615    1.4699 O   0  0  0  0  0  0  0  0  0  0  0  0
   -1.5803   -0.8195    0.3749 N   0  0  0  0  0  0  0  0  0  0  0  0
   -2.3603   -0.3345   -0.0451 H   0  0  0  0  0  0  0  0  0  0  0  0
   -0.2933   -0.1205    0.3719 C   0  0  1  0  0  0  0  0  0  0  0  0
    0.1349   -0.1730    1.3739 H   0  0  0  0  0  0  0  0  0  0  0  0
    0.6640   -0.8350   -0.6038 C   0  0  0  0  0  0  0  0  0  0  0  0
    0.1695   -0.9043   -1.5742 H   0  0  0  0  0  0  0  0  0  0  0  0
    1.5673   -0.2355   -0.7254 H   0  0  0  0  0  0  0  0  0  0  0  0
    1.0723   -2.2483   -0.1536 C   0  0  0  0  0  0  0  0  0  0  0  0
    1.5867   -2.1982    0.8062 H   0  0  0  0  0  0  0  0  0  0  0  0
    0.1787   -2.8623   -0.0475 H   0  0  0  0  0  0  0  0  0  0  0  0
    1.9985   -2.9294   -1.1560 C   0  0  0  0  0  0  0  0  0  0  0  0
    2.2893   -2.4849   -2.2550 O   0  0  0  0  0  0  0  0  0  0  0  0
    2.5041   -4.1143   -0.7661 O   0  0  0  0  0  0  0  0  0  0  0  0
    3.0448   -4.4106   -1.5003 H   0  0  0  0  0  0  0  0  0  0  0  0
   -0.4920    1.3615    0.0160 C   0  0  0  0  0  0  0  0  0  0  0  0
   -0.9792    1.6738   -1.0688 O   0  0  0  0  0  0  0  0  0  0  0  0
   -0.1051    2.2683    0.9214 N   0  0  0  0  0  0  0  0  0  0  0  0
    0.2655    1.9360    1.7992 H   0  0  0  0  0  0  0  0  0  0  0  0
   -0.2072    3.7129    0.7252 C   0  0  0  0  0  0  0  0  0  0  0  0
   -1.2436    3.9852    0.5177 H   0  0  0  0  0  0  0  0  0  0  0  0
    0.1306    4.2415    1.6178 H   0  0  0  0  0  0  0  0  0  0  0  0
    0.4070    4.0136   -0.1260 H   0  0  0  0  0  0  0  0  0  0  0  0
  5  6  2  0  0  0  0
  5  7  1  0  0  0  0
  2  3  1  0  0  0  0
  2  4  1  0  0  0  0
  2  5  1  0  0  0  0
  1  2  1  0  0  0  0
 21 22  2  0  0  0  0
 21 23  1  0  0  0  0
 19 20  1  0  0  0  0
 17 18  2  0  0  0  0
 17 19  1  0  0  0  0
 14 15  1  0  0  0  0
 14 16  1  0  0  0  0
 14 17  1  0  0  0  0
 11 12  1  0  0  0  0
 11 13  1  0  0  0  0
 11 14  1  0  0  0  0
  9 10  1  0  0  0  0
  9 11  1  0  0  0  0
  9 21  1  0  0  0  0
  7  8  1  0  0  0  0
  7  9  1  0  0  0  0
 25 26  1  0  0  0  0
 25 27  1  0  0  0  0
 25 28  1  0  0  0  0
 23 24  1  0  0  0  0
 23 25  1  0  0  0  0
M  END
$$$$
default_name
  -OEChem-01062215323D

 28 27  0     1  0  0  0  0  0999 V2000
   -3.2133   -3.5565    1.2809 H   0  0  0  0  0  0  0  0  0  0  0  0
   -3.1873   -2.5755    0.8089 C   0  0  0  0  0  0  0  0  0  0  0  0
   -3.8793   -1.9065    1.3169 H   0  0  0  0  0  0  0  0  0  0  0  0
   -3.4623   -2.6685   -0.2401 H   0  0  0  0  0  0  0  0  0  0  0  0
   -1.7863   -2.0195    0.9119 C   0  0  0  0  0  0  0  0  0  0  0  0
   -0.9073   -2.6615    1.4699 O   0  0  0  0  0  0  0  0  0  0  0  0
   -1.5803   -0.8195    0.3749 N   0  0  0  0  0  0  0  0  0  0  0  0
   -2.3603   -0.3345   -0.0451 H   0  0  0  0  0  0  0  0  0  0  0  0
   -0.2933   -0.1205    0.3719 C   0  0  1  0  0  0  0  0  0  0  0  0
    0.1349   -0.1730    1.3739 H   0  0  0  0  0  0  0  0  0  0  0  0
    0.6640   -0.8350   -0.6038 C   0  0  0  0  0  0  0  0  0  0  0  0
    0.1695   -0.9043   -1.5742 H   0  0  0  0  0  0  0  0  0  0  0  0
    1.5673   -0.2355   -0.7254 H   0  0  0  0  0  0  0  0  0  0  0  0
    1.0723   -2.2483   -0.1536 C   0  0  0  0  0  0  0  0  0  0  0  0
    1.5867   -2.1982    0.8062 H   0  0  0  0  0  0  0  0  0  0  0  0
    0.1787   -2.8623   -0.0475 H   0  0  0  0  0  0  0  0  0  0  0  0
    1.9985   -2.9294   -1.1560 C   0  0  0  0  0  0  0  0  0  0  0  0
    2.2893   -2.4849   -2.2550 O   0  0  0  0  0  0  0  0  0  0  0  0
    2.5041   -4.1143   -0.7661 O   0  0  0  0  0  0  0  0  0  0  0  0
    3.0448   -4.4106   -1.5003 H   0  0  0  0  0  0  0  0  0  0  0  0
   -0.4920    1.3615    0.0160 C   0  0  0  0  0  0  0  0  0  0  0  0
   -1.2173    1.6762   -0.9256 O   0  0  0  0  0  0  0  0  0  0  0  0
    0.1592    2.2647    0.7588 N   0  0  0  0  0  0  0  0  0  0  0  0
    0.7189    1.9321    1.5298 H   0  0  0  0  0  0  0  0  0  0  0  0
    0.0919    3.7074    0.5349 C   0  0  0  0  0  0  0  0  0  0  0  0
   -0.9466    4.0402    0.5806 H   0  0  0  0  0  0  0  0  0  0  0  0
    0.6714    4.2360    1.2931 H   0  0  0  0  0  0  0  0  0  0  0  0
    0.4889    3.9459   -0.4537 H   0  0  0  0  0  0  0  0  0  0  0  0
  5  6  2  0  0  0  0
  5  7  1  0  0  0  0
  2  3  1  0  0  0  0
  2  4  1  0  0  0  0
  2  5  1  0  0  0  0
  1  2  1  0  0  0  0
 21 22  2  0  0  0  0
 21 23  1  0  0  0  0
 19 20  1  0  0  0  0
 17 18  2  0  0  0  0
 17 19  1  0  0  0  0
 14 15  1  0  0  0  0
 14 16  1  0  0  0  0
 14 17  1  0  0  0  0
 11 12  1  0  0  0  0
 11 13  1  0  0  0  0
 11 14  1  0  0  0  0
  9 10  1  0  0  0  0
  9 11  1  0  0  0  0
  9 21  1  0  0  0  0
  7  8  1  0  0  0  0
  7  9  1  0  0  0  0
 25 26  1  0  0  0  0
 25 27  1  0  0  0  0
 25 28  1  0  0  0  0
 23 24  1  0  0  0  0
 23 25  1  0  0  0  0
M  END
$$$$
default_name
  -OEChem-01062215323D

 28 27  0     1  0  0  0  0  0999 V2000
   -3.2133   -3.5565    1.2809 H   0  0  0  0  0  0  0  0  0  0  0  0
   -3.1873   -2.5755    0.8089 C   0  0  0  0  0  0  0  0  0  0  0  0
   -3.8793   -1.9065    1.3169 H   0  0  0  0  0  0  0  0  0  0  0  0
   -3.4623   -2.6685   -0.2401 H   0  0  0  0  0  0  0  0  0  0  0  0
   -1.7863   -2.0195    0.9119 C   0  0  0  0  0  0  0  0  0  0  0  0
   -0.9073   -2.6615    1.4699 O   0  0  0  0  0  0  0  0  0  0  0  0
   -1.5803   -0.8195    0.3749 N   0  0  0  0  0  0  0  0  0  0  0  0
   -2.3603   -0.3345   -0.0451 H   0  0  0  0  0  0  0  0  0  0  0  0
   -0.2933   -0.1205    0.3719 C   0  0  1  0  0  0  0  0  0  0  0  0
    0.1349   -0.1730    1.3739 H   0  0  0  0  0  0  0  0  0  0  0  0
    0.6640   -0.8350   -0.6038 C   0  0  0  0  0  0  0  0  0  0  0  0
    0.1695   -0.9043   -1.5742 H   0  0  0  0  0  0  0  0  0  0  0  0
    1.5673   -0.2355   -0.7254 H   0  0  0  0  0  0  0  0  0  0  0  0
    1.0723   -2.2483   -0.1536 C   0  0  0  0  0  0  0  0  0  0  0  0
    1.5867   -2.1982    0.8062 H   0  0  0  0  0  0  0  0  0  0  0  0
    0.1787   -2.8623   -0.0475 H   0  0  0  0  0  0  0  0  0  0  0  0
    1.9985   -2.9294   -1.1560 C   0  0  0  0  0  0  0  0  0  0  0  0
    2.2893   -2.4849   -2.2550 O   0  0  0  0  0  0  0  0  0  0  0  0
    2.5041   -4.1143   -0.7661 O   0  0  0  0  0  0  0  0  0  0  0  0
    3.0448   -4.4106   -1.5003 H   0  0  0  0  0  0  0  0  0  0  0  0
   -0.4920    1.3615    0.0160 C   0  0  0  0  0  0  0  0  0  0  0  0
   -1.4114    1.6977   -0.7279 O   0  0  0  0  0  0  0  0  0  0  0  0
    0.3738    2.2399    0.5359 N   0  0  0  0  0  0  0  0  0  0  0  0
    1.0894    1.8922    1.1566 H   0  0  0  0  0  0  0  0  0  0  0  0
    0.3330    3.6777    0.2768 C   0  0  0  0  0  0  0  0  0  0  0  0
   -0.6408    4.0775    0.5654 H   0  0  0  0  0  0  0  0  0  0  0  0
    1.1125    4.1875    0.8447 H   0  0  0  0  0  0  0  0  0  0  0  0
    0.4823    3.8646   -0.7885 H   0  0  0  0  0  0  0  0  0  0  0  0
  5  6  2  0  0  0  0
  5  7  1  0  0  0  0
  2  3  1  0  0  0  0
  2  4  1  0  0  0  0
  2  5  1  0  0  0  0
  1  2  1  0  0  0  0
 21 22  2  0  0  0  0
 21 23  1  0  0  0  0
 19 20  1  0  0  0  0
 17 18  2  0  0  0  0
 17 19  1  0  0  0  0
 14 15  1  0  0  0  0
 14 16  1  0  0  0  0
 14 17  1  0  0  0  0
 11 12  1  0  0  0  0
 11 13  1  0  0  0  0
 11 14  1  0  0  0  0
  9 10  1  0  0  0  0
  9 11  1  0  0  0  0
  9 21  1  0  0  0  0
  7  8  1  0  0  0  0
  7  9  1  0  0  0  0
 25 26  1  0  0  0  0
 25 27  1  0  0  0  0
 25 28  1  0  0  0  0
 23 24  1  0  0  0  0
 23 25  1  0  0  0  0
M  END
$$$$
default_name
  -OEChem-01062215323D

 28 27  0     1  0  0  0  0  0999 V2000
   -3.2133   -3.5565    1.2809 H   0  0  0  0  0  0  0  0  0  0  0  0
   -3.1873   -2.5755    0.8089 C   0  0  0  0  0  0  0  0  0  0  0  0
   -3.8793   -1.9065    1.3169 H   0  0  0  0  0  0  0  0  0  0  0  0
   -3.4623   -2.6685   -0.2401 H   0  0  0  0  0  0  0  0  0  0  0  0
   -1.7863   -2.0195    0.9119 C   0  0  0  0  0  0  0  0  0  0  0  0
   -0.9073   -2.6615    1.4699 O   0  0  0  0  0  0  0  0  0  0  0  0
   -1.5803   -0.8195    0.3749 N   0  0  0  0  0  0  0  0  0  0  0  0
   -2.3603   -0.3345   -0.0451 H   0  0  0  0  0  0  0  0  0  0  0  0
   -0.2933   -0.1205    0.3719 C   0  0  1  0  0  0  0  0  0  0  0  0
    0.1349   -0.1730    1.3739 H   0  0  0  0  0  0  0  0  0  0  0  0
    0.6640   -0.8350   -0.6038 C   0  0  0  0  0  0  0  0  0  0  0  0
    0.1695   -0.9043   -1.5742 H   0  0  0  0  0  0  0  0  0  0  0  0
    1.5673   -0.2355   -0.7254 H   0  0  0  0  0  0  0  0  0  0  0  0
    1.0723   -2.2483   -0.1536 C   0  0  0  0  0  0  0  0  0  0  0  0
    1.5867   -2.1982    0.8062 H   0  0  0  0  0  0  0  0  0  0  0  0
    0.1787   -2.8623   -0.0475 H   0  0  0  0  0  0  0  0  0  0  0  0
    1.9985   -2.9294   -1.1560 C   0  0  0  0  0  0  0  0  0  0  0  0
    2.2893   -2.4849   -2.2550 O   0  0  0  0  0  0  0  0  0  0  0  0
    2.5041   -4.1143   -0.7661 O   0  0  0  0  0  0  0  0  0  0  0  0
    3.0448   -4.4106   -1.5003 H   0  0  0  0  0  0  0  0  0  0  0  0
   -0.4920    1.3615    0.0160 C   0  0  0  0  0  0  0  0  0  0  0  0
   -1.5483    1.7366   -0.4892 O   0  0  0  0  0  0  0  0  0  0  0  0
    0.5240    2.1957    0.2679 N   0  0  0  0  0  0  0  0  0  0  0  0
    1.3517    1.8189    0.7050 H   0  0  0  0  0  0  0  0  0  0  0  0
    0.4996    3.6259   -0.0318 C   0  0  0  0  0  0  0  0  0  0  0  0
   -0.3469    4.0948    0.4731 H   0  0  0  0  0  0  0  0  0  0  0  0
    1.4237    4.0992    0.3032 H   0  0  0  0  0  0  0  0  0  0  0  0
    0.3874    3.7752   -1.1075 H   0  0  0  0  0  0  0  0  0  0  0  0
  5  6  2  0  0  0  0
  5  7  1  0  0  0  0
  2  3  1  0  0  0  0
  2  4  1  0  0  0  0
  2  5  1  0  0  0  0
  1  2  1  0  0  0  0
 21 22  2  0  0  0  0
 21 23  1  0  0  0  0
 19 20  1  0  0  0  0
 17 18  2  0  0  0  0
 17 19  1  0  0  0  0
 14 15  1  0  0  0  0
 14 16  1  0  0  0  0
 14 17  1  0  0  0  0
 11 12  1  0  0  0  0
 11 13  1  0  0  0  0
 11 14  1  0  0  0  0
  9 10  1  0  0  0  0
  9 11  1  0  0  0  0
  9 21  1  0  0  0  0
  7  8  1  0  0  0  0
  7  9  1  0  0  0  0
 25 26  1  0  0  0  0
 25 27  1  0  0  0  0
 25 28  1  0  0  0  0
 23 24  1  0  0  0  0
 23 25  1  0  0  0  0
M  END
$$$$
default_name
  -OEChem-01062215323D

 28 27  0     1  0  0  0  0  0999 V2000
   -3.2133   -3.5565    1.2809 H   0  0  0  0  0  0  0  0  0  0  0  0
   -3.1873   -2.5755    0.8089 C   0  0  0  0  0  0  0  0  0  0  0  0
   -3.8793   -1.9065    1.3169 H   0  0  0  0  0  0  0  0  0  0  0  0
   -3.4623   -2.6685   -0.2401 H   0  0  0  0  0  0  0  0  0  0  0  0
   -1.7863   -2.0195    0.9119 C   0  0  0  0  0  0  0  0  0  0  0  0
   -0.9073   -2.6615    1.4699 O   0  0  0  0  0  0  0  0  0  0  0  0
   -1.5803   -0.8195    0.3749 N   0  0  0  0  0  0  0  0  0  0  0  0
   -2.3603   -0.3345   -0.0451 H   0  0  0  0  0  0  0  0  0  0  0  0
   -0.2933   -0.1205    0.3719 C   0  0  1  0  0  0  0  0  0  0  0  0
    0.2545   -0.3937    1.2749 H   0  0  0  0  0  0  0  0  0  0  0  0
    0.5255   -0.5811   -0.8513 C   0  0  0  0  0  0  0  0  0  0  0  0
   -0.0860   -0.4346   -1.7433 H   0  0  0  0  0  0  0  0  0  0  0  0
    1.4157    0.0427   -0.9441 H   0  0  0  0  0  0  0  0  0  0  0  0
    0.9653   -2.0540   -0.7884 C   0  0  0  0  0  0  0  0  0  0  0  0
    1.5949   -2.2164    0.0865 H   0  0  0  0  0  0  0  0  0  0  0  0
    0.0826   -2.6882   -0.7150 H   0  0  0  0  0  0  0  0  0  0  0  0
    1.7504   -2.4764   -2.0259 C   0  0  0  0  0  0  0  0  0  0  0  0
    1.9099   -1.7897   -3.0223 O   0  0  0  0  0  0  0  0  0  0  0  0
    2.2827   -3.7119   -1.9812 O   0  0  0  0  0  0  0  0  0  0  0  0
    2.7242   -3.8259   -2.8247 H   0  0  0  0  0  0  0  0  0  0  0  0
   -0.5124    1.4007    0.3897 C   0  0  0  0  0  0  0  0  0  0  0  0
   -1.6538    1.8579    0.3930 O   0  0  0  0  0  0  0  0  0  0  0  0
    0.5768    2.1787    0.3892 N   0  0  0  0  0  0  0  0  0  0  0  0
    1.4810    1.7313    0.4092 H   0  0  0  0  0  0  0  0  0  0  0  0
    0.5366    3.6396    0.3835 C   0  0  0  0  0  0  0  0  0  0  0  0
   -0.0319    3.9969    1.2441 H   0  0  0  0  0  0  0  0  0  0  0  0
    1.5478    4.0467    0.4279 H   0  0  0  0  0  0  0  0  0  0  0  0
    0.0459    3.9914   -0.5261 H   0  0  0  0  0  0  0  0  0  0  0  0
  5  6  2  0  0  0  0
  5  7  1  0  0  0  0
  2  3  1  0  0  0  0
  2  4  1  0  0  0  0
  2  5  1  0  0  0  0
  1  2  1  0  0  0  0
 21 22  2  0  0  0  0
 21 23  1  0  0  0  0
 19 20  1  0  0  0  0
 17 18  2  0  0  0  0
 17 19  1  0  0  0  0
 14 15  1  0  0  0  0
 14 16  1  0  0  0  0
 14 17  1  0  0  0  0
 11 12  1  0  0  0  0
 11 13  1  0  0  0  0
 11 14  1  0  0  0  0
  9 10  1  0  0  0  0
  9 11  1  0  0  0  0
  9 21  1  0  0  0  0
  7  8  1  0  0  0  0
  7  9  1  0  0  0  0
 25 26  1  0  0  0  0
 25 27  1  0  0  0  0
 25 28  1  0  0  0  0
 23 24  1  0  0  0  0
 23 25  1  0  0  0  0
M  END
$$$$
default_name
  -OEChem-01062215323D

 28 27  0     1  0  0  0  0  0999 V2000
   -3.2133   -3.5565    1.2809 H   0  0  0  0  0  0  0  0  0  0  0  0
   -3.1873   -2.5755    0.8089 C   0  0  0  0  0  0  0  0  0  0  0  0
   -3.8793   -1.9065    1.3169 H   0  0  0  0  0  0  0  0  0  0  0  0
   -3.4623   -2.6685   -0.2401 H   0  0  0  0  0  0  0  0  0  0  0  0
   -1.7863   -2.0195    0.9119 C   0  0  0  0  0  0  0  0  0  0  0  0
   -0.9073   -2.6615    1.4699 O   0  0  0  0  0  0  0  0  0  0  0  0
   -1.5803   -0.8195    0.3749 N   0  0  0  0  0  0  0  0  0  0  0  0
   -2.3603   -0.3345   -0.0451 H   0  0  0  0  0  0  0  0  0  0  0  0
   -0.2933   -0.1205    0.3719 C   0  0  1  0  0  0  0  0  0  0  0  0
    0.2545   -0.3937    1.2749 H   0  0  0  0  0  0  0  0  0  0  0  0
    0.5255   -0.5811   -0.8513 C   0  0  0  0  0  0  0  0  0  0  0  0
   -0.0860   -0.4346   -1.7433 H   0  0  0  0  0  0  0  0  0  0  0  0
    1.4157    0.0427   -0.9441 H   0  0  0  0  0  0  0  0  0  0  0  0
    0.9653   -2.0540   -0.7884 C   0  0  0  0  0  0  0  0  0  0  0  0
    1.5949   -2.2164    0.0865 H   0  0  0  0  0  0  0  0  0  0  0  0
    0.0826   -2.6882   -0.7150 H   0  0  0  0  0  0  0  0  0  0  0  0
    1.7504   -2.4764   -2.0259 C   0  0  0  0  0  0  0  0  0  0  0  0
    1.9099   -1.7897   -3.0223 O   0  0  0  0  0  0  0  0  0  0  0  0
    2.2827   -3.7119   -1.9812 O   0  0  0  0  0  0  0  0  0  0  0  0
    2.7242   -3.8259   -2.8247 H   0  0  0  0  0  0  0  0  0  0  0  0
   -0.5124    1.4007    0.3897 C   0  0  0  0  0  0  0  0  0  0  0  0
   -1.6185    1.8598    0.6686 O   0  0  0  0  0  0  0  0  0  0  0  0
    0.5342    2.1762    0.0817 N   0  0  0  0  0  0  0  0  0  0  0  0
    1.4168    1.7282   -0.1142 H   0  0  0  0  0  0  0  0  0  0  0  0
    0.4825    3.6359    0.0332 C   0  0  0  0  0  0  0  0  0  0  0  0
    0.1506    4.0260    0.9971 H   0  0  0  0  0  0  0  0  0  0  0  0
    1.4681    4.0426   -0.1979 H   0  0  0  0  0  0  0  0  0  0  0  0
   -0.2276    3.9544   -0.7325 H   0  0  0  0  0  0  0  0  0  0  0  0
  5  6  2  0  0  0  0
  5  7  1  0  0  0  0
  2  3  1  0  0  0  0
  2  4  1  0  0  0  0
  2  5  1  0  0  0  0
  1  2  1  0  0  0  0
 21 22  2  0  0  0  0
 21 23  1  0  0  0  0
 19 20  1  0  0  0  0
 17 18  2  0  0  0  0
 17 19  1  0  0  0  0
 14 15  1  0  0  0  0
 14 16  1  0  0  0  0
 14 17  1  0  0  0  0
 11 12  1  0  0  0  0
 11 13  1  0  0  0  0
 11 14  1  0  0  0  0
  9 10  1  0  0  0  0
  9 11  1  0  0  0  0
  9 21  1  0  0  0  0
  7  8  1  0  0  0  0
  7  9  1  0  0  0  0
 25 26  1  0  0  0  0
 25 27  1  0  0  0  0
 25 28  1  0  0  0  0
 23 24  1  0  0  0  0
 23 25  1  0  0  0  0
M  END
$$$$
default_name
  -OEChem-01062215323D

 28 27  0     1  0  0  0  0  0999 V2000
   -3.2133   -3.5565    1.2809 H   0  0  0  0  0  0  0  0  0  0  0  0
   -3.1873   -2.5755    0.8089 C   0  0  0  0  0  0  0  0  0  0  0  0
   -3.8793   -1.9065    1.3169 H   0  0  0  0  0  0  0  0  0  0  0  0
   -3.4623   -2.6685   -0.2401 H   0  0  0  0  0  0  0  0  0  0  0  0
   -1.7863   -2.0195    0.9119 C   0  0  0  0  0  0  0  0  0  0  0  0
   -0.9073   -2.6615    1.4699 O   0  0  0  0  0  0  0  0  0  0  0  0
   -1.5803   -0.8195    0.3749 N   0  0  0  0  0  0  0  0  0  0  0  0
   -2.3603   -0.3345   -0.0451 H   0  0  0  0  0  0  0  0  0  0  0  0
   -0.2933   -0.1205    0.3719 C   0  0  1  0  0  0  0  0  0  0  0  0
    0.2545   -0.3937    1.2749 H   0  0  0  0  0  0  0  0  0  0  0  0
    0.5255   -0.5811   -0.8513 C   0  0  0  0  0  0  0  0  0  0  0  0
   -0.0860   -0.4346   -1.7433 H   0  0  0  0  0  0  0  0  0  0  0  0
    1.4157    0.0427   -0.9441 H   0  0  0  0  0  0  0  0  0  0  0  0
    0.9653   -2.0540   -0.7884 C   0  0  0  0  0  0  0  0  0  0  0  0
    1.5949   -2.2164    0.0865 H   0  0  0  0  0  0  0  0  0  0  0  0
    0.0826   -2.6882   -0.7150 H   0  0  0  0  0  0  0  0  0  0  0  0
    1.7504   -2.4764   -2.0259 C   0  0  0  0  0  0  0  0  0  0  0  0
    1.9099   -1.7897   -3.0223 O   0  0  0  0  0  0  0  0  0  0  0  0
    2.2827   -3.7119   -1.9812 O   0  0  0  0  0  0  0  0  0  0  0  0
    2.7242   -3.8259   -2.8247 H   0  0  0  0  0  0  0  0  0  0  0  0
   -0.5124    1.4007    0.3897 C   0  0  0  0  0  0  0  0  0  0  0  0
   -1.5137    1.8718    0.9257 O   0  0  0  0  0  0  0  0  0  0  0  0
    0.4143    2.1622   -0.2043 N   0  0  0  0  0  0  0  0  0  0  0  0
    1.2208    1.7056   -0.6033 H   0  0  0  0  0  0  0  0  0  0  0  0
    0.3406    3.6193   -0.2912 C   0  0  0  0  0  0  0  0  0  0  0  0
    0.2635    4.0457    0.7107 H   0  0  0  0  0  0  0  0  0  0  0  0
    1.2309    4.0152   -0.7818 H   0  0  0  0  0  0  0  0  0  0  0  0
   -0.5444    3.9102   -0.8605 H   0  0  0  0  0  0  0  0  0  0  0  0
  5  6  2  0  0  0  0
  5  7  1  0  0  0  0
  2  3  1  0  0  0  0
  2  4  1  0  0  0  0
  2  5  1  0  0  0  0
  1  2  1  0  0  0  0
 21 22  2  0  0  0  0
 21 23  1  0  0  0  0
 19 20  1  0  0  0  0
 17 18  2  0  0  0  0
 17 19  1  0  0  0  0
 14 15  1  0  0  0  0
 14 16  1  0  0  0  0
 14 17  1  0  0  0  0
 11 12  1  0  0  0  0
 11 13  1  0  0  0  0
 11 14  1  0  0  0  0
  9 10  1  0  0  0  0
  9 11  1  0  0  0  0
  9 21  1  0  0  0  0
  7  8  1  0  0  0  0
  7  9  1  0  0  0  0
 25 26  1  0  0  0  0
 25 27  1  0  0  0  0
 25 28  1  0  0  0  0
 23 24  1  0  0  0  0
 23 25  1  0  0  0  0
M  END
$$$$
default_name
  -OEChem-01062215323D

 28 27  0     1  0  0  0  0  0999 V2000
   -3.2133   -3.5565    1.2809 H   0  0  0  0  0  0  0  0  0  0  0  0
   -3.1873   -2.5755    0.8089 C   0  0  0  0  0  0  0  0  0  0  0  0
   -3.8793   -1.9065    1.3169 H   0  0  0  0  0  0  0  0  0  0  0  0
   -3.4623   -2.6685   -0.2401 H   0  0  0  0  0  0  0  0  0  0  0  0
   -1.7863   -2.0195    0.9119 C   0  0  0  0  0  0  0  0  0  0  0  0
   -0.9073   -2.6615    1.4699 O   0  0  0  0  0  0  0  0  0  0  0  0
   -1.5803   -0.8195    0.3749 N   0  0  0  0  0  0  0  0  0  0  0  0
   -2.3603   -0.3345   -0.0451 H   0  0  0  0  0  0  0  0  0  0  0  0
   -0.2933   -0.1205    0.3719 C   0  0  1  0  0  0  0  0  0  0  0  0
    0.2545   -0.3937    1.2749 H   0  0  0  0  0  0  0  0  0  0  0  0
    0.5255   -0.5811   -0.8513 C   0  0  0  0  0  0  0  0  0  0  0  0
   -0.0860   -0.4346   -1.7433 H   0  0  0  0  0  0  0  0  0  0  0  0
    1.4157    0.0427   -0.9441 H   0  0  0  0  0  0  0  0  0  0  0  0
    0.9653   -2.0540   -0.7884 C   0  0  0  0  0  0  0  0  0  0  0  0
    1.5949   -2.2164    0.0865 H   0  0  0  0  0  0  0  0  0  0  0  0
    0.0826   -2.6882   -0.7150 H   0  0  0  0  0  0  0  0  0  0  0  0
    1.7504   -2.4764   -2.0259 C   0  0  0  0  0  0  0  0  0  0  0  0
    1.9099   -1.7897   -3.0223 O   0  0  0  0  0  0  0  0  0  0  0  0
    2.2827   -3.7119   -1.9812 O   0  0  0  0  0  0  0  0  0  0  0  0
    2.7242   -3.8259   -2.8247 H   0  0  0  0  0  0  0  0  0  0  0  0
   -0.5124    1.4007    0.3897 C   0  0  0  0  0  0  0  0  0  0  0  0
   -1.3467    1.8933    1.1468 O   0  0  0  0  0  0  0  0  0  0  0  0
    0.2253    2.1379   -0.4493 N   0  0  0  0  0  0  0  0  0  0  0  0
    0.9062    1.6653   -1.0247 H   0  0  0  0  0  0  0  0  0  0  0  0
    0.1204    3.5908   -0.5675 C   0  0  0  0  0  0  0  0  0  0  0  0
    0.2991    4.0544    0.4044 H   0  0  0  0  0  0  0  0  0  0  0  0
    0.8522    3.9666   -1.2840 H   0  0  0  0  0  0  0  0  0  0  0  0
   -0.8831    3.8619   -0.9014 H   0  0  0  0  0  0  0  0  0  0  0  0
  5  6  2  0  0  0  0
  5  7  1  0  0  0  0
  2  3  1  0  0  0  0
  2  4  1  0  0  0  0
  2  5  1  0  0  0  0
  1  2  1  0  0  0  0
 21 22  2  0  0  0  0
 21 23  1  0  0  0  0
 19 20  1  0  0  0  0
 17 18  2  0  0  0  0
 17 19  1  0  0  0  0
 14 15  1  0  0  0  0
 14 16  1  0  0  0  0
 14 17  1  0  0  0  0
 11 12  1  0  0  0  0
 11 13  1  0  0  0  0
 11 14  1  0  0  0  0
  9 10  1  0  0  0  0
  9 11  1  0  0  0  0
  9 21  1  0  0  0  0
  7  8  1  0  0  0  0
  7  9  1  0  0  0  0
 25 26  1  0  0  0  0
 25 27  1  0  0  0  0
 25 28  1  0  0  0  0
 23 24  1  0  0  0  0
 23 25  1  0  0  0  0
M  END
$$$$
default_name
  -OEChem-01062215323D

 28 27  0     1  0  0  0  0  0999 V2000
   -3.2133   -3.5565    1.2809 H   0  0  0  0  0  0  0  0  0  0  0  0
   -3.1873   -2.5755    0.8089 C   0  0  0  0  0  0  0  0  0  0  0  0
   -3.8793   -1.9065    1.3169 H   0  0  0  0  0  0  0  0  0  0  0  0
   -3.4623   -2.6685   -0.2401 H   0  0  0  0  0  0  0  0  0  0  0  0
   -1.7863   -2.0195    0.9119 C   0  0  0  0  0  0  0  0  0  0  0  0
   -0.9073   -2.6615    1.4699 O   0  0  0  0  0  0  0  0  0  0  0  0
   -1.5803   -0.8195    0.3749 N   0  0  0  0  0  0  0  0  0  0  0  0
   -2.3603   -0.3345   -0.0451 H   0  0  0  0  0  0  0  0  0  0  0  0
   -0.2933   -0.1205    0.3719 C   0  0  1  0  0  0  0  0  0  0  0  0
    0.2545   -0.3937    1.2749 H   0  0  0  0  0  0  0  0  0  0  0  0
    0.5255   -0.5811   -0.8513 C   0  0  0  0  0  0  0  0  0  0  0  0
   -0.0860   -0.4346   -1.7433 H   0  0  0  0  0  0  0  0  0  0  0  0
    1.4157    0.0427   -0.9441 H   0  0  0  0  0  0  0  0  0  0  0  0
    0.9653   -2.0540   -0.7884 C   0  0  0  0  0  0  0  0  0  0  0  0
    1.5949   -2.2164    0.0865 H   0  0  0  0  0  0  0  0  0  0  0  0
    0.0826   -2.6882   -0.7150 H   0  0  0  0  0  0  0  0  0  0  0  0
    1.7504   -2.4764   -2.0259 C   0  0  0  0  0  0  0  0  0  0  0  0
    1.9099   -1.7897   -3.0223 O   0  0  0  0  0  0  0  0  0  0  0  0
    2.2827   -3.7119   -1.9812 O   0  0  0  0  0  0  0  0  0  0  0  0
    2.7242   -3.8259   -2.8247 H   0  0  0  0  0  0  0  0  0  0  0  0
   -0.5124    1.4007    0.3897 C   0  0  0  0  0  0  0  0  0  0  0  0
   -1.1288    1.9227    1.3168 O   0  0  0  0  0  0  0  0  0  0  0  0
   -0.0200    2.1048   -0.6366 N   0  0  0  0  0  0  0  0  0  0  0  0
    0.4946    1.6098   -1.3497 H   0  0  0  0  0  0  0  0  0  0  0  0
   -0.1630    3.5524   -0.7770 C   0  0  0  0  0  0  0  0  0  0  0  0
    0.2551    4.0516    0.0991 H   0  0  0  0  0  0  0  0  0  0  0  0
    0.3580    3.8999   -1.6703 H   0  0  0  0  0  0  0  0  0  0  0  0
   -1.2206    3.8127   -0.8522 H   0  0  0  0  0  0  0  0  0  0  0  0
  5  6  2  0  0  0  0
  5  7  1  0  0  0  0
  2  3  1  0  0  0  0
  2  4  1  0  0  0  0
  2  5  1  0  0  0  0
  1  2  1  0  0  0  0
 21 22  2  0  0  0  0
 21 23  1  0  0  0  0
 19 20  1  0  0  0  0
 17 18  2  0  0  0  0
 17 19  1  0  0  0  0
 14 15  1  0  0  0  0
 14 16  1  0  0  0  0
 14 17  1  0  0  0  0
 11 12  1  0  0  0  0
 11 13  1  0  0  0  0
 11 14  1  0  0  0  0
  9 10  1  0  0  0  0
  9 11  1  0  0  0  0
  9 21  1  0  0  0  0
  7  8  1  0  0  0  0
  7  9  1  0  0  0  0
 25 26  1  0  0  0  0
 25 27  1  0  0  0  0
 25 28  1  0  0  0  0
 23 24  1  0  0  0  0
 23 25  1  0  0  0  0
M  END
$$$$
default_name
  -OEChem-01062215323D

 28 27  0     1  0  0  0  0  0999 V2000
   -3.2133   -3.5565    1.2809 H   0  0  0  0  0  0  0  0  0  0  0  0
   -3.1873   -2.5755    0.8089 C   0  0  0  0  0  0  0  0  0  0  0  0
   -3.8793   -1.9065    1.3169 H   0  0  0  0  0  0  0  0  0  0  0  0
   -3.4623   -2.6685   -0.2401 H   0  0  0  0  0  0  0  0  0  0  0  0
   -1.7863   -2.0195    0.9119 C   0  0  0  0  0  0  0  0  0  0  0  0
   -0.9073   -2.6615    1.4699 O   0  0  0  0  0  0  0  0  0  0  0  0
   -1.5803   -0.8195    0.3749 N   0  0  0  0  0  0  0  0  0  0  0  0
   -2.3603   -0.3345   -0.0451 H   0  0  0  0  0  0  0  0  0  0  0  0
   -0.2933   -0.1205    0.3719 C   0  0  1  0  0  0  0  0  0  0  0  0
    0.2545   -0.3937    1.2749 H   0  0  0  0  0  0  0  0  0  0  0  0
    0.5255   -0.5811   -0.8513 C   0  0  0  0  0  0  0  0  0  0  0  0
   -0.0860   -0.4346   -1.7433 H   0  0  0  0  0  0  0  0  0  0  0  0
    1.4157    0.0427   -0.9441 H   0  0  0  0  0  0  0  0  0  0  0  0
    0.9653   -2.0540   -0.7884 C   0  0  0  0  0  0  0  0  0  0  0  0
    1.5949   -2.2164    0.0865 H   0  0  0  0  0  0  0  0  0  0  0  0
    0.0826   -2.6882   -0.7150 H   0  0  0  0  0  0  0  0  0  0  0  0
    1.7504   -2.4764   -2.0259 C   0  0  0  0  0  0  0  0  0  0  0  0
    1.9099   -1.7897   -3.0223 O   0  0  0  0  0  0  0  0  0  0  0  0
    2.2827   -3.7119   -1.9812 O   0  0  0  0  0  0  0  0  0  0  0  0
    2.7242   -3.8259   -2.8247 H   0  0  0  0  0  0  0  0  0  0  0  0
   -0.5124    1.4007    0.3897 C   0  0  0  0  0  0  0  0  0  0  0  0
   -0.8749    1.9580    1.4240 O   0  0  0  0  0  0  0  0  0  0  0  0
   -0.3047    2.0651   -0.7535 N   0  0  0  0  0  0  0  0  0  0  0  0
    0.0139    1.5429   -1.5560 H   0  0  0  0  0  0  0  0  0  0  0  0
   -0.4903    3.5068   -0.9053 C   0  0  0  0  0  0  0  0  0  0  0  0
    0.1343    4.0375   -0.1845 H   0  0  0  0  0  0  0  0  0  0  0  0
   -0.2181    3.8198   -1.9143 H   0  0  0  0  0  0  0  0  0  0  0  0
   -1.5339    3.7660   -0.7166 H   0  0  0  0  0  0  0  0  0  0  0  0
  5  6  2  0  0  0  0
  5  7  1  0  0  0  0
  2  3  1  0  0  0  0
  2  4  1  0  0  0  0
  2  5  1  0  0  0  0
  1  2  1  0  0  0  0
 21 22  2  0  0  0  0
 21 23  1  0  0  0  0
 19 20  1  0  0  0  0
 17 18  2  0  0  0  0
 17 19  1  0  0  0  0
 14 15  1  0  0  0  0
 14 16  1  0  0  0  0
 14 17  1  0  0  0  0
 11 12  1  0  0  0  0
 11 13  1  0  0  0  0
 11 14  1  0  0  0  0
  9 10  1  0  0  0  0
  9 11  1  0  0  0  0
  9 21  1  0  0  0  0
  7  8  1  0  0  0  0
  7  9  1  0  0  0  0
 25 26  1  0  0  0  0
 25 27  1  0  0  0  0
 25 28  1  0  0  0  0
 23 24  1  0  0  0  0
 23 25  1  0  0  0  0
M  END
$$$$
default_name
  -OEChem-01062215323D

 28 27  0     1  0  0  0  0  0999 V2000
   -3.2133   -3.5565    1.2809 H   0  0  0  0  0  0  0  0  0  0  0  0
   -3.1873   -2.5755    0.8089 C   0  0  0  0  0  0  0  0  0  0  0  0
   -3.8793   -1.9065    1.3169 H   0  0  0  0  0  0  0  0  0  0  0  0
   -3.4623   -2.6685   -0.2401 H   0  0  0  0  0  0  0  0  0  0  0  0
   -1.7863   -2.0195    0.9119 C   0  0  0  0  0  0  0  0  0  0  0  0
   -0.9073   -2.6615    1.4699 O   0  0  0  0  0  0  0  0  0  0  0  0
   -1.5803   -0.8195    0.3749 N   0  0  0  0  0  0  0  0  0  0  0  0
   -2.3603   -0.3345   -0.0451 H   0  0  0  0  0  0  0  0  0  0  0  0
   -0.2933   -0.1205    0.3719 C   0  0  1  0  0  0  0  0  0  0  0  0
    0.2545   -0.3937    1.2749 H   0  0  0  0  0  0  0  0  0  0  0  0
    0.5255   -0.5811   -0.8513 C   0  0  0  0  0  0  0  0  0  0  0  0
   -0.0860   -0.4346   -1.7433 H   0  0  0  0  0  0  0  0  0  0  0  0
    1.4157    0.0427   -0.9441 H   0  0  0  0  0  0  0  0  0  0  0  0
    0.9653   -2.0540   -0.7884 C   0  0  0  0  0  0  0  0  0  0  0  0
    1.5949   -2.2164    0.0865 H   0  0  0  0  0  0  0  0  0  0  0  0
    0.0826   -2.6882   -0.7150 H   0  0  0  0  0  0  0  0  0  0  0  0
    1.7504   -2.4764   -2.0259 C   0  0  0  0  0  0  0  0  0  0  0  0
    1.9099   -1.7897   -3.0223 O   0  0  0  0  0  0  0  0  0  0  0  0
    2.2827   -3.7119   -1.9812 O   0  0  0  0  0  0  0  0  0  0  0  0
    2.7242   -3.8259   -2.8247 H   0  0  0  0  0  0  0  0  0  0  0  0
   -0.5124    1.4007    0.3897 C   0  0  0  0  0  0  0  0  0  0  0  0
   -0.6023    1.9969    1.4613 O   0  0  0  0  0  0  0  0  0  0  0  0
   -0.6097    2.0216   -0.7921 N   0  0  0  0  0  0  0  0  0  0  0  0
   -0.5031    1.4693   -1.6298 H   0  0  0  0  0  0  0  0  0  0  0  0
   -0.8391    3.4570   -0.9438 C   0  0  0  0  0  0  0  0  0  0  0  0
   -0.0549    4.0131   -0.4269 H   0  0  0  0  0  0  0  0  0  0  0  0
   -0.8369    3.7316   -1.9996 H   0  0  0  0  0  0  0  0  0  0  0  0
   -1.8016    3.7249   -0.5035 H   0  0  0  0  0  0  0  0  0  0  0  0
  5  6  2  0  0  0  0
  5  7  1  0  0  0  0
  2  3  1  0  0  0  0
  2  4  1  0  0  0  0
  2  5  1  0  0  0  0
  1  2  1  0  0  0  0
 21 22  2  0  0  0  0
 21 23  1  0  0  0  0
 19 20  1  0  0  0  0
 17 18  2  0  0  0  0
 17 19  1  0  0  0  0
 14 15  1  0  0  0  0
 14 16  1  0  0  0  0
 14 17  1  0  0  0  0
 11 12  1  0  0  0  0
 11 13  1  0  0  0  0
 11 14  1  0  0  0  0
  9 10  1  0  0  0  0
  9 11  1  0  0  0  0
  9 21  1  0  0  0  0
  7  8  1  0  0  0  0
  7  9  1  0  0  0  0
 25 26  1  0  0  0  0
 25 27  1  0  0  0  0
 25 28  1  0  0  0  0
 23 24  1  0  0  0  0
 23 25  1  0  0  0  0
M  END
$$$$
default_name
  -OEChem-01062215323D

 28 27  0     1  0  0  0  0  0999 V2000
   -3.2133   -3.5565    1.2809 H   0  0  0  0  0  0  0  0  0  0  0  0
   -3.1873   -2.5755    0.8089 C   0  0  0  0  0  0  0  0  0  0  0  0
   -3.8793   -1.9065    1.3169 H   0  0  0  0  0  0  0  0  0  0  0  0
   -3.4623   -2.6685   -0.2401 H   0  0  0  0  0  0  0  0  0  0  0  0
   -1.7863   -2.0195    0.9119 C   0  0  0  0  0  0  0  0  0  0  0  0
   -0.9073   -2.6615    1.4699 O   0  0  0  0  0  0  0  0  0  0  0  0
   -1.5803   -0.8195    0.3749 N   0  0  0  0  0  0  0  0  0  0  0  0
   -2.3603   -0.3345   -0.0451 H   0  0  0  0  0  0  0  0  0  0  0  0
   -0.2933   -0.1205    0.3719 C   0  0  1  0  0  0  0  0  0  0  0  0
    0.2545   -0.3937    1.2749 H   0  0  0  0  0  0  0  0  0  0  0  0
    0.5255   -0.5811   -0.8513 C   0  0  0  0  0  0  0  0  0  0  0  0
   -0.0860   -0.4346   -1.7433 H   0  0  0  0  0  0  0  0  0  0  0  0
    1.4157    0.0427   -0.9441 H   0  0  0  0  0  0  0  0  0  0  0  0
    0.9653   -2.0540   -0.7884 C   0  0  0  0  0  0  0  0  0  0  0  0
    1.5949   -2.2164    0.0865 H   0  0  0  0  0  0  0  0  0  0  0  0
    0.0826   -2.6882   -0.7150 H   0  0  0  0  0  0  0  0  0  0  0  0
    1.7504   -2.4764   -2.0259 C   0  0  0  0  0  0  0  0  0  0  0  0
    1.9099   -1.7897   -3.0223 O   0  0  0  0  0  0  0  0  0  0  0  0
    2.2827   -3.7119   -1.9812 O   0  0  0  0  0  0  0  0  0  0  0  0
    2.7242   -3.8259   -2.8247 H   0  0  0  0  0  0  0  0  0  0  0  0
   -0.5124    1.4007    0.3897 C   0  0  0  0  0  0  0  0  0  0  0  0
   -0.3295    2.0366    1.4261 O   0  0  0  0  0  0  0  0  0  0  0  0
   -0.9139    1.9773   -0.7495 N   0  0  0  0  0  0  0  0  0  0  0  0
   -1.0212    1.3939   -1.5659 H   0  0  0  0  0  0  0  0  0  0  0  0
   -1.1858    3.4064   -0.8897 C   0  0  0  0  0  0  0  0  0  0  0  0
   -0.2998    3.9800   -0.6117 H   0  0  0  0  0  0  0  0  0  0  0  0
   -1.4562    3.6415   -1.9201 H   0  0  0  0  0  0  0  0  0  0  0  0
   -2.0055    3.6923   -0.2276 H   0  0  0  0  0  0  0  0  0  0  0  0
  5  6  2  0  0  0  0
  5  7  1  0  0  0  0
  2  3  1  0  0  0  0
  2  4  1  0  0  0  0
  2  5  1  0  0  0  0
  1  2  1  0  0  0  0
 21 22  2  0  0  0  0
 21 23  1  0  0  0  0
 19 20  1  0  0  0  0
 17 18  2  0  0  0  0
 17 19  1  0  0  0  0
 14 15  1  0  0  0  0
 14 16  1  0  0  0  0
 14 17  1  0  0  0  0
 11 12  1  0  0  0  0
 11 13  1  0  0  0  0
 11 14  1  0  0  0  0
  9 10  1  0  0  0  0
  9 11  1  0  0  0  0
  9 21  1  0  0  0  0
  7  8  1  0  0  0  0
  7  9  1  0  0  0  0
 25 26  1  0  0  0  0
 25 27  1  0  0  0  0
 25 28  1  0  0  0  0
 23 24  1  0  0  0  0
 23 25  1  0  0  0  0
M  END
$$$$
default_name
  -OEChem-01062215323D

 28 27  0     1  0  0  0  0  0999 V2000
   -3.2133   -3.5565    1.2809 H   0  0  0  0  0  0  0  0  0  0  0  0
   -3.1873   -2.5755    0.8089 C   0  0  0  0  0  0  0  0  0  0  0  0
   -3.8793   -1.9065    1.3169 H   0  0  0  0  0  0  0  0  0  0  0  0
   -3.4623   -2.6685   -0.2401 H   0  0  0  0  0  0  0  0  0  0  0  0
   -1.7863   -2.0195    0.9119 C   0  0  0  0  0  0  0  0  0  0  0  0
   -0.9073   -2.6615    1.4699 O   0  0  0  0  0  0  0  0  0  0  0  0
   -1.5803   -0.8195    0.3749 N   0  0  0  0  0  0  0  0  0  0  0  0
   -2.3603   -0.3345   -0.0451 H   0  0  0  0  0  0  0  0  0  0  0  0
   -0.2933   -0.1205    0.3719 C   0  0  1  0  0  0  0  0  0  0  0  0
    0.2545   -0.3937    1.2749 H   0  0  0  0  0  0  0  0  0  0  0  0
    0.5255   -0.5811   -0.8513 C   0  0  0  0  0  0  0  0  0  0  0  0
   -0.0860   -0.4346   -1.7433 H   0  0  0  0  0  0  0  0  0  0  0  0
    1.4157    0.0427   -0.9441 H   0  0  0  0  0  0  0  0  0  0  0  0
    0.9653   -2.0540   -0.7884 C   0  0  0  0  0  0  0  0  0  0  0  0
    1.5949   -2.2164    0.0865 H   0  0  0  0  0  0  0  0  0  0  0  0
    0.0826   -2.6882   -0.7150 H   0  0  0  0  0  0  0  0  0  0  0  0
    1.7504   -2.4764   -2.0259 C   0  0  0  0  0  0  0  0  0  0  0  0
    1.9099   -1.7897   -3.0223 O   0  0  0  0  0  0  0  0  0  0  0  0
    2.2827   -3.7119   -1.9812 O   0  0  0  0  0  0  0  0  0  0  0  0
    2.7242   -3.8259   -2.8247 H   0  0  0  0  0  0  0  0  0  0  0  0
   -0.5124    1.4007    0.3897 C   0  0  0  0  0  0  0  0  0  0  0  0
   -0.0751    2.0745    1.3207 O   0  0  0  0  0  0  0  0  0  0  0  0
   -1.1968    1.9351   -0.6289 N   0  0  0  0  0  0  0  0  0  0  0  0
   -1.5050    1.3219   -1.3686 H   0  0  0  0  0  0  0  0  0  0  0  0
   -1.5067    3.3585   -0.7468 C   0  0  0  0  0  0  0  0  0  0  0  0
   -0.5834    3.9405   -0.7262 H   0  0  0  0  0  0  0  0  0  0  0  0
   -2.0337    3.5555   -1.6814 H   0  0  0  0  0  0  0  0  0  0  0  0
   -2.1316    3.6704    0.0923 H   0  0  0  0  0  0  0  0  0  0  0  0
  5  6  2  0  0  0  0
  5  7  1  0  0  0  0
  2  3  1  0  0  0  0
  2  4  1  0  0  0  0
  2  5  1  0  0  0  0
  1  2  1  0  0  0  0
 21 22  2  0  0  0  0
 21 23  1  0  0  0  0
 19 20  1  0  0  0  0
 17 18  2  0  0  0  0
 17 19  1  0  0  0  0
 14 15  1  0  0  0  0
 14 16  1  0  0  0  0
 14 17  1  0  0  0  0
 11 12  1  0  0  0  0
 11 13  1  0  0  0  0
 11 14  1  0  0  0  0
  9 10  1  0  0  0  0
  9 11  1  0  0  0  0
  9 21  1  0  0  0  0
  7  8  1  0  0  0  0
  7  9  1  0  0  0  0
 25 26  1  0  0  0  0
 25 27  1  0  0  0  0
 25 28  1  0  0  0  0
 23 24  1  0  0  0  0
 23 25  1  0  0  0  0
M  END
$$$$
default_name
  -OEChem-01062215323D

 28 27  0     1  0  0  0  0  0999 V2000
   -3.2133   -3.5565    1.2809 H   0  0  0  0  0  0  0  0  0  0  0  0
   -3.1873   -2.5755    0.8089 C   0  0  0  0  0  0  0  0  0  0  0  0
   -3.8793   -1.9065    1.3169 H   0  0  0  0  0  0  0  0  0  0  0  0
   -3.4623   -2.6685   -0.2401 H   0  0  0  0  0  0  0  0  0  0  0  0
   -1.7863   -2.0195    0.9119 C   0  0  0  0  0  0  0  0  0  0  0  0
   -0.9073   -2.6615    1.4699 O   0  0  0  0  0  0  0  0  0  0  0  0
   -1.5803   -0.8195    0.3749 N   0  0  0  0  0  0  0  0  0  0  0  0
   -2.3603   -0.3345   -0.0451 H   0  0  0  0  0  0  0  0  0  0  0  0
   -0.2933   -0.1205    0.3719 C   0  0  1  0  0  0  0  0  0  0  0  0
    0.2545   -0.3937    1.2749 H   0  0  0  0  0  0  0  0  0  0  0  0
    0.5255   -0.5811   -0.8513 C   0  0  0  0  0  0  0  0  0  0  0  0
   -0.0860   -0.4346   -1.7433 H   0  0  0  0  0  0  0  0  0  0  0  0
    1.4157    0.0427   -0.9441 H   0  0  0  0  0  0  0  0  0  0  0  0
    0.9653   -2.0540   -0.7884 C   0  0  0  0  0  0  0  0  0  0  0  0
    1.5949   -2.2164    0.0865 H   0  0  0  0  0  0  0  0  0  0  0  0
    0.0826   -2.6882   -0.7150 H   0  0  0  0  0  0  0  0  0  0  0  0
    1.7504   -2.4764   -2.0259 C   0  0  0  0  0  0  0  0  0  0  0  0
    1.9099   -1.7897   -3.0223 O   0  0  0  0  0  0  0  0  0  0  0  0
    2.2827   -3.7119   -1.9812 O   0  0  0  0  0  0  0  0  0  0  0  0
    2.7242   -3.8259   -2.8247 H   0  0  0  0  0  0  0  0  0  0  0  0
   -0.5124    1.4007    0.3897 C   0  0  0  0  0  0  0  0  0  0  0  0
    0.1434    2.1079    1.1523 O   0  0  0  0  0  0  0  0  0  0  0  0
   -1.4390    1.8980   -0.4384 N   0  0  0  0  0  0  0  0  0  0  0  0
   -1.9216    1.2582   -1.0516 H   0  0  0  0  0  0  0  0  0  0  0  0
   -1.7798    3.3166   -0.5249 C   0  0  0  0  0  0  0  0  0  0  0  0
   -0.8867    3.8972   -0.7627 H   0  0  0  0  0  0  0  0  0  0  0  0
   -2.5302    3.4795   -1.2998 H   0  0  0  0  0  0  0  0  0  0  0  0
   -2.1715    3.6607    0.4344 H   0  0  0  0  0  0  0  0  0  0  0  0
  5  6  2  0  0  0  0
  5  7  1  0  0  0  0
  2  3  1  0  0  0  0
  2  4  1  0  0  0  0
  2  5  1  0  0  0  0
  1  2  1  0  0  0  0
 21 22  2  0  0  0  0
 21 23  1  0  0  0  0
 19 20  1  0  0  0  0
 17 18  2  0  0  0  0
 17 19  1  0  0  0  0
 14 15  1  0  0  0  0
 14 16  1  0  0  0  0
 14 17  1  0  0  0  0
 11 12  1  0  0  0  0
 11 13  1  0  0  0  0
 11 14  1  0  0  0  0
  9 10  1  0  0  0  0
  9 11  1  0  0  0  0
  9 21  1  0  0  0  0
  7  8  1  0  0  0  0
  7  9  1  0  0  0  0
 25 26  1  0  0  0  0
 25 27  1  0  0  0  0
 25 28  1  0  0  0  0
 23 24  1  0  0  0  0
 23 25  1  0  0  0  0
M  END
$$$$
default_name
  -OEChem-01062215323D

 28 27  0     1  0  0  0  0  0999 V2000
   -3.2133   -3.5565    1.2809 H   0  0  0  0  0  0  0  0  0  0  0  0
   -3.1873   -2.5755    0.8089 C   0  0  0  0  0  0  0  0  0  0  0  0
   -3.8793   -1.9065    1.3169 H   0  0  0  0  0  0  0  0  0  0  0  0
   -3.4623   -2.6685   -0.2401 H   0  0  0  0  0  0  0  0  0  0  0  0
   -1.7863   -2.0195    0.9119 C   0  0  0  0  0  0  0  0  0  0  0  0
   -0.9073   -2.6615    1.4699 O   0  0  0  0  0  0  0  0  0  0  0  0
   -1.5803   -0.8195    0.3749 N   0  0  0  0  0  0  0  0  0  0  0  0
   -2.3603   -0.3345   -0.0451 H   0  0  0  0  0  0  0  0  0  0  0  0
   -0.2933   -0.1205    0.3719 C   0  0  1  0  0  0  0  0  0  0  0  0
    0.2545   -0.3937    1.2749 H   0  0  0  0  0  0  0  0  0  0  0  0
    0.5255   -0.5811   -0.8513 C   0  0  0  0  0  0  0  0  0  0  0  0
   -0.0860   -0.4346   -1.7433 H   0  0  0  0  0  0  0  0  0  0  0  0
    1.4157    0.0427   -0.9441 H   0  0  0  0  0  0  0  0  0  0  0  0
    0.9653   -2.0540   -0.7884 C   0  0  0  0  0  0  0  0  0  0  0  0
    1.5949   -2.2164    0.0865 H   0  0  0  0  0  0  0  0  0  0  0  0
    0.0826   -2.6882   -0.7150 H   0  0  0  0  0  0  0  0  0  0  0  0
    1.7504   -2.4764   -2.0259 C   0  0  0  0  0  0  0  0  0  0  0  0
    1.9099   -1.7897   -3.0223 O   0  0  0  0  0  0  0  0  0  0  0  0
    2.2827   -3.7119   -1.9812 O   0  0  0  0  0  0  0  0  0  0  0  0
    2.7242   -3.8259   -2.8247 H   0  0  0  0  0  0  0  0  0  0  0  0
   -0.5124    1.4007    0.3897 C   0  0  0  0  0  0  0  0  0  0  0  0
    0.3113    2.1347    0.9325 O   0  0  0  0  0  0  0  0  0  0  0  0
   -1.6240    1.8684   -0.1909 N   0  0  0  0  0  0  0  0  0  0  0  0
   -2.2425    1.2071   -0.6362 H   0  0  0  0  0  0  0  0  0  0  0  0
   -1.9867    3.2834   -0.2389 C   0  0  0  0  0  0  0  0  0  0  0  0
   -1.1888    3.8532   -0.7187 H   0  0  0  0  0  0  0  0  0  0  0  0
   -2.9118    3.4187   -0.8011 H   0  0  0  0  0  0  0  0  0  0  0  0
   -2.1223    3.6638    0.7754 H   0  0  0  0  0  0  0  0  0  0  0  0
  5  6  2  0  0  0  0
  5  7  1  0  0  0  0
  2  3  1  0  0  0  0
  2  4  1  0  0  0  0
  2  5  1  0  0  0  0
  1  2  1  0  0  0  0
 21 22  2  0  0  0  0
 21 23  1  0  0  0  0
 19 20  1  0  0  0  0
 17 18  2  0  0  0  0
 17 19  1  0  0  0  0
 14 15  1  0  0  0  0
 14 16  1  0  0  0  0
 14 17  1  0  0  0  0
 11 12  1  0  0  0  0
 11 13  1  0  0  0  0
 11 14  1  0  0  0  0
  9 10  1  0  0  0  0
  9 11  1  0  0  0  0
  9 21  1  0  0  0  0
  7  8  1  0  0  0  0
  7  9  1  0  0  0  0
 25 26  1  0  0  0  0
 25 27  1  0  0  0  0
 25 28  1  0  0  0  0
 23 24  1  0  0  0  0
 23 25  1  0  0  0  0
M  END
$$$$
default_name
  -OEChem-01062215323D

 28 27  0     1  0  0  0  0  0999 V2000
   -3.2133   -3.5565    1.2809 H   0  0  0  0  0  0  0  0  0  0  0  0
   -3.1873   -2.5755    0.8089 C   0  0  0  0  0  0  0  0  0  0  0  0
   -3.8793   -1.9065    1.3169 H   0  0  0  0  0  0  0  0  0  0  0  0
   -3.4623   -2.6685   -0.2401 H   0  0  0  0  0  0  0  0  0  0  0  0
   -1.7863   -2.0195    0.9119 C   0  0  0  0  0  0  0  0  0  0  0  0
   -0.9073   -2.6615    1.4699 O   0  0  0  0  0  0  0  0  0  0  0  0
   -1.5803   -0.8195    0.3749 N   0  0  0  0  0  0  0  0  0  0  0  0
   -2.3603   -0.3345   -0.0451 H   0  0  0  0  0  0  0  0  0  0  0  0
   -0.2933   -0.1205    0.3719 C   0  0  1  0  0  0  0  0  0  0  0  0
    0.2545   -0.3937    1.2749 H   0  0  0  0  0  0  0  0  0  0  0  0
    0.5255   -0.5811   -0.8513 C   0  0  0  0  0  0  0  0  0  0  0  0
   -0.0860   -0.4346   -1.7433 H   0  0  0  0  0  0  0  0  0  0  0  0
    1.4157    0.0427   -0.9441 H   0  0  0  0  0  0  0  0  0  0  0  0
    0.9653   -2.0540   -0.7884 C   0  0  0  0  0  0  0  0  0  0  0  0
    1.5949   -2.2164    0.0865 H   0  0  0  0  0  0  0  0  0  0  0  0
    0.0826   -2.6882   -0.7150 H   0  0  0  0  0  0  0  0  0  0  0  0
    1.7504   -2.4764   -2.0259 C   0  0  0  0  0  0  0  0  0  0  0  0
    1.9099   -1.7897   -3.0223 O   0  0  0  0  0  0  0  0  0  0  0  0
    2.2827   -3.7119   -1.9812 O   0  0  0  0  0  0  0  0  0  0  0  0
    2.7242   -3.8259   -2.8247 H   0  0  0  0  0  0  0  0  0  0  0  0
   -0.5124    1.4007    0.3897 C   0  0  0  0  0  0  0  0  0  0  0  0
    0.4171    2.1529    0.6761 O   0  0  0  0  0  0  0  0  0  0  0  0
   -1.7393    1.8485    0.0966 N   0  0  0  0  0  0  0  0  0  0  0  0
   -2.4460    1.1721   -0.1509 H   0  0  0  0  0  0  0  0  0  0  0  0
   -2.1132    3.2613    0.0915 C   0  0  0  0  0  0  0  0  0  0  0  0
   -1.4693    3.8113   -0.5972 H   0  0  0  0  0  0  0  0  0  0  0  0
   -3.1524    3.3772   -0.2195 H   0  0  0  0  0  0  0  0  0  0  0  0
   -1.9875    3.6795    1.0921 H   0  0  0  0  0  0  0  0  0  0  0  0
  5  6  2  0  0  0  0
  5  7  1  0  0  0  0
  2  3  1  0  0  0  0
  2  4  1  0  0  0  0
  2  5  1  0  0  0  0
  1  2  1  0  0  0  0
 21 22  2  0  0  0  0
 21 23  1  0  0  0  0
 19 20  1  0  0  0  0
 17 18  2  0  0  0  0
 17 19  1  0  0  0  0
 14 15  1  0  0  0  0
 14 16  1  0  0  0  0
 14 17  1  0  0  0  0
 11 12  1  0  0  0  0
 11 13  1  0  0  0  0
 11 14  1  0  0  0  0
  9 10  1  0  0  0  0
  9 11  1  0  0  0  0
  9 21  1  0  0  0  0
  7  8  1  0  0  0  0
  7  9  1  0  0  0  0
 25 26  1  0  0  0  0
 25 27  1  0  0  0  0
 25 28  1  0  0  0  0
 23 24  1  0  0  0  0
 23 25  1  0  0  0  0
M  END
$$$$
default_name
  -OEChem-01062215323D

 28 27  0     1  0  0  0  0  0999 V2000
   -3.2133   -3.5565    1.2809 H   0  0  0  0  0  0  0  0  0  0  0  0
   -3.1873   -2.5755    0.8089 C   0  0  0  0  0  0  0  0  0  0  0  0
   -3.8793   -1.9065    1.3169 H   0  0  0  0  0  0  0  0  0  0  0  0
   -3.4623   -2.6685   -0.2401 H   0  0  0  0  0  0  0  0  0  0  0  0
   -1.7863   -2.0195    0.9119 C   0  0  0  0  0  0  0  0  0  0  0  0
   -0.9073   -2.6615    1.4699 O   0  0  0  0  0  0  0  0  0  0  0  0
   -1.5803   -0.8195    0.3749 N   0  0  0  0  0  0  0  0  0  0  0  0
   -2.3603   -0.3345   -0.0451 H   0  0  0  0  0  0  0  0  0  0  0  0
   -0.2933   -0.1205    0.3719 C   0  0  1  0  0  0  0  0  0  0  0  0
    0.2545   -0.3937    1.2749 H   0  0  0  0  0  0  0  0  0  0  0  0
    0.5255   -0.5811   -0.8513 C   0  0  0  0  0  0  0  0  0  0  0  0
   -0.0860   -0.4346   -1.7433 H   0  0  0  0  0  0  0  0  0  0  0  0
    1.4157    0.0427   -0.9441 H   0  0  0  0  0  0  0  0  0  0  0  0
    0.9653   -2.0540   -0.7884 C   0  0  0  0  0  0  0  0  0  0  0  0
    1.5949   -2.2164    0.0865 H   0  0  0  0  0  0  0  0  0  0  0  0
    0.0826   -2.6882   -0.7150 H   0  0  0  0  0  0  0  0  0  0  0  0
    1.7504   -2.4764   -2.0259 C   0  0  0  0  0  0  0  0  0  0  0  0
    1.9099   -1.7897   -3.0223 O   0  0  0  0  0  0  0  0  0  0  0  0
    2.2827   -3.7119   -1.9812 O   0  0  0  0  0  0  0  0  0  0  0  0
    2.7242   -3.8259   -2.8247 H   0  0  0  0  0  0  0  0  0  0  0  0
   -0.5124    1.4007    0.3897 C   0  0  0  0  0  0  0  0  0  0  0  0
    0.4535    2.1614    0.4008 O   0  0  0  0  0  0  0  0  0  0  0  0
   -1.7769    1.8394    0.4046 N   0  0  0  0  0  0  0  0  0  0  0  0
   -2.5181    1.1556    0.3713 H   0  0  0  0  0  0  0  0  0  0  0  0
   -2.1507    3.2518    0.4439 C   0  0  0  0  0  0  0  0  0  0  0  0
   -1.7089    3.7746   -0.4064 H   0  0  0  0  0  0  0  0  0  0  0  0
   -3.2358    3.3579    0.4055 H   0  0  0  0  0  0  0  0  0  0  0  0
   -1.7761    3.7068    1.3629 H   0  0  0  0  0  0  0  0  0  0  0  0
  5  6  2  0  0  0  0
  5  7  1  0  0  0  0
  2  3  1  0  0  0  0
  2  4  1  0  0  0  0
  2  5  1  0  0  0  0
  1  2  1  0  0  0  0
 21 22  2  0  0  0  0
 21 23  1  0  0  0  0
 19 20  1  0  0  0  0
 17 18  2  0  0  0  0
 17 19  1  0  0  0  0
 14 15  1  0  0  0  0
 14 16  1  0  0  0  0
 14 17  1  0  0  0  0
 11 12  1  0  0  0  0
 11 13  1  0  0  0  0
 11 14  1  0  0  0  0
  9 10  1  0  0  0  0
  9 11  1  0  0  0  0
  9 21  1  0  0  0  0
  7  8  1  0  0  0  0
  7  9  1  0  0  0  0
 25 26  1  0  0  0  0
 25 27  1  0  0  0  0
 25 28  1  0  0  0  0
 23 24  1  0  0  0  0
 23 25  1  0  0  0  0
M  END
$$$$
default_name
  -OEChem-01062215323D

 28 27  0     1  0  0  0  0  0999 V2000
   -3.2133   -3.5565    1.2809 H   0  0  0  0  0  0  0  0  0  0  0  0
   -3.1873   -2.5755    0.8089 C   0  0  0  0  0  0  0  0  0  0  0  0
   -3.8793   -1.9065    1.3169 H   0  0  0  0  0  0  0  0  0  0  0  0
   -3.4623   -2.6685   -0.2401 H   0  0  0  0  0  0  0  0  0  0  0  0
   -1.7863   -2.0195    0.9119 C   0  0  0  0  0  0  0  0  0  0  0  0
   -0.9073   -2.6615    1.4699 O   0  0  0  0  0  0  0  0  0  0  0  0
   -1.5803   -0.8195    0.3749 N   0  0  0  0  0  0  0  0  0  0  0  0
   -2.3603   -0.3345   -0.0451 H   0  0  0  0  0  0  0  0  0  0  0  0
   -0.2933   -0.1205    0.3719 C   0  0  1  0  0  0  0  0  0  0  0  0
    0.2545   -0.3937    1.2749 H   0  0  0  0  0  0  0  0  0  0  0  0
    0.5255   -0.5811   -0.8513 C   0  0  0  0  0  0  0  0  0  0  0  0
   -0.0860   -0.4346   -1.7433 H   0  0  0  0  0  0  0  0  0  0  0  0
    1.4157    0.0427   -0.9441 H   0  0  0  0  0  0  0  0  0  0  0  0
    0.9653   -2.0540   -0.7884 C   0  0  0  0  0  0  0  0  0  0  0  0
    1.5949   -2.2164    0.0865 H   0  0  0  0  0  0  0  0  0  0  0  0
    0.0826   -2.6882   -0.7150 H   0  0  0  0  0  0  0  0  0  0  0  0
    1.7504   -2.4764   -2.0259 C   0  0  0  0  0  0  0  0  0  0  0  0
    1.9099   -1.7897   -3.0223 O   0  0  0  0  0  0  0  0  0  0  0  0
    2.2827   -3.7119   -1.9812 O   0  0  0  0  0  0  0  0  0  0  0  0
    2.7242   -3.8259   -2.8247 H   0  0  0  0  0  0  0  0  0  0  0  0
   -0.5124    1.4007    0.3897 C   0  0  0  0  0  0  0  0  0  0  0  0
    0.4181    2.1595    0.1251 O   0  0  0  0  0  0  0  0  0  0  0  0
   -1.7343    1.8420    0.7120 N   0  0  0  0  0  0  0  0  0  0  0  0
   -2.4540    1.1587    0.8947 H   0  0  0  0  0  0  0  0  0  0  0  0
   -2.0966    3.2555    0.7942 C   0  0  0  0  0  0  0  0  0  0  0  0
   -1.8914    3.7454   -0.1594 H   0  0  0  0  0  0  0  0  0  0  0  0
   -3.1561    3.3620    1.0313 H   0  0  0  0  0  0  0  0  0  0  0  0
   -1.5027    3.7437    1.5694 H   0  0  0  0  0  0  0  0  0  0  0  0
  5  6  2  0  0  0  0
  5  7  1  0  0  0  0
  2  3  1  0  0  0  0
  2  4  1  0  0  0  0
  2  5  1  0  0  0  0
  1  2  1  0  0  0  0
 21 22  2  0  0  0  0
 21 23  1  0  0  0  0
 19 20  1  0  0  0  0
 17 18  2  0  0  0  0
 17 19  1  0  0  0  0
 14 15  1  0  0  0  0
 14 16  1  0  0  0  0
 14 17  1  0  0  0  0
 11 12  1  0  0  0  0
 11 13  1  0  0  0  0
 11 14  1  0  0  0  0
  9 10  1  0  0  0  0
  9 11  1  0  0  0  0
  9 21  1  0  0  0  0
  7  8  1  0  0  0  0
  7  9  1  0  0  0  0
 25 26  1  0  0  0  0
 25 27  1  0  0  0  0
 25 28  1  0  0  0  0
 23 24  1  0  0  0  0
 23 25  1  0  0  0  0
M  END
$$$$
default_name
  -OEChem-01062215323D

 28 27  0     1  0  0  0  0  0999 V2000
   -3.2133   -3.5565    1.2809 H   0  0  0  0  0  0  0  0  0  0  0  0
   -3.1873   -2.5755    0.8089 C   0  0  0  0  0  0  0  0  0  0  0  0
   -3.8793   -1.9065    1.3169 H   0  0  0  0  0  0  0  0  0  0  0  0
   -3.4623   -2.6685   -0.2401 H   0  0  0  0  0  0  0  0  0  0  0  0
   -1.7863   -2.0195    0.9119 C   0  0  0  0  0  0  0  0  0  0  0  0
   -0.9073   -2.6615    1.4699 O   0  0  0  0  0  0  0  0  0  0  0  0
   -1.5803   -0.8195    0.3749 N   0  0  0  0  0  0  0  0  0  0  0  0
   -2.3603   -0.3345   -0.0451 H   0  0  0  0  0  0  0  0  0  0  0  0
   -0.2933   -0.1205    0.3719 C   0  0  1  0  0  0  0  0  0  0  0  0
    0.2545   -0.3937    1.2749 H   0  0  0  0  0  0  0  0  0  0  0  0
    0.5255   -0.5811   -0.8513 C   0  0  0  0  0  0  0  0  0  0  0  0
   -0.0860   -0.4346   -1.7433 H   0  0  0  0  0  0  0  0  0  0  0  0
    1.4157    0.0427   -0.9441 H   0  0  0  0  0  0  0  0  0  0  0  0
    0.9653   -2.0540   -0.7884 C   0  0  0  0  0  0  0  0  0  0  0  0
    1.5949   -2.2164    0.0865 H   0  0  0  0  0  0  0  0  0  0  0  0
    0.0826   -2.6882   -0.7150 H   0  0  0  0  0  0  0  0  0  0  0  0
    1.7504   -2.4764   -2.0259 C   0  0  0  0  0  0  0  0  0  0  0  0
    1.9099   -1.7897   -3.0223 O   0  0  0  0  0  0  0  0  0  0  0  0
    2.2827   -3.7119   -1.9812 O   0  0  0  0  0  0  0  0  0  0  0  0
    2.7242   -3.8259   -2.8247 H   0  0  0  0  0  0  0  0  0  0  0  0
   -0.5124    1.4007    0.3897 C   0  0  0  0  0  0  0  0  0  0  0  0
    0.3134    2.1474   -0.1320 O   0  0  0  0  0  0  0  0  0  0  0  0
   -1.6144    1.8559    0.9980 N   0  0  0  0  0  0  0  0  0  0  0  0
   -2.2580    1.1812    1.3838 H   0  0  0  0  0  0  0  0  0  0  0  0
   -1.9546    3.2721    1.1186 C   0  0  0  0  0  0  0  0  0  0  0  0
   -2.0043    3.7258    0.1270 H   0  0  0  0  0  0  0  0  0  0  0  0
   -2.9189    3.3894    1.6151 H   0  0  0  0  0  0  0  0  0  0  0  0
   -1.1859    3.7879    1.6973 H   0  0  0  0  0  0  0  0  0  0  0  0
  5  6  2  0  0  0  0
  5  7  1  0  0  0  0
  2  3  1  0  0  0  0
  2  4  1  0  0  0  0
  2  5  1  0  0  0  0
  1  2  1  0  0  0  0
 21 22  2  0  0  0  0
 21 23  1  0  0  0  0
 19 20  1  0  0  0  0
 17 18  2  0  0  0  0
 17 19  1  0  0  0  0
 14 15  1  0  0  0  0
 14 16  1  0  0  0  0
 14 17  1  0  0  0  0
 11 12  1  0  0  0  0
 11 13  1  0  0  0  0
 11 14  1  0  0  0  0
  9 10  1  0  0  0  0
  9 11  1  0  0  0  0
  9 21  1  0  0  0  0
  7  8  1  0  0  0  0
  7  9  1  0  0  0  0
 25 26  1  0  0  0  0
 25 27  1  0  0  0  0
 25 28  1  0  0  0  0
 23 24  1  0  0  0  0
 23 25  1  0  0  0  0
M  END
$$$$
default_name
  -OEChem-01062215323D

 28 27  0     1  0  0  0  0  0999 V2000
   -3.2133   -3.5565    1.2809 H   0  0  0  0  0  0  0  0  0  0  0  0
   -3.1873   -2.5755    0.8089 C   0  0  0  0  0  0  0  0  0  0  0  0
   -3.8793   -1.9065    1.3169 H   0  0  0  0  0  0  0  0  0  0  0  0
   -3.4623   -2.6685   -0.2401 H   0  0  0  0  0  0  0  0  0  0  0  0
   -1.7863   -2.0195    0.9119 C   0  0  0  0  0  0  0  0  0  0  0  0
   -0.9073   -2.6615    1.4699 O   0  0  0  0  0  0  0  0  0  0  0  0
   -1.5803   -0.8195    0.3749 N   0  0  0  0  0  0  0  0  0  0  0  0
   -2.3603   -0.3345   -0.0451 H   0  0  0  0  0  0  0  0  0  0  0  0
   -0.2933   -0.1205    0.3719 C   0  0  1  0  0  0  0  0  0  0  0  0
    0.2545   -0.3937    1.2749 H   0  0  0  0  0  0  0  0  0  0  0  0
    0.5255   -0.5811   -0.8513 C   0  0  0  0  0  0  0  0  0  0  0  0
   -0.0860   -0.4346   -1.7433 H   0  0  0  0  0  0  0  0  0  0  0  0
    1.4157    0.0427   -0.9441 H   0  0  0  0  0  0  0  0  0  0  0  0
    0.9653   -2.0540   -0.7884 C   0  0  0  0  0  0  0  0  0  0  0  0
    1.5949   -2.2164    0.0865 H   0  0  0  0  0  0  0  0  0  0  0  0
    0.0826   -2.6882   -0.7150 H   0  0  0  0  0  0  0  0  0  0  0  0
    1.7504   -2.4764   -2.0259 C   0  0  0  0  0  0  0  0  0  0  0  0
    1.9099   -1.7897   -3.0223 O   0  0  0  0  0  0  0  0  0  0  0  0
    2.2827   -3.7119   -1.9812 O   0  0  0  0  0  0  0  0  0  0  0  0
    2.7242   -3.8259   -2.8247 H   0  0  0  0  0  0  0  0  0  0  0  0
   -0.5124    1.4007    0.3897 C   0  0  0  0  0  0  0  0  0  0  0  0
    0.1464    2.1260   -0.3530 O   0  0  0  0  0  0  0  0  0  0  0  0
   -1.4254    1.8803    1.2430 N   0  0  0  0  0  0  0  0  0  0  0  0
   -1.9434    1.2216    1.8052 H   0  0  0  0  0  0  0  0  0  0  0  0
   -1.7344    3.3006    1.3949 C   0  0  0  0  0  0  0  0  0  0  0  0
   -2.0400    3.7171    0.4333 H   0  0  0  0  0  0  0  0  0  0  0  0
   -2.5402    3.4380    2.1173 H   0  0  0  0  0  0  0  0  0  0  0  0
   -0.8471    3.8362    1.7382 H   0  0  0  0  0  0  0  0  0  0  0  0
  5  6  2  0  0  0  0
  5  7  1  0  0  0  0
  2  3  1  0  0  0  0
  2  4  1  0  0  0  0
  2  5  1  0  0  0  0
  1  2  1  0  0  0  0
 21 22  2  0  0  0  0
 21 23  1  0  0  0  0
 19 20  1  0  0  0  0
 17 18  2  0  0  0  0
 17 19  1  0  0  0  0
 14 15  1  0  0  0  0
 14 16  1  0  0  0  0
 14 17  1  0  0  0  0
 11 12  1  0  0  0  0
 11 13  1  0  0  0  0
 11 14  1  0  0  0  0
  9 10  1  0  0  0  0
  9 11  1  0  0  0  0
  9 21  1  0  0  0  0
  7  8  1  0  0  0  0
  7  9  1  0  0  0  0
 25 26  1  0  0  0  0
 25 27  1  0  0  0  0
 25 28  1  0  0  0  0
 23 24  1  0  0  0  0
 23 25  1  0  0  0  0
M  END
$$$$
default_name
  -OEChem-01062215323D

 28 27  0     1  0  0  0  0  0999 V2000
   -3.2133   -3.5565    1.2809 H   0  0  0  0  0  0  0  0  0  0  0  0
   -3.1873   -2.5755    0.8089 C   0  0  0  0  0  0  0  0  0  0  0  0
   -3.8793   -1.9065    1.3169 H   0  0  0  0  0  0  0  0  0  0  0  0
   -3.4623   -2.6685   -0.2401 H   0  0  0  0  0  0  0  0  0  0  0  0
   -1.7863   -2.0195    0.9119 C   0  0  0  0  0  0  0  0  0  0  0  0
   -0.9073   -2.6615    1.4699 O   0  0  0  0  0  0  0  0  0  0  0  0
   -1.5803   -0.8195    0.3749 N   0  0  0  0  0  0  0  0  0  0  0  0
   -2.3603   -0.3345   -0.0451 H   0  0  0  0  0  0  0  0  0  0  0  0
   -0.2933   -0.1205    0.3719 C   0  0  1  0  0  0  0  0  0  0  0  0
    0.2545   -0.3937    1.2749 H   0  0  0  0  0  0  0  0  0  0  0  0
    0.5255   -0.5811   -0.8513 C   0  0  0  0  0  0  0  0  0  0  0  0
   -0.0860   -0.4346   -1.7433 H   0  0  0  0  0  0  0  0  0  0  0  0
    1.4157    0.0427   -0.9441 H   0  0  0  0  0  0  0  0  0  0  0  0
    0.9653   -2.0540   -0.7884 C   0  0  0  0  0  0  0  0  0  0  0  0
    1.5949   -2.2164    0.0865 H   0  0  0  0  0  0  0  0  0  0  0  0
    0.0826   -2.6882   -0.7150 H   0  0  0  0  0  0  0  0  0  0  0  0
    1.7504   -2.4764   -2.0259 C   0  0  0  0  0  0  0  0  0  0  0  0
    1.9099   -1.7897   -3.0223 O   0  0  0  0  0  0  0  0  0  0  0  0
    2.2827   -3.7119   -1.9812 O   0  0  0  0  0  0  0  0  0  0  0  0
    2.7242   -3.8259   -2.8247 H   0  0  0  0  0  0  0  0  0  0  0  0
   -0.5124    1.4007    0.3897 C   0  0  0  0  0  0  0  0  0  0  0  0
   -0.0715    2.0966   -0.5230 O   0  0  0  0  0  0  0  0  0  0  0  0
   -1.1802    1.9134    1.4303 N   0  0  0  0  0  0  0  0  0  0  0  0
   -1.5317    1.2771    2.1301 H   0  0  0  0  0  0  0  0  0  0  0  0
   -1.4511    3.3390    1.6044 C   0  0  0  0  0  0  0  0  0  0  0  0
   -1.9959    3.7198    0.7386 H   0  0  0  0  0  0  0  0  0  0  0  0
   -2.0460    3.5047    2.5037 H   0  0  0  0  0  0  0  0  0  0  0  0
   -0.5097    3.8854    1.6891 H   0  0  0  0  0  0  0  0  0  0  0  0
  5  6  2  0  0  0  0
  5  7  1  0  0  0  0
  2  3  1  0  0  0  0
  2  4  1  0  0  0  0
  2  5  1  0  0  0  0
  1  2  1  0  0  0  0
 21 22  2  0  0  0  0
 21 23  1  0  0  0  0
 19 20  1  0  0  0  0
 17 18  2  0  0  0  0
 17 19  1  0  0  0  0
 14 15  1  0  0  0  0
 14 16  1  0  0  0  0
 14 17  1  0  0  0  0
 11 12  1  0  0  0  0
 11 13  1  0  0  0  0
 11 14  1  0  0  0  0
  9 10  1  0  0  0  0
  9 11  1  0  0  0  0
  9 21  1  0  0  0  0
  7  8  1  0  0  0  0
  7  9  1  0  0  0  0
 25 26  1  0  0  0  0
 25 27  1  0  0  0  0
 25 28  1  0  0  0  0
 23 24  1  0  0  0  0
 23 25  1  0  0  0  0
M  END
$$$$
default_name
  -OEChem-01062215323D

 28 27  0     1  0  0  0  0  0999 V2000
   -3.2133   -3.5565    1.2809 H   0  0  0  0  0  0  0  0  0  0  0  0
   -3.1873   -2.5755    0.8089 C   0  0  0  0  0  0  0  0  0  0  0  0
   -3.8793   -1.9065    1.3169 H   0  0  0  0  0  0  0  0  0  0  0  0
   -3.4623   -2.6685   -0.2401 H   0  0  0  0  0  0  0  0  0  0  0  0
   -1.7863   -2.0195    0.9119 C   0  0  0  0  0  0  0  0  0  0  0  0
   -0.9073   -2.6615    1.4699 O   0  0  0  0  0  0  0  0  0  0  0  0
   -1.5803   -0.8195    0.3749 N   0  0  0  0  0  0  0  0  0  0  0  0
   -2.3603   -0.3345   -0.0451 H   0  0  0  0  0  0  0  0  0  0  0  0
   -0.2933   -0.1205    0.3719 C   0  0  1  0  0  0  0  0  0  0  0  0
    0.2545   -0.3937    1.2749 H   0  0  0  0  0  0  0  0  0  0  0  0
    0.5255   -0.5811   -0.8513 C   0  0  0  0  0  0  0  0  0  0  0  0
   -0.0860   -0.4346   -1.7433 H   0  0  0  0  0  0  0  0  0  0  0  0
    1.4157    0.0427   -0.9441 H   0  0  0  0  0  0  0  0  0  0  0  0
    0.9653   -2.0540   -0.7884 C   0  0  0  0  0  0  0  0  0  0  0  0
    1.5949   -2.2164    0.0865 H   0  0  0  0  0  0  0  0  0  0  0  0
    0.0826   -2.6882   -0.7150 H   0  0  0  0  0  0  0  0  0  0  0  0
    1.7504   -2.4764   -2.0259 C   0  0  0  0  0  0  0  0  0  0  0  0
    1.9099   -1.7897   -3.0223 O   0  0  0  0  0  0  0  0  0  0  0  0
    2.2827   -3.7119   -1.9812 O   0  0  0  0  0  0  0  0  0  0  0  0
    2.7242   -3.8259   -2.8247 H   0  0  0  0  0  0  0  0  0  0  0  0
   -0.5124    1.4007    0.3897 C   0  0  0  0  0  0  0  0  0  0  0  0
   -0.3254    2.0613   -0.6303 O   0  0  0  0  0  0  0  0  0  0  0  0
   -0.8954    1.9531    1.5473 N   0  0  0  0  0  0  0  0  0  0  0  0
   -1.0510    1.3439    2.3365 H   0  0  0  0  0  0  0  0  0  0  0  0
   -1.1238    3.3846    1.7327 C   0  0  0  0  0  0  0  0  0  0  0  0
   -1.8751    3.7339    1.0222 H   0  0  0  0  0  0  0  0  0  0  0  0
   -1.4699    3.5848    2.7477 H   0  0  0  0  0  0  0  0  0  0  0  0
   -0.1964    3.9321    1.5534 H   0  0  0  0  0  0  0  0  0  0  0  0
  5  6  2  0  0  0  0
  5  7  1  0  0  0  0
  2  3  1  0  0  0  0
  2  4  1  0  0  0  0
  2  5  1  0  0  0  0
  1  2  1  0  0  0  0
 21 22  2  0  0  0  0
 21 23  1  0  0  0  0
 19 20  1  0  0  0  0
 17 18  2  0  0  0  0
 17 19  1  0  0  0  0
 14 15  1  0  0  0  0
 14 16  1  0  0  0  0
 14 17  1  0  0  0  0
 11 12  1  0  0  0  0
 11 13  1  0  0  0  0
 11 14  1  0  0  0  0
  9 10  1  0  0  0  0
  9 11  1  0  0  0  0
  9 21  1  0  0  0  0
  7  8  1  0  0  0  0
  7  9  1  0  0  0  0
 25 26  1  0  0  0  0
 25 27  1  0  0  0  0
 25 28  1  0  0  0  0
 23 24  1  0  0  0  0
 23 25  1  0  0  0  0
M  END
$$$$
default_name
  -OEChem-01062215323D

 28 27  0     1  0  0  0  0  0999 V2000
   -3.2133   -3.5565    1.2809 H   0  0  0  0  0  0  0  0  0  0  0  0
   -3.1873   -2.5755    0.8089 C   0  0  0  0  0  0  0  0  0  0  0  0
   -3.8793   -1.9065    1.3169 H   0  0  0  0  0  0  0  0  0  0  0  0
   -3.4623   -2.6685   -0.2401 H   0  0  0  0  0  0  0  0  0  0  0  0
   -1.7863   -2.0195    0.9119 C   0  0  0  0  0  0  0  0  0  0  0  0
   -0.9073   -2.6615    1.4699 O   0  0  0  0  0  0  0  0  0  0  0  0
   -1.5803   -0.8195    0.3749 N   0  0  0  0  0  0  0  0  0  0  0  0
   -2.3603   -0.3345   -0.0451 H   0  0  0  0  0  0  0  0  0  0  0  0
   -0.2933   -0.1205    0.3719 C   0  0  1  0  0  0  0  0  0  0  0  0
    0.2545   -0.3937    1.2749 H   0  0  0  0  0  0  0  0  0  0  0  0
    0.5255   -0.5811   -0.8513 C   0  0  0  0  0  0  0  0  0  0  0  0
   -0.0860   -0.4346   -1.7433 H   0  0  0  0  0  0  0  0  0  0  0  0
    1.4157    0.0427   -0.9441 H   0  0  0  0  0  0  0  0  0  0  0  0
    0.9653   -2.0540   -0.7884 C   0  0  0  0  0  0  0  0  0  0  0  0
    1.5949   -2.2164    0.0865 H   0  0  0  0  0  0  0  0  0  0  0  0
    0.0826   -2.6882   -0.7150 H   0  0  0  0  0  0  0  0  0  0  0  0
    1.7504   -2.4764   -2.0259 C   0  0  0  0  0  0  0  0  0  0  0  0
    1.9099   -1.7897   -3.0223 O   0  0  0  0  0  0  0  0  0  0  0  0
    2.2827   -3.7119   -1.9812 O   0  0  0  0  0  0  0  0  0  0  0  0
    2.7242   -3.8259   -2.8247 H   0  0  0  0  0  0  0  0  0  0  0  0
   -0.5124    1.4007    0.3897 C   0  0  0  0  0  0  0  0  0  0  0  0
   -0.5980    2.0224   -0.6676 O   0  0  0  0  0  0  0  0  0  0  0  0
   -0.5905    1.9965    1.5858 N   0  0  0  0  0  0  0  0  0  0  0  0
   -0.5340    1.4175    2.4103 H   0  0  0  0  0  0  0  0  0  0  0  0
   -0.7749    3.4344    1.7712 C   0  0  0  0  0  0  0  0  0  0  0  0
   -1.6859    3.7583    1.2646 H   0  0  0  0  0  0  0  0  0  0  0  0
   -0.8511    3.6730    2.8330 H   0  0  0  0  0  0  0  0  0  0  0  0
    0.0713    3.9732    1.3403 H   0  0  0  0  0  0  0  0  0  0  0  0
  5  6  2  0  0  0  0
  5  7  1  0  0  0  0
  2  3  1  0  0  0  0
  2  4  1  0  0  0  0
  2  5  1  0  0  0  0
  1  2  1  0  0  0  0
 21 22  2  0  0  0  0
 21 23  1  0  0  0  0
 19 20  1  0  0  0  0
 17 18  2  0  0  0  0
 17 19  1  0  0  0  0
 14 15  1  0  0  0  0
 14 16  1  0  0  0  0
 14 17  1  0  0  0  0
 11 12  1  0  0  0  0
 11 13  1  0  0  0  0
 11 14  1  0  0  0  0
  9 10  1  0  0  0  0
  9 11  1  0  0  0  0
  9 21  1  0  0  0  0
  7  8  1  0  0  0  0
  7  9  1  0  0  0  0
 25 26  1  0  0  0  0
 25 27  1  0  0  0  0
 25 28  1  0  0  0  0
 23 24  1  0  0  0  0
 23 25  1  0  0  0  0
M  END
$$$$
default_name
  -OEChem-01062215323D

 28 27  0     1  0  0  0  0  0999 V2000
   -3.2133   -3.5565    1.2809 H   0  0  0  0  0  0  0  0  0  0  0  0
   -3.1873   -2.5755    0.8089 C   0  0  0  0  0  0  0  0  0  0  0  0
   -3.8793   -1.9065    1.3169 H   0  0  0  0  0  0  0  0  0  0  0  0
   -3.4623   -2.6685   -0.2401 H   0  0  0  0  0  0  0  0  0  0  0  0
   -1.7863   -2.0195    0.9119 C   0  0  0  0  0  0  0  0  0  0  0  0
   -0.9073   -2.6615    1.4699 O   0  0  0  0  0  0  0  0  0  0  0  0
   -1.5803   -0.8195    0.3749 N   0  0  0  0  0  0  0  0  0  0  0  0
   -2.3603   -0.3345   -0.0451 H   0  0  0  0  0  0  0  0  0  0  0  0
   -0.2933   -0.1205    0.3719 C   0  0  1  0  0  0  0  0  0  0  0  0
    0.2545   -0.3937    1.2749 H   0  0  0  0  0  0  0  0  0  0  0  0
    0.5255   -0.5811   -0.8513 C   0  0  0  0  0  0  0  0  0  0  0  0
   -0.0860   -0.4346   -1.7433 H   0  0  0  0  0  0  0  0  0  0  0  0
    1.4157    0.0427   -0.9441 H   0  0  0  0  0  0  0  0  0  0  0  0
    0.9653   -2.0540   -0.7884 C   0  0  0  0  0  0  0  0  0  0  0  0
    1.5949   -2.2164    0.0865 H   0  0  0  0  0  0  0  0  0  0  0  0
    0.0826   -2.6882   -0.7150 H   0  0  0  0  0  0  0  0  0  0  0  0
    1.7504   -2.4764   -2.0259 C   0  0  0  0  0  0  0  0  0  0  0  0
    1.9099   -1.7897   -3.0223 O   0  0  0  0  0  0  0  0  0  0  0  0
    2.2827   -3.7119   -1.9812 O   0  0  0  0  0  0  0  0  0  0  0  0
    2.7242   -3.8259   -2.8247 H   0  0  0  0  0  0  0  0  0  0  0  0
   -0.5124    1.4007    0.3897 C   0  0  0  0  0  0  0  0  0  0  0  0
   -0.8708    1.9827   -0.6323 O   0  0  0  0  0  0  0  0  0  0  0  0
   -0.2862    2.0409    1.5433 N   0  0  0  0  0  0  0  0  0  0  0  0
   -0.0160    1.4929    2.3464 H   0  0  0  0  0  0  0  0  0  0  0  0
   -0.4283    3.4850    1.7171 C   0  0  0  0  0  0  0  0  0  0  0  0
   -1.4411    3.7914    1.4493 H   0  0  0  0  0  0  0  0  0  0  0  0
   -0.2318    3.7631    2.7535 H   0  0  0  0  0  0  0  0  0  0  0  0
    0.2752    4.0058    1.0645 H   0  0  0  0  0  0  0  0  0  0  0  0
  5  6  2  0  0  0  0
  5  7  1  0  0  0  0
  2  3  1  0  0  0  0
  2  4  1  0  0  0  0
  2  5  1  0  0  0  0
  1  2  1  0  0  0  0
 21 22  2  0  0  0  0
 21 23  1  0  0  0  0
 19 20  1  0  0  0  0
 17 18  2  0  0  0  0
 17 19  1  0  0  0  0
 14 15  1  0  0  0  0
 14 16  1  0  0  0  0
 14 17  1  0  0  0  0
 11 12  1  0  0  0  0
 11 13  1  0  0  0  0
 11 14  1  0  0  0  0
  9 10  1  0  0  0  0
  9 11  1  0  0  0  0
  9 21  1  0  0  0  0
  7  8  1  0  0  0  0
  7  9  1  0  0  0  0
 25 26  1  0  0  0  0
 25 27  1  0  0  0  0
 25 28  1  0  0  0  0
 23 24  1  0  0  0  0
 23 25  1  0  0  0  0
M  END
$$$$
default_name
  -OEChem-01062215323D

 28 27  0     1  0  0  0  0  0999 V2000
   -3.2133   -3.5565    1.2809 H   0  0  0  0  0  0  0  0  0  0  0  0
   -3.1873   -2.5755    0.8089 C   0  0  0  0  0  0  0  0  0  0  0  0
   -3.8793   -1.9065    1.3169 H   0  0  0  0  0  0  0  0  0  0  0  0
   -3.4623   -2.6685   -0.2401 H   0  0  0  0  0  0  0  0  0  0  0  0
   -1.7863   -2.0195    0.9119 C   0  0  0  0  0  0  0  0  0  0  0  0
   -0.9073   -2.6615    1.4699 O   0  0  0  0  0  0  0  0  0  0  0  0
   -1.5803   -0.8195    0.3749 N   0  0  0  0  0  0  0  0  0  0  0  0
   -2.3603   -0.3345   -0.0451 H   0  0  0  0  0  0  0  0  0  0  0  0
   -0.2933   -0.1205    0.3719 C   0  0  1  0  0  0  0  0  0  0  0  0
    0.2545   -0.3937    1.2749 H   0  0  0  0  0  0  0  0  0  0  0  0
    0.5255   -0.5811   -0.8513 C   0  0  0  0  0  0  0  0  0  0  0  0
   -0.0860   -0.4346   -1.7433 H   0  0  0  0  0  0  0  0  0  0  0  0
    1.4157    0.0427   -0.9441 H   0  0  0  0  0  0  0  0  0  0  0  0
    0.9653   -2.0540   -0.7884 C   0  0  0  0  0  0  0  0  0  0  0  0
    1.5949   -2.2164    0.0865 H   0  0  0  0  0  0  0  0  0  0  0  0
    0.0826   -2.6882   -0.7150 H   0  0  0  0  0  0  0  0  0  0  0  0
    1.7504   -2.4764   -2.0259 C   0  0  0  0  0  0  0  0  0  0  0  0
    1.9099   -1.7897   -3.0223 O   0  0  0  0  0  0  0  0  0  0  0  0
    2.2827   -3.7119   -1.9812 O   0  0  0  0  0  0  0  0  0  0  0  0
    2.7242   -3.8259   -2.8247 H   0  0  0  0  0  0  0  0  0  0  0  0
   -0.5124    1.4007    0.3897 C   0  0  0  0  0  0  0  0  0  0  0  0
   -1.1252    1.9448   -0.5269 O   0  0  0  0  0  0  0  0  0  0  0  0
   -0.0034    2.0830    1.4227 N   0  0  0  0  0  0  0  0  0  0  0  0
    0.4678    1.5649    2.1491 H   0  0  0  0  0  0  0  0  0  0  0  0
   -0.1074    3.5329    1.5742 C   0  0  0  0  0  0  0  0  0  0  0  0
   -1.1574    3.8310    1.5639 H   0  0  0  0  0  0  0  0  0  0  0  0
    0.3458    3.8491    2.5148 H   0  0  0  0  0  0  0  0  0  0  0  0
    0.4013    4.0277    0.7446 H   0  0  0  0  0  0  0  0  0  0  0  0
  5  6  2  0  0  0  0
  5  7  1  0  0  0  0
  2  3  1  0  0  0  0
  2  4  1  0  0  0  0
  2  5  1  0  0  0  0
  1  2  1  0  0  0  0
 21 22  2  0  0  0  0
 21 23  1  0  0  0  0
 19 20  1  0  0  0  0
 17 18  2  0  0  0  0
 17 19  1  0  0  0  0
 14 15  1  0  0  0  0
 14 16  1  0  0  0  0
 14 17  1  0  0  0  0
 11 12  1  0  0  0  0
 11 13  1  0  0  0  0
 11 14  1  0  0  0  0
  9 10  1  0  0  0  0
  9 11  1  0  0  0  0
  9 21  1  0  0  0  0
  7  8  1  0  0  0  0
  7  9  1  0  0  0  0
 25 26  1  0  0  0  0
 25 27  1  0  0  0  0
 25 28  1  0  0  0  0
 23 24  1  0  0  0  0
 23 25  1  0  0  0  0
M  END
$$$$
default_name
  -OEChem-01062215323D

 28 27  0     1  0  0  0  0  0999 V2000
   -3.2133   -3.5565    1.2809 H   0  0  0  0  0  0  0  0  0  0  0  0
   -3.1873   -2.5755    0.8089 C   0  0  0  0  0  0  0  0  0  0  0  0
   -3.8793   -1.9065    1.3169 H   0  0  0  0  0  0  0  0  0  0  0  0
   -3.4623   -2.6685   -0.2401 H   0  0  0  0  0  0  0  0  0  0  0  0
   -1.7863   -2.0195    0.9119 C   0  0  0  0  0  0  0  0  0  0  0  0
   -0.9073   -2.6615    1.4699 O   0  0  0  0  0  0  0  0  0  0  0  0
   -1.5803   -0.8195    0.3749 N   0  0  0  0  0  0  0  0  0  0  0  0
   -2.3603   -0.3345   -0.0451 H   0  0  0  0  0  0  0  0  0  0  0  0
   -0.2933   -0.1205    0.3719 C   0  0  1  0  0  0  0  0  0  0  0  0
    0.2545   -0.3937    1.2749 H   0  0  0  0  0  0  0  0  0  0  0  0
    0.5255   -0.5811   -0.8513 C   0  0  0  0  0  0  0  0  0  0  0  0
   -0.0860   -0.4346   -1.7433 H   0  0  0  0  0  0  0  0  0  0  0  0
    1.4157    0.0427   -0.9441 H   0  0  0  0  0  0  0  0  0  0  0  0
    0.9653   -2.0540   -0.7884 C   0  0  0  0  0  0  0  0  0  0  0  0
    1.5949   -2.2164    0.0865 H   0  0  0  0  0  0  0  0  0  0  0  0
    0.0826   -2.6882   -0.7150 H   0  0  0  0  0  0  0  0  0  0  0  0
    1.7504   -2.4764   -2.0259 C   0  0  0  0  0  0  0  0  0  0  0  0
    1.9099   -1.7897   -3.0223 O   0  0  0  0  0  0  0  0  0  0  0  0
    2.2827   -3.7119   -1.9812 O   0  0  0  0  0  0  0  0  0  0  0  0
    2.7242   -3.8259   -2.8247 H   0  0  0  0  0  0  0  0  0  0  0  0
   -0.5124    1.4007    0.3897 C   0  0  0  0  0  0  0  0  0  0  0  0
   -1.3437    1.9114   -0.3586 O   0  0  0  0  0  0  0  0  0  0  0  0
    0.2389    2.1202    1.2321 N   0  0  0  0  0  0  0  0  0  0  0  0
    0.8844    1.6287    1.8320 H   0  0  0  0  0  0  0  0  0  0  0  0
    0.1658    3.5749    1.3523 C   0  0  0  0  0  0  0  0  0  0  0  0
   -0.8541    3.8742    1.6004 H   0  0  0  0  0  0  0  0  0  0  0  0
    0.8422    3.9251    2.1332 H   0  0  0  0  0  0  0  0  0  0  0  0
    0.4412    4.0374    0.4024 H   0  0  0  0  0  0  0  0  0  0  0  0
  5  6  2  0  0  0  0
  5  7  1  0  0  0  0
  2  3  1  0  0  0  0
  2  4  1  0  0  0  0
  2  5  1  0  0  0  0
  1  2  1  0  0  0  0
 21 22  2  0  0  0  0
 21 23  1  0  0  0  0
 19 20  1  0  0  0  0
 17 18  2  0  0  0  0
 17 19  1  0  0  0  0
 14 15  1  0  0  0  0
 14 16  1  0  0  0  0
 14 17  1  0  0  0  0
 11 12  1  0  0  0  0
 11 13  1  0  0  0  0
 11 14  1  0  0  0  0
  9 10  1  0  0  0  0
  9 11  1  0  0  0  0
  9 21  1  0  0  0  0
  7  8  1  0  0  0  0
  7  9  1  0  0  0  0
 25 26  1  0  0  0  0
 25 27  1  0  0  0  0
 25 28  1  0  0  0  0
 23 24  1  0  0  0  0
 23 25  1  0  0  0  0
M  END
$$$$
default_name
  -OEChem-01062215323D

 28 27  0     1  0  0  0  0  0999 V2000
   -3.2133   -3.5565    1.2809 H   0  0  0  0  0  0  0  0  0  0  0  0
   -3.1873   -2.5755    0.8089 C   0  0  0  0  0  0  0  0  0  0  0  0
   -3.8793   -1.9065    1.3169 H   0  0  0  0  0  0  0  0  0  0  0  0
   -3.4623   -2.6685   -0.2401 H   0  0  0  0  0  0  0  0  0  0  0  0
   -1.7863   -2.0195    0.9119 C   0  0  0  0  0  0  0  0  0  0  0  0
   -0.9073   -2.6615    1.4699 O   0  0  0  0  0  0  0  0  0  0  0  0
   -1.5803   -0.8195    0.3749 N   0  0  0  0  0  0  0  0  0  0  0  0
   -2.3603   -0.3345   -0.0451 H   0  0  0  0  0  0  0  0  0  0  0  0
   -0.2933   -0.1205    0.3719 C   0  0  1  0  0  0  0  0  0  0  0  0
    0.2545   -0.3937    1.2749 H   0  0  0  0  0  0  0  0  0  0  0  0
    0.5255   -0.5811   -0.8513 C   0  0  0  0  0  0  0  0  0  0  0  0
   -0.0860   -0.4346   -1.7433 H   0  0  0  0  0  0  0  0  0  0  0  0
    1.4157    0.0427   -0.9441 H   0  0  0  0  0  0  0  0  0  0  0  0
    0.9653   -2.0540   -0.7884 C   0  0  0  0  0  0  0  0  0  0  0  0
    1.5949   -2.2164    0.0865 H   0  0  0  0  0  0  0  0  0  0  0  0
    0.0826   -2.6882   -0.7150 H   0  0  0  0  0  0  0  0  0  0  0  0
    1.7504   -2.4764   -2.0259 C   0  0  0  0  0  0  0  0  0  0  0  0
    1.9099   -1.7897   -3.0223 O   0  0  0  0  0  0  0  0  0  0  0  0
    2.2827   -3.7119   -1.9812 O   0  0  0  0  0  0  0  0  0  0  0  0
    2.7242   -3.8259   -2.8247 H   0  0  0  0  0  0  0  0  0  0  0  0
   -0.5124    1.4007    0.3897 C   0  0  0  0  0  0  0  0  0  0  0  0
   -1.5116    1.8846   -0.1387 O   0  0  0  0  0  0  0  0  0  0  0  0
    0.4239    2.1497    0.9847 N   0  0  0  0  0  0  0  0  0  0  0  0
    1.2054    1.6798    1.4167 H   0  0  0  0  0  0  0  0  0  0  0  0
    0.3727    3.6080    1.0663 C   0  0  0  0  0  0  0  0  0  0  0  0
   -0.5520    3.9183    1.5564 H   0  0  0  0  0  0  0  0  0  0  0  0
    1.2238    3.9859    1.6345 H   0  0  0  0  0  0  0  0  0  0  0  0
    0.3920    4.0343    0.0614 H   0  0  0  0  0  0  0  0  0  0  0  0
  5  6  2  0  0  0  0
  5  7  1  0  0  0  0
  2  3  1  0  0  0  0
  2  4  1  0  0  0  0
  2  5  1  0  0  0  0
  1  2  1  0  0  0  0
 21 22  2  0  0  0  0
 21 23  1  0  0  0  0
 19 20  1  0  0  0  0
 17 18  2  0  0  0  0
 17 19  1  0  0  0  0
 14 15  1  0  0  0  0
 14 16  1  0  0  0  0
 14 17  1  0  0  0  0
 11 12  1  0  0  0  0
 11 13  1  0  0  0  0
 11 14  1  0  0  0  0
  9 10  1  0  0  0  0
  9 11  1  0  0  0  0
  9 21  1  0  0  0  0
  7  8  1  0  0  0  0
  7  9  1  0  0  0  0
 25 26  1  0  0  0  0
 25 27  1  0  0  0  0
 25 28  1  0  0  0  0
 23 24  1  0  0  0  0
 23 25  1  0  0  0  0
M  END
$$$$
default_name
  -OEChem-01062215323D

 28 27  0     1  0  0  0  0  0999 V2000
   -3.2133   -3.5565    1.2809 H   0  0  0  0  0  0  0  0  0  0  0  0
   -3.1873   -2.5755    0.8089 C   0  0  0  0  0  0  0  0  0  0  0  0
   -3.8793   -1.9065    1.3169 H   0  0  0  0  0  0  0  0  0  0  0  0
   -3.4623   -2.6685   -0.2401 H   0  0  0  0  0  0  0  0  0  0  0  0
   -1.7863   -2.0195    0.9119 C   0  0  0  0  0  0  0  0  0  0  0  0
   -0.9073   -2.6615    1.4699 O   0  0  0  0  0  0  0  0  0  0  0  0
   -1.5803   -0.8195    0.3749 N   0  0  0  0  0  0  0  0  0  0  0  0
   -2.3603   -0.3345   -0.0451 H   0  0  0  0  0  0  0  0  0  0  0  0
   -0.2933   -0.1205    0.3719 C   0  0  1  0  0  0  0  0  0  0  0  0
    0.2545   -0.3937    1.2749 H   0  0  0  0  0  0  0  0  0  0  0  0
    0.5255   -0.5811   -0.8513 C   0  0  0  0  0  0  0  0  0  0  0  0
   -0.0860   -0.4346   -1.7433 H   0  0  0  0  0  0  0  0  0  0  0  0
    1.4157    0.0427   -0.9441 H   0  0  0  0  0  0  0  0  0  0  0  0
    0.9653   -2.0540   -0.7884 C   0  0  0  0  0  0  0  0  0  0  0  0
    1.5949   -2.2164    0.0865 H   0  0  0  0  0  0  0  0  0  0  0  0
    0.0826   -2.6882   -0.7150 H   0  0  0  0  0  0  0  0  0  0  0  0
    1.7504   -2.4764   -2.0259 C   0  0  0  0  0  0  0  0  0  0  0  0
    1.9099   -1.7897   -3.0223 O   0  0  0  0  0  0  0  0  0  0  0  0
    2.2827   -3.7119   -1.9812 O   0  0  0  0  0  0  0  0  0  0  0  0
    2.7242   -3.8259   -2.8247 H   0  0  0  0  0  0  0  0  0  0  0  0
   -0.5124    1.4007    0.3897 C   0  0  0  0  0  0  0  0  0  0  0  0
   -1.6174    1.8664    0.1176 O   0  0  0  0  0  0  0  0  0  0  0  0
    0.5391    2.1697    0.6971 N   0  0  0  0  0  0  0  0  0  0  0  0
    1.4088    1.7148    0.9314 H   0  0  0  0  0  0  0  0  0  0  0  0
    0.4991    3.6301    0.7359 C   0  0  0  0  0  0  0  0  0  0  0  0
   -0.2716    3.9601    1.4349 H   0  0  0  0  0  0  0  0  0  0  0  0
    1.4644    4.0274    1.0529 H   0  0  0  0  0  0  0  0  0  0  0  0
    0.2572    4.0186   -0.2553 H   0  0  0  0  0  0  0  0  0  0  0  0
  5  6  2  0  0  0  0
  5  7  1  0  0  0  0
  2  3  1  0  0  0  0
  2  4  1  0  0  0  0
  2  5  1  0  0  0  0
  1  2  1  0  0  0  0
 21 22  2  0  0  0  0
 21 23  1  0  0  0  0
 19 20  1  0  0  0  0
 17 18  2  0  0  0  0
 17 19  1  0  0  0  0
 14 15  1  0  0  0  0
 14 16  1  0  0  0  0
 14 17  1  0  0  0  0
 11 12  1  0  0  0  0
 11 13  1  0  0  0  0
 11 14  1  0  0  0  0
  9 10  1  0  0  0  0
  9 11  1  0  0  0  0
  9 21  1  0  0  0  0
  7  8  1  0  0  0  0
  7  9  1  0  0  0  0
 25 26  1  0  0  0  0
 25 27  1  0  0  0  0
 25 28  1  0  0  0  0
 23 24  1  0  0  0  0
 23 25  1  0  0  0  0
M  END
$$$$
default_name
  -OEChem-01062215323D

 28 27  0     1  0  0  0  0  0999 V2000
   -3.2133   -3.5565    1.2809 H   0  0  0  0  0  0  0  0  0  0  0  0
   -3.1873   -2.5755    0.8089 C   0  0  0  0  0  0  0  0  0  0  0  0
   -3.8793   -1.9065    1.3169 H   0  0  0  0  0  0  0  0  0  0  0  0
   -3.4623   -2.6685   -0.2401 H   0  0  0  0  0  0  0  0  0  0  0  0
   -1.7863   -2.0195    0.9119 C   0  0  0  0  0  0  0  0  0  0  0  0
   -0.9073   -2.6615    1.4699 O   0  0  0  0  0  0  0  0  0  0  0  0
   -1.5803   -0.8195    0.3749 N   0  0  0  0  0  0  0  0  0  0  0  0
   -2.3603   -0.3345   -0.0451 H   0  0  0  0  0  0  0  0  0  0  0  0
   -0.2933   -0.1205    0.3719 C   0  0  1  0  0  0  0  0  0  0  0  0
    0.3577   -0.5843    1.1143 H   0  0  0  0  0  0  0  0  0  0  0  0
    0.3613   -0.2794   -1.0156 C   0  0  0  0  0  0  0  0  0  0  0  0
   -0.3534    0.0577   -1.7683 H   0  0  0  0  0  0  0  0  0  0  0  0
    1.2424    0.3613   -1.0733 H   0  0  0  0  0  0  0  0  0  0  0  0
    0.7836   -1.7219   -1.3441 C   0  0  0  0  0  0  0  0  0  0  0  0
    1.5140   -2.0704   -0.6137 H   0  0  0  0  0  0  0  0  0  0  0  0
   -0.0926   -2.3682   -1.3084 H   0  0  0  0  0  0  0  0  0  0  0  0
    1.4036   -1.8408   -2.7326 C   0  0  0  0  0  0  0  0  0  0  0  0
    1.4490   -0.9433   -3.5585 O   0  0  0  0  0  0  0  0  0  0  0  0
    1.9189   -3.0466   -3.0361 O   0  0  0  0  0  0  0  0  0  0  0  0
    2.2511   -2.9597   -3.9313 H   0  0  0  0  0  0  0  0  0  0  0  0
   -0.4860    1.3537    0.7622 C   0  0  0  0  0  0  0  0  0  0  0  0
   -1.6113    1.7823    1.0103 O   0  0  0  0  0  0  0  0  0  0  0  0
    0.6062    2.1263    0.8039 N   0  0  0  0  0  0  0  0  0  0  0  0
    1.4992    1.6985    0.6098 H   0  0  0  0  0  0  0  0  0  0  0  0
    0.5873    3.5495    1.1356 C   0  0  0  0  0  0  0  0  0  0  0  0
    0.1348    3.6937    2.1184 H   0  0  0  0  0  0  0  0  0  0  0  0
    1.6021    3.9497    1.1461 H   0  0  0  0  0  0  0  0  0  0  0  0
   -0.0067    4.0921    0.3976 H   0  0  0  0  0  0  0  0  0  0  0  0
  5  6  2  0  0  0  0
  5  7  1  0  0  0  0
  2  3  1  0  0  0  0
  2  4  1  0  0  0  0
  2  5  1  0  0  0  0
  1  2  1  0  0  0  0
 21 22  2  0  0  0  0
 21 23  1  0  0  0  0
 19 20  1  0  0  0  0
 17 18  2  0  0  0  0
 17 19  1  0  0  0  0
 14 15  1  0  0  0  0
 14 16  1  0  0  0  0
 14 17  1  0  0  0  0
 11 12  1  0  0  0  0
 11 13  1  0  0  0  0
 11 14  1  0  0  0  0
  9 10  1  0  0  0  0
  9 11  1  0  0  0  0
  9 21  1  0  0  0  0
  7  8  1  0  0  0  0
  7  9  1  0  0  0  0
 25 26  1  0  0  0  0
 25 27  1  0  0  0  0
 25 28  1  0  0  0  0
 23 24  1  0  0  0  0
 23 25  1  0  0  0  0
M  END
$$$$
default_name
  -OEChem-01062215323D

 28 27  0     1  0  0  0  0  0999 V2000
   -3.2133   -3.5565    1.2809 H   0  0  0  0  0  0  0  0  0  0  0  0
   -3.1873   -2.5755    0.8089 C   0  0  0  0  0  0  0  0  0  0  0  0
   -3.8793   -1.9065    1.3169 H   0  0  0  0  0  0  0  0  0  0  0  0
   -3.4623   -2.6685   -0.2401 H   0  0  0  0  0  0  0  0  0  0  0  0
   -1.7863   -2.0195    0.9119 C   0  0  0  0  0  0  0  0  0  0  0  0
   -0.9073   -2.6615    1.4699 O   0  0  0  0  0  0  0  0  0  0  0  0
   -1.5803   -0.8195    0.3749 N   0  0  0  0  0  0  0  0  0  0  0  0
   -2.3603   -0.3345   -0.0451 H   0  0  0  0  0  0  0  0  0  0  0  0
   -0.2933   -0.1205    0.3719 C   0  0  1  0  0  0  0  0  0  0  0  0
    0.3577   -0.5843    1.1143 H   0  0  0  0  0  0  0  0  0  0  0  0
    0.3613   -0.2794   -1.0156 C   0  0  0  0  0  0  0  0  0  0  0  0
   -0.3534    0.0577   -1.7683 H   0  0  0  0  0  0  0  0  0  0  0  0
    1.2424    0.3613   -1.0733 H   0  0  0  0  0  0  0  0  0  0  0  0
    0.7836   -1.7219   -1.3441 C   0  0  0  0  0  0  0  0  0  0  0  0
    1.5140   -2.0704   -0.6137 H   0  0  0  0  0  0  0  0  0  0  0  0
   -0.0926   -2.3682   -1.3084 H   0  0  0  0  0  0  0  0  0  0  0  0
    1.4036   -1.8408   -2.7326 C   0  0  0  0  0  0  0  0  0  0  0  0
    1.4490   -0.9433   -3.5585 O   0  0  0  0  0  0  0  0  0  0  0  0
    1.9189   -3.0466   -3.0361 O   0  0  0  0  0  0  0  0  0  0  0  0
    2.2511   -2.9597   -3.9313 H   0  0  0  0  0  0  0  0  0  0  0  0
   -0.4860    1.3537    0.7622 C   0  0  0  0  0  0  0  0  0  0  0  0
   -1.5422    1.7219    1.2726 O   0  0  0  0  0  0  0  0  0  0  0  0
    0.5260    2.1931    0.5116 N   0  0  0  0  0  0  0  0  0  0  0  0
    1.3709    1.8136    0.1114 H   0  0  0  0  0  0  0  0  0  0  0  0
    0.4904    3.6248    0.8031 C   0  0  0  0  0  0  0  0  0  0  0  0
    0.2858    3.7808    1.8639 H   0  0  0  0  0  0  0  0  0  0  0  0
    1.4458    4.0869    0.5505 H   0  0  0  0  0  0  0  0  0  0  0  0
   -0.3040    4.0993    0.2236 H   0  0  0  0  0  0  0  0  0  0  0  0
  5  6  2  0  0  0  0
  5  7  1  0  0  0  0
  2  3  1  0  0  0  0
  2  4  1  0  0  0  0
  2  5  1  0  0  0  0
  1  2  1  0  0  0  0
 21 22  2  0  0  0  0
 21 23  1  0  0  0  0
 19 20  1  0  0  0  0
 17 18  2  0  0  0  0
 17 19  1  0  0  0  0
 14 15  1  0  0  0  0
 14 16  1  0  0  0  0
 14 17  1  0  0  0  0
 11 12  1  0  0  0  0
 11 13  1  0  0  0  0
 11 14  1  0  0  0  0
  9 10  1  0  0  0  0
  9 11  1  0  0  0  0
  9 21  1  0  0  0  0
  7  8  1  0  0  0  0
  7  9  1  0  0  0  0
 25 26  1  0  0  0  0
 25 27  1  0  0  0  0
 25 28  1  0  0  0  0
 23 24  1  0  0  0  0
 23 25  1  0  0  0  0
M  END
$$$$
default_name
  -OEChem-01062215323D

 28 27  0     1  0  0  0  0  0999 V2000
   -3.2133   -3.5565    1.2809 H   0  0  0  0  0  0  0  0  0  0  0  0
   -3.1873   -2.5755    0.8089 C   0  0  0  0  0  0  0  0  0  0  0  0
   -3.8793   -1.9065    1.3169 H   0  0  0  0  0  0  0  0  0  0  0  0
   -3.4623   -2.6685   -0.2401 H   0  0  0  0  0  0  0  0  0  0  0  0
   -1.7863   -2.0195    0.9119 C   0  0  0  0  0  0  0  0  0  0  0  0
   -0.9073   -2.6615    1.4699 O   0  0  0  0  0  0  0  0  0  0  0  0
   -1.5803   -0.8195    0.3749 N   0  0  0  0  0  0  0  0  0  0  0  0
   -2.3603   -0.3345   -0.0451 H   0  0  0  0  0  0  0  0  0  0  0  0
   -0.2933   -0.1205    0.3719 C   0  0  1  0  0  0  0  0  0  0  0  0
    0.3577   -0.5843    1.1143 H   0  0  0  0  0  0  0  0  0  0  0  0
    0.3613   -0.2794   -1.0156 C   0  0  0  0  0  0  0  0  0  0  0  0
   -0.3534    0.0577   -1.7683 H   0  0  0  0  0  0  0  0  0  0  0  0
    1.2424    0.3613   -1.0733 H   0  0  0  0  0  0  0  0  0  0  0  0
    0.7836   -1.7219   -1.3441 C   0  0  0  0  0  0  0  0  0  0  0  0
    1.5140   -2.0704   -0.6137 H   0  0  0  0  0  0  0  0  0  0  0  0
   -0.0926   -2.3682   -1.3084 H   0  0  0  0  0  0  0  0  0  0  0  0
    1.4036   -1.8408   -2.7326 C   0  0  0  0  0  0  0  0  0  0  0  0
    1.4490   -0.9433   -3.5585 O   0  0  0  0  0  0  0  0  0  0  0  0
    1.9189   -3.0466   -3.0361 O   0  0  0  0  0  0  0  0  0  0  0  0
    2.2511   -2.9597   -3.9313 H   0  0  0  0  0  0  0  0  0  0  0  0
   -0.4860    1.3537    0.7622 C   0  0  0  0  0  0  0  0  0  0  0  0
   -1.4063    1.6767    1.5107 O   0  0  0  0  0  0  0  0  0  0  0  0
    0.3715    2.2430    0.2470 N   0  0  0  0  0  0  0  0  0  0  0  0
    1.1157    1.9003   -0.3420 H   0  0  0  0  0  0  0  0  0  0  0  0
    0.3092    3.6804    0.5035 C   0  0  0  0  0  0  0  0  0  0  0  0
    0.3627    3.8666    1.5777 H   0  0  0  0  0  0  0  0  0  0  0  0
    1.1379    4.1898    0.0097 H   0  0  0  0  0  0  0  0  0  0  0  0
   -0.6349    4.0811    0.1291 H   0  0  0  0  0  0  0  0  0  0  0  0
  5  6  2  0  0  0  0
  5  7  1  0  0  0  0
  2  3  1  0  0  0  0
  2  4  1  0  0  0  0
  2  5  1  0  0  0  0
  1  2  1  0  0  0  0
 21 22  2  0  0  0  0
 21 23  1  0  0  0  0
 19 20  1  0  0  0  0
 17 18  2  0  0  0  0
 17 19  1  0  0  0  0
 14 15  1  0  0  0  0
 14 16  1  0  0  0  0
 14 17  1  0  0  0  0
 11 12  1  0  0  0  0
 11 13  1  0  0  0  0
 11 14  1  0  0  0  0
  9 10  1  0  0  0  0
  9 11  1  0  0  0  0
  9 21  1  0  0  0  0
  7  8  1  0  0  0  0
  7  9  1  0  0  0  0
 25 26  1  0  0  0  0
 25 27  1  0  0  0  0
 25 28  1  0  0  0  0
 23 24  1  0  0  0  0
 23 25  1  0  0  0  0
M  END
$$$$
default_name
  -OEChem-01062215323D

 28 27  0     1  0  0  0  0  0999 V2000
   -3.2133   -3.5565    1.2809 H   0  0  0  0  0  0  0  0  0  0  0  0
   -3.1873   -2.5755    0.8089 C   0  0  0  0  0  0  0  0  0  0  0  0
   -3.8793   -1.9065    1.3169 H   0  0  0  0  0  0  0  0  0  0  0  0
   -3.4623   -2.6685   -0.2401 H   0  0  0  0  0  0  0  0  0  0  0  0
   -1.7863   -2.0195    0.9119 C   0  0  0  0  0  0  0  0  0  0  0  0
   -0.9073   -2.6615    1.4699 O   0  0  0  0  0  0  0  0  0  0  0  0
   -1.5803   -0.8195    0.3749 N   0  0  0  0  0  0  0  0  0  0  0  0
   -2.3603   -0.3345   -0.0451 H   0  0  0  0  0  0  0  0  0  0  0  0
   -0.2933   -0.1205    0.3719 C   0  0  1  0  0  0  0  0  0  0  0  0
    0.3577   -0.5843    1.1143 H   0  0  0  0  0  0  0  0  0  0  0  0
    0.3613   -0.2794   -1.0156 C   0  0  0  0  0  0  0  0  0  0  0  0
   -0.3534    0.0577   -1.7683 H   0  0  0  0  0  0  0  0  0  0  0  0
    1.2424    0.3613   -1.0733 H   0  0  0  0  0  0  0  0  0  0  0  0
    0.7836   -1.7219   -1.3441 C   0  0  0  0  0  0  0  0  0  0  0  0
    1.5140   -2.0704   -0.6137 H   0  0  0  0  0  0  0  0  0  0  0  0
   -0.0926   -2.3682   -1.3084 H   0  0  0  0  0  0  0  0  0  0  0  0
    1.4036   -1.8408   -2.7326 C   0  0  0  0  0  0  0  0  0  0  0  0
    1.4490   -0.9433   -3.5585 O   0  0  0  0  0  0  0  0  0  0  0  0
    1.9189   -3.0466   -3.0361 O   0  0  0  0  0  0  0  0  0  0  0  0
    2.2511   -2.9597   -3.9313 H   0  0  0  0  0  0  0  0  0  0  0  0
   -0.4860    1.3537    0.7622 C   0  0  0  0  0  0  0  0  0  0  0  0
   -1.2130    1.6496    1.7085 O   0  0  0  0  0  0  0  0  0  0  0  0
    0.1534    2.2724    0.0282 N   0  0  0  0  0  0  0  0  0  0  0  0
    0.7510    1.9525   -0.7193 H   0  0  0  0  0  0  0  0  0  0  0  0
    0.0562    3.7125    0.2573 C   0  0  0  0  0  0  0  0  0  0  0  0
    0.3604    3.9453    1.2794 H   0  0  0  0  0  0  0  0  0  0  0  0
    0.6995    4.2515   -0.4397 H   0  0  0  0  0  0  0  0  0  0  0  0
   -0.9767    4.0387    0.1205 H   0  0  0  0  0  0  0  0  0  0  0  0
  5  6  2  0  0  0  0
  5  7  1  0  0  0  0
  2  3  1  0  0  0  0
  2  4  1  0  0  0  0
  2  5  1  0  0  0  0
  1  2  1  0  0  0  0
 21 22  2  0  0  0  0
 21 23  1  0  0  0  0
 19 20  1  0  0  0  0
 17 18  2  0  0  0  0
 17 19  1  0  0  0  0
 14 15  1  0  0  0  0
 14 16  1  0  0  0  0
 14 17  1  0  0  0  0
 11 12  1  0  0  0  0
 11 13  1  0  0  0  0
 11 14  1  0  0  0  0
  9 10  1  0  0  0  0
  9 11  1  0  0  0  0
  9 21  1  0  0  0  0
  7  8  1  0  0  0  0
  7  9  1  0  0  0  0
 25 26  1  0  0  0  0
 25 27  1  0  0  0  0
 25 28  1  0  0  0  0
 23 24  1  0  0  0  0
 23 25  1  0  0  0  0
M  END
$$$$
default_name
  -OEChem-01062215323D

 28 27  0     1  0  0  0  0  0999 V2000
   -3.2133   -3.5565    1.2809 H   0  0  0  0  0  0  0  0  0  0  0  0
   -3.1873   -2.5755    0.8089 C   0  0  0  0  0  0  0  0  0  0  0  0
   -3.8793   -1.9065    1.3169 H   0  0  0  0  0  0  0  0  0  0  0  0
   -3.4623   -2.6685   -0.2401 H   0  0  0  0  0  0  0  0  0  0  0  0
   -1.7863   -2.0195    0.9119 C   0  0  0  0  0  0  0  0  0  0  0  0
   -0.9073   -2.6615    1.4699 O   0  0  0  0  0  0  0  0  0  0  0  0
   -1.5803   -0.8195    0.3749 N   0  0  0  0  0  0  0  0  0  0  0  0
   -2.3603   -0.3345   -0.0451 H   0  0  0  0  0  0  0  0  0  0  0  0
   -0.2933   -0.1205    0.3719 C   0  0  1  0  0  0  0  0  0  0  0  0
    0.3577   -0.5843    1.1143 H   0  0  0  0  0  0  0  0  0  0  0  0
    0.3613   -0.2794   -1.0156 C   0  0  0  0  0  0  0  0  0  0  0  0
   -0.3534    0.0577   -1.7683 H   0  0  0  0  0  0  0  0  0  0  0  0
    1.2424    0.3613   -1.0733 H   0  0  0  0  0  0  0  0  0  0  0  0
    0.7836   -1.7219   -1.3441 C   0  0  0  0  0  0  0  0  0  0  0  0
    1.5140   -2.0704   -0.6137 H   0  0  0  0  0  0  0  0  0  0  0  0
   -0.0926   -2.3682   -1.3084 H   0  0  0  0  0  0  0  0  0  0  0  0
    1.4036   -1.8408   -2.7326 C   0  0  0  0  0  0  0  0  0  0  0  0
    1.4490   -0.9433   -3.5585 O   0  0  0  0  0  0  0  0  0  0  0  0
    1.9189   -3.0466   -3.0361 O   0  0  0  0  0  0  0  0  0  0  0  0
    2.2511   -2.9597   -3.9313 H   0  0  0  0  0  0  0  0  0  0  0  0
   -0.4860    1.3537    0.7622 C   0  0  0  0  0  0  0  0  0  0  0  0
   -0.9754    1.6425    1.8525 O   0  0  0  0  0  0  0  0  0  0  0  0
   -0.1136    2.2794   -0.1300 N   0  0  0  0  0  0  0  0  0  0  0  0
    0.3015    1.9667   -0.9949 H   0  0  0  0  0  0  0  0  0  0  0  0
   -0.2514    3.7189    0.0813 C   0  0  0  0  0  0  0  0  0  0  0  0
    0.2789    4.0114    0.9893 H   0  0  0  0  0  0  0  0  0  0  0  0
    0.1604    4.2676   -0.7669 H   0  0  0  0  0  0  0  0  0  0  0  0
   -1.3063    3.9749    0.1985 H   0  0  0  0  0  0  0  0  0  0  0  0
  5  6  2  0  0  0  0
  5  7  1  0  0  0  0
  2  3  1  0  0  0  0
  2  4  1  0  0  0  0
  2  5  1  0  0  0  0
  1  2  1  0  0  0  0
 21 22  2  0  0  0  0
 21 23  1  0  0  0  0
 19 20  1  0  0  0  0
 17 18  2  0  0  0  0
 17 19  1  0  0  0  0
 14 15  1  0  0  0  0
 14 16  1  0  0  0  0
 14 17  1  0  0  0  0
 11 12  1  0  0  0  0
 11 13  1  0  0  0  0
 11 14  1  0  0  0  0
  9 10  1  0  0  0  0
  9 11  1  0  0  0  0
  9 21  1  0  0  0  0
  7  8  1  0  0  0  0
  7  9  1  0  0  0  0
 25 26  1  0  0  0  0
 25 27  1  0  0  0  0
 25 28  1  0  0  0  0
 23 24  1  0  0  0  0
 23 25  1  0  0  0  0
M  END
$$$$
default_name
  -OEChem-01062215323D

 28 27  0     1  0  0  0  0  0999 V2000
   -3.2133   -3.5565    1.2809 H   0  0  0  0  0  0  0  0  0  0  0  0
   -3.1873   -2.5755    0.8089 C   0  0  0  0  0  0  0  0  0  0  0  0
   -3.8793   -1.9065    1.3169 H   0  0  0  0  0  0  0  0  0  0  0  0
   -3.4623   -2.6685   -0.2401 H   0  0  0  0  0  0  0  0  0  0  0  0
   -1.7863   -2.0195    0.9119 C   0  0  0  0  0  0  0  0  0  0  0  0
   -0.9073   -2.6615    1.4699 O   0  0  0  0  0  0  0  0  0  0  0  0
   -1.5803   -0.8195    0.3749 N   0  0  0  0  0  0  0  0  0  0  0  0
   -2.3603   -0.3345   -0.0451 H   0  0  0  0  0  0  0  0  0  0  0  0
   -0.2933   -0.1205    0.3719 C   0  0  1  0  0  0  0  0  0  0  0  0
    0.3577   -0.5843    1.1143 H   0  0  0  0  0  0  0  0  0  0  0  0
    0.3613   -0.2794   -1.0156 C   0  0  0  0  0  0  0  0  0  0  0  0
   -0.3534    0.0577   -1.7683 H   0  0  0  0  0  0  0  0  0  0  0  0
    1.2424    0.3613   -1.0733 H   0  0  0  0  0  0  0  0  0  0  0  0
    0.7836   -1.7219   -1.3441 C   0  0  0  0  0  0  0  0  0  0  0  0
    1.5140   -2.0704   -0.6137 H   0  0  0  0  0  0  0  0  0  0  0  0
   -0.0926   -2.3682   -1.3084 H   0  0  0  0  0  0  0  0  0  0  0  0
    1.4036   -1.8408   -2.7326 C   0  0  0  0  0  0  0  0  0  0  0  0
    1.4490   -0.9433   -3.5585 O   0  0  0  0  0  0  0  0  0  0  0  0
    1.9189   -3.0466   -3.0361 O   0  0  0  0  0  0  0  0  0  0  0  0
    2.2511   -2.9597   -3.9313 H   0  0  0  0  0  0  0  0  0  0  0  0
   -0.4860    1.3537    0.7622 C   0  0  0  0  0  0  0  0  0  0  0  0
   -0.7097    1.6560    1.9327 O   0  0  0  0  0  0  0  0  0  0  0  0
   -0.4112    2.2634   -0.2168 N   0  0  0  0  0  0  0  0  0  0  0  0
   -0.2019    1.9419   -1.1500 H   0  0  0  0  0  0  0  0  0  0  0  0
   -0.5927    3.6992   -0.0126 C   0  0  0  0  0  0  0  0  0  0  0  0
    0.1239    4.0606    0.7272 H   0  0  0  0  0  0  0  0  0  0  0  0
   -0.4426    4.2372   -0.9497 H   0  0  0  0  0  0  0  0  0  0  0  0
   -1.6011    3.8943    0.3577 H   0  0  0  0  0  0  0  0  0  0  0  0
  5  6  2  0  0  0  0
  5  7  1  0  0  0  0
  2  3  1  0  0  0  0
  2  4  1  0  0  0  0
  2  5  1  0  0  0  0
  1  2  1  0  0  0  0
 21 22  2  0  0  0  0
 21 23  1  0  0  0  0
 19 20  1  0  0  0  0
 17 18  2  0  0  0  0
 17 19  1  0  0  0  0
 14 15  1  0  0  0  0
 14 16  1  0  0  0  0
 14 17  1  0  0  0  0
 11 12  1  0  0  0  0
 11 13  1  0  0  0  0
 11 14  1  0  0  0  0
  9 10  1  0  0  0  0
  9 11  1  0  0  0  0
  9 21  1  0  0  0  0
  7  8  1  0  0  0  0
  7  9  1  0  0  0  0
 25 26  1  0  0  0  0
 25 27  1  0  0  0  0
 25 28  1  0  0  0  0
 23 24  1  0  0  0  0
 23 25  1  0  0  0  0
M  END
$$$$
default_name
  -OEChem-01062215323D

 28 27  0     1  0  0  0  0  0999 V2000
   -3.2133   -3.5565    1.2809 H   0  0  0  0  0  0  0  0  0  0  0  0
   -3.1873   -2.5755    0.8089 C   0  0  0  0  0  0  0  0  0  0  0  0
   -3.8793   -1.9065    1.3169 H   0  0  0  0  0  0  0  0  0  0  0  0
   -3.4623   -2.6685   -0.2401 H   0  0  0  0  0  0  0  0  0  0  0  0
   -1.7863   -2.0195    0.9119 C   0  0  0  0  0  0  0  0  0  0  0  0
   -0.9073   -2.6615    1.4699 O   0  0  0  0  0  0  0  0  0  0  0  0
   -1.5803   -0.8195    0.3749 N   0  0  0  0  0  0  0  0  0  0  0  0
   -2.3603   -0.3345   -0.0451 H   0  0  0  0  0  0  0  0  0  0  0  0
   -0.2933   -0.1205    0.3719 C   0  0  1  0  0  0  0  0  0  0  0  0
    0.3577   -0.5843    1.1143 H   0  0  0  0  0  0  0  0  0  0  0  0
    0.3613   -0.2794   -1.0156 C   0  0  0  0  0  0  0  0  0  0  0  0
   -0.3534    0.0577   -1.7683 H   0  0  0  0  0  0  0  0  0  0  0  0
    1.2424    0.3613   -1.0733 H   0  0  0  0  0  0  0  0  0  0  0  0
    0.7836   -1.7219   -1.3441 C   0  0  0  0  0  0  0  0  0  0  0  0
    1.5140   -2.0704   -0.6137 H   0  0  0  0  0  0  0  0  0  0  0  0
   -0.0926   -2.3682   -1.3084 H   0  0  0  0  0  0  0  0  0  0  0  0
    1.4036   -1.8408   -2.7326 C   0  0  0  0  0  0  0  0  0  0  0  0
    1.4490   -0.9433   -3.5585 O   0  0  0  0  0  0  0  0  0  0  0  0
    1.9189   -3.0466   -3.0361 O   0  0  0  0  0  0  0  0  0  0  0  0
    2.2511   -2.9597   -3.9313 H   0  0  0  0  0  0  0  0  0  0  0  0
   -0.4860    1.3537    0.7622 C   0  0  0  0  0  0  0  0  0  0  0  0
   -0.4340    1.6891    1.9439 O   0  0  0  0  0  0  0  0  0  0  0  0
   -0.7192    2.2257   -0.2262 N   0  0  0  0  0  0  0  0  0  0  0  0
   -0.7251    1.8799   -1.1741 H   0  0  0  0  0  0  0  0  0  0  0  0
   -0.9443    3.6546   -0.0180 C   0  0  0  0  0  0  0  0  0  0  0  0
   -0.0942    4.0893    0.5109 H   0  0  0  0  0  0  0  0  0  0  0  0
   -1.0684    4.1622   -0.9756 H   0  0  0  0  0  0  0  0  0  0  0  0
   -1.8410    3.8021    0.5872 H   0  0  0  0  0  0  0  0  0  0  0  0
  5  6  2  0  0  0  0
  5  7  1  0  0  0  0
  2  3  1  0  0  0  0
  2  4  1  0  0  0  0
  2  5  1  0  0  0  0
  1  2  1  0  0  0  0
 21 22  2  0  0  0  0
 21 23  1  0  0  0  0
 19 20  1  0  0  0  0
 17 18  2  0  0  0  0
 17 19  1  0  0  0  0
 14 15  1  0  0  0  0
 14 16  1  0  0  0  0
 14 17  1  0  0  0  0
 11 12  1  0  0  0  0
 11 13  1  0  0  0  0
 11 14  1  0  0  0  0
  9 10  1  0  0  0  0
  9 11  1  0  0  0  0
  9 21  1  0  0  0  0
  7  8  1  0  0  0  0
  7  9  1  0  0  0  0
 25 26  1  0  0  0  0
 25 27  1  0  0  0  0
 25 28  1  0  0  0  0
 23 24  1  0  0  0  0
 23 25  1  0  0  0  0
M  END
$$$$
default_name
  -OEChem-01062215323D

 28 27  0     1  0  0  0  0  0999 V2000
   -3.2133   -3.5565    1.2809 H   0  0  0  0  0  0  0  0  0  0  0  0
   -3.1873   -2.5755    0.8089 C   0  0  0  0  0  0  0  0  0  0  0  0
   -3.8793   -1.9065    1.3169 H   0  0  0  0  0  0  0  0  0  0  0  0
   -3.4623   -2.6685   -0.2401 H   0  0  0  0  0  0  0  0  0  0  0  0
   -1.7863   -2.0195    0.9119 C   0  0  0  0  0  0  0  0  0  0  0  0
   -0.9073   -2.6615    1.4699 O   0  0  0  0  0  0  0  0  0  0  0  0
   -1.5803   -0.8195    0.3749 N   0  0  0  0  0  0  0  0  0  0  0  0
   -2.3603   -0.3345   -0.0451 H   0  0  0  0  0  0  0  0  0  0  0  0
   -0.2933   -0.1205    0.3719 C   0  0  1  0  0  0  0  0  0  0  0  0
    0.3577   -0.5843    1.1143 H   0  0  0  0  0  0  0  0  0  0  0  0
    0.3613   -0.2794   -1.0156 C   0  0  0  0  0  0  0  0  0  0  0  0
   -0.3534    0.0577   -1.7683 H   0  0  0  0  0  0  0  0  0  0  0  0
    1.2424    0.3613   -1.0733 H   0  0  0  0  0  0  0  0  0  0  0  0
    0.7836   -1.7219   -1.3441 C   0  0  0  0  0  0  0  0  0  0  0  0
    1.5140   -2.0704   -0.6137 H   0  0  0  0  0  0  0  0  0  0  0  0
   -0.0926   -2.3682   -1.3084 H   0  0  0  0  0  0  0  0  0  0  0  0
    1.4036   -1.8408   -2.7326 C   0  0  0  0  0  0  0  0  0  0  0  0
    1.4490   -0.9433   -3.5585 O   0  0  0  0  0  0  0  0  0  0  0  0
    1.9189   -3.0466   -3.0361 O   0  0  0  0  0  0  0  0  0  0  0  0
    2.2511   -2.9597   -3.9313 H   0  0  0  0  0  0  0  0  0  0  0  0
   -0.4860    1.3537    0.7622 C   0  0  0  0  0  0  0  0  0  0  0  0
   -0.1671    1.7395    1.8851 O   0  0  0  0  0  0  0  0  0  0  0  0
   -1.0165    2.1687   -0.1576 N   0  0  0  0  0  0  0  0  0  0  0  0
   -1.2323    1.7849   -1.0655 H   0  0  0  0  0  0  0  0  0  0  0  0
   -1.2824    3.5883    0.0656 C   0  0  0  0  0  0  0  0  0  0  0  0
   -0.3604    4.0958    0.3551 H   0  0  0  0  0  0  0  0  0  0  0  0
   -1.6744    4.0479   -0.8428 H   0  0  0  0  0  0  0  0  0  0  0  0
   -2.0097    3.7048    0.8715 H   0  0  0  0  0  0  0  0  0  0  0  0
  5  6  2  0  0  0  0
  5  7  1  0  0  0  0
  2  3  1  0  0  0  0
  2  4  1  0  0  0  0
  2  5  1  0  0  0  0
  1  2  1  0  0  0  0
 21 22  2  0  0  0  0
 21 23  1  0  0  0  0
 19 20  1  0  0  0  0
 17 18  2  0  0  0  0
 17 19  1  0  0  0  0
 14 15  1  0  0  0  0
 14 16  1  0  0  0  0
 14 17  1  0  0  0  0
 11 12  1  0  0  0  0
 11 13  1  0  0  0  0
 11 14  1  0  0  0  0
  9 10  1  0  0  0  0
  9 11  1  0  0  0  0
  9 21  1  0  0  0  0
  7  8  1  0  0  0  0
  7  9  1  0  0  0  0
 25 26  1  0  0  0  0
 25 27  1  0  0  0  0
 25 28  1  0  0  0  0
 23 24  1  0  0  0  0
 23 25  1  0  0  0  0
M  END
$$$$
default_name
  -OEChem-01062215323D

 28 27  0     1  0  0  0  0  0999 V2000
   -3.2133   -3.5565    1.2809 H   0  0  0  0  0  0  0  0  0  0  0  0
   -3.1873   -2.5755    0.8089 C   0  0  0  0  0  0  0  0  0  0  0  0
   -3.8793   -1.9065    1.3169 H   0  0  0  0  0  0  0  0  0  0  0  0
   -3.4623   -2.6685   -0.2401 H   0  0  0  0  0  0  0  0  0  0  0  0
   -1.7863   -2.0195    0.9119 C   0  0  0  0  0  0  0  0  0  0  0  0
   -0.9073   -2.6615    1.4699 O   0  0  0  0  0  0  0  0  0  0  0  0
   -1.5803   -0.8195    0.3749 N   0  0  0  0  0  0  0  0  0  0  0  0
   -2.3603   -0.3345   -0.0451 H   0  0  0  0  0  0  0  0  0  0  0  0
   -0.2933   -0.1205    0.3719 C   0  0  1  0  0  0  0  0  0  0  0  0
    0.3577   -0.5843    1.1143 H   0  0  0  0  0  0  0  0  0  0  0  0
    0.3613   -0.2794   -1.0156 C   0  0  0  0  0  0  0  0  0  0  0  0
   -0.3534    0.0577   -1.7683 H   0  0  0  0  0  0  0  0  0  0  0  0
    1.2424    0.3613   -1.0733 H   0  0  0  0  0  0  0  0  0  0  0  0
    0.7836   -1.7219   -1.3441 C   0  0  0  0  0  0  0  0  0  0  0  0
    1.5140   -2.0704   -0.6137 H   0  0  0  0  0  0  0  0  0  0  0  0
   -0.0926   -2.3682   -1.3084 H   0  0  0  0  0  0  0  0  0  0  0  0
    1.4036   -1.8408   -2.7326 C   0  0  0  0  0  0  0  0  0  0  0  0
    1.4490   -0.9433   -3.5585 O   0  0  0  0  0  0  0  0  0  0  0  0
    1.9189   -3.0466   -3.0361 O   0  0  0  0  0  0  0  0  0  0  0  0
    2.2511   -2.9597   -3.9313 H   0  0  0  0  0  0  0  0  0  0  0  0
   -0.4860    1.3537    0.7622 C   0  0  0  0  0  0  0  0  0  0  0  0
    0.0728    1.8039    1.7605 O   0  0  0  0  0  0  0  0  0  0  0  0
   -1.2829    2.0963   -0.0157 N   0  0  0  0  0  0  0  0  0  0  0  0
   -1.6891    1.6632   -0.8316 H   0  0  0  0  0  0  0  0  0  0  0  0
   -1.5838    3.5048    0.2324 C   0  0  0  0  0  0  0  0  0  0  0  0
   -0.6566    4.0794    0.2706 H   0  0  0  0  0  0  0  0  0  0  0  0
   -2.2193    3.9019   -0.5605 H   0  0  0  0  0  0  0  0  0  0  0  0
   -2.0957    3.6090    1.1911 H   0  0  0  0  0  0  0  0  0  0  0  0
  5  6  2  0  0  0  0
  5  7  1  0  0  0  0
  2  3  1  0  0  0  0
  2  4  1  0  0  0  0
  2  5  1  0  0  0  0
  1  2  1  0  0  0  0
 21 22  2  0  0  0  0
 21 23  1  0  0  0  0
 19 20  1  0  0  0  0
 17 18  2  0  0  0  0
 17 19  1  0  0  0  0
 14 15  1  0  0  0  0
 14 16  1  0  0  0  0
 14 17  1  0  0  0  0
 11 12  1  0  0  0  0
 11 13  1  0  0  0  0
 11 14  1  0  0  0  0
  9 10  1  0  0  0  0
  9 11  1  0  0  0  0
  9 21  1  0  0  0  0
  7  8  1  0  0  0  0
  7  9  1  0  0  0  0
 25 26  1  0  0  0  0
 25 27  1  0  0  0  0
 25 28  1  0  0  0  0
 23 24  1  0  0  0  0
 23 25  1  0  0  0  0
M  END
$$$$
default_name
  -OEChem-01062215323D

 28 27  0     1  0  0  0  0  0999 V2000
   -3.2133   -3.5565    1.2809 H   0  0  0  0  0  0  0  0  0  0  0  0
   -3.1873   -2.5755    0.8089 C   0  0  0  0  0  0  0  0  0  0  0  0
   -3.8793   -1.9065    1.3169 H   0  0  0  0  0  0  0  0  0  0  0  0
   -3.4623   -2.6685   -0.2401 H   0  0  0  0  0  0  0  0  0  0  0  0
   -1.7863   -2.0195    0.9119 C   0  0  0  0  0  0  0  0  0  0  0  0
   -0.9073   -2.6615    1.4699 O   0  0  0  0  0  0  0  0  0  0  0  0
   -1.5803   -0.8195    0.3749 N   0  0  0  0  0  0  0  0  0  0  0  0
   -2.3603   -0.3345   -0.0451 H   0  0  0  0  0  0  0  0  0  0  0  0
   -0.2933   -0.1205    0.3719 C   0  0  1  0  0  0  0  0  0  0  0  0
    0.3577   -0.5843    1.1143 H   0  0  0  0  0  0  0  0  0  0  0  0
    0.3613   -0.2794   -1.0156 C   0  0  0  0  0  0  0  0  0  0  0  0
   -0.3534    0.0577   -1.7683 H   0  0  0  0  0  0  0  0  0  0  0  0
    1.2424    0.3613   -1.0733 H   0  0  0  0  0  0  0  0  0  0  0  0
    0.7836   -1.7219   -1.3441 C   0  0  0  0  0  0  0  0  0  0  0  0
    1.5140   -2.0704   -0.6137 H   0  0  0  0  0  0  0  0  0  0  0  0
   -0.0926   -2.3682   -1.3084 H   0  0  0  0  0  0  0  0  0  0  0  0
    1.4036   -1.8408   -2.7326 C   0  0  0  0  0  0  0  0  0  0  0  0
    1.4490   -0.9433   -3.5585 O   0  0  0  0  0  0  0  0  0  0  0  0
    1.9189   -3.0466   -3.0361 O   0  0  0  0  0  0  0  0  0  0  0  0
    2.2511   -2.9597   -3.9313 H   0  0  0  0  0  0  0  0  0  0  0  0
   -0.4860    1.3537    0.7622 C   0  0  0  0  0  0  0  0  0  0  0  0
    0.2694    1.8778    1.5785 O   0  0  0  0  0  0  0  0  0  0  0  0
   -1.5002    2.0134    0.1898 N   0  0  0  0  0  0  0  0  0  0  0  0
   -2.0642    1.5233   -0.4883 H   0  0  0  0  0  0  0  0  0  0  0  0
   -1.8281    3.4097    0.4710 C   0  0  0  0  0  0  0  0  0  0  0  0
   -0.9626    4.0414    0.2629 H   0  0  0  0  0  0  0  0  0  0  0  0
   -2.6659    3.7342   -0.1477 H   0  0  0  0  0  0  0  0  0  0  0  0
   -2.0932    3.5211    1.5242 H   0  0  0  0  0  0  0  0  0  0  0  0
  5  6  2  0  0  0  0
  5  7  1  0  0  0  0
  2  3  1  0  0  0  0
  2  4  1  0  0  0  0
  2  5  1  0  0  0  0
  1  2  1  0  0  0  0
 21 22  2  0  0  0  0
 21 23  1  0  0  0  0
 19 20  1  0  0  0  0
 17 18  2  0  0  0  0
 17 19  1  0  0  0  0
 14 15  1  0  0  0  0
 14 16  1  0  0  0  0
 14 17  1  0  0  0  0
 11 12  1  0  0  0  0
 11 13  1  0  0  0  0
 11 14  1  0  0  0  0
  9 10  1  0  0  0  0
  9 11  1  0  0  0  0
  9 21  1  0  0  0  0
  7  8  1  0  0  0  0
  7  9  1  0  0  0  0
 25 26  1  0  0  0  0
 25 27  1  0  0  0  0
 25 28  1  0  0  0  0
 23 24  1  0  0  0  0
 23 25  1  0  0  0  0
M  END
$$$$
default_name
  -OEChem-01062215323D

 28 27  0     1  0  0  0  0  0999 V2000
   -3.2133   -3.5565    1.2809 H   0  0  0  0  0  0  0  0  0  0  0  0
   -3.1873   -2.5755    0.8089 C   0  0  0  0  0  0  0  0  0  0  0  0
   -3.8793   -1.9065    1.3169 H   0  0  0  0  0  0  0  0  0  0  0  0
   -3.4623   -2.6685   -0.2401 H   0  0  0  0  0  0  0  0  0  0  0  0
   -1.7863   -2.0195    0.9119 C   0  0  0  0  0  0  0  0  0  0  0  0
   -0.9073   -2.6615    1.4699 O   0  0  0  0  0  0  0  0  0  0  0  0
   -1.5803   -0.8195    0.3749 N   0  0  0  0  0  0  0  0  0  0  0  0
   -2.3603   -0.3345   -0.0451 H   0  0  0  0  0  0  0  0  0  0  0  0
   -0.2933   -0.1205    0.3719 C   0  0  1  0  0  0  0  0  0  0  0  0
    0.3577   -0.5843    1.1143 H   0  0  0  0  0  0  0  0  0  0  0  0
    0.3613   -0.2794   -1.0156 C   0  0  0  0  0  0  0  0  0  0  0  0
   -0.3534    0.0577   -1.7683 H   0  0  0  0  0  0  0  0  0  0  0  0
    1.2424    0.3613   -1.0733 H   0  0  0  0  0  0  0  0  0  0  0  0
    0.7836   -1.7219   -1.3441 C   0  0  0  0  0  0  0  0  0  0  0  0
    1.5140   -2.0704   -0.6137 H   0  0  0  0  0  0  0  0  0  0  0  0
   -0.0926   -2.3682   -1.3084 H   0  0  0  0  0  0  0  0  0  0  0  0
    1.4036   -1.8408   -2.7326 C   0  0  0  0  0  0  0  0  0  0  0  0
    1.4490   -0.9433   -3.5585 O   0  0  0  0  0  0  0  0  0  0  0  0
    1.9189   -3.0466   -3.0361 O   0  0  0  0  0  0  0  0  0  0  0  0
    2.2511   -2.9597   -3.9313 H   0  0  0  0  0  0  0  0  0  0  0  0
   -0.4860    1.3537    0.7622 C   0  0  0  0  0  0  0  0  0  0  0  0
    0.4092    1.9561    1.3515 O   0  0  0  0  0  0  0  0  0  0  0  0
   -1.6537    1.9258    0.4450 N   0  0  0  0  0  0  0  0  0  0  0  0
   -2.3322    1.3747   -0.0591 H   0  0  0  0  0  0  0  0  0  0  0  0
   -1.9985    3.3095    0.7652 C   0  0  0  0  0  0  0  0  0  0  0  0
   -1.2577    3.9844    0.3328 H   0  0  0  0  0  0  0  0  0  0  0  0
   -2.9838    3.5564    0.3673 H   0  0  0  0  0  0  0  0  0  0  0  0
   -2.0022    3.4472    1.8483 H   0  0  0  0  0  0  0  0  0  0  0  0
  5  6  2  0  0  0  0
  5  7  1  0  0  0  0
  2  3  1  0  0  0  0
  2  4  1  0  0  0  0
  2  5  1  0  0  0  0
  1  2  1  0  0  0  0
 21 22  2  0  0  0  0
 21 23  1  0  0  0  0
 19 20  1  0  0  0  0
 17 18  2  0  0  0  0
 17 19  1  0  0  0  0
 14 15  1  0  0  0  0
 14 16  1  0  0  0  0
 14 17  1  0  0  0  0
 11 12  1  0  0  0  0
 11 13  1  0  0  0  0
 11 14  1  0  0  0  0
  9 10  1  0  0  0  0
  9 11  1  0  0  0  0
  9 21  1  0  0  0  0
  7  8  1  0  0  0  0
  7  9  1  0  0  0  0
 25 26  1  0  0  0  0
 25 27  1  0  0  0  0
 25 28  1  0  0  0  0
 23 24  1  0  0  0  0
 23 25  1  0  0  0  0
M  END
$$$$
default_name
  -OEChem-01062215323D

 28 27  0     1  0  0  0  0  0999 V2000
   -3.2133   -3.5565    1.2809 H   0  0  0  0  0  0  0  0  0  0  0  0
   -3.1873   -2.5755    0.8089 C   0  0  0  0  0  0  0  0  0  0  0  0
   -3.8793   -1.9065    1.3169 H   0  0  0  0  0  0  0  0  0  0  0  0
   -3.4623   -2.6685   -0.2401 H   0  0  0  0  0  0  0  0  0  0  0  0
   -1.7863   -2.0195    0.9119 C   0  0  0  0  0  0  0  0  0  0  0  0
   -0.9073   -2.6615    1.4699 O   0  0  0  0  0  0  0  0  0  0  0  0
   -1.5803   -0.8195    0.3749 N   0  0  0  0  0  0  0  0  0  0  0  0
   -2.3603   -0.3345   -0.0451 H   0  0  0  0  0  0  0  0  0  0  0  0
   -0.2933   -0.1205    0.3719 C   0  0  1  0  0  0  0  0  0  0  0  0
    0.3577   -0.5843    1.1143 H   0  0  0  0  0  0  0  0  0  0  0  0
    0.3613   -0.2794   -1.0156 C   0  0  0  0  0  0  0  0  0  0  0  0
   -0.3534    0.0577   -1.7683 H   0  0  0  0  0  0  0  0  0  0  0  0
    1.2424    0.3613   -1.0733 H   0  0  0  0  0  0  0  0  0  0  0  0
    0.7836   -1.7219   -1.3441 C   0  0  0  0  0  0  0  0  0  0  0  0
    1.5140   -2.0704   -0.6137 H   0  0  0  0  0  0  0  0  0  0  0  0
   -0.0926   -2.3682   -1.3084 H   0  0  0  0  0  0  0  0  0  0  0  0
    1.4036   -1.8408   -2.7326 C   0  0  0  0  0  0  0  0  0  0  0  0
    1.4490   -0.9433   -3.5585 O   0  0  0  0  0  0  0  0  0  0  0  0
    1.9189   -3.0466   -3.0361 O   0  0  0  0  0  0  0  0  0  0  0  0
    2.2511   -2.9597   -3.9313 H   0  0  0  0  0  0  0  0  0  0  0  0
   -0.4860    1.3537    0.7622 C   0  0  0  0  0  0  0  0  0  0  0  0
    0.4828    2.0337    1.0950 O   0  0  0  0  0  0  0  0  0  0  0  0
   -1.7329    1.8394    0.7324 N   0  0  0  0  0  0  0  0  0  0  0  0
   -2.4747    1.2274    0.4269 H   0  0  0  0  0  0  0  0  0  0  0  0
   -2.0836    3.2111    1.0950 C   0  0  0  0  0  0  0  0  0  0  0  0
   -1.5215    3.9122    0.4753 H   0  0  0  0  0  0  0  0  0  0  0  0
   -3.1514    3.3803    0.9494 H   0  0  0  0  0  0  0  0  0  0  0  0
   -1.8291    3.3924    2.1411 H   0  0  0  0  0  0  0  0  0  0  0  0
  5  6  2  0  0  0  0
  5  7  1  0  0  0  0
  2  3  1  0  0  0  0
  2  4  1  0  0  0  0
  2  5  1  0  0  0  0
  1  2  1  0  0  0  0
 21 22  2  0  0  0  0
 21 23  1  0  0  0  0
 19 20  1  0  0  0  0
 17 18  2  0  0  0  0
 17 19  1  0  0  0  0
 14 15  1  0  0  0  0
 14 16  1  0  0  0  0
 14 17  1  0  0  0  0
 11 12  1  0  0  0  0
 11 13  1  0  0  0  0
 11 14  1  0  0  0  0
  9 10  1  0  0  0  0
  9 11  1  0  0  0  0
  9 21  1  0  0  0  0
  7  8  1  0  0  0  0
  7  9  1  0  0  0  0
 25 26  1  0  0  0  0
 25 27  1  0  0  0  0
 25 28  1  0  0  0  0
 23 24  1  0  0  0  0
 23 25  1  0  0  0  0
M  END
$$$$
default_name
  -OEChem-01062215323D

 28 27  0     1  0  0  0  0  0999 V2000
   -3.2133   -3.5565    1.2809 H   0  0  0  0  0  0  0  0  0  0  0  0
   -3.1873   -2.5755    0.8089 C   0  0  0  0  0  0  0  0  0  0  0  0
   -3.8793   -1.9065    1.3169 H   0  0  0  0  0  0  0  0  0  0  0  0
   -3.4623   -2.6685   -0.2401 H   0  0  0  0  0  0  0  0  0  0  0  0
   -1.7863   -2.0195    0.9119 C   0  0  0  0  0  0  0  0  0  0  0  0
   -0.9073   -2.6615    1.4699 O   0  0  0  0  0  0  0  0  0  0  0  0
   -1.5803   -0.8195    0.3749 N   0  0  0  0  0  0  0  0  0  0  0  0
   -2.3603   -0.3345   -0.0451 H   0  0  0  0  0  0  0  0  0  0  0  0
   -0.2933   -0.1205    0.3719 C   0  0  1  0  0  0  0  0  0  0  0  0
    0.3577   -0.5843    1.1143 H   0  0  0  0  0  0  0  0  0  0  0  0
    0.3613   -0.2794   -1.0156 C   0  0  0  0  0  0  0  0  0  0  0  0
   -0.3534    0.0577   -1.7683 H   0  0  0  0  0  0  0  0  0  0  0  0
    1.2424    0.3613   -1.0733 H   0  0  0  0  0  0  0  0  0  0  0  0
    0.7836   -1.7219   -1.3441 C   0  0  0  0  0  0  0  0  0  0  0  0
    1.5140   -2.0704   -0.6137 H   0  0  0  0  0  0  0  0  0  0  0  0
   -0.0926   -2.3682   -1.3084 H   0  0  0  0  0  0  0  0  0  0  0  0
    1.4036   -1.8408   -2.7326 C   0  0  0  0  0  0  0  0  0  0  0  0
    1.4490   -0.9433   -3.5585 O   0  0  0  0  0  0  0  0  0  0  0  0
    1.9189   -3.0466   -3.0361 O   0  0  0  0  0  0  0  0  0  0  0  0
    2.2511   -2.9597   -3.9313 H   0  0  0  0  0  0  0  0  0  0  0  0
   -0.4860    1.3537    0.7622 C   0  0  0  0  0  0  0  0  0  0  0  0
    0.4851    2.1051    0.8264 O   0  0  0  0  0  0  0  0  0  0  0  0
   -1.7323    1.7600    1.0325 N   0  0  0  0  0  0  0  0  0  0  0  0
   -2.4820    1.0916    0.9364 H   0  0  0  0  0  0  0  0  0  0  0  0
   -2.0774    3.1211    1.4378 C   0  0  0  0  0  0  0  0  0  0  0  0
   -1.7363    3.8297    0.6808 H   0  0  0  0  0  0  0  0  0  0  0  0
   -3.1572    3.2182    1.5590 H   0  0  0  0  0  0  0  0  0  0  0  0
   -1.5856    3.3602    2.3828 H   0  0  0  0  0  0  0  0  0  0  0  0
  5  6  2  0  0  0  0
  5  7  1  0  0  0  0
  2  3  1  0  0  0  0
  2  4  1  0  0  0  0
  2  5  1  0  0  0  0
  1  2  1  0  0  0  0
 21 22  2  0  0  0  0
 21 23  1  0  0  0  0
 19 20  1  0  0  0  0
 17 18  2  0  0  0  0
 17 19  1  0  0  0  0
 14 15  1  0  0  0  0
 14 16  1  0  0  0  0
 14 17  1  0  0  0  0
 11 12  1  0  0  0  0
 11 13  1  0  0  0  0
 11 14  1  0  0  0  0
  9 10  1  0  0  0  0
  9 11  1  0  0  0  0
  9 21  1  0  0  0  0
  7  8  1  0  0  0  0
  7  9  1  0  0  0  0
 25 26  1  0  0  0  0
 25 27  1  0  0  0  0
 25 28  1  0  0  0  0
 23 24  1  0  0  0  0
 23 25  1  0  0  0  0
M  END
$$$$
default_name
  -OEChem-01062215323D

 28 27  0     1  0  0  0  0  0999 V2000
   -3.2133   -3.5565    1.2809 H   0  0  0  0  0  0  0  0  0  0  0  0
   -3.1873   -2.5755    0.8089 C   0  0  0  0  0  0  0  0  0  0  0  0
   -3.8793   -1.9065    1.3169 H   0  0  0  0  0  0  0  0  0  0  0  0
   -3.4623   -2.6685   -0.2401 H   0  0  0  0  0  0  0  0  0  0  0  0
   -1.7863   -2.0195    0.9119 C   0  0  0  0  0  0  0  0  0  0  0  0
   -0.9073   -2.6615    1.4699 O   0  0  0  0  0  0  0  0  0  0  0  0
   -1.5803   -0.8195    0.3749 N   0  0  0  0  0  0  0  0  0  0  0  0
   -2.3603   -0.3345   -0.0451 H   0  0  0  0  0  0  0  0  0  0  0  0
   -0.2933   -0.1205    0.3719 C   0  0  1  0  0  0  0  0  0  0  0  0
    0.3577   -0.5843    1.1143 H   0  0  0  0  0  0  0  0  0  0  0  0
    0.3613   -0.2794   -1.0156 C   0  0  0  0  0  0  0  0  0  0  0  0
   -0.3534    0.0577   -1.7683 H   0  0  0  0  0  0  0  0  0  0  0  0
    1.2424    0.3613   -1.0733 H   0  0  0  0  0  0  0  0  0  0  0  0
    0.7836   -1.7219   -1.3441 C   0  0  0  0  0  0  0  0  0  0  0  0
    1.5140   -2.0704   -0.6137 H   0  0  0  0  0  0  0  0  0  0  0  0
   -0.0926   -2.3682   -1.3084 H   0  0  0  0  0  0  0  0  0  0  0  0
    1.4036   -1.8408   -2.7326 C   0  0  0  0  0  0  0  0  0  0  0  0
    1.4490   -0.9433   -3.5585 O   0  0  0  0  0  0  0  0  0  0  0  0
    1.9189   -3.0466   -3.0361 O   0  0  0  0  0  0  0  0  0  0  0  0
    2.2511   -2.9597   -3.9313 H   0  0  0  0  0  0  0  0  0  0  0  0
   -0.4860    1.3537    0.7622 C   0  0  0  0  0  0  0  0  0  0  0  0
    0.4159    2.1655    0.5641 O   0  0  0  0  0  0  0  0  0  0  0  0
   -1.6521    1.6932    1.3248 N   0  0  0  0  0  0  0  0  0  0  0  0
   -2.3537    0.9764    1.4348 H   0  0  0  0  0  0  0  0  0  0  0  0
   -1.9804    3.0458    1.7704 C   0  0  0  0  0  0  0  0  0  0  0  0
   -1.8873    3.7426    0.9353 H   0  0  0  0  0  0  0  0  0  0  0  0
   -3.0009    3.0810    2.1545 H   0  0  0  0  0  0  0  0  0  0  0  0
   -1.2882    3.3530    2.5568 H   0  0  0  0  0  0  0  0  0  0  0  0
  5  6  2  0  0  0  0
  5  7  1  0  0  0  0
  2  3  1  0  0  0  0
  2  4  1  0  0  0  0
  2  5  1  0  0  0  0
  1  2  1  0  0  0  0
 21 22  2  0  0  0  0
 21 23  1  0  0  0  0
 19 20  1  0  0  0  0
 17 18  2  0  0  0  0
 17 19  1  0  0  0  0
 14 15  1  0  0  0  0
 14 16  1  0  0  0  0
 14 17  1  0  0  0  0
 11 12  1  0  0  0  0
 11 13  1  0  0  0  0
 11 14  1  0  0  0  0
  9 10  1  0  0  0  0
  9 11  1  0  0  0  0
  9 21  1  0  0  0  0
  7  8  1  0  0  0  0
  7  9  1  0  0  0  0
 25 26  1  0  0  0  0
 25 27  1  0  0  0  0
 25 28  1  0  0  0  0
 23 24  1  0  0  0  0
 23 25  1  0  0  0  0
M  END
$$$$
default_name
  -OEChem-01062215323D

 28 27  0     1  0  0  0  0  0999 V2000
   -3.2133   -3.5565    1.2809 H   0  0  0  0  0  0  0  0  0  0  0  0
   -3.1873   -2.5755    0.8089 C   0  0  0  0  0  0  0  0  0  0  0  0
   -3.8793   -1.9065    1.3169 H   0  0  0  0  0  0  0  0  0  0  0  0
   -3.4623   -2.6685   -0.2401 H   0  0  0  0  0  0  0  0  0  0  0  0
   -1.7863   -2.0195    0.9119 C   0  0  0  0  0  0  0  0  0  0  0  0
   -0.9073   -2.6615    1.4699 O   0  0  0  0  0  0  0  0  0  0  0  0
   -1.5803   -0.8195    0.3749 N   0  0  0  0  0  0  0  0  0  0  0  0
   -2.3603   -0.3345   -0.0451 H   0  0  0  0  0  0  0  0  0  0  0  0
   -0.2933   -0.1205    0.3719 C   0  0  1  0  0  0  0  0  0  0  0  0
    0.3577   -0.5843    1.1143 H   0  0  0  0  0  0  0  0  0  0  0  0
    0.3613   -0.2794   -1.0156 C   0  0  0  0  0  0  0  0  0  0  0  0
   -0.3534    0.0577   -1.7683 H   0  0  0  0  0  0  0  0  0  0  0  0
    1.2424    0.3613   -1.0733 H   0  0  0  0  0  0  0  0  0  0  0  0
    0.7836   -1.7219   -1.3441 C   0  0  0  0  0  0  0  0  0  0  0  0
    1.5140   -2.0704   -0.6137 H   0  0  0  0  0  0  0  0  0  0  0  0
   -0.0926   -2.3682   -1.3084 H   0  0  0  0  0  0  0  0  0  0  0  0
    1.4036   -1.8408   -2.7326 C   0  0  0  0  0  0  0  0  0  0  0  0
    1.4490   -0.9433   -3.5585 O   0  0  0  0  0  0  0  0  0  0  0  0
    1.9189   -3.0466   -3.0361 O   0  0  0  0  0  0  0  0  0  0  0  0
    2.2511   -2.9597   -3.9313 H   0  0  0  0  0  0  0  0  0  0  0  0
   -0.4860    1.3537    0.7622 C   0  0  0  0  0  0  0  0  0  0  0  0
    0.2801    2.2107    0.3260 O   0  0  0  0  0  0  0  0  0  0  0  0
   -1.4976    1.6433    1.5894 N   0  0  0  0  0  0  0  0  0  0  0  0
   -2.0985    0.8898    1.8882 H   0  0  0  0  0  0  0  0  0  0  0  0
   -1.7993    2.9902    2.0699 C   0  0  0  0  0  0  0  0  0  0  0  0
   -1.9643    3.6567    1.2215 H   0  0  0  0  0  0  0  0  0  0  0  0
   -2.6930    2.9781    2.6954 H   0  0  0  0  0  0  0  0  0  0  0  0
   -0.9574    3.3713    2.6513 H   0  0  0  0  0  0  0  0  0  0  0  0
  5  6  2  0  0  0  0
  5  7  1  0  0  0  0
  2  3  1  0  0  0  0
  2  4  1  0  0  0  0
  2  5  1  0  0  0  0
  1  2  1  0  0  0  0
 21 22  2  0  0  0  0
 21 23  1  0  0  0  0
 19 20  1  0  0  0  0
 17 18  2  0  0  0  0
 17 19  1  0  0  0  0
 14 15  1  0  0  0  0
 14 16  1  0  0  0  0
 14 17  1  0  0  0  0
 11 12  1  0  0  0  0
 11 13  1  0  0  0  0
 11 14  1  0  0  0  0
  9 10  1  0  0  0  0
  9 11  1  0  0  0  0
  9 21  1  0  0  0  0
  7  8  1  0  0  0  0
  7  9  1  0  0  0  0
 25 26  1  0  0  0  0
 25 27  1  0  0  0  0
 25 28  1  0  0  0  0
 23 24  1  0  0  0  0
 23 25  1  0  0  0  0
M  END
$$$$
default_name
  -OEChem-01062215323D

 28 27  0     1  0  0  0  0  0999 V2000
   -3.2133   -3.5565    1.2809 H   0  0  0  0  0  0  0  0  0  0  0  0
   -3.1873   -2.5755    0.8089 C   0  0  0  0  0  0  0  0  0  0  0  0
   -3.8793   -1.9065    1.3169 H   0  0  0  0  0  0  0  0  0  0  0  0
   -3.4623   -2.6685   -0.2401 H   0  0  0  0  0  0  0  0  0  0  0  0
   -1.7863   -2.0195    0.9119 C   0  0  0  0  0  0  0  0  0  0  0  0
   -0.9073   -2.6615    1.4699 O   0  0  0  0  0  0  0  0  0  0  0  0
   -1.5803   -0.8195    0.3749 N   0  0  0  0  0  0  0  0  0  0  0  0
   -2.3603   -0.3345   -0.0451 H   0  0  0  0  0  0  0  0  0  0  0  0
   -0.2933   -0.1205    0.3719 C   0  0  1  0  0  0  0  0  0  0  0  0
    0.3577   -0.5843    1.1143 H   0  0  0  0  0  0  0  0  0  0  0  0
    0.3613   -0.2794   -1.0156 C   0  0  0  0  0  0  0  0  0  0  0  0
   -0.3534    0.0577   -1.7683 H   0  0  0  0  0  0  0  0  0  0  0  0
    1.2424    0.3613   -1.0733 H   0  0  0  0  0  0  0  0  0  0  0  0
    0.7836   -1.7219   -1.3441 C   0  0  0  0  0  0  0  0  0  0  0  0
    1.5140   -2.0704   -0.6137 H   0  0  0  0  0  0  0  0  0  0  0  0
   -0.0926   -2.3682   -1.3084 H   0  0  0  0  0  0  0  0  0  0  0  0
    1.4036   -1.8408   -2.7326 C   0  0  0  0  0  0  0  0  0  0  0  0
    1.4490   -0.9433   -3.5585 O   0  0  0  0  0  0  0  0  0  0  0  0
    1.9189   -3.0466   -3.0361 O   0  0  0  0  0  0  0  0  0  0  0  0
    2.2511   -2.9597   -3.9313 H   0  0  0  0  0  0  0  0  0  0  0  0
   -0.4860    1.3537    0.7622 C   0  0  0  0  0  0  0  0  0  0  0  0
    0.0868    2.2378    0.1282 O   0  0  0  0  0  0  0  0  0  0  0  0
   -1.2795    1.6139    1.8082 N   0  0  0  0  0  0  0  0  0  0  0  0
   -1.7337    0.8375    2.2655 H   0  0  0  0  0  0  0  0  0  0  0  0
   -1.5463    2.9581    2.3161 C   0  0  0  0  0  0  0  0  0  0  0  0
   -1.9619    3.5781    1.5198 H   0  0  0  0  0  0  0  0  0  0  0  0
   -2.2546    2.9164    3.1448 H   0  0  0  0  0  0  0  0  0  0  0  0
   -0.6155    3.4137    2.6598 H   0  0  0  0  0  0  0  0  0  0  0  0
  5  6  2  0  0  0  0
  5  7  1  0  0  0  0
  2  3  1  0  0  0  0
  2  4  1  0  0  0  0
  2  5  1  0  0  0  0
  1  2  1  0  0  0  0
 21 22  2  0  0  0  0
 21 23  1  0  0  0  0
 19 20  1  0  0  0  0
 17 18  2  0  0  0  0
 17 19  1  0  0  0  0
 14 15  1  0  0  0  0
 14 16  1  0  0  0  0
 14 17  1  0  0  0  0
 11 12  1  0  0  0  0
 11 13  1  0  0  0  0
 11 14  1  0  0  0  0
  9 10  1  0  0  0  0
  9 11  1  0  0  0  0
  9 21  1  0  0  0  0
  7  8  1  0  0  0  0
  7  9  1  0  0  0  0
 25 26  1  0  0  0  0
 25 27  1  0  0  0  0
 25 28  1  0  0  0  0
 23 24  1  0  0  0  0
 23 25  1  0  0  0  0
M  END
$$$$
default_name
  -OEChem-01062215323D

 28 27  0     1  0  0  0  0  0999 V2000
   -3.2133   -3.5565    1.2809 H   0  0  0  0  0  0  0  0  0  0  0  0
   -3.1873   -2.5755    0.8089 C   0  0  0  0  0  0  0  0  0  0  0  0
   -3.8793   -1.9065    1.3169 H   0  0  0  0  0  0  0  0  0  0  0  0
   -3.4623   -2.6685   -0.2401 H   0  0  0  0  0  0  0  0  0  0  0  0
   -1.7863   -2.0195    0.9119 C   0  0  0  0  0  0  0  0  0  0  0  0
   -0.9073   -2.6615    1.4699 O   0  0  0  0  0  0  0  0  0  0  0  0
   -1.5803   -0.8195    0.3749 N   0  0  0  0  0  0  0  0  0  0  0  0
   -2.3603   -0.3345   -0.0451 H   0  0  0  0  0  0  0  0  0  0  0  0
   -0.2933   -0.1205    0.3719 C   0  0  1  0  0  0  0  0  0  0  0  0
    0.3577   -0.5843    1.1143 H   0  0  0  0  0  0  0  0  0  0  0  0
    0.3613   -0.2794   -1.0156 C   0  0  0  0  0  0  0  0  0  0  0  0
   -0.3534    0.0577   -1.7683 H   0  0  0  0  0  0  0  0  0  0  0  0
    1.2424    0.3613   -1.0733 H   0  0  0  0  0  0  0  0  0  0  0  0
    0.7836   -1.7219   -1.3441 C   0  0  0  0  0  0  0  0  0  0  0  0
    1.5140   -2.0704   -0.6137 H   0  0  0  0  0  0  0  0  0  0  0  0
   -0.0926   -2.3682   -1.3084 H   0  0  0  0  0  0  0  0  0  0  0  0
    1.4036   -1.8408   -2.7326 C   0  0  0  0  0  0  0  0  0  0  0  0
    1.4490   -0.9433   -3.5585 O   0  0  0  0  0  0  0  0  0  0  0  0
    1.9189   -3.0466   -3.0361 O   0  0  0  0  0  0  0  0  0  0  0  0
    2.2511   -2.9597   -3.9313 H   0  0  0  0  0  0  0  0  0  0  0  0
   -0.4860    1.3537    0.7622 C   0  0  0  0  0  0  0  0  0  0  0  0
   -0.1509    2.2449   -0.0158 O   0  0  0  0  0  0  0  0  0  0  0  0
   -1.0125    1.6069    1.9664 N   0  0  0  0  0  0  0  0  0  0  0  0
   -1.2843    0.8233    2.5411 H   0  0  0  0  0  0  0  0  0  0  0  0
   -1.2386    2.9517    2.4922 C   0  0  0  0  0  0  0  0  0  0  0  0
   -1.8805    3.5119    1.8099 H   0  0  0  0  0  0  0  0  0  0  0  0
   -1.7155    2.9003    3.4720 H   0  0  0  0  0  0  0  0  0  0  0  0
   -0.2860    3.4774    2.5819 H   0  0  0  0  0  0  0  0  0  0  0  0
  5  6  2  0  0  0  0
  5  7  1  0  0  0  0
  2  3  1  0  0  0  0
  2  4  1  0  0  0  0
  2  5  1  0  0  0  0
  1  2  1  0  0  0  0
 21 22  2  0  0  0  0
 21 23  1  0  0  0  0
 19 20  1  0  0  0  0
 17 18  2  0  0  0  0
 17 19  1  0  0  0  0
 14 15  1  0  0  0  0
 14 16  1  0  0  0  0
 14 17  1  0  0  0  0
 11 12  1  0  0  0  0
 11 13  1  0  0  0  0
 11 14  1  0  0  0  0
  9 10  1  0  0  0  0
  9 11  1  0  0  0  0
  9 21  1  0  0  0  0
  7  8  1  0  0  0  0
  7  9  1  0  0  0  0
 25 26  1  0  0  0  0
 25 27  1  0  0  0  0
 25 28  1  0  0  0  0
 23 24  1  0  0  0  0
 23 25  1  0  0  0  0
M  END
$$$$
default_name
  -OEChem-01062215323D

 28 27  0     1  0  0  0  0  0999 V2000
   -3.2133   -3.5565    1.2809 H   0  0  0  0  0  0  0  0  0  0  0  0
   -3.1873   -2.5755    0.8089 C   0  0  0  0  0  0  0  0  0  0  0  0
   -3.8793   -1.9065    1.3169 H   0  0  0  0  0  0  0  0  0  0  0  0
   -3.4623   -2.6685   -0.2401 H   0  0  0  0  0  0  0  0  0  0  0  0
   -1.7863   -2.0195    0.9119 C   0  0  0  0  0  0  0  0  0  0  0  0
   -0.9073   -2.6615    1.4699 O   0  0  0  0  0  0  0  0  0  0  0  0
   -1.5803   -0.8195    0.3749 N   0  0  0  0  0  0  0  0  0  0  0  0
   -2.3603   -0.3345   -0.0451 H   0  0  0  0  0  0  0  0  0  0  0  0
   -0.2933   -0.1205    0.3719 C   0  0  1  0  0  0  0  0  0  0  0  0
    0.3577   -0.5843    1.1143 H   0  0  0  0  0  0  0  0  0  0  0  0
    0.3613   -0.2794   -1.0156 C   0  0  0  0  0  0  0  0  0  0  0  0
   -0.3534    0.0577   -1.7683 H   0  0  0  0  0  0  0  0  0  0  0  0
    1.2424    0.3613   -1.0733 H   0  0  0  0  0  0  0  0  0  0  0  0
    0.7836   -1.7219   -1.3441 C   0  0  0  0  0  0  0  0  0  0  0  0
    1.5140   -2.0704   -0.6137 H   0  0  0  0  0  0  0  0  0  0  0  0
   -0.0926   -2.3682   -1.3084 H   0  0  0  0  0  0  0  0  0  0  0  0
    1.4036   -1.8408   -2.7326 C   0  0  0  0  0  0  0  0  0  0  0  0
    1.4490   -0.9433   -3.5585 O   0  0  0  0  0  0  0  0  0  0  0  0
    1.9189   -3.0466   -3.0361 O   0  0  0  0  0  0  0  0  0  0  0  0
    2.2511   -2.9597   -3.9313 H   0  0  0  0  0  0  0  0  0  0  0  0
   -0.4860    1.3537    0.7622 C   0  0  0  0  0  0  0  0  0  0  0  0
   -0.4166    2.2314   -0.0960 O   0  0  0  0  0  0  0  0  0  0  0  0
   -0.7149    1.6229    2.0532 N   0  0  0  0  0  0  0  0  0  0  0  0
   -0.7809    0.8481    2.6962 H   0  0  0  0  0  0  0  0  0  0  0  0
   -0.8974    2.9714    2.5861 C   0  0  0  0  0  0  0  0  0  0  0  0
   -1.7254    3.4628    2.0720 H   0  0  0  0  0  0  0  0  0  0  0  0
   -1.1125    2.9307    3.6548 H   0  0  0  0  0  0  0  0  0  0  0  0
    0.0088    3.5581    2.4227 H   0  0  0  0  0  0  0  0  0  0  0  0
  5  6  2  0  0  0  0
  5  7  1  0  0  0  0
  2  3  1  0  0  0  0
  2  4  1  0  0  0  0
  2  5  1  0  0  0  0
  1  2  1  0  0  0  0
 21 22  2  0  0  0  0
 21 23  1  0  0  0  0
 19 20  1  0  0  0  0
 17 18  2  0  0  0  0
 17 19  1  0  0  0  0
 14 15  1  0  0  0  0
 14 16  1  0  0  0  0
 14 17  1  0  0  0  0
 11 12  1  0  0  0  0
 11 13  1  0  0  0  0
 11 14  1  0  0  0  0
  9 10  1  0  0  0  0
  9 11  1  0  0  0  0
  9 21  1  0  0  0  0
  7  8  1  0  0  0  0
  7  9  1  0  0  0  0
 25 26  1  0  0  0  0
 25 27  1  0  0  0  0
 25 28  1  0  0  0  0
 23 24  1  0  0  0  0
 23 25  1  0  0  0  0
M  END
$$$$
default_name
  -OEChem-01062215323D

 28 27  0     1  0  0  0  0  0999 V2000
   -3.2133   -3.5565    1.2809 H   0  0  0  0  0  0  0  0  0  0  0  0
   -3.1873   -2.5755    0.8089 C   0  0  0  0  0  0  0  0  0  0  0  0
   -3.8793   -1.9065    1.3169 H   0  0  0  0  0  0  0  0  0  0  0  0
   -3.4623   -2.6685   -0.2401 H   0  0  0  0  0  0  0  0  0  0  0  0
   -1.7863   -2.0195    0.9119 C   0  0  0  0  0  0  0  0  0  0  0  0
   -0.9073   -2.6615    1.4699 O   0  0  0  0  0  0  0  0  0  0  0  0
   -1.5803   -0.8195    0.3749 N   0  0  0  0  0  0  0  0  0  0  0  0
   -2.3603   -0.3345   -0.0451 H   0  0  0  0  0  0  0  0  0  0  0  0
   -0.2933   -0.1205    0.3719 C   0  0  1  0  0  0  0  0  0  0  0  0
    0.3577   -0.5843    1.1143 H   0  0  0  0  0  0  0  0  0  0  0  0
    0.3613   -0.2794   -1.0156 C   0  0  0  0  0  0  0  0  0  0  0  0
   -0.3534    0.0577   -1.7683 H   0  0  0  0  0  0  0  0  0  0  0  0
    1.2424    0.3613   -1.0733 H   0  0  0  0  0  0  0  0  0  0  0  0
    0.7836   -1.7219   -1.3441 C   0  0  0  0  0  0  0  0  0  0  0  0
    1.5140   -2.0704   -0.6137 H   0  0  0  0  0  0  0  0  0  0  0  0
   -0.0926   -2.3682   -1.3084 H   0  0  0  0  0  0  0  0  0  0  0  0
    1.4036   -1.8408   -2.7326 C   0  0  0  0  0  0  0  0  0  0  0  0
    1.4490   -0.9433   -3.5585 O   0  0  0  0  0  0  0  0  0  0  0  0
    1.9189   -3.0466   -3.0361 O   0  0  0  0  0  0  0  0  0  0  0  0
    2.2511   -2.9597   -3.9313 H   0  0  0  0  0  0  0  0  0  0  0  0
   -0.4860    1.3537    0.7622 C   0  0  0  0  0  0  0  0  0  0  0  0
   -0.6923    2.1983   -0.1072 O   0  0  0  0  0  0  0  0  0  0  0  0
   -0.4069    1.6606    2.0626 N   0  0  0  0  0  0  0  0  0  0  0  0
   -0.2577    0.9101    2.7203 H   0  0  0  0  0  0  0  0  0  0  0  0
   -0.5458    3.0160    2.5914 C   0  0  0  0  0  0  0  0  0  0  0  0
   -1.5074    3.4341    2.2883 H   0  0  0  0  0  0  0  0  0  0  0  0
   -0.4867    3.0057    3.6807 H   0  0  0  0  0  0  0  0  0  0  0  0
    0.2487    3.6502    2.1932 H   0  0  0  0  0  0  0  0  0  0  0  0
  5  6  2  0  0  0  0
  5  7  1  0  0  0  0
  2  3  1  0  0  0  0
  2  4  1  0  0  0  0
  2  5  1  0  0  0  0
  1  2  1  0  0  0  0
 21 22  2  0  0  0  0
 21 23  1  0  0  0  0
 19 20  1  0  0  0  0
 17 18  2  0  0  0  0
 17 19  1  0  0  0  0
 14 15  1  0  0  0  0
 14 16  1  0  0  0  0
 14 17  1  0  0  0  0
 11 12  1  0  0  0  0
 11 13  1  0  0  0  0
 11 14  1  0  0  0  0
  9 10  1  0  0  0  0
  9 11  1  0  0  0  0
  9 21  1  0  0  0  0
  7  8  1  0  0  0  0
  7  9  1  0  0  0  0
 25 26  1  0  0  0  0
 25 27  1  0  0  0  0
 25 28  1  0  0  0  0
 23 24  1  0  0  0  0
 23 25  1  0  0  0  0
M  END
$$$$
default_name
  -OEChem-01062215323D

 28 27  0     1  0  0  0  0  0999 V2000
   -3.2133   -3.5565    1.2809 H   0  0  0  0  0  0  0  0  0  0  0  0
   -3.1873   -2.5755    0.8089 C   0  0  0  0  0  0  0  0  0  0  0  0
   -3.8793   -1.9065    1.3169 H   0  0  0  0  0  0  0  0  0  0  0  0
   -3.4623   -2.6685   -0.2401 H   0  0  0  0  0  0  0  0  0  0  0  0
   -1.7863   -2.0195    0.9119 C   0  0  0  0  0  0  0  0  0  0  0  0
   -0.9073   -2.6615    1.4699 O   0  0  0  0  0  0  0  0  0  0  0  0
   -1.5803   -0.8195    0.3749 N   0  0  0  0  0  0  0  0  0  0  0  0
   -2.3603   -0.3345   -0.0451 H   0  0  0  0  0  0  0  0  0  0  0  0
   -0.2933   -0.1205    0.3719 C   0  0  1  0  0  0  0  0  0  0  0  0
    0.3577   -0.5843    1.1143 H   0  0  0  0  0  0  0  0  0  0  0  0
    0.3613   -0.2794   -1.0156 C   0  0  0  0  0  0  0  0  0  0  0  0
   -0.3534    0.0577   -1.7683 H   0  0  0  0  0  0  0  0  0  0  0  0
    1.2424    0.3613   -1.0733 H   0  0  0  0  0  0  0  0  0  0  0  0
    0.7836   -1.7219   -1.3441 C   0  0  0  0  0  0  0  0  0  0  0  0
    1.5140   -2.0704   -0.6137 H   0  0  0  0  0  0  0  0  0  0  0  0
   -0.0926   -2.3682   -1.3084 H   0  0  0  0  0  0  0  0  0  0  0  0
    1.4036   -1.8408   -2.7326 C   0  0  0  0  0  0  0  0  0  0  0  0
    1.4490   -0.9433   -3.5585 O   0  0  0  0  0  0  0  0  0  0  0  0
    1.9189   -3.0466   -3.0361 O   0  0  0  0  0  0  0  0  0  0  0  0
    2.2511   -2.9597   -3.9313 H   0  0  0  0  0  0  0  0  0  0  0  0
   -0.4860    1.3537    0.7622 C   0  0  0  0  0  0  0  0  0  0  0  0
   -0.9592    2.1479   -0.0485 O   0  0  0  0  0  0  0  0  0  0  0  0
   -0.1096    1.7176    1.9940 N   0  0  0  0  0  0  0  0  0  0  0  0
    0.2495    1.0052    2.6117 H   0  0  0  0  0  0  0  0  0  0  0  0
   -0.2077    3.0823    2.5079 C   0  0  0  0  0  0  0  0  0  0  0  0
   -1.2412    3.4276    2.4441 H   0  0  0  0  0  0  0  0  0  0  0  0
    0.1193    3.1200    3.5479 H   0  0  0  0  0  0  0  0  0  0  0  0
    0.4174    3.7475    1.9089 H   0  0  0  0  0  0  0  0  0  0  0  0
  5  6  2  0  0  0  0
  5  7  1  0  0  0  0
  2  3  1  0  0  0  0
  2  4  1  0  0  0  0
  2  5  1  0  0  0  0
  1  2  1  0  0  0  0
 21 22  2  0  0  0  0
 21 23  1  0  0  0  0
 19 20  1  0  0  0  0
 17 18  2  0  0  0  0
 17 19  1  0  0  0  0
 14 15  1  0  0  0  0
 14 16  1  0  0  0  0
 14 17  1  0  0  0  0
 11 12  1  0  0  0  0
 11 13  1  0  0  0  0
 11 14  1  0  0  0  0
  9 10  1  0  0  0  0
  9 11  1  0  0  0  0
  9 21  1  0  0  0  0
  7  8  1  0  0  0  0
  7  9  1  0  0  0  0
 25 26  1  0  0  0  0
 25 27  1  0  0  0  0
 25 28  1  0  0  0  0
 23 24  1  0  0  0  0
 23 25  1  0  0  0  0
M  END
$$$$
default_name
  -OEChem-01062215323D

 28 27  0     1  0  0  0  0  0999 V2000
   -3.2133   -3.5565    1.2809 H   0  0  0  0  0  0  0  0  0  0  0  0
   -3.1873   -2.5755    0.8089 C   0  0  0  0  0  0  0  0  0  0  0  0
   -3.8793   -1.9065    1.3169 H   0  0  0  0  0  0  0  0  0  0  0  0
   -3.4623   -2.6685   -0.2401 H   0  0  0  0  0  0  0  0  0  0  0  0
   -1.7863   -2.0195    0.9119 C   0  0  0  0  0  0  0  0  0  0  0  0
   -0.9073   -2.6615    1.4699 O   0  0  0  0  0  0  0  0  0  0  0  0
   -1.5803   -0.8195    0.3749 N   0  0  0  0  0  0  0  0  0  0  0  0
   -2.3603   -0.3345   -0.0451 H   0  0  0  0  0  0  0  0  0  0  0  0
   -0.2933   -0.1205    0.3719 C   0  0  1  0  0  0  0  0  0  0  0  0
    0.3577   -0.5843    1.1143 H   0  0  0  0  0  0  0  0  0  0  0  0
    0.3613   -0.2794   -1.0156 C   0  0  0  0  0  0  0  0  0  0  0  0
   -0.3534    0.0577   -1.7683 H   0  0  0  0  0  0  0  0  0  0  0  0
    1.2424    0.3613   -1.0733 H   0  0  0  0  0  0  0  0  0  0  0  0
    0.7836   -1.7219   -1.3441 C   0  0  0  0  0  0  0  0  0  0  0  0
    1.5140   -2.0704   -0.6137 H   0  0  0  0  0  0  0  0  0  0  0  0
   -0.0926   -2.3682   -1.3084 H   0  0  0  0  0  0  0  0  0  0  0  0
    1.4036   -1.8408   -2.7326 C   0  0  0  0  0  0  0  0  0  0  0  0
    1.4490   -0.9433   -3.5585 O   0  0  0  0  0  0  0  0  0  0  0  0
    1.9189   -3.0466   -3.0361 O   0  0  0  0  0  0  0  0  0  0  0  0
    2.2511   -2.9597   -3.9313 H   0  0  0  0  0  0  0  0  0  0  0  0
   -0.4860    1.3537    0.7622 C   0  0  0  0  0  0  0  0  0  0  0  0
   -1.1991    2.0835    0.0762 O   0  0  0  0  0  0  0  0  0  0  0  0
    0.1568    1.7900    1.8521 N   0  0  0  0  0  0  0  0  0  0  0  0
    0.7063    1.1268    2.3778 H   0  0  0  0  0  0  0  0  0  0  0  0
    0.0937    3.1658    2.3411 C   0  0  0  0  0  0  0  0  0  0  0  0
   -0.9450    3.4440    2.5286 H   0  0  0  0  0  0  0  0  0  0  0  0
    0.6642    3.2660    3.2655 H   0  0  0  0  0  0  0  0  0  0  0  0
    0.5034    3.8433    1.5893 H   0  0  0  0  0  0  0  0  0  0  0  0
  5  6  2  0  0  0  0
  5  7  1  0  0  0  0
  2  3  1  0  0  0  0
  2  4  1  0  0  0  0
  2  5  1  0  0  0  0
  1  2  1  0  0  0  0
 21 22  2  0  0  0  0
 21 23  1  0  0  0  0
 19 20  1  0  0  0  0
 17 18  2  0  0  0  0
 17 19  1  0  0  0  0
 14 15  1  0  0  0  0
 14 16  1  0  0  0  0
 14 17  1  0  0  0  0
 11 12  1  0  0  0  0
 11 13  1  0  0  0  0
 11 14  1  0  0  0  0
  9 10  1  0  0  0  0
  9 11  1  0  0  0  0
  9 21  1  0  0  0  0
  7  8  1  0  0  0  0
  7  9  1  0  0  0  0
 25 26  1  0  0  0  0
 25 27  1  0  0  0  0
 25 28  1  0  0  0  0
 23 24  1  0  0  0  0
 23 25  1  0  0  0  0
M  END
$$$$
default_name
  -OEChem-01062215323D

 28 27  0     1  0  0  0  0  0999 V2000
   -3.2133   -3.5565    1.2809 H   0  0  0  0  0  0  0  0  0  0  0  0
   -3.1873   -2.5755    0.8089 C   0  0  0  0  0  0  0  0  0  0  0  0
   -3.8793   -1.9065    1.3169 H   0  0  0  0  0  0  0  0  0  0  0  0
   -3.4623   -2.6685   -0.2401 H   0  0  0  0  0  0  0  0  0  0  0  0
   -1.7863   -2.0195    0.9119 C   0  0  0  0  0  0  0  0  0  0  0  0
   -0.9073   -2.6615    1.4699 O   0  0  0  0  0  0  0  0  0  0  0  0
   -1.5803   -0.8195    0.3749 N   0  0  0  0  0  0  0  0  0  0  0  0
   -2.3603   -0.3345   -0.0451 H   0  0  0  0  0  0  0  0  0  0  0  0
   -0.2933   -0.1205    0.3719 C   0  0  1  0  0  0  0  0  0  0  0  0
    0.3577   -0.5843    1.1143 H   0  0  0  0  0  0  0  0  0  0  0  0
    0.3613   -0.2794   -1.0156 C   0  0  0  0  0  0  0  0  0  0  0  0
   -0.3534    0.0577   -1.7683 H   0  0  0  0  0  0  0  0  0  0  0  0
    1.2424    0.3613   -1.0733 H   0  0  0  0  0  0  0  0  0  0  0  0
    0.7836   -1.7219   -1.3441 C   0  0  0  0  0  0  0  0  0  0  0  0
    1.5140   -2.0704   -0.6137 H   0  0  0  0  0  0  0  0  0  0  0  0
   -0.0926   -2.3682   -1.3084 H   0  0  0  0  0  0  0  0  0  0  0  0
    1.4036   -1.8408   -2.7326 C   0  0  0  0  0  0  0  0  0  0  0  0
    1.4490   -0.9433   -3.5585 O   0  0  0  0  0  0  0  0  0  0  0  0
    1.9189   -3.0466   -3.0361 O   0  0  0  0  0  0  0  0  0  0  0  0
    2.2511   -2.9597   -3.9313 H   0  0  0  0  0  0  0  0  0  0  0  0
   -0.4860    1.3537    0.7622 C   0  0  0  0  0  0  0  0  0  0  0  0
   -1.3956    2.0096    0.2582 O   0  0  0  0  0  0  0  0  0  0  0  0
    0.3741    1.8728    1.6466 N   0  0  0  0  0  0  0  0  0  0  0  0
    1.0814    1.2667    2.0345 H   0  0  0  0  0  0  0  0  0  0  0  0
    0.3380    3.2610    2.1024 C   0  0  0  0  0  0  0  0  0  0  0  0
   -0.6389    3.4820    2.5363 H   0  0  0  0  0  0  0  0  0  0  0  0
    1.1108    3.4337    2.8528 H   0  0  0  0  0  0  0  0  0  0  0  0
    0.5009    3.9312    1.2562 H   0  0  0  0  0  0  0  0  0  0  0  0
  5  6  2  0  0  0  0
  5  7  1  0  0  0  0
  2  3  1  0  0  0  0
  2  4  1  0  0  0  0
  2  5  1  0  0  0  0
  1  2  1  0  0  0  0
 21 22  2  0  0  0  0
 21 23  1  0  0  0  0
 19 20  1  0  0  0  0
 17 18  2  0  0  0  0
 17 19  1  0  0  0  0
 14 15  1  0  0  0  0
 14 16  1  0  0  0  0
 14 17  1  0  0  0  0
 11 12  1  0  0  0  0
 11 13  1  0  0  0  0
 11 14  1  0  0  0  0
  9 10  1  0  0  0  0
  9 11  1  0  0  0  0
  9 21  1  0  0  0  0
  7  8  1  0  0  0  0
  7  9  1  0  0  0  0
 25 26  1  0  0  0  0
 25 27  1  0  0  0  0
 25 28  1  0  0  0  0
 23 24  1  0  0  0  0
 23 25  1  0  0  0  0
M  END
$$$$
default_name
  -OEChem-01062215323D

 28 27  0     1  0  0  0  0  0999 V2000
   -3.2133   -3.5565    1.2809 H   0  0  0  0  0  0  0  0  0  0  0  0
   -3.1873   -2.5755    0.8089 C   0  0  0  0  0  0  0  0  0  0  0  0
   -3.8793   -1.9065    1.3169 H   0  0  0  0  0  0  0  0  0  0  0  0
   -3.4623   -2.6685   -0.2401 H   0  0  0  0  0  0  0  0  0  0  0  0
   -1.7863   -2.0195    0.9119 C   0  0  0  0  0  0  0  0  0  0  0  0
   -0.9073   -2.6615    1.4699 O   0  0  0  0  0  0  0  0  0  0  0  0
   -1.5803   -0.8195    0.3749 N   0  0  0  0  0  0  0  0  0  0  0  0
   -2.3603   -0.3345   -0.0451 H   0  0  0  0  0  0  0  0  0  0  0  0
   -0.2933   -0.1205    0.3719 C   0  0  1  0  0  0  0  0  0  0  0  0
    0.3577   -0.5843    1.1143 H   0  0  0  0  0  0  0  0  0  0  0  0
    0.3613   -0.2794   -1.0156 C   0  0  0  0  0  0  0  0  0  0  0  0
   -0.3534    0.0577   -1.7683 H   0  0  0  0  0  0  0  0  0  0  0  0
    1.2424    0.3613   -1.0733 H   0  0  0  0  0  0  0  0  0  0  0  0
    0.7836   -1.7219   -1.3441 C   0  0  0  0  0  0  0  0  0  0  0  0
    1.5140   -2.0704   -0.6137 H   0  0  0  0  0  0  0  0  0  0  0  0
   -0.0926   -2.3682   -1.3084 H   0  0  0  0  0  0  0  0  0  0  0  0
    1.4036   -1.8408   -2.7326 C   0  0  0  0  0  0  0  0  0  0  0  0
    1.4490   -0.9433   -3.5585 O   0  0  0  0  0  0  0  0  0  0  0  0
    1.9189   -3.0466   -3.0361 O   0  0  0  0  0  0  0  0  0  0  0  0
    2.2511   -2.9597   -3.9313 H   0  0  0  0  0  0  0  0  0  0  0  0
   -0.4860    1.3537    0.7622 C   0  0  0  0  0  0  0  0  0  0  0  0
   -1.5355    1.9313    0.4852 O   0  0  0  0  0  0  0  0  0  0  0  0
    0.5276    1.9605    1.3914 N   0  0  0  0  0  0  0  0  0  0  0  0
    1.3494    1.4154    1.6053 H   0  0  0  0  0  0  0  0  0  0  0  0
    0.5085    3.3611    1.8082 C   0  0  0  0  0  0  0  0  0  0  0  0
   -0.3439    3.5390    2.4664 H   0  0  0  0  0  0  0  0  0  0  0  0
    1.4288    3.6115    2.3378 H   0  0  0  0  0  0  0  0  0  0  0  0
    0.4100    4.0051    0.9321 H   0  0  0  0  0  0  0  0  0  0  0  0
  5  6  2  0  0  0  0
  5  7  1  0  0  0  0
  2  3  1  0  0  0  0
  2  4  1  0  0  0  0
  2  5  1  0  0  0  0
  1  2  1  0  0  0  0
 21 22  2  0  0  0  0
 21 23  1  0  0  0  0
 19 20  1  0  0  0  0
 17 18  2  0  0  0  0
 17 19  1  0  0  0  0
 14 15  1  0  0  0  0
 14 16  1  0  0  0  0
 14 17  1  0  0  0  0
 11 12  1  0  0  0  0
 11 13  1  0  0  0  0
 11 14  1  0  0  0  0
  9 10  1  0  0  0  0
  9 11  1  0  0  0  0
  9 21  1  0  0  0  0
  7  8  1  0  0  0  0
  7  9  1  0  0  0  0
 25 26  1  0  0  0  0
 25 27  1  0  0  0  0
 25 28  1  0  0  0  0
 23 24  1  0  0  0  0
 23 25  1  0  0  0  0
M  END
$$$$
default_name
  -OEChem-01062215323D

 28 27  0     1  0  0  0  0  0999 V2000
   -3.2133   -3.5565    1.2809 H   0  0  0  0  0  0  0  0  0  0  0  0
   -3.1873   -2.5755    0.8089 C   0  0  0  0  0  0  0  0  0  0  0  0
   -3.8793   -1.9065    1.3169 H   0  0  0  0  0  0  0  0  0  0  0  0
   -3.4623   -2.6685   -0.2401 H   0  0  0  0  0  0  0  0  0  0  0  0
   -1.7863   -2.0195    0.9119 C   0  0  0  0  0  0  0  0  0  0  0  0
   -0.9073   -2.6615    1.4699 O   0  0  0  0  0  0  0  0  0  0  0  0
   -1.5803   -0.8195    0.3749 N   0  0  0  0  0  0  0  0  0  0  0  0
   -2.3603   -0.3345   -0.0451 H   0  0  0  0  0  0  0  0  0  0  0  0
   -0.2933   -0.1205    0.3719 C   0  0  1  0  0  0  0  0  0  0  0  0
    0.3577   -0.5843    1.1143 H   0  0  0  0  0  0  0  0  0  0  0  0
    0.3613   -0.2794   -1.0156 C   0  0  0  0  0  0  0  0  0  0  0  0
   -0.3534    0.0577   -1.7683 H   0  0  0  0  0  0  0  0  0  0  0  0
    1.2424    0.3613   -1.0733 H   0  0  0  0  0  0  0  0  0  0  0  0
    0.7836   -1.7219   -1.3441 C   0  0  0  0  0  0  0  0  0  0  0  0
    1.5140   -2.0704   -0.6137 H   0  0  0  0  0  0  0  0  0  0  0  0
   -0.0926   -2.3682   -1.3084 H   0  0  0  0  0  0  0  0  0  0  0  0
    1.4036   -1.8408   -2.7326 C   0  0  0  0  0  0  0  0  0  0  0  0
    1.4490   -0.9433   -3.5585 O   0  0  0  0  0  0  0  0  0  0  0  0
    1.9189   -3.0466   -3.0361 O   0  0  0  0  0  0  0  0  0  0  0  0
    2.2511   -2.9597   -3.9313 H   0  0  0  0  0  0  0  0  0  0  0  0
   -0.4860    1.3537    0.7622 C   0  0  0  0  0  0  0  0  0  0  0  0
   -1.6090    1.8537    0.7417 O   0  0  0  0  0  0  0  0  0  0  0  0
    0.6068    2.0469    1.1040 N   0  0  0  0  0  0  0  0  0  0  0  0
    1.4919    1.5626    1.1193 H   0  0  0  0  0  0  0  0  0  0  0  0
    0.5935    3.4595    1.4785 C   0  0  0  0  0  0  0  0  0  0  0  0
   -0.0800    3.6112    2.3239 H   0  0  0  0  0  0  0  0  0  0  0  0
    1.5963    3.7876    1.7557 H   0  0  0  0  0  0  0  0  0  0  0  0
    0.2368    4.0600    0.6393 H   0  0  0  0  0  0  0  0  0  0  0  0
  5  6  2  0  0  0  0
  5  7  1  0  0  0  0
  2  3  1  0  0  0  0
  2  4  1  0  0  0  0
  2  5  1  0  0  0  0
  1  2  1  0  0  0  0
 21 22  2  0  0  0  0
 21 23  1  0  0  0  0
 19 20  1  0  0  0  0
 17 18  2  0  0  0  0
 17 19  1  0  0  0  0
 14 15  1  0  0  0  0
 14 16  1  0  0  0  0
 14 17  1  0  0  0  0
 11 12  1  0  0  0  0
 11 13  1  0  0  0  0
 11 14  1  0  0  0  0
  9 10  1  0  0  0  0
  9 11  1  0  0  0  0
  9 21  1  0  0  0  0
  7  8  1  0  0  0  0
  7  9  1  0  0  0  0
 25 26  1  0  0  0  0
 25 27  1  0  0  0  0
 25 28  1  0  0  0  0
 23 24  1  0  0  0  0
 23 25  1  0  0  0  0
M  END
$$$$
default_name
  -OEChem-01062215323D

 28 27  0     1  0  0  0  0  0999 V2000
   -3.2133   -3.5565    1.2809 H   0  0  0  0  0  0  0  0  0  0  0  0
   -3.1873   -2.5755    0.8089 C   0  0  0  0  0  0  0  0  0  0  0  0
   -3.8793   -1.9065    1.3169 H   0  0  0  0  0  0  0  0  0  0  0  0
   -3.4623   -2.6685   -0.2401 H   0  0  0  0  0  0  0  0  0  0  0  0
   -1.7863   -2.0195    0.9119 C   0  0  0  0  0  0  0  0  0  0  0  0
   -0.9073   -2.6615    1.4699 O   0  0  0  0  0  0  0  0  0  0  0  0
   -1.5803   -0.8195    0.3749 N   0  0  0  0  0  0  0  0  0  0  0  0
   -2.3603   -0.3345   -0.0451 H   0  0  0  0  0  0  0  0  0  0  0  0
   -0.2933   -0.1205    0.3719 C   0  0  1  0  0  0  0  0  0  0  0  0
    0.4374   -0.7320    0.9031 H   0  0  0  0  0  0  0  0  0  0  0  0
    0.1825    0.0494   -1.0853 C   0  0  0  0  0  0  0  0  0  0  0  0
   -0.6146    0.5390   -1.6474 H   0  0  0  0  0  0  0  0  0  0  0  0
    1.0592    0.6985   -1.1043 H   0  0  0  0  0  0  0  0  0  0  0  0
    0.5397   -1.2746   -1.7829 C   0  0  0  0  0  0  0  0  0  0  0  0
    1.3494   -1.7700   -1.2469 H   0  0  0  0  0  0  0  0  0  0  0  0
   -0.3349   -1.9241   -1.7871 H   0  0  0  0  0  0  0  0  0  0  0  0
    0.9816   -1.0660   -3.2277 C   0  0  0  0  0  0  0  0  0  0  0  0
    0.9380   -0.0036   -3.8271 O   0  0  0  0  0  0  0  0  0  0  0  0
    1.4376   -2.1640   -3.8588 O   0  0  0  0  0  0  0  0  0  0  0  0
    1.6580   -1.8712   -4.7448 H   0  0  0  0  0  0  0  0  0  0  0  0
   -0.4145    1.2234    1.1079 C   0  0  0  0  0  0  0  0  0  0  0  0
   -1.4941    1.5689    1.5841 O   0  0  0  0  0  0  0  0  0  0  0  0
    0.6859    1.9813    1.1889 N   0  0  0  0  0  0  0  0  0  0  0  0
    1.5417    1.6212    0.7938 H   0  0  0  0  0  0  0  0  0  0  0  0
    0.7292    3.2913    1.8353 C   0  0  0  0  0  0  0  0  0  0  0  0
    0.4036    3.2020    2.8733 H   0  0  0  0  0  0  0  0  0  0  0  0
    1.7433    3.6926    1.8110 H   0  0  0  0  0  0  0  0  0  0  0  0
    0.0567    3.9794    1.3193 H   0  0  0  0  0  0  0  0  0  0  0  0
  5  6  2  0  0  0  0
  5  7  1  0  0  0  0
  2  3  1  0  0  0  0
  2  4  1  0  0  0  0
  2  5  1  0  0  0  0
  1  2  1  0  0  0  0
 21 22  2  0  0  0  0
 21 23  1  0  0  0  0
 19 20  1  0  0  0  0
 17 18  2  0  0  0  0
 17 19  1  0  0  0  0
 14 15  1  0  0  0  0
 14 16  1  0  0  0  0
 14 17  1  0  0  0  0
 11 12  1  0  0  0  0
 11 13  1  0  0  0  0
 11 14  1  0  0  0  0
  9 10  1  0  0  0  0
  9 11  1  0  0  0  0
  9 21  1  0  0  0  0
  7  8  1  0  0  0  0
  7  9  1  0  0  0  0
 25 26  1  0  0  0  0
 25 27  1  0  0  0  0
 25 28  1  0  0  0  0
 23 24  1  0  0  0  0
 23 25  1  0  0  0  0
M  END
$$$$
default_name
  -OEChem-01062215323D

 28 27  0     1  0  0  0  0  0999 V2000
   -3.2133   -3.5565    1.2809 H   0  0  0  0  0  0  0  0  0  0  0  0
   -3.1873   -2.5755    0.8089 C   0  0  0  0  0  0  0  0  0  0  0  0
   -3.8793   -1.9065    1.3169 H   0  0  0  0  0  0  0  0  0  0  0  0
   -3.4623   -2.6685   -0.2401 H   0  0  0  0  0  0  0  0  0  0  0  0
   -1.7863   -2.0195    0.9119 C   0  0  0  0  0  0  0  0  0  0  0  0
   -0.9073   -2.6615    1.4699 O   0  0  0  0  0  0  0  0  0  0  0  0
   -1.5803   -0.8195    0.3749 N   0  0  0  0  0  0  0  0  0  0  0  0
   -2.3603   -0.3345   -0.0451 H   0  0  0  0  0  0  0  0  0  0  0  0
   -0.2933   -0.1205    0.3719 C   0  0  1  0  0  0  0  0  0  0  0  0
    0.4374   -0.7320    0.9031 H   0  0  0  0  0  0  0  0  0  0  0  0
    0.1825    0.0494   -1.0853 C   0  0  0  0  0  0  0  0  0  0  0  0
   -0.6146    0.5390   -1.6474 H   0  0  0  0  0  0  0  0  0  0  0  0
    1.0592    0.6985   -1.1043 H   0  0  0  0  0  0  0  0  0  0  0  0
    0.5397   -1.2746   -1.7829 C   0  0  0  0  0  0  0  0  0  0  0  0
    1.3494   -1.7700   -1.2469 H   0  0  0  0  0  0  0  0  0  0  0  0
   -0.3349   -1.9241   -1.7871 H   0  0  0  0  0  0  0  0  0  0  0  0
    0.9816   -1.0660   -3.2277 C   0  0  0  0  0  0  0  0  0  0  0  0
    0.9380   -0.0036   -3.8271 O   0  0  0  0  0  0  0  0  0  0  0  0
    1.4376   -2.1640   -3.8588 O   0  0  0  0  0  0  0  0  0  0  0  0
    1.6580   -1.8712   -4.7448 H   0  0  0  0  0  0  0  0  0  0  0  0
   -0.4145    1.2234    1.1079 C   0  0  0  0  0  0  0  0  0  0  0  0
   -1.3940    1.4514    1.8152 O   0  0  0  0  0  0  0  0  0  0  0  0
    0.5711    2.1118    0.9317 N   0  0  0  0  0  0  0  0  0  0  0  0
    1.3545    1.8449    0.3544 H   0  0  0  0  0  0  0  0  0  0  0  0
    0.5930    3.4390    1.5433 C   0  0  0  0  0  0  0  0  0  0  0  0
    0.5233    3.3468    2.6286 H   0  0  0  0  0  0  0  0  0  0  0  0
    1.5167    3.9595    1.2863 H   0  0  0  0  0  0  0  0  0  0  0  0
   -0.2597    4.0219    1.1896 H   0  0  0  0  0  0  0  0  0  0  0  0
  5  6  2  0  0  0  0
  5  7  1  0  0  0  0
  2  3  1  0  0  0  0
  2  4  1  0  0  0  0
  2  5  1  0  0  0  0
  1  2  1  0  0  0  0
 21 22  2  0  0  0  0
 21 23  1  0  0  0  0
 19 20  1  0  0  0  0
 17 18  2  0  0  0  0
 17 19  1  0  0  0  0
 14 15  1  0  0  0  0
 14 16  1  0  0  0  0
 14 17  1  0  0  0  0
 11 12  1  0  0  0  0
 11 13  1  0  0  0  0
 11 14  1  0  0  0  0
  9 10  1  0  0  0  0
  9 11  1  0  0  0  0
  9 21  1  0  0  0  0
  7  8  1  0  0  0  0
  7  9  1  0  0  0  0
 25 26  1  0  0  0  0
 25 27  1  0  0  0  0
 25 28  1  0  0  0  0
 23 24  1  0  0  0  0
 23 25  1  0  0  0  0
M  END
$$$$
default_name
  -OEChem-01062215323D

 28 27  0     1  0  0  0  0  0999 V2000
   -3.2133   -3.5565    1.2809 H   0  0  0  0  0  0  0  0  0  0  0  0
   -3.1873   -2.5755    0.8089 C   0  0  0  0  0  0  0  0  0  0  0  0
   -3.8793   -1.9065    1.3169 H   0  0  0  0  0  0  0  0  0  0  0  0
   -3.4623   -2.6685   -0.2401 H   0  0  0  0  0  0  0  0  0  0  0  0
   -1.7863   -2.0195    0.9119 C   0  0  0  0  0  0  0  0  0  0  0  0
   -0.9073   -2.6615    1.4699 O   0  0  0  0  0  0  0  0  0  0  0  0
   -1.5803   -0.8195    0.3749 N   0  0  0  0  0  0  0  0  0  0  0  0
   -2.3603   -0.3345   -0.0451 H   0  0  0  0  0  0  0  0  0  0  0  0
   -0.2933   -0.1205    0.3719 C   0  0  1  0  0  0  0  0  0  0  0  0
    0.4374   -0.7320    0.9031 H   0  0  0  0  0  0  0  0  0  0  0  0
    0.1825    0.0494   -1.0853 C   0  0  0  0  0  0  0  0  0  0  0  0
   -0.6146    0.5390   -1.6474 H   0  0  0  0  0  0  0  0  0  0  0  0
    1.0592    0.6985   -1.1043 H   0  0  0  0  0  0  0  0  0  0  0  0
    0.5397   -1.2746   -1.7829 C   0  0  0  0  0  0  0  0  0  0  0  0
    1.3494   -1.7700   -1.2469 H   0  0  0  0  0  0  0  0  0  0  0  0
   -0.3349   -1.9241   -1.7871 H   0  0  0  0  0  0  0  0  0  0  0  0
    0.9816   -1.0660   -3.2277 C   0  0  0  0  0  0  0  0  0  0  0  0
    0.9380   -0.0036   -3.8271 O   0  0  0  0  0  0  0  0  0  0  0  0
    1.4376   -2.1640   -3.8588 O   0  0  0  0  0  0  0  0  0  0  0  0
    1.6580   -1.8712   -4.7448 H   0  0  0  0  0  0  0  0  0  0  0  0
   -0.4145    1.2234    1.1079 C   0  0  0  0  0  0  0  0  0  0  0  0
   -1.2304    1.3550    2.0182 O   0  0  0  0  0  0  0  0  0  0  0  0
    0.3860    2.2184    0.7066 N   0  0  0  0  0  0  0  0  0  0  0  0
    1.0466    2.0289   -0.0322 H   0  0  0  0  0  0  0  0  0  0  0  0
    0.3771    3.5588    1.2889 C   0  0  0  0  0  0  0  0  0  0  0  0
    0.5656    3.4965    2.3622 H   0  0  0  0  0  0  0  0  0  0  0  0
    1.1459    4.1785    0.8253 H   0  0  0  0  0  0  0  0  0  0  0  0
   -0.5999    4.0210    1.1351 H   0  0  0  0  0  0  0  0  0  0  0  0
  5  6  2  0  0  0  0
  5  7  1  0  0  0  0
  2  3  1  0  0  0  0
  2  4  1  0  0  0  0
  2  5  1  0  0  0  0
  1  2  1  0  0  0  0
 21 22  2  0  0  0  0
 21 23  1  0  0  0  0
 19 20  1  0  0  0  0
 17 18  2  0  0  0  0
 17 19  1  0  0  0  0
 14 15  1  0  0  0  0
 14 16  1  0  0  0  0
 14 17  1  0  0  0  0
 11 12  1  0  0  0  0
 11 13  1  0  0  0  0
 11 14  1  0  0  0  0
  9 10  1  0  0  0  0
  9 11  1  0  0  0  0
  9 21  1  0  0  0  0
  7  8  1  0  0  0  0
  7  9  1  0  0  0  0
 25 26  1  0  0  0  0
 25 27  1  0  0  0  0
 25 28  1  0  0  0  0
 23 24  1  0  0  0  0
 23 25  1  0  0  0  0
M  END
$$$$
default_name
  -OEChem-01062215323D

 28 27  0     1  0  0  0  0  0999 V2000
   -3.2133   -3.5565    1.2809 H   0  0  0  0  0  0  0  0  0  0  0  0
   -3.1873   -2.5755    0.8089 C   0  0  0  0  0  0  0  0  0  0  0  0
   -3.8793   -1.9065    1.3169 H   0  0  0  0  0  0  0  0  0  0  0  0
   -3.4623   -2.6685   -0.2401 H   0  0  0  0  0  0  0  0  0  0  0  0
   -1.7863   -2.0195    0.9119 C   0  0  0  0  0  0  0  0  0  0  0  0
   -0.9073   -2.6615    1.4699 O   0  0  0  0  0  0  0  0  0  0  0  0
   -1.5803   -0.8195    0.3749 N   0  0  0  0  0  0  0  0  0  0  0  0
   -2.3603   -0.3345   -0.0451 H   0  0  0  0  0  0  0  0  0  0  0  0
   -0.2933   -0.1205    0.3719 C   0  0  1  0  0  0  0  0  0  0  0  0
    0.4374   -0.7320    0.9031 H   0  0  0  0  0  0  0  0  0  0  0  0
    0.1825    0.0494   -1.0853 C   0  0  0  0  0  0  0  0  0  0  0  0
   -0.6146    0.5390   -1.6474 H   0  0  0  0  0  0  0  0  0  0  0  0
    1.0592    0.6985   -1.1043 H   0  0  0  0  0  0  0  0  0  0  0  0
    0.5397   -1.2746   -1.7829 C   0  0  0  0  0  0  0  0  0  0  0  0
    1.3494   -1.7700   -1.2469 H   0  0  0  0  0  0  0  0  0  0  0  0
   -0.3349   -1.9241   -1.7871 H   0  0  0  0  0  0  0  0  0  0  0  0
    0.9816   -1.0660   -3.2277 C   0  0  0  0  0  0  0  0  0  0  0  0
    0.9380   -0.0036   -3.8271 O   0  0  0  0  0  0  0  0  0  0  0  0
    1.4376   -2.1640   -3.8588 O   0  0  0  0  0  0  0  0  0  0  0  0
    1.6580   -1.8712   -4.7448 H   0  0  0  0  0  0  0  0  0  0  0  0
   -0.4145    1.2234    1.1079 C   0  0  0  0  0  0  0  0  0  0  0  0
   -1.0146    1.2863    2.1792 O   0  0  0  0  0  0  0  0  0  0  0  0
    0.1429    2.2938    0.5288 N   0  0  0  0  0  0  0  0  0  0  0  0
    0.6389    2.1605   -0.3398 H   0  0  0  0  0  0  0  0  0  0  0  0
    0.0961    3.6426    1.0897 C   0  0  0  0  0  0  0  0  0  0  0  0
    0.5276    3.6409    2.0923 H   0  0  0  0  0  0  0  0  0  0  0  0
    0.6564    4.3347    0.4595 H   0  0  0  0  0  0  0  0  0  0  0  0
   -0.9408    3.9770    1.1594 H   0  0  0  0  0  0  0  0  0  0  0  0
  5  6  2  0  0  0  0
  5  7  1  0  0  0  0
  2  3  1  0  0  0  0
  2  4  1  0  0  0  0
  2  5  1  0  0  0  0
  1  2  1  0  0  0  0
 21 22  2  0  0  0  0
 21 23  1  0  0  0  0
 19 20  1  0  0  0  0
 17 18  2  0  0  0  0
 17 19  1  0  0  0  0
 14 15  1  0  0  0  0
 14 16  1  0  0  0  0
 14 17  1  0  0  0  0
 11 12  1  0  0  0  0
 11 13  1  0  0  0  0
 11 14  1  0  0  0  0
  9 10  1  0  0  0  0
  9 11  1  0  0  0  0
  9 21  1  0  0  0  0
  7  8  1  0  0  0  0
  7  9  1  0  0  0  0
 25 26  1  0  0  0  0
 25 27  1  0  0  0  0
 25 28  1  0  0  0  0
 23 24  1  0  0  0  0
 23 25  1  0  0  0  0
M  END
$$$$
default_name
  -OEChem-01062215323D

 28 27  0     1  0  0  0  0  0999 V2000
   -3.2133   -3.5565    1.2809 H   0  0  0  0  0  0  0  0  0  0  0  0
   -3.1873   -2.5755    0.8089 C   0  0  0  0  0  0  0  0  0  0  0  0
   -3.8793   -1.9065    1.3169 H   0  0  0  0  0  0  0  0  0  0  0  0
   -3.4623   -2.6685   -0.2401 H   0  0  0  0  0  0  0  0  0  0  0  0
   -1.7863   -2.0195    0.9119 C   0  0  0  0  0  0  0  0  0  0  0  0
   -0.9073   -2.6615    1.4699 O   0  0  0  0  0  0  0  0  0  0  0  0
   -1.5803   -0.8195    0.3749 N   0  0  0  0  0  0  0  0  0  0  0  0
   -2.3603   -0.3345   -0.0451 H   0  0  0  0  0  0  0  0  0  0  0  0
   -0.2933   -0.1205    0.3719 C   0  0  1  0  0  0  0  0  0  0  0  0
    0.4374   -0.7320    0.9031 H   0  0  0  0  0  0  0  0  0  0  0  0
    0.1825    0.0494   -1.0853 C   0  0  0  0  0  0  0  0  0  0  0  0
   -0.6146    0.5390   -1.6474 H   0  0  0  0  0  0  0  0  0  0  0  0
    1.0592    0.6985   -1.1043 H   0  0  0  0  0  0  0  0  0  0  0  0
    0.5397   -1.2746   -1.7829 C   0  0  0  0  0  0  0  0  0  0  0  0
    1.3494   -1.7700   -1.2469 H   0  0  0  0  0  0  0  0  0  0  0  0
   -0.3349   -1.9241   -1.7871 H   0  0  0  0  0  0  0  0  0  0  0  0
    0.9816   -1.0660   -3.2277 C   0  0  0  0  0  0  0  0  0  0  0  0
    0.9380   -0.0036   -3.8271 O   0  0  0  0  0  0  0  0  0  0  0  0
    1.4376   -2.1640   -3.8588 O   0  0  0  0  0  0  0  0  0  0  0  0
    1.6580   -1.8712   -4.7448 H   0  0  0  0  0  0  0  0  0  0  0  0
   -0.4145    1.2234    1.1079 C   0  0  0  0  0  0  0  0  0  0  0  0
   -0.7612    1.2500    2.2872 O   0  0  0  0  0  0  0  0  0  0  0  0
   -0.1414    2.3329    0.4106 N   0  0  0  0  0  0  0  0  0  0  0  0
    0.1591    2.2309   -0.5472 H   0  0  0  0  0  0  0  0  0  0  0  0
   -0.2307    3.6846    0.9591 C   0  0  0  0  0  0  0  0  0  0  0  0
    0.4120    3.7702    1.8372 H   0  0  0  0  0  0  0  0  0  0  0  0
    0.0813    4.4175    0.2137 H   0  0  0  0  0  0  0  0  0  0  0  0
   -1.2591    3.8927    1.2609 H   0  0  0  0  0  0  0  0  0  0  0  0
  5  6  2  0  0  0  0
  5  7  1  0  0  0  0
  2  3  1  0  0  0  0
  2  4  1  0  0  0  0
  2  5  1  0  0  0  0
  1  2  1  0  0  0  0
 21 22  2  0  0  0  0
 21 23  1  0  0  0  0
 19 20  1  0  0  0  0
 17 18  2  0  0  0  0
 17 19  1  0  0  0  0
 14 15  1  0  0  0  0
 14 16  1  0  0  0  0
 14 17  1  0  0  0  0
 11 12  1  0  0  0  0
 11 13  1  0  0  0  0
 11 14  1  0  0  0  0
  9 10  1  0  0  0  0
  9 11  1  0  0  0  0
  9 21  1  0  0  0  0
  7  8  1  0  0  0  0
  7  9  1  0  0  0  0
 25 26  1  0  0  0  0
 25 27  1  0  0  0  0
 25 28  1  0  0  0  0
 23 24  1  0  0  0  0
 23 25  1  0  0  0  0
M  END
$$$$
default_name
  -OEChem-01062215323D

 28 27  0     1  0  0  0  0  0999 V2000
   -3.2133   -3.5565    1.2809 H   0  0  0  0  0  0  0  0  0  0  0  0
   -3.1873   -2.5755    0.8089 C   0  0  0  0  0  0  0  0  0  0  0  0
   -3.8793   -1.9065    1.3169 H   0  0  0  0  0  0  0  0  0  0  0  0
   -3.4623   -2.6685   -0.2401 H   0  0  0  0  0  0  0  0  0  0  0  0
   -1.7863   -2.0195    0.9119 C   0  0  0  0  0  0  0  0  0  0  0  0
   -0.9073   -2.6615    1.4699 O   0  0  0  0  0  0  0  0  0  0  0  0
   -1.5803   -0.8195    0.3749 N   0  0  0  0  0  0  0  0  0  0  0  0
   -2.3603   -0.3345   -0.0451 H   0  0  0  0  0  0  0  0  0  0  0  0
   -0.2933   -0.1205    0.3719 C   0  0  1  0  0  0  0  0  0  0  0  0
    0.4374   -0.7320    0.9031 H   0  0  0  0  0  0  0  0  0  0  0  0
    0.1825    0.0494   -1.0853 C   0  0  0  0  0  0  0  0  0  0  0  0
   -0.6146    0.5390   -1.6474 H   0  0  0  0  0  0  0  0  0  0  0  0
    1.0592    0.6985   -1.1043 H   0  0  0  0  0  0  0  0  0  0  0  0
    0.5397   -1.2746   -1.7829 C   0  0  0  0  0  0  0  0  0  0  0  0
    1.3494   -1.7700   -1.2469 H   0  0  0  0  0  0  0  0  0  0  0  0
   -0.3349   -1.9241   -1.7871 H   0  0  0  0  0  0  0  0  0  0  0  0
    0.9816   -1.0660   -3.2277 C   0  0  0  0  0  0  0  0  0  0  0  0
    0.9380   -0.0036   -3.8271 O   0  0  0  0  0  0  0  0  0  0  0  0
    1.4376   -2.1640   -3.8588 O   0  0  0  0  0  0  0  0  0  0  0  0
    1.6580   -1.8712   -4.7448 H   0  0  0  0  0  0  0  0  0  0  0  0
   -0.4145    1.2234    1.1079 C   0  0  0  0  0  0  0  0  0  0  0  0
   -0.4874    1.2485    2.3350 O   0  0  0  0  0  0  0  0  0  0  0  0
   -0.4477    2.3330    0.3600 N   0  0  0  0  0  0  0  0  0  0  0  0
   -0.3600    2.2351   -0.6405 H   0  0  0  0  0  0  0  0  0  0  0  0
   -0.5812    3.6820    0.9061 C   0  0  0  0  0  0  0  0  0  0  0  0
    0.2265    3.8755    1.6143 H   0  0  0  0  0  0  0  0  0  0  0  0
   -0.5400    4.4211    0.1047 H   0  0  0  0  0  0  0  0  0  0  0  0
   -1.5332    3.7739    1.4327 H   0  0  0  0  0  0  0  0  0  0  0  0
  5  6  2  0  0  0  0
  5  7  1  0  0  0  0
  2  3  1  0  0  0  0
  2  4  1  0  0  0  0
  2  5  1  0  0  0  0
  1  2  1  0  0  0  0
 21 22  2  0  0  0  0
 21 23  1  0  0  0  0
 19 20  1  0  0  0  0
 17 18  2  0  0  0  0
 17 19  1  0  0  0  0
 14 15  1  0  0  0  0
 14 16  1  0  0  0  0
 14 17  1  0  0  0  0
 11 12  1  0  0  0  0
 11 13  1  0  0  0  0
 11 14  1  0  0  0  0
  9 10  1  0  0  0  0
  9 11  1  0  0  0  0
  9 21  1  0  0  0  0
  7  8  1  0  0  0  0
  7  9  1  0  0  0  0
 25 26  1  0  0  0  0
 25 27  1  0  0  0  0
 25 28  1  0  0  0  0
 23 24  1  0  0  0  0
 23 25  1  0  0  0  0
M  END
$$$$
default_name
  -OEChem-01062215323D

 28 27  0     1  0  0  0  0  0999 V2000
   -3.2133   -3.5565    1.2809 H   0  0  0  0  0  0  0  0  0  0  0  0
   -3.1873   -2.5755    0.8089 C   0  0  0  0  0  0  0  0  0  0  0  0
   -3.8793   -1.9065    1.3169 H   0  0  0  0  0  0  0  0  0  0  0  0
   -3.4623   -2.6685   -0.2401 H   0  0  0  0  0  0  0  0  0  0  0  0
   -1.7863   -2.0195    0.9119 C   0  0  0  0  0  0  0  0  0  0  0  0
   -0.9073   -2.6615    1.4699 O   0  0  0  0  0  0  0  0  0  0  0  0
   -1.5803   -0.8195    0.3749 N   0  0  0  0  0  0  0  0  0  0  0  0
   -2.3603   -0.3345   -0.0451 H   0  0  0  0  0  0  0  0  0  0  0  0
   -0.2933   -0.1205    0.3719 C   0  0  1  0  0  0  0  0  0  0  0  0
    0.4374   -0.7320    0.9031 H   0  0  0  0  0  0  0  0  0  0  0  0
    0.1825    0.0494   -1.0853 C   0  0  0  0  0  0  0  0  0  0  0  0
   -0.6146    0.5390   -1.6474 H   0  0  0  0  0  0  0  0  0  0  0  0
    1.0592    0.6985   -1.1043 H   0  0  0  0  0  0  0  0  0  0  0  0
    0.5397   -1.2746   -1.7829 C   0  0  0  0  0  0  0  0  0  0  0  0
    1.3494   -1.7700   -1.2469 H   0  0  0  0  0  0  0  0  0  0  0  0
   -0.3349   -1.9241   -1.7871 H   0  0  0  0  0  0  0  0  0  0  0  0
    0.9816   -1.0660   -3.2277 C   0  0  0  0  0  0  0  0  0  0  0  0
    0.9380   -0.0036   -3.8271 O   0  0  0  0  0  0  0  0  0  0  0  0
    1.4376   -2.1640   -3.8588 O   0  0  0  0  0  0  0  0  0  0  0  0
    1.6580   -1.8712   -4.7448 H   0  0  0  0  0  0  0  0  0  0  0  0
   -0.4145    1.2234    1.1079 C   0  0  0  0  0  0  0  0  0  0  0  0
   -0.2120    1.2820    2.3192 O   0  0  0  0  0  0  0  0  0  0  0  0
   -0.7549    2.2941    0.3804 N   0  0  0  0  0  0  0  0  0  0  0  0
   -0.8830    2.1730   -0.6132 H   0  0  0  0  0  0  0  0  0  0  0  0
   -0.9315    3.6350    0.9342 C   0  0  0  0  0  0  0  0  0  0  0  0
   -0.0162    3.9497    1.4389 H   0  0  0  0  0  0  0  0  0  0  0  0
   -1.1653    4.3454    0.1400 H   0  0  0  0  0  0  0  0  0  0  0  0
   -1.7442    3.6287    1.6632 H   0  0  0  0  0  0  0  0  0  0  0  0
  5  6  2  0  0  0  0
  5  7  1  0  0  0  0
  2  3  1  0  0  0  0
  2  4  1  0  0  0  0
  2  5  1  0  0  0  0
  1  2  1  0  0  0  0
 21 22  2  0  0  0  0
 21 23  1  0  0  0  0
 19 20  1  0  0  0  0
 17 18  2  0  0  0  0
 17 19  1  0  0  0  0
 14 15  1  0  0  0  0
 14 16  1  0  0  0  0
 14 17  1  0  0  0  0
 11 12  1  0  0  0  0
 11 13  1  0  0  0  0
 11 14  1  0  0  0  0
  9 10  1  0  0  0  0
  9 11  1  0  0  0  0
  9 21  1  0  0  0  0
  7  8  1  0  0  0  0
  7  9  1  0  0  0  0
 25 26  1  0  0  0  0
 25 27  1  0  0  0  0
 25 28  1  0  0  0  0
 23 24  1  0  0  0  0
 23 25  1  0  0  0  0
M  END
$$$$
default_name
  -OEChem-01062215323D

 28 27  0     1  0  0  0  0  0999 V2000
   -3.2133   -3.5565    1.2809 H   0  0  0  0  0  0  0  0  0  0  0  0
   -3.1873   -2.5755    0.8089 C   0  0  0  0  0  0  0  0  0  0  0  0
   -3.8793   -1.9065    1.3169 H   0  0  0  0  0  0  0  0  0  0  0  0
   -3.4623   -2.6685   -0.2401 H   0  0  0  0  0  0  0  0  0  0  0  0
   -1.7863   -2.0195    0.9119 C   0  0  0  0  0  0  0  0  0  0  0  0
   -0.9073   -2.6615    1.4699 O   0  0  0  0  0  0  0  0  0  0  0  0
   -1.5803   -0.8195    0.3749 N   0  0  0  0  0  0  0  0  0  0  0  0
   -2.3603   -0.3345   -0.0451 H   0  0  0  0  0  0  0  0  0  0  0  0
   -0.2933   -0.1205    0.3719 C   0  0  1  0  0  0  0  0  0  0  0  0
    0.4374   -0.7320    0.9031 H   0  0  0  0  0  0  0  0  0  0  0  0
    0.1825    0.0494   -1.0853 C   0  0  0  0  0  0  0  0  0  0  0  0
   -0.6146    0.5390   -1.6474 H   0  0  0  0  0  0  0  0  0  0  0  0
    1.0592    0.6985   -1.1043 H   0  0  0  0  0  0  0  0  0  0  0  0
    0.5397   -1.2746   -1.7829 C   0  0  0  0  0  0  0  0  0  0  0  0
    1.3494   -1.7700   -1.2469 H   0  0  0  0  0  0  0  0  0  0  0  0
   -0.3349   -1.9241   -1.7871 H   0  0  0  0  0  0  0  0  0  0  0  0
    0.9816   -1.0660   -3.2277 C   0  0  0  0  0  0  0  0  0  0  0  0
    0.9380   -0.0036   -3.8271 O   0  0  0  0  0  0  0  0  0  0  0  0
    1.4376   -2.1640   -3.8588 O   0  0  0  0  0  0  0  0  0  0  0  0
    1.6580   -1.8712   -4.7448 H   0  0  0  0  0  0  0  0  0  0  0  0
   -0.4145    1.2234    1.1079 C   0  0  0  0  0  0  0  0  0  0  0  0
    0.0463    1.3481    2.2410 O   0  0  0  0  0  0  0  0  0  0  0  0
   -1.0423    2.2189    0.4704 N   0  0  0  0  0  0  0  0  0  0  0  0
   -1.3743    2.0488   -0.4672 H   0  0  0  0  0  0  0  0  0  0  0  0
   -1.2575    3.5468    1.0417 C   0  0  0  0  0  0  0  0  0  0  0  0
   -0.2994    3.9877    1.3228 H   0  0  0  0  0  0  0  0  0  0  0  0
   -1.7519    4.1955    0.3171 H   0  0  0  0  0  0  0  0  0  0  0  0
   -1.8780    3.4669    1.9365 H   0  0  0  0  0  0  0  0  0  0  0  0
  5  6  2  0  0  0  0
  5  7  1  0  0  0  0
  2  3  1  0  0  0  0
  2  4  1  0  0  0  0
  2  5  1  0  0  0  0
  1  2  1  0  0  0  0
 21 22  2  0  0  0  0
 21 23  1  0  0  0  0
 19 20  1  0  0  0  0
 17 18  2  0  0  0  0
 17 19  1  0  0  0  0
 14 15  1  0  0  0  0
 14 16  1  0  0  0  0
 14 17  1  0  0  0  0
 11 12  1  0  0  0  0
 11 13  1  0  0  0  0
 11 14  1  0  0  0  0
  9 10  1  0  0  0  0
  9 11  1  0  0  0  0
  9 21  1  0  0  0  0
  7  8  1  0  0  0  0
  7  9  1  0  0  0  0
 25 26  1  0  0  0  0
 25 27  1  0  0  0  0
 25 28  1  0  0  0  0
 23 24  1  0  0  0  0
 23 25  1  0  0  0  0
M  END
$$$$
default_name
  -OEChem-01062215323D

 28 27  0     1  0  0  0  0  0999 V2000
   -3.2133   -3.5565    1.2809 H   0  0  0  0  0  0  0  0  0  0  0  0
   -3.1873   -2.5755    0.8089 C   0  0  0  0  0  0  0  0  0  0  0  0
   -3.8793   -1.9065    1.3169 H   0  0  0  0  0  0  0  0  0  0  0  0
   -3.4623   -2.6685   -0.2401 H   0  0  0  0  0  0  0  0  0  0  0  0
   -1.7863   -2.0195    0.9119 C   0  0  0  0  0  0  0  0  0  0  0  0
   -0.9073   -2.6615    1.4699 O   0  0  0  0  0  0  0  0  0  0  0  0
   -1.5803   -0.8195    0.3749 N   0  0  0  0  0  0  0  0  0  0  0  0
   -2.3603   -0.3345   -0.0451 H   0  0  0  0  0  0  0  0  0  0  0  0
   -0.2933   -0.1205    0.3719 C   0  0  1  0  0  0  0  0  0  0  0  0
    0.4374   -0.7320    0.9031 H   0  0  0  0  0  0  0  0  0  0  0  0
    0.1825    0.0494   -1.0853 C   0  0  0  0  0  0  0  0  0  0  0  0
   -0.6146    0.5390   -1.6474 H   0  0  0  0  0  0  0  0  0  0  0  0
    1.0592    0.6985   -1.1043 H   0  0  0  0  0  0  0  0  0  0  0  0
    0.5397   -1.2746   -1.7829 C   0  0  0  0  0  0  0  0  0  0  0  0
    1.3494   -1.7700   -1.2469 H   0  0  0  0  0  0  0  0  0  0  0  0
   -0.3349   -1.9241   -1.7871 H   0  0  0  0  0  0  0  0  0  0  0  0
    0.9816   -1.0660   -3.2277 C   0  0  0  0  0  0  0  0  0  0  0  0
    0.9380   -0.0036   -3.8271 O   0  0  0  0  0  0  0  0  0  0  0  0
    1.4376   -2.1640   -3.8588 O   0  0  0  0  0  0  0  0  0  0  0  0
    1.6580   -1.8712   -4.7448 H   0  0  0  0  0  0  0  0  0  0  0  0
   -0.4145    1.2234    1.1079 C   0  0  0  0  0  0  0  0  0  0  0  0
    0.2700    1.4424    2.1056 O   0  0  0  0  0  0  0  0  0  0  0  0
   -1.2902    2.1125    0.6239 N   0  0  0  0  0  0  0  0  0  0  0  0
   -1.8004    1.8708   -0.2124 H   0  0  0  0  0  0  0  0  0  0  0  0
   -1.5373    3.4234    1.2210 C   0  0  0  0  0  0  0  0  0  0  0  0
   -0.6040    3.9870    1.2740 H   0  0  0  0  0  0  0  0  0  0  0  0
   -2.2598    3.9816    0.6240 H   0  0  0  0  0  0  0  0  0  0  0  0
   -1.9253    3.2997    2.2340 H   0  0  0  0  0  0  0  0  0  0  0  0
  5  6  2  0  0  0  0
  5  7  1  0  0  0  0
  2  3  1  0  0  0  0
  2  4  1  0  0  0  0
  2  5  1  0  0  0  0
  1  2  1  0  0  0  0
 21 22  2  0  0  0  0
 21 23  1  0  0  0  0
 19 20  1  0  0  0  0
 17 18  2  0  0  0  0
 17 19  1  0  0  0  0
 14 15  1  0  0  0  0
 14 16  1  0  0  0  0
 14 17  1  0  0  0  0
 11 12  1  0  0  0  0
 11 13  1  0  0  0  0
 11 14  1  0  0  0  0
  9 10  1  0  0  0  0
  9 11  1  0  0  0  0
  9 21  1  0  0  0  0
  7  8  1  0  0  0  0
  7  9  1  0  0  0  0
 25 26  1  0  0  0  0
 25 27  1  0  0  0  0
 25 28  1  0  0  0  0
 23 24  1  0  0  0  0
 23 25  1  0  0  0  0
M  END
$$$$
default_name
  -OEChem-01062215323D

 28 27  0     1  0  0  0  0  0999 V2000
   -3.2133   -3.5565    1.2809 H   0  0  0  0  0  0  0  0  0  0  0  0
   -3.1873   -2.5755    0.8089 C   0  0  0  0  0  0  0  0  0  0  0  0
   -3.8793   -1.9065    1.3169 H   0  0  0  0  0  0  0  0  0  0  0  0
   -3.4623   -2.6685   -0.2401 H   0  0  0  0  0  0  0  0  0  0  0  0
   -1.7863   -2.0195    0.9119 C   0  0  0  0  0  0  0  0  0  0  0  0
   -0.9073   -2.6615    1.4699 O   0  0  0  0  0  0  0  0  0  0  0  0
   -1.5803   -0.8195    0.3749 N   0  0  0  0  0  0  0  0  0  0  0  0
   -2.3603   -0.3345   -0.0451 H   0  0  0  0  0  0  0  0  0  0  0  0
   -0.2933   -0.1205    0.3719 C   0  0  1  0  0  0  0  0  0  0  0  0
    0.4374   -0.7320    0.9031 H   0  0  0  0  0  0  0  0  0  0  0  0
    0.1825    0.0494   -1.0853 C   0  0  0  0  0  0  0  0  0  0  0  0
   -0.6146    0.5390   -1.6474 H   0  0  0  0  0  0  0  0  0  0  0  0
    1.0592    0.6985   -1.1043 H   0  0  0  0  0  0  0  0  0  0  0  0
    0.5397   -1.2746   -1.7829 C   0  0  0  0  0  0  0  0  0  0  0  0
    1.3494   -1.7700   -1.2469 H   0  0  0  0  0  0  0  0  0  0  0  0
   -0.3349   -1.9241   -1.7871 H   0  0  0  0  0  0  0  0  0  0  0  0
    0.9816   -1.0660   -3.2277 C   0  0  0  0  0  0  0  0  0  0  0  0
    0.9380   -0.0036   -3.8271 O   0  0  0  0  0  0  0  0  0  0  0  0
    1.4376   -2.1640   -3.8588 O   0  0  0  0  0  0  0  0  0  0  0  0
    1.6580   -1.8712   -4.7448 H   0  0  0  0  0  0  0  0  0  0  0  0
   -0.4145    1.2234    1.1079 C   0  0  0  0  0  0  0  0  0  0  0  0
    0.4436    1.5585    1.9223 O   0  0  0  0  0  0  0  0  0  0  0  0
   -1.4817    1.9821    0.8305 N   0  0  0  0  0  0  0  0  0  0  0  0
   -2.1323    1.6514    0.1337 H   0  0  0  0  0  0  0  0  0  0  0  0
   -1.7516    3.2731    1.4601 C   0  0  0  0  0  0  0  0  0  0  0  0
   -0.9092    3.9475    1.2958 H   0  0  0  0  0  0  0  0  0  0  0  0
   -2.6545    3.7184    1.0398 H   0  0  0  0  0  0  0  0  0  0  0  0
   -1.8829    3.1384    2.5355 H   0  0  0  0  0  0  0  0  0  0  0  0
  5  6  2  0  0  0  0
  5  7  1  0  0  0  0
  2  3  1  0  0  0  0
  2  4  1  0  0  0  0
  2  5  1  0  0  0  0
  1  2  1  0  0  0  0
 21 22  2  0  0  0  0
 21 23  1  0  0  0  0
 19 20  1  0  0  0  0
 17 18  2  0  0  0  0
 17 19  1  0  0  0  0
 14 15  1  0  0  0  0
 14 16  1  0  0  0  0
 14 17  1  0  0  0  0
 11 12  1  0  0  0  0
 11 13  1  0  0  0  0
 11 14  1  0  0  0  0
  9 10  1  0  0  0  0
  9 11  1  0  0  0  0
  9 21  1  0  0  0  0
  7  8  1  0  0  0  0
  7  9  1  0  0  0  0
 25 26  1  0  0  0  0
 25 27  1  0  0  0  0
 25 28  1  0  0  0  0
 23 24  1  0  0  0  0
 23 25  1  0  0  0  0
M  END
$$$$
default_name
  -OEChem-01062215323D

 28 27  0     1  0  0  0  0  0999 V2000
   -3.2133   -3.5565    1.2809 H   0  0  0  0  0  0  0  0  0  0  0  0
   -3.1873   -2.5755    0.8089 C   0  0  0  0  0  0  0  0  0  0  0  0
   -3.8793   -1.9065    1.3169 H   0  0  0  0  0  0  0  0  0  0  0  0
   -3.4623   -2.6685   -0.2401 H   0  0  0  0  0  0  0  0  0  0  0  0
   -1.7863   -2.0195    0.9119 C   0  0  0  0  0  0  0  0  0  0  0  0
   -0.9073   -2.6615    1.4699 O   0  0  0  0  0  0  0  0  0  0  0  0
   -1.5803   -0.8195    0.3749 N   0  0  0  0  0  0  0  0  0  0  0  0
   -2.3603   -0.3345   -0.0451 H   0  0  0  0  0  0  0  0  0  0  0  0
   -0.2933   -0.1205    0.3719 C   0  0  1  0  0  0  0  0  0  0  0  0
    0.4374   -0.7320    0.9031 H   0  0  0  0  0  0  0  0  0  0  0  0
    0.1825    0.0494   -1.0853 C   0  0  0  0  0  0  0  0  0  0  0  0
   -0.6146    0.5390   -1.6474 H   0  0  0  0  0  0  0  0  0  0  0  0
    1.0592    0.6985   -1.1043 H   0  0  0  0  0  0  0  0  0  0  0  0
    0.5397   -1.2746   -1.7829 C   0  0  0  0  0  0  0  0  0  0  0  0
    1.3494   -1.7700   -1.2469 H   0  0  0  0  0  0  0  0  0  0  0  0
   -0.3349   -1.9241   -1.7871 H   0  0  0  0  0  0  0  0  0  0  0  0
    0.9816   -1.0660   -3.2277 C   0  0  0  0  0  0  0  0  0  0  0  0
    0.9380   -0.0036   -3.8271 O   0  0  0  0  0  0  0  0  0  0  0  0
    1.4376   -2.1640   -3.8588 O   0  0  0  0  0  0  0  0  0  0  0  0
    1.6580   -1.8712   -4.7448 H   0  0  0  0  0  0  0  0  0  0  0  0
   -0.4145    1.2234    1.1079 C   0  0  0  0  0  0  0  0  0  0  0  0
    0.5555    1.6884    1.7035 O   0  0  0  0  0  0  0  0  0  0  0  0
   -1.6038    1.8366    1.0760 N   0  0  0  0  0  0  0  0  0  0  0  0
   -2.3474    1.4053    0.5476 H   0  0  0  0  0  0  0  0  0  0  0  0
   -1.8859    3.1063    1.7426 C   0  0  0  0  0  0  0  0  0  0  0  0
   -1.1942    3.8720    1.3867 H   0  0  0  0  0  0  0  0  0  0  0  0
   -2.9090    3.4236    1.5361 H   0  0  0  0  0  0  0  0  0  0  0  0
   -1.7538    2.9940    2.8205 H   0  0  0  0  0  0  0  0  0  0  0  0
  5  6  2  0  0  0  0
  5  7  1  0  0  0  0
  2  3  1  0  0  0  0
  2  4  1  0  0  0  0
  2  5  1  0  0  0  0
  1  2  1  0  0  0  0
 21 22  2  0  0  0  0
 21 23  1  0  0  0  0
 19 20  1  0  0  0  0
 17 18  2  0  0  0  0
 17 19  1  0  0  0  0
 14 15  1  0  0  0  0
 14 16  1  0  0  0  0
 14 17  1  0  0  0  0
 11 12  1  0  0  0  0
 11 13  1  0  0  0  0
 11 14  1  0  0  0  0
  9 10  1  0  0  0  0
  9 11  1  0  0  0  0
  9 21  1  0  0  0  0
  7  8  1  0  0  0  0
  7  9  1  0  0  0  0
 25 26  1  0  0  0  0
 25 27  1  0  0  0  0
 25 28  1  0  0  0  0
 23 24  1  0  0  0  0
 23 25  1  0  0  0  0
M  END
$$$$
default_name
  -OEChem-01062215323D

 28 27  0     1  0  0  0  0  0999 V2000
   -3.2133   -3.5565    1.2809 H   0  0  0  0  0  0  0  0  0  0  0  0
   -3.1873   -2.5755    0.8089 C   0  0  0  0  0  0  0  0  0  0  0  0
   -3.8793   -1.9065    1.3169 H   0  0  0  0  0  0  0  0  0  0  0  0
   -3.4623   -2.6685   -0.2401 H   0  0  0  0  0  0  0  0  0  0  0  0
   -1.7863   -2.0195    0.9119 C   0  0  0  0  0  0  0  0  0  0  0  0
   -0.9073   -2.6615    1.4699 O   0  0  0  0  0  0  0  0  0  0  0  0
   -1.5803   -0.8195    0.3749 N   0  0  0  0  0  0  0  0  0  0  0  0
   -2.3603   -0.3345   -0.0451 H   0  0  0  0  0  0  0  0  0  0  0  0
   -0.2933   -0.1205    0.3719 C   0  0  1  0  0  0  0  0  0  0  0  0
    0.4374   -0.7320    0.9031 H   0  0  0  0  0  0  0  0  0  0  0  0
    0.1825    0.0494   -1.0853 C   0  0  0  0  0  0  0  0  0  0  0  0
   -0.6146    0.5390   -1.6474 H   0  0  0  0  0  0  0  0  0  0  0  0
    1.0592    0.6985   -1.1043 H   0  0  0  0  0  0  0  0  0  0  0  0
    0.5397   -1.2746   -1.7829 C   0  0  0  0  0  0  0  0  0  0  0  0
    1.3494   -1.7700   -1.2469 H   0  0  0  0  0  0  0  0  0  0  0  0
   -0.3349   -1.9241   -1.7871 H   0  0  0  0  0  0  0  0  0  0  0  0
    0.9816   -1.0660   -3.2277 C   0  0  0  0  0  0  0  0  0  0  0  0
    0.9380   -0.0036   -3.8271 O   0  0  0  0  0  0  0  0  0  0  0  0
    1.4376   -2.1640   -3.8588 O   0  0  0  0  0  0  0  0  0  0  0  0
    1.6580   -1.8712   -4.7448 H   0  0  0  0  0  0  0  0  0  0  0  0
   -0.4145    1.2234    1.1079 C   0  0  0  0  0  0  0  0  0  0  0  0
    0.5980    1.8232    1.4643 O   0  0  0  0  0  0  0  0  0  0  0  0
   -1.6481    1.6860    1.3437 N   0  0  0  0  0  0  0  0  0  0  0  0
   -2.4310    1.1494    1.0011 H   0  0  0  0  0  0  0  0  0  0  0  0
   -1.9310    2.9343    2.0492 C   0  0  0  0  0  0  0  0  0  0  0  0
   -1.4395    3.7656    1.5406 H   0  0  0  0  0  0  0  0  0  0  0  0
   -3.0060    3.1175    2.0791 H   0  0  0  0  0  0  0  0  0  0  0  0
   -1.5467    2.8764    3.0695 H   0  0  0  0  0  0  0  0  0  0  0  0
  5  6  2  0  0  0  0
  5  7  1  0  0  0  0
  2  3  1  0  0  0  0
  2  4  1  0  0  0  0
  2  5  1  0  0  0  0
  1  2  1  0  0  0  0
 21 22  2  0  0  0  0
 21 23  1  0  0  0  0
 19 20  1  0  0  0  0
 17 18  2  0  0  0  0
 17 19  1  0  0  0  0
 14 15  1  0  0  0  0
 14 16  1  0  0  0  0
 14 17  1  0  0  0  0
 11 12  1  0  0  0  0
 11 13  1  0  0  0  0
 11 14  1  0  0  0  0
  9 10  1  0  0  0  0
  9 11  1  0  0  0  0
  9 21  1  0  0  0  0
  7  8  1  0  0  0  0
  7  9  1  0  0  0  0
 25 26  1  0  0  0  0
 25 27  1  0  0  0  0
 25 28  1  0  0  0  0
 23 24  1  0  0  0  0
 23 25  1  0  0  0  0
M  END
$$$$
default_name
  -OEChem-01062215323D

 28 27  0     1  0  0  0  0  0999 V2000
   -3.2133   -3.5565    1.2809 H   0  0  0  0  0  0  0  0  0  0  0  0
   -3.1873   -2.5755    0.8089 C   0  0  0  0  0  0  0  0  0  0  0  0
   -3.8793   -1.9065    1.3169 H   0  0  0  0  0  0  0  0  0  0  0  0
   -3.4623   -2.6685   -0.2401 H   0  0  0  0  0  0  0  0  0  0  0  0
   -1.7863   -2.0195    0.9119 C   0  0  0  0  0  0  0  0  0  0  0  0
   -0.9073   -2.6615    1.4699 O   0  0  0  0  0  0  0  0  0  0  0  0
   -1.5803   -0.8195    0.3749 N   0  0  0  0  0  0  0  0  0  0  0  0
   -2.3603   -0.3345   -0.0451 H   0  0  0  0  0  0  0  0  0  0  0  0
   -0.2933   -0.1205    0.3719 C   0  0  1  0  0  0  0  0  0  0  0  0
    0.4374   -0.7320    0.9031 H   0  0  0  0  0  0  0  0  0  0  0  0
    0.1825    0.0494   -1.0853 C   0  0  0  0  0  0  0  0  0  0  0  0
   -0.6146    0.5390   -1.6474 H   0  0  0  0  0  0  0  0  0  0  0  0
    1.0592    0.6985   -1.1043 H   0  0  0  0  0  0  0  0  0  0  0  0
    0.5397   -1.2746   -1.7829 C   0  0  0  0  0  0  0  0  0  0  0  0
    1.3494   -1.7700   -1.2469 H   0  0  0  0  0  0  0  0  0  0  0  0
   -0.3349   -1.9241   -1.7871 H   0  0  0  0  0  0  0  0  0  0  0  0
    0.9816   -1.0660   -3.2277 C   0  0  0  0  0  0  0  0  0  0  0  0
    0.9380   -0.0036   -3.8271 O   0  0  0  0  0  0  0  0  0  0  0  0
    1.4376   -2.1640   -3.8588 O   0  0  0  0  0  0  0  0  0  0  0  0
    1.6580   -1.8712   -4.7448 H   0  0  0  0  0  0  0  0  0  0  0  0
   -0.4145    1.2234    1.1079 C   0  0  0  0  0  0  0  0  0  0  0  0
    0.5681    1.9538    1.2208 O   0  0  0  0  0  0  0  0  0  0  0  0
   -1.6117    1.5405    1.6155 N   0  0  0  0  0  0  0  0  0  0  0  0
   -2.3774    0.9011    1.4633 H   0  0  0  0  0  0  0  0  0  0  0  0
   -1.8839    2.7688    2.3592 C   0  0  0  0  0  0  0  0  0  0  0  0
   -1.6284    3.6356    1.7469 H   0  0  0  0  0  0  0  0  0  0  0  0
   -2.9389    2.8209    2.6317 H   0  0  0  0  0  0  0  0  0  0  0  0
   -1.2757    2.7934    3.2655 H   0  0  0  0  0  0  0  0  0  0  0  0
  5  6  2  0  0  0  0
  5  7  1  0  0  0  0
  2  3  1  0  0  0  0
  2  4  1  0  0  0  0
  2  5  1  0  0  0  0
  1  2  1  0  0  0  0
 21 22  2  0  0  0  0
 21 23  1  0  0  0  0
 19 20  1  0  0  0  0
 17 18  2  0  0  0  0
 17 19  1  0  0  0  0
 14 15  1  0  0  0  0
 14 16  1  0  0  0  0
 14 17  1  0  0  0  0
 11 12  1  0  0  0  0
 11 13  1  0  0  0  0
 11 14  1  0  0  0  0
  9 10  1  0  0  0  0
  9 11  1  0  0  0  0
  9 21  1  0  0  0  0
  7  8  1  0  0  0  0
  7  9  1  0  0  0  0
 25 26  1  0  0  0  0
 25 27  1  0  0  0  0
 25 28  1  0  0  0  0
 23 24  1  0  0  0  0
 23 25  1  0  0  0  0
M  END
$$$$
default_name
  -OEChem-01062215323D

 28 27  0     1  0  0  0  0  0999 V2000
   -3.2133   -3.5565    1.2809 H   0  0  0  0  0  0  0  0  0  0  0  0
   -3.1873   -2.5755    0.8089 C   0  0  0  0  0  0  0  0  0  0  0  0
   -3.8793   -1.9065    1.3169 H   0  0  0  0  0  0  0  0  0  0  0  0
   -3.4623   -2.6685   -0.2401 H   0  0  0  0  0  0  0  0  0  0  0  0
   -1.7863   -2.0195    0.9119 C   0  0  0  0  0  0  0  0  0  0  0  0
   -0.9073   -2.6615    1.4699 O   0  0  0  0  0  0  0  0  0  0  0  0
   -1.5803   -0.8195    0.3749 N   0  0  0  0  0  0  0  0  0  0  0  0
   -2.3603   -0.3345   -0.0451 H   0  0  0  0  0  0  0  0  0  0  0  0
   -0.2933   -0.1205    0.3719 C   0  0  1  0  0  0  0  0  0  0  0  0
    0.4374   -0.7320    0.9031 H   0  0  0  0  0  0  0  0  0  0  0  0
    0.1825    0.0494   -1.0853 C   0  0  0  0  0  0  0  0  0  0  0  0
   -0.6146    0.5390   -1.6474 H   0  0  0  0  0  0  0  0  0  0  0  0
    1.0592    0.6985   -1.1043 H   0  0  0  0  0  0  0  0  0  0  0  0
    0.5397   -1.2746   -1.7829 C   0  0  0  0  0  0  0  0  0  0  0  0
    1.3494   -1.7700   -1.2469 H   0  0  0  0  0  0  0  0  0  0  0  0
   -0.3349   -1.9241   -1.7871 H   0  0  0  0  0  0  0  0  0  0  0  0
    0.9816   -1.0660   -3.2277 C   0  0  0  0  0  0  0  0  0  0  0  0
    0.9380   -0.0036   -3.8271 O   0  0  0  0  0  0  0  0  0  0  0  0
    1.4376   -2.1640   -3.8588 O   0  0  0  0  0  0  0  0  0  0  0  0
    1.6580   -1.8712   -4.7448 H   0  0  0  0  0  0  0  0  0  0  0  0
   -0.4145    1.2234    1.1079 C   0  0  0  0  0  0  0  0  0  0  0  0
    0.4680    2.0714    0.9897 O   0  0  0  0  0  0  0  0  0  0  0  0
   -1.4970    1.4100    1.8727 N   0  0  0  0  0  0  0  0  0  0  0  0
   -2.1902    0.6774    1.9027 H   0  0  0  0  0  0  0  0  0  0  0  0
   -1.7478    2.6212    2.6512 C   0  0  0  0  0  0  0  0  0  0  0  0
   -1.7481    3.4908    1.9916 H   0  0  0  0  0  0  0  0  0  0  0  0
   -2.7123    2.5540    3.1565 H   0  0  0  0  0  0  0  0  0  0  0  0
   -0.9593    2.7510    3.3952 H   0  0  0  0  0  0  0  0  0  0  0  0
  5  6  2  0  0  0  0
  5  7  1  0  0  0  0
  2  3  1  0  0  0  0
  2  4  1  0  0  0  0
  2  5  1  0  0  0  0
  1  2  1  0  0  0  0
 21 22  2  0  0  0  0
 21 23  1  0  0  0  0
 19 20  1  0  0  0  0
 17 18  2  0  0  0  0
 17 19  1  0  0  0  0
 14 15  1  0  0  0  0
 14 16  1  0  0  0  0
 14 17  1  0  0  0  0
 11 12  1  0  0  0  0
 11 13  1  0  0  0  0
 11 14  1  0  0  0  0
  9 10  1  0  0  0  0
  9 11  1  0  0  0  0
  9 21  1  0  0  0  0
  7  8  1  0  0  0  0
  7  9  1  0  0  0  0
 25 26  1  0  0  0  0
 25 27  1  0  0  0  0
 25 28  1  0  0  0  0
 23 24  1  0  0  0  0
 23 25  1  0  0  0  0
M  END
$$$$
default_name
  -OEChem-01062215323D

 28 27  0     1  0  0  0  0  0999 V2000
   -3.2133   -3.5565    1.2809 H   0  0  0  0  0  0  0  0  0  0  0  0
   -3.1873   -2.5755    0.8089 C   0  0  0  0  0  0  0  0  0  0  0  0
   -3.8793   -1.9065    1.3169 H   0  0  0  0  0  0  0  0  0  0  0  0
   -3.4623   -2.6685   -0.2401 H   0  0  0  0  0  0  0  0  0  0  0  0
   -1.7863   -2.0195    0.9119 C   0  0  0  0  0  0  0  0  0  0  0  0
   -0.9073   -2.6615    1.4699 O   0  0  0  0  0  0  0  0  0  0  0  0
   -1.5803   -0.8195    0.3749 N   0  0  0  0  0  0  0  0  0  0  0  0
   -2.3603   -0.3345   -0.0451 H   0  0  0  0  0  0  0  0  0  0  0  0
   -0.2933   -0.1205    0.3719 C   0  0  1  0  0  0  0  0  0  0  0  0
    0.4374   -0.7320    0.9031 H   0  0  0  0  0  0  0  0  0  0  0  0
    0.1825    0.0494   -1.0853 C   0  0  0  0  0  0  0  0  0  0  0  0
   -0.6146    0.5390   -1.6474 H   0  0  0  0  0  0  0  0  0  0  0  0
    1.0592    0.6985   -1.1043 H   0  0  0  0  0  0  0  0  0  0  0  0
    0.5397   -1.2746   -1.7829 C   0  0  0  0  0  0  0  0  0  0  0  0
    1.3494   -1.7700   -1.2469 H   0  0  0  0  0  0  0  0  0  0  0  0
   -0.3349   -1.9241   -1.7871 H   0  0  0  0  0  0  0  0  0  0  0  0
    0.9816   -1.0660   -3.2277 C   0  0  0  0  0  0  0  0  0  0  0  0
    0.9380   -0.0036   -3.8271 O   0  0  0  0  0  0  0  0  0  0  0  0
    1.4376   -2.1640   -3.8588 O   0  0  0  0  0  0  0  0  0  0  0  0
    1.6580   -1.8712   -4.7448 H   0  0  0  0  0  0  0  0  0  0  0  0
   -0.4145    1.2234    1.1079 C   0  0  0  0  0  0  0  0  0  0  0  0
    0.3045    2.1678    0.7868 O   0  0  0  0  0  0  0  0  0  0  0  0
   -1.3118    1.3034    2.0978 N   0  0  0  0  0  0  0  0  0  0  0  0
   -1.8823    0.4934    2.2893 H   0  0  0  0  0  0  0  0  0  0  0  0
   -1.5318    2.5014    2.9056 C   0  0  0  0  0  0  0  0  0  0  0  0
   -1.7904    3.3411    2.2580 H   0  0  0  0  0  0  0  0  0  0  0  0
   -2.3415    2.3350    3.6174 H   0  0  0  0  0  0  0  0  0  0  0  0
   -0.6190    2.7518    3.4497 H   0  0  0  0  0  0  0  0  0  0  0  0
  5  6  2  0  0  0  0
  5  7  1  0  0  0  0
  2  3  1  0  0  0  0
  2  4  1  0  0  0  0
  2  5  1  0  0  0  0
  1  2  1  0  0  0  0
 21 22  2  0  0  0  0
 21 23  1  0  0  0  0
 19 20  1  0  0  0  0
 17 18  2  0  0  0  0
 17 19  1  0  0  0  0
 14 15  1  0  0  0  0
 14 16  1  0  0  0  0
 14 17  1  0  0  0  0
 11 12  1  0  0  0  0
 11 13  1  0  0  0  0
 11 14  1  0  0  0  0
  9 10  1  0  0  0  0
  9 11  1  0  0  0  0
  9 21  1  0  0  0  0
  7  8  1  0  0  0  0
  7  9  1  0  0  0  0
 25 26  1  0  0  0  0
 25 27  1  0  0  0  0
 25 28  1  0  0  0  0
 23 24  1  0  0  0  0
 23 25  1  0  0  0  0
M  END
$$$$
default_name
  -OEChem-01062215323D

 28 27  0     1  0  0  0  0  0999 V2000
   -3.2133   -3.5565    1.2809 H   0  0  0  0  0  0  0  0  0  0  0  0
   -3.1873   -2.5755    0.8089 C   0  0  0  0  0  0  0  0  0  0  0  0
   -3.8793   -1.9065    1.3169 H   0  0  0  0  0  0  0  0  0  0  0  0
   -3.4623   -2.6685   -0.2401 H   0  0  0  0  0  0  0  0  0  0  0  0
   -1.7863   -2.0195    0.9119 C   0  0  0  0  0  0  0  0  0  0  0  0
   -0.9073   -2.6615    1.4699 O   0  0  0  0  0  0  0  0  0  0  0  0
   -1.5803   -0.8195    0.3749 N   0  0  0  0  0  0  0  0  0  0  0  0
   -2.3603   -0.3345   -0.0451 H   0  0  0  0  0  0  0  0  0  0  0  0
   -0.2933   -0.1205    0.3719 C   0  0  1  0  0  0  0  0  0  0  0  0
    0.4374   -0.7320    0.9031 H   0  0  0  0  0  0  0  0  0  0  0  0
    0.1825    0.0494   -1.0853 C   0  0  0  0  0  0  0  0  0  0  0  0
   -0.6146    0.5390   -1.6474 H   0  0  0  0  0  0  0  0  0  0  0  0
    1.0592    0.6985   -1.1043 H   0  0  0  0  0  0  0  0  0  0  0  0
    0.5397   -1.2746   -1.7829 C   0  0  0  0  0  0  0  0  0  0  0  0
    1.3494   -1.7700   -1.2469 H   0  0  0  0  0  0  0  0  0  0  0  0
   -0.3349   -1.9241   -1.7871 H   0  0  0  0  0  0  0  0  0  0  0  0
    0.9816   -1.0660   -3.2277 C   0  0  0  0  0  0  0  0  0  0  0  0
    0.9380   -0.0036   -3.8271 O   0  0  0  0  0  0  0  0  0  0  0  0
    1.4376   -2.1640   -3.8588 O   0  0  0  0  0  0  0  0  0  0  0  0
    1.6580   -1.8712   -4.7448 H   0  0  0  0  0  0  0  0  0  0  0  0
   -0.4145    1.2234    1.1079 C   0  0  0  0  0  0  0  0  0  0  0  0
    0.0887    2.2365    0.6258 O   0  0  0  0  0  0  0  0  0  0  0  0
   -1.0688    1.2280    2.2756 N   0  0  0  0  0  0  0  0  0  0  0  0
   -1.4746    0.3618    2.5968 H   0  0  0  0  0  0  0  0  0  0  0  0
   -1.2509    2.4176    3.1048 C   0  0  0  0  0  0  0  0  0  0  0  0
   -1.7525    3.1967    2.5280 H   0  0  0  0  0  0  0  0  0  0  0  0
   -1.8520    2.1788    3.9833 H   0  0  0  0  0  0  0  0  0  0  0  0
   -0.2782    2.7958    3.4254 H   0  0  0  0  0  0  0  0  0  0  0  0
  5  6  2  0  0  0  0
  5  7  1  0  0  0  0
  2  3  1  0  0  0  0
  2  4  1  0  0  0  0
  2  5  1  0  0  0  0
  1  2  1  0  0  0  0
 21 22  2  0  0  0  0
 21 23  1  0  0  0  0
 19 20  1  0  0  0  0
 17 18  2  0  0  0  0
 17 19  1  0  0  0  0
 14 15  1  0  0  0  0
 14 16  1  0  0  0  0
 14 17  1  0  0  0  0
 11 12  1  0  0  0  0
 11 13  1  0  0  0  0
 11 14  1  0  0  0  0
  9 10  1  0  0  0  0
  9 11  1  0  0  0  0
  9 21  1  0  0  0  0
  7  8  1  0  0  0  0
  7  9  1  0  0  0  0
 25 26  1  0  0  0  0
 25 27  1  0  0  0  0
 25 28  1  0  0  0  0
 23 24  1  0  0  0  0
 23 25  1  0  0  0  0
M  END
$$$$
default_name
  -OEChem-01062215323D

 28 27  0     1  0  0  0  0  0999 V2000
   -3.2133   -3.5565    1.2809 H   0  0  0  0  0  0  0  0  0  0  0  0
   -3.1873   -2.5755    0.8089 C   0  0  0  0  0  0  0  0  0  0  0  0
   -3.8793   -1.9065    1.3169 H   0  0  0  0  0  0  0  0  0  0  0  0
   -3.4623   -2.6685   -0.2401 H   0  0  0  0  0  0  0  0  0  0  0  0
   -1.7863   -2.0195    0.9119 C   0  0  0  0  0  0  0  0  0  0  0  0
   -0.9073   -2.6615    1.4699 O   0  0  0  0  0  0  0  0  0  0  0  0
   -1.5803   -0.8195    0.3749 N   0  0  0  0  0  0  0  0  0  0  0  0
   -2.3603   -0.3345   -0.0451 H   0  0  0  0  0  0  0  0  0  0  0  0
   -0.2933   -0.1205    0.3719 C   0  0  1  0  0  0  0  0  0  0  0  0
    0.4374   -0.7320    0.9031 H   0  0  0  0  0  0  0  0  0  0  0  0
    0.1825    0.0494   -1.0853 C   0  0  0  0  0  0  0  0  0  0  0  0
   -0.6146    0.5390   -1.6474 H   0  0  0  0  0  0  0  0  0  0  0  0
    1.0592    0.6985   -1.1043 H   0  0  0  0  0  0  0  0  0  0  0  0
    0.5397   -1.2746   -1.7829 C   0  0  0  0  0  0  0  0  0  0  0  0
    1.3494   -1.7700   -1.2469 H   0  0  0  0  0  0  0  0  0  0  0  0
   -0.3349   -1.9241   -1.7871 H   0  0  0  0  0  0  0  0  0  0  0  0
    0.9816   -1.0660   -3.2277 C   0  0  0  0  0  0  0  0  0  0  0  0
    0.9380   -0.0036   -3.8271 O   0  0  0  0  0  0  0  0  0  0  0  0
    1.4376   -2.1640   -3.8588 O   0  0  0  0  0  0  0  0  0  0  0  0
    1.6580   -1.8712   -4.7448 H   0  0  0  0  0  0  0  0  0  0  0  0
   -0.4145    1.2234    1.1079 C   0  0  0  0  0  0  0  0  0  0  0  0
   -0.1648    2.2728    0.5177 O   0  0  0  0  0  0  0  0  0  0  0  0
   -0.7844    1.1889    2.3938 N   0  0  0  0  0  0  0  0  0  0  0  0
   -0.9948    0.2914    2.8043 H   0  0  0  0  0  0  0  0  0  0  0  0
   -0.9240    2.3755    3.2354 C   0  0  0  0  0  0  0  0  0  0  0  0
   -1.6368    3.0674    2.7831 H   0  0  0  0  0  0  0  0  0  0  0  0
   -1.2769    2.0961    4.2291 H   0  0  0  0  0  0  0  0  0  0  0  0
    0.0401    2.8801    3.3239 H   0  0  0  0  0  0  0  0  0  0  0  0
  5  6  2  0  0  0  0
  5  7  1  0  0  0  0
  2  3  1  0  0  0  0
  2  4  1  0  0  0  0
  2  5  1  0  0  0  0
  1  2  1  0  0  0  0
 21 22  2  0  0  0  0
 21 23  1  0  0  0  0
 19 20  1  0  0  0  0
 17 18  2  0  0  0  0
 17 19  1  0  0  0  0
 14 15  1  0  0  0  0
 14 16  1  0  0  0  0
 14 17  1  0  0  0  0
 11 12  1  0  0  0  0
 11 13  1  0  0  0  0
 11 14  1  0  0  0  0
  9 10  1  0  0  0  0
  9 11  1  0  0  0  0
  9 21  1  0  0  0  0
  7  8  1  0  0  0  0
  7  9  1  0  0  0  0
 25 26  1  0  0  0  0
 25 27  1  0  0  0  0
 25 28  1  0  0  0  0
 23 24  1  0  0  0  0
 23 25  1  0  0  0  0
M  END
$$$$
default_name
  -OEChem-01062215323D

 28 27  0     1  0  0  0  0  0999 V2000
   -3.2133   -3.5565    1.2809 H   0  0  0  0  0  0  0  0  0  0  0  0
   -3.1873   -2.5755    0.8089 C   0  0  0  0  0  0  0  0  0  0  0  0
   -3.8793   -1.9065    1.3169 H   0  0  0  0  0  0  0  0  0  0  0  0
   -3.4623   -2.6685   -0.2401 H   0  0  0  0  0  0  0  0  0  0  0  0
   -1.7863   -2.0195    0.9119 C   0  0  0  0  0  0  0  0  0  0  0  0
   -0.9073   -2.6615    1.4699 O   0  0  0  0  0  0  0  0  0  0  0  0
   -1.5803   -0.8195    0.3749 N   0  0  0  0  0  0  0  0  0  0  0  0
   -2.3603   -0.3345   -0.0451 H   0  0  0  0  0  0  0  0  0  0  0  0
   -0.2933   -0.1205    0.3719 C   0  0  1  0  0  0  0  0  0  0  0  0
    0.4374   -0.7320    0.9031 H   0  0  0  0  0  0  0  0  0  0  0  0
    0.1825    0.0494   -1.0853 C   0  0  0  0  0  0  0  0  0  0  0  0
   -0.6146    0.5390   -1.6474 H   0  0  0  0  0  0  0  0  0  0  0  0
    1.0592    0.6985   -1.1043 H   0  0  0  0  0  0  0  0  0  0  0  0
    0.5397   -1.2746   -1.7829 C   0  0  0  0  0  0  0  0  0  0  0  0
    1.3494   -1.7700   -1.2469 H   0  0  0  0  0  0  0  0  0  0  0  0
   -0.3349   -1.9241   -1.7871 H   0  0  0  0  0  0  0  0  0  0  0  0
    0.9816   -1.0660   -3.2277 C   0  0  0  0  0  0  0  0  0  0  0  0
    0.9380   -0.0036   -3.8271 O   0  0  0  0  0  0  0  0  0  0  0  0
    1.4376   -2.1640   -3.8588 O   0  0  0  0  0  0  0  0  0  0  0  0
    1.6580   -1.8712   -4.7448 H   0  0  0  0  0  0  0  0  0  0  0  0
   -0.4145    1.2234    1.1079 C   0  0  0  0  0  0  0  0  0  0  0  0
   -0.4385    2.2743    0.4700 O   0  0  0  0  0  0  0  0  0  0  0  0
   -0.4782    1.1888    2.4444 N   0  0  0  0  0  0  0  0  0  0  0  0
   -0.4758    0.2872    2.8976 H   0  0  0  0  0  0  0  0  0  0  0  0
   -0.5735    2.3781    3.2884 C   0  0  0  0  0  0  0  0  0  0  0  0
   -1.4513    2.9621    3.0059 H   0  0  0  0  0  0  0  0  0  0  0  0
   -0.6556    2.0924    4.3380 H   0  0  0  0  0  0  0  0  0  0  0  0
    0.3142    2.9989    3.1520 H   0  0  0  0  0  0  0  0  0  0  0  0
  5  6  2  0  0  0  0
  5  7  1  0  0  0  0
  2  3  1  0  0  0  0
  2  4  1  0  0  0  0
  2  5  1  0  0  0  0
  1  2  1  0  0  0  0
 21 22  2  0  0  0  0
 21 23  1  0  0  0  0
 19 20  1  0  0  0  0
 17 18  2  0  0  0  0
 17 19  1  0  0  0  0
 14 15  1  0  0  0  0
 14 16  1  0  0  0  0
 14 17  1  0  0  0  0
 11 12  1  0  0  0  0
 11 13  1  0  0  0  0
 11 14  1  0  0  0  0
  9 10  1  0  0  0  0
  9 11  1  0  0  0  0
  9 21  1  0  0  0  0
  7  8  1  0  0  0  0
  7  9  1  0  0  0  0
 25 26  1  0  0  0  0
 25 27  1  0  0  0  0
 25 28  1  0  0  0  0
 23 24  1  0  0  0  0
 23 25  1  0  0  0  0
M  END
$$$$
default_name
  -OEChem-01062215323D

 28 27  0     1  0  0  0  0  0999 V2000
   -3.2133   -3.5565    1.2809 H   0  0  0  0  0  0  0  0  0  0  0  0
   -3.1873   -2.5755    0.8089 C   0  0  0  0  0  0  0  0  0  0  0  0
   -3.8793   -1.9065    1.3169 H   0  0  0  0  0  0  0  0  0  0  0  0
   -3.4623   -2.6685   -0.2401 H   0  0  0  0  0  0  0  0  0  0  0  0
   -1.7863   -2.0195    0.9119 C   0  0  0  0  0  0  0  0  0  0  0  0
   -0.9073   -2.6615    1.4699 O   0  0  0  0  0  0  0  0  0  0  0  0
   -1.5803   -0.8195    0.3749 N   0  0  0  0  0  0  0  0  0  0  0  0
   -2.3603   -0.3345   -0.0451 H   0  0  0  0  0  0  0  0  0  0  0  0
   -0.2933   -0.1205    0.3719 C   0  0  1  0  0  0  0  0  0  0  0  0
    0.4374   -0.7320    0.9031 H   0  0  0  0  0  0  0  0  0  0  0  0
    0.1825    0.0494   -1.0853 C   0  0  0  0  0  0  0  0  0  0  0  0
   -0.6146    0.5390   -1.6474 H   0  0  0  0  0  0  0  0  0  0  0  0
    1.0592    0.6985   -1.1043 H   0  0  0  0  0  0  0  0  0  0  0  0
    0.5397   -1.2746   -1.7829 C   0  0  0  0  0  0  0  0  0  0  0  0
    1.3494   -1.7700   -1.2469 H   0  0  0  0  0  0  0  0  0  0  0  0
   -0.3349   -1.9241   -1.7871 H   0  0  0  0  0  0  0  0  0  0  0  0
    0.9816   -1.0660   -3.2277 C   0  0  0  0  0  0  0  0  0  0  0  0
    0.9380   -0.0036   -3.8271 O   0  0  0  0  0  0  0  0  0  0  0  0
    1.4376   -2.1640   -3.8588 O   0  0  0  0  0  0  0  0  0  0  0  0
    1.6580   -1.8712   -4.7448 H   0  0  0  0  0  0  0  0  0  0  0  0
   -0.4145    1.2234    1.1079 C   0  0  0  0  0  0  0  0  0  0  0  0
   -0.7140    2.2408    0.4857 O   0  0  0  0  0  0  0  0  0  0  0  0
   -0.1709    1.2276    2.4240 N   0  0  0  0  0  0  0  0  0  0  0  0
    0.0472    0.3493    2.8703 H   0  0  0  0  0  0  0  0  0  0  0  0
   -0.2233    2.4251    3.2602 C   0  0  0  0  0  0  0  0  0  0  0  0
   -1.2087    2.8879    3.1814 H   0  0  0  0  0  0  0  0  0  0  0  0
   -0.0303    2.1681    4.3027 H   0  0  0  0  0  0  0  0  0  0  0  0
    0.5253    3.1441    2.9216 H   0  0  0  0  0  0  0  0  0  0  0  0
  5  6  2  0  0  0  0
  5  7  1  0  0  0  0
  2  3  1  0  0  0  0
  2  4  1  0  0  0  0
  2  5  1  0  0  0  0
  1  2  1  0  0  0  0
 21 22  2  0  0  0  0
 21 23  1  0  0  0  0
 19 20  1  0  0  0  0
 17 18  2  0  0  0  0
 17 19  1  0  0  0  0
 14 15  1  0  0  0  0
 14 16  1  0  0  0  0
 14 17  1  0  0  0  0
 11 12  1  0  0  0  0
 11 13  1  0  0  0  0
 11 14  1  0  0  0  0
  9 10  1  0  0  0  0
  9 11  1  0  0  0  0
  9 21  1  0  0  0  0
  7  8  1  0  0  0  0
  7  9  1  0  0  0  0
 25 26  1  0  0  0  0
 25 27  1  0  0  0  0
 25 28  1  0  0  0  0
 23 24  1  0  0  0  0
 23 25  1  0  0  0  0
M  END
$$$$
default_name
  -OEChem-01062215323D

 28 27  0     1  0  0  0  0  0999 V2000
   -3.2133   -3.5565    1.2809 H   0  0  0  0  0  0  0  0  0  0  0  0
   -3.1873   -2.5755    0.8089 C   0  0  0  0  0  0  0  0  0  0  0  0
   -3.8793   -1.9065    1.3169 H   0  0  0  0  0  0  0  0  0  0  0  0
   -3.4623   -2.6685   -0.2401 H   0  0  0  0  0  0  0  0  0  0  0  0
   -1.7863   -2.0195    0.9119 C   0  0  0  0  0  0  0  0  0  0  0  0
   -0.9073   -2.6615    1.4699 O   0  0  0  0  0  0  0  0  0  0  0  0
   -1.5803   -0.8195    0.3749 N   0  0  0  0  0  0  0  0  0  0  0  0
   -2.3603   -0.3345   -0.0451 H   0  0  0  0  0  0  0  0  0  0  0  0
   -0.2933   -0.1205    0.3719 C   0  0  1  0  0  0  0  0  0  0  0  0
    0.4374   -0.7320    0.9031 H   0  0  0  0  0  0  0  0  0  0  0  0
    0.1825    0.0494   -1.0853 C   0  0  0  0  0  0  0  0  0  0  0  0
   -0.6146    0.5390   -1.6474 H   0  0  0  0  0  0  0  0  0  0  0  0
    1.0592    0.6985   -1.1043 H   0  0  0  0  0  0  0  0  0  0  0  0
    0.5397   -1.2746   -1.7829 C   0  0  0  0  0  0  0  0  0  0  0  0
    1.3494   -1.7700   -1.2469 H   0  0  0  0  0  0  0  0  0  0  0  0
   -0.3349   -1.9241   -1.7871 H   0  0  0  0  0  0  0  0  0  0  0  0
    0.9816   -1.0660   -3.2277 C   0  0  0  0  0  0  0  0  0  0  0  0
    0.9380   -0.0036   -3.8271 O   0  0  0  0  0  0  0  0  0  0  0  0
    1.4376   -2.1640   -3.8588 O   0  0  0  0  0  0  0  0  0  0  0  0
    1.6580   -1.8712   -4.7448 H   0  0  0  0  0  0  0  0  0  0  0  0
   -0.4145    1.2234    1.1079 C   0  0  0  0  0  0  0  0  0  0  0  0
   -0.9723    2.1746    0.5640 O   0  0  0  0  0  0  0  0  0  0  0  0
    0.1165    1.3028    2.3340 N   0  0  0  0  0  0  0  0  0  0  0  0
    0.5386    0.4735    2.7243 H   0  0  0  0  0  0  0  0  0  0  0  0
    0.1028    2.5133    3.1528 C   0  0  0  0  0  0  0  0  0  0  0  0
   -0.9254    2.8499    3.2975 H   0  0  0  0  0  0  0  0  0  0  0  0
    0.5563    2.3180    4.1256 H   0  0  0  0  0  0  0  0  0  0  0  0
    0.6590    3.3059    2.6483 H   0  0  0  0  0  0  0  0  0  0  0  0
  5  6  2  0  0  0  0
  5  7  1  0  0  0  0
  2  3  1  0  0  0  0
  2  4  1  0  0  0  0
  2  5  1  0  0  0  0
  1  2  1  0  0  0  0
 21 22  2  0  0  0  0
 21 23  1  0  0  0  0
 19 20  1  0  0  0  0
 17 18  2  0  0  0  0
 17 19  1  0  0  0  0
 14 15  1  0  0  0  0
 14 16  1  0  0  0  0
 14 17  1  0  0  0  0
 11 12  1  0  0  0  0
 11 13  1  0  0  0  0
 11 14  1  0  0  0  0
  9 10  1  0  0  0  0
  9 11  1  0  0  0  0
  9 21  1  0  0  0  0
  7  8  1  0  0  0  0
  7  9  1  0  0  0  0
 25 26  1  0  0  0  0
 25 27  1  0  0  0  0
 25 28  1  0  0  0  0
 23 24  1  0  0  0  0
 23 25  1  0  0  0  0
M  END
$$$$
default_name
  -OEChem-01062215323D

 28 27  0     1  0  0  0  0  0999 V2000
   -3.2133   -3.5565    1.2809 H   0  0  0  0  0  0  0  0  0  0  0  0
   -3.1873   -2.5755    0.8089 C   0  0  0  0  0  0  0  0  0  0  0  0
   -3.8793   -1.9065    1.3169 H   0  0  0  0  0  0  0  0  0  0  0  0
   -3.4623   -2.6685   -0.2401 H   0  0  0  0  0  0  0  0  0  0  0  0
   -1.7863   -2.0195    0.9119 C   0  0  0  0  0  0  0  0  0  0  0  0
   -0.9073   -2.6615    1.4699 O   0  0  0  0  0  0  0  0  0  0  0  0
   -1.5803   -0.8195    0.3749 N   0  0  0  0  0  0  0  0  0  0  0  0
   -2.3603   -0.3345   -0.0451 H   0  0  0  0  0  0  0  0  0  0  0  0
   -0.2933   -0.1205    0.3719 C   0  0  1  0  0  0  0  0  0  0  0  0
    0.4374   -0.7320    0.9031 H   0  0  0  0  0  0  0  0  0  0  0  0
    0.1825    0.0494   -1.0853 C   0  0  0  0  0  0  0  0  0  0  0  0
   -0.6146    0.5390   -1.6474 H   0  0  0  0  0  0  0  0  0  0  0  0
    1.0592    0.6985   -1.1043 H   0  0  0  0  0  0  0  0  0  0  0  0
    0.5397   -1.2746   -1.7829 C   0  0  0  0  0  0  0  0  0  0  0  0
    1.3494   -1.7700   -1.2469 H   0  0  0  0  0  0  0  0  0  0  0  0
   -0.3349   -1.9241   -1.7871 H   0  0  0  0  0  0  0  0  0  0  0  0
    0.9816   -1.0660   -3.2277 C   0  0  0  0  0  0  0  0  0  0  0  0
    0.9380   -0.0036   -3.8271 O   0  0  0  0  0  0  0  0  0  0  0  0
    1.4376   -2.1640   -3.8588 O   0  0  0  0  0  0  0  0  0  0  0  0
    1.6580   -1.8712   -4.7448 H   0  0  0  0  0  0  0  0  0  0  0  0
   -0.4145    1.2234    1.1079 C   0  0  0  0  0  0  0  0  0  0  0  0
   -1.1959    2.0803    0.6994 O   0  0  0  0  0  0  0  0  0  0  0  0
    0.3644    1.4093    2.1805 N   0  0  0  0  0  0  0  0  0  0  0  0
    0.9647    0.6515    2.4695 H   0  0  0  0  0  0  0  0  0  0  0  0
    0.3826    2.6368    2.9735 C   0  0  0  0  0  0  0  0  0  0  0  0
   -0.6208    2.8506    3.3463 H   0  0  0  0  0  0  0  0  0  0  0  0
    1.0642    2.5319    3.8187 H   0  0  0  0  0  0  0  0  0  0  0  0
    0.7063    3.4731    2.3508 H   0  0  0  0  0  0  0  0  0  0  0  0
  5  6  2  0  0  0  0
  5  7  1  0  0  0  0
  2  3  1  0  0  0  0
  2  4  1  0  0  0  0
  2  5  1  0  0  0  0
  1  2  1  0  0  0  0
 21 22  2  0  0  0  0
 21 23  1  0  0  0  0
 19 20  1  0  0  0  0
 17 18  2  0  0  0  0
 17 19  1  0  0  0  0
 14 15  1  0  0  0  0
 14 16  1  0  0  0  0
 14 17  1  0  0  0  0
 11 12  1  0  0  0  0
 11 13  1  0  0  0  0
 11 14  1  0  0  0  0
  9 10  1  0  0  0  0
  9 11  1  0  0  0  0
  9 21  1  0  0  0  0
  7  8  1  0  0  0  0
  7  9  1  0  0  0  0
 25 26  1  0  0  0  0
 25 27  1  0  0  0  0
 25 28  1  0  0  0  0
 23 24  1  0  0  0  0
 23 25  1  0  0  0  0
M  END
$$$$
default_name
  -OEChem-01062215323D

 28 27  0     1  0  0  0  0  0999 V2000
   -3.2133   -3.5565    1.2809 H   0  0  0  0  0  0  0  0  0  0  0  0
   -3.1873   -2.5755    0.8089 C   0  0  0  0  0  0  0  0  0  0  0  0
   -3.8793   -1.9065    1.3169 H   0  0  0  0  0  0  0  0  0  0  0  0
   -3.4623   -2.6685   -0.2401 H   0  0  0  0  0  0  0  0  0  0  0  0
   -1.7863   -2.0195    0.9119 C   0  0  0  0  0  0  0  0  0  0  0  0
   -0.9073   -2.6615    1.4699 O   0  0  0  0  0  0  0  0  0  0  0  0
   -1.5803   -0.8195    0.3749 N   0  0  0  0  0  0  0  0  0  0  0  0
   -2.3603   -0.3345   -0.0451 H   0  0  0  0  0  0  0  0  0  0  0  0
   -0.2933   -0.1205    0.3719 C   0  0  1  0  0  0  0  0  0  0  0  0
    0.4374   -0.7320    0.9031 H   0  0  0  0  0  0  0  0  0  0  0  0
    0.1825    0.0494   -1.0853 C   0  0  0  0  0  0  0  0  0  0  0  0
   -0.6146    0.5390   -1.6474 H   0  0  0  0  0  0  0  0  0  0  0  0
    1.0592    0.6985   -1.1043 H   0  0  0  0  0  0  0  0  0  0  0  0
    0.5397   -1.2746   -1.7829 C   0  0  0  0  0  0  0  0  0  0  0  0
    1.3494   -1.7700   -1.2469 H   0  0  0  0  0  0  0  0  0  0  0  0
   -0.3349   -1.9241   -1.7871 H   0  0  0  0  0  0  0  0  0  0  0  0
    0.9816   -1.0660   -3.2277 C   0  0  0  0  0  0  0  0  0  0  0  0
    0.9380   -0.0036   -3.8271 O   0  0  0  0  0  0  0  0  0  0  0  0
    1.4376   -2.1640   -3.8588 O   0  0  0  0  0  0  0  0  0  0  0  0
    1.6580   -1.8712   -4.7448 H   0  0  0  0  0  0  0  0  0  0  0  0
   -0.4145    1.2234    1.1079 C   0  0  0  0  0  0  0  0  0  0  0  0
   -1.3696    1.9643    0.8827 O   0  0  0  0  0  0  0  0  0  0  0  0
    0.5559    1.5396    1.9739 N   0  0  0  0  0  0  0  0  0  0  0  0
    1.2966    0.8709    2.1234 H   0  0  0  0  0  0  0  0  0  0  0  0
    0.5969    2.7870    2.7344 C   0  0  0  0  0  0  0  0  0  0  0  0
   -0.3156    2.8901    3.3244 H   0  0  0  0  0  0  0  0  0  0  0  0
    1.4589    2.7951    3.4030 H   0  0  0  0  0  0  0  0  0  0  0  0
    0.6640    3.6344    2.0492 H   0  0  0  0  0  0  0  0  0  0  0  0
  5  6  2  0  0  0  0
  5  7  1  0  0  0  0
  2  3  1  0  0  0  0
  2  4  1  0  0  0  0
  2  5  1  0  0  0  0
  1  2  1  0  0  0  0
 21 22  2  0  0  0  0
 21 23  1  0  0  0  0
 19 20  1  0  0  0  0
 17 18  2  0  0  0  0
 17 19  1  0  0  0  0
 14 15  1  0  0  0  0
 14 16  1  0  0  0  0
 14 17  1  0  0  0  0
 11 12  1  0  0  0  0
 11 13  1  0  0  0  0
 11 14  1  0  0  0  0
  9 10  1  0  0  0  0
  9 11  1  0  0  0  0
  9 21  1  0  0  0  0
  7  8  1  0  0  0  0
  7  9  1  0  0  0  0
 25 26  1  0  0  0  0
 25 27  1  0  0  0  0
 25 28  1  0  0  0  0
 23 24  1  0  0  0  0
 23 25  1  0  0  0  0
M  END
$$$$
default_name
  -OEChem-01062215323D

 28 27  0     1  0  0  0  0  0999 V2000
   -3.2133   -3.5565    1.2809 H   0  0  0  0  0  0  0  0  0  0  0  0
   -3.1873   -2.5755    0.8089 C   0  0  0  0  0  0  0  0  0  0  0  0
   -3.8793   -1.9065    1.3169 H   0  0  0  0  0  0  0  0  0  0  0  0
   -3.4623   -2.6685   -0.2401 H   0  0  0  0  0  0  0  0  0  0  0  0
   -1.7863   -2.0195    0.9119 C   0  0  0  0  0  0  0  0  0  0  0  0
   -0.9073   -2.6615    1.4699 O   0  0  0  0  0  0  0  0  0  0  0  0
   -1.5803   -0.8195    0.3749 N   0  0  0  0  0  0  0  0  0  0  0  0
   -2.3603   -0.3345   -0.0451 H   0  0  0  0  0  0  0  0  0  0  0  0
   -0.2933   -0.1205    0.3719 C   0  0  1  0  0  0  0  0  0  0  0  0
    0.4374   -0.7320    0.9031 H   0  0  0  0  0  0  0  0  0  0  0  0
    0.1825    0.0494   -1.0853 C   0  0  0  0  0  0  0  0  0  0  0  0
   -0.6146    0.5390   -1.6474 H   0  0  0  0  0  0  0  0  0  0  0  0
    1.0592    0.6985   -1.1043 H   0  0  0  0  0  0  0  0  0  0  0  0
    0.5397   -1.2746   -1.7829 C   0  0  0  0  0  0  0  0  0  0  0  0
    1.3494   -1.7700   -1.2469 H   0  0  0  0  0  0  0  0  0  0  0  0
   -0.3349   -1.9241   -1.7871 H   0  0  0  0  0  0  0  0  0  0  0  0
    0.9816   -1.0660   -3.2277 C   0  0  0  0  0  0  0  0  0  0  0  0
    0.9380   -0.0036   -3.8271 O   0  0  0  0  0  0  0  0  0  0  0  0
    1.4376   -2.1640   -3.8588 O   0  0  0  0  0  0  0  0  0  0  0  0
    1.6580   -1.8712   -4.7448 H   0  0  0  0  0  0  0  0  0  0  0  0
   -0.4145    1.2234    1.1079 C   0  0  0  0  0  0  0  0  0  0  0  0
   -1.4814    1.8344    1.1014 O   0  0  0  0  0  0  0  0  0  0  0  0
    0.6780    1.6851    1.7284 N   0  0  0  0  0  0  0  0  0  0  0  0
    1.5117    1.1170    1.7095 H   0  0  0  0  0  0  0  0  0  0  0  0
    0.7312    2.9538    2.4519 C   0  0  0  0  0  0  0  0  0  0  0  0
   -0.0307    2.9656    3.2335 H   0  0  0  0  0  0  0  0  0  0  0  0
    1.7134    3.0899    2.9067 H   0  0  0  0  0  0  0  0  0  0  0  0
    0.5348    3.7788    1.7643 H   0  0  0  0  0  0  0  0  0  0  0  0
  5  6  2  0  0  0  0
  5  7  1  0  0  0  0
  2  3  1  0  0  0  0
  2  4  1  0  0  0  0
  2  5  1  0  0  0  0
  1  2  1  0  0  0  0
 21 22  2  0  0  0  0
 21 23  1  0  0  0  0
 19 20  1  0  0  0  0
 17 18  2  0  0  0  0
 17 19  1  0  0  0  0
 14 15  1  0  0  0  0
 14 16  1  0  0  0  0
 14 17  1  0  0  0  0
 11 12  1  0  0  0  0
 11 13  1  0  0  0  0
 11 14  1  0  0  0  0
  9 10  1  0  0  0  0
  9 11  1  0  0  0  0
  9 21  1  0  0  0  0
  7  8  1  0  0  0  0
  7  9  1  0  0  0  0
 25 26  1  0  0  0  0
 25 27  1  0  0  0  0
 25 28  1  0  0  0  0
 23 24  1  0  0  0  0
 23 25  1  0  0  0  0
M  END
$$$$
default_name
  -OEChem-01062215323D

 28 27  0     1  0  0  0  0  0999 V2000
   -3.2133   -3.5565    1.2809 H   0  0  0  0  0  0  0  0  0  0  0  0
   -3.1873   -2.5755    0.8089 C   0  0  0  0  0  0  0  0  0  0  0  0
   -3.8793   -1.9065    1.3169 H   0  0  0  0  0  0  0  0  0  0  0  0
   -3.4623   -2.6685   -0.2401 H   0  0  0  0  0  0  0  0  0  0  0  0
   -1.7863   -2.0195    0.9119 C   0  0  0  0  0  0  0  0  0  0  0  0
   -0.9073   -2.6615    1.4699 O   0  0  0  0  0  0  0  0  0  0  0  0
   -1.5803   -0.8195    0.3749 N   0  0  0  0  0  0  0  0  0  0  0  0
   -2.3603   -0.3345   -0.0451 H   0  0  0  0  0  0  0  0  0  0  0  0
   -0.2933   -0.1205    0.3719 C   0  0  1  0  0  0  0  0  0  0  0  0
    0.4374   -0.7320    0.9031 H   0  0  0  0  0  0  0  0  0  0  0  0
    0.1825    0.0494   -1.0853 C   0  0  0  0  0  0  0  0  0  0  0  0
   -0.6146    0.5390   -1.6474 H   0  0  0  0  0  0  0  0  0  0  0  0
    1.0592    0.6985   -1.1043 H   0  0  0  0  0  0  0  0  0  0  0  0
    0.5397   -1.2746   -1.7829 C   0  0  0  0  0  0  0  0  0  0  0  0
    1.3494   -1.7700   -1.2469 H   0  0  0  0  0  0  0  0  0  0  0  0
   -0.3349   -1.9241   -1.7871 H   0  0  0  0  0  0  0  0  0  0  0  0
    0.9816   -1.0660   -3.2277 C   0  0  0  0  0  0  0  0  0  0  0  0
    0.9380   -0.0036   -3.8271 O   0  0  0  0  0  0  0  0  0  0  0  0
    1.4376   -2.1640   -3.8588 O   0  0  0  0  0  0  0  0  0  0  0  0
    1.6580   -1.8712   -4.7448 H   0  0  0  0  0  0  0  0  0  0  0  0
   -0.4145    1.2234    1.1079 C   0  0  0  0  0  0  0  0  0  0  0  0
   -1.5239    1.6996    1.3407 O   0  0  0  0  0  0  0  0  0  0  0  0
    0.7223    1.8357    1.4607 N   0  0  0  0  0  0  0  0  0  0  0  0
    1.5953    1.3729    1.2560 H   0  0  0  0  0  0  0  0  0  0  0  0
    0.7763    3.1258    2.1453 C   0  0  0  0  0  0  0  0  0  0  0  0
    0.2146    3.0720    3.0796 H   0  0  0  0  0  0  0  0  0  0  0  0
    1.8104    3.3960    2.3637 H   0  0  0  0  0  0  0  0  0  0  0  0
    0.3277    3.8965    1.5153 H   0  0  0  0  0  0  0  0  0  0  0  0
  5  6  2  0  0  0  0
  5  7  1  0  0  0  0
  2  3  1  0  0  0  0
  2  4  1  0  0  0  0
  2  5  1  0  0  0  0
  1  2  1  0  0  0  0
 21 22  2  0  0  0  0
 21 23  1  0  0  0  0
 19 20  1  0  0  0  0
 17 18  2  0  0  0  0
 17 19  1  0  0  0  0
 14 15  1  0  0  0  0
 14 16  1  0  0  0  0
 14 17  1  0  0  0  0
 11 12  1  0  0  0  0
 11 13  1  0  0  0  0
 11 14  1  0  0  0  0
  9 10  1  0  0  0  0
  9 11  1  0  0  0  0
  9 21  1  0  0  0  0
  7  8  1  0  0  0  0
  7  9  1  0  0  0  0
 25 26  1  0  0  0  0
 25 27  1  0  0  0  0
 25 28  1  0  0  0  0
 23 24  1  0  0  0  0
 23 25  1  0  0  0  0
M  END
$$$$
default_name
  -OEChem-01062215323D

 28 27  0     1  0  0  0  0  0999 V2000
   -3.2133   -3.5565    1.2809 H   0  0  0  0  0  0  0  0  0  0  0  0
   -3.1873   -2.5755    0.8089 C   0  0  0  0  0  0  0  0  0  0  0  0
   -3.8793   -1.9065    1.3169 H   0  0  0  0  0  0  0  0  0  0  0  0
   -3.4623   -2.6685   -0.2401 H   0  0  0  0  0  0  0  0  0  0  0  0
   -1.7863   -2.0195    0.9119 C   0  0  0  0  0  0  0  0  0  0  0  0
   -0.9073   -2.6615    1.4699 O   0  0  0  0  0  0  0  0  0  0  0  0
   -1.5803   -0.8195    0.3749 N   0  0  0  0  0  0  0  0  0  0  0  0
   -2.3603   -0.3345   -0.0451 H   0  0  0  0  0  0  0  0  0  0  0  0
   -0.2933   -0.1205    0.3719 C   0  0  1  0  0  0  0  0  0  0  0  0
    0.4883   -0.8267    0.6556 H   0  0  0  0  0  0  0  0  0  0  0  0
    0.0014    0.3829   -1.0559 C   0  0  0  0  0  0  0  0  0  0  0  0
   -0.8516    0.9766   -1.3889 H   0  0  0  0  0  0  0  0  0  0  0  0
    0.8785    1.0314   -1.0349 H   0  0  0  0  0  0  0  0  0  0  0  0
    0.2500   -0.7426   -2.0748 C   0  0  0  0  0  0  0  0  0  0  0  0
    1.1123   -1.3357   -1.7699 H   0  0  0  0  0  0  0  0  0  0  0  0
   -0.6279   -1.3861   -2.1185 H   0  0  0  0  0  0  0  0  0  0  0  0
    0.5133   -0.2048   -3.4777 C   0  0  0  0  0  0  0  0  0  0  0  0
    0.4117    0.9654   -3.8096 O   0  0  0  0  0  0  0  0  0  0  0  0
    0.8715   -1.1240   -4.3933 O   0  0  0  0  0  0  0  0  0  0  0  0
    0.9852   -0.6343   -5.2097 H   0  0  0  0  0  0  0  0  0  0  0  0
   -0.3027    1.0190    1.4034 C   0  0  0  0  0  0  0  0  0  0  0  0
   -1.3101    1.2322    2.0754 O   0  0  0  0  0  0  0  0  0  0  0  0
    0.8103    1.7536    1.5180 N   0  0  0  0  0  0  0  0  0  0  0  0
    1.6053    1.5046    0.9487 H   0  0  0  0  0  0  0  0  0  0  0  0
    0.9525    2.8827    2.4350 C   0  0  0  0  0  0  0  0  0  0  0  0
    0.7563    2.5552    3.4575 H   0  0  0  0  0  0  0  0  0  0  0  0
    1.9617    3.2929    2.3774 H   0  0  0  0  0  0  0  0  0  0  0  0
    0.2317    3.6608    2.1761 H   0  0  0  0  0  0  0  0  0  0  0  0
  5  6  2  0  0  0  0
  5  7  1  0  0  0  0
  2  3  1  0  0  0  0
  2  4  1  0  0  0  0
  2  5  1  0  0  0  0
  1  2  1  0  0  0  0
 21 22  2  0  0  0  0
 21 23  1  0  0  0  0
 19 20  1  0  0  0  0
 17 18  2  0  0  0  0
 17 19  1  0  0  0  0
 14 15  1  0  0  0  0
 14 16  1  0  0  0  0
 14 17  1  0  0  0  0
 11 12  1  0  0  0  0
 11 13  1  0  0  0  0
 11 14  1  0  0  0  0
  9 10  1  0  0  0  0
  9 11  1  0  0  0  0
  9 21  1  0  0  0  0
  7  8  1  0  0  0  0
  7  9  1  0  0  0  0
 25 26  1  0  0  0  0
 25 27  1  0  0  0  0
 25 28  1  0  0  0  0
 23 24  1  0  0  0  0
 23 25  1  0  0  0  0
M  END
$$$$
default_name
  -OEChem-01062215323D

 28 27  0     1  0  0  0  0  0999 V2000
   -3.2133   -3.5565    1.2809 H   0  0  0  0  0  0  0  0  0  0  0  0
   -3.1873   -2.5755    0.8089 C   0  0  0  0  0  0  0  0  0  0  0  0
   -3.8793   -1.9065    1.3169 H   0  0  0  0  0  0  0  0  0  0  0  0
   -3.4623   -2.6685   -0.2401 H   0  0  0  0  0  0  0  0  0  0  0  0
   -1.7863   -2.0195    0.9119 C   0  0  0  0  0  0  0  0  0  0  0  0
   -0.9073   -2.6615    1.4699 O   0  0  0  0  0  0  0  0  0  0  0  0
   -1.5803   -0.8195    0.3749 N   0  0  0  0  0  0  0  0  0  0  0  0
   -2.3603   -0.3345   -0.0451 H   0  0  0  0  0  0  0  0  0  0  0  0
   -0.2933   -0.1205    0.3719 C   0  0  1  0  0  0  0  0  0  0  0  0
    0.4883   -0.8267    0.6556 H   0  0  0  0  0  0  0  0  0  0  0  0
    0.0014    0.3829   -1.0559 C   0  0  0  0  0  0  0  0  0  0  0  0
   -0.8516    0.9766   -1.3889 H   0  0  0  0  0  0  0  0  0  0  0  0
    0.8785    1.0314   -1.0349 H   0  0  0  0  0  0  0  0  0  0  0  0
    0.2500   -0.7426   -2.0748 C   0  0  0  0  0  0  0  0  0  0  0  0
    1.1123   -1.3357   -1.7699 H   0  0  0  0  0  0  0  0  0  0  0  0
   -0.6279   -1.3861   -2.1185 H   0  0  0  0  0  0  0  0  0  0  0  0
    0.5133   -0.2048   -3.4777 C   0  0  0  0  0  0  0  0  0  0  0  0
    0.4117    0.9654   -3.8096 O   0  0  0  0  0  0  0  0  0  0  0  0
    0.8715   -1.1240   -4.3933 O   0  0  0  0  0  0  0  0  0  0  0  0
    0.9852   -0.6343   -5.2097 H   0  0  0  0  0  0  0  0  0  0  0  0
   -0.3027    1.0190    1.4034 C   0  0  0  0  0  0  0  0  0  0  0  0
   -1.1839    1.0666    2.2595 O   0  0  0  0  0  0  0  0  0  0  0  0
    0.6666    1.9376    1.3134 N   0  0  0  0  0  0  0  0  0  0  0  0
    1.3687    1.8199    0.5983 H   0  0  0  0  0  0  0  0  0  0  0  0
    0.7835    3.0911    2.2032 C   0  0  0  0  0  0  0  0  0  0  0  0
    0.8470    2.7534    3.2393 H   0  0  0  0  0  0  0  0  0  0  0  0
    1.6760    3.6690    1.9593 H   0  0  0  0  0  0  0  0  0  0  0  0
   -0.0976    3.7273    2.0996 H   0  0  0  0  0  0  0  0  0  0  0  0
  5  6  2  0  0  0  0
  5  7  1  0  0  0  0
  2  3  1  0  0  0  0
  2  4  1  0  0  0  0
  2  5  1  0  0  0  0
  1  2  1  0  0  0  0
 21 22  2  0  0  0  0
 21 23  1  0  0  0  0
 19 20  1  0  0  0  0
 17 18  2  0  0  0  0
 17 19  1  0  0  0  0
 14 15  1  0  0  0  0
 14 16  1  0  0  0  0
 14 17  1  0  0  0  0
 11 12  1  0  0  0  0
 11 13  1  0  0  0  0
 11 14  1  0  0  0  0
  9 10  1  0  0  0  0
  9 11  1  0  0  0  0
  9 21  1  0  0  0  0
  7  8  1  0  0  0  0
  7  9  1  0  0  0  0
 25 26  1  0  0  0  0
 25 27  1  0  0  0  0
 25 28  1  0  0  0  0
 23 24  1  0  0  0  0
 23 25  1  0  0  0  0
M  END
$$$$
default_name
  -OEChem-01062215323D

 28 27  0     1  0  0  0  0  0999 V2000
   -3.2133   -3.5565    1.2809 H   0  0  0  0  0  0  0  0  0  0  0  0
   -3.1873   -2.5755    0.8089 C   0  0  0  0  0  0  0  0  0  0  0  0
   -3.8793   -1.9065    1.3169 H   0  0  0  0  0  0  0  0  0  0  0  0
   -3.4623   -2.6685   -0.2401 H   0  0  0  0  0  0  0  0  0  0  0  0
   -1.7863   -2.0195    0.9119 C   0  0  0  0  0  0  0  0  0  0  0  0
   -0.9073   -2.6615    1.4699 O   0  0  0  0  0  0  0  0  0  0  0  0
   -1.5803   -0.8195    0.3749 N   0  0  0  0  0  0  0  0  0  0  0  0
   -2.3603   -0.3345   -0.0451 H   0  0  0  0  0  0  0  0  0  0  0  0
   -0.2933   -0.1205    0.3719 C   0  0  1  0  0  0  0  0  0  0  0  0
    0.4883   -0.8267    0.6556 H   0  0  0  0  0  0  0  0  0  0  0  0
    0.0014    0.3829   -1.0559 C   0  0  0  0  0  0  0  0  0  0  0  0
   -0.8516    0.9766   -1.3889 H   0  0  0  0  0  0  0  0  0  0  0  0
    0.8785    1.0314   -1.0349 H   0  0  0  0  0  0  0  0  0  0  0  0
    0.2500   -0.7426   -2.0748 C   0  0  0  0  0  0  0  0  0  0  0  0
    1.1123   -1.3357   -1.7699 H   0  0  0  0  0  0  0  0  0  0  0  0
   -0.6279   -1.3861   -2.1185 H   0  0  0  0  0  0  0  0  0  0  0  0
    0.5133   -0.2048   -3.4777 C   0  0  0  0  0  0  0  0  0  0  0  0
    0.4117    0.9654   -3.8096 O   0  0  0  0  0  0  0  0  0  0  0  0
    0.8715   -1.1240   -4.3933 O   0  0  0  0  0  0  0  0  0  0  0  0
    0.9852   -0.6343   -5.2097 H   0  0  0  0  0  0  0  0  0  0  0  0
   -0.3027    1.0190    1.4034 C   0  0  0  0  0  0  0  0  0  0  0  0
   -0.9980    0.9288    2.4134 O   0  0  0  0  0  0  0  0  0  0  0  0
    0.4567    2.0900    1.1431 N   0  0  0  0  0  0  0  0  0  0  0  0
    1.0181    2.0827    0.3047 H   0  0  0  0  0  0  0  0  0  0  0  0
    0.5396    3.2626    2.0115 C   0  0  0  0  0  0  0  0  0  0  0  0
    0.8583    2.9604    3.0108 H   0  0  0  0  0  0  0  0  0  0  0  0
    1.2545    3.9821    1.6096 H   0  0  0  0  0  0  0  0  0  0  0  0
   -0.4420    3.7343    2.0888 H   0  0  0  0  0  0  0  0  0  0  0  0
  5  6  2  0  0  0  0
  5  7  1  0  0  0  0
  2  3  1  0  0  0  0
  2  4  1  0  0  0  0
  2  5  1  0  0  0  0
  1  2  1  0  0  0  0
 21 22  2  0  0  0  0
 21 23  1  0  0  0  0
 19 20  1  0  0  0  0
 17 18  2  0  0  0  0
 17 19  1  0  0  0  0
 14 15  1  0  0  0  0
 14 16  1  0  0  0  0
 14 17  1  0  0  0  0
 11 12  1  0  0  0  0
 11 13  1  0  0  0  0
 11 14  1  0  0  0  0
  9 10  1  0  0  0  0
  9 11  1  0  0  0  0
  9 21  1  0  0  0  0
  7  8  1  0  0  0  0
  7  9  1  0  0  0  0
 25 26  1  0  0  0  0
 25 27  1  0  0  0  0
 25 28  1  0  0  0  0
 23 24  1  0  0  0  0
 23 25  1  0  0  0  0
M  END
$$$$
default_name
  -OEChem-01062215323D

 28 27  0     1  0  0  0  0  0999 V2000
   -3.2133   -3.5565    1.2809 H   0  0  0  0  0  0  0  0  0  0  0  0
   -3.1873   -2.5755    0.8089 C   0  0  0  0  0  0  0  0  0  0  0  0
   -3.8793   -1.9065    1.3169 H   0  0  0  0  0  0  0  0  0  0  0  0
   -3.4623   -2.6685   -0.2401 H   0  0  0  0  0  0  0  0  0  0  0  0
   -1.7863   -2.0195    0.9119 C   0  0  0  0  0  0  0  0  0  0  0  0
   -0.9073   -2.6615    1.4699 O   0  0  0  0  0  0  0  0  0  0  0  0
   -1.5803   -0.8195    0.3749 N   0  0  0  0  0  0  0  0  0  0  0  0
   -2.3603   -0.3345   -0.0451 H   0  0  0  0  0  0  0  0  0  0  0  0
   -0.2933   -0.1205    0.3719 C   0  0  1  0  0  0  0  0  0  0  0  0
    0.4883   -0.8267    0.6556 H   0  0  0  0  0  0  0  0  0  0  0  0
    0.0014    0.3829   -1.0559 C   0  0  0  0  0  0  0  0  0  0  0  0
   -0.8516    0.9766   -1.3889 H   0  0  0  0  0  0  0  0  0  0  0  0
    0.8785    1.0314   -1.0349 H   0  0  0  0  0  0  0  0  0  0  0  0
    0.2500   -0.7426   -2.0748 C   0  0  0  0  0  0  0  0  0  0  0  0
    1.1123   -1.3357   -1.7699 H   0  0  0  0  0  0  0  0  0  0  0  0
   -0.6279   -1.3861   -2.1185 H   0  0  0  0  0  0  0  0  0  0  0  0
    0.5133   -0.2048   -3.4777 C   0  0  0  0  0  0  0  0  0  0  0  0
    0.4117    0.9654   -3.8096 O   0  0  0  0  0  0  0  0  0  0  0  0
    0.8715   -1.1240   -4.3933 O   0  0  0  0  0  0  0  0  0  0  0  0
    0.9852   -0.6343   -5.2097 H   0  0  0  0  0  0  0  0  0  0  0  0
   -0.3027    1.0190    1.4034 C   0  0  0  0  0  0  0  0  0  0  0  0
   -0.7650    0.8283    2.5266 O   0  0  0  0  0  0  0  0  0  0  0  0
    0.1947    2.2006    1.0186 N   0  0  0  0  0  0  0  0  0  0  0  0
    0.5776    2.2752    0.0880 H   0  0  0  0  0  0  0  0  0  0  0  0
    0.2375    3.3856    1.8728 C   0  0  0  0  0  0  0  0  0  0  0  0
    0.7894    3.1619    2.7876 H   0  0  0  0  0  0  0  0  0  0  0  0
    0.7258    4.2106    1.3522 H   0  0  0  0  0  0  0  0  0  0  0  0
   -0.7779    3.6811    2.1444 H   0  0  0  0  0  0  0  0  0  0  0  0
  5  6  2  0  0  0  0
  5  7  1  0  0  0  0
  2  3  1  0  0  0  0
  2  4  1  0  0  0  0
  2  5  1  0  0  0  0
  1  2  1  0  0  0  0
 21 22  2  0  0  0  0
 21 23  1  0  0  0  0
 19 20  1  0  0  0  0
 17 18  2  0  0  0  0
 17 19  1  0  0  0  0
 14 15  1  0  0  0  0
 14 16  1  0  0  0  0
 14 17  1  0  0  0  0
 11 12  1  0  0  0  0
 11 13  1  0  0  0  0
 11 14  1  0  0  0  0
  9 10  1  0  0  0  0
  9 11  1  0  0  0  0
  9 21  1  0  0  0  0
  7  8  1  0  0  0  0
  7  9  1  0  0  0  0
 25 26  1  0  0  0  0
 25 27  1  0  0  0  0
 25 28  1  0  0  0  0
 23 24  1  0  0  0  0
 23 25  1  0  0  0  0
M  END
$$$$
default_name
  -OEChem-01062215323D

 28 27  0     1  0  0  0  0  0999 V2000
   -3.2133   -3.5565    1.2809 H   0  0  0  0  0  0  0  0  0  0  0  0
   -3.1873   -2.5755    0.8089 C   0  0  0  0  0  0  0  0  0  0  0  0
   -3.8793   -1.9065    1.3169 H   0  0  0  0  0  0  0  0  0  0  0  0
   -3.4623   -2.6685   -0.2401 H   0  0  0  0  0  0  0  0  0  0  0  0
   -1.7863   -2.0195    0.9119 C   0  0  0  0  0  0  0  0  0  0  0  0
   -0.9073   -2.6615    1.4699 O   0  0  0  0  0  0  0  0  0  0  0  0
   -1.5803   -0.8195    0.3749 N   0  0  0  0  0  0  0  0  0  0  0  0
   -2.3603   -0.3345   -0.0451 H   0  0  0  0  0  0  0  0  0  0  0  0
   -0.2933   -0.1205    0.3719 C   0  0  1  0  0  0  0  0  0  0  0  0
    0.4883   -0.8267    0.6556 H   0  0  0  0  0  0  0  0  0  0  0  0
    0.0014    0.3829   -1.0559 C   0  0  0  0  0  0  0  0  0  0  0  0
   -0.8516    0.9766   -1.3889 H   0  0  0  0  0  0  0  0  0  0  0  0
    0.8785    1.0314   -1.0349 H   0  0  0  0  0  0  0  0  0  0  0  0
    0.2500   -0.7426   -2.0748 C   0  0  0  0  0  0  0  0  0  0  0  0
    1.1123   -1.3357   -1.7699 H   0  0  0  0  0  0  0  0  0  0  0  0
   -0.6279   -1.3861   -2.1185 H   0  0  0  0  0  0  0  0  0  0  0  0
    0.5133   -0.2048   -3.4777 C   0  0  0  0  0  0  0  0  0  0  0  0
    0.4117    0.9654   -3.8096 O   0  0  0  0  0  0  0  0  0  0  0  0
    0.8715   -1.1240   -4.3933 O   0  0  0  0  0  0  0  0  0  0  0  0
    0.9852   -0.6343   -5.2097 H   0  0  0  0  0  0  0  0  0  0  0  0
   -0.3027    1.0190    1.4034 C   0  0  0  0  0  0  0  0  0  0  0  0
   -0.5007    0.7718    2.5914 O   0  0  0  0  0  0  0  0  0  0  0  0
   -0.1015    2.2616    0.9484 N   0  0  0  0  0  0  0  0  0  0  0  0
    0.0770    2.3843   -0.0371 H   0  0  0  0  0  0  0  0  0  0  0  0
   -0.1023    3.4518    1.7967 C   0  0  0  0  0  0  0  0  0  0  0  0
    0.6451    3.3442    2.5848 H   0  0  0  0  0  0  0  0  0  0  0  0
    0.1261    4.3392    1.2047 H   0  0  0  0  0  0  0  0  0  0  0  0
   -1.0824    3.5716    2.2626 H   0  0  0  0  0  0  0  0  0  0  0  0
  5  6  2  0  0  0  0
  5  7  1  0  0  0  0
  2  3  1  0  0  0  0
  2  4  1  0  0  0  0
  2  5  1  0  0  0  0
  1  2  1  0  0  0  0
 21 22  2  0  0  0  0
 21 23  1  0  0  0  0
 19 20  1  0  0  0  0
 17 18  2  0  0  0  0
 17 19  1  0  0  0  0
 14 15  1  0  0  0  0
 14 16  1  0  0  0  0
 14 17  1  0  0  0  0
 11 12  1  0  0  0  0
 11 13  1  0  0  0  0
 11 14  1  0  0  0  0
  9 10  1  0  0  0  0
  9 11  1  0  0  0  0
  9 21  1  0  0  0  0
  7  8  1  0  0  0  0
  7  9  1  0  0  0  0
 25 26  1  0  0  0  0
 25 27  1  0  0  0  0
 25 28  1  0  0  0  0
 23 24  1  0  0  0  0
 23 25  1  0  0  0  0
M  END
$$$$
default_name
  -OEChem-01062215323D

 28 27  0     1  0  0  0  0  0999 V2000
   -3.2133   -3.5565    1.2809 H   0  0  0  0  0  0  0  0  0  0  0  0
   -3.1873   -2.5755    0.8089 C   0  0  0  0  0  0  0  0  0  0  0  0
   -3.8793   -1.9065    1.3169 H   0  0  0  0  0  0  0  0  0  0  0  0
   -3.4623   -2.6685   -0.2401 H   0  0  0  0  0  0  0  0  0  0  0  0
   -1.7863   -2.0195    0.9119 C   0  0  0  0  0  0  0  0  0  0  0  0
   -0.9073   -2.6615    1.4699 O   0  0  0  0  0  0  0  0  0  0  0  0
   -1.5803   -0.8195    0.3749 N   0  0  0  0  0  0  0  0  0  0  0  0
   -2.3603   -0.3345   -0.0451 H   0  0  0  0  0  0  0  0  0  0  0  0
   -0.2933   -0.1205    0.3719 C   0  0  1  0  0  0  0  0  0  0  0  0
    0.4883   -0.8267    0.6556 H   0  0  0  0  0  0  0  0  0  0  0  0
    0.0014    0.3829   -1.0559 C   0  0  0  0  0  0  0  0  0  0  0  0
   -0.8516    0.9766   -1.3889 H   0  0  0  0  0  0  0  0  0  0  0  0
    0.8785    1.0314   -1.0349 H   0  0  0  0  0  0  0  0  0  0  0  0
    0.2500   -0.7426   -2.0748 C   0  0  0  0  0  0  0  0  0  0  0  0
    1.1123   -1.3357   -1.7699 H   0  0  0  0  0  0  0  0  0  0  0  0
   -0.6279   -1.3861   -2.1185 H   0  0  0  0  0  0  0  0  0  0  0  0
    0.5133   -0.2048   -3.4777 C   0  0  0  0  0  0  0  0  0  0  0  0
    0.4117    0.9654   -3.8096 O   0  0  0  0  0  0  0  0  0  0  0  0
    0.8715   -1.1240   -4.3933 O   0  0  0  0  0  0  0  0  0  0  0  0
    0.9852   -0.6343   -5.2097 H   0  0  0  0  0  0  0  0  0  0  0  0
   -0.3027    1.0190    1.4034 C   0  0  0  0  0  0  0  0  0  0  0  0
   -0.2232    0.7633    2.6034 O   0  0  0  0  0  0  0  0  0  0  0  0
   -0.4116    2.2690    0.9374 N   0  0  0  0  0  0  0  0  0  0  0  0
   -0.4495    2.4025   -0.0621 H   0  0  0  0  0  0  0  0  0  0  0  0
   -0.4567    3.4565    1.7882 C   0  0  0  0  0  0  0  0  0  0  0  0
    0.4351    3.4949    2.4164 H   0  0  0  0  0  0  0  0  0  0  0  0
   -0.5038    4.3590    1.1771 H   0  0  0  0  0  0  0  0  0  0  0  0
   -1.3348    3.4130    2.4354 H   0  0  0  0  0  0  0  0  0  0  0  0
  5  6  2  0  0  0  0
  5  7  1  0  0  0  0
  2  3  1  0  0  0  0
  2  4  1  0  0  0  0
  2  5  1  0  0  0  0
  1  2  1  0  0  0  0
 21 22  2  0  0  0  0
 21 23  1  0  0  0  0
 19 20  1  0  0  0  0
 17 18  2  0  0  0  0
 17 19  1  0  0  0  0
 14 15  1  0  0  0  0
 14 16  1  0  0  0  0
 14 17  1  0  0  0  0
 11 12  1  0  0  0  0
 11 13  1  0  0  0  0
 11 14  1  0  0  0  0
  9 10  1  0  0  0  0
  9 11  1  0  0  0  0
  9 21  1  0  0  0  0
  7  8  1  0  0  0  0
  7  9  1  0  0  0  0
 25 26  1  0  0  0  0
 25 27  1  0  0  0  0
 25 28  1  0  0  0  0
 23 24  1  0  0  0  0
 23 25  1  0  0  0  0
M  END
$$$$
default_name
  -OEChem-01062215323D

 28 27  0     1  0  0  0  0  0999 V2000
   -3.2133   -3.5565    1.2809 H   0  0  0  0  0  0  0  0  0  0  0  0
   -3.1873   -2.5755    0.8089 C   0  0  0  0  0  0  0  0  0  0  0  0
   -3.8793   -1.9065    1.3169 H   0  0  0  0  0  0  0  0  0  0  0  0
   -3.4623   -2.6685   -0.2401 H   0  0  0  0  0  0  0  0  0  0  0  0
   -1.7863   -2.0195    0.9119 C   0  0  0  0  0  0  0  0  0  0  0  0
   -0.9073   -2.6615    1.4699 O   0  0  0  0  0  0  0  0  0  0  0  0
   -1.5803   -0.8195    0.3749 N   0  0  0  0  0  0  0  0  0  0  0  0
   -2.3603   -0.3345   -0.0451 H   0  0  0  0  0  0  0  0  0  0  0  0
   -0.2933   -0.1205    0.3719 C   0  0  1  0  0  0  0  0  0  0  0  0
    0.4883   -0.8267    0.6556 H   0  0  0  0  0  0  0  0  0  0  0  0
    0.0014    0.3829   -1.0559 C   0  0  0  0  0  0  0  0  0  0  0  0
   -0.8516    0.9766   -1.3889 H   0  0  0  0  0  0  0  0  0  0  0  0
    0.8785    1.0314   -1.0349 H   0  0  0  0  0  0  0  0  0  0  0  0
    0.2500   -0.7426   -2.0748 C   0  0  0  0  0  0  0  0  0  0  0  0
    1.1123   -1.3357   -1.7699 H   0  0  0  0  0  0  0  0  0  0  0  0
   -0.6279   -1.3861   -2.1185 H   0  0  0  0  0  0  0  0  0  0  0  0
    0.5133   -0.2048   -3.4777 C   0  0  0  0  0  0  0  0  0  0  0  0
    0.4117    0.9654   -3.8096 O   0  0  0  0  0  0  0  0  0  0  0  0
    0.8715   -1.1240   -4.3933 O   0  0  0  0  0  0  0  0  0  0  0  0
    0.9852   -0.6343   -5.2097 H   0  0  0  0  0  0  0  0  0  0  0  0
   -0.3027    1.0190    1.4034 C   0  0  0  0  0  0  0  0  0  0  0  0
    0.0486    0.8032    2.5617 O   0  0  0  0  0  0  0  0  0  0  0  0
   -0.7145    2.2223    0.9862 N   0  0  0  0  0  0  0  0  0  0  0  0
   -0.9660    2.3287    0.0148 H   0  0  0  0  0  0  0  0  0  0  0  0
   -0.8014    3.3995    1.8480 C   0  0  0  0  0  0  0  0  0  0  0  0
    0.1737    3.6037    2.2938 H   0  0  0  0  0  0  0  0  0  0  0  0
   -1.1210    4.2686    1.2712 H   0  0  0  0  0  0  0  0  0  0  0  0
   -1.5180    3.2163    2.6511 H   0  0  0  0  0  0  0  0  0  0  0  0
  5  6  2  0  0  0  0
  5  7  1  0  0  0  0
  2  3  1  0  0  0  0
  2  4  1  0  0  0  0
  2  5  1  0  0  0  0
  1  2  1  0  0  0  0
 21 22  2  0  0  0  0
 21 23  1  0  0  0  0
 19 20  1  0  0  0  0
 17 18  2  0  0  0  0
 17 19  1  0  0  0  0
 14 15  1  0  0  0  0
 14 16  1  0  0  0  0
 14 17  1  0  0  0  0
 11 12  1  0  0  0  0
 11 13  1  0  0  0  0
 11 14  1  0  0  0  0
  9 10  1  0  0  0  0
  9 11  1  0  0  0  0
  9 21  1  0  0  0  0
  7  8  1  0  0  0  0
  7  9  1  0  0  0  0
 25 26  1  0  0  0  0
 25 27  1  0  0  0  0
 25 28  1  0  0  0  0
 23 24  1  0  0  0  0
 23 25  1  0  0  0  0
M  END
$$$$
default_name
  -OEChem-01062215323D

 28 27  0     1  0  0  0  0  0999 V2000
   -3.2133   -3.5565    1.2809 H   0  0  0  0  0  0  0  0  0  0  0  0
   -3.1873   -2.5755    0.8089 C   0  0  0  0  0  0  0  0  0  0  0  0
   -3.8793   -1.9065    1.3169 H   0  0  0  0  0  0  0  0  0  0  0  0
   -3.4623   -2.6685   -0.2401 H   0  0  0  0  0  0  0  0  0  0  0  0
   -1.7863   -2.0195    0.9119 C   0  0  0  0  0  0  0  0  0  0  0  0
   -0.9073   -2.6615    1.4699 O   0  0  0  0  0  0  0  0  0  0  0  0
   -1.5803   -0.8195    0.3749 N   0  0  0  0  0  0  0  0  0  0  0  0
   -2.3603   -0.3345   -0.0451 H   0  0  0  0  0  0  0  0  0  0  0  0
   -0.2933   -0.1205    0.3719 C   0  0  1  0  0  0  0  0  0  0  0  0
    0.4883   -0.8267    0.6556 H   0  0  0  0  0  0  0  0  0  0  0  0
    0.0014    0.3829   -1.0559 C   0  0  0  0  0  0  0  0  0  0  0  0
   -0.8516    0.9766   -1.3889 H   0  0  0  0  0  0  0  0  0  0  0  0
    0.8785    1.0314   -1.0349 H   0  0  0  0  0  0  0  0  0  0  0  0
    0.2500   -0.7426   -2.0748 C   0  0  0  0  0  0  0  0  0  0  0  0
    1.1123   -1.3357   -1.7699 H   0  0  0  0  0  0  0  0  0  0  0  0
   -0.6279   -1.3861   -2.1185 H   0  0  0  0  0  0  0  0  0  0  0  0
    0.5133   -0.2048   -3.4777 C   0  0  0  0  0  0  0  0  0  0  0  0
    0.4117    0.9654   -3.8096 O   0  0  0  0  0  0  0  0  0  0  0  0
    0.8715   -1.1240   -4.3933 O   0  0  0  0  0  0  0  0  0  0  0  0
    0.9852   -0.6343   -5.2097 H   0  0  0  0  0  0  0  0  0  0  0  0
   -0.3027    1.0190    1.4034 C   0  0  0  0  0  0  0  0  0  0  0  0
    0.2962    0.8890    2.4693 O   0  0  0  0  0  0  0  0  0  0  0  0
   -0.9897    2.1247    1.0916 N   0  0  0  0  0  0  0  0  0  0  0  0
   -1.4373    2.1677    0.1883 H   0  0  0  0  0  0  0  0  0  0  0  0
   -1.1130    3.2847    1.9720 C   0  0  0  0  0  0  0  0  0  0  0  0
   -0.1211    3.6632    2.2254 H   0  0  0  0  0  0  0  0  0  0  0  0
   -1.6834    4.0743    1.4808 H   0  0  0  0  0  0  0  0  0  0  0  0
   -1.6194    2.9949    2.8948 H   0  0  0  0  0  0  0  0  0  0  0  0
  5  6  2  0  0  0  0
  5  7  1  0  0  0  0
  2  3  1  0  0  0  0
  2  4  1  0  0  0  0
  2  5  1  0  0  0  0
  1  2  1  0  0  0  0
 21 22  2  0  0  0  0
 21 23  1  0  0  0  0
 19 20  1  0  0  0  0
 17 18  2  0  0  0  0
 17 19  1  0  0  0  0
 14 15  1  0  0  0  0
 14 16  1  0  0  0  0
 14 17  1  0  0  0  0
 11 12  1  0  0  0  0
 11 13  1  0  0  0  0
 11 14  1  0  0  0  0
  9 10  1  0  0  0  0
  9 11  1  0  0  0  0
  9 21  1  0  0  0  0
  7  8  1  0  0  0  0
  7  9  1  0  0  0  0
 25 26  1  0  0  0  0
 25 27  1  0  0  0  0
 25 28  1  0  0  0  0
 23 24  1  0  0  0  0
 23 25  1  0  0  0  0
M  END
$$$$
default_name
  -OEChem-01062215323D

 28 27  0     1  0  0  0  0  0999 V2000
   -3.2133   -3.5565    1.2809 H   0  0  0  0  0  0  0  0  0  0  0  0
   -3.1873   -2.5755    0.8089 C   0  0  0  0  0  0  0  0  0  0  0  0
   -3.8793   -1.9065    1.3169 H   0  0  0  0  0  0  0  0  0  0  0  0
   -3.4623   -2.6685   -0.2401 H   0  0  0  0  0  0  0  0  0  0  0  0
   -1.7863   -2.0195    0.9119 C   0  0  0  0  0  0  0  0  0  0  0  0
   -0.9073   -2.6615    1.4699 O   0  0  0  0  0  0  0  0  0  0  0  0
   -1.5803   -0.8195    0.3749 N   0  0  0  0  0  0  0  0  0  0  0  0
   -2.3603   -0.3345   -0.0451 H   0  0  0  0  0  0  0  0  0  0  0  0
   -0.2933   -0.1205    0.3719 C   0  0  1  0  0  0  0  0  0  0  0  0
    0.4883   -0.8267    0.6556 H   0  0  0  0  0  0  0  0  0  0  0  0
    0.0014    0.3829   -1.0559 C   0  0  0  0  0  0  0  0  0  0  0  0
   -0.8516    0.9766   -1.3889 H   0  0  0  0  0  0  0  0  0  0  0  0
    0.8785    1.0314   -1.0349 H   0  0  0  0  0  0  0  0  0  0  0  0
    0.2500   -0.7426   -2.0748 C   0  0  0  0  0  0  0  0  0  0  0  0
    1.1123   -1.3357   -1.7699 H   0  0  0  0  0  0  0  0  0  0  0  0
   -0.6279   -1.3861   -2.1185 H   0  0  0  0  0  0  0  0  0  0  0  0
    0.5133   -0.2048   -3.4777 C   0  0  0  0  0  0  0  0  0  0  0  0
    0.4117    0.9654   -3.8096 O   0  0  0  0  0  0  0  0  0  0  0  0
    0.8715   -1.1240   -4.3933 O   0  0  0  0  0  0  0  0  0  0  0  0
    0.9852   -0.6343   -5.2097 H   0  0  0  0  0  0  0  0  0  0  0  0
   -0.3027    1.0190    1.4034 C   0  0  0  0  0  0  0  0  0  0  0  0
    0.5028    1.0147    2.3323 O   0  0  0  0  0  0  0  0  0  0  0  0
   -1.2183    1.9827    1.2463 N   0  0  0  0  0  0  0  0  0  0  0  0
   -1.8314    1.9306    0.4466 H   0  0  0  0  0  0  0  0  0  0  0  0
   -1.3703    3.1199    2.1517 C   0  0  0  0  0  0  0  0  0  0  0  0
   -0.4294    3.6694    2.2157 H   0  0  0  0  0  0  0  0  0  0  0  0
   -2.1526    3.7893    1.7913 H   0  0  0  0  0  0  0  0  0  0  0  0
   -1.6320    2.7637    3.1500 H   0  0  0  0  0  0  0  0  0  0  0  0
  5  6  2  0  0  0  0
  5  7  1  0  0  0  0
  2  3  1  0  0  0  0
  2  4  1  0  0  0  0
  2  5  1  0  0  0  0
  1  2  1  0  0  0  0
 21 22  2  0  0  0  0
 21 23  1  0  0  0  0
 19 20  1  0  0  0  0
 17 18  2  0  0  0  0
 17 19  1  0  0  0  0
 14 15  1  0  0  0  0
 14 16  1  0  0  0  0
 14 17  1  0  0  0  0
 11 12  1  0  0  0  0
 11 13  1  0  0  0  0
 11 14  1  0  0  0  0
  9 10  1  0  0  0  0
  9 11  1  0  0  0  0
  9 21  1  0  0  0  0
  7  8  1  0  0  0  0
  7  9  1  0  0  0  0
 25 26  1  0  0  0  0
 25 27  1  0  0  0  0
 25 28  1  0  0  0  0
 23 24  1  0  0  0  0
 23 25  1  0  0  0  0
M  END
$$$$
default_name
  -OEChem-01062215323D

 28 27  0     1  0  0  0  0  0999 V2000
   -3.2133   -3.5565    1.2809 H   0  0  0  0  0  0  0  0  0  0  0  0
   -3.1873   -2.5755    0.8089 C   0  0  0  0  0  0  0  0  0  0  0  0
   -3.8793   -1.9065    1.3169 H   0  0  0  0  0  0  0  0  0  0  0  0
   -3.4623   -2.6685   -0.2401 H   0  0  0  0  0  0  0  0  0  0  0  0
   -1.7863   -2.0195    0.9119 C   0  0  0  0  0  0  0  0  0  0  0  0
   -0.9073   -2.6615    1.4699 O   0  0  0  0  0  0  0  0  0  0  0  0
   -1.5803   -0.8195    0.3749 N   0  0  0  0  0  0  0  0  0  0  0  0
   -2.3603   -0.3345   -0.0451 H   0  0  0  0  0  0  0  0  0  0  0  0
   -0.2933   -0.1205    0.3719 C   0  0  1  0  0  0  0  0  0  0  0  0
    0.4883   -0.8267    0.6556 H   0  0  0  0  0  0  0  0  0  0  0  0
    0.0014    0.3829   -1.0559 C   0  0  0  0  0  0  0  0  0  0  0  0
   -0.8516    0.9766   -1.3889 H   0  0  0  0  0  0  0  0  0  0  0  0
    0.8785    1.0314   -1.0349 H   0  0  0  0  0  0  0  0  0  0  0  0
    0.2500   -0.7426   -2.0748 C   0  0  0  0  0  0  0  0  0  0  0  0
    1.1123   -1.3357   -1.7699 H   0  0  0  0  0  0  0  0  0  0  0  0
   -0.6279   -1.3861   -2.1185 H   0  0  0  0  0  0  0  0  0  0  0  0
    0.5133   -0.2048   -3.4777 C   0  0  0  0  0  0  0  0  0  0  0  0
    0.4117    0.9654   -3.8096 O   0  0  0  0  0  0  0  0  0  0  0  0
    0.8715   -1.1240   -4.3933 O   0  0  0  0  0  0  0  0  0  0  0  0
    0.9852   -0.6343   -5.2097 H   0  0  0  0  0  0  0  0  0  0  0  0
   -0.3027    1.0190    1.4034 C   0  0  0  0  0  0  0  0  0  0  0  0
    0.6542    1.1718    2.1602 O   0  0  0  0  0  0  0  0  0  0  0  0
   -1.3847    1.8061    1.4399 N   0  0  0  0  0  0  0  0  0  0  0  0
   -2.1212    1.6336    0.7720 H   0  0  0  0  0  0  0  0  0  0  0  0
   -1.5556    2.9162    2.3750 C   0  0  0  0  0  0  0  0  0  0  0  0
   -0.7301    3.6218    2.2655 H   0  0  0  0  0  0  0  0  0  0  0  0
   -2.4968    3.4329    2.1818 H   0  0  0  0  0  0  0  0  0  0  0  0
   -1.5552    2.5386    3.3994 H   0  0  0  0  0  0  0  0  0  0  0  0
  5  6  2  0  0  0  0
  5  7  1  0  0  0  0
  2  3  1  0  0  0  0
  2  4  1  0  0  0  0
  2  5  1  0  0  0  0
  1  2  1  0  0  0  0
 21 22  2  0  0  0  0
 21 23  1  0  0  0  0
 19 20  1  0  0  0  0
 17 18  2  0  0  0  0
 17 19  1  0  0  0  0
 14 15  1  0  0  0  0
 14 16  1  0  0  0  0
 14 17  1  0  0  0  0
 11 12  1  0  0  0  0
 11 13  1  0  0  0  0
 11 14  1  0  0  0  0
  9 10  1  0  0  0  0
  9 11  1  0  0  0  0
  9 21  1  0  0  0  0
  7  8  1  0  0  0  0
  7  9  1  0  0  0  0
 25 26  1  0  0  0  0
 25 27  1  0  0  0  0
 25 28  1  0  0  0  0
 23 24  1  0  0  0  0
 23 25  1  0  0  0  0
M  END
$$$$
default_name
  -OEChem-01062215323D

 28 27  0     1  0  0  0  0  0999 V2000
   -3.2133   -3.5565    1.2809 H   0  0  0  0  0  0  0  0  0  0  0  0
   -3.1873   -2.5755    0.8089 C   0  0  0  0  0  0  0  0  0  0  0  0
   -3.8793   -1.9065    1.3169 H   0  0  0  0  0  0  0  0  0  0  0  0
   -3.4623   -2.6685   -0.2401 H   0  0  0  0  0  0  0  0  0  0  0  0
   -1.7863   -2.0195    0.9119 C   0  0  0  0  0  0  0  0  0  0  0  0
   -0.9073   -2.6615    1.4699 O   0  0  0  0  0  0  0  0  0  0  0  0
   -1.5803   -0.8195    0.3749 N   0  0  0  0  0  0  0  0  0  0  0  0
   -2.3603   -0.3345   -0.0451 H   0  0  0  0  0  0  0  0  0  0  0  0
   -0.2933   -0.1205    0.3719 C   0  0  1  0  0  0  0  0  0  0  0  0
    0.4883   -0.8267    0.6556 H   0  0  0  0  0  0  0  0  0  0  0  0
    0.0014    0.3829   -1.0559 C   0  0  0  0  0  0  0  0  0  0  0  0
   -0.8516    0.9766   -1.3889 H   0  0  0  0  0  0  0  0  0  0  0  0
    0.8785    1.0314   -1.0349 H   0  0  0  0  0  0  0  0  0  0  0  0
    0.2500   -0.7426   -2.0748 C   0  0  0  0  0  0  0  0  0  0  0  0
    1.1123   -1.3357   -1.7699 H   0  0  0  0  0  0  0  0  0  0  0  0
   -0.6279   -1.3861   -2.1185 H   0  0  0  0  0  0  0  0  0  0  0  0
    0.5133   -0.2048   -3.4777 C   0  0  0  0  0  0  0  0  0  0  0  0
    0.4117    0.9654   -3.8096 O   0  0  0  0  0  0  0  0  0  0  0  0
    0.8715   -1.1240   -4.3933 O   0  0  0  0  0  0  0  0  0  0  0  0
    0.9852   -0.6343   -5.2097 H   0  0  0  0  0  0  0  0  0  0  0  0
   -0.3027    1.0190    1.4034 C   0  0  0  0  0  0  0  0  0  0  0  0
    0.7401    1.3495    1.9646 O   0  0  0  0  0  0  0  0  0  0  0  0
   -1.4777    1.6070    1.6590 N   0  0  0  0  0  0  0  0  0  0  0  0
   -2.2872    1.2969    1.1425 H   0  0  0  0  0  0  0  0  0  0  0  0
   -1.6565    2.6877    2.6265 C   0  0  0  0  0  0  0  0  0  0  0  0
   -1.0027    3.5237    2.3714 H   0  0  0  0  0  0  0  0  0  0  0  0
   -2.6925    3.0296    2.6256 H   0  0  0  0  0  0  0  0  0  0  0  0
   -1.3940    2.3350    3.6258 H   0  0  0  0  0  0  0  0  0  0  0  0
  5  6  2  0  0  0  0
  5  7  1  0  0  0  0
  2  3  1  0  0  0  0
  2  4  1  0  0  0  0
  2  5  1  0  0  0  0
  1  2  1  0  0  0  0
 21 22  2  0  0  0  0
 21 23  1  0  0  0  0
 19 20  1  0  0  0  0
 17 18  2  0  0  0  0
 17 19  1  0  0  0  0
 14 15  1  0  0  0  0
 14 16  1  0  0  0  0
 14 17  1  0  0  0  0
 11 12  1  0  0  0  0
 11 13  1  0  0  0  0
 11 14  1  0  0  0  0
  9 10  1  0  0  0  0
  9 11  1  0  0  0  0
  9 21  1  0  0  0  0
  7  8  1  0  0  0  0
  7  9  1  0  0  0  0
 25 26  1  0  0  0  0
 25 27  1  0  0  0  0
 25 28  1  0  0  0  0
 23 24  1  0  0  0  0
 23 25  1  0  0  0  0
M  END
$$$$
default_name
  -OEChem-01062215323D

 28 27  0     1  0  0  0  0  0999 V2000
   -3.2133   -3.5565    1.2809 H   0  0  0  0  0  0  0  0  0  0  0  0
   -3.1873   -2.5755    0.8089 C   0  0  0  0  0  0  0  0  0  0  0  0
   -3.8793   -1.9065    1.3169 H   0  0  0  0  0  0  0  0  0  0  0  0
   -3.4623   -2.6685   -0.2401 H   0  0  0  0  0  0  0  0  0  0  0  0
   -1.7863   -2.0195    0.9119 C   0  0  0  0  0  0  0  0  0  0  0  0
   -0.9073   -2.6615    1.4699 O   0  0  0  0  0  0  0  0  0  0  0  0
   -1.5803   -0.8195    0.3749 N   0  0  0  0  0  0  0  0  0  0  0  0
   -2.3603   -0.3345   -0.0451 H   0  0  0  0  0  0  0  0  0  0  0  0
   -0.2933   -0.1205    0.3719 C   0  0  1  0  0  0  0  0  0  0  0  0
    0.4883   -0.8267    0.6556 H   0  0  0  0  0  0  0  0  0  0  0  0
    0.0014    0.3829   -1.0559 C   0  0  0  0  0  0  0  0  0  0  0  0
   -0.8516    0.9766   -1.3889 H   0  0  0  0  0  0  0  0  0  0  0  0
    0.8785    1.0314   -1.0349 H   0  0  0  0  0  0  0  0  0  0  0  0
    0.2500   -0.7426   -2.0748 C   0  0  0  0  0  0  0  0  0  0  0  0
    1.1123   -1.3357   -1.7699 H   0  0  0  0  0  0  0  0  0  0  0  0
   -0.6279   -1.3861   -2.1185 H   0  0  0  0  0  0  0  0  0  0  0  0
    0.5133   -0.2048   -3.4777 C   0  0  0  0  0  0  0  0  0  0  0  0
    0.4117    0.9654   -3.8096 O   0  0  0  0  0  0  0  0  0  0  0  0
    0.8715   -1.1240   -4.3933 O   0  0  0  0  0  0  0  0  0  0  0  0
    0.9852   -0.6343   -5.2097 H   0  0  0  0  0  0  0  0  0  0  0  0
   -0.3027    1.0190    1.4034 C   0  0  0  0  0  0  0  0  0  0  0  0
    0.7547    1.5358    1.7589 O   0  0  0  0  0  0  0  0  0  0  0  0
   -1.4909    1.3988    1.8889 N   0  0  0  0  0  0  0  0  0  0  0  0
   -2.3179    0.9435    1.5327 H   0  0  0  0  0  0  0  0  0  0  0  0
   -1.6660    2.4499    2.8891 C   0  0  0  0  0  0  0  0  0  0  0  0
   -1.2287    3.3818    2.5262 H   0  0  0  0  0  0  0  0  0  0  0  0
   -2.7262    2.6067    3.0925 H   0  0  0  0  0  0  0  0  0  0  0  0
   -1.1595    2.1666    3.8139 H   0  0  0  0  0  0  0  0  0  0  0  0
  5  6  2  0  0  0  0
  5  7  1  0  0  0  0
  2  3  1  0  0  0  0
  2  4  1  0  0  0  0
  2  5  1  0  0  0  0
  1  2  1  0  0  0  0
 21 22  2  0  0  0  0
 21 23  1  0  0  0  0
 19 20  1  0  0  0  0
 17 18  2  0  0  0  0
 17 19  1  0  0  0  0
 14 15  1  0  0  0  0
 14 16  1  0  0  0  0
 14 17  1  0  0  0  0
 11 12  1  0  0  0  0
 11 13  1  0  0  0  0
 11 14  1  0  0  0  0
  9 10  1  0  0  0  0
  9 11  1  0  0  0  0
  9 21  1  0  0  0  0
  7  8  1  0  0  0  0
  7  9  1  0  0  0  0
 25 26  1  0  0  0  0
 25 27  1  0  0  0  0
 25 28  1  0  0  0  0
 23 24  1  0  0  0  0
 23 25  1  0  0  0  0
M  END
$$$$
default_name
  -OEChem-01062215323D

 28 27  0     1  0  0  0  0  0999 V2000
   -3.2133   -3.5565    1.2809 H   0  0  0  0  0  0  0  0  0  0  0  0
   -3.1873   -2.5755    0.8089 C   0  0  0  0  0  0  0  0  0  0  0  0
   -3.8793   -1.9065    1.3169 H   0  0  0  0  0  0  0  0  0  0  0  0
   -3.4623   -2.6685   -0.2401 H   0  0  0  0  0  0  0  0  0  0  0  0
   -1.7863   -2.0195    0.9119 C   0  0  0  0  0  0  0  0  0  0  0  0
   -0.9073   -2.6615    1.4699 O   0  0  0  0  0  0  0  0  0  0  0  0
   -1.5803   -0.8195    0.3749 N   0  0  0  0  0  0  0  0  0  0  0  0
   -2.3603   -0.3345   -0.0451 H   0  0  0  0  0  0  0  0  0  0  0  0
   -0.2933   -0.1205    0.3719 C   0  0  1  0  0  0  0  0  0  0  0  0
    0.4883   -0.8267    0.6556 H   0  0  0  0  0  0  0  0  0  0  0  0
    0.0014    0.3829   -1.0559 C   0  0  0  0  0  0  0  0  0  0  0  0
   -0.8516    0.9766   -1.3889 H   0  0  0  0  0  0  0  0  0  0  0  0
    0.8785    1.0314   -1.0349 H   0  0  0  0  0  0  0  0  0  0  0  0
    0.2500   -0.7426   -2.0748 C   0  0  0  0  0  0  0  0  0  0  0  0
    1.1123   -1.3357   -1.7699 H   0  0  0  0  0  0  0  0  0  0  0  0
   -0.6279   -1.3861   -2.1185 H   0  0  0  0  0  0  0  0  0  0  0  0
    0.5133   -0.2048   -3.4777 C   0  0  0  0  0  0  0  0  0  0  0  0
    0.4117    0.9654   -3.8096 O   0  0  0  0  0  0  0  0  0  0  0  0
    0.8715   -1.1240   -4.3933 O   0  0  0  0  0  0  0  0  0  0  0  0
    0.9852   -0.6343   -5.2097 H   0  0  0  0  0  0  0  0  0  0  0  0
   -0.3027    1.0190    1.4034 C   0  0  0  0  0  0  0  0  0  0  0  0
    0.6970    1.7180    1.5571 O   0  0  0  0  0  0  0  0  0  0  0  0
   -1.4233    1.1958    2.1138 N   0  0  0  0  0  0  0  0  0  0  0  0
   -2.2113    0.5973    1.9160 H   0  0  0  0  0  0  0  0  0  0  0  0
   -1.5834    2.2189    3.1451 C   0  0  0  0  0  0  0  0  0  0  0  0
   -1.3926    3.2056    2.7192 H   0  0  0  0  0  0  0  0  0  0  0  0
   -2.5958    2.1931    3.5506 H   0  0  0  0  0  0  0  0  0  0  0  0
   -0.8676    2.0451    3.9509 H   0  0  0  0  0  0  0  0  0  0  0  0
  5  6  2  0  0  0  0
  5  7  1  0  0  0  0
  2  3  1  0  0  0  0
  2  4  1  0  0  0  0
  2  5  1  0  0  0  0
  1  2  1  0  0  0  0
 21 22  2  0  0  0  0
 21 23  1  0  0  0  0
 19 20  1  0  0  0  0
 17 18  2  0  0  0  0
 17 19  1  0  0  0  0
 14 15  1  0  0  0  0
 14 16  1  0  0  0  0
 14 17  1  0  0  0  0
 11 12  1  0  0  0  0
 11 13  1  0  0  0  0
 11 14  1  0  0  0  0
  9 10  1  0  0  0  0
  9 11  1  0  0  0  0
  9 21  1  0  0  0  0
  7  8  1  0  0  0  0
  7  9  1  0  0  0  0
 25 26  1  0  0  0  0
 25 27  1  0  0  0  0
 25 28  1  0  0  0  0
 23 24  1  0  0  0  0
 23 25  1  0  0  0  0
M  END
$$$$
default_name
  -OEChem-01062215323D

 28 27  0     1  0  0  0  0  0999 V2000
   -3.2133   -3.5565    1.2809 H   0  0  0  0  0  0  0  0  0  0  0  0
   -3.1873   -2.5755    0.8089 C   0  0  0  0  0  0  0  0  0  0  0  0
   -3.8793   -1.9065    1.3169 H   0  0  0  0  0  0  0  0  0  0  0  0
   -3.4623   -2.6685   -0.2401 H   0  0  0  0  0  0  0  0  0  0  0  0
   -1.7863   -2.0195    0.9119 C   0  0  0  0  0  0  0  0  0  0  0  0
   -0.9073   -2.6615    1.4699 O   0  0  0  0  0  0  0  0  0  0  0  0
   -1.5803   -0.8195    0.3749 N   0  0  0  0  0  0  0  0  0  0  0  0
   -2.3603   -0.3345   -0.0451 H   0  0  0  0  0  0  0  0  0  0  0  0
   -0.2933   -0.1205    0.3719 C   0  0  1  0  0  0  0  0  0  0  0  0
    0.4883   -0.8267    0.6556 H   0  0  0  0  0  0  0  0  0  0  0  0
    0.0014    0.3829   -1.0559 C   0  0  0  0  0  0  0  0  0  0  0  0
   -0.8516    0.9766   -1.3889 H   0  0  0  0  0  0  0  0  0  0  0  0
    0.8785    1.0314   -1.0349 H   0  0  0  0  0  0  0  0  0  0  0  0
    0.2500   -0.7426   -2.0748 C   0  0  0  0  0  0  0  0  0  0  0  0
    1.1123   -1.3357   -1.7699 H   0  0  0  0  0  0  0  0  0  0  0  0
   -0.6279   -1.3861   -2.1185 H   0  0  0  0  0  0  0  0  0  0  0  0
    0.5133   -0.2048   -3.4777 C   0  0  0  0  0  0  0  0  0  0  0  0
    0.4117    0.9654   -3.8096 O   0  0  0  0  0  0  0  0  0  0  0  0
    0.8715   -1.1240   -4.3933 O   0  0  0  0  0  0  0  0  0  0  0  0
    0.9852   -0.6343   -5.2097 H   0  0  0  0  0  0  0  0  0  0  0  0
   -0.3027    1.0190    1.4034 C   0  0  0  0  0  0  0  0  0  0  0  0
    0.5709    1.8836    1.3730 O   0  0  0  0  0  0  0  0  0  0  0  0
   -1.2797    1.0118    2.3183 N   0  0  0  0  0  0  0  0  0  0  0  0
   -1.9747    0.2821    2.2664 H   0  0  0  0  0  0  0  0  0  0  0  0
   -1.4144    2.0105    3.3768 C   0  0  0  0  0  0  0  0  0  0  0  0
   -1.4833    3.0073    2.9374 H   0  0  0  0  0  0  0  0  0  0  0  0
   -2.3101    1.8170    3.9687 H   0  0  0  0  0  0  0  0  0  0  0  0
   -0.5383    1.9785    4.0274 H   0  0  0  0  0  0  0  0  0  0  0  0
  5  6  2  0  0  0  0
  5  7  1  0  0  0  0
  2  3  1  0  0  0  0
  2  4  1  0  0  0  0
  2  5  1  0  0  0  0
  1  2  1  0  0  0  0
 21 22  2  0  0  0  0
 21 23  1  0  0  0  0
 19 20  1  0  0  0  0
 17 18  2  0  0  0  0
 17 19  1  0  0  0  0
 14 15  1  0  0  0  0
 14 16  1  0  0  0  0
 14 17  1  0  0  0  0
 11 12  1  0  0  0  0
 11 13  1  0  0  0  0
 11 14  1  0  0  0  0
  9 10  1  0  0  0  0
  9 11  1  0  0  0  0
  9 21  1  0  0  0  0
  7  8  1  0  0  0  0
  7  9  1  0  0  0  0
 25 26  1  0  0  0  0
 25 27  1  0  0  0  0
 25 28  1  0  0  0  0
 23 24  1  0  0  0  0
 23 25  1  0  0  0  0
M  END
$$$$
default_name
  -OEChem-01062215323D

 28 27  0     1  0  0  0  0  0999 V2000
   -3.2133   -3.5565    1.2809 H   0  0  0  0  0  0  0  0  0  0  0  0
   -3.1873   -2.5755    0.8089 C   0  0  0  0  0  0  0  0  0  0  0  0
   -3.8793   -1.9065    1.3169 H   0  0  0  0  0  0  0  0  0  0  0  0
   -3.4623   -2.6685   -0.2401 H   0  0  0  0  0  0  0  0  0  0  0  0
   -1.7863   -2.0195    0.9119 C   0  0  0  0  0  0  0  0  0  0  0  0
   -0.9073   -2.6615    1.4699 O   0  0  0  0  0  0  0  0  0  0  0  0
   -1.5803   -0.8195    0.3749 N   0  0  0  0  0  0  0  0  0  0  0  0
   -2.3603   -0.3345   -0.0451 H   0  0  0  0  0  0  0  0  0  0  0  0
   -0.2933   -0.1205    0.3719 C   0  0  1  0  0  0  0  0  0  0  0  0
    0.4883   -0.8267    0.6556 H   0  0  0  0  0  0  0  0  0  0  0  0
    0.0014    0.3829   -1.0559 C   0  0  0  0  0  0  0  0  0  0  0  0
   -0.8516    0.9766   -1.3889 H   0  0  0  0  0  0  0  0  0  0  0  0
    0.8785    1.0314   -1.0349 H   0  0  0  0  0  0  0  0  0  0  0  0
    0.2500   -0.7426   -2.0748 C   0  0  0  0  0  0  0  0  0  0  0  0
    1.1123   -1.3357   -1.7699 H   0  0  0  0  0  0  0  0  0  0  0  0
   -0.6279   -1.3861   -2.1185 H   0  0  0  0  0  0  0  0  0  0  0  0
    0.5133   -0.2048   -3.4777 C   0  0  0  0  0  0  0  0  0  0  0  0
    0.4117    0.9654   -3.8096 O   0  0  0  0  0  0  0  0  0  0  0  0
    0.8715   -1.1240   -4.3933 O   0  0  0  0  0  0  0  0  0  0  0  0
    0.9852   -0.6343   -5.2097 H   0  0  0  0  0  0  0  0  0  0  0  0
   -0.3027    1.0190    1.4034 C   0  0  0  0  0  0  0  0  0  0  0  0
    0.3850    2.0214    1.2191 O   0  0  0  0  0  0  0  0  0  0  0  0
   -1.0697    0.8593    2.4887 N   0  0  0  0  0  0  0  0  0  0  0  0
   -1.6241    0.0193    2.5600 H   0  0  0  0  0  0  0  0  0  0  0  0
   -1.1705    1.8390    3.5685 C   0  0  0  0  0  0  0  0  0  0  0  0
   -1.4946    2.8004    3.1659 H   0  0  0  0  0  0  0  0  0  0  0  0
   -1.8885    1.5039    4.3184 H   0  0  0  0  0  0  0  0  0  0  0  0
   -0.1939    1.9716    4.0383 H   0  0  0  0  0  0  0  0  0  0  0  0
  5  6  2  0  0  0  0
  5  7  1  0  0  0  0
  2  3  1  0  0  0  0
  2  4  1  0  0  0  0
  2  5  1  0  0  0  0
  1  2  1  0  0  0  0
 21 22  2  0  0  0  0
 21 23  1  0  0  0  0
 19 20  1  0  0  0  0
 17 18  2  0  0  0  0
 17 19  1  0  0  0  0
 14 15  1  0  0  0  0
 14 16  1  0  0  0  0
 14 17  1  0  0  0  0
 11 12  1  0  0  0  0
 11 13  1  0  0  0  0
 11 14  1  0  0  0  0
  9 10  1  0  0  0  0
  9 11  1  0  0  0  0
  9 21  1  0  0  0  0
  7  8  1  0  0  0  0
  7  9  1  0  0  0  0
 25 26  1  0  0  0  0
 25 27  1  0  0  0  0
 25 28  1  0  0  0  0
 23 24  1  0  0  0  0
 23 25  1  0  0  0  0
M  END
$$$$
default_name
  -OEChem-01062215323D

 28 27  0     1  0  0  0  0  0999 V2000
   -3.2133   -3.5565    1.2809 H   0  0  0  0  0  0  0  0  0  0  0  0
   -3.1873   -2.5755    0.8089 C   0  0  0  0  0  0  0  0  0  0  0  0
   -3.8793   -1.9065    1.3169 H   0  0  0  0  0  0  0  0  0  0  0  0
   -3.4623   -2.6685   -0.2401 H   0  0  0  0  0  0  0  0  0  0  0  0
   -1.7863   -2.0195    0.9119 C   0  0  0  0  0  0  0  0  0  0  0  0
   -0.9073   -2.6615    1.4699 O   0  0  0  0  0  0  0  0  0  0  0  0
   -1.5803   -0.8195    0.3749 N   0  0  0  0  0  0  0  0  0  0  0  0
   -2.3603   -0.3345   -0.0451 H   0  0  0  0  0  0  0  0  0  0  0  0
   -0.2933   -0.1205    0.3719 C   0  0  1  0  0  0  0  0  0  0  0  0
    0.4883   -0.8267    0.6556 H   0  0  0  0  0  0  0  0  0  0  0  0
    0.0014    0.3829   -1.0559 C   0  0  0  0  0  0  0  0  0  0  0  0
   -0.8516    0.9766   -1.3889 H   0  0  0  0  0  0  0  0  0  0  0  0
    0.8785    1.0314   -1.0349 H   0  0  0  0  0  0  0  0  0  0  0  0
    0.2500   -0.7426   -2.0748 C   0  0  0  0  0  0  0  0  0  0  0  0
    1.1123   -1.3357   -1.7699 H   0  0  0  0  0  0  0  0  0  0  0  0
   -0.6279   -1.3861   -2.1185 H   0  0  0  0  0  0  0  0  0  0  0  0
    0.5133   -0.2048   -3.4777 C   0  0  0  0  0  0  0  0  0  0  0  0
    0.4117    0.9654   -3.8096 O   0  0  0  0  0  0  0  0  0  0  0  0
    0.8715   -1.1240   -4.3933 O   0  0  0  0  0  0  0  0  0  0  0  0
    0.9852   -0.6343   -5.2097 H   0  0  0  0  0  0  0  0  0  0  0  0
   -0.3027    1.0190    1.4034 C   0  0  0  0  0  0  0  0  0  0  0  0
    0.1520    2.1219    1.1059 O   0  0  0  0  0  0  0  0  0  0  0  0
   -0.8077    0.7488    2.6132 N   0  0  0  0  0  0  0  0  0  0  0  0
   -1.1836   -0.1733    2.7767 H   0  0  0  0  0  0  0  0  0  0  0  0
   -0.8684    1.7160    3.7072 C   0  0  0  0  0  0  0  0  0  0  0  0
   -1.4258    2.5989    3.3892 H   0  0  0  0  0  0  0  0  0  0  0  0
   -1.3599    1.2754    4.5757 H   0  0  0  0  0  0  0  0  0  0  0  0
    0.1419    2.0247    3.9827 H   0  0  0  0  0  0  0  0  0  0  0  0
  5  6  2  0  0  0  0
  5  7  1  0  0  0  0
  2  3  1  0  0  0  0
  2  4  1  0  0  0  0
  2  5  1  0  0  0  0
  1  2  1  0  0  0  0
 21 22  2  0  0  0  0
 21 23  1  0  0  0  0
 19 20  1  0  0  0  0
 17 18  2  0  0  0  0
 17 19  1  0  0  0  0
 14 15  1  0  0  0  0
 14 16  1  0  0  0  0
 14 17  1  0  0  0  0
 11 12  1  0  0  0  0
 11 13  1  0  0  0  0
 11 14  1  0  0  0  0
  9 10  1  0  0  0  0
  9 11  1  0  0  0  0
  9 21  1  0  0  0  0
  7  8  1  0  0  0  0
  7  9  1  0  0  0  0
 25 26  1  0  0  0  0
 25 27  1  0  0  0  0
 25 28  1  0  0  0  0
 23 24  1  0  0  0  0
 23 25  1  0  0  0  0
M  END
$$$$
default_name
  -OEChem-01062215323D

 28 27  0     1  0  0  0  0  0999 V2000
   -3.2133   -3.5565    1.2809 H   0  0  0  0  0  0  0  0  0  0  0  0
   -3.1873   -2.5755    0.8089 C   0  0  0  0  0  0  0  0  0  0  0  0
   -3.8793   -1.9065    1.3169 H   0  0  0  0  0  0  0  0  0  0  0  0
   -3.4623   -2.6685   -0.2401 H   0  0  0  0  0  0  0  0  0  0  0  0
   -1.7863   -2.0195    0.9119 C   0  0  0  0  0  0  0  0  0  0  0  0
   -0.9073   -2.6615    1.4699 O   0  0  0  0  0  0  0  0  0  0  0  0
   -1.5803   -0.8195    0.3749 N   0  0  0  0  0  0  0  0  0  0  0  0
   -2.3603   -0.3345   -0.0451 H   0  0  0  0  0  0  0  0  0  0  0  0
   -0.2933   -0.1205    0.3719 C   0  0  1  0  0  0  0  0  0  0  0  0
    0.4883   -0.8267    0.6556 H   0  0  0  0  0  0  0  0  0  0  0  0
    0.0014    0.3829   -1.0559 C   0  0  0  0  0  0  0  0  0  0  0  0
   -0.8516    0.9766   -1.3889 H   0  0  0  0  0  0  0  0  0  0  0  0
    0.8785    1.0314   -1.0349 H   0  0  0  0  0  0  0  0  0  0  0  0
    0.2500   -0.7426   -2.0748 C   0  0  0  0  0  0  0  0  0  0  0  0
    1.1123   -1.3357   -1.7699 H   0  0  0  0  0  0  0  0  0  0  0  0
   -0.6279   -1.3861   -2.1185 H   0  0  0  0  0  0  0  0  0  0  0  0
    0.5133   -0.2048   -3.4777 C   0  0  0  0  0  0  0  0  0  0  0  0
    0.4117    0.9654   -3.8096 O   0  0  0  0  0  0  0  0  0  0  0  0
    0.8715   -1.1240   -4.3933 O   0  0  0  0  0  0  0  0  0  0  0  0
    0.9852   -0.6343   -5.2097 H   0  0  0  0  0  0  0  0  0  0  0  0
   -0.3027    1.0190    1.4034 C   0  0  0  0  0  0  0  0  0  0  0  0
   -0.1123    2.1784    1.0411 O   0  0  0  0  0  0  0  0  0  0  0  0
   -0.5116    0.6878    2.6833 N   0  0  0  0  0  0  0  0  0  0  0  0
   -0.6830   -0.2824    2.9018 H   0  0  0  0  0  0  0  0  0  0  0  0
   -0.5286    1.6498    3.7834 C   0  0  0  0  0  0  0  0  0  0  0  0
   -1.2814    2.4166    3.5919 H   0  0  0  0  0  0  0  0  0  0  0  0
   -0.7602    1.1468    4.7233 H   0  0  0  0  0  0  0  0  0  0  0  0
    0.4465    2.1343    3.8644 H   0  0  0  0  0  0  0  0  0  0  0  0
  5  6  2  0  0  0  0
  5  7  1  0  0  0  0
  2  3  1  0  0  0  0
  2  4  1  0  0  0  0
  2  5  1  0  0  0  0
  1  2  1  0  0  0  0
 21 22  2  0  0  0  0
 21 23  1  0  0  0  0
 19 20  1  0  0  0  0
 17 18  2  0  0  0  0
 17 19  1  0  0  0  0
 14 15  1  0  0  0  0
 14 16  1  0  0  0  0
 14 17  1  0  0  0  0
 11 12  1  0  0  0  0
 11 13  1  0  0  0  0
 11 14  1  0  0  0  0
  9 10  1  0  0  0  0
  9 11  1  0  0  0  0
  9 21  1  0  0  0  0
  7  8  1  0  0  0  0
  7  9  1  0  0  0  0
 25 26  1  0  0  0  0
 25 27  1  0  0  0  0
 25 28  1  0  0  0  0
 23 24  1  0  0  0  0
 23 25  1  0  0  0  0
M  END
$$$$
default_name
  -OEChem-01062215323D

 28 27  0     1  0  0  0  0  0999 V2000
   -3.2133   -3.5565    1.2809 H   0  0  0  0  0  0  0  0  0  0  0  0
   -3.1873   -2.5755    0.8089 C   0  0  0  0  0  0  0  0  0  0  0  0
   -3.8793   -1.9065    1.3169 H   0  0  0  0  0  0  0  0  0  0  0  0
   -3.4623   -2.6685   -0.2401 H   0  0  0  0  0  0  0  0  0  0  0  0
   -1.7863   -2.0195    0.9119 C   0  0  0  0  0  0  0  0  0  0  0  0
   -0.9073   -2.6615    1.4699 O   0  0  0  0  0  0  0  0  0  0  0  0
   -1.5803   -0.8195    0.3749 N   0  0  0  0  0  0  0  0  0  0  0  0
   -2.3603   -0.3345   -0.0451 H   0  0  0  0  0  0  0  0  0  0  0  0
   -0.2933   -0.1205    0.3719 C   0  0  1  0  0  0  0  0  0  0  0  0
    0.4883   -0.8267    0.6556 H   0  0  0  0  0  0  0  0  0  0  0  0
    0.0014    0.3829   -1.0559 C   0  0  0  0  0  0  0  0  0  0  0  0
   -0.8516    0.9766   -1.3889 H   0  0  0  0  0  0  0  0  0  0  0  0
    0.8785    1.0314   -1.0349 H   0  0  0  0  0  0  0  0  0  0  0  0
    0.2500   -0.7426   -2.0748 C   0  0  0  0  0  0  0  0  0  0  0  0
    1.1123   -1.3357   -1.7699 H   0  0  0  0  0  0  0  0  0  0  0  0
   -0.6279   -1.3861   -2.1185 H   0  0  0  0  0  0  0  0  0  0  0  0
    0.5133   -0.2048   -3.4777 C   0  0  0  0  0  0  0  0  0  0  0  0
    0.4117    0.9654   -3.8096 O   0  0  0  0  0  0  0  0  0  0  0  0
    0.8715   -1.1240   -4.3933 O   0  0  0  0  0  0  0  0  0  0  0  0
    0.9852   -0.6343   -5.2097 H   0  0  0  0  0  0  0  0  0  0  0  0
   -0.3027    1.0190    1.4034 C   0  0  0  0  0  0  0  0  0  0  0  0
   -0.3898    2.1869    1.0291 O   0  0  0  0  0  0  0  0  0  0  0  0
   -0.2015    0.6803    2.6944 N   0  0  0  0  0  0  0  0  0  0  0  0
   -0.1565   -0.3006    2.9267 H   0  0  0  0  0  0  0  0  0  0  0  0
   -0.1742    1.6451    3.7918 C   0  0  0  0  0  0  0  0  0  0  0  0
   -1.0714    2.2659    3.7603 H   0  0  0  0  0  0  0  0  0  0  0  0
   -0.1303    1.1270    4.7509 H   0  0  0  0  0  0  0  0  0  0  0  0
    0.6989    2.2928    3.6916 H   0  0  0  0  0  0  0  0  0  0  0  0
  5  6  2  0  0  0  0
  5  7  1  0  0  0  0
  2  3  1  0  0  0  0
  2  4  1  0  0  0  0
  2  5  1  0  0  0  0
  1  2  1  0  0  0  0
 21 22  2  0  0  0  0
 21 23  1  0  0  0  0
 19 20  1  0  0  0  0
 17 18  2  0  0  0  0
 17 19  1  0  0  0  0
 14 15  1  0  0  0  0
 14 16  1  0  0  0  0
 14 17  1  0  0  0  0
 11 12  1  0  0  0  0
 11 13  1  0  0  0  0
 11 14  1  0  0  0  0
  9 10  1  0  0  0  0
  9 11  1  0  0  0  0
  9 21  1  0  0  0  0
  7  8  1  0  0  0  0
  7  9  1  0  0  0  0
 25 26  1  0  0  0  0
 25 27  1  0  0  0  0
 25 28  1  0  0  0  0
 23 24  1  0  0  0  0
 23 25  1  0  0  0  0
M  END
$$$$
default_name
  -OEChem-01062215323D

 28 27  0     1  0  0  0  0  0999 V2000
   -3.2133   -3.5565    1.2809 H   0  0  0  0  0  0  0  0  0  0  0  0
   -3.1873   -2.5755    0.8089 C   0  0  0  0  0  0  0  0  0  0  0  0
   -3.8793   -1.9065    1.3169 H   0  0  0  0  0  0  0  0  0  0  0  0
   -3.4623   -2.6685   -0.2401 H   0  0  0  0  0  0  0  0  0  0  0  0
   -1.7863   -2.0195    0.9119 C   0  0  0  0  0  0  0  0  0  0  0  0
   -0.9073   -2.6615    1.4699 O   0  0  0  0  0  0  0  0  0  0  0  0
   -1.5803   -0.8195    0.3749 N   0  0  0  0  0  0  0  0  0  0  0  0
   -2.3603   -0.3345   -0.0451 H   0  0  0  0  0  0  0  0  0  0  0  0
   -0.2933   -0.1205    0.3719 C   0  0  1  0  0  0  0  0  0  0  0  0
    0.4883   -0.8267    0.6556 H   0  0  0  0  0  0  0  0  0  0  0  0
    0.0014    0.3829   -1.0559 C   0  0  0  0  0  0  0  0  0  0  0  0
   -0.8516    0.9766   -1.3889 H   0  0  0  0  0  0  0  0  0  0  0  0
    0.8785    1.0314   -1.0349 H   0  0  0  0  0  0  0  0  0  0  0  0
    0.2500   -0.7426   -2.0748 C   0  0  0  0  0  0  0  0  0  0  0  0
    1.1123   -1.3357   -1.7699 H   0  0  0  0  0  0  0  0  0  0  0  0
   -0.6279   -1.3861   -2.1185 H   0  0  0  0  0  0  0  0  0  0  0  0
    0.5133   -0.2048   -3.4777 C   0  0  0  0  0  0  0  0  0  0  0  0
    0.4117    0.9654   -3.8096 O   0  0  0  0  0  0  0  0  0  0  0  0
    0.8715   -1.1240   -4.3933 O   0  0  0  0  0  0  0  0  0  0  0  0
    0.9852   -0.6343   -5.2097 H   0  0  0  0  0  0  0  0  0  0  0  0
   -0.3027    1.0190    1.4034 C   0  0  0  0  0  0  0  0  0  0  0  0
   -0.6616    2.1470    1.0708 O   0  0  0  0  0  0  0  0  0  0  0  0
    0.1015    0.7270    2.6455 N   0  0  0  0  0  0  0  0  0  0  0  0
    0.3600   -0.2267    2.8499 H   0  0  0  0  0  0  0  0  0  0  0  0
    0.1705    1.7021    3.7320 C   0  0  0  0  0  0  0  0  0  0  0  0
   -0.8101    2.1571    3.8829 H   0  0  0  0  0  0  0  0  0  0  0  0
    0.4869    1.2174    4.6567 H   0  0  0  0  0  0  0  0  0  0  0  0
    0.8821    2.4895    3.4760 H   0  0  0  0  0  0  0  0  0  0  0  0
  5  6  2  0  0  0  0
  5  7  1  0  0  0  0
  2  3  1  0  0  0  0
  2  4  1  0  0  0  0
  2  5  1  0  0  0  0
  1  2  1  0  0  0  0
 21 22  2  0  0  0  0
 21 23  1  0  0  0  0
 19 20  1  0  0  0  0
 17 18  2  0  0  0  0
 17 19  1  0  0  0  0
 14 15  1  0  0  0  0
 14 16  1  0  0  0  0
 14 17  1  0  0  0  0
 11 12  1  0  0  0  0
 11 13  1  0  0  0  0
 11 14  1  0  0  0  0
  9 10  1  0  0  0  0
  9 11  1  0  0  0  0
  9 21  1  0  0  0  0
  7  8  1  0  0  0  0
  7  9  1  0  0  0  0
 25 26  1  0  0  0  0
 25 27  1  0  0  0  0
 25 28  1  0  0  0  0
 23 24  1  0  0  0  0
 23 25  1  0  0  0  0
M  END
$$$$
default_name
  -OEChem-01062215323D

 28 27  0     1  0  0  0  0  0999 V2000
   -3.2133   -3.5565    1.2809 H   0  0  0  0  0  0  0  0  0  0  0  0
   -3.1873   -2.5755    0.8089 C   0  0  0  0  0  0  0  0  0  0  0  0
   -3.8793   -1.9065    1.3169 H   0  0  0  0  0  0  0  0  0  0  0  0
   -3.4623   -2.6685   -0.2401 H   0  0  0  0  0  0  0  0  0  0  0  0
   -1.7863   -2.0195    0.9119 C   0  0  0  0  0  0  0  0  0  0  0  0
   -0.9073   -2.6615    1.4699 O   0  0  0  0  0  0  0  0  0  0  0  0
   -1.5803   -0.8195    0.3749 N   0  0  0  0  0  0  0  0  0  0  0  0
   -2.3603   -0.3345   -0.0451 H   0  0  0  0  0  0  0  0  0  0  0  0
   -0.2933   -0.1205    0.3719 C   0  0  1  0  0  0  0  0  0  0  0  0
    0.4883   -0.8267    0.6556 H   0  0  0  0  0  0  0  0  0  0  0  0
    0.0014    0.3829   -1.0559 C   0  0  0  0  0  0  0  0  0  0  0  0
   -0.8516    0.9766   -1.3889 H   0  0  0  0  0  0  0  0  0  0  0  0
    0.8785    1.0314   -1.0349 H   0  0  0  0  0  0  0  0  0  0  0  0
    0.2500   -0.7426   -2.0748 C   0  0  0  0  0  0  0  0  0  0  0  0
    1.1123   -1.3357   -1.7699 H   0  0  0  0  0  0  0  0  0  0  0  0
   -0.6279   -1.3861   -2.1185 H   0  0  0  0  0  0  0  0  0  0  0  0
    0.5133   -0.2048   -3.4777 C   0  0  0  0  0  0  0  0  0  0  0  0
    0.4117    0.9654   -3.8096 O   0  0  0  0  0  0  0  0  0  0  0  0
    0.8715   -1.1240   -4.3933 O   0  0  0  0  0  0  0  0  0  0  0  0
    0.9852   -0.6343   -5.2097 H   0  0  0  0  0  0  0  0  0  0  0  0
   -0.3027    1.0190    1.4034 C   0  0  0  0  0  0  0  0  0  0  0  0
   -0.9093    2.0612    1.1633 O   0  0  0  0  0  0  0  0  0  0  0  0
    0.3766    0.8247    2.5402 N   0  0  0  0  0  0  0  0  0  0  0  0
    0.8313   -0.0657    2.6764 H   0  0  0  0  0  0  0  0  0  0  0  0
    0.4821    1.8169    3.6081 C   0  0  0  0  0  0  0  0  0  0  0  0
   -0.5153    2.0975    3.9514 H   0  0  0  0  0  0  0  0  0  0  0  0
    1.0493    1.4117    4.4472 H   0  0  0  0  0  0  0  0  0  0  0  0
    0.9835    2.7110    3.2322 H   0  0  0  0  0  0  0  0  0  0  0  0
  5  6  2  0  0  0  0
  5  7  1  0  0  0  0
  2  3  1  0  0  0  0
  2  4  1  0  0  0  0
  2  5  1  0  0  0  0
  1  2  1  0  0  0  0
 21 22  2  0  0  0  0
 21 23  1  0  0  0  0
 19 20  1  0  0  0  0
 17 18  2  0  0  0  0
 17 19  1  0  0  0  0
 14 15  1  0  0  0  0
 14 16  1  0  0  0  0
 14 17  1  0  0  0  0
 11 12  1  0  0  0  0
 11 13  1  0  0  0  0
 11 14  1  0  0  0  0
  9 10  1  0  0  0  0
  9 11  1  0  0  0  0
  9 21  1  0  0  0  0
  7  8  1  0  0  0  0
  7  9  1  0  0  0  0
 25 26  1  0  0  0  0
 25 27  1  0  0  0  0
 25 28  1  0  0  0  0
 23 24  1  0  0  0  0
 23 25  1  0  0  0  0
M  END
$$$$
default_name
  -OEChem-01062215323D

 28 27  0     1  0  0  0  0  0999 V2000
   -3.2133   -3.5565    1.2809 H   0  0  0  0  0  0  0  0  0  0  0  0
   -3.1873   -2.5755    0.8089 C   0  0  0  0  0  0  0  0  0  0  0  0
   -3.8793   -1.9065    1.3169 H   0  0  0  0  0  0  0  0  0  0  0  0
   -3.4623   -2.6685   -0.2401 H   0  0  0  0  0  0  0  0  0  0  0  0
   -1.7863   -2.0195    0.9119 C   0  0  0  0  0  0  0  0  0  0  0  0
   -0.9073   -2.6615    1.4699 O   0  0  0  0  0  0  0  0  0  0  0  0
   -1.5803   -0.8195    0.3749 N   0  0  0  0  0  0  0  0  0  0  0  0
   -2.3603   -0.3345   -0.0451 H   0  0  0  0  0  0  0  0  0  0  0  0
   -0.2933   -0.1205    0.3719 C   0  0  1  0  0  0  0  0  0  0  0  0
    0.4883   -0.8267    0.6556 H   0  0  0  0  0  0  0  0  0  0  0  0
    0.0014    0.3829   -1.0559 C   0  0  0  0  0  0  0  0  0  0  0  0
   -0.8516    0.9766   -1.3889 H   0  0  0  0  0  0  0  0  0  0  0  0
    0.8785    1.0314   -1.0349 H   0  0  0  0  0  0  0  0  0  0  0  0
    0.2500   -0.7426   -2.0748 C   0  0  0  0  0  0  0  0  0  0  0  0
    1.1123   -1.3357   -1.7699 H   0  0  0  0  0  0  0  0  0  0  0  0
   -0.6279   -1.3861   -2.1185 H   0  0  0  0  0  0  0  0  0  0  0  0
    0.5133   -0.2048   -3.4777 C   0  0  0  0  0  0  0  0  0  0  0  0
    0.4117    0.9654   -3.8096 O   0  0  0  0  0  0  0  0  0  0  0  0
    0.8715   -1.1240   -4.3933 O   0  0  0  0  0  0  0  0  0  0  0  0
    0.9852   -0.6343   -5.2097 H   0  0  0  0  0  0  0  0  0  0  0  0
   -0.3027    1.0190    1.4034 C   0  0  0  0  0  0  0  0  0  0  0  0
   -1.1158    1.9355    1.3002 O   0  0  0  0  0  0  0  0  0  0  0  0
    0.6052    0.9667    2.3855 N   0  0  0  0  0  0  0  0  0  0  0  0
    1.2253    0.1713    2.4181 H   0  0  0  0  0  0  0  0  0  0  0  0
    0.7394    1.9818    3.4283 C   0  0  0  0  0  0  0  0  0  0  0  0
   -0.2070    2.0914    3.9610 H   0  0  0  0  0  0  0  0  0  0  0  0
    1.5186    1.6967    4.1367 H   0  0  0  0  0  0  0  0  0  0  0  0
    0.9961    2.9421    2.9770 H   0  0  0  0  0  0  0  0  0  0  0  0
  5  6  2  0  0  0  0
  5  7  1  0  0  0  0
  2  3  1  0  0  0  0
  2  4  1  0  0  0  0
  2  5  1  0  0  0  0
  1  2  1  0  0  0  0
 21 22  2  0  0  0  0
 21 23  1  0  0  0  0
 19 20  1  0  0  0  0
 17 18  2  0  0  0  0
 17 19  1  0  0  0  0
 14 15  1  0  0  0  0
 14 16  1  0  0  0  0
 14 17  1  0  0  0  0
 11 12  1  0  0  0  0
 11 13  1  0  0  0  0
 11 14  1  0  0  0  0
  9 10  1  0  0  0  0
  9 11  1  0  0  0  0
  9 21  1  0  0  0  0
  7  8  1  0  0  0  0
  7  9  1  0  0  0  0
 25 26  1  0  0  0  0
 25 27  1  0  0  0  0
 25 28  1  0  0  0  0
 23 24  1  0  0  0  0
 23 25  1  0  0  0  0
M  END
$$$$
default_name
  -OEChem-01062215323D

 28 27  0     1  0  0  0  0  0999 V2000
   -3.2133   -3.5565    1.2809 H   0  0  0  0  0  0  0  0  0  0  0  0
   -3.1873   -2.5755    0.8089 C   0  0  0  0  0  0  0  0  0  0  0  0
   -3.8793   -1.9065    1.3169 H   0  0  0  0  0  0  0  0  0  0  0  0
   -3.4623   -2.6685   -0.2401 H   0  0  0  0  0  0  0  0  0  0  0  0
   -1.7863   -2.0195    0.9119 C   0  0  0  0  0  0  0  0  0  0  0  0
   -0.9073   -2.6615    1.4699 O   0  0  0  0  0  0  0  0  0  0  0  0
   -1.5803   -0.8195    0.3749 N   0  0  0  0  0  0  0  0  0  0  0  0
   -2.3603   -0.3345   -0.0451 H   0  0  0  0  0  0  0  0  0  0  0  0
   -0.2933   -0.1205    0.3719 C   0  0  1  0  0  0  0  0  0  0  0  0
    0.4883   -0.8267    0.6556 H   0  0  0  0  0  0  0  0  0  0  0  0
    0.0014    0.3829   -1.0559 C   0  0  0  0  0  0  0  0  0  0  0  0
   -0.8516    0.9766   -1.3889 H   0  0  0  0  0  0  0  0  0  0  0  0
    0.8785    1.0314   -1.0349 H   0  0  0  0  0  0  0  0  0  0  0  0
    0.2500   -0.7426   -2.0748 C   0  0  0  0  0  0  0  0  0  0  0  0
    1.1123   -1.3357   -1.7699 H   0  0  0  0  0  0  0  0  0  0  0  0
   -0.6279   -1.3861   -2.1185 H   0  0  0  0  0  0  0  0  0  0  0  0
    0.5133   -0.2048   -3.4777 C   0  0  0  0  0  0  0  0  0  0  0  0
    0.4117    0.9654   -3.8096 O   0  0  0  0  0  0  0  0  0  0  0  0
    0.8715   -1.1240   -4.3933 O   0  0  0  0  0  0  0  0  0  0  0  0
    0.9852   -0.6343   -5.2097 H   0  0  0  0  0  0  0  0  0  0  0  0
   -0.3027    1.0190    1.4034 C   0  0  0  0  0  0  0  0  0  0  0  0
   -1.2672    1.7784    1.4724 O   0  0  0  0  0  0  0  0  0  0  0  0
    0.7717    1.1432    2.1919 N   0  0  0  0  0  0  0  0  0  0  0  0
    1.5152    0.4683    2.0927 H   0  0  0  0  0  0  0  0  0  0  0  0
    0.9248    2.1854    3.2051 C   0  0  0  0  0  0  0  0  0  0  0  0
    0.0937    2.1390    3.9112 H   0  0  0  0  0  0  0  0  0  0  0  0
    1.8627    2.0531    3.7462 H   0  0  0  0  0  0  0  0  0  0  0  0
    0.9193    3.1672    2.7277 H   0  0  0  0  0  0  0  0  0  0  0  0
  5  6  2  0  0  0  0
  5  7  1  0  0  0  0
  2  3  1  0  0  0  0
  2  4  1  0  0  0  0
  2  5  1  0  0  0  0
  1  2  1  0  0  0  0
 21 22  2  0  0  0  0
 21 23  1  0  0  0  0
 19 20  1  0  0  0  0
 17 18  2  0  0  0  0
 17 19  1  0  0  0  0
 14 15  1  0  0  0  0
 14 16  1  0  0  0  0
 14 17  1  0  0  0  0
 11 12  1  0  0  0  0
 11 13  1  0  0  0  0
 11 14  1  0  0  0  0
  9 10  1  0  0  0  0
  9 11  1  0  0  0  0
  9 21  1  0  0  0  0
  7  8  1  0  0  0  0
  7  9  1  0  0  0  0
 25 26  1  0  0  0  0
 25 27  1  0  0  0  0
 25 28  1  0  0  0  0
 23 24  1  0  0  0  0
 23 25  1  0  0  0  0
M  END
$$$$
default_name
  -OEChem-01062215323D

 28 27  0     1  0  0  0  0  0999 V2000
   -3.2133   -3.5565    1.2809 H   0  0  0  0  0  0  0  0  0  0  0  0
   -3.1873   -2.5755    0.8089 C   0  0  0  0  0  0  0  0  0  0  0  0
   -3.8793   -1.9065    1.3169 H   0  0  0  0  0  0  0  0  0  0  0  0
   -3.4623   -2.6685   -0.2401 H   0  0  0  0  0  0  0  0  0  0  0  0
   -1.7863   -2.0195    0.9119 C   0  0  0  0  0  0  0  0  0  0  0  0
   -0.9073   -2.6615    1.4699 O   0  0  0  0  0  0  0  0  0  0  0  0
   -1.5803   -0.8195    0.3749 N   0  0  0  0  0  0  0  0  0  0  0  0
   -2.3603   -0.3345   -0.0451 H   0  0  0  0  0  0  0  0  0  0  0  0
   -0.2933   -0.1205    0.3719 C   0  0  1  0  0  0  0  0  0  0  0  0
    0.4883   -0.8267    0.6556 H   0  0  0  0  0  0  0  0  0  0  0  0
    0.0014    0.3829   -1.0559 C   0  0  0  0  0  0  0  0  0  0  0  0
   -0.8516    0.9766   -1.3889 H   0  0  0  0  0  0  0  0  0  0  0  0
    0.8785    1.0314   -1.0349 H   0  0  0  0  0  0  0  0  0  0  0  0
    0.2500   -0.7426   -2.0748 C   0  0  0  0  0  0  0  0  0  0  0  0
    1.1123   -1.3357   -1.7699 H   0  0  0  0  0  0  0  0  0  0  0  0
   -0.6279   -1.3861   -2.1185 H   0  0  0  0  0  0  0  0  0  0  0  0
    0.5133   -0.2048   -3.4777 C   0  0  0  0  0  0  0  0  0  0  0  0
    0.4117    0.9654   -3.8096 O   0  0  0  0  0  0  0  0  0  0  0  0
    0.8715   -1.1240   -4.3933 O   0  0  0  0  0  0  0  0  0  0  0  0
    0.9852   -0.6343   -5.2097 H   0  0  0  0  0  0  0  0  0  0  0  0
   -0.3027    1.0190    1.4034 C   0  0  0  0  0  0  0  0  0  0  0  0
   -1.3532    1.6007    1.6680 O   0  0  0  0  0  0  0  0  0  0  0  0
    0.8647    1.3424    1.9728 N   0  0  0  0  0  0  0  0  0  0  0  0
    1.6812    0.8050    1.7222 H   0  0  0  0  0  0  0  0  0  0  0  0
    1.0256    2.4139    2.9535 C   0  0  0  0  0  0  0  0  0  0  0  0
    0.3663    2.2371    3.8053 H   0  0  0  0  0  0  0  0  0  0  0  0
    2.0584    2.4564    3.3023 H   0  0  0  0  0  0  0  0  0  0  0  0
    0.7581    3.3709    2.5012 H   0  0  0  0  0  0  0  0  0  0  0  0
  5  6  2  0  0  0  0
  5  7  1  0  0  0  0
  2  3  1  0  0  0  0
  2  4  1  0  0  0  0
  2  5  1  0  0  0  0
  1  2  1  0  0  0  0
 21 22  2  0  0  0  0
 21 23  1  0  0  0  0
 19 20  1  0  0  0  0
 17 18  2  0  0  0  0
 17 19  1  0  0  0  0
 14 15  1  0  0  0  0
 14 16  1  0  0  0  0
 14 17  1  0  0  0  0
 11 12  1  0  0  0  0
 11 13  1  0  0  0  0
 11 14  1  0  0  0  0
  9 10  1  0  0  0  0
  9 11  1  0  0  0  0
  9 21  1  0  0  0  0
  7  8  1  0  0  0  0
  7  9  1  0  0  0  0
 25 26  1  0  0  0  0
 25 27  1  0  0  0  0
 25 28  1  0  0  0  0
 23 24  1  0  0  0  0
 23 25  1  0  0  0  0
M  END
$$$$
default_name
  -OEChem-01062215323D

 28 27  0     1  0  0  0  0  0999 V2000
   -3.2133   -3.5565    1.2809 H   0  0  0  0  0  0  0  0  0  0  0  0
   -3.1873   -2.5755    0.8089 C   0  0  0  0  0  0  0  0  0  0  0  0
   -3.8793   -1.9065    1.3169 H   0  0  0  0  0  0  0  0  0  0  0  0
   -3.4623   -2.6685   -0.2401 H   0  0  0  0  0  0  0  0  0  0  0  0
   -1.7863   -2.0195    0.9119 C   0  0  0  0  0  0  0  0  0  0  0  0
   -0.9073   -2.6615    1.4699 O   0  0  0  0  0  0  0  0  0  0  0  0
   -1.5803   -0.8195    0.3749 N   0  0  0  0  0  0  0  0  0  0  0  0
   -2.3603   -0.3345   -0.0451 H   0  0  0  0  0  0  0  0  0  0  0  0
   -0.2933   -0.1205    0.3719 C   0  0  1  0  0  0  0  0  0  0  0  0
    0.4883   -0.8267    0.6556 H   0  0  0  0  0  0  0  0  0  0  0  0
    0.0014    0.3829   -1.0559 C   0  0  0  0  0  0  0  0  0  0  0  0
   -0.8516    0.9766   -1.3889 H   0  0  0  0  0  0  0  0  0  0  0  0
    0.8785    1.0314   -1.0349 H   0  0  0  0  0  0  0  0  0  0  0  0
    0.2500   -0.7426   -2.0748 C   0  0  0  0  0  0  0  0  0  0  0  0
    1.1123   -1.3357   -1.7699 H   0  0  0  0  0  0  0  0  0  0  0  0
   -0.6279   -1.3861   -2.1185 H   0  0  0  0  0  0  0  0  0  0  0  0
    0.5133   -0.2048   -3.4777 C   0  0  0  0  0  0  0  0  0  0  0  0
    0.4117    0.9654   -3.8096 O   0  0  0  0  0  0  0  0  0  0  0  0
    0.8715   -1.1240   -4.3933 O   0  0  0  0  0  0  0  0  0  0  0  0
    0.9852   -0.6343   -5.2097 H   0  0  0  0  0  0  0  0  0  0  0  0
   -0.3027    1.0190    1.4034 C   0  0  0  0  0  0  0  0  0  0  0  0
   -1.3678    1.4144    1.8736 O   0  0  0  0  0  0  0  0  0  0  0  0
    0.8778    1.5506    1.7429 N   0  0  0  0  0  0  0  0  0  0  0  0
    1.7119    1.1585    1.3320 H   0  0  0  0  0  0  0  0  0  0  0  0
    1.0351    2.6517    2.6909 C   0  0  0  0  0  0  0  0  0  0  0  0
    0.5923    2.3790    3.6506 H   0  0  0  0  0  0  0  0  0  0  0  0
    2.0921    2.8793    2.8355 H   0  0  0  0  0  0  0  0  0  0  0  0
    0.5236    3.5392    2.3131 H   0  0  0  0  0  0  0  0  0  0  0  0
  5  6  2  0  0  0  0
  5  7  1  0  0  0  0
  2  3  1  0  0  0  0
  2  4  1  0  0  0  0
  2  5  1  0  0  0  0
  1  2  1  0  0  0  0
 21 22  2  0  0  0  0
 21 23  1  0  0  0  0
 19 20  1  0  0  0  0
 17 18  2  0  0  0  0
 17 19  1  0  0  0  0
 14 15  1  0  0  0  0
 14 16  1  0  0  0  0
 14 17  1  0  0  0  0
 11 12  1  0  0  0  0
 11 13  1  0  0  0  0
 11 14  1  0  0  0  0
  9 10  1  0  0  0  0
  9 11  1  0  0  0  0
  9 21  1  0  0  0  0
  7  8  1  0  0  0  0
  7  9  1  0  0  0  0
 25 26  1  0  0  0  0
 25 27  1  0  0  0  0
 25 28  1  0  0  0  0
 23 24  1  0  0  0  0
 23 25  1  0  0  0  0
M  END
$$$$
default_name
  -OEChem-01062215323D

 28 27  0     1  0  0  0  0  0999 V2000
   -3.2133   -3.5565    1.2809 H   0  0  0  0  0  0  0  0  0  0  0  0
   -3.1873   -2.5755    0.8089 C   0  0  0  0  0  0  0  0  0  0  0  0
   -3.8793   -1.9065    1.3169 H   0  0  0  0  0  0  0  0  0  0  0  0
   -3.4623   -2.6685   -0.2401 H   0  0  0  0  0  0  0  0  0  0  0  0
   -1.7863   -2.0195    0.9119 C   0  0  0  0  0  0  0  0  0  0  0  0
   -0.9073   -2.6615    1.4699 O   0  0  0  0  0  0  0  0  0  0  0  0
   -1.5803   -0.8195    0.3749 N   0  0  0  0  0  0  0  0  0  0  0  0
   -2.3603   -0.3345   -0.0451 H   0  0  0  0  0  0  0  0  0  0  0  0
   -0.2933   -0.1205    0.3719 C   0  0  1  0  0  0  0  0  0  0  0  0
    0.5067   -0.8619    0.3887 H   0  0  0  0  0  0  0  0  0  0  0  0
   -0.1697    0.6985   -0.9291 C   0  0  0  0  0  0  0  0  0  0  0  0
   -1.0485    1.3406   -1.0105 H   0  0  0  0  0  0  0  0  0  0  0  0
    0.7128    1.3372   -0.8699 H   0  0  0  0  0  0  0  0  0  0  0  0
   -0.0655   -0.1622   -2.2001 C   0  0  0  0  0  0  0  0  0  0  0  0
    0.8189   -0.7972   -2.1470 H   0  0  0  0  0  0  0  0  0  0  0  0
   -0.9515   -0.7909   -2.2801 H   0  0  0  0  0  0  0  0  0  0  0  0
    0.0305    0.6842   -3.4654 C   0  0  0  0  0  0  0  0  0  0  0  0
   -0.0939    1.8977   -3.5073 O   0  0  0  0  0  0  0  0  0  0  0  0
    0.2593    0.0024   -4.6031 O   0  0  0  0  0  0  0  0  0  0  0  0
    0.2785    0.6664   -5.2944 H   0  0  0  0  0  0  0  0  0  0  0  0
   -0.1584    0.7543    1.6285 C   0  0  0  0  0  0  0  0  0  0  0  0
   -1.0718    0.7951    2.4506 O   0  0  0  0  0  0  0  0  0  0  0  0
    0.9710    1.4588    1.7687 N   0  0  0  0  0  0  0  0  0  0  0  0
    1.6859    1.3568    1.0639 H   0  0  0  0  0  0  0  0  0  0  0  0
    1.2421    2.3516    2.8936 C   0  0  0  0  0  0  0  0  0  0  0  0
    1.1687    1.7973    3.8311 H   0  0  0  0  0  0  0  0  0  0  0  0
    2.2424    2.7780    2.8066 H   0  0  0  0  0  0  0  0  0  0  0  0
    0.5064    3.1581    2.9096 H   0  0  0  0  0  0  0  0  0  0  0  0
  5  6  2  0  0  0  0
  5  7  1  0  0  0  0
  2  3  1  0  0  0  0
  2  4  1  0  0  0  0
  2  5  1  0  0  0  0
  1  2  1  0  0  0  0
 21 22  2  0  0  0  0
 21 23  1  0  0  0  0
 19 20  1  0  0  0  0
 17 18  2  0  0  0  0
 17 19  1  0  0  0  0
 14 15  1  0  0  0  0
 14 16  1  0  0  0  0
 14 17  1  0  0  0  0
 11 12  1  0  0  0  0
 11 13  1  0  0  0  0
 11 14  1  0  0  0  0
  9 10  1  0  0  0  0
  9 11  1  0  0  0  0
  9 21  1  0  0  0  0
  7  8  1  0  0  0  0
  7  9  1  0  0  0  0
 25 26  1  0  0  0  0
 25 27  1  0  0  0  0
 25 28  1  0  0  0  0
 23 24  1  0  0  0  0
 23 25  1  0  0  0  0
M  END
$$$$
default_name
  -OEChem-01062215323D

 28 27  0     1  0  0  0  0  0999 V2000
   -3.2133   -3.5565    1.2809 H   0  0  0  0  0  0  0  0  0  0  0  0
   -3.1873   -2.5755    0.8089 C   0  0  0  0  0  0  0  0  0  0  0  0
   -3.8793   -1.9065    1.3169 H   0  0  0  0  0  0  0  0  0  0  0  0
   -3.4623   -2.6685   -0.2401 H   0  0  0  0  0  0  0  0  0  0  0  0
   -1.7863   -2.0195    0.9119 C   0  0  0  0  0  0  0  0  0  0  0  0
   -0.9073   -2.6615    1.4699 O   0  0  0  0  0  0  0  0  0  0  0  0
   -1.5803   -0.8195    0.3749 N   0  0  0  0  0  0  0  0  0  0  0  0
   -2.3603   -0.3345   -0.0451 H   0  0  0  0  0  0  0  0  0  0  0  0
   -0.2933   -0.1205    0.3719 C   0  0  1  0  0  0  0  0  0  0  0  0
    0.5067   -0.8619    0.3887 H   0  0  0  0  0  0  0  0  0  0  0  0
   -0.1697    0.6985   -0.9291 C   0  0  0  0  0  0  0  0  0  0  0  0
   -1.0485    1.3406   -1.0105 H   0  0  0  0  0  0  0  0  0  0  0  0
    0.7128    1.3372   -0.8699 H   0  0  0  0  0  0  0  0  0  0  0  0
   -0.0655   -0.1622   -2.2001 C   0  0  0  0  0  0  0  0  0  0  0  0
    0.8189   -0.7972   -2.1470 H   0  0  0  0  0  0  0  0  0  0  0  0
   -0.9515   -0.7909   -2.2801 H   0  0  0  0  0  0  0  0  0  0  0  0
    0.0305    0.6842   -3.4654 C   0  0  0  0  0  0  0  0  0  0  0  0
   -0.0939    1.8977   -3.5073 O   0  0  0  0  0  0  0  0  0  0  0  0
    0.2593    0.0024   -4.6031 O   0  0  0  0  0  0  0  0  0  0  0  0
    0.2785    0.6664   -5.2944 H   0  0  0  0  0  0  0  0  0  0  0  0
   -0.1584    0.7543    1.6285 C   0  0  0  0  0  0  0  0  0  0  0  0
   -0.9264    0.5937    2.5752 O   0  0  0  0  0  0  0  0  0  0  0  0
    0.8059    1.6825    1.6307 N   0  0  0  0  0  0  0  0  0  0  0  0
    1.4125    1.7402    0.8264 H   0  0  0  0  0  0  0  0  0  0  0  0
    1.0489    2.6048    2.7381 C   0  0  0  0  0  0  0  0  0  0  0  0
    1.2347    2.0413    3.6542 H   0  0  0  0  0  0  0  0  0  0  0  0
    1.9129    3.2354    2.5235 H   0  0  0  0  0  0  0  0  0  0  0  0
    0.1712    3.2358    2.8915 H   0  0  0  0  0  0  0  0  0  0  0  0
  5  6  2  0  0  0  0
  5  7  1  0  0  0  0
  2  3  1  0  0  0  0
  2  4  1  0  0  0  0
  2  5  1  0  0  0  0
  1  2  1  0  0  0  0
 21 22  2  0  0  0  0
 21 23  1  0  0  0  0
 19 20  1  0  0  0  0
 17 18  2  0  0  0  0
 17 19  1  0  0  0  0
 14 15  1  0  0  0  0
 14 16  1  0  0  0  0
 14 17  1  0  0  0  0
 11 12  1  0  0  0  0
 11 13  1  0  0  0  0
 11 14  1  0  0  0  0
  9 10  1  0  0  0  0
  9 11  1  0  0  0  0
  9 21  1  0  0  0  0
  7  8  1  0  0  0  0
  7  9  1  0  0  0  0
 25 26  1  0  0  0  0
 25 27  1  0  0  0  0
 25 28  1  0  0  0  0
 23 24  1  0  0  0  0
 23 25  1  0  0  0  0
M  END
$$$$
default_name
  -OEChem-01062215323D

 28 27  0     1  0  0  0  0  0999 V2000
   -3.2133   -3.5565    1.2809 H   0  0  0  0  0  0  0  0  0  0  0  0
   -3.1873   -2.5755    0.8089 C   0  0  0  0  0  0  0  0  0  0  0  0
   -3.8793   -1.9065    1.3169 H   0  0  0  0  0  0  0  0  0  0  0  0
   -3.4623   -2.6685   -0.2401 H   0  0  0  0  0  0  0  0  0  0  0  0
   -1.7863   -2.0195    0.9119 C   0  0  0  0  0  0  0  0  0  0  0  0
   -0.9073   -2.6615    1.4699 O   0  0  0  0  0  0  0  0  0  0  0  0
   -1.5803   -0.8195    0.3749 N   0  0  0  0  0  0  0  0  0  0  0  0
   -2.3603   -0.3345   -0.0451 H   0  0  0  0  0  0  0  0  0  0  0  0
   -0.2933   -0.1205    0.3719 C   0  0  1  0  0  0  0  0  0  0  0  0
    0.5067   -0.8619    0.3887 H   0  0  0  0  0  0  0  0  0  0  0  0
   -0.1697    0.6985   -0.9291 C   0  0  0  0  0  0  0  0  0  0  0  0
   -1.0485    1.3406   -1.0105 H   0  0  0  0  0  0  0  0  0  0  0  0
    0.7128    1.3372   -0.8699 H   0  0  0  0  0  0  0  0  0  0  0  0
   -0.0655   -0.1622   -2.2001 C   0  0  0  0  0  0  0  0  0  0  0  0
    0.8189   -0.7972   -2.1470 H   0  0  0  0  0  0  0  0  0  0  0  0
   -0.9515   -0.7909   -2.2801 H   0  0  0  0  0  0  0  0  0  0  0  0
    0.0305    0.6842   -3.4654 C   0  0  0  0  0  0  0  0  0  0  0  0
   -0.0939    1.8977   -3.5073 O   0  0  0  0  0  0  0  0  0  0  0  0
    0.2593    0.0024   -4.6031 O   0  0  0  0  0  0  0  0  0  0  0  0
    0.2785    0.6664   -5.2944 H   0  0  0  0  0  0  0  0  0  0  0  0
   -0.1584    0.7543    1.6285 C   0  0  0  0  0  0  0  0  0  0  0  0
   -0.7250    0.4271    2.6696 O   0  0  0  0  0  0  0  0  0  0  0  0
    0.5788    1.8668    1.5268 N   0  0  0  0  0  0  0  0  0  0  0  0
    1.0323    2.0581    0.6459 H   0  0  0  0  0  0  0  0  0  0  0  0
    0.7858    2.8121    2.6220 C   0  0  0  0  0  0  0  0  0  0  0  0
    1.2208    2.2949    3.4791 H   0  0  0  0  0  0  0  0  0  0  0  0
    1.4561    3.6139    2.3091 H   0  0  0  0  0  0  0  0  0  0  0  0
   -0.1717    3.2403    2.9252 H   0  0  0  0  0  0  0  0  0  0  0  0
  5  6  2  0  0  0  0
  5  7  1  0  0  0  0
  2  3  1  0  0  0  0
  2  4  1  0  0  0  0
  2  5  1  0  0  0  0
  1  2  1  0  0  0  0
 21 22  2  0  0  0  0
 21 23  1  0  0  0  0
 19 20  1  0  0  0  0
 17 18  2  0  0  0  0
 17 19  1  0  0  0  0
 14 15  1  0  0  0  0
 14 16  1  0  0  0  0
 14 17  1  0  0  0  0
 11 12  1  0  0  0  0
 11 13  1  0  0  0  0
 11 14  1  0  0  0  0
  9 10  1  0  0  0  0
  9 11  1  0  0  0  0
  9 21  1  0  0  0  0
  7  8  1  0  0  0  0
  7  9  1  0  0  0  0
 25 26  1  0  0  0  0
 25 27  1  0  0  0  0
 25 28  1  0  0  0  0
 23 24  1  0  0  0  0
 23 25  1  0  0  0  0
M  END
$$$$
default_name
  -OEChem-01062215323D

 28 27  0     1  0  0  0  0  0999 V2000
   -3.2133   -3.5565    1.2809 H   0  0  0  0  0  0  0  0  0  0  0  0
   -3.1873   -2.5755    0.8089 C   0  0  0  0  0  0  0  0  0  0  0  0
   -3.8793   -1.9065    1.3169 H   0  0  0  0  0  0  0  0  0  0  0  0
   -3.4623   -2.6685   -0.2401 H   0  0  0  0  0  0  0  0  0  0  0  0
   -1.7863   -2.0195    0.9119 C   0  0  0  0  0  0  0  0  0  0  0  0
   -0.9073   -2.6615    1.4699 O   0  0  0  0  0  0  0  0  0  0  0  0
   -1.5803   -0.8195    0.3749 N   0  0  0  0  0  0  0  0  0  0  0  0
   -2.3603   -0.3345   -0.0451 H   0  0  0  0  0  0  0  0  0  0  0  0
   -0.2933   -0.1205    0.3719 C   0  0  1  0  0  0  0  0  0  0  0  0
    0.5067   -0.8619    0.3887 H   0  0  0  0  0  0  0  0  0  0  0  0
   -0.1697    0.6985   -0.9291 C   0  0  0  0  0  0  0  0  0  0  0  0
   -1.0485    1.3406   -1.0105 H   0  0  0  0  0  0  0  0  0  0  0  0
    0.7128    1.3372   -0.8699 H   0  0  0  0  0  0  0  0  0  0  0  0
   -0.0655   -0.1622   -2.2001 C   0  0  0  0  0  0  0  0  0  0  0  0
    0.8189   -0.7972   -2.1470 H   0  0  0  0  0  0  0  0  0  0  0  0
   -0.9515   -0.7909   -2.2801 H   0  0  0  0  0  0  0  0  0  0  0  0
    0.0305    0.6842   -3.4654 C   0  0  0  0  0  0  0  0  0  0  0  0
   -0.0939    1.8977   -3.5073 O   0  0  0  0  0  0  0  0  0  0  0  0
    0.2593    0.0024   -4.6031 O   0  0  0  0  0  0  0  0  0  0  0  0
    0.2785    0.6664   -5.2944 H   0  0  0  0  0  0  0  0  0  0  0  0
   -0.1584    0.7543    1.6285 C   0  0  0  0  0  0  0  0  0  0  0  0
   -0.4813    0.3067    2.7273 O   0  0  0  0  0  0  0  0  0  0  0  0
    0.3051    1.9991    1.4641 N   0  0  0  0  0  0  0  0  0  0  0  0
    0.5712    2.2888    0.5348 H   0  0  0  0  0  0  0  0  0  0  0  0
    0.4707    2.9593    2.5534 C   0  0  0  0  0  0  0  0  0  0  0  0
    1.1279    2.5409    3.3179 H   0  0  0  0  0  0  0  0  0  0  0  0
    0.9031    3.8877    2.1778 H   0  0  0  0  0  0  0  0  0  0  0  0
   -0.4989    3.1713    3.0084 H   0  0  0  0  0  0  0  0  0  0  0  0
  5  6  2  0  0  0  0
  5  7  1  0  0  0  0
  2  3  1  0  0  0  0
  2  4  1  0  0  0  0
  2  5  1  0  0  0  0
  1  2  1  0  0  0  0
 21 22  2  0  0  0  0
 21 23  1  0  0  0  0
 19 20  1  0  0  0  0
 17 18  2  0  0  0  0
 17 19  1  0  0  0  0
 14 15  1  0  0  0  0
 14 16  1  0  0  0  0
 14 17  1  0  0  0  0
 11 12  1  0  0  0  0
 11 13  1  0  0  0  0
 11 14  1  0  0  0  0
  9 10  1  0  0  0  0
  9 11  1  0  0  0  0
  9 21  1  0  0  0  0
  7  8  1  0  0  0  0
  7  9  1  0  0  0  0
 25 26  1  0  0  0  0
 25 27  1  0  0  0  0
 25 28  1  0  0  0  0
 23 24  1  0  0  0  0
 23 25  1  0  0  0  0
M  END
$$$$
default_name
  -OEChem-01062215323D

 28 27  0     1  0  0  0  0  0999 V2000
   -3.2133   -3.5565    1.2809 H   0  0  0  0  0  0  0  0  0  0  0  0
   -3.1873   -2.5755    0.8089 C   0  0  0  0  0  0  0  0  0  0  0  0
   -3.8793   -1.9065    1.3169 H   0  0  0  0  0  0  0  0  0  0  0  0
   -3.4623   -2.6685   -0.2401 H   0  0  0  0  0  0  0  0  0  0  0  0
   -1.7863   -2.0195    0.9119 C   0  0  0  0  0  0  0  0  0  0  0  0
   -0.9073   -2.6615    1.4699 O   0  0  0  0  0  0  0  0  0  0  0  0
   -1.5803   -0.8195    0.3749 N   0  0  0  0  0  0  0  0  0  0  0  0
   -2.3603   -0.3345   -0.0451 H   0  0  0  0  0  0  0  0  0  0  0  0
   -0.2933   -0.1205    0.3719 C   0  0  1  0  0  0  0  0  0  0  0  0
    0.5067   -0.8619    0.3887 H   0  0  0  0  0  0  0  0  0  0  0  0
   -0.1697    0.6985   -0.9291 C   0  0  0  0  0  0  0  0  0  0  0  0
   -1.0485    1.3406   -1.0105 H   0  0  0  0  0  0  0  0  0  0  0  0
    0.7128    1.3372   -0.8699 H   0  0  0  0  0  0  0  0  0  0  0  0
   -0.0655   -0.1622   -2.2001 C   0  0  0  0  0  0  0  0  0  0  0  0
    0.8189   -0.7972   -2.1470 H   0  0  0  0  0  0  0  0  0  0  0  0
   -0.9515   -0.7909   -2.2801 H   0  0  0  0  0  0  0  0  0  0  0  0
    0.0305    0.6842   -3.4654 C   0  0  0  0  0  0  0  0  0  0  0  0
   -0.0939    1.8977   -3.5073 O   0  0  0  0  0  0  0  0  0  0  0  0
    0.2593    0.0024   -4.6031 O   0  0  0  0  0  0  0  0  0  0  0  0
    0.2785    0.6664   -5.2944 H   0  0  0  0  0  0  0  0  0  0  0  0
   -0.1584    0.7543    1.6285 C   0  0  0  0  0  0  0  0  0  0  0  0
   -0.2119    0.2406    2.7444 O   0  0  0  0  0  0  0  0  0  0  0  0
    0.0035    2.0704    1.4468 N   0  0  0  0  0  0  0  0  0  0  0  0
    0.0607    2.4165    0.5007 H   0  0  0  0  0  0  0  0  0  0  0  0
    0.1250    3.0363    2.5369 C   0  0  0  0  0  0  0  0  0  0  0  0
    0.9623    2.7626    3.1813 H   0  0  0  0  0  0  0  0  0  0  0  0
    0.2918    4.0382    2.1387 H   0  0  0  0  0  0  0  0  0  0  0  0
   -0.7881    3.0335    3.1353 H   0  0  0  0  0  0  0  0  0  0  0  0
  5  6  2  0  0  0  0
  5  7  1  0  0  0  0
  2  3  1  0  0  0  0
  2  4  1  0  0  0  0
  2  5  1  0  0  0  0
  1  2  1  0  0  0  0
 21 22  2  0  0  0  0
 21 23  1  0  0  0  0
 19 20  1  0  0  0  0
 17 18  2  0  0  0  0
 17 19  1  0  0  0  0
 14 15  1  0  0  0  0
 14 16  1  0  0  0  0
 14 17  1  0  0  0  0
 11 12  1  0  0  0  0
 11 13  1  0  0  0  0
 11 14  1  0  0  0  0
  9 10  1  0  0  0  0
  9 11  1  0  0  0  0
  9 21  1  0  0  0  0
  7  8  1  0  0  0  0
  7  9  1  0  0  0  0
 25 26  1  0  0  0  0
 25 27  1  0  0  0  0
 25 28  1  0  0  0  0
 23 24  1  0  0  0  0
 23 25  1  0  0  0  0
M  END
$$$$
default_name
  -OEChem-01062215323D

 28 27  0     1  0  0  0  0  0999 V2000
   -3.2133   -3.5565    1.2809 H   0  0  0  0  0  0  0  0  0  0  0  0
   -3.1873   -2.5755    0.8089 C   0  0  0  0  0  0  0  0  0  0  0  0
   -3.8793   -1.9065    1.3169 H   0  0  0  0  0  0  0  0  0  0  0  0
   -3.4623   -2.6685   -0.2401 H   0  0  0  0  0  0  0  0  0  0  0  0
   -1.7863   -2.0195    0.9119 C   0  0  0  0  0  0  0  0  0  0  0  0
   -0.9073   -2.6615    1.4699 O   0  0  0  0  0  0  0  0  0  0  0  0
   -1.5803   -0.8195    0.3749 N   0  0  0  0  0  0  0  0  0  0  0  0
   -2.3603   -0.3345   -0.0451 H   0  0  0  0  0  0  0  0  0  0  0  0
   -0.2933   -0.1205    0.3719 C   0  0  1  0  0  0  0  0  0  0  0  0
    0.5067   -0.8619    0.3887 H   0  0  0  0  0  0  0  0  0  0  0  0
   -0.1697    0.6985   -0.9291 C   0  0  0  0  0  0  0  0  0  0  0  0
   -1.0485    1.3406   -1.0105 H   0  0  0  0  0  0  0  0  0  0  0  0
    0.7128    1.3372   -0.8699 H   0  0  0  0  0  0  0  0  0  0  0  0
   -0.0655   -0.1622   -2.2001 C   0  0  0  0  0  0  0  0  0  0  0  0
    0.8189   -0.7972   -2.1470 H   0  0  0  0  0  0  0  0  0  0  0  0
   -0.9515   -0.7909   -2.2801 H   0  0  0  0  0  0  0  0  0  0  0  0
    0.0305    0.6842   -3.4654 C   0  0  0  0  0  0  0  0  0  0  0  0
   -0.0939    1.8977   -3.5073 O   0  0  0  0  0  0  0  0  0  0  0  0
    0.2593    0.0024   -4.6031 O   0  0  0  0  0  0  0  0  0  0  0  0
    0.2785    0.6664   -5.2944 H   0  0  0  0  0  0  0  0  0  0  0  0
   -0.1584    0.7543    1.6285 C   0  0  0  0  0  0  0  0  0  0  0  0
    0.0648    0.2334    2.7197 O   0  0  0  0  0  0  0  0  0  0  0  0
   -0.3054    2.0759    1.4761 N   0  0  0  0  0  0  0  0  0  0  0  0
   -0.4645    2.4327    0.5458 H   0  0  0  0  0  0  0  0  0  0  0  0
   -0.2275    3.0380    2.5735 C   0  0  0  0  0  0  0  0  0  0  0  0
    0.7354    2.9447    3.0789 H   0  0  0  0  0  0  0  0  0  0  0  0
   -0.3364    4.0551    2.1943 H   0  0  0  0  0  0  0  0  0  0  0  0
   -1.0196    2.8363    3.2974 H   0  0  0  0  0  0  0  0  0  0  0  0
  5  6  2  0  0  0  0
  5  7  1  0  0  0  0
  2  3  1  0  0  0  0
  2  4  1  0  0  0  0
  2  5  1  0  0  0  0
  1  2  1  0  0  0  0
 21 22  2  0  0  0  0
 21 23  1  0  0  0  0
 19 20  1  0  0  0  0
 17 18  2  0  0  0  0
 17 19  1  0  0  0  0
 14 15  1  0  0  0  0
 14 16  1  0  0  0  0
 14 17  1  0  0  0  0
 11 12  1  0  0  0  0
 11 13  1  0  0  0  0
 11 14  1  0  0  0  0
  9 10  1  0  0  0  0
  9 11  1  0  0  0  0
  9 21  1  0  0  0  0
  7  8  1  0  0  0  0
  7  9  1  0  0  0  0
 25 26  1  0  0  0  0
 25 27  1  0  0  0  0
 25 28  1  0  0  0  0
 23 24  1  0  0  0  0
 23 25  1  0  0  0  0
M  END
$$$$
default_name
  -OEChem-01062215323D

 28 27  0     1  0  0  0  0  0999 V2000
   -3.2133   -3.5565    1.2809 H   0  0  0  0  0  0  0  0  0  0  0  0
   -3.1873   -2.5755    0.8089 C   0  0  0  0  0  0  0  0  0  0  0  0
   -3.8793   -1.9065    1.3169 H   0  0  0  0  0  0  0  0  0  0  0  0
   -3.4623   -2.6685   -0.2401 H   0  0  0  0  0  0  0  0  0  0  0  0
   -1.7863   -2.0195    0.9119 C   0  0  0  0  0  0  0  0  0  0  0  0
   -0.9073   -2.6615    1.4699 O   0  0  0  0  0  0  0  0  0  0  0  0
   -1.5803   -0.8195    0.3749 N   0  0  0  0  0  0  0  0  0  0  0  0
   -2.3603   -0.3345   -0.0451 H   0  0  0  0  0  0  0  0  0  0  0  0
   -0.2933   -0.1205    0.3719 C   0  0  1  0  0  0  0  0  0  0  0  0
    0.5067   -0.8619    0.3887 H   0  0  0  0  0  0  0  0  0  0  0  0
   -0.1697    0.6985   -0.9291 C   0  0  0  0  0  0  0  0  0  0  0  0
   -1.0485    1.3406   -1.0105 H   0  0  0  0  0  0  0  0  0  0  0  0
    0.7128    1.3372   -0.8699 H   0  0  0  0  0  0  0  0  0  0  0  0
   -0.0655   -0.1622   -2.2001 C   0  0  0  0  0  0  0  0  0  0  0  0
    0.8189   -0.7972   -2.1470 H   0  0  0  0  0  0  0  0  0  0  0  0
   -0.9515   -0.7909   -2.2801 H   0  0  0  0  0  0  0  0  0  0  0  0
    0.0305    0.6842   -3.4654 C   0  0  0  0  0  0  0  0  0  0  0  0
   -0.0939    1.8977   -3.5073 O   0  0  0  0  0  0  0  0  0  0  0  0
    0.2593    0.0024   -4.6031 O   0  0  0  0  0  0  0  0  0  0  0  0
    0.2785    0.6664   -5.2944 H   0  0  0  0  0  0  0  0  0  0  0  0
   -0.1584    0.7543    1.6285 C   0  0  0  0  0  0  0  0  0  0  0  0
    0.3300    0.2855    2.6549 O   0  0  0  0  0  0  0  0  0  0  0  0
   -0.6007    2.0152    1.5501 N   0  0  0  0  0  0  0  0  0  0  0  0
   -0.9686    2.3362    0.6671 H   0  0  0  0  0  0  0  0  0  0  0  0
   -0.5631    2.9642    2.6609 C   0  0  0  0  0  0  0  0  0  0  0  0
    0.4626    3.0750    3.0175 H   0  0  0  0  0  0  0  0  0  0  0  0
   -0.9385    3.9372    2.3410 H   0  0  0  0  0  0  0  0  0  0  0  0
   -1.1776    2.5932    3.4836 H   0  0  0  0  0  0  0  0  0  0  0  0
  5  6  2  0  0  0  0
  5  7  1  0  0  0  0
  2  3  1  0  0  0  0
  2  4  1  0  0  0  0
  2  5  1  0  0  0  0
  1  2  1  0  0  0  0
 21 22  2  0  0  0  0
 21 23  1  0  0  0  0
 19 20  1  0  0  0  0
 17 18  2  0  0  0  0
 17 19  1  0  0  0  0
 14 15  1  0  0  0  0
 14 16  1  0  0  0  0
 14 17  1  0  0  0  0
 11 12  1  0  0  0  0
 11 13  1  0  0  0  0
 11 14  1  0  0  0  0
  9 10  1  0  0  0  0
  9 11  1  0  0  0  0
  9 21  1  0  0  0  0
  7  8  1  0  0  0  0
  7  9  1  0  0  0  0
 25 26  1  0  0  0  0
 25 27  1  0  0  0  0
 25 28  1  0  0  0  0
 23 24  1  0  0  0  0
 23 25  1  0  0  0  0
M  END
$$$$
default_name
  -OEChem-01062215323D

 28 27  0     1  0  0  0  0  0999 V2000
   -3.2133   -3.5565    1.2809 H   0  0  0  0  0  0  0  0  0  0  0  0
   -3.1873   -2.5755    0.8089 C   0  0  0  0  0  0  0  0  0  0  0  0
   -3.8793   -1.9065    1.3169 H   0  0  0  0  0  0  0  0  0  0  0  0
   -3.4623   -2.6685   -0.2401 H   0  0  0  0  0  0  0  0  0  0  0  0
   -1.7863   -2.0195    0.9119 C   0  0  0  0  0  0  0  0  0  0  0  0
   -0.9073   -2.6615    1.4699 O   0  0  0  0  0  0  0  0  0  0  0  0
   -1.5803   -0.8195    0.3749 N   0  0  0  0  0  0  0  0  0  0  0  0
   -2.3603   -0.3345   -0.0451 H   0  0  0  0  0  0  0  0  0  0  0  0
   -0.2933   -0.1205    0.3719 C   0  0  1  0  0  0  0  0  0  0  0  0
    0.5067   -0.8619    0.3887 H   0  0  0  0  0  0  0  0  0  0  0  0
   -0.1697    0.6985   -0.9291 C   0  0  0  0  0  0  0  0  0  0  0  0
   -1.0485    1.3406   -1.0105 H   0  0  0  0  0  0  0  0  0  0  0  0
    0.7128    1.3372   -0.8699 H   0  0  0  0  0  0  0  0  0  0  0  0
   -0.0655   -0.1622   -2.2001 C   0  0  0  0  0  0  0  0  0  0  0  0
    0.8189   -0.7972   -2.1470 H   0  0  0  0  0  0  0  0  0  0  0  0
   -0.9515   -0.7909   -2.2801 H   0  0  0  0  0  0  0  0  0  0  0  0
    0.0305    0.6842   -3.4654 C   0  0  0  0  0  0  0  0  0  0  0  0
   -0.0939    1.8977   -3.5073 O   0  0  0  0  0  0  0  0  0  0  0  0
    0.2593    0.0024   -4.6031 O   0  0  0  0  0  0  0  0  0  0  0  0
    0.2785    0.6664   -5.2944 H   0  0  0  0  0  0  0  0  0  0  0  0
   -0.1584    0.7543    1.6285 C   0  0  0  0  0  0  0  0  0  0  0  0
    0.5656    0.3935    2.5545 O   0  0  0  0  0  0  0  0  0  0  0  0
   -0.8621    1.8923    1.6637 N   0  0  0  0  0  0  0  0  0  0  0  0
   -1.4172    2.1335    0.8563 H   0  0  0  0  0  0  0  0  0  0  0  0
   -0.8586    2.8199    2.7931 C   0  0  0  0  0  0  0  0  0  0  0  0
    0.1625    3.1445    3.0014 H   0  0  0  0  0  0  0  0  0  0  0  0
   -1.4735    3.6926    2.5687 H   0  0  0  0  0  0  0  0  0  0  0  0
   -1.2514    2.3208    3.6811 H   0  0  0  0  0  0  0  0  0  0  0  0
  5  6  2  0  0  0  0
  5  7  1  0  0  0  0
  2  3  1  0  0  0  0
  2  4  1  0  0  0  0
  2  5  1  0  0  0  0
  1  2  1  0  0  0  0
 21 22  2  0  0  0  0
 21 23  1  0  0  0  0
 19 20  1  0  0  0  0
 17 18  2  0  0  0  0
 17 19  1  0  0  0  0
 14 15  1  0  0  0  0
 14 16  1  0  0  0  0
 14 17  1  0  0  0  0
 11 12  1  0  0  0  0
 11 13  1  0  0  0  0
 11 14  1  0  0  0  0
  9 10  1  0  0  0  0
  9 11  1  0  0  0  0
  9 21  1  0  0  0  0
  7  8  1  0  0  0  0
  7  9  1  0  0  0  0
 25 26  1  0  0  0  0
 25 27  1  0  0  0  0
 25 28  1  0  0  0  0
 23 24  1  0  0  0  0
 23 25  1  0  0  0  0
M  END
$$$$
default_name
  -OEChem-01062215323D

 28 27  0     1  0  0  0  0  0999 V2000
   -3.2133   -3.5565    1.2809 H   0  0  0  0  0  0  0  0  0  0  0  0
   -3.1873   -2.5755    0.8089 C   0  0  0  0  0  0  0  0  0  0  0  0
   -3.8793   -1.9065    1.3169 H   0  0  0  0  0  0  0  0  0  0  0  0
   -3.4623   -2.6685   -0.2401 H   0  0  0  0  0  0  0  0  0  0  0  0
   -1.7863   -2.0195    0.9119 C   0  0  0  0  0  0  0  0  0  0  0  0
   -0.9073   -2.6615    1.4699 O   0  0  0  0  0  0  0  0  0  0  0  0
   -1.5803   -0.8195    0.3749 N   0  0  0  0  0  0  0  0  0  0  0  0
   -2.3603   -0.3345   -0.0451 H   0  0  0  0  0  0  0  0  0  0  0  0
   -0.2933   -0.1205    0.3719 C   0  0  1  0  0  0  0  0  0  0  0  0
    0.5067   -0.8619    0.3887 H   0  0  0  0  0  0  0  0  0  0  0  0
   -0.1697    0.6985   -0.9291 C   0  0  0  0  0  0  0  0  0  0  0  0
   -1.0485    1.3406   -1.0105 H   0  0  0  0  0  0  0  0  0  0  0  0
    0.7128    1.3372   -0.8699 H   0  0  0  0  0  0  0  0  0  0  0  0
   -0.0655   -0.1622   -2.2001 C   0  0  0  0  0  0  0  0  0  0  0  0
    0.8189   -0.7972   -2.1470 H   0  0  0  0  0  0  0  0  0  0  0  0
   -0.9515   -0.7909   -2.2801 H   0  0  0  0  0  0  0  0  0  0  0  0
    0.0305    0.6842   -3.4654 C   0  0  0  0  0  0  0  0  0  0  0  0
   -0.0939    1.8977   -3.5073 O   0  0  0  0  0  0  0  0  0  0  0  0
    0.2593    0.0024   -4.6031 O   0  0  0  0  0  0  0  0  0  0  0  0
    0.2785    0.6664   -5.2944 H   0  0  0  0  0  0  0  0  0  0  0  0
   -0.1584    0.7543    1.6285 C   0  0  0  0  0  0  0  0  0  0  0  0
    0.7555    0.5499    2.4253 O   0  0  0  0  0  0  0  0  0  0  0  0
   -1.0720    1.7157    1.8091 N   0  0  0  0  0  0  0  0  0  0  0  0
   -1.7798    1.8385    1.1005 H   0  0  0  0  0  0  0  0  0  0  0  0
   -1.0942    2.6149    2.9610 C   0  0  0  0  0  0  0  0  0  0  0  0
   -0.1445    3.1484    3.0315 H   0  0  0  0  0  0  0  0  0  0  0  0
   -1.9050    3.3380    2.8619 H   0  0  0  0  0  0  0  0  0  0  0  0
   -1.2359    2.0375    3.8767 H   0  0  0  0  0  0  0  0  0  0  0  0
  5  6  2  0  0  0  0
  5  7  1  0  0  0  0
  2  3  1  0  0  0  0
  2  4  1  0  0  0  0
  2  5  1  0  0  0  0
  1  2  1  0  0  0  0
 21 22  2  0  0  0  0
 21 23  1  0  0  0  0
 19 20  1  0  0  0  0
 17 18  2  0  0  0  0
 17 19  1  0  0  0  0
 14 15  1  0  0  0  0
 14 16  1  0  0  0  0
 14 17  1  0  0  0  0
 11 12  1  0  0  0  0
 11 13  1  0  0  0  0
 11 14  1  0  0  0  0
  9 10  1  0  0  0  0
  9 11  1  0  0  0  0
  9 21  1  0  0  0  0
  7  8  1  0  0  0  0
  7  9  1  0  0  0  0
 25 26  1  0  0  0  0
 25 27  1  0  0  0  0
 25 28  1  0  0  0  0
 23 24  1  0  0  0  0
 23 25  1  0  0  0  0
M  END
$$$$
default_name
  -OEChem-01062215323D

 28 27  0     1  0  0  0  0  0999 V2000
   -3.2133   -3.5565    1.2809 H   0  0  0  0  0  0  0  0  0  0  0  0
   -3.1873   -2.5755    0.8089 C   0  0  0  0  0  0  0  0  0  0  0  0
   -3.8793   -1.9065    1.3169 H   0  0  0  0  0  0  0  0  0  0  0  0
   -3.4623   -2.6685   -0.2401 H   0  0  0  0  0  0  0  0  0  0  0  0
   -1.7863   -2.0195    0.9119 C   0  0  0  0  0  0  0  0  0  0  0  0
   -0.9073   -2.6615    1.4699 O   0  0  0  0  0  0  0  0  0  0  0  0
   -1.5803   -0.8195    0.3749 N   0  0  0  0  0  0  0  0  0  0  0  0
   -2.3603   -0.3345   -0.0451 H   0  0  0  0  0  0  0  0  0  0  0  0
   -0.2933   -0.1205    0.3719 C   0  0  1  0  0  0  0  0  0  0  0  0
    0.5067   -0.8619    0.3887 H   0  0  0  0  0  0  0  0  0  0  0  0
   -0.1697    0.6985   -0.9291 C   0  0  0  0  0  0  0  0  0  0  0  0
   -1.0485    1.3406   -1.0105 H   0  0  0  0  0  0  0  0  0  0  0  0
    0.7128    1.3372   -0.8699 H   0  0  0  0  0  0  0  0  0  0  0  0
   -0.0655   -0.1622   -2.2001 C   0  0  0  0  0  0  0  0  0  0  0  0
    0.8189   -0.7972   -2.1470 H   0  0  0  0  0  0  0  0  0  0  0  0
   -0.9515   -0.7909   -2.2801 H   0  0  0  0  0  0  0  0  0  0  0  0
    0.0305    0.6842   -3.4654 C   0  0  0  0  0  0  0  0  0  0  0  0
   -0.0939    1.8977   -3.5073 O   0  0  0  0  0  0  0  0  0  0  0  0
    0.2593    0.0024   -4.6031 O   0  0  0  0  0  0  0  0  0  0  0  0
    0.2785    0.6664   -5.2944 H   0  0  0  0  0  0  0  0  0  0  0  0
   -0.1584    0.7543    1.6285 C   0  0  0  0  0  0  0  0  0  0  0  0
    0.8868    0.7441    2.2760 O   0  0  0  0  0  0  0  0  0  0  0  0
   -1.2158    1.4975    1.9765 N   0  0  0  0  0  0  0  0  0  0  0  0
   -2.0316    1.4713    1.3832 H   0  0  0  0  0  0  0  0  0  0  0  0
   -1.2535    2.3633    3.1533 C   0  0  0  0  0  0  0  0  0  0  0  0
   -0.4374    3.0866    3.1060 H   0  0  0  0  0  0  0  0  0  0  0  0
   -2.2036    2.8974    3.2006 H   0  0  0  0  0  0  0  0  0  0  0  0
   -1.1322    1.7627    4.0568 H   0  0  0  0  0  0  0  0  0  0  0  0
  5  6  2  0  0  0  0
  5  7  1  0  0  0  0
  2  3  1  0  0  0  0
  2  4  1  0  0  0  0
  2  5  1  0  0  0  0
  1  2  1  0  0  0  0
 21 22  2  0  0  0  0
 21 23  1  0  0  0  0
 19 20  1  0  0  0  0
 17 18  2  0  0  0  0
 17 19  1  0  0  0  0
 14 15  1  0  0  0  0
 14 16  1  0  0  0  0
 14 17  1  0  0  0  0
 11 12  1  0  0  0  0
 11 13  1  0  0  0  0
 11 14  1  0  0  0  0
  9 10  1  0  0  0  0
  9 11  1  0  0  0  0
  9 21  1  0  0  0  0
  7  8  1  0  0  0  0
  7  9  1  0  0  0  0
 25 26  1  0  0  0  0
 25 27  1  0  0  0  0
 25 28  1  0  0  0  0
 23 24  1  0  0  0  0
 23 25  1  0  0  0  0
M  END
$$$$
default_name
  -OEChem-01062215323D

 28 27  0     1  0  0  0  0  0999 V2000
   -3.2133   -3.5565    1.2809 H   0  0  0  0  0  0  0  0  0  0  0  0
   -3.1873   -2.5755    0.8089 C   0  0  0  0  0  0  0  0  0  0  0  0
   -3.8793   -1.9065    1.3169 H   0  0  0  0  0  0  0  0  0  0  0  0
   -3.4623   -2.6685   -0.2401 H   0  0  0  0  0  0  0  0  0  0  0  0
   -1.7863   -2.0195    0.9119 C   0  0  0  0  0  0  0  0  0  0  0  0
   -0.9073   -2.6615    1.4699 O   0  0  0  0  0  0  0  0  0  0  0  0
   -1.5803   -0.8195    0.3749 N   0  0  0  0  0  0  0  0  0  0  0  0
   -2.3603   -0.3345   -0.0451 H   0  0  0  0  0  0  0  0  0  0  0  0
   -0.2933   -0.1205    0.3719 C   0  0  1  0  0  0  0  0  0  0  0  0
    0.5067   -0.8619    0.3887 H   0  0  0  0  0  0  0  0  0  0  0  0
   -0.1697    0.6985   -0.9291 C   0  0  0  0  0  0  0  0  0  0  0  0
   -1.0485    1.3406   -1.0105 H   0  0  0  0  0  0  0  0  0  0  0  0
    0.7128    1.3372   -0.8699 H   0  0  0  0  0  0  0  0  0  0  0  0
   -0.0655   -0.1622   -2.2001 C   0  0  0  0  0  0  0  0  0  0  0  0
    0.8189   -0.7972   -2.1470 H   0  0  0  0  0  0  0  0  0  0  0  0
   -0.9515   -0.7909   -2.2801 H   0  0  0  0  0  0  0  0  0  0  0  0
    0.0305    0.6842   -3.4654 C   0  0  0  0  0  0  0  0  0  0  0  0
   -0.0939    1.8977   -3.5073 O   0  0  0  0  0  0  0  0  0  0  0  0
    0.2593    0.0024   -4.6031 O   0  0  0  0  0  0  0  0  0  0  0  0
    0.2785    0.6664   -5.2944 H   0  0  0  0  0  0  0  0  0  0  0  0
   -0.1584    0.7543    1.6285 C   0  0  0  0  0  0  0  0  0  0  0  0
    0.9505    0.9628    2.1169 O   0  0  0  0  0  0  0  0  0  0  0  0
   -1.2840    1.2524    2.1544 N   0  0  0  0  0  0  0  0  0  0  0  0
   -2.1555    1.0569    1.6849 H   0  0  0  0  0  0  0  0  0  0  0  0
   -1.3259    2.0822    3.3567 C   0  0  0  0  0  0  0  0  0  0  0  0
   -0.6963    2.9632    3.2197 H   0  0  0  0  0  0  0  0  0  0  0  0
   -2.3489    2.4010    3.5617 H   0  0  0  0  0  0  0  0  0  0  0  0
   -0.9473    1.5151    4.2093 H   0  0  0  0  0  0  0  0  0  0  0  0
  5  6  2  0  0  0  0
  5  7  1  0  0  0  0
  2  3  1  0  0  0  0
  2  4  1  0  0  0  0
  2  5  1  0  0  0  0
  1  2  1  0  0  0  0
 21 22  2  0  0  0  0
 21 23  1  0  0  0  0
 19 20  1  0  0  0  0
 17 18  2  0  0  0  0
 17 19  1  0  0  0  0
 14 15  1  0  0  0  0
 14 16  1  0  0  0  0
 14 17  1  0  0  0  0
 11 12  1  0  0  0  0
 11 13  1  0  0  0  0
 11 14  1  0  0  0  0
  9 10  1  0  0  0  0
  9 11  1  0  0  0  0
  9 21  1  0  0  0  0
  7  8  1  0  0  0  0
  7  9  1  0  0  0  0
 25 26  1  0  0  0  0
 25 27  1  0  0  0  0
 25 28  1  0  0  0  0
 23 24  1  0  0  0  0
 23 25  1  0  0  0  0
M  END
$$$$
default_name
  -OEChem-01062215323D

 28 27  0     1  0  0  0  0  0999 V2000
   -3.2133   -3.5565    1.2809 H   0  0  0  0  0  0  0  0  0  0  0  0
   -3.1873   -2.5755    0.8089 C   0  0  0  0  0  0  0  0  0  0  0  0
   -3.8793   -1.9065    1.3169 H   0  0  0  0  0  0  0  0  0  0  0  0
   -3.4623   -2.6685   -0.2401 H   0  0  0  0  0  0  0  0  0  0  0  0
   -1.7863   -2.0195    0.9119 C   0  0  0  0  0  0  0  0  0  0  0  0
   -0.9073   -2.6615    1.4699 O   0  0  0  0  0  0  0  0  0  0  0  0
   -1.5803   -0.8195    0.3749 N   0  0  0  0  0  0  0  0  0  0  0  0
   -2.3603   -0.3345   -0.0451 H   0  0  0  0  0  0  0  0  0  0  0  0
   -0.2933   -0.1205    0.3719 C   0  0  1  0  0  0  0  0  0  0  0  0
    0.5067   -0.8619    0.3887 H   0  0  0  0  0  0  0  0  0  0  0  0
   -0.1697    0.6985   -0.9291 C   0  0  0  0  0  0  0  0  0  0  0  0
   -1.0485    1.3406   -1.0105 H   0  0  0  0  0  0  0  0  0  0  0  0
    0.7128    1.3372   -0.8699 H   0  0  0  0  0  0  0  0  0  0  0  0
   -0.0655   -0.1622   -2.2001 C   0  0  0  0  0  0  0  0  0  0  0  0
    0.8189   -0.7972   -2.1470 H   0  0  0  0  0  0  0  0  0  0  0  0
   -0.9515   -0.7909   -2.2801 H   0  0  0  0  0  0  0  0  0  0  0  0
    0.0305    0.6842   -3.4654 C   0  0  0  0  0  0  0  0  0  0  0  0
   -0.0939    1.8977   -3.5073 O   0  0  0  0  0  0  0  0  0  0  0  0
    0.2593    0.0024   -4.6031 O   0  0  0  0  0  0  0  0  0  0  0  0
    0.2785    0.6664   -5.2944 H   0  0  0  0  0  0  0  0  0  0  0  0
   -0.1584    0.7543    1.6285 C   0  0  0  0  0  0  0  0  0  0  0  0
    0.9424    1.1912    1.9588 O   0  0  0  0  0  0  0  0  0  0  0  0
   -1.2718    0.9973    2.3307 N   0  0  0  0  0  0  0  0  0  0  0  0
   -2.1431    0.6236    1.9853 H   0  0  0  0  0  0  0  0  0  0  0  0
   -1.3064    1.7907    3.5575 C   0  0  0  0  0  0  0  0  0  0  0  0
   -0.9036    2.7867    3.3648 H   0  0  0  0  0  0  0  0  0  0  0  0
   -2.3310    1.8826    3.9207 H   0  0  0  0  0  0  0  0  0  0  0  0
   -0.6939    1.3116    4.3238 H   0  0  0  0  0  0  0  0  0  0  0  0
  5  6  2  0  0  0  0
  5  7  1  0  0  0  0
  2  3  1  0  0  0  0
  2  4  1  0  0  0  0
  2  5  1  0  0  0  0
  1  2  1  0  0  0  0
 21 22  2  0  0  0  0
 21 23  1  0  0  0  0
 19 20  1  0  0  0  0
 17 18  2  0  0  0  0
 17 19  1  0  0  0  0
 14 15  1  0  0  0  0
 14 16  1  0  0  0  0
 14 17  1  0  0  0  0
 11 12  1  0  0  0  0
 11 13  1  0  0  0  0
 11 14  1  0  0  0  0
  9 10  1  0  0  0  0
  9 11  1  0  0  0  0
  9 21  1  0  0  0  0
  7  8  1  0  0  0  0
  7  9  1  0  0  0  0
 25 26  1  0  0  0  0
 25 27  1  0  0  0  0
 25 28  1  0  0  0  0
 23 24  1  0  0  0  0
 23 25  1  0  0  0  0
M  END
$$$$
default_name
  -OEChem-01062215323D

 28 27  0     1  0  0  0  0  0999 V2000
   -3.2133   -3.5565    1.2809 H   0  0  0  0  0  0  0  0  0  0  0  0
   -3.1873   -2.5755    0.8089 C   0  0  0  0  0  0  0  0  0  0  0  0
   -3.8793   -1.9065    1.3169 H   0  0  0  0  0  0  0  0  0  0  0  0
   -3.4623   -2.6685   -0.2401 H   0  0  0  0  0  0  0  0  0  0  0  0
   -1.7863   -2.0195    0.9119 C   0  0  0  0  0  0  0  0  0  0  0  0
   -0.9073   -2.6615    1.4699 O   0  0  0  0  0  0  0  0  0  0  0  0
   -1.5803   -0.8195    0.3749 N   0  0  0  0  0  0  0  0  0  0  0  0
   -2.3603   -0.3345   -0.0451 H   0  0  0  0  0  0  0  0  0  0  0  0
   -0.2933   -0.1205    0.3719 C   0  0  1  0  0  0  0  0  0  0  0  0
    0.5067   -0.8619    0.3887 H   0  0  0  0  0  0  0  0  0  0  0  0
   -0.1697    0.6985   -0.9291 C   0  0  0  0  0  0  0  0  0  0  0  0
   -1.0485    1.3406   -1.0105 H   0  0  0  0  0  0  0  0  0  0  0  0
    0.7128    1.3372   -0.8699 H   0  0  0  0  0  0  0  0  0  0  0  0
   -0.0655   -0.1622   -2.2001 C   0  0  0  0  0  0  0  0  0  0  0  0
    0.8189   -0.7972   -2.1470 H   0  0  0  0  0  0  0  0  0  0  0  0
   -0.9515   -0.7909   -2.2801 H   0  0  0  0  0  0  0  0  0  0  0  0
    0.0305    0.6842   -3.4654 C   0  0  0  0  0  0  0  0  0  0  0  0
   -0.0939    1.8977   -3.5073 O   0  0  0  0  0  0  0  0  0  0  0  0
    0.2593    0.0024   -4.6031 O   0  0  0  0  0  0  0  0  0  0  0  0
    0.2785    0.6664   -5.2944 H   0  0  0  0  0  0  0  0  0  0  0  0
   -0.1584    0.7543    1.6285 C   0  0  0  0  0  0  0  0  0  0  0  0
    0.8629    1.4137    1.8124 O   0  0  0  0  0  0  0  0  0  0  0  0
   -1.1800    0.7494    2.4934 N   0  0  0  0  0  0  0  0  0  0  0  0
   -1.9952    0.2008    2.2637 H   0  0  0  0  0  0  0  0  0  0  0  0
   -1.1963    1.5088    3.7420 C   0  0  0  0  0  0  0  0  0  0  0  0
   -1.0450    2.5690    3.5315 H   0  0  0  0  0  0  0  0  0  0  0  0
   -2.1512    1.3775    4.2530 H   0  0  0  0  0  0  0  0  0  0  0  0
   -0.3892    1.1661    4.3924 H   0  0  0  0  0  0  0  0  0  0  0  0
  5  6  2  0  0  0  0
  5  7  1  0  0  0  0
  2  3  1  0  0  0  0
  2  4  1  0  0  0  0
  2  5  1  0  0  0  0
  1  2  1  0  0  0  0
 21 22  2  0  0  0  0
 21 23  1  0  0  0  0
 19 20  1  0  0  0  0
 17 18  2  0  0  0  0
 17 19  1  0  0  0  0
 14 15  1  0  0  0  0
 14 16  1  0  0  0  0
 14 17  1  0  0  0  0
 11 12  1  0  0  0  0
 11 13  1  0  0  0  0
 11 14  1  0  0  0  0
  9 10  1  0  0  0  0
  9 11  1  0  0  0  0
  9 21  1  0  0  0  0
  7  8  1  0  0  0  0
  7  9  1  0  0  0  0
 25 26  1  0  0  0  0
 25 27  1  0  0  0  0
 25 28  1  0  0  0  0
 23 24  1  0  0  0  0
 23 25  1  0  0  0  0
M  END
$$$$
default_name
  -OEChem-01062215323D

 28 27  0     1  0  0  0  0  0999 V2000
   -3.2133   -3.5565    1.2809 H   0  0  0  0  0  0  0  0  0  0  0  0
   -3.1873   -2.5755    0.8089 C   0  0  0  0  0  0  0  0  0  0  0  0
   -3.8793   -1.9065    1.3169 H   0  0  0  0  0  0  0  0  0  0  0  0
   -3.4623   -2.6685   -0.2401 H   0  0  0  0  0  0  0  0  0  0  0  0
   -1.7863   -2.0195    0.9119 C   0  0  0  0  0  0  0  0  0  0  0  0
   -0.9073   -2.6615    1.4699 O   0  0  0  0  0  0  0  0  0  0  0  0
   -1.5803   -0.8195    0.3749 N   0  0  0  0  0  0  0  0  0  0  0  0
   -2.3603   -0.3345   -0.0451 H   0  0  0  0  0  0  0  0  0  0  0  0
   -0.2933   -0.1205    0.3719 C   0  0  1  0  0  0  0  0  0  0  0  0
    0.5067   -0.8619    0.3887 H   0  0  0  0  0  0  0  0  0  0  0  0
   -0.1697    0.6985   -0.9291 C   0  0  0  0  0  0  0  0  0  0  0  0
   -1.0485    1.3406   -1.0105 H   0  0  0  0  0  0  0  0  0  0  0  0
    0.7128    1.3372   -0.8699 H   0  0  0  0  0  0  0  0  0  0  0  0
   -0.0655   -0.1622   -2.2001 C   0  0  0  0  0  0  0  0  0  0  0  0
    0.8189   -0.7972   -2.1470 H   0  0  0  0  0  0  0  0  0  0  0  0
   -0.9515   -0.7909   -2.2801 H   0  0  0  0  0  0  0  0  0  0  0  0
    0.0305    0.6842   -3.4654 C   0  0  0  0  0  0  0  0  0  0  0  0
   -0.0939    1.8977   -3.5073 O   0  0  0  0  0  0  0  0  0  0  0  0
    0.2593    0.0024   -4.6031 O   0  0  0  0  0  0  0  0  0  0  0  0
    0.2785    0.6664   -5.2944 H   0  0  0  0  0  0  0  0  0  0  0  0
   -0.1584    0.7543    1.6285 C   0  0  0  0  0  0  0  0  0  0  0  0
    0.7175    1.6151    1.6878 O   0  0  0  0  0  0  0  0  0  0  0  0
   -1.0149    0.5257    2.6314 N   0  0  0  0  0  0  0  0  0  0  0  0
   -1.7218   -0.1826    2.5012 H   0  0  0  0  0  0  0  0  0  0  0  0
   -1.0031    1.2555    3.8976 C   0  0  0  0  0  0  0  0  0  0  0  0
   -1.1110    2.3251    3.7084 H   0  0  0  0  0  0  0  0  0  0  0  0
   -1.8216    0.9201    4.5360 H   0  0  0  0  0  0  0  0  0  0  0  0
   -0.0539    1.0884    4.4105 H   0  0  0  0  0  0  0  0  0  0  0  0
  5  6  2  0  0  0  0
  5  7  1  0  0  0  0
  2  3  1  0  0  0  0
  2  4  1  0  0  0  0
  2  5  1  0  0  0  0
  1  2  1  0  0  0  0
 21 22  2  0  0  0  0
 21 23  1  0  0  0  0
 19 20  1  0  0  0  0
 17 18  2  0  0  0  0
 17 19  1  0  0  0  0
 14 15  1  0  0  0  0
 14 16  1  0  0  0  0
 14 17  1  0  0  0  0
 11 12  1  0  0  0  0
 11 13  1  0  0  0  0
 11 14  1  0  0  0  0
  9 10  1  0  0  0  0
  9 11  1  0  0  0  0
  9 21  1  0  0  0  0
  7  8  1  0  0  0  0
  7  9  1  0  0  0  0
 25 26  1  0  0  0  0
 25 27  1  0  0  0  0
 25 28  1  0  0  0  0
 23 24  1  0  0  0  0
 23 25  1  0  0  0  0
M  END
$$$$
default_name
  -OEChem-01062215323D

 28 27  0     1  0  0  0  0  0999 V2000
   -3.2133   -3.5565    1.2809 H   0  0  0  0  0  0  0  0  0  0  0  0
   -3.1873   -2.5755    0.8089 C   0  0  0  0  0  0  0  0  0  0  0  0
   -3.8793   -1.9065    1.3169 H   0  0  0  0  0  0  0  0  0  0  0  0
   -3.4623   -2.6685   -0.2401 H   0  0  0  0  0  0  0  0  0  0  0  0
   -1.7863   -2.0195    0.9119 C   0  0  0  0  0  0  0  0  0  0  0  0
   -0.9073   -2.6615    1.4699 O   0  0  0  0  0  0  0  0  0  0  0  0
   -1.5803   -0.8195    0.3749 N   0  0  0  0  0  0  0  0  0  0  0  0
   -2.3603   -0.3345   -0.0451 H   0  0  0  0  0  0  0  0  0  0  0  0
   -0.2933   -0.1205    0.3719 C   0  0  1  0  0  0  0  0  0  0  0  0
    0.5067   -0.8619    0.3887 H   0  0  0  0  0  0  0  0  0  0  0  0
   -0.1697    0.6985   -0.9291 C   0  0  0  0  0  0  0  0  0  0  0  0
   -1.0485    1.3406   -1.0105 H   0  0  0  0  0  0  0  0  0  0  0  0
    0.7128    1.3372   -0.8699 H   0  0  0  0  0  0  0  0  0  0  0  0
   -0.0655   -0.1622   -2.2001 C   0  0  0  0  0  0  0  0  0  0  0  0
    0.8189   -0.7972   -2.1470 H   0  0  0  0  0  0  0  0  0  0  0  0
   -0.9515   -0.7909   -2.2801 H   0  0  0  0  0  0  0  0  0  0  0  0
    0.0305    0.6842   -3.4654 C   0  0  0  0  0  0  0  0  0  0  0  0
   -0.0939    1.8977   -3.5073 O   0  0  0  0  0  0  0  0  0  0  0  0
    0.2593    0.0024   -4.6031 O   0  0  0  0  0  0  0  0  0  0  0  0
    0.2785    0.6664   -5.2944 H   0  0  0  0  0  0  0  0  0  0  0  0
   -0.1584    0.7543    1.6285 C   0  0  0  0  0  0  0  0  0  0  0  0
    0.5161    1.7817    1.5935 O   0  0  0  0  0  0  0  0  0  0  0  0
   -0.7878    0.3414    2.7353 N   0  0  0  0  0  0  0  0  0  0  0  0
   -1.3416   -0.5005    2.6817 H   0  0  0  0  0  0  0  0  0  0  0  0
   -0.7400    1.0482    4.0136 C   0  0  0  0  0  0  0  0  0  0  0  0
   -1.0971    2.0715    3.8834 H   0  0  0  0  0  0  0  0  0  0  0  0
   -1.3648    0.5415    4.7505 H   0  0  0  0  0  0  0  0  0  0  0  0
    0.2890    1.0839    4.3768 H   0  0  0  0  0  0  0  0  0  0  0  0
  5  6  2  0  0  0  0
  5  7  1  0  0  0  0
  2  3  1  0  0  0  0
  2  4  1  0  0  0  0
  2  5  1  0  0  0  0
  1  2  1  0  0  0  0
 21 22  2  0  0  0  0
 21 23  1  0  0  0  0
 19 20  1  0  0  0  0
 17 18  2  0  0  0  0
 17 19  1  0  0  0  0
 14 15  1  0  0  0  0
 14 16  1  0  0  0  0
 14 17  1  0  0  0  0
 11 12  1  0  0  0  0
 11 13  1  0  0  0  0
 11 14  1  0  0  0  0
  9 10  1  0  0  0  0
  9 11  1  0  0  0  0
  9 21  1  0  0  0  0
  7  8  1  0  0  0  0
  7  9  1  0  0  0  0
 25 26  1  0  0  0  0
 25 27  1  0  0  0  0
 25 28  1  0  0  0  0
 23 24  1  0  0  0  0
 23 25  1  0  0  0  0
M  END
$$$$
default_name
  -OEChem-01062215323D

 28 27  0     1  0  0  0  0  0999 V2000
   -3.2133   -3.5565    1.2809 H   0  0  0  0  0  0  0  0  0  0  0  0
   -3.1873   -2.5755    0.8089 C   0  0  0  0  0  0  0  0  0  0  0  0
   -3.8793   -1.9065    1.3169 H   0  0  0  0  0  0  0  0  0  0  0  0
   -3.4623   -2.6685   -0.2401 H   0  0  0  0  0  0  0  0  0  0  0  0
   -1.7863   -2.0195    0.9119 C   0  0  0  0  0  0  0  0  0  0  0  0
   -0.9073   -2.6615    1.4699 O   0  0  0  0  0  0  0  0  0  0  0  0
   -1.5803   -0.8195    0.3749 N   0  0  0  0  0  0  0  0  0  0  0  0
   -2.3603   -0.3345   -0.0451 H   0  0  0  0  0  0  0  0  0  0  0  0
   -0.2933   -0.1205    0.3719 C   0  0  1  0  0  0  0  0  0  0  0  0
    0.5067   -0.8619    0.3887 H   0  0  0  0  0  0  0  0  0  0  0  0
   -0.1697    0.6985   -0.9291 C   0  0  0  0  0  0  0  0  0  0  0  0
   -1.0485    1.3406   -1.0105 H   0  0  0  0  0  0  0  0  0  0  0  0
    0.7128    1.3372   -0.8699 H   0  0  0  0  0  0  0  0  0  0  0  0
   -0.0655   -0.1622   -2.2001 C   0  0  0  0  0  0  0  0  0  0  0  0
    0.8189   -0.7972   -2.1470 H   0  0  0  0  0  0  0  0  0  0  0  0
   -0.9515   -0.7909   -2.2801 H   0  0  0  0  0  0  0  0  0  0  0  0
    0.0305    0.6842   -3.4654 C   0  0  0  0  0  0  0  0  0  0  0  0
   -0.0939    1.8977   -3.5073 O   0  0  0  0  0  0  0  0  0  0  0  0
    0.2593    0.0024   -4.6031 O   0  0  0  0  0  0  0  0  0  0  0  0
    0.2785    0.6664   -5.2944 H   0  0  0  0  0  0  0  0  0  0  0  0
   -0.1584    0.7543    1.6285 C   0  0  0  0  0  0  0  0  0  0  0  0
    0.2724    1.9021    1.5358 O   0  0  0  0  0  0  0  0  0  0  0  0
   -0.5141    0.2090    2.7981 N   0  0  0  0  0  0  0  0  0  0  0  0
   -0.8805   -0.7311    2.7928 H   0  0  0  0  0  0  0  0  0  0  0  0
   -0.4249    0.9011    4.0822 C   0  0  0  0  0  0  0  0  0  0  0  0
   -1.0042    1.8254    4.0447 H   0  0  0  0  0  0  0  0  0  0  0  0
   -0.8119    0.2677    4.8817 H   0  0  0  0  0  0  0  0  0  0  0  0
    0.6162    1.1529    4.2937 H   0  0  0  0  0  0  0  0  0  0  0  0
  5  6  2  0  0  0  0
  5  7  1  0  0  0  0
  2  3  1  0  0  0  0
  2  4  1  0  0  0  0
  2  5  1  0  0  0  0
  1  2  1  0  0  0  0
 21 22  2  0  0  0  0
 21 23  1  0  0  0  0
 19 20  1  0  0  0  0
 17 18  2  0  0  0  0
 17 19  1  0  0  0  0
 14 15  1  0  0  0  0
 14 16  1  0  0  0  0
 14 17  1  0  0  0  0
 11 12  1  0  0  0  0
 11 13  1  0  0  0  0
 11 14  1  0  0  0  0
  9 10  1  0  0  0  0
  9 11  1  0  0  0  0
  9 21  1  0  0  0  0
  7  8  1  0  0  0  0
  7  9  1  0  0  0  0
 25 26  1  0  0  0  0
 25 27  1  0  0  0  0
 25 28  1  0  0  0  0
 23 24  1  0  0  0  0
 23 25  1  0  0  0  0
M  END
$$$$
default_name
  -OEChem-01062215323D

 28 27  0     1  0  0  0  0  0999 V2000
   -3.2133   -3.5565    1.2809 H   0  0  0  0  0  0  0  0  0  0  0  0
   -3.1873   -2.5755    0.8089 C   0  0  0  0  0  0  0  0  0  0  0  0
   -3.8793   -1.9065    1.3169 H   0  0  0  0  0  0  0  0  0  0  0  0
   -3.4623   -2.6685   -0.2401 H   0  0  0  0  0  0  0  0  0  0  0  0
   -1.7863   -2.0195    0.9119 C   0  0  0  0  0  0  0  0  0  0  0  0
   -0.9073   -2.6615    1.4699 O   0  0  0  0  0  0  0  0  0  0  0  0
   -1.5803   -0.8195    0.3749 N   0  0  0  0  0  0  0  0  0  0  0  0
   -2.3603   -0.3345   -0.0451 H   0  0  0  0  0  0  0  0  0  0  0  0
   -0.2933   -0.1205    0.3719 C   0  0  1  0  0  0  0  0  0  0  0  0
    0.5067   -0.8619    0.3887 H   0  0  0  0  0  0  0  0  0  0  0  0
   -0.1697    0.6985   -0.9291 C   0  0  0  0  0  0  0  0  0  0  0  0
   -1.0485    1.3406   -1.0105 H   0  0  0  0  0  0  0  0  0  0  0  0
    0.7128    1.3372   -0.8699 H   0  0  0  0  0  0  0  0  0  0  0  0
   -0.0655   -0.1622   -2.2001 C   0  0  0  0  0  0  0  0  0  0  0  0
    0.8189   -0.7972   -2.1470 H   0  0  0  0  0  0  0  0  0  0  0  0
   -0.9515   -0.7909   -2.2801 H   0  0  0  0  0  0  0  0  0  0  0  0
    0.0305    0.6842   -3.4654 C   0  0  0  0  0  0  0  0  0  0  0  0
   -0.0939    1.8977   -3.5073 O   0  0  0  0  0  0  0  0  0  0  0  0
    0.2593    0.0024   -4.6031 O   0  0  0  0  0  0  0  0  0  0  0  0
    0.2785    0.6664   -5.2944 H   0  0  0  0  0  0  0  0  0  0  0  0
   -0.1584    0.7543    1.6285 C   0  0  0  0  0  0  0  0  0  0  0  0
    0.0030    1.9682    1.5187 O   0  0  0  0  0  0  0  0  0  0  0  0
   -0.2125    0.1377    2.8153 N   0  0  0  0  0  0  0  0  0  0  0  0
   -0.3700   -0.8589    2.8269 H   0  0  0  0  0  0  0  0  0  0  0  0
   -0.0793    0.8240    4.0988 C   0  0  0  0  0  0  0  0  0  0  0  0
   -0.8386    1.6038    4.1812 H   0  0  0  0  0  0  0  0  0  0  0  0
   -0.2006    0.1172    4.9209 H   0  0  0  0  0  0  0  0  0  0  0  0
    0.9054    1.2907    4.1667 H   0  0  0  0  0  0  0  0  0  0  0  0
  5  6  2  0  0  0  0
  5  7  1  0  0  0  0
  2  3  1  0  0  0  0
  2  4  1  0  0  0  0
  2  5  1  0  0  0  0
  1  2  1  0  0  0  0
 21 22  2  0  0  0  0
 21 23  1  0  0  0  0
 19 20  1  0  0  0  0
 17 18  2  0  0  0  0
 17 19  1  0  0  0  0
 14 15  1  0  0  0  0
 14 16  1  0  0  0  0
 14 17  1  0  0  0  0
 11 12  1  0  0  0  0
 11 13  1  0  0  0  0
 11 14  1  0  0  0  0
  9 10  1  0  0  0  0
  9 11  1  0  0  0  0
  9 21  1  0  0  0  0
  7  8  1  0  0  0  0
  7  9  1  0  0  0  0
 25 26  1  0  0  0  0
 25 27  1  0  0  0  0
 25 28  1  0  0  0  0
 23 24  1  0  0  0  0
 23 25  1  0  0  0  0
M  END
$$$$
default_name
  -OEChem-01062215323D

 28 27  0     1  0  0  0  0  0999 V2000
   -3.2133   -3.5565    1.2809 H   0  0  0  0  0  0  0  0  0  0  0  0
   -3.1873   -2.5755    0.8089 C   0  0  0  0  0  0  0  0  0  0  0  0
   -3.8793   -1.9065    1.3169 H   0  0  0  0  0  0  0  0  0  0  0  0
   -3.4623   -2.6685   -0.2401 H   0  0  0  0  0  0  0  0  0  0  0  0
   -1.7863   -2.0195    0.9119 C   0  0  0  0  0  0  0  0  0  0  0  0
   -0.9073   -2.6615    1.4699 O   0  0  0  0  0  0  0  0  0  0  0  0
   -1.5803   -0.8195    0.3749 N   0  0  0  0  0  0  0  0  0  0  0  0
   -2.3603   -0.3345   -0.0451 H   0  0  0  0  0  0  0  0  0  0  0  0
   -0.2933   -0.1205    0.3719 C   0  0  1  0  0  0  0  0  0  0  0  0
    0.5067   -0.8619    0.3887 H   0  0  0  0  0  0  0  0  0  0  0  0
   -0.1697    0.6985   -0.9291 C   0  0  0  0  0  0  0  0  0  0  0  0
   -1.0485    1.3406   -1.0105 H   0  0  0  0  0  0  0  0  0  0  0  0
    0.7128    1.3372   -0.8699 H   0  0  0  0  0  0  0  0  0  0  0  0
   -0.0655   -0.1622   -2.2001 C   0  0  0  0  0  0  0  0  0  0  0  0
    0.8189   -0.7972   -2.1470 H   0  0  0  0  0  0  0  0  0  0  0  0
   -0.9515   -0.7909   -2.2801 H   0  0  0  0  0  0  0  0  0  0  0  0
    0.0305    0.6842   -3.4654 C   0  0  0  0  0  0  0  0  0  0  0  0
   -0.0939    1.8977   -3.5073 O   0  0  0  0  0  0  0  0  0  0  0  0
    0.2593    0.0024   -4.6031 O   0  0  0  0  0  0  0  0  0  0  0  0
    0.2785    0.6664   -5.2944 H   0  0  0  0  0  0  0  0  0  0  0  0
   -0.1584    0.7543    1.6285 C   0  0  0  0  0  0  0  0  0  0  0  0
   -0.2737    1.9754    1.5434 O   0  0  0  0  0  0  0  0  0  0  0  0
    0.0964    0.1322    2.7860 N   0  0  0  0  0  0  0  0  0  0  0  0
    0.1552   -0.8751    2.7818 H   0  0  0  0  0  0  0  0  0  0  0  0
    0.2733    0.8223    4.0621 C   0  0  0  0  0  0  0  0  0  0  0  0
   -0.6117    1.4217    4.2837 H   0  0  0  0  0  0  0  0  0  0  0  0
    0.4276    0.1003    4.8652 H   0  0  0  0  0  0  0  0  0  0  0  0
    1.1369    1.4878    4.0046 H   0  0  0  0  0  0  0  0  0  0  0  0
  5  6  2  0  0  0  0
  5  7  1  0  0  0  0
  2  3  1  0  0  0  0
  2  4  1  0  0  0  0
  2  5  1  0  0  0  0
  1  2  1  0  0  0  0
 21 22  2  0  0  0  0
 21 23  1  0  0  0  0
 19 20  1  0  0  0  0
 17 18  2  0  0  0  0
 17 19  1  0  0  0  0
 14 15  1  0  0  0  0
 14 16  1  0  0  0  0
 14 17  1  0  0  0  0
 11 12  1  0  0  0  0
 11 13  1  0  0  0  0
 11 14  1  0  0  0  0
  9 10  1  0  0  0  0
  9 11  1  0  0  0  0
  9 21  1  0  0  0  0
  7  8  1  0  0  0  0
  7  9  1  0  0  0  0
 25 26  1  0  0  0  0
 25 27  1  0  0  0  0
 25 28  1  0  0  0  0
 23 24  1  0  0  0  0
 23 25  1  0  0  0  0
M  END
$$$$
default_name
  -OEChem-01062215323D

 28 27  0     1  0  0  0  0  0999 V2000
   -3.2133   -3.5565    1.2809 H   0  0  0  0  0  0  0  0  0  0  0  0
   -3.1873   -2.5755    0.8089 C   0  0  0  0  0  0  0  0  0  0  0  0
   -3.8793   -1.9065    1.3169 H   0  0  0  0  0  0  0  0  0  0  0  0
   -3.4623   -2.6685   -0.2401 H   0  0  0  0  0  0  0  0  0  0  0  0
   -1.7863   -2.0195    0.9119 C   0  0  0  0  0  0  0  0  0  0  0  0
   -0.9073   -2.6615    1.4699 O   0  0  0  0  0  0  0  0  0  0  0  0
   -1.5803   -0.8195    0.3749 N   0  0  0  0  0  0  0  0  0  0  0  0
   -2.3603   -0.3345   -0.0451 H   0  0  0  0  0  0  0  0  0  0  0  0
   -0.2933   -0.1205    0.3719 C   0  0  1  0  0  0  0  0  0  0  0  0
    0.5067   -0.8619    0.3887 H   0  0  0  0  0  0  0  0  0  0  0  0
   -0.1697    0.6985   -0.9291 C   0  0  0  0  0  0  0  0  0  0  0  0
   -1.0485    1.3406   -1.0105 H   0  0  0  0  0  0  0  0  0  0  0  0
    0.7128    1.3372   -0.8699 H   0  0  0  0  0  0  0  0  0  0  0  0
   -0.0655   -0.1622   -2.2001 C   0  0  0  0  0  0  0  0  0  0  0  0
    0.8189   -0.7972   -2.1470 H   0  0  0  0  0  0  0  0  0  0  0  0
   -0.9515   -0.7909   -2.2801 H   0  0  0  0  0  0  0  0  0  0  0  0
    0.0305    0.6842   -3.4654 C   0  0  0  0  0  0  0  0  0  0  0  0
   -0.0939    1.8977   -3.5073 O   0  0  0  0  0  0  0  0  0  0  0  0
    0.2593    0.0024   -4.6031 O   0  0  0  0  0  0  0  0  0  0  0  0
    0.2785    0.6664   -5.2944 H   0  0  0  0  0  0  0  0  0  0  0  0
   -0.1584    0.7543    1.6285 C   0  0  0  0  0  0  0  0  0  0  0  0
   -0.5389    1.9233    1.6081 O   0  0  0  0  0  0  0  0  0  0  0  0
    0.3917    0.1930    2.7120 N   0  0  0  0  0  0  0  0  0  0  0  0
    0.6593   -0.7786    2.6605 H   0  0  0  0  0  0  0  0  0  0  0  0
    0.6088    0.8962    3.9747 C   0  0  0  0  0  0  0  0  0  0  0  0
   -0.3389    1.2914    4.3451 H   0  0  0  0  0  0  0  0  0  0  0  0
    1.0297    0.2182    4.7185 H   0  0  0  0  0  0  0  0  0  0  0  0
    1.2949    1.7309    3.8184 H   0  0  0  0  0  0  0  0  0  0  0  0
  5  6  2  0  0  0  0
  5  7  1  0  0  0  0
  2  3  1  0  0  0  0
  2  4  1  0  0  0  0
  2  5  1  0  0  0  0
  1  2  1  0  0  0  0
 21 22  2  0  0  0  0
 21 23  1  0  0  0  0
 19 20  1  0  0  0  0
 17 18  2  0  0  0  0
 17 19  1  0  0  0  0
 14 15  1  0  0  0  0
 14 16  1  0  0  0  0
 14 17  1  0  0  0  0
 11 12  1  0  0  0  0
 11 13  1  0  0  0  0
 11 14  1  0  0  0  0
  9 10  1  0  0  0  0
  9 11  1  0  0  0  0
  9 21  1  0  0  0  0
  7  8  1  0  0  0  0
  7  9  1  0  0  0  0
 25 26  1  0  0  0  0
 25 27  1  0  0  0  0
 25 28  1  0  0  0  0
 23 24  1  0  0  0  0
 23 25  1  0  0  0  0
M  END
$$$$
default_name
  -OEChem-01062215323D

 28 27  0     1  0  0  0  0  0999 V2000
   -3.2133   -3.5565    1.2809 H   0  0  0  0  0  0  0  0  0  0  0  0
   -3.1873   -2.5755    0.8089 C   0  0  0  0  0  0  0  0  0  0  0  0
   -3.8793   -1.9065    1.3169 H   0  0  0  0  0  0  0  0  0  0  0  0
   -3.4623   -2.6685   -0.2401 H   0  0  0  0  0  0  0  0  0  0  0  0
   -1.7863   -2.0195    0.9119 C   0  0  0  0  0  0  0  0  0  0  0  0
   -0.9073   -2.6615    1.4699 O   0  0  0  0  0  0  0  0  0  0  0  0
   -1.5803   -0.8195    0.3749 N   0  0  0  0  0  0  0  0  0  0  0  0
   -2.3603   -0.3345   -0.0451 H   0  0  0  0  0  0  0  0  0  0  0  0
   -0.2933   -0.1205    0.3719 C   0  0  1  0  0  0  0  0  0  0  0  0
    0.5067   -0.8619    0.3887 H   0  0  0  0  0  0  0  0  0  0  0  0
   -0.1697    0.6985   -0.9291 C   0  0  0  0  0  0  0  0  0  0  0  0
   -1.0485    1.3406   -1.0105 H   0  0  0  0  0  0  0  0  0  0  0  0
    0.7128    1.3372   -0.8699 H   0  0  0  0  0  0  0  0  0  0  0  0
   -0.0655   -0.1622   -2.2001 C   0  0  0  0  0  0  0  0  0  0  0  0
    0.8189   -0.7972   -2.1470 H   0  0  0  0  0  0  0  0  0  0  0  0
   -0.9515   -0.7909   -2.2801 H   0  0  0  0  0  0  0  0  0  0  0  0
    0.0305    0.6842   -3.4654 C   0  0  0  0  0  0  0  0  0  0  0  0
   -0.0939    1.8977   -3.5073 O   0  0  0  0  0  0  0  0  0  0  0  0
    0.2593    0.0024   -4.6031 O   0  0  0  0  0  0  0  0  0  0  0  0
    0.2785    0.6664   -5.2944 H   0  0  0  0  0  0  0  0  0  0  0  0
   -0.1584    0.7543    1.6285 C   0  0  0  0  0  0  0  0  0  0  0  0
   -0.7745    1.8153    1.7086 O   0  0  0  0  0  0  0  0  0  0  0  0
    0.6531    0.3158    2.5984 N   0  0  0  0  0  0  0  0  0  0  0  0
    1.1079   -0.5759    2.4713 H   0  0  0  0  0  0  0  0  0  0  0  0
    0.9044    1.0405    3.8425 C   0  0  0  0  0  0  0  0  0  0  0  0
   -0.0387    1.2219    4.3612 H   0  0  0  0  0  0  0  0  0  0  0  0
    1.5647    0.4628    4.4909 H   0  0  0  0  0  0  0  0  0  0  0  0
    1.3687    2.0034    3.6209 H   0  0  0  0  0  0  0  0  0  0  0  0
  5  6  2  0  0  0  0
  5  7  1  0  0  0  0
  2  3  1  0  0  0  0
  2  4  1  0  0  0  0
  2  5  1  0  0  0  0
  1  2  1  0  0  0  0
 21 22  2  0  0  0  0
 21 23  1  0  0  0  0
 19 20  1  0  0  0  0
 17 18  2  0  0  0  0
 17 19  1  0  0  0  0
 14 15  1  0  0  0  0
 14 16  1  0  0  0  0
 14 17  1  0  0  0  0
 11 12  1  0  0  0  0
 11 13  1  0  0  0  0
 11 14  1  0  0  0  0
  9 10  1  0  0  0  0
  9 11  1  0  0  0  0
  9 21  1  0  0  0  0
  7  8  1  0  0  0  0
  7  9  1  0  0  0  0
 25 26  1  0  0  0  0
 25 27  1  0  0  0  0
 25 28  1  0  0  0  0
 23 24  1  0  0  0  0
 23 25  1  0  0  0  0
M  END
$$$$
default_name
  -OEChem-01062215323D

 28 27  0     1  0  0  0  0  0999 V2000
   -3.2133   -3.5565    1.2809 H   0  0  0  0  0  0  0  0  0  0  0  0
   -3.1873   -2.5755    0.8089 C   0  0  0  0  0  0  0  0  0  0  0  0
   -3.8793   -1.9065    1.3169 H   0  0  0  0  0  0  0  0  0  0  0  0
   -3.4623   -2.6685   -0.2401 H   0  0  0  0  0  0  0  0  0  0  0  0
   -1.7863   -2.0195    0.9119 C   0  0  0  0  0  0  0  0  0  0  0  0
   -0.9073   -2.6615    1.4699 O   0  0  0  0  0  0  0  0  0  0  0  0
   -1.5803   -0.8195    0.3749 N   0  0  0  0  0  0  0  0  0  0  0  0
   -2.3603   -0.3345   -0.0451 H   0  0  0  0  0  0  0  0  0  0  0  0
   -0.2933   -0.1205    0.3719 C   0  0  1  0  0  0  0  0  0  0  0  0
    0.5067   -0.8619    0.3887 H   0  0  0  0  0  0  0  0  0  0  0  0
   -0.1697    0.6985   -0.9291 C   0  0  0  0  0  0  0  0  0  0  0  0
   -1.0485    1.3406   -1.0105 H   0  0  0  0  0  0  0  0  0  0  0  0
    0.7128    1.3372   -0.8699 H   0  0  0  0  0  0  0  0  0  0  0  0
   -0.0655   -0.1622   -2.2001 C   0  0  0  0  0  0  0  0  0  0  0  0
    0.8189   -0.7972   -2.1470 H   0  0  0  0  0  0  0  0  0  0  0  0
   -0.9515   -0.7909   -2.2801 H   0  0  0  0  0  0  0  0  0  0  0  0
    0.0305    0.6842   -3.4654 C   0  0  0  0  0  0  0  0  0  0  0  0
   -0.0939    1.8977   -3.5073 O   0  0  0  0  0  0  0  0  0  0  0  0
    0.2593    0.0024   -4.6031 O   0  0  0  0  0  0  0  0  0  0  0  0
    0.2785    0.6664   -5.2944 H   0  0  0  0  0  0  0  0  0  0  0  0
   -0.1584    0.7543    1.6285 C   0  0  0  0  0  0  0  0  0  0  0  0
   -0.9644    1.6589    1.8378 O   0  0  0  0  0  0  0  0  0  0  0  0
    0.8630    0.4924    2.4530 N   0  0  0  0  0  0  0  0  0  0  0  0
    1.4705   -0.2809    2.2271 H   0  0  0  0  0  0  0  0  0  0  0  0
    1.1399    1.2454    3.6746 C   0  0  0  0  0  0  0  0  0  0  0  0
    0.2683    1.2179    4.3310 H   0  0  0  0  0  0  0  0  0  0  0  0
    1.9962    0.8175    4.1977 H   0  0  0  0  0  0  0  0  0  0  0  0
    1.3532    2.2867    3.4253 H   0  0  0  0  0  0  0  0  0  0  0  0
  5  6  2  0  0  0  0
  5  7  1  0  0  0  0
  2  3  1  0  0  0  0
  2  4  1  0  0  0  0
  2  5  1  0  0  0  0
  1  2  1  0  0  0  0
 21 22  2  0  0  0  0
 21 23  1  0  0  0  0
 19 20  1  0  0  0  0
 17 18  2  0  0  0  0
 17 19  1  0  0  0  0
 14 15  1  0  0  0  0
 14 16  1  0  0  0  0
 14 17  1  0  0  0  0
 11 12  1  0  0  0  0
 11 13  1  0  0  0  0
 11 14  1  0  0  0  0
  9 10  1  0  0  0  0
  9 11  1  0  0  0  0
  9 21  1  0  0  0  0
  7  8  1  0  0  0  0
  7  9  1  0  0  0  0
 25 26  1  0  0  0  0
 25 27  1  0  0  0  0
 25 28  1  0  0  0  0
 23 24  1  0  0  0  0
 23 25  1  0  0  0  0
M  END
$$$$
default_name
  -OEChem-01062215323D

 28 27  0     1  0  0  0  0  0999 V2000
   -3.2133   -3.5565    1.2809 H   0  0  0  0  0  0  0  0  0  0  0  0
   -3.1873   -2.5755    0.8089 C   0  0  0  0  0  0  0  0  0  0  0  0
   -3.8793   -1.9065    1.3169 H   0  0  0  0  0  0  0  0  0  0  0  0
   -3.4623   -2.6685   -0.2401 H   0  0  0  0  0  0  0  0  0  0  0  0
   -1.7863   -2.0195    0.9119 C   0  0  0  0  0  0  0  0  0  0  0  0
   -0.9073   -2.6615    1.4699 O   0  0  0  0  0  0  0  0  0  0  0  0
   -1.5803   -0.8195    0.3749 N   0  0  0  0  0  0  0  0  0  0  0  0
   -2.3603   -0.3345   -0.0451 H   0  0  0  0  0  0  0  0  0  0  0  0
   -0.2933   -0.1205    0.3719 C   0  0  1  0  0  0  0  0  0  0  0  0
    0.5067   -0.8619    0.3887 H   0  0  0  0  0  0  0  0  0  0  0  0
   -0.1697    0.6985   -0.9291 C   0  0  0  0  0  0  0  0  0  0  0  0
   -1.0485    1.3406   -1.0105 H   0  0  0  0  0  0  0  0  0  0  0  0
    0.7128    1.3372   -0.8699 H   0  0  0  0  0  0  0  0  0  0  0  0
   -0.0655   -0.1622   -2.2001 C   0  0  0  0  0  0  0  0  0  0  0  0
    0.8189   -0.7972   -2.1470 H   0  0  0  0  0  0  0  0  0  0  0  0
   -0.9515   -0.7909   -2.2801 H   0  0  0  0  0  0  0  0  0  0  0  0
    0.0305    0.6842   -3.4654 C   0  0  0  0  0  0  0  0  0  0  0  0
   -0.0939    1.8977   -3.5073 O   0  0  0  0  0  0  0  0  0  0  0  0
    0.2593    0.0024   -4.6031 O   0  0  0  0  0  0  0  0  0  0  0  0
    0.2785    0.6664   -5.2944 H   0  0  0  0  0  0  0  0  0  0  0  0
   -0.1584    0.7543    1.6285 C   0  0  0  0  0  0  0  0  0  0  0  0
   -1.0957    1.4647    1.9871 O   0  0  0  0  0  0  0  0  0  0  0  0
    1.0069    0.7106    2.2857 N   0  0  0  0  0  0  0  0  0  0  0  0
    1.7223    0.0863    1.9444 H   0  0  0  0  0  0  0  0  0  0  0  0
    1.2993    1.4970    3.4824 C   0  0  0  0  0  0  0  0  0  0  0  0
    0.5612    1.2797    4.2566 H   0  0  0  0  0  0  0  0  0  0  0  0
    2.2948    1.2580    3.8590 H   0  0  0  0  0  0  0  0  0  0  0  0
    1.2494    2.5615    3.2452 H   0  0  0  0  0  0  0  0  0  0  0  0
  5  6  2  0  0  0  0
  5  7  1  0  0  0  0
  2  3  1  0  0  0  0
  2  4  1  0  0  0  0
  2  5  1  0  0  0  0
  1  2  1  0  0  0  0
 21 22  2  0  0  0  0
 21 23  1  0  0  0  0
 19 20  1  0  0  0  0
 17 18  2  0  0  0  0
 17 19  1  0  0  0  0
 14 15  1  0  0  0  0
 14 16  1  0  0  0  0
 14 17  1  0  0  0  0
 11 12  1  0  0  0  0
 11 13  1  0  0  0  0
 11 14  1  0  0  0  0
  9 10  1  0  0  0  0
  9 11  1  0  0  0  0
  9 21  1  0  0  0  0
  7  8  1  0  0  0  0
  7  9  1  0  0  0  0
 25 26  1  0  0  0  0
 25 27  1  0  0  0  0
 25 28  1  0  0  0  0
 23 24  1  0  0  0  0
 23 25  1  0  0  0  0
M  END
$$$$
default_name
  -OEChem-01062215323D

 28 27  0     1  0  0  0  0  0999 V2000
   -3.2133   -3.5565    1.2809 H   0  0  0  0  0  0  0  0  0  0  0  0
   -3.1873   -2.5755    0.8089 C   0  0  0  0  0  0  0  0  0  0  0  0
   -3.8793   -1.9065    1.3169 H   0  0  0  0  0  0  0  0  0  0  0  0
   -3.4623   -2.6685   -0.2401 H   0  0  0  0  0  0  0  0  0  0  0  0
   -1.7863   -2.0195    0.9119 C   0  0  0  0  0  0  0  0  0  0  0  0
   -0.9073   -2.6615    1.4699 O   0  0  0  0  0  0  0  0  0  0  0  0
   -1.5803   -0.8195    0.3749 N   0  0  0  0  0  0  0  0  0  0  0  0
   -2.3603   -0.3345   -0.0451 H   0  0  0  0  0  0  0  0  0  0  0  0
   -0.2933   -0.1205    0.3719 C   0  0  1  0  0  0  0  0  0  0  0  0
    0.5067   -0.8619    0.3887 H   0  0  0  0  0  0  0  0  0  0  0  0
   -0.1697    0.6985   -0.9291 C   0  0  0  0  0  0  0  0  0  0  0  0
   -1.0485    1.3406   -1.0105 H   0  0  0  0  0  0  0  0  0  0  0  0
    0.7128    1.3372   -0.8699 H   0  0  0  0  0  0  0  0  0  0  0  0
   -0.0655   -0.1622   -2.2001 C   0  0  0  0  0  0  0  0  0  0  0  0
    0.8189   -0.7972   -2.1470 H   0  0  0  0  0  0  0  0  0  0  0  0
   -0.9515   -0.7909   -2.2801 H   0  0  0  0  0  0  0  0  0  0  0  0
    0.0305    0.6842   -3.4654 C   0  0  0  0  0  0  0  0  0  0  0  0
   -0.0939    1.8977   -3.5073 O   0  0  0  0  0  0  0  0  0  0  0  0
    0.2593    0.0024   -4.6031 O   0  0  0  0  0  0  0  0  0  0  0  0
    0.2785    0.6664   -5.2944 H   0  0  0  0  0  0  0  0  0  0  0  0
   -0.1584    0.7543    1.6285 C   0  0  0  0  0  0  0  0  0  0  0  0
   -1.1594    1.2460    2.1462 O   0  0  0  0  0  0  0  0  0  0  0  0
    1.0750    0.9557    2.1078 N   0  0  0  0  0  0  0  0  0  0  0  0
    1.8463    0.5007    1.6427 H   0  0  0  0  0  0  0  0  0  0  0  0
    1.3717    1.7781    3.2789 C   0  0  0  0  0  0  0  0  0  0  0  0
    0.8201    1.4031    4.1429 H   0  0  0  0  0  0  0  0  0  0  0  0
    2.4401    1.7544    3.4979 H   0  0  0  0  0  0  0  0  0  0  0  0
    1.0646    2.8091    3.0927 H   0  0  0  0  0  0  0  0  0  0  0  0
  5  6  2  0  0  0  0
  5  7  1  0  0  0  0
  2  3  1  0  0  0  0
  2  4  1  0  0  0  0
  2  5  1  0  0  0  0
  1  2  1  0  0  0  0
 21 22  2  0  0  0  0
 21 23  1  0  0  0  0
 19 20  1  0  0  0  0
 17 18  2  0  0  0  0
 17 19  1  0  0  0  0
 14 15  1  0  0  0  0
 14 16  1  0  0  0  0
 14 17  1  0  0  0  0
 11 12  1  0  0  0  0
 11 13  1  0  0  0  0
 11 14  1  0  0  0  0
  9 10  1  0  0  0  0
  9 11  1  0  0  0  0
  9 21  1  0  0  0  0
  7  8  1  0  0  0  0
  7  9  1  0  0  0  0
 25 26  1  0  0  0  0
 25 27  1  0  0  0  0
 25 28  1  0  0  0  0
 23 24  1  0  0  0  0
 23 25  1  0  0  0  0
M  END
$$$$
default_name
  -OEChem-01062215323D

 28 27  0     1  0  0  0  0  0999 V2000
   -3.2133   -3.5565    1.2809 H   0  0  0  0  0  0  0  0  0  0  0  0
   -3.1873   -2.5755    0.8089 C   0  0  0  0  0  0  0  0  0  0  0  0
   -3.8793   -1.9065    1.3169 H   0  0  0  0  0  0  0  0  0  0  0  0
   -3.4623   -2.6685   -0.2401 H   0  0  0  0  0  0  0  0  0  0  0  0
   -1.7863   -2.0195    0.9119 C   0  0  0  0  0  0  0  0  0  0  0  0
   -0.9073   -2.6615    1.4699 O   0  0  0  0  0  0  0  0  0  0  0  0
   -1.5803   -0.8195    0.3749 N   0  0  0  0  0  0  0  0  0  0  0  0
   -2.3603   -0.3345   -0.0451 H   0  0  0  0  0  0  0  0  0  0  0  0
   -0.2933   -0.1205    0.3719 C   0  0  1  0  0  0  0  0  0  0  0  0
    0.5067   -0.8619    0.3887 H   0  0  0  0  0  0  0  0  0  0  0  0
   -0.1697    0.6985   -0.9291 C   0  0  0  0  0  0  0  0  0  0  0  0
   -1.0485    1.3406   -1.0105 H   0  0  0  0  0  0  0  0  0  0  0  0
    0.7128    1.3372   -0.8699 H   0  0  0  0  0  0  0  0  0  0  0  0
   -0.0655   -0.1622   -2.2001 C   0  0  0  0  0  0  0  0  0  0  0  0
    0.8189   -0.7972   -2.1470 H   0  0  0  0  0  0  0  0  0  0  0  0
   -0.9515   -0.7909   -2.2801 H   0  0  0  0  0  0  0  0  0  0  0  0
    0.0305    0.6842   -3.4654 C   0  0  0  0  0  0  0  0  0  0  0  0
   -0.0939    1.8977   -3.5073 O   0  0  0  0  0  0  0  0  0  0  0  0
    0.2593    0.0024   -4.6031 O   0  0  0  0  0  0  0  0  0  0  0  0
    0.2785    0.6664   -5.2944 H   0  0  0  0  0  0  0  0  0  0  0  0
   -0.1584    0.7543    1.6285 C   0  0  0  0  0  0  0  0  0  0  0  0
   -1.1513    1.0176    2.3043 O   0  0  0  0  0  0  0  0  0  0  0  0
    1.0628    1.2109    1.9314 N   0  0  0  0  0  0  0  0  0  0  0  0
    1.8338    0.9340    1.3423 H   0  0  0  0  0  0  0  0  0  0  0  0
    1.3522    2.0696    3.0781 C   0  0  0  0  0  0  0  0  0  0  0  0
    1.0273    1.5797    3.9978 H   0  0  0  0  0  0  0  0  0  0  0  0
    2.4223    2.2728    3.1389 H   0  0  0  0  0  0  0  0  0  0  0  0
    0.8111    3.0126    2.9782 H   0  0  0  0  0  0  0  0  0  0  0  0
  5  6  2  0  0  0  0
  5  7  1  0  0  0  0
  2  3  1  0  0  0  0
  2  4  1  0  0  0  0
  2  5  1  0  0  0  0
  1  2  1  0  0  0  0
 21 22  2  0  0  0  0
 21 23  1  0  0  0  0
 19 20  1  0  0  0  0
 17 18  2  0  0  0  0
 17 19  1  0  0  0  0
 14 15  1  0  0  0  0
 14 16  1  0  0  0  0
 14 17  1  0  0  0  0
 11 12  1  0  0  0  0
 11 13  1  0  0  0  0
 11 14  1  0  0  0  0
  9 10  1  0  0  0  0
  9 11  1  0  0  0  0
  9 21  1  0  0  0  0
  7  8  1  0  0  0  0
  7  9  1  0  0  0  0
 25 26  1  0  0  0  0
 25 27  1  0  0  0  0
 25 28  1  0  0  0  0
 23 24  1  0  0  0  0
 23 25  1  0  0  0  0
M  END
$$$$
default_name
  -OEChem-01062215323D

 28 27  0     1  0  0  0  0  0999 V2000
   -3.2133   -3.5565    1.2809 H   0  0  0  0  0  0  0  0  0  0  0  0
   -3.1873   -2.5755    0.8089 C   0  0  0  0  0  0  0  0  0  0  0  0
   -3.8793   -1.9065    1.3169 H   0  0  0  0  0  0  0  0  0  0  0  0
   -3.4623   -2.6685   -0.2401 H   0  0  0  0  0  0  0  0  0  0  0  0
   -1.7863   -2.0195    0.9119 C   0  0  0  0  0  0  0  0  0  0  0  0
   -0.9073   -2.6615    1.4699 O   0  0  0  0  0  0  0  0  0  0  0  0
   -1.5803   -0.8195    0.3749 N   0  0  0  0  0  0  0  0  0  0  0  0
   -2.3603   -0.3345   -0.0451 H   0  0  0  0  0  0  0  0  0  0  0  0
   -0.2933   -0.1205    0.3719 C   0  0  1  0  0  0  0  0  0  0  0  0
    0.4916   -0.8352    0.1207 H   0  0  0  0  0  0  0  0  0  0  0  0
   -0.3191    0.9746   -0.7139 C   0  0  0  0  0  0  0  0  0  0  0  0
   -1.1916    1.6062   -0.5378 H   0  0  0  0  0  0  0  0  0  0  0  0
    0.5733    1.5952   -0.6204 H   0  0  0  0  0  0  0  0  0  0  0  0
   -0.3854    0.4271   -2.1501 C   0  0  0  0  0  0  0  0  0  0  0  0
    0.4893   -0.1911   -2.3525 H   0  0  0  0  0  0  0  0  0  0  0  0
   -1.2838   -0.1790   -2.2609 H   0  0  0  0  0  0  0  0  0  0  0  0
   -0.4339    1.5404   -3.1916 C   0  0  0  0  0  0  0  0  0  0  0  0
   -0.5445    2.7298   -2.9408 O   0  0  0  0  0  0  0  0  0  0  0  0
   -0.3574    1.1384   -4.4739 O   0  0  0  0  0  0  0  0  0  0  0  0
   -0.4139    1.9425   -4.9930 H   0  0  0  0  0  0  0  0  0  0  0  0
    0.0086    0.4473    1.7680 C   0  0  0  0  0  0  0  0  0  0  0  0
   -0.7955    0.2875    2.6842 O   0  0  0  0  0  0  0  0  0  0  0  0
    1.1571    1.1169    1.9240 N   0  0  0  0  0  0  0  0  0  0  0  0
    1.7778    1.1878    1.1317 H   0  0  0  0  0  0  0  0  0  0  0  0
    1.5781    1.7340    3.1801 C   0  0  0  0  0  0  0  0  0  0  0  0
    1.6129    0.9801    3.9687 H   0  0  0  0  0  0  0  0  0  0  0  0
    2.5663    2.1828    3.0693 H   0  0  0  0  0  0  0  0  0  0  0  0
    0.8621    2.5056    3.4699 H   0  0  0  0  0  0  0  0  0  0  0  0
  5  6  2  0  0  0  0
  5  7  1  0  0  0  0
  2  3  1  0  0  0  0
  2  4  1  0  0  0  0
  2  5  1  0  0  0  0
  1  2  1  0  0  0  0
 21 22  2  0  0  0  0
 21 23  1  0  0  0  0
 19 20  1  0  0  0  0
 17 18  2  0  0  0  0
 17 19  1  0  0  0  0
 14 15  1  0  0  0  0
 14 16  1  0  0  0  0
 14 17  1  0  0  0  0
 11 12  1  0  0  0  0
 11 13  1  0  0  0  0
 11 14  1  0  0  0  0
  9 10  1  0  0  0  0
  9 11  1  0  0  0  0
  9 21  1  0  0  0  0
  7  8  1  0  0  0  0
  7  9  1  0  0  0  0
 25 26  1  0  0  0  0
 25 27  1  0  0  0  0
 25 28  1  0  0  0  0
 23 24  1  0  0  0  0
 23 25  1  0  0  0  0
M  END
$$$$
default_name
  -OEChem-01062215323D

 28 27  0     1  0  0  0  0  0999 V2000
   -3.2133   -3.5565    1.2809 H   0  0  0  0  0  0  0  0  0  0  0  0
   -3.1873   -2.5755    0.8089 C   0  0  0  0  0  0  0  0  0  0  0  0
   -3.8793   -1.9065    1.3169 H   0  0  0  0  0  0  0  0  0  0  0  0
   -3.4623   -2.6685   -0.2401 H   0  0  0  0  0  0  0  0  0  0  0  0
   -1.7863   -2.0195    0.9119 C   0  0  0  0  0  0  0  0  0  0  0  0
   -0.9073   -2.6615    1.4699 O   0  0  0  0  0  0  0  0  0  0  0  0
   -1.5803   -0.8195    0.3749 N   0  0  0  0  0  0  0  0  0  0  0  0
   -2.3603   -0.3345   -0.0451 H   0  0  0  0  0  0  0  0  0  0  0  0
   -0.2933   -0.1205    0.3719 C   0  0  1  0  0  0  0  0  0  0  0  0
    0.4916   -0.8352    0.1207 H   0  0  0  0  0  0  0  0  0  0  0  0
   -0.3191    0.9746   -0.7139 C   0  0  0  0  0  0  0  0  0  0  0  0
   -1.1916    1.6062   -0.5378 H   0  0  0  0  0  0  0  0  0  0  0  0
    0.5733    1.5952   -0.6204 H   0  0  0  0  0  0  0  0  0  0  0  0
   -0.3854    0.4271   -2.1501 C   0  0  0  0  0  0  0  0  0  0  0  0
    0.4893   -0.1911   -2.3525 H   0  0  0  0  0  0  0  0  0  0  0  0
   -1.2838   -0.1790   -2.2609 H   0  0  0  0  0  0  0  0  0  0  0  0
   -0.4339    1.5404   -3.1916 C   0  0  0  0  0  0  0  0  0  0  0  0
   -0.5445    2.7298   -2.9408 O   0  0  0  0  0  0  0  0  0  0  0  0
   -0.3574    1.1384   -4.4739 O   0  0  0  0  0  0  0  0  0  0  0  0
   -0.4139    1.9425   -4.9930 H   0  0  0  0  0  0  0  0  0  0  0  0
    0.0086    0.4473    1.7680 C   0  0  0  0  0  0  0  0  0  0  0  0
   -0.6389    0.0650    2.7408 O   0  0  0  0  0  0  0  0  0  0  0  0
    0.9795    1.3638    1.8620 N   0  0  0  0  0  0  0  0  0  0  0  0
    1.4829    1.6113    1.0232 H   0  0  0  0  0  0  0  0  0  0  0  0
    1.3710    2.0133    3.1113 C   0  0  0  0  0  0  0  0  0  0  0  0
    1.6602    1.2588    3.8451 H   0  0  0  0  0  0  0  0  0  0  0  0
    2.2111    2.6880    2.9407 H   0  0  0  0  0  0  0  0  0  0  0  0
    0.5284    2.5807    3.5115 H   0  0  0  0  0  0  0  0  0  0  0  0
  5  6  2  0  0  0  0
  5  7  1  0  0  0  0
  2  3  1  0  0  0  0
  2  4  1  0  0  0  0
  2  5  1  0  0  0  0
  1  2  1  0  0  0  0
 21 22  2  0  0  0  0
 21 23  1  0  0  0  0
 19 20  1  0  0  0  0
 17 18  2  0  0  0  0
 17 19  1  0  0  0  0
 14 15  1  0  0  0  0
 14 16  1  0  0  0  0
 14 17  1  0  0  0  0
 11 12  1  0  0  0  0
 11 13  1  0  0  0  0
 11 14  1  0  0  0  0
  9 10  1  0  0  0  0
  9 11  1  0  0  0  0
  9 21  1  0  0  0  0
  7  8  1  0  0  0  0
  7  9  1  0  0  0  0
 25 26  1  0  0  0  0
 25 27  1  0  0  0  0
 25 28  1  0  0  0  0
 23 24  1  0  0  0  0
 23 25  1  0  0  0  0
M  END
$$$$
default_name
  -OEChem-01062215323D

 28 27  0     1  0  0  0  0  0999 V2000
   -3.2133   -3.5565    1.2809 H   0  0  0  0  0  0  0  0  0  0  0  0
   -3.1873   -2.5755    0.8089 C   0  0  0  0  0  0  0  0  0  0  0  0
   -3.8793   -1.9065    1.3169 H   0  0  0  0  0  0  0  0  0  0  0  0
   -3.4623   -2.6685   -0.2401 H   0  0  0  0  0  0  0  0  0  0  0  0
   -1.7863   -2.0195    0.9119 C   0  0  0  0  0  0  0  0  0  0  0  0
   -0.9073   -2.6615    1.4699 O   0  0  0  0  0  0  0  0  0  0  0  0
   -1.5803   -0.8195    0.3749 N   0  0  0  0  0  0  0  0  0  0  0  0
   -2.3603   -0.3345   -0.0451 H   0  0  0  0  0  0  0  0  0  0  0  0
   -0.2933   -0.1205    0.3719 C   0  0  1  0  0  0  0  0  0  0  0  0
    0.4916   -0.8352    0.1207 H   0  0  0  0  0  0  0  0  0  0  0  0
   -0.3191    0.9746   -0.7139 C   0  0  0  0  0  0  0  0  0  0  0  0
   -1.1916    1.6062   -0.5378 H   0  0  0  0  0  0  0  0  0  0  0  0
    0.5733    1.5952   -0.6204 H   0  0  0  0  0  0  0  0  0  0  0  0
   -0.3854    0.4271   -2.1501 C   0  0  0  0  0  0  0  0  0  0  0  0
    0.4893   -0.1911   -2.3525 H   0  0  0  0  0  0  0  0  0  0  0  0
   -1.2838   -0.1790   -2.2609 H   0  0  0  0  0  0  0  0  0  0  0  0
   -0.4339    1.5404   -3.1916 C   0  0  0  0  0  0  0  0  0  0  0  0
   -0.5445    2.7298   -2.9408 O   0  0  0  0  0  0  0  0  0  0  0  0
   -0.3574    1.1384   -4.4739 O   0  0  0  0  0  0  0  0  0  0  0  0
   -0.4139    1.9425   -4.9930 H   0  0  0  0  0  0  0  0  0  0  0  0
    0.0086    0.4473    1.7680 C   0  0  0  0  0  0  0  0  0  0  0  0
   -0.4298   -0.1159    2.7692 O   0  0  0  0  0  0  0  0  0  0  0  0
    0.7441    1.5638    1.8316 N   0  0  0  0  0  0  0  0  0  0  0  0
    1.0881    1.9567    0.9682 H   0  0  0  0  0  0  0  0  0  0  0  0
    1.0987    2.2380    3.0789 C   0  0  0  0  0  0  0  0  0  0  0  0
    1.6285    1.5454    3.7354 H   0  0  0  0  0  0  0  0  0  0  0  0
    1.7370    3.0990    2.8761 H   0  0  0  0  0  0  0  0  0  0  0  0
    0.1924    2.5727    3.5874 H   0  0  0  0  0  0  0  0  0  0  0  0
  5  6  2  0  0  0  0
  5  7  1  0  0  0  0
  2  3  1  0  0  0  0
  2  4  1  0  0  0  0
  2  5  1  0  0  0  0
  1  2  1  0  0  0  0
 21 22  2  0  0  0  0
 21 23  1  0  0  0  0
 19 20  1  0  0  0  0
 17 18  2  0  0  0  0
 17 19  1  0  0  0  0
 14 15  1  0  0  0  0
 14 16  1  0  0  0  0
 14 17  1  0  0  0  0
 11 12  1  0  0  0  0
 11 13  1  0  0  0  0
 11 14  1  0  0  0  0
  9 10  1  0  0  0  0
  9 11  1  0  0  0  0
  9 21  1  0  0  0  0
  7  8  1  0  0  0  0
  7  9  1  0  0  0  0
 25 26  1  0  0  0  0
 25 27  1  0  0  0  0
 25 28  1  0  0  0  0
 23 24  1  0  0  0  0
 23 25  1  0  0  0  0
M  END
$$$$
default_name
  -OEChem-01062215323D

 28 27  0     1  0  0  0  0  0999 V2000
   -3.2133   -3.5565    1.2809 H   0  0  0  0  0  0  0  0  0  0  0  0
   -3.1873   -2.5755    0.8089 C   0  0  0  0  0  0  0  0  0  0  0  0
   -3.8793   -1.9065    1.3169 H   0  0  0  0  0  0  0  0  0  0  0  0
   -3.4623   -2.6685   -0.2401 H   0  0  0  0  0  0  0  0  0  0  0  0
   -1.7863   -2.0195    0.9119 C   0  0  0  0  0  0  0  0  0  0  0  0
   -0.9073   -2.6615    1.4699 O   0  0  0  0  0  0  0  0  0  0  0  0
   -1.5803   -0.8195    0.3749 N   0  0  0  0  0  0  0  0  0  0  0  0
   -2.3603   -0.3345   -0.0451 H   0  0  0  0  0  0  0  0  0  0  0  0
   -0.2933   -0.1205    0.3719 C   0  0  1  0  0  0  0  0  0  0  0  0
    0.4916   -0.8352    0.1207 H   0  0  0  0  0  0  0  0  0  0  0  0
   -0.3191    0.9746   -0.7139 C   0  0  0  0  0  0  0  0  0  0  0  0
   -1.1916    1.6062   -0.5378 H   0  0  0  0  0  0  0  0  0  0  0  0
    0.5733    1.5952   -0.6204 H   0  0  0  0  0  0  0  0  0  0  0  0
   -0.3854    0.4271   -2.1501 C   0  0  0  0  0  0  0  0  0  0  0  0
    0.4893   -0.1911   -2.3525 H   0  0  0  0  0  0  0  0  0  0  0  0
   -1.2838   -0.1790   -2.2609 H   0  0  0  0  0  0  0  0  0  0  0  0
   -0.4339    1.5404   -3.1916 C   0  0  0  0  0  0  0  0  0  0  0  0
   -0.5445    2.7298   -2.9408 O   0  0  0  0  0  0  0  0  0  0  0  0
   -0.3574    1.1384   -4.4739 O   0  0  0  0  0  0  0  0  0  0  0  0
   -0.4139    1.9425   -4.9930 H   0  0  0  0  0  0  0  0  0  0  0  0
    0.0086    0.4473    1.7680 C   0  0  0  0  0  0  0  0  0  0  0  0
   -0.1827   -0.2429    2.7674 O   0  0  0  0  0  0  0  0  0  0  0  0
    0.4668    1.7031    1.8349 N   0  0  0  0  0  0  0  0  0  0  0  0
    0.6204    2.2002    0.9703 H   0  0  0  0  0  0  0  0  0  0  0  0
    0.7797    2.3925    3.0850 C   0  0  0  0  0  0  0  0  0  0  0  0
    1.5200    1.8203    3.6471 H   0  0  0  0  0  0  0  0  0  0  0  0
    1.1762    3.3879    2.8799 H   0  0  0  0  0  0  0  0  0  0  0  0
   -0.1230    2.4821    3.6925 H   0  0  0  0  0  0  0  0  0  0  0  0
  5  6  2  0  0  0  0
  5  7  1  0  0  0  0
  2  3  1  0  0  0  0
  2  4  1  0  0  0  0
  2  5  1  0  0  0  0
  1  2  1  0  0  0  0
 21 22  2  0  0  0  0
 21 23  1  0  0  0  0
 19 20  1  0  0  0  0
 17 18  2  0  0  0  0
 17 19  1  0  0  0  0
 14 15  1  0  0  0  0
 14 16  1  0  0  0  0
 14 17  1  0  0  0  0
 11 12  1  0  0  0  0
 11 13  1  0  0  0  0
 11 14  1  0  0  0  0
  9 10  1  0  0  0  0
  9 11  1  0  0  0  0
  9 21  1  0  0  0  0
  7  8  1  0  0  0  0
  7  9  1  0  0  0  0
 25 26  1  0  0  0  0
 25 27  1  0  0  0  0
 25 28  1  0  0  0  0
 23 24  1  0  0  0  0
 23 25  1  0  0  0  0
M  END
$$$$
default_name
  -OEChem-01062215323D

 28 27  0     1  0  0  0  0  0999 V2000
   -3.2133   -3.5565    1.2809 H   0  0  0  0  0  0  0  0  0  0  0  0
   -3.1873   -2.5755    0.8089 C   0  0  0  0  0  0  0  0  0  0  0  0
   -3.8793   -1.9065    1.3169 H   0  0  0  0  0  0  0  0  0  0  0  0
   -3.4623   -2.6685   -0.2401 H   0  0  0  0  0  0  0  0  0  0  0  0
   -1.7863   -2.0195    0.9119 C   0  0  0  0  0  0  0  0  0  0  0  0
   -0.9073   -2.6615    1.4699 O   0  0  0  0  0  0  0  0  0  0  0  0
   -1.5803   -0.8195    0.3749 N   0  0  0  0  0  0  0  0  0  0  0  0
   -2.3603   -0.3345   -0.0451 H   0  0  0  0  0  0  0  0  0  0  0  0
   -0.2933   -0.1205    0.3719 C   0  0  1  0  0  0  0  0  0  0  0  0
    0.4916   -0.8352    0.1207 H   0  0  0  0  0  0  0  0  0  0  0  0
   -0.3191    0.9746   -0.7139 C   0  0  0  0  0  0  0  0  0  0  0  0
   -1.1916    1.6062   -0.5378 H   0  0  0  0  0  0  0  0  0  0  0  0
    0.5733    1.5952   -0.6204 H   0  0  0  0  0  0  0  0  0  0  0  0
   -0.3854    0.4271   -2.1501 C   0  0  0  0  0  0  0  0  0  0  0  0
    0.4893   -0.1911   -2.3525 H   0  0  0  0  0  0  0  0  0  0  0  0
   -1.2838   -0.1790   -2.2609 H   0  0  0  0  0  0  0  0  0  0  0  0
   -0.4339    1.5404   -3.1916 C   0  0  0  0  0  0  0  0  0  0  0  0
   -0.5445    2.7298   -2.9408 O   0  0  0  0  0  0  0  0  0  0  0  0
   -0.3574    1.1384   -4.4739 O   0  0  0  0  0  0  0  0  0  0  0  0
   -0.4139    1.9425   -4.9930 H   0  0  0  0  0  0  0  0  0  0  0  0
    0.0086    0.4473    1.7680 C   0  0  0  0  0  0  0  0  0  0  0  0
    0.0858   -0.3074    2.7356 O   0  0  0  0  0  0  0  0  0  0  0  0
    0.1664    1.7724    1.8717 N   0  0  0  0  0  0  0  0  0  0  0  0
    0.1115    2.3254    1.0295 H   0  0  0  0  0  0  0  0  0  0  0  0
    0.4359    2.4666    3.1293 C   0  0  0  0  0  0  0  0  0  0  0  0
    1.3422    2.0649    3.5861 H   0  0  0  0  0  0  0  0  0  0  0  0
    0.5670    3.5349    2.9519 H   0  0  0  0  0  0  0  0  0  0  0  0
   -0.3963    2.3151    3.8195 H   0  0  0  0  0  0  0  0  0  0  0  0
  5  6  2  0  0  0  0
  5  7  1  0  0  0  0
  2  3  1  0  0  0  0
  2  4  1  0  0  0  0
  2  5  1  0  0  0  0
  1  2  1  0  0  0  0
 21 22  2  0  0  0  0
 21 23  1  0  0  0  0
 19 20  1  0  0  0  0
 17 18  2  0  0  0  0
 17 19  1  0  0  0  0
 14 15  1  0  0  0  0
 14 16  1  0  0  0  0
 14 17  1  0  0  0  0
 11 12  1  0  0  0  0
 11 13  1  0  0  0  0
 11 14  1  0  0  0  0
  9 10  1  0  0  0  0
  9 11  1  0  0  0  0
  9 21  1  0  0  0  0
  7  8  1  0  0  0  0
  7  9  1  0  0  0  0
 25 26  1  0  0  0  0
 25 27  1  0  0  0  0
 25 28  1  0  0  0  0
 23 24  1  0  0  0  0
 23 25  1  0  0  0  0
M  END
$$$$
default_name
  -OEChem-01062215323D

 28 27  0     1  0  0  0  0  0999 V2000
   -3.2133   -3.5565    1.2809 H   0  0  0  0  0  0  0  0  0  0  0  0
   -3.1873   -2.5755    0.8089 C   0  0  0  0  0  0  0  0  0  0  0  0
   -3.8793   -1.9065    1.3169 H   0  0  0  0  0  0  0  0  0  0  0  0
   -3.4623   -2.6685   -0.2401 H   0  0  0  0  0  0  0  0  0  0  0  0
   -1.7863   -2.0195    0.9119 C   0  0  0  0  0  0  0  0  0  0  0  0
   -0.9073   -2.6615    1.4699 O   0  0  0  0  0  0  0  0  0  0  0  0
   -1.5803   -0.8195    0.3749 N   0  0  0  0  0  0  0  0  0  0  0  0
   -2.3603   -0.3345   -0.0451 H   0  0  0  0  0  0  0  0  0  0  0  0
   -0.2933   -0.1205    0.3719 C   0  0  1  0  0  0  0  0  0  0  0  0
    0.4916   -0.8352    0.1207 H   0  0  0  0  0  0  0  0  0  0  0  0
   -0.3191    0.9746   -0.7139 C   0  0  0  0  0  0  0  0  0  0  0  0
   -1.1916    1.6062   -0.5378 H   0  0  0  0  0  0  0  0  0  0  0  0
    0.5733    1.5952   -0.6204 H   0  0  0  0  0  0  0  0  0  0  0  0
   -0.3854    0.4271   -2.1501 C   0  0  0  0  0  0  0  0  0  0  0  0
    0.4893   -0.1911   -2.3525 H   0  0  0  0  0  0  0  0  0  0  0  0
   -1.2838   -0.1790   -2.2609 H   0  0  0  0  0  0  0  0  0  0  0  0
   -0.4339    1.5404   -3.1916 C   0  0  0  0  0  0  0  0  0  0  0  0
   -0.5445    2.7298   -2.9408 O   0  0  0  0  0  0  0  0  0  0  0  0
   -0.3574    1.1384   -4.4739 O   0  0  0  0  0  0  0  0  0  0  0  0
   -0.4139    1.9425   -4.9930 H   0  0  0  0  0  0  0  0  0  0  0  0
    0.0086    0.4473    1.7680 C   0  0  0  0  0  0  0  0  0  0  0  0
    0.3572   -0.3050    2.6759 O   0  0  0  0  0  0  0  0  0  0  0  0
   -0.1364    1.7668    1.9395 N   0  0  0  0  0  0  0  0  0  0  0  0
   -0.4039    2.3236    1.1416 H   0  0  0  0  0  0  0  0  0  0  0  0
    0.0906    2.4550    3.2086 C   0  0  0  0  0  0  0  0  0  0  0  0
    1.1071    2.2625    3.5566 H   0  0  0  0  0  0  0  0  0  0  0  0
   -0.0491    3.5301    3.0871 H   0  0  0  0  0  0  0  0  0  0  0  0
   -0.6090    2.0831    3.9599 H   0  0  0  0  0  0  0  0  0  0  0  0
  5  6  2  0  0  0  0
  5  7  1  0  0  0  0
  2  3  1  0  0  0  0
  2  4  1  0  0  0  0
  2  5  1  0  0  0  0
  1  2  1  0  0  0  0
 21 22  2  0  0  0  0
 21 23  1  0  0  0  0
 19 20  1  0  0  0  0
 17 18  2  0  0  0  0
 17 19  1  0  0  0  0
 14 15  1  0  0  0  0
 14 16  1  0  0  0  0
 14 17  1  0  0  0  0
 11 12  1  0  0  0  0
 11 13  1  0  0  0  0
 11 14  1  0  0  0  0
  9 10  1  0  0  0  0
  9 11  1  0  0  0  0
  9 21  1  0  0  0  0
  7  8  1  0  0  0  0
  7  9  1  0  0  0  0
 25 26  1  0  0  0  0
 25 27  1  0  0  0  0
 25 28  1  0  0  0  0
 23 24  1  0  0  0  0
 23 25  1  0  0  0  0
M  END
$$$$
default_name
  -OEChem-01062215323D

 28 27  0     1  0  0  0  0  0999 V2000
   -3.2133   -3.5565    1.2809 H   0  0  0  0  0  0  0  0  0  0  0  0
   -3.1873   -2.5755    0.8089 C   0  0  0  0  0  0  0  0  0  0  0  0
   -3.8793   -1.9065    1.3169 H   0  0  0  0  0  0  0  0  0  0  0  0
   -3.4623   -2.6685   -0.2401 H   0  0  0  0  0  0  0  0  0  0  0  0
   -1.7863   -2.0195    0.9119 C   0  0  0  0  0  0  0  0  0  0  0  0
   -0.9073   -2.6615    1.4699 O   0  0  0  0  0  0  0  0  0  0  0  0
   -1.5803   -0.8195    0.3749 N   0  0  0  0  0  0  0  0  0  0  0  0
   -2.3603   -0.3345   -0.0451 H   0  0  0  0  0  0  0  0  0  0  0  0
   -0.2933   -0.1205    0.3719 C   0  0  1  0  0  0  0  0  0  0  0  0
    0.4916   -0.8352    0.1207 H   0  0  0  0  0  0  0  0  0  0  0  0
   -0.3191    0.9746   -0.7139 C   0  0  0  0  0  0  0  0  0  0  0  0
   -1.1916    1.6062   -0.5378 H   0  0  0  0  0  0  0  0  0  0  0  0
    0.5733    1.5952   -0.6204 H   0  0  0  0  0  0  0  0  0  0  0  0
   -0.3854    0.4271   -2.1501 C   0  0  0  0  0  0  0  0  0  0  0  0
    0.4893   -0.1911   -2.3525 H   0  0  0  0  0  0  0  0  0  0  0  0
   -1.2838   -0.1790   -2.2609 H   0  0  0  0  0  0  0  0  0  0  0  0
   -0.4339    1.5404   -3.1916 C   0  0  0  0  0  0  0  0  0  0  0  0
   -0.5445    2.7298   -2.9408 O   0  0  0  0  0  0  0  0  0  0  0  0
   -0.3574    1.1384   -4.4739 O   0  0  0  0  0  0  0  0  0  0  0  0
   -0.4139    1.9425   -4.9930 H   0  0  0  0  0  0  0  0  0  0  0  0
    0.0086    0.4473    1.7680 C   0  0  0  0  0  0  0  0  0  0  0  0
    0.6131   -0.2359    2.5924 O   0  0  0  0  0  0  0  0  0  0  0  0
   -0.4212    1.6867    2.0336 N   0  0  0  0  0  0  0  0  0  0  0  0
   -0.8905    2.1951    1.2991 H   0  0  0  0  0  0  0  0  0  0  0  0
   -0.2326    2.3586    3.3177 C   0  0  0  0  0  0  0  0  0  0  0  0
    0.8307    2.3995    3.5606 H   0  0  0  0  0  0  0  0  0  0  0  0
   -0.6302    3.3736    3.2764 H   0  0  0  0  0  0  0  0  0  0  0  0
   -0.7464    1.8019    4.1039 H   0  0  0  0  0  0  0  0  0  0  0  0
  5  6  2  0  0  0  0
  5  7  1  0  0  0  0
  2  3  1  0  0  0  0
  2  4  1  0  0  0  0
  2  5  1  0  0  0  0
  1  2  1  0  0  0  0
 21 22  2  0  0  0  0
 21 23  1  0  0  0  0
 19 20  1  0  0  0  0
 17 18  2  0  0  0  0
 17 19  1  0  0  0  0
 14 15  1  0  0  0  0
 14 16  1  0  0  0  0
 14 17  1  0  0  0  0
 11 12  1  0  0  0  0
 11 13  1  0  0  0  0
 11 14  1  0  0  0  0
  9 10  1  0  0  0  0
  9 11  1  0  0  0  0
  9 21  1  0  0  0  0
  7  8  1  0  0  0  0
  7  9  1  0  0  0  0
 25 26  1  0  0  0  0
 25 27  1  0  0  0  0
 25 28  1  0  0  0  0
 23 24  1  0  0  0  0
 23 25  1  0  0  0  0
M  END
$$$$
default_name
  -OEChem-01062215323D

 28 27  0     1  0  0  0  0  0999 V2000
   -3.2133   -3.5565    1.2809 H   0  0  0  0  0  0  0  0  0  0  0  0
   -3.1873   -2.5755    0.8089 C   0  0  0  0  0  0  0  0  0  0  0  0
   -3.8793   -1.9065    1.3169 H   0  0  0  0  0  0  0  0  0  0  0  0
   -3.4623   -2.6685   -0.2401 H   0  0  0  0  0  0  0  0  0  0  0  0
   -1.7863   -2.0195    0.9119 C   0  0  0  0  0  0  0  0  0  0  0  0
   -0.9073   -2.6615    1.4699 O   0  0  0  0  0  0  0  0  0  0  0  0
   -1.5803   -0.8195    0.3749 N   0  0  0  0  0  0  0  0  0  0  0  0
   -2.3603   -0.3345   -0.0451 H   0  0  0  0  0  0  0  0  0  0  0  0
   -0.2933   -0.1205    0.3719 C   0  0  1  0  0  0  0  0  0  0  0  0
    0.4916   -0.8352    0.1207 H   0  0  0  0  0  0  0  0  0  0  0  0
   -0.3191    0.9746   -0.7139 C   0  0  0  0  0  0  0  0  0  0  0  0
   -1.1916    1.6062   -0.5378 H   0  0  0  0  0  0  0  0  0  0  0  0
    0.5733    1.5952   -0.6204 H   0  0  0  0  0  0  0  0  0  0  0  0
   -0.3854    0.4271   -2.1501 C   0  0  0  0  0  0  0  0  0  0  0  0
    0.4893   -0.1911   -2.3525 H   0  0  0  0  0  0  0  0  0  0  0  0
   -1.2838   -0.1790   -2.2609 H   0  0  0  0  0  0  0  0  0  0  0  0
   -0.4339    1.5404   -3.1916 C   0  0  0  0  0  0  0  0  0  0  0  0
   -0.5445    2.7298   -2.9408 O   0  0  0  0  0  0  0  0  0  0  0  0
   -0.3574    1.1384   -4.4739 O   0  0  0  0  0  0  0  0  0  0  0  0
   -0.4139    1.9425   -4.9930 H   0  0  0  0  0  0  0  0  0  0  0  0
    0.0086    0.4473    1.7680 C   0  0  0  0  0  0  0  0  0  0  0  0
    0.8360   -0.1047    2.4909 O   0  0  0  0  0  0  0  0  0  0  0  0
   -0.6684    1.5377    2.1477 N   0  0  0  0  0  0  0  0  0  0  0  0
   -1.3153    1.9486    1.4913 H   0  0  0  0  0  0  0  0  0  0  0  0
   -0.5117    2.1840    3.4491 C   0  0  0  0  0  0  0  0  0  0  0  0
    0.5320    2.4667    3.5979 H   0  0  0  0  0  0  0  0  0  0  0  0
   -1.1366    3.0763    3.5068 H   0  0  0  0  0  0  0  0  0  0  0  0
   -0.7992    1.4906    4.2420 H   0  0  0  0  0  0  0  0  0  0  0  0
  5  6  2  0  0  0  0
  5  7  1  0  0  0  0
  2  3  1  0  0  0  0
  2  4  1  0  0  0  0
  2  5  1  0  0  0  0
  1  2  1  0  0  0  0
 21 22  2  0  0  0  0
 21 23  1  0  0  0  0
 19 20  1  0  0  0  0
 17 18  2  0  0  0  0
 17 19  1  0  0  0  0
 14 15  1  0  0  0  0
 14 16  1  0  0  0  0
 14 17  1  0  0  0  0
 11 12  1  0  0  0  0
 11 13  1  0  0  0  0
 11 14  1  0  0  0  0
  9 10  1  0  0  0  0
  9 11  1  0  0  0  0
  9 21  1  0  0  0  0
  7  8  1  0  0  0  0
  7  9  1  0  0  0  0
 25 26  1  0  0  0  0
 25 27  1  0  0  0  0
 25 28  1  0  0  0  0
 23 24  1  0  0  0  0
 23 25  1  0  0  0  0
M  END
$$$$
default_name
  -OEChem-01062215323D

 28 27  0     1  0  0  0  0  0999 V2000
   -3.2133   -3.5565    1.2809 H   0  0  0  0  0  0  0  0  0  0  0  0
   -3.1873   -2.5755    0.8089 C   0  0  0  0  0  0  0  0  0  0  0  0
   -3.8793   -1.9065    1.3169 H   0  0  0  0  0  0  0  0  0  0  0  0
   -3.4623   -2.6685   -0.2401 H   0  0  0  0  0  0  0  0  0  0  0  0
   -1.7863   -2.0195    0.9119 C   0  0  0  0  0  0  0  0  0  0  0  0
   -0.9073   -2.6615    1.4699 O   0  0  0  0  0  0  0  0  0  0  0  0
   -1.5803   -0.8195    0.3749 N   0  0  0  0  0  0  0  0  0  0  0  0
   -2.3603   -0.3345   -0.0451 H   0  0  0  0  0  0  0  0  0  0  0  0
   -0.2933   -0.1205    0.3719 C   0  0  1  0  0  0  0  0  0  0  0  0
    0.4916   -0.8352    0.1207 H   0  0  0  0  0  0  0  0  0  0  0  0
   -0.3191    0.9746   -0.7139 C   0  0  0  0  0  0  0  0  0  0  0  0
   -1.1916    1.6062   -0.5378 H   0  0  0  0  0  0  0  0  0  0  0  0
    0.5733    1.5952   -0.6204 H   0  0  0  0  0  0  0  0  0  0  0  0
   -0.3854    0.4271   -2.1501 C   0  0  0  0  0  0  0  0  0  0  0  0
    0.4893   -0.1911   -2.3525 H   0  0  0  0  0  0  0  0  0  0  0  0
   -1.2838   -0.1790   -2.2609 H   0  0  0  0  0  0  0  0  0  0  0  0
   -0.4339    1.5404   -3.1916 C   0  0  0  0  0  0  0  0  0  0  0  0
   -0.5445    2.7298   -2.9408 O   0  0  0  0  0  0  0  0  0  0  0  0
   -0.3574    1.1384   -4.4739 O   0  0  0  0  0  0  0  0  0  0  0  0
   -0.4139    1.9425   -4.9930 H   0  0  0  0  0  0  0  0  0  0  0  0
    0.0086    0.4473    1.7680 C   0  0  0  0  0  0  0  0  0  0  0  0
    1.0108    0.0796    2.3781 O   0  0  0  0  0  0  0  0  0  0  0  0
   -0.8613    1.3298    2.2739 N   0  0  0  0  0  0  0  0  0  0  0  0
   -1.6493    1.6008    1.7049 H   0  0  0  0  0  0  0  0  0  0  0  0
   -0.7277    1.9430    3.5938 C   0  0  0  0  0  0  0  0  0  0  0  0
    0.2312    2.4595    3.6659 H   0  0  0  0  0  0  0  0  0  0  0  0
   -1.5338    2.6584    3.7627 H   0  0  0  0  0  0  0  0  0  0  0  0
   -0.7639    1.1705    4.3645 H   0  0  0  0  0  0  0  0  0  0  0  0
  5  6  2  0  0  0  0
  5  7  1  0  0  0  0
  2  3  1  0  0  0  0
  2  4  1  0  0  0  0
  2  5  1  0  0  0  0
  1  2  1  0  0  0  0
 21 22  2  0  0  0  0
 21 23  1  0  0  0  0
 19 20  1  0  0  0  0
 17 18  2  0  0  0  0
 17 19  1  0  0  0  0
 14 15  1  0  0  0  0
 14 16  1  0  0  0  0
 14 17  1  0  0  0  0
 11 12  1  0  0  0  0
 11 13  1  0  0  0  0
 11 14  1  0  0  0  0
  9 10  1  0  0  0  0
  9 11  1  0  0  0  0
  9 21  1  0  0  0  0
  7  8  1  0  0  0  0
  7  9  1  0  0  0  0
 25 26  1  0  0  0  0
 25 27  1  0  0  0  0
 25 28  1  0  0  0  0
 23 24  1  0  0  0  0
 23 25  1  0  0  0  0
M  END
$$$$
default_name
  -OEChem-01062215323D

 28 27  0     1  0  0  0  0  0999 V2000
   -3.2133   -3.5565    1.2809 H   0  0  0  0  0  0  0  0  0  0  0  0
   -3.1873   -2.5755    0.8089 C   0  0  0  0  0  0  0  0  0  0  0  0
   -3.8793   -1.9065    1.3169 H   0  0  0  0  0  0  0  0  0  0  0  0
   -3.4623   -2.6685   -0.2401 H   0  0  0  0  0  0  0  0  0  0  0  0
   -1.7863   -2.0195    0.9119 C   0  0  0  0  0  0  0  0  0  0  0  0
   -0.9073   -2.6615    1.4699 O   0  0  0  0  0  0  0  0  0  0  0  0
   -1.5803   -0.8195    0.3749 N   0  0  0  0  0  0  0  0  0  0  0  0
   -2.3603   -0.3345   -0.0451 H   0  0  0  0  0  0  0  0  0  0  0  0
   -0.2933   -0.1205    0.3719 C   0  0  1  0  0  0  0  0  0  0  0  0
    0.4916   -0.8352    0.1207 H   0  0  0  0  0  0  0  0  0  0  0  0
   -0.3191    0.9746   -0.7139 C   0  0  0  0  0  0  0  0  0  0  0  0
   -1.1916    1.6062   -0.5378 H   0  0  0  0  0  0  0  0  0  0  0  0
    0.5733    1.5952   -0.6204 H   0  0  0  0  0  0  0  0  0  0  0  0
   -0.3854    0.4271   -2.1501 C   0  0  0  0  0  0  0  0  0  0  0  0
    0.4893   -0.1911   -2.3525 H   0  0  0  0  0  0  0  0  0  0  0  0
   -1.2838   -0.1790   -2.2609 H   0  0  0  0  0  0  0  0  0  0  0  0
   -0.4339    1.5404   -3.1916 C   0  0  0  0  0  0  0  0  0  0  0  0
   -0.5445    2.7298   -2.9408 O   0  0  0  0  0  0  0  0  0  0  0  0
   -0.3574    1.1384   -4.4739 O   0  0  0  0  0  0  0  0  0  0  0  0
   -0.4139    1.9425   -4.9930 H   0  0  0  0  0  0  0  0  0  0  0  0
    0.0086    0.4473    1.7680 C   0  0  0  0  0  0  0  0  0  0  0  0
    1.1255    0.3044    2.2619 O   0  0  0  0  0  0  0  0  0  0  0  0
   -0.9866    1.0772    2.4037 N   0  0  0  0  0  0  0  0  0  0  0  0
   -1.8697    1.1755    1.9255 H   0  0  0  0  0  0  0  0  0  0  0  0
   -0.8659    1.6521    3.7420 C   0  0  0  0  0  0  0  0  0  0  0  0
   -0.0512    2.3783    3.7600 H   0  0  0  0  0  0  0  0  0  0  0  0
   -1.7948    2.1483    4.0266 H   0  0  0  0  0  0  0  0  0  0  0  0
   -0.6428    0.8634    4.4632 H   0  0  0  0  0  0  0  0  0  0  0  0
  5  6  2  0  0  0  0
  5  7  1  0  0  0  0
  2  3  1  0  0  0  0
  2  4  1  0  0  0  0
  2  5  1  0  0  0  0
  1  2  1  0  0  0  0
 21 22  2  0  0  0  0
 21 23  1  0  0  0  0
 19 20  1  0  0  0  0
 17 18  2  0  0  0  0
 17 19  1  0  0  0  0
 14 15  1  0  0  0  0
 14 16  1  0  0  0  0
 14 17  1  0  0  0  0
 11 12  1  0  0  0  0
 11 13  1  0  0  0  0
 11 14  1  0  0  0  0
  9 10  1  0  0  0  0
  9 11  1  0  0  0  0
  9 21  1  0  0  0  0
  7  8  1  0  0  0  0
  7  9  1  0  0  0  0
 25 26  1  0  0  0  0
 25 27  1  0  0  0  0
 25 28  1  0  0  0  0
 23 24  1  0  0  0  0
 23 25  1  0  0  0  0
M  END
$$$$
default_name
  -OEChem-01062215323D

 28 27  0     1  0  0  0  0  0999 V2000
   -3.2133   -3.5565    1.2809 H   0  0  0  0  0  0  0  0  0  0  0  0
   -3.1873   -2.5755    0.8089 C   0  0  0  0  0  0  0  0  0  0  0  0
   -3.8793   -1.9065    1.3169 H   0  0  0  0  0  0  0  0  0  0  0  0
   -3.4623   -2.6685   -0.2401 H   0  0  0  0  0  0  0  0  0  0  0  0
   -1.7863   -2.0195    0.9119 C   0  0  0  0  0  0  0  0  0  0  0  0
   -0.9073   -2.6615    1.4699 O   0  0  0  0  0  0  0  0  0  0  0  0
   -1.5803   -0.8195    0.3749 N   0  0  0  0  0  0  0  0  0  0  0  0
   -2.3603   -0.3345   -0.0451 H   0  0  0  0  0  0  0  0  0  0  0  0
   -0.2933   -0.1205    0.3719 C   0  0  1  0  0  0  0  0  0  0  0  0
    0.4916   -0.8352    0.1207 H   0  0  0  0  0  0  0  0  0  0  0  0
   -0.3191    0.9746   -0.7139 C   0  0  0  0  0  0  0  0  0  0  0  0
   -1.1916    1.6062   -0.5378 H   0  0  0  0  0  0  0  0  0  0  0  0
    0.5733    1.5952   -0.6204 H   0  0  0  0  0  0  0  0  0  0  0  0
   -0.3854    0.4271   -2.1501 C   0  0  0  0  0  0  0  0  0  0  0  0
    0.4893   -0.1911   -2.3525 H   0  0  0  0  0  0  0  0  0  0  0  0
   -1.2838   -0.1790   -2.2609 H   0  0  0  0  0  0  0  0  0  0  0  0
   -0.4339    1.5404   -3.1916 C   0  0  0  0  0  0  0  0  0  0  0  0
   -0.5445    2.7298   -2.9408 O   0  0  0  0  0  0  0  0  0  0  0  0
   -0.3574    1.1384   -4.4739 O   0  0  0  0  0  0  0  0  0  0  0  0
   -0.4139    1.9425   -4.9930 H   0  0  0  0  0  0  0  0  0  0  0  0
    0.0086    0.4473    1.7680 C   0  0  0  0  0  0  0  0  0  0  0  0
    1.1724    0.5545    2.1500 O   0  0  0  0  0  0  0  0  0  0  0  0
   -1.0359    0.7972    2.5283 N   0  0  0  0  0  0  0  0  0  0  0  0
   -1.9615    0.7016    2.1381 H   0  0  0  0  0  0  0  0  0  0  0  0
   -0.9168    1.3311    3.8835 C   0  0  0  0  0  0  0  0  0  0  0  0
   -0.2959    2.2288    3.8737 H   0  0  0  0  0  0  0  0  0  0  0  0
   -1.9017    1.5808    4.2805 H   0  0  0  0  0  0  0  0  0  0  0  0
   -0.4442    0.5901    4.5314 H   0  0  0  0  0  0  0  0  0  0  0  0
  5  6  2  0  0  0  0
  5  7  1  0  0  0  0
  2  3  1  0  0  0  0
  2  4  1  0  0  0  0
  2  5  1  0  0  0  0
  1  2  1  0  0  0  0
 21 22  2  0  0  0  0
 21 23  1  0  0  0  0
 19 20  1  0  0  0  0
 17 18  2  0  0  0  0
 17 19  1  0  0  0  0
 14 15  1  0  0  0  0
 14 16  1  0  0  0  0
 14 17  1  0  0  0  0
 11 12  1  0  0  0  0
 11 13  1  0  0  0  0
 11 14  1  0  0  0  0
  9 10  1  0  0  0  0
  9 11  1  0  0  0  0
  9 21  1  0  0  0  0
  7  8  1  0  0  0  0
  7  9  1  0  0  0  0
 25 26  1  0  0  0  0
 25 27  1  0  0  0  0
 25 28  1  0  0  0  0
 23 24  1  0  0  0  0
 23 25  1  0  0  0  0
M  END
$$$$
default_name
  -OEChem-01062215323D

 28 27  0     1  0  0  0  0  0999 V2000
   -3.2133   -3.5565    1.2809 H   0  0  0  0  0  0  0  0  0  0  0  0
   -3.1873   -2.5755    0.8089 C   0  0  0  0  0  0  0  0  0  0  0  0
   -3.8793   -1.9065    1.3169 H   0  0  0  0  0  0  0  0  0  0  0  0
   -3.4623   -2.6685   -0.2401 H   0  0  0  0  0  0  0  0  0  0  0  0
   -1.7863   -2.0195    0.9119 C   0  0  0  0  0  0  0  0  0  0  0  0
   -0.9073   -2.6615    1.4699 O   0  0  0  0  0  0  0  0  0  0  0  0
   -1.5803   -0.8195    0.3749 N   0  0  0  0  0  0  0  0  0  0  0  0
   -2.3603   -0.3345   -0.0451 H   0  0  0  0  0  0  0  0  0  0  0  0
   -0.2933   -0.1205    0.3719 C   0  0  1  0  0  0  0  0  0  0  0  0
    0.4916   -0.8352    0.1207 H   0  0  0  0  0  0  0  0  0  0  0  0
   -0.3191    0.9746   -0.7139 C   0  0  0  0  0  0  0  0  0  0  0  0
   -1.1916    1.6062   -0.5378 H   0  0  0  0  0  0  0  0  0  0  0  0
    0.5733    1.5952   -0.6204 H   0  0  0  0  0  0  0  0  0  0  0  0
   -0.3854    0.4271   -2.1501 C   0  0  0  0  0  0  0  0  0  0  0  0
    0.4893   -0.1911   -2.3525 H   0  0  0  0  0  0  0  0  0  0  0  0
   -1.2838   -0.1790   -2.2609 H   0  0  0  0  0  0  0  0  0  0  0  0
   -0.4339    1.5404   -3.1916 C   0  0  0  0  0  0  0  0  0  0  0  0
   -0.5445    2.7298   -2.9408 O   0  0  0  0  0  0  0  0  0  0  0  0
   -0.3574    1.1384   -4.4739 O   0  0  0  0  0  0  0  0  0  0  0  0
   -0.4139    1.9425   -4.9930 H   0  0  0  0  0  0  0  0  0  0  0  0
    0.0086    0.4473    1.7680 C   0  0  0  0  0  0  0  0  0  0  0  0
    1.1482    0.8127    2.0503 O   0  0  0  0  0  0  0  0  0  0  0  0
   -1.0058    0.5088    2.6390 N   0  0  0  0  0  0  0  0  0  0  0  0
   -1.9185    0.2116    2.3281 H   0  0  0  0  0  0  0  0  0  0  0  0
   -0.8769    1.0019    4.0088 C   0  0  0  0  0  0  0  0  0  0  0  0
   -0.4862    2.0210    3.9993 H   0  0  0  0  0  0  0  0  0  0  0  0
   -1.8474    0.9946    4.5071 H   0  0  0  0  0  0  0  0  0  0  0  0
   -0.1816    0.3695    4.5643 H   0  0  0  0  0  0  0  0  0  0  0  0
  5  6  2  0  0  0  0
  5  7  1  0  0  0  0
  2  3  1  0  0  0  0
  2  4  1  0  0  0  0
  2  5  1  0  0  0  0
  1  2  1  0  0  0  0
 21 22  2  0  0  0  0
 21 23  1  0  0  0  0
 19 20  1  0  0  0  0
 17 18  2  0  0  0  0
 17 19  1  0  0  0  0
 14 15  1  0  0  0  0
 14 16  1  0  0  0  0
 14 17  1  0  0  0  0
 11 12  1  0  0  0  0
 11 13  1  0  0  0  0
 11 14  1  0  0  0  0
  9 10  1  0  0  0  0
  9 11  1  0  0  0  0
  9 21  1  0  0  0  0
  7  8  1  0  0  0  0
  7  9  1  0  0  0  0
 25 26  1  0  0  0  0
 25 27  1  0  0  0  0
 25 28  1  0  0  0  0
 23 24  1  0  0  0  0
 23 25  1  0  0  0  0
M  END
$$$$
default_name
  -OEChem-01062215323D

 28 27  0     1  0  0  0  0  0999 V2000
   -3.2133   -3.5565    1.2809 H   0  0  0  0  0  0  0  0  0  0  0  0
   -3.1873   -2.5755    0.8089 C   0  0  0  0  0  0  0  0  0  0  0  0
   -3.8793   -1.9065    1.3169 H   0  0  0  0  0  0  0  0  0  0  0  0
   -3.4623   -2.6685   -0.2401 H   0  0  0  0  0  0  0  0  0  0  0  0
   -1.7863   -2.0195    0.9119 C   0  0  0  0  0  0  0  0  0  0  0  0
   -0.9073   -2.6615    1.4699 O   0  0  0  0  0  0  0  0  0  0  0  0
   -1.5803   -0.8195    0.3749 N   0  0  0  0  0  0  0  0  0  0  0  0
   -2.3603   -0.3345   -0.0451 H   0  0  0  0  0  0  0  0  0  0  0  0
   -0.2933   -0.1205    0.3719 C   0  0  1  0  0  0  0  0  0  0  0  0
    0.4916   -0.8352    0.1207 H   0  0  0  0  0  0  0  0  0  0  0  0
   -0.3191    0.9746   -0.7139 C   0  0  0  0  0  0  0  0  0  0  0  0
   -1.1916    1.6062   -0.5378 H   0  0  0  0  0  0  0  0  0  0  0  0
    0.5733    1.5952   -0.6204 H   0  0  0  0  0  0  0  0  0  0  0  0
   -0.3854    0.4271   -2.1501 C   0  0  0  0  0  0  0  0  0  0  0  0
    0.4893   -0.1911   -2.3525 H   0  0  0  0  0  0  0  0  0  0  0  0
   -1.2838   -0.1790   -2.2609 H   0  0  0  0  0  0  0  0  0  0  0  0
   -0.4339    1.5404   -3.1916 C   0  0  0  0  0  0  0  0  0  0  0  0
   -0.5445    2.7298   -2.9408 O   0  0  0  0  0  0  0  0  0  0  0  0
   -0.3574    1.1384   -4.4739 O   0  0  0  0  0  0  0  0  0  0  0  0
   -0.4139    1.9425   -4.9930 H   0  0  0  0  0  0  0  0  0  0  0  0
    0.0086    0.4473    1.7680 C   0  0  0  0  0  0  0  0  0  0  0  0
    1.0545    1.0615    1.9693 O   0  0  0  0  0  0  0  0  0  0  0  0
   -0.8983    0.2317    2.7285 N   0  0  0  0  0  0  0  0  0  0  0  0
   -1.7436   -0.2614    2.4826 H   0  0  0  0  0  0  0  0  0  0  0  0
   -0.7491    0.6869    4.1093 C   0  0  0  0  0  0  0  0  0  0  0  0
   -0.6092    1.7692    4.1283 H   0  0  0  0  0  0  0  0  0  0  0  0
   -1.6354    0.4297    4.6910 H   0  0  0  0  0  0  0  0  0  0  0  0
    0.1270    0.2163    4.5598 H   0  0  0  0  0  0  0  0  0  0  0  0
  5  6  2  0  0  0  0
  5  7  1  0  0  0  0
  2  3  1  0  0  0  0
  2  4  1  0  0  0  0
  2  5  1  0  0  0  0
  1  2  1  0  0  0  0
 21 22  2  0  0  0  0
 21 23  1  0  0  0  0
 19 20  1  0  0  0  0
 17 18  2  0  0  0  0
 17 19  1  0  0  0  0
 14 15  1  0  0  0  0
 14 16  1  0  0  0  0
 14 17  1  0  0  0  0
 11 12  1  0  0  0  0
 11 13  1  0  0  0  0
 11 14  1  0  0  0  0
  9 10  1  0  0  0  0
  9 11  1  0  0  0  0
  9 21  1  0  0  0  0
  7  8  1  0  0  0  0
  7  9  1  0  0  0  0
 25 26  1  0  0  0  0
 25 27  1  0  0  0  0
 25 28  1  0  0  0  0
 23 24  1  0  0  0  0
 23 25  1  0  0  0  0
M  END
$$$$
default_name
  -OEChem-01062215323D

 28 27  0     1  0  0  0  0  0999 V2000
   -3.2133   -3.5565    1.2809 H   0  0  0  0  0  0  0  0  0  0  0  0
   -3.1873   -2.5755    0.8089 C   0  0  0  0  0  0  0  0  0  0  0  0
   -3.8793   -1.9065    1.3169 H   0  0  0  0  0  0  0  0  0  0  0  0
   -3.4623   -2.6685   -0.2401 H   0  0  0  0  0  0  0  0  0  0  0  0
   -1.7863   -2.0195    0.9119 C   0  0  0  0  0  0  0  0  0  0  0  0
   -0.9073   -2.6615    1.4699 O   0  0  0  0  0  0  0  0  0  0  0  0
   -1.5803   -0.8195    0.3749 N   0  0  0  0  0  0  0  0  0  0  0  0
   -2.3603   -0.3345   -0.0451 H   0  0  0  0  0  0  0  0  0  0  0  0
   -0.2933   -0.1205    0.3719 C   0  0  1  0  0  0  0  0  0  0  0  0
    0.4916   -0.8352    0.1207 H   0  0  0  0  0  0  0  0  0  0  0  0
   -0.3191    0.9746   -0.7139 C   0  0  0  0  0  0  0  0  0  0  0  0
   -1.1916    1.6062   -0.5378 H   0  0  0  0  0  0  0  0  0  0  0  0
    0.5733    1.5952   -0.6204 H   0  0  0  0  0  0  0  0  0  0  0  0
   -0.3854    0.4271   -2.1501 C   0  0  0  0  0  0  0  0  0  0  0  0
    0.4893   -0.1911   -2.3525 H   0  0  0  0  0  0  0  0  0  0  0  0
   -1.2838   -0.1790   -2.2609 H   0  0  0  0  0  0  0  0  0  0  0  0
   -0.4339    1.5404   -3.1916 C   0  0  0  0  0  0  0  0  0  0  0  0
   -0.5445    2.7298   -2.9408 O   0  0  0  0  0  0  0  0  0  0  0  0
   -0.3574    1.1384   -4.4739 O   0  0  0  0  0  0  0  0  0  0  0  0
   -0.4139    1.9425   -4.9930 H   0  0  0  0  0  0  0  0  0  0  0  0
    0.0086    0.4473    1.7680 C   0  0  0  0  0  0  0  0  0  0  0  0
    0.8978    1.2840    1.9128 O   0  0  0  0  0  0  0  0  0  0  0  0
   -0.7208   -0.0152    2.7905 N   0  0  0  0  0  0  0  0  0  0  0  0
   -1.4487   -0.6850    2.5911 H   0  0  0  0  0  0  0  0  0  0  0  0
   -0.5419    0.4076    4.1781 C   0  0  0  0  0  0  0  0  0  0  0  0
   -0.6565    1.4905    4.2519 H   0  0  0  0  0  0  0  0  0  0  0  0
   -1.2802   -0.0756    4.8196 H   0  0  0  0  0  0  0  0  0  0  0  0
    0.4607    0.1412    4.5182 H   0  0  0  0  0  0  0  0  0  0  0  0
  5  6  2  0  0  0  0
  5  7  1  0  0  0  0
  2  3  1  0  0  0  0
  2  4  1  0  0  0  0
  2  5  1  0  0  0  0
  1  2  1  0  0  0  0
 21 22  2  0  0  0  0
 21 23  1  0  0  0  0
 19 20  1  0  0  0  0
 17 18  2  0  0  0  0
 17 19  1  0  0  0  0
 14 15  1  0  0  0  0
 14 16  1  0  0  0  0
 14 17  1  0  0  0  0
 11 12  1  0  0  0  0
 11 13  1  0  0  0  0
 11 14  1  0  0  0  0
  9 10  1  0  0  0  0
  9 11  1  0  0  0  0
  9 21  1  0  0  0  0
  7  8  1  0  0  0  0
  7  9  1  0  0  0  0
 25 26  1  0  0  0  0
 25 27  1  0  0  0  0
 25 28  1  0  0  0  0
 23 24  1  0  0  0  0
 23 25  1  0  0  0  0
M  END
$$$$
default_name
  -OEChem-01062215323D

 28 27  0     1  0  0  0  0  0999 V2000
   -3.2133   -3.5565    1.2809 H   0  0  0  0  0  0  0  0  0  0  0  0
   -3.1873   -2.5755    0.8089 C   0  0  0  0  0  0  0  0  0  0  0  0
   -3.8793   -1.9065    1.3169 H   0  0  0  0  0  0  0  0  0  0  0  0
   -3.4623   -2.6685   -0.2401 H   0  0  0  0  0  0  0  0  0  0  0  0
   -1.7863   -2.0195    0.9119 C   0  0  0  0  0  0  0  0  0  0  0  0
   -0.9073   -2.6615    1.4699 O   0  0  0  0  0  0  0  0  0  0  0  0
   -1.5803   -0.8195    0.3749 N   0  0  0  0  0  0  0  0  0  0  0  0
   -2.3603   -0.3345   -0.0451 H   0  0  0  0  0  0  0  0  0  0  0  0
   -0.2933   -0.1205    0.3719 C   0  0  1  0  0  0  0  0  0  0  0  0
    0.4916   -0.8352    0.1207 H   0  0  0  0  0  0  0  0  0  0  0  0
   -0.3191    0.9746   -0.7139 C   0  0  0  0  0  0  0  0  0  0  0  0
   -1.1916    1.6062   -0.5378 H   0  0  0  0  0  0  0  0  0  0  0  0
    0.5733    1.5952   -0.6204 H   0  0  0  0  0  0  0  0  0  0  0  0
   -0.3854    0.4271   -2.1501 C   0  0  0  0  0  0  0  0  0  0  0  0
    0.4893   -0.1911   -2.3525 H   0  0  0  0  0  0  0  0  0  0  0  0
   -1.2838   -0.1790   -2.2609 H   0  0  0  0  0  0  0  0  0  0  0  0
   -0.4339    1.5404   -3.1916 C   0  0  0  0  0  0  0  0  0  0  0  0
   -0.5445    2.7298   -2.9408 O   0  0  0  0  0  0  0  0  0  0  0  0
   -0.3574    1.1384   -4.4739 O   0  0  0  0  0  0  0  0  0  0  0  0
   -0.4139    1.9425   -4.9930 H   0  0  0  0  0  0  0  0  0  0  0  0
    0.0086    0.4473    1.7680 C   0  0  0  0  0  0  0  0  0  0  0  0
    0.6888    1.4649    1.8844 O   0  0  0  0  0  0  0  0  0  0  0  0
   -0.4853   -0.2152    2.8209 N   0  0  0  0  0  0  0  0  0  0  0  0
   -1.0539   -1.0303    2.6461 H   0  0  0  0  0  0  0  0  0  0  0  0
   -0.2696    0.1830    4.2105 C   0  0  0  0  0  0  0  0  0  0  0  0
   -0.6248    1.2040    4.3616 H   0  0  0  0  0  0  0  0  0  0  0  0
   -0.8061   -0.4866    4.8842 H   0  0  0  0  0  0  0  0  0  0  0  0
    0.7968    0.1493    4.4423 H   0  0  0  0  0  0  0  0  0  0  0  0
  5  6  2  0  0  0  0
  5  7  1  0  0  0  0
  2  3  1  0  0  0  0
  2  4  1  0  0  0  0
  2  5  1  0  0  0  0
  1  2  1  0  0  0  0
 21 22  2  0  0  0  0
 21 23  1  0  0  0  0
 19 20  1  0  0  0  0
 17 18  2  0  0  0  0
 17 19  1  0  0  0  0
 14 15  1  0  0  0  0
 14 16  1  0  0  0  0
 14 17  1  0  0  0  0
 11 12  1  0  0  0  0
 11 13  1  0  0  0  0
 11 14  1  0  0  0  0
  9 10  1  0  0  0  0
  9 11  1  0  0  0  0
  9 21  1  0  0  0  0
  7  8  1  0  0  0  0
  7  9  1  0  0  0  0
 25 26  1  0  0  0  0
 25 27  1  0  0  0  0
 25 28  1  0  0  0  0
 23 24  1  0  0  0  0
 23 25  1  0  0  0  0
M  END
$$$$
default_name
  -OEChem-01062215323D

 28 27  0     1  0  0  0  0  0999 V2000
   -3.2133   -3.5565    1.2809 H   0  0  0  0  0  0  0  0  0  0  0  0
   -3.1873   -2.5755    0.8089 C   0  0  0  0  0  0  0  0  0  0  0  0
   -3.8793   -1.9065    1.3169 H   0  0  0  0  0  0  0  0  0  0  0  0
   -3.4623   -2.6685   -0.2401 H   0  0  0  0  0  0  0  0  0  0  0  0
   -1.7863   -2.0195    0.9119 C   0  0  0  0  0  0  0  0  0  0  0  0
   -0.9073   -2.6615    1.4699 O   0  0  0  0  0  0  0  0  0  0  0  0
   -1.5803   -0.8195    0.3749 N   0  0  0  0  0  0  0  0  0  0  0  0
   -2.3603   -0.3345   -0.0451 H   0  0  0  0  0  0  0  0  0  0  0  0
   -0.2933   -0.1205    0.3719 C   0  0  1  0  0  0  0  0  0  0  0  0
    0.4916   -0.8352    0.1207 H   0  0  0  0  0  0  0  0  0  0  0  0
   -0.3191    0.9746   -0.7139 C   0  0  0  0  0  0  0  0  0  0  0  0
   -1.1916    1.6062   -0.5378 H   0  0  0  0  0  0  0  0  0  0  0  0
    0.5733    1.5952   -0.6204 H   0  0  0  0  0  0  0  0  0  0  0  0
   -0.3854    0.4271   -2.1501 C   0  0  0  0  0  0  0  0  0  0  0  0
    0.4893   -0.1911   -2.3525 H   0  0  0  0  0  0  0  0  0  0  0  0
   -1.2838   -0.1790   -2.2609 H   0  0  0  0  0  0  0  0  0  0  0  0
   -0.4339    1.5404   -3.1916 C   0  0  0  0  0  0  0  0  0  0  0  0
   -0.5445    2.7298   -2.9408 O   0  0  0  0  0  0  0  0  0  0  0  0
   -0.3574    1.1384   -4.4739 O   0  0  0  0  0  0  0  0  0  0  0  0
   -0.4139    1.9425   -4.9930 H   0  0  0  0  0  0  0  0  0  0  0  0
    0.0086    0.4473    1.7680 C   0  0  0  0  0  0  0  0  0  0  0  0
    0.4417    1.5919    1.8862 O   0  0  0  0  0  0  0  0  0  0  0  0
   -0.2080   -0.3546    2.8176 N   0  0  0  0  0  0  0  0  0  0  0  0
   -0.5861   -1.2738    2.6440 H   0  0  0  0  0  0  0  0  0  0  0  0
    0.0493    0.0284    4.2044 C   0  0  0  0  0  0  0  0  0  0  0  0
   -0.5163    0.9290    4.4499 H   0  0  0  0  0  0  0  0  0  0  0  0
   -0.2453   -0.7755    4.8804 H   0  0  0  0  0  0  0  0  0  0  0  0
    1.1122    0.2399    4.3372 H   0  0  0  0  0  0  0  0  0  0  0  0
  5  6  2  0  0  0  0
  5  7  1  0  0  0  0
  2  3  1  0  0  0  0
  2  4  1  0  0  0  0
  2  5  1  0  0  0  0
  1  2  1  0  0  0  0
 21 22  2  0  0  0  0
 21 23  1  0  0  0  0
 19 20  1  0  0  0  0
 17 18  2  0  0  0  0
 17 19  1  0  0  0  0
 14 15  1  0  0  0  0
 14 16  1  0  0  0  0
 14 17  1  0  0  0  0
 11 12  1  0  0  0  0
 11 13  1  0  0  0  0
 11 14  1  0  0  0  0
  9 10  1  0  0  0  0
  9 11  1  0  0  0  0
  9 21  1  0  0  0  0
  7  8  1  0  0  0  0
  7  9  1  0  0  0  0
 25 26  1  0  0  0  0
 25 27  1  0  0  0  0
 25 28  1  0  0  0  0
 23 24  1  0  0  0  0
 23 25  1  0  0  0  0
M  END
$$$$
default_name
  -OEChem-01062215323D

 28 27  0     1  0  0  0  0  0999 V2000
   -3.2133   -3.5565    1.2809 H   0  0  0  0  0  0  0  0  0  0  0  0
   -3.1873   -2.5755    0.8089 C   0  0  0  0  0  0  0  0  0  0  0  0
   -3.8793   -1.9065    1.3169 H   0  0  0  0  0  0  0  0  0  0  0  0
   -3.4623   -2.6685   -0.2401 H   0  0  0  0  0  0  0  0  0  0  0  0
   -1.7863   -2.0195    0.9119 C   0  0  0  0  0  0  0  0  0  0  0  0
   -0.9073   -2.6615    1.4699 O   0  0  0  0  0  0  0  0  0  0  0  0
   -1.5803   -0.8195    0.3749 N   0  0  0  0  0  0  0  0  0  0  0  0
   -2.3603   -0.3345   -0.0451 H   0  0  0  0  0  0  0  0  0  0  0  0
   -0.2933   -0.1205    0.3719 C   0  0  1  0  0  0  0  0  0  0  0  0
    0.4916   -0.8352    0.1207 H   0  0  0  0  0  0  0  0  0  0  0  0
   -0.3191    0.9746   -0.7139 C   0  0  0  0  0  0  0  0  0  0  0  0
   -1.1916    1.6062   -0.5378 H   0  0  0  0  0  0  0  0  0  0  0  0
    0.5733    1.5952   -0.6204 H   0  0  0  0  0  0  0  0  0  0  0  0
   -0.3854    0.4271   -2.1501 C   0  0  0  0  0  0  0  0  0  0  0  0
    0.4893   -0.1911   -2.3525 H   0  0  0  0  0  0  0  0  0  0  0  0
   -1.2838   -0.1790   -2.2609 H   0  0  0  0  0  0  0  0  0  0  0  0
   -0.4339    1.5404   -3.1916 C   0  0  0  0  0  0  0  0  0  0  0  0
   -0.5445    2.7298   -2.9408 O   0  0  0  0  0  0  0  0  0  0  0  0
   -0.3574    1.1384   -4.4739 O   0  0  0  0  0  0  0  0  0  0  0  0
   -0.4139    1.9425   -4.9930 H   0  0  0  0  0  0  0  0  0  0  0  0
    0.0086    0.4473    1.7680 C   0  0  0  0  0  0  0  0  0  0  0  0
    0.1732    1.6565    1.9180 O   0  0  0  0  0  0  0  0  0  0  0  0
    0.0923   -0.4238    2.7808 N   0  0  0  0  0  0  0  0  0  0  0  0
   -0.0772   -1.3990    2.5848 H   0  0  0  0  0  0  0  0  0  0  0  0
    0.3932   -0.0456    4.1601 C   0  0  0  0  0  0  0  0  0  0  0  0
   -0.3385    0.6844    4.5109 H   0  0  0  0  0  0  0  0  0  0  0  0
    0.3639   -0.9225    4.8085 H   0  0  0  0  0  0  0  0  0  0  0  0
    1.3855    0.4069    4.2102 H   0  0  0  0  0  0  0  0  0  0  0  0
  5  6  2  0  0  0  0
  5  7  1  0  0  0  0
  2  3  1  0  0  0  0
  2  4  1  0  0  0  0
  2  5  1  0  0  0  0
  1  2  1  0  0  0  0
 21 22  2  0  0  0  0
 21 23  1  0  0  0  0
 19 20  1  0  0  0  0
 17 18  2  0  0  0  0
 17 19  1  0  0  0  0
 14 15  1  0  0  0  0
 14 16  1  0  0  0  0
 14 17  1  0  0  0  0
 11 12  1  0  0  0  0
 11 13  1  0  0  0  0
 11 14  1  0  0  0  0
  9 10  1  0  0  0  0
  9 11  1  0  0  0  0
  9 21  1  0  0  0  0
  7  8  1  0  0  0  0
  7  9  1  0  0  0  0
 25 26  1  0  0  0  0
 25 27  1  0  0  0  0
 25 28  1  0  0  0  0
 23 24  1  0  0  0  0
 23 25  1  0  0  0  0
M  END
$$$$
default_name
  -OEChem-01062215323D

 28 27  0     1  0  0  0  0  0999 V2000
   -3.2133   -3.5565    1.2809 H   0  0  0  0  0  0  0  0  0  0  0  0
   -3.1873   -2.5755    0.8089 C   0  0  0  0  0  0  0  0  0  0  0  0
   -3.8793   -1.9065    1.3169 H   0  0  0  0  0  0  0  0  0  0  0  0
   -3.4623   -2.6685   -0.2401 H   0  0  0  0  0  0  0  0  0  0  0  0
   -1.7863   -2.0195    0.9119 C   0  0  0  0  0  0  0  0  0  0  0  0
   -0.9073   -2.6615    1.4699 O   0  0  0  0  0  0  0  0  0  0  0  0
   -1.5803   -0.8195    0.3749 N   0  0  0  0  0  0  0  0  0  0  0  0
   -2.3603   -0.3345   -0.0451 H   0  0  0  0  0  0  0  0  0  0  0  0
   -0.2933   -0.1205    0.3719 C   0  0  1  0  0  0  0  0  0  0  0  0
    0.4916   -0.8352    0.1207 H   0  0  0  0  0  0  0  0  0  0  0  0
   -0.3191    0.9746   -0.7139 C   0  0  0  0  0  0  0  0  0  0  0  0
   -1.1916    1.6062   -0.5378 H   0  0  0  0  0  0  0  0  0  0  0  0
    0.5733    1.5952   -0.6204 H   0  0  0  0  0  0  0  0  0  0  0  0
   -0.3854    0.4271   -2.1501 C   0  0  0  0  0  0  0  0  0  0  0  0
    0.4893   -0.1911   -2.3525 H   0  0  0  0  0  0  0  0  0  0  0  0
   -1.2838   -0.1790   -2.2609 H   0  0  0  0  0  0  0  0  0  0  0  0
   -0.4339    1.5404   -3.1916 C   0  0  0  0  0  0  0  0  0  0  0  0
   -0.5445    2.7298   -2.9408 O   0  0  0  0  0  0  0  0  0  0  0  0
   -0.3574    1.1384   -4.4739 O   0  0  0  0  0  0  0  0  0  0  0  0
   -0.4139    1.9425   -4.9930 H   0  0  0  0  0  0  0  0  0  0  0  0
    0.0086    0.4473    1.7680 C   0  0  0  0  0  0  0  0  0  0  0  0
   -0.0982    1.6541    1.9777 O   0  0  0  0  0  0  0  0  0  0  0  0
    0.3952   -0.4182    2.7130 N   0  0  0  0  0  0  0  0  0  0  0  0
    0.4381   -1.3973    2.4727 H   0  0  0  0  0  0  0  0  0  0  0  0
    0.7385   -0.0341    4.0807 C   0  0  0  0  0  0  0  0  0  0  0  0
   -0.1034    0.4869    4.5404 H   0  0  0  0  0  0  0  0  0  0  0  0
    0.9800   -0.9176    4.6732 H   0  0  0  0  0  0  0  0  0  0  0  0
    1.5981    0.6389    4.0698 H   0  0  0  0  0  0  0  0  0  0  0  0
  5  6  2  0  0  0  0
  5  7  1  0  0  0  0
  2  3  1  0  0  0  0
  2  4  1  0  0  0  0
  2  5  1  0  0  0  0
  1  2  1  0  0  0  0
 21 22  2  0  0  0  0
 21 23  1  0  0  0  0
 19 20  1  0  0  0  0
 17 18  2  0  0  0  0
 17 19  1  0  0  0  0
 14 15  1  0  0  0  0
 14 16  1  0  0  0  0
 14 17  1  0  0  0  0
 11 12  1  0  0  0  0
 11 13  1  0  0  0  0
 11 14  1  0  0  0  0
  9 10  1  0  0  0  0
  9 11  1  0  0  0  0
  9 21  1  0  0  0  0
  7  8  1  0  0  0  0
  7  9  1  0  0  0  0
 25 26  1  0  0  0  0
 25 27  1  0  0  0  0
 25 28  1  0  0  0  0
 23 24  1  0  0  0  0
 23 25  1  0  0  0  0
M  END
$$$$
default_name
  -OEChem-01062215323D

 28 27  0     1  0  0  0  0  0999 V2000
   -3.2133   -3.5565    1.2809 H   0  0  0  0  0  0  0  0  0  0  0  0
   -3.1873   -2.5755    0.8089 C   0  0  0  0  0  0  0  0  0  0  0  0
   -3.8793   -1.9065    1.3169 H   0  0  0  0  0  0  0  0  0  0  0  0
   -3.4623   -2.6685   -0.2401 H   0  0  0  0  0  0  0  0  0  0  0  0
   -1.7863   -2.0195    0.9119 C   0  0  0  0  0  0  0  0  0  0  0  0
   -0.9073   -2.6615    1.4699 O   0  0  0  0  0  0  0  0  0  0  0  0
   -1.5803   -0.8195    0.3749 N   0  0  0  0  0  0  0  0  0  0  0  0
   -2.3603   -0.3345   -0.0451 H   0  0  0  0  0  0  0  0  0  0  0  0
   -0.2933   -0.1205    0.3719 C   0  0  1  0  0  0  0  0  0  0  0  0
    0.4916   -0.8352    0.1207 H   0  0  0  0  0  0  0  0  0  0  0  0
   -0.3191    0.9746   -0.7139 C   0  0  0  0  0  0  0  0  0  0  0  0
   -1.1916    1.6062   -0.5378 H   0  0  0  0  0  0  0  0  0  0  0  0
    0.5733    1.5952   -0.6204 H   0  0  0  0  0  0  0  0  0  0  0  0
   -0.3854    0.4271   -2.1501 C   0  0  0  0  0  0  0  0  0  0  0  0
    0.4893   -0.1911   -2.3525 H   0  0  0  0  0  0  0  0  0  0  0  0
   -1.2838   -0.1790   -2.2609 H   0  0  0  0  0  0  0  0  0  0  0  0
   -0.4339    1.5404   -3.1916 C   0  0  0  0  0  0  0  0  0  0  0  0
   -0.5445    2.7298   -2.9408 O   0  0  0  0  0  0  0  0  0  0  0  0
   -0.3574    1.1384   -4.4739 O   0  0  0  0  0  0  0  0  0  0  0  0
   -0.4139    1.9425   -4.9930 H   0  0  0  0  0  0  0  0  0  0  0  0
    0.0086    0.4473    1.7680 C   0  0  0  0  0  0  0  0  0  0  0  0
   -0.3541    1.5849    2.0611 O   0  0  0  0  0  0  0  0  0  0  0  0
    0.6799   -0.3381    2.6189 N   0  0  0  0  0  0  0  0  0  0  0  0
    0.9247   -1.2687    2.3152 H   0  0  0  0  0  0  0  0  0  0  0  0
    1.0617    0.0623    3.9716 C   0  0  0  0  0  0  0  0  0  0  0  0
    0.1730    0.3498    4.5364 H   0  0  0  0  0  0  0  0  0  0  0  0
    1.5611   -0.7612    4.4840 H   0  0  0  0  0  0  0  0  0  0  0  0
    1.7355    0.9201    3.9258 H   0  0  0  0  0  0  0  0  0  0  0  0
  5  6  2  0  0  0  0
  5  7  1  0  0  0  0
  2  3  1  0  0  0  0
  2  4  1  0  0  0  0
  2  5  1  0  0  0  0
  1  2  1  0  0  0  0
 21 22  2  0  0  0  0
 21 23  1  0  0  0  0
 19 20  1  0  0  0  0
 17 18  2  0  0  0  0
 17 19  1  0  0  0  0
 14 15  1  0  0  0  0
 14 16  1  0  0  0  0
 14 17  1  0  0  0  0
 11 12  1  0  0  0  0
 11 13  1  0  0  0  0
 11 14  1  0  0  0  0
  9 10  1  0  0  0  0
  9 11  1  0  0  0  0
  9 21  1  0  0  0  0
  7  8  1  0  0  0  0
  7  9  1  0  0  0  0
 25 26  1  0  0  0  0
 25 27  1  0  0  0  0
 25 28  1  0  0  0  0
 23 24  1  0  0  0  0
 23 25  1  0  0  0  0
M  END
$$$$
default_name
  -OEChem-01062215323D

 28 27  0     1  0  0  0  0  0999 V2000
   -3.2133   -3.5565    1.2809 H   0  0  0  0  0  0  0  0  0  0  0  0
   -3.1873   -2.5755    0.8089 C   0  0  0  0  0  0  0  0  0  0  0  0
   -3.8793   -1.9065    1.3169 H   0  0  0  0  0  0  0  0  0  0  0  0
   -3.4623   -2.6685   -0.2401 H   0  0  0  0  0  0  0  0  0  0  0  0
   -1.7863   -2.0195    0.9119 C   0  0  0  0  0  0  0  0  0  0  0  0
   -0.9073   -2.6615    1.4699 O   0  0  0  0  0  0  0  0  0  0  0  0
   -1.5803   -0.8195    0.3749 N   0  0  0  0  0  0  0  0  0  0  0  0
   -2.3603   -0.3345   -0.0451 H   0  0  0  0  0  0  0  0  0  0  0  0
   -0.2933   -0.1205    0.3719 C   0  0  1  0  0  0  0  0  0  0  0  0
    0.4916   -0.8352    0.1207 H   0  0  0  0  0  0  0  0  0  0  0  0
   -0.3191    0.9746   -0.7139 C   0  0  0  0  0  0  0  0  0  0  0  0
   -1.1916    1.6062   -0.5378 H   0  0  0  0  0  0  0  0  0  0  0  0
    0.5733    1.5952   -0.6204 H   0  0  0  0  0  0  0  0  0  0  0  0
   -0.3854    0.4271   -2.1501 C   0  0  0  0  0  0  0  0  0  0  0  0
    0.4893   -0.1911   -2.3525 H   0  0  0  0  0  0  0  0  0  0  0  0
   -1.2838   -0.1790   -2.2609 H   0  0  0  0  0  0  0  0  0  0  0  0
   -0.4339    1.5404   -3.1916 C   0  0  0  0  0  0  0  0  0  0  0  0
   -0.5445    2.7298   -2.9408 O   0  0  0  0  0  0  0  0  0  0  0  0
   -0.3574    1.1384   -4.4739 O   0  0  0  0  0  0  0  0  0  0  0  0
   -0.4139    1.9425   -4.9930 H   0  0  0  0  0  0  0  0  0  0  0  0
    0.0086    0.4473    1.7680 C   0  0  0  0  0  0  0  0  0  0  0  0
   -0.5770    1.4537    2.1627 O   0  0  0  0  0  0  0  0  0  0  0  0
    0.9272   -0.1891    2.5048 N   0  0  0  0  0  0  0  0  0  0  0  0
    1.3495   -1.0222    2.1230 H   0  0  0  0  0  0  0  0  0  0  0  0
    1.3408    0.2370    3.8403 C   0  0  0  0  0  0  0  0  0  0  0  0
    0.4717    0.2826    4.4991 H   0  0  0  0  0  0  0  0  0  0  0  0
    2.0675   -0.4639    4.2535 H   0  0  0  0  0  0  0  0  0  0  0  0
    1.7884    1.2314    3.7877 H   0  0  0  0  0  0  0  0  0  0  0  0
  5  6  2  0  0  0  0
  5  7  1  0  0  0  0
  2  3  1  0  0  0  0
  2  4  1  0  0  0  0
  2  5  1  0  0  0  0
  1  2  1  0  0  0  0
 21 22  2  0  0  0  0
 21 23  1  0  0  0  0
 19 20  1  0  0  0  0
 17 18  2  0  0  0  0
 17 19  1  0  0  0  0
 14 15  1  0  0  0  0
 14 16  1  0  0  0  0
 14 17  1  0  0  0  0
 11 12  1  0  0  0  0
 11 13  1  0  0  0  0
 11 14  1  0  0  0  0
  9 10  1  0  0  0  0
  9 11  1  0  0  0  0
  9 21  1  0  0  0  0
  7  8  1  0  0  0  0
  7  9  1  0  0  0  0
 25 26  1  0  0  0  0
 25 27  1  0  0  0  0
 25 28  1  0  0  0  0
 23 24  1  0  0  0  0
 23 25  1  0  0  0  0
M  END
$$$$
default_name
  -OEChem-01062215323D

 28 27  0     1  0  0  0  0  0999 V2000
   -3.2133   -3.5565    1.2809 H   0  0  0  0  0  0  0  0  0  0  0  0
   -3.1873   -2.5755    0.8089 C   0  0  0  0  0  0  0  0  0  0  0  0
   -3.8793   -1.9065    1.3169 H   0  0  0  0  0  0  0  0  0  0  0  0
   -3.4623   -2.6685   -0.2401 H   0  0  0  0  0  0  0  0  0  0  0  0
   -1.7863   -2.0195    0.9119 C   0  0  0  0  0  0  0  0  0  0  0  0
   -0.9073   -2.6615    1.4699 O   0  0  0  0  0  0  0  0  0  0  0  0
   -1.5803   -0.8195    0.3749 N   0  0  0  0  0  0  0  0  0  0  0  0
   -2.3603   -0.3345   -0.0451 H   0  0  0  0  0  0  0  0  0  0  0  0
   -0.2933   -0.1205    0.3719 C   0  0  1  0  0  0  0  0  0  0  0  0
    0.4916   -0.8352    0.1207 H   0  0  0  0  0  0  0  0  0  0  0  0
   -0.3191    0.9746   -0.7139 C   0  0  0  0  0  0  0  0  0  0  0  0
   -1.1916    1.6062   -0.5378 H   0  0  0  0  0  0  0  0  0  0  0  0
    0.5733    1.5952   -0.6204 H   0  0  0  0  0  0  0  0  0  0  0  0
   -0.3854    0.4271   -2.1501 C   0  0  0  0  0  0  0  0  0  0  0  0
    0.4893   -0.1911   -2.3525 H   0  0  0  0  0  0  0  0  0  0  0  0
   -1.2838   -0.1790   -2.2609 H   0  0  0  0  0  0  0  0  0  0  0  0
   -0.4339    1.5404   -3.1916 C   0  0  0  0  0  0  0  0  0  0  0  0
   -0.5445    2.7298   -2.9408 O   0  0  0  0  0  0  0  0  0  0  0  0
   -0.3574    1.1384   -4.4739 O   0  0  0  0  0  0  0  0  0  0  0  0
   -0.4139    1.9425   -4.9930 H   0  0  0  0  0  0  0  0  0  0  0  0
    0.0086    0.4473    1.7680 C   0  0  0  0  0  0  0  0  0  0  0  0
   -0.7518    1.2694    2.2754 O   0  0  0  0  0  0  0  0  0  0  0  0
    1.1200    0.0188    2.3786 N   0  0  0  0  0  0  0  0  0  0  0  0
    1.6835   -0.6744    1.9094 H   0  0  0  0  0  0  0  0  0  0  0  0
    1.5568    0.4779    3.6955 C   0  0  0  0  0  0  0  0  0  0  0  0
    0.7726    0.2899    4.4311 H   0  0  0  0  0  0  0  0  0  0  0  0
    2.4647   -0.0460    3.9977 H   0  0  0  0  0  0  0  0  0  0  0  0
    1.7530    1.5515    3.6652 H   0  0  0  0  0  0  0  0  0  0  0  0
  5  6  2  0  0  0  0
  5  7  1  0  0  0  0
  2  3  1  0  0  0  0
  2  4  1  0  0  0  0
  2  5  1  0  0  0  0
  1  2  1  0  0  0  0
 21 22  2  0  0  0  0
 21 23  1  0  0  0  0
 19 20  1  0  0  0  0
 17 18  2  0  0  0  0
 17 19  1  0  0  0  0
 14 15  1  0  0  0  0
 14 16  1  0  0  0  0
 14 17  1  0  0  0  0
 11 12  1  0  0  0  0
 11 13  1  0  0  0  0
 11 14  1  0  0  0  0
  9 10  1  0  0  0  0
  9 11  1  0  0  0  0
  9 21  1  0  0  0  0
  7  8  1  0  0  0  0
  7  9  1  0  0  0  0
 25 26  1  0  0  0  0
 25 27  1  0  0  0  0
 25 28  1  0  0  0  0
 23 24  1  0  0  0  0
 23 25  1  0  0  0  0
M  END
$$$$
default_name
  -OEChem-01062215323D

 28 27  0     1  0  0  0  0  0999 V2000
   -3.2133   -3.5565    1.2809 H   0  0  0  0  0  0  0  0  0  0  0  0
   -3.1873   -2.5755    0.8089 C   0  0  0  0  0  0  0  0  0  0  0  0
   -3.8793   -1.9065    1.3169 H   0  0  0  0  0  0  0  0  0  0  0  0
   -3.4623   -2.6685   -0.2401 H   0  0  0  0  0  0  0  0  0  0  0  0
   -1.7863   -2.0195    0.9119 C   0  0  0  0  0  0  0  0  0  0  0  0
   -0.9073   -2.6615    1.4699 O   0  0  0  0  0  0  0  0  0  0  0  0
   -1.5803   -0.8195    0.3749 N   0  0  0  0  0  0  0  0  0  0  0  0
   -2.3603   -0.3345   -0.0451 H   0  0  0  0  0  0  0  0  0  0  0  0
   -0.2933   -0.1205    0.3719 C   0  0  1  0  0  0  0  0  0  0  0  0
    0.4916   -0.8352    0.1207 H   0  0  0  0  0  0  0  0  0  0  0  0
   -0.3191    0.9746   -0.7139 C   0  0  0  0  0  0  0  0  0  0  0  0
   -1.1916    1.6062   -0.5378 H   0  0  0  0  0  0  0  0  0  0  0  0
    0.5733    1.5952   -0.6204 H   0  0  0  0  0  0  0  0  0  0  0  0
   -0.3854    0.4271   -2.1501 C   0  0  0  0  0  0  0  0  0  0  0  0
    0.4893   -0.1911   -2.3525 H   0  0  0  0  0  0  0  0  0  0  0  0
   -1.2838   -0.1790   -2.2609 H   0  0  0  0  0  0  0  0  0  0  0  0
   -0.4339    1.5404   -3.1916 C   0  0  0  0  0  0  0  0  0  0  0  0
   -0.5445    2.7298   -2.9408 O   0  0  0  0  0  0  0  0  0  0  0  0
   -0.3574    1.1384   -4.4739 O   0  0  0  0  0  0  0  0  0  0  0  0
   -0.4139    1.9425   -4.9930 H   0  0  0  0  0  0  0  0  0  0  0  0
    0.0086    0.4473    1.7680 C   0  0  0  0  0  0  0  0  0  0  0  0
   -0.8665    1.0446    2.3917 O   0  0  0  0  0  0  0  0  0  0  0  0
    1.2454    0.2713    2.2488 N   0  0  0  0  0  0  0  0  0  0  0  0
    1.9039   -0.2491    1.6887 H   0  0  0  0  0  0  0  0  0  0  0  0
    1.6949    0.7688    3.5474 C   0  0  0  0  0  0  0  0  0  0  0  0
    1.0549    0.3710    4.3370 H   0  0  0  0  0  0  0  0  0  0  0  0
    2.7257    0.4641    3.7338 H   0  0  0  0  0  0  0  0  0  0  0  0
    1.6320    1.8586    3.5665 H   0  0  0  0  0  0  0  0  0  0  0  0
  5  6  2  0  0  0  0
  5  7  1  0  0  0  0
  2  3  1  0  0  0  0
  2  4  1  0  0  0  0
  2  5  1  0  0  0  0
  1  2  1  0  0  0  0
 21 22  2  0  0  0  0
 21 23  1  0  0  0  0
 19 20  1  0  0  0  0
 17 18  2  0  0  0  0
 17 19  1  0  0  0  0
 14 15  1  0  0  0  0
 14 16  1  0  0  0  0
 14 17  1  0  0  0  0
 11 12  1  0  0  0  0
 11 13  1  0  0  0  0
 11 14  1  0  0  0  0
  9 10  1  0  0  0  0
  9 11  1  0  0  0  0
  9 21  1  0  0  0  0
  7  8  1  0  0  0  0
  7  9  1  0  0  0  0
 25 26  1  0  0  0  0
 25 27  1  0  0  0  0
 25 28  1  0  0  0  0
 23 24  1  0  0  0  0
 23 25  1  0  0  0  0
M  END
$$$$
default_name
  -OEChem-01062215323D

 28 27  0     1  0  0  0  0  0999 V2000
   -3.2133   -3.5565    1.2809 H   0  0  0  0  0  0  0  0  0  0  0  0
   -3.1873   -2.5755    0.8089 C   0  0  0  0  0  0  0  0  0  0  0  0
   -3.8793   -1.9065    1.3169 H   0  0  0  0  0  0  0  0  0  0  0  0
   -3.4623   -2.6685   -0.2401 H   0  0  0  0  0  0  0  0  0  0  0  0
   -1.7863   -2.0195    0.9119 C   0  0  0  0  0  0  0  0  0  0  0  0
   -0.9073   -2.6615    1.4699 O   0  0  0  0  0  0  0  0  0  0  0  0
   -1.5803   -0.8195    0.3749 N   0  0  0  0  0  0  0  0  0  0  0  0
   -2.3603   -0.3345   -0.0451 H   0  0  0  0  0  0  0  0  0  0  0  0
   -0.2933   -0.1205    0.3719 C   0  0  1  0  0  0  0  0  0  0  0  0
    0.4916   -0.8352    0.1207 H   0  0  0  0  0  0  0  0  0  0  0  0
   -0.3191    0.9746   -0.7139 C   0  0  0  0  0  0  0  0  0  0  0  0
   -1.1916    1.6062   -0.5378 H   0  0  0  0  0  0  0  0  0  0  0  0
    0.5733    1.5952   -0.6204 H   0  0  0  0  0  0  0  0  0  0  0  0
   -0.3854    0.4271   -2.1501 C   0  0  0  0  0  0  0  0  0  0  0  0
    0.4893   -0.1911   -2.3525 H   0  0  0  0  0  0  0  0  0  0  0  0
   -1.2838   -0.1790   -2.2609 H   0  0  0  0  0  0  0  0  0  0  0  0
   -0.4339    1.5404   -3.1916 C   0  0  0  0  0  0  0  0  0  0  0  0
   -0.5445    2.7298   -2.9408 O   0  0  0  0  0  0  0  0  0  0  0  0
   -0.3574    1.1384   -4.4739 O   0  0  0  0  0  0  0  0  0  0  0  0
   -0.4139    1.9425   -4.9930 H   0  0  0  0  0  0  0  0  0  0  0  0
    0.0086    0.4473    1.7680 C   0  0  0  0  0  0  0  0  0  0  0  0
   -0.9134    0.7945    2.5035 O   0  0  0  0  0  0  0  0  0  0  0  0
    1.2947    0.5514    2.1242 N   0  0  0  0  0  0  0  0  0  0  0  0
    1.9958    0.2247    1.4762 H   0  0  0  0  0  0  0  0  0  0  0  0
    1.7458    1.0898    3.4058 C   0  0  0  0  0  0  0  0  0  0  0  0
    1.2996    0.5206    4.2233 H   0  0  0  0  0  0  0  0  0  0  0  0
    2.8326    1.0316    3.4799 H   0  0  0  0  0  0  0  0  0  0  0  0
    1.4334    2.1318    3.4983 H   0  0  0  0  0  0  0  0  0  0  0  0
  5  6  2  0  0  0  0
  5  7  1  0  0  0  0
  2  3  1  0  0  0  0
  2  4  1  0  0  0  0
  2  5  1  0  0  0  0
  1  2  1  0  0  0  0
 21 22  2  0  0  0  0
 21 23  1  0  0  0  0
 19 20  1  0  0  0  0
 17 18  2  0  0  0  0
 17 19  1  0  0  0  0
 14 15  1  0  0  0  0
 14 16  1  0  0  0  0
 14 17  1  0  0  0  0
 11 12  1  0  0  0  0
 11 13  1  0  0  0  0
 11 14  1  0  0  0  0
  9 10  1  0  0  0  0
  9 11  1  0  0  0  0
  9 21  1  0  0  0  0
  7  8  1  0  0  0  0
  7  9  1  0  0  0  0
 25 26  1  0  0  0  0
 25 27  1  0  0  0  0
 25 28  1  0  0  0  0
 23 24  1  0  0  0  0
 23 25  1  0  0  0  0
M  END
$$$$
default_name
  -OEChem-01062215323D

 28 27  0     1  0  0  0  0  0999 V2000
   -3.2133   -3.5565    1.2809 H   0  0  0  0  0  0  0  0  0  0  0  0
   -3.1873   -2.5755    0.8089 C   0  0  0  0  0  0  0  0  0  0  0  0
   -3.8793   -1.9065    1.3169 H   0  0  0  0  0  0  0  0  0  0  0  0
   -3.4623   -2.6685   -0.2401 H   0  0  0  0  0  0  0  0  0  0  0  0
   -1.7863   -2.0195    0.9119 C   0  0  0  0  0  0  0  0  0  0  0  0
   -0.9073   -2.6615    1.4699 O   0  0  0  0  0  0  0  0  0  0  0  0
   -1.5803   -0.8195    0.3749 N   0  0  0  0  0  0  0  0  0  0  0  0
   -2.3603   -0.3345   -0.0451 H   0  0  0  0  0  0  0  0  0  0  0  0
   -0.2933   -0.1205    0.3719 C   0  0  1  0  0  0  0  0  0  0  0  0
    0.4916   -0.8352    0.1207 H   0  0  0  0  0  0  0  0  0  0  0  0
   -0.3191    0.9746   -0.7139 C   0  0  0  0  0  0  0  0  0  0  0  0
   -1.1916    1.6062   -0.5378 H   0  0  0  0  0  0  0  0  0  0  0  0
    0.5733    1.5952   -0.6204 H   0  0  0  0  0  0  0  0  0  0  0  0
   -0.3854    0.4271   -2.1501 C   0  0  0  0  0  0  0  0  0  0  0  0
    0.4893   -0.1911   -2.3525 H   0  0  0  0  0  0  0  0  0  0  0  0
   -1.2838   -0.1790   -2.2609 H   0  0  0  0  0  0  0  0  0  0  0  0
   -0.4339    1.5404   -3.1916 C   0  0  0  0  0  0  0  0  0  0  0  0
   -0.5445    2.7298   -2.9408 O   0  0  0  0  0  0  0  0  0  0  0  0
   -0.3574    1.1384   -4.4739 O   0  0  0  0  0  0  0  0  0  0  0  0
   -0.4139    1.9425   -4.9930 H   0  0  0  0  0  0  0  0  0  0  0  0
    0.0086    0.4473    1.7680 C   0  0  0  0  0  0  0  0  0  0  0  0
   -0.8892    0.5363    2.6033 O   0  0  0  0  0  0  0  0  0  0  0  0
    1.2645    0.8398    2.0135 N   0  0  0  0  0  0  0  0  0  0  0  0
    1.9528    0.7148    1.2862 H   0  0  0  0  0  0  0  0  0  0  0  0
    1.7060    1.4190    3.2806 C   0  0  0  0  0  0  0  0  0  0  0  0
    1.4899    0.7283    4.0977 H   0  0  0  0  0  0  0  0  0  0  0  0
    2.7783    1.6178    3.2532 H   0  0  0  0  0  0  0  0  0  0  0  0
    1.1708    2.3525    3.4654 H   0  0  0  0  0  0  0  0  0  0  0  0
  5  6  2  0  0  0  0
  5  7  1  0  0  0  0
  2  3  1  0  0  0  0
  2  4  1  0  0  0  0
  2  5  1  0  0  0  0
  1  2  1  0  0  0  0
 21 22  2  0  0  0  0
 21 23  1  0  0  0  0
 19 20  1  0  0  0  0
 17 18  2  0  0  0  0
 17 19  1  0  0  0  0
 14 15  1  0  0  0  0
 14 16  1  0  0  0  0
 14 17  1  0  0  0  0
 11 12  1  0  0  0  0
 11 13  1  0  0  0  0
 11 14  1  0  0  0  0
  9 10  1  0  0  0  0
  9 11  1  0  0  0  0
  9 21  1  0  0  0  0
  7  8  1  0  0  0  0
  7  9  1  0  0  0  0
 25 26  1  0  0  0  0
 25 27  1  0  0  0  0
 25 28  1  0  0  0  0
 23 24  1  0  0  0  0
 23 25  1  0  0  0  0
M  END
$$$$
default_name
  -OEChem-01062215323D

 28 27  0     1  0  0  0  0  0999 V2000
   -3.2133   -3.5565    1.2809 H   0  0  0  0  0  0  0  0  0  0  0  0
   -3.1873   -2.5755    0.8089 C   0  0  0  0  0  0  0  0  0  0  0  0
   -3.8793   -1.9065    1.3169 H   0  0  0  0  0  0  0  0  0  0  0  0
   -3.4623   -2.6685   -0.2401 H   0  0  0  0  0  0  0  0  0  0  0  0
   -1.7863   -2.0195    0.9119 C   0  0  0  0  0  0  0  0  0  0  0  0
   -0.9073   -2.6615    1.4699 O   0  0  0  0  0  0  0  0  0  0  0  0
   -1.5803   -0.8195    0.3749 N   0  0  0  0  0  0  0  0  0  0  0  0
   -2.3603   -0.3345   -0.0451 H   0  0  0  0  0  0  0  0  0  0  0  0
   -0.2933   -0.1205    0.3719 C   0  0  1  0  0  0  0  0  0  0  0  0
    0.4439   -0.7485   -0.1303 H   0  0  0  0  0  0  0  0  0  0  0  0
   -0.4368    1.1924   -0.4246 C   0  0  0  0  0  0  0  0  0  0  0  0
   -1.2714    1.7553   -0.0031 H   0  0  0  0  0  0  0  0  0  0  0  0
    0.4695    1.7877   -0.3036 H   0  0  0  0  0  0  0  0  0  0  0  0
   -0.6880    0.9851   -1.9283 C   0  0  0  0  0  0  0  0  0  0  0  0
    0.1458    0.4412   -2.3724 H   0  0  0  0  0  0  0  0  0  0  0  0
   -1.6020    0.4078   -2.0621 H   0  0  0  0  0  0  0  0  0  0  0  0
   -0.8481    2.3053   -2.6752 C   0  0  0  0  0  0  0  0  0  0  0  0
   -0.9093    3.4049   -2.1487 O   0  0  0  0  0  0  0  0  0  0  0  0
   -0.9366    2.2067   -4.0146 O   0  0  0  0  0  0  0  0  0  0  0  0
   -1.0448    3.1070   -4.3262 H   0  0  0  0  0  0  0  0  0  0  0  0
    0.1871    0.1189    1.8122 C   0  0  0  0  0  0  0  0  0  0  0  0
   -0.5001   -0.2561    2.7603 O   0  0  0  0  0  0  0  0  0  0  0  0
    1.3558    0.7512    1.9733 N   0  0  0  0  0  0  0  0  0  0  0  0
    1.8750    1.0090    1.1473 H   0  0  0  0  0  0  0  0  0  0  0  0
    1.9378    1.0722    3.2749 C   0  0  0  0  0  0  0  0  0  0  0  0
    2.0585    0.1592    3.8608 H   0  0  0  0  0  0  0  0  0  0  0  0
    2.9113    1.5479    3.1478 H   0  0  0  0  0  0  0  0  0  0  0  0
    1.2746    1.7477    3.8187 H   0  0  0  0  0  0  0  0  0  0  0  0
  5  6  2  0  0  0  0
  5  7  1  0  0  0  0
  2  3  1  0  0  0  0
  2  4  1  0  0  0  0
  2  5  1  0  0  0  0
  1  2  1  0  0  0  0
 21 22  2  0  0  0  0
 21 23  1  0  0  0  0
 19 20  1  0  0  0  0
 17 18  2  0  0  0  0
 17 19  1  0  0  0  0
 14 15  1  0  0  0  0
 14 16  1  0  0  0  0
 14 17  1  0  0  0  0
 11 12  1  0  0  0  0
 11 13  1  0  0  0  0
 11 14  1  0  0  0  0
  9 10  1  0  0  0  0
  9 11  1  0  0  0  0
  9 21  1  0  0  0  0
  7  8  1  0  0  0  0
  7  9  1  0  0  0  0
 25 26  1  0  0  0  0
 25 27  1  0  0  0  0
 25 28  1  0  0  0  0
 23 24  1  0  0  0  0
 23 25  1  0  0  0  0
M  END
$$$$
default_name
  -OEChem-01062215323D

 28 27  0     1  0  0  0  0  0999 V2000
   -3.2133   -3.5565    1.2809 H   0  0  0  0  0  0  0  0  0  0  0  0
   -3.1873   -2.5755    0.8089 C   0  0  0  0  0  0  0  0  0  0  0  0
   -3.8793   -1.9065    1.3169 H   0  0  0  0  0  0  0  0  0  0  0  0
   -3.4623   -2.6685   -0.2401 H   0  0  0  0  0  0  0  0  0  0  0  0
   -1.7863   -2.0195    0.9119 C   0  0  0  0  0  0  0  0  0  0  0  0
   -0.9073   -2.6615    1.4699 O   0  0  0  0  0  0  0  0  0  0  0  0
   -1.5803   -0.8195    0.3749 N   0  0  0  0  0  0  0  0  0  0  0  0
   -2.3603   -0.3345   -0.0451 H   0  0  0  0  0  0  0  0  0  0  0  0
   -0.2933   -0.1205    0.3719 C   0  0  1  0  0  0  0  0  0  0  0  0
    0.4439   -0.7485   -0.1303 H   0  0  0  0  0  0  0  0  0  0  0  0
   -0.4368    1.1924   -0.4246 C   0  0  0  0  0  0  0  0  0  0  0  0
   -1.2714    1.7553   -0.0031 H   0  0  0  0  0  0  0  0  0  0  0  0
    0.4695    1.7877   -0.3036 H   0  0  0  0  0  0  0  0  0  0  0  0
   -0.6880    0.9851   -1.9283 C   0  0  0  0  0  0  0  0  0  0  0  0
    0.1458    0.4412   -2.3724 H   0  0  0  0  0  0  0  0  0  0  0  0
   -1.6020    0.4078   -2.0621 H   0  0  0  0  0  0  0  0  0  0  0  0
   -0.8481    2.3053   -2.6752 C   0  0  0  0  0  0  0  0  0  0  0  0
   -0.9093    3.4049   -2.1487 O   0  0  0  0  0  0  0  0  0  0  0  0
   -0.9366    2.2067   -4.0146 O   0  0  0  0  0  0  0  0  0  0  0  0
   -1.0448    3.1070   -4.3262 H   0  0  0  0  0  0  0  0  0  0  0  0
    0.1871    0.1189    1.8122 C   0  0  0  0  0  0  0  0  0  0  0  0
   -0.3410   -0.4834    2.7450 O   0  0  0  0  0  0  0  0  0  0  0  0
    1.1756    1.0033    1.9914 N   0  0  0  0  0  0  0  0  0  0  0  0
    1.5752    1.4421    1.1753 H   0  0  0  0  0  0  0  0  0  0  0  0
    1.7279    1.3570    3.2975 C   0  0  0  0  0  0  0  0  0  0  0  0
    2.0943    0.4593    3.7990 H   0  0  0  0  0  0  0  0  0  0  0  0
    2.5505    2.0642    3.1823 H   0  0  0  0  0  0  0  0  0  0  0  0
    0.9497    1.8068    3.9172 H   0  0  0  0  0  0  0  0  0  0  0  0
  5  6  2  0  0  0  0
  5  7  1  0  0  0  0
  2  3  1  0  0  0  0
  2  4  1  0  0  0  0
  2  5  1  0  0  0  0
  1  2  1  0  0  0  0
 21 22  2  0  0  0  0
 21 23  1  0  0  0  0
 19 20  1  0  0  0  0
 17 18  2  0  0  0  0
 17 19  1  0  0  0  0
 14 15  1  0  0  0  0
 14 16  1  0  0  0  0
 14 17  1  0  0  0  0
 11 12  1  0  0  0  0
 11 13  1  0  0  0  0
 11 14  1  0  0  0  0
  9 10  1  0  0  0  0
  9 11  1  0  0  0  0
  9 21  1  0  0  0  0
  7  8  1  0  0  0  0
  7  9  1  0  0  0  0
 25 26  1  0  0  0  0
 25 27  1  0  0  0  0
 25 28  1  0  0  0  0
 23 24  1  0  0  0  0
 23 25  1  0  0  0  0
M  END
$$$$
default_name
  -OEChem-01062215323D

 28 27  0     1  0  0  0  0  0999 V2000
   -3.2133   -3.5565    1.2809 H   0  0  0  0  0  0  0  0  0  0  0  0
   -3.1873   -2.5755    0.8089 C   0  0  0  0  0  0  0  0  0  0  0  0
   -3.8793   -1.9065    1.3169 H   0  0  0  0  0  0  0  0  0  0  0  0
   -3.4623   -2.6685   -0.2401 H   0  0  0  0  0  0  0  0  0  0  0  0
   -1.7863   -2.0195    0.9119 C   0  0  0  0  0  0  0  0  0  0  0  0
   -0.9073   -2.6615    1.4699 O   0  0  0  0  0  0  0  0  0  0  0  0
   -1.5803   -0.8195    0.3749 N   0  0  0  0  0  0  0  0  0  0  0  0
   -2.3603   -0.3345   -0.0451 H   0  0  0  0  0  0  0  0  0  0  0  0
   -0.2933   -0.1205    0.3719 C   0  0  1  0  0  0  0  0  0  0  0  0
    0.4439   -0.7485   -0.1303 H   0  0  0  0  0  0  0  0  0  0  0  0
   -0.4368    1.1924   -0.4246 C   0  0  0  0  0  0  0  0  0  0  0  0
   -1.2714    1.7553   -0.0031 H   0  0  0  0  0  0  0  0  0  0  0  0
    0.4695    1.7877   -0.3036 H   0  0  0  0  0  0  0  0  0  0  0  0
   -0.6880    0.9851   -1.9283 C   0  0  0  0  0  0  0  0  0  0  0  0
    0.1458    0.4412   -2.3724 H   0  0  0  0  0  0  0  0  0  0  0  0
   -1.6020    0.4078   -2.0621 H   0  0  0  0  0  0  0  0  0  0  0  0
   -0.8481    2.3053   -2.6752 C   0  0  0  0  0  0  0  0  0  0  0  0
   -0.9093    3.4049   -2.1487 O   0  0  0  0  0  0  0  0  0  0  0  0
   -0.9366    2.2067   -4.0146 O   0  0  0  0  0  0  0  0  0  0  0  0
   -1.0448    3.1070   -4.3262 H   0  0  0  0  0  0  0  0  0  0  0  0
    0.1871    0.1189    1.8122 C   0  0  0  0  0  0  0  0  0  0  0  0
   -0.1327   -0.6632    2.7054 O   0  0  0  0  0  0  0  0  0  0  0  0
    0.9412    1.2017    2.0366 N   0  0  0  0  0  0  0  0  0  0  0  0
    1.1818    1.7854    1.2495 H   0  0  0  0  0  0  0  0  0  0  0  0
    1.4570    1.5793    3.3509 C   0  0  0  0  0  0  0  0  0  0  0  0
    2.0535    0.7629    3.7621 H   0  0  0  0  0  0  0  0  0  0  0  0
    2.0781    2.4726    3.2720 H   0  0  0  0  0  0  0  0  0  0  0  0
    0.6255    1.7771    4.0303 H   0  0  0  0  0  0  0  0  0  0  0  0
  5  6  2  0  0  0  0
  5  7  1  0  0  0  0
  2  3  1  0  0  0  0
  2  4  1  0  0  0  0
  2  5  1  0  0  0  0
  1  2  1  0  0  0  0
 21 22  2  0  0  0  0
 21 23  1  0  0  0  0
 19 20  1  0  0  0  0
 17 18  2  0  0  0  0
 17 19  1  0  0  0  0
 14 15  1  0  0  0  0
 14 16  1  0  0  0  0
 14 17  1  0  0  0  0
 11 12  1  0  0  0  0
 11 13  1  0  0  0  0
 11 14  1  0  0  0  0
  9 10  1  0  0  0  0
  9 11  1  0  0  0  0
  9 21  1  0  0  0  0
  7  8  1  0  0  0  0
  7  9  1  0  0  0  0
 25 26  1  0  0  0  0
 25 27  1  0  0  0  0
 25 28  1  0  0  0  0
 23 24  1  0  0  0  0
 23 25  1  0  0  0  0
M  END
$$$$
default_name
  -OEChem-01062215323D

 28 27  0     1  0  0  0  0  0999 V2000
   -3.2133   -3.5565    1.2809 H   0  0  0  0  0  0  0  0  0  0  0  0
   -3.1873   -2.5755    0.8089 C   0  0  0  0  0  0  0  0  0  0  0  0
   -3.8793   -1.9065    1.3169 H   0  0  0  0  0  0  0  0  0  0  0  0
   -3.4623   -2.6685   -0.2401 H   0  0  0  0  0  0  0  0  0  0  0  0
   -1.7863   -2.0195    0.9119 C   0  0  0  0  0  0  0  0  0  0  0  0
   -0.9073   -2.6615    1.4699 O   0  0  0  0  0  0  0  0  0  0  0  0
   -1.5803   -0.8195    0.3749 N   0  0  0  0  0  0  0  0  0  0  0  0
   -2.3603   -0.3345   -0.0451 H   0  0  0  0  0  0  0  0  0  0  0  0
   -0.2933   -0.1205    0.3719 C   0  0  1  0  0  0  0  0  0  0  0  0
    0.4439   -0.7485   -0.1303 H   0  0  0  0  0  0  0  0  0  0  0  0
   -0.4368    1.1924   -0.4246 C   0  0  0  0  0  0  0  0  0  0  0  0
   -1.2714    1.7553   -0.0031 H   0  0  0  0  0  0  0  0  0  0  0  0
    0.4695    1.7877   -0.3036 H   0  0  0  0  0  0  0  0  0  0  0  0
   -0.6880    0.9851   -1.9283 C   0  0  0  0  0  0  0  0  0  0  0  0
    0.1458    0.4412   -2.3724 H   0  0  0  0  0  0  0  0  0  0  0  0
   -1.6020    0.4078   -2.0621 H   0  0  0  0  0  0  0  0  0  0  0  0
   -0.8481    2.3053   -2.6752 C   0  0  0  0  0  0  0  0  0  0  0  0
   -0.9093    3.4049   -2.1487 O   0  0  0  0  0  0  0  0  0  0  0  0
   -0.9366    2.2067   -4.0146 O   0  0  0  0  0  0  0  0  0  0  0  0
   -1.0448    3.1070   -4.3262 H   0  0  0  0  0  0  0  0  0  0  0  0
    0.1871    0.1189    1.8122 C   0  0  0  0  0  0  0  0  0  0  0  0
    0.1104   -0.7831    2.6442 O   0  0  0  0  0  0  0  0  0  0  0  0
    0.6685    1.3328    2.1058 N   0  0  0  0  0  0  0  0  0  0  0  0
    0.7215    2.0156    1.3647 H   0  0  0  0  0  0  0  0  0  0  0  0
    1.1436    1.7240    3.4314 C   0  0  0  0  0  0  0  0  0  0  0  0
    1.9391    1.0492    3.7527 H   0  0  0  0  0  0  0  0  0  0  0  0
    1.5265    2.7453    3.4106 H   0  0  0  0  0  0  0  0  0  0  0  0
    0.3242    1.6606    4.1501 H   0  0  0  0  0  0  0  0  0  0  0  0
  5  6  2  0  0  0  0
  5  7  1  0  0  0  0
  2  3  1  0  0  0  0
  2  4  1  0  0  0  0
  2  5  1  0  0  0  0
  1  2  1  0  0  0  0
 21 22  2  0  0  0  0
 21 23  1  0  0  0  0
 19 20  1  0  0  0  0
 17 18  2  0  0  0  0
 17 19  1  0  0  0  0
 14 15  1  0  0  0  0
 14 16  1  0  0  0  0
 14 17  1  0  0  0  0
 11 12  1  0  0  0  0
 11 13  1  0  0  0  0
 11 14  1  0  0  0  0
  9 10  1  0  0  0  0
  9 11  1  0  0  0  0
  9 21  1  0  0  0  0
  7  8  1  0  0  0  0
  7  9  1  0  0  0  0
 25 26  1  0  0  0  0
 25 27  1  0  0  0  0
 25 28  1  0  0  0  0
 23 24  1  0  0  0  0
 23 25  1  0  0  0  0
M  END
$$$$
default_name
  -OEChem-01062215323D

 28 27  0     1  0  0  0  0  0999 V2000
   -3.2133   -3.5565    1.2809 H   0  0  0  0  0  0  0  0  0  0  0  0
   -3.1873   -2.5755    0.8089 C   0  0  0  0  0  0  0  0  0  0  0  0
   -3.8793   -1.9065    1.3169 H   0  0  0  0  0  0  0  0  0  0  0  0
   -3.4623   -2.6685   -0.2401 H   0  0  0  0  0  0  0  0  0  0  0  0
   -1.7863   -2.0195    0.9119 C   0  0  0  0  0  0  0  0  0  0  0  0
   -0.9073   -2.6615    1.4699 O   0  0  0  0  0  0  0  0  0  0  0  0
   -1.5803   -0.8195    0.3749 N   0  0  0  0  0  0  0  0  0  0  0  0
   -2.3603   -0.3345   -0.0451 H   0  0  0  0  0  0  0  0  0  0  0  0
   -0.2933   -0.1205    0.3719 C   0  0  1  0  0  0  0  0  0  0  0  0
    0.4439   -0.7485   -0.1303 H   0  0  0  0  0  0  0  0  0  0  0  0
   -0.4368    1.1924   -0.4246 C   0  0  0  0  0  0  0  0  0  0  0  0
   -1.2714    1.7553   -0.0031 H   0  0  0  0  0  0  0  0  0  0  0  0
    0.4695    1.7877   -0.3036 H   0  0  0  0  0  0  0  0  0  0  0  0
   -0.6880    0.9851   -1.9283 C   0  0  0  0  0  0  0  0  0  0  0  0
    0.1458    0.4412   -2.3724 H   0  0  0  0  0  0  0  0  0  0  0  0
   -1.6020    0.4078   -2.0621 H   0  0  0  0  0  0  0  0  0  0  0  0
   -0.8481    2.3053   -2.6752 C   0  0  0  0  0  0  0  0  0  0  0  0
   -0.9093    3.4049   -2.1487 O   0  0  0  0  0  0  0  0  0  0  0  0
   -0.9366    2.2067   -4.0146 O   0  0  0  0  0  0  0  0  0  0  0  0
   -1.0448    3.1070   -4.3262 H   0  0  0  0  0  0  0  0  0  0  0  0
    0.1871    0.1189    1.8122 C   0  0  0  0  0  0  0  0  0  0  0  0
    0.3719   -0.8350    2.5657 O   0  0  0  0  0  0  0  0  0  0  0  0
    0.3761    1.3877    2.1942 N   0  0  0  0  0  0  0  0  0  0  0  0
    0.2257    2.1170    1.5132 H   0  0  0  0  0  0  0  0  0  0  0  0
    0.8090    1.7813    3.5335 C   0  0  0  0  0  0  0  0  0  0  0  0
    1.7587    1.2988    3.7714 H   0  0  0  0  0  0  0  0  0  0  0  0
    0.9330    2.8637    3.5889 H   0  0  0  0  0  0  0  0  0  0  0  0
    0.0662    1.4654    4.2686 H   0  0  0  0  0  0  0  0  0  0  0  0
  5  6  2  0  0  0  0
  5  7  1  0  0  0  0
  2  3  1  0  0  0  0
  2  4  1  0  0  0  0
  2  5  1  0  0  0  0
  1  2  1  0  0  0  0
 21 22  2  0  0  0  0
 21 23  1  0  0  0  0
 19 20  1  0  0  0  0
 17 18  2  0  0  0  0
 17 19  1  0  0  0  0
 14 15  1  0  0  0  0
 14 16  1  0  0  0  0
 14 17  1  0  0  0  0
 11 12  1  0  0  0  0
 11 13  1  0  0  0  0
 11 14  1  0  0  0  0
  9 10  1  0  0  0  0
  9 11  1  0  0  0  0
  9 21  1  0  0  0  0
  7  8  1  0  0  0  0
  7  9  1  0  0  0  0
 25 26  1  0  0  0  0
 25 27  1  0  0  0  0
 25 28  1  0  0  0  0
 23 24  1  0  0  0  0
 23 25  1  0  0  0  0
M  END
$$$$
default_name
  -OEChem-01062215323D

 28 27  0     1  0  0  0  0  0999 V2000
   -3.2133   -3.5565    1.2809 H   0  0  0  0  0  0  0  0  0  0  0  0
   -3.1873   -2.5755    0.8089 C   0  0  0  0  0  0  0  0  0  0  0  0
   -3.8793   -1.9065    1.3169 H   0  0  0  0  0  0  0  0  0  0  0  0
   -3.4623   -2.6685   -0.2401 H   0  0  0  0  0  0  0  0  0  0  0  0
   -1.7863   -2.0195    0.9119 C   0  0  0  0  0  0  0  0  0  0  0  0
   -0.9073   -2.6615    1.4699 O   0  0  0  0  0  0  0  0  0  0  0  0
   -1.5803   -0.8195    0.3749 N   0  0  0  0  0  0  0  0  0  0  0  0
   -2.3603   -0.3345   -0.0451 H   0  0  0  0  0  0  0  0  0  0  0  0
   -0.2933   -0.1205    0.3719 C   0  0  1  0  0  0  0  0  0  0  0  0
    0.4439   -0.7485   -0.1303 H   0  0  0  0  0  0  0  0  0  0  0  0
   -0.4368    1.1924   -0.4246 C   0  0  0  0  0  0  0  0  0  0  0  0
   -1.2714    1.7553   -0.0031 H   0  0  0  0  0  0  0  0  0  0  0  0
    0.4695    1.7877   -0.3036 H   0  0  0  0  0  0  0  0  0  0  0  0
   -0.6880    0.9851   -1.9283 C   0  0  0  0  0  0  0  0  0  0  0  0
    0.1458    0.4412   -2.3724 H   0  0  0  0  0  0  0  0  0  0  0  0
   -1.6020    0.4078   -2.0621 H   0  0  0  0  0  0  0  0  0  0  0  0
   -0.8481    2.3053   -2.6752 C   0  0  0  0  0  0  0  0  0  0  0  0
   -0.9093    3.4049   -2.1487 O   0  0  0  0  0  0  0  0  0  0  0  0
   -0.9366    2.2067   -4.0146 O   0  0  0  0  0  0  0  0  0  0  0  0
   -1.0448    3.1070   -4.3262 H   0  0  0  0  0  0  0  0  0  0  0  0
    0.1871    0.1189    1.8122 C   0  0  0  0  0  0  0  0  0  0  0  0
    0.6338   -0.8153    2.4750 O   0  0  0  0  0  0  0  0  0  0  0  0
    0.0839    1.3627    2.2958 N   0  0  0  0  0  0  0  0  0  0  0  0
   -0.2718    2.0827    1.6849 H   0  0  0  0  0  0  0  0  0  0  0  0
    0.4760    1.7472    3.6502 C   0  0  0  0  0  0  0  0  0  0  0  0
    1.5247    1.4946    3.8169 H   0  0  0  0  0  0  0  0  0  0  0  0
    0.3383    2.8198    3.7945 H   0  0  0  0  0  0  0  0  0  0  0  0
   -0.1309    1.2046    4.3777 H   0  0  0  0  0  0  0  0  0  0  0  0
  5  6  2  0  0  0  0
  5  7  1  0  0  0  0
  2  3  1  0  0  0  0
  2  4  1  0  0  0  0
  2  5  1  0  0  0  0
  1  2  1  0  0  0  0
 21 22  2  0  0  0  0
 21 23  1  0  0  0  0
 19 20  1  0  0  0  0
 17 18  2  0  0  0  0
 17 19  1  0  0  0  0
 14 15  1  0  0  0  0
 14 16  1  0  0  0  0
 14 17  1  0  0  0  0
 11 12  1  0  0  0  0
 11 13  1  0  0  0  0
 11 14  1  0  0  0  0
  9 10  1  0  0  0  0
  9 11  1  0  0  0  0
  9 21  1  0  0  0  0
  7  8  1  0  0  0  0
  7  9  1  0  0  0  0
 25 26  1  0  0  0  0
 25 27  1  0  0  0  0
 25 28  1  0  0  0  0
 23 24  1  0  0  0  0
 23 25  1  0  0  0  0
M  END
$$$$
default_name
  -OEChem-01062215323D

 28 27  0     1  0  0  0  0  0999 V2000
   -3.2133   -3.5565    1.2809 H   0  0  0  0  0  0  0  0  0  0  0  0
   -3.1873   -2.5755    0.8089 C   0  0  0  0  0  0  0  0  0  0  0  0
   -3.8793   -1.9065    1.3169 H   0  0  0  0  0  0  0  0  0  0  0  0
   -3.4623   -2.6685   -0.2401 H   0  0  0  0  0  0  0  0  0  0  0  0
   -1.7863   -2.0195    0.9119 C   0  0  0  0  0  0  0  0  0  0  0  0
   -0.9073   -2.6615    1.4699 O   0  0  0  0  0  0  0  0  0  0  0  0
   -1.5803   -0.8195    0.3749 N   0  0  0  0  0  0  0  0  0  0  0  0
   -2.3603   -0.3345   -0.0451 H   0  0  0  0  0  0  0  0  0  0  0  0
   -0.2933   -0.1205    0.3719 C   0  0  1  0  0  0  0  0  0  0  0  0
    0.4439   -0.7485   -0.1303 H   0  0  0  0  0  0  0  0  0  0  0  0
   -0.4368    1.1924   -0.4246 C   0  0  0  0  0  0  0  0  0  0  0  0
   -1.2714    1.7553   -0.0031 H   0  0  0  0  0  0  0  0  0  0  0  0
    0.4695    1.7877   -0.3036 H   0  0  0  0  0  0  0  0  0  0  0  0
   -0.6880    0.9851   -1.9283 C   0  0  0  0  0  0  0  0  0  0  0  0
    0.1458    0.4412   -2.3724 H   0  0  0  0  0  0  0  0  0  0  0  0
   -1.6020    0.4078   -2.0621 H   0  0  0  0  0  0  0  0  0  0  0  0
   -0.8481    2.3053   -2.6752 C   0  0  0  0  0  0  0  0  0  0  0  0
   -0.9093    3.4049   -2.1487 O   0  0  0  0  0  0  0  0  0  0  0  0
   -0.9366    2.2067   -4.0146 O   0  0  0  0  0  0  0  0  0  0  0  0
   -1.0448    3.1070   -4.3262 H   0  0  0  0  0  0  0  0  0  0  0  0
    0.1871    0.1189    1.8122 C   0  0  0  0  0  0  0  0  0  0  0  0
    0.8785   -0.7255    2.3785 O   0  0  0  0  0  0  0  0  0  0  0  0
   -0.1882    1.2594    2.4038 N   0  0  0  0  0  0  0  0  0  0  0  0
   -0.7371    1.9151    1.8679 H   0  0  0  0  0  0  0  0  0  0  0  0
    0.1673    1.6241    3.7736 C   0  0  0  0  0  0  0  0  0  0  0  0
    1.2531    1.6233    3.8861 H   0  0  0  0  0  0  0  0  0  0  0  0
   -0.2172    2.6164    4.0136 H   0  0  0  0  0  0  0  0  0  0  0  0
   -0.2536    0.8961    4.4699 H   0  0  0  0  0  0  0  0  0  0  0  0
  5  6  2  0  0  0  0
  5  7  1  0  0  0  0
  2  3  1  0  0  0  0
  2  4  1  0  0  0  0
  2  5  1  0  0  0  0
  1  2  1  0  0  0  0
 21 22  2  0  0  0  0
 21 23  1  0  0  0  0
 19 20  1  0  0  0  0
 17 18  2  0  0  0  0
 17 19  1  0  0  0  0
 14 15  1  0  0  0  0
 14 16  1  0  0  0  0
 14 17  1  0  0  0  0
 11 12  1  0  0  0  0
 11 13  1  0  0  0  0
 11 14  1  0  0  0  0
  9 10  1  0  0  0  0
  9 11  1  0  0  0  0
  9 21  1  0  0  0  0
  7  8  1  0  0  0  0
  7  9  1  0  0  0  0
 25 26  1  0  0  0  0
 25 27  1  0  0  0  0
 25 28  1  0  0  0  0
 23 24  1  0  0  0  0
 23 25  1  0  0  0  0
M  END
$$$$
default_name
  -OEChem-01062215323D

 28 27  0     1  0  0  0  0  0999 V2000
   -3.2133   -3.5565    1.2809 H   0  0  0  0  0  0  0  0  0  0  0  0
   -3.1873   -2.5755    0.8089 C   0  0  0  0  0  0  0  0  0  0  0  0
   -3.8793   -1.9065    1.3169 H   0  0  0  0  0  0  0  0  0  0  0  0
   -3.4623   -2.6685   -0.2401 H   0  0  0  0  0  0  0  0  0  0  0  0
   -1.7863   -2.0195    0.9119 C   0  0  0  0  0  0  0  0  0  0  0  0
   -0.9073   -2.6615    1.4699 O   0  0  0  0  0  0  0  0  0  0  0  0
   -1.5803   -0.8195    0.3749 N   0  0  0  0  0  0  0  0  0  0  0  0
   -2.3603   -0.3345   -0.0451 H   0  0  0  0  0  0  0  0  0  0  0  0
   -0.2933   -0.1205    0.3719 C   0  0  1  0  0  0  0  0  0  0  0  0
    0.4439   -0.7485   -0.1303 H   0  0  0  0  0  0  0  0  0  0  0  0
   -0.4368    1.1924   -0.4246 C   0  0  0  0  0  0  0  0  0  0  0  0
   -1.2714    1.7553   -0.0031 H   0  0  0  0  0  0  0  0  0  0  0  0
    0.4695    1.7877   -0.3036 H   0  0  0  0  0  0  0  0  0  0  0  0
   -0.6880    0.9851   -1.9283 C   0  0  0  0  0  0  0  0  0  0  0  0
    0.1458    0.4412   -2.3724 H   0  0  0  0  0  0  0  0  0  0  0  0
   -1.6020    0.4078   -2.0621 H   0  0  0  0  0  0  0  0  0  0  0  0
   -0.8481    2.3053   -2.6752 C   0  0  0  0  0  0  0  0  0  0  0  0
   -0.9093    3.4049   -2.1487 O   0  0  0  0  0  0  0  0  0  0  0  0
   -0.9366    2.2067   -4.0146 O   0  0  0  0  0  0  0  0  0  0  0  0
   -1.0448    3.1070   -4.3262 H   0  0  0  0  0  0  0  0  0  0  0  0
    0.1871    0.1189    1.8122 C   0  0  0  0  0  0  0  0  0  0  0  0
    1.0891   -0.5716    2.2827 O   0  0  0  0  0  0  0  0  0  0  0  0
   -0.4217    1.0850    2.5106 N   0  0  0  0  0  0  0  0  0  0  0  0
   -1.1385    1.6254    2.0499 H   0  0  0  0  0  0  0  0  0  0  0  0
   -0.0960    1.4203    3.8953 C   0  0  0  0  0  0  0  0  0  0  0  0
    0.9622    1.6762    3.9743 H   0  0  0  0  0  0  0  0  0  0  0  0
   -0.6956    2.2675    4.2312 H   0  0  0  0  0  0  0  0  0  0  0  0
   -0.2936    0.5609    4.5390 H   0  0  0  0  0  0  0  0  0  0  0  0
  5  6  2  0  0  0  0
  5  7  1  0  0  0  0
  2  3  1  0  0  0  0
  2  4  1  0  0  0  0
  2  5  1  0  0  0  0
  1  2  1  0  0  0  0
 21 22  2  0  0  0  0
 21 23  1  0  0  0  0
 19 20  1  0  0  0  0
 17 18  2  0  0  0  0
 17 19  1  0  0  0  0
 14 15  1  0  0  0  0
 14 16  1  0  0  0  0
 14 17  1  0  0  0  0
 11 12  1  0  0  0  0
 11 13  1  0  0  0  0
 11 14  1  0  0  0  0
  9 10  1  0  0  0  0
  9 11  1  0  0  0  0
  9 21  1  0  0  0  0
  7  8  1  0  0  0  0
  7  9  1  0  0  0  0
 25 26  1  0  0  0  0
 25 27  1  0  0  0  0
 25 28  1  0  0  0  0
 23 24  1  0  0  0  0
 23 25  1  0  0  0  0
M  END
$$$$
default_name
  -OEChem-01062215323D

 28 27  0     1  0  0  0  0  0999 V2000
   -3.2133   -3.5565    1.2809 H   0  0  0  0  0  0  0  0  0  0  0  0
   -3.1873   -2.5755    0.8089 C   0  0  0  0  0  0  0  0  0  0  0  0
   -3.8793   -1.9065    1.3169 H   0  0  0  0  0  0  0  0  0  0  0  0
   -3.4623   -2.6685   -0.2401 H   0  0  0  0  0  0  0  0  0  0  0  0
   -1.7863   -2.0195    0.9119 C   0  0  0  0  0  0  0  0  0  0  0  0
   -0.9073   -2.6615    1.4699 O   0  0  0  0  0  0  0  0  0  0  0  0
   -1.5803   -0.8195    0.3749 N   0  0  0  0  0  0  0  0  0  0  0  0
   -2.3603   -0.3345   -0.0451 H   0  0  0  0  0  0  0  0  0  0  0  0
   -0.2933   -0.1205    0.3719 C   0  0  1  0  0  0  0  0  0  0  0  0
    0.4439   -0.7485   -0.1303 H   0  0  0  0  0  0  0  0  0  0  0  0
   -0.4368    1.1924   -0.4246 C   0  0  0  0  0  0  0  0  0  0  0  0
   -1.2714    1.7553   -0.0031 H   0  0  0  0  0  0  0  0  0  0  0  0
    0.4695    1.7877   -0.3036 H   0  0  0  0  0  0  0  0  0  0  0  0
   -0.6880    0.9851   -1.9283 C   0  0  0  0  0  0  0  0  0  0  0  0
    0.1458    0.4412   -2.3724 H   0  0  0  0  0  0  0  0  0  0  0  0
   -1.6020    0.4078   -2.0621 H   0  0  0  0  0  0  0  0  0  0  0  0
   -0.8481    2.3053   -2.6752 C   0  0  0  0  0  0  0  0  0  0  0  0
   -0.9093    3.4049   -2.1487 O   0  0  0  0  0  0  0  0  0  0  0  0
   -0.9366    2.2067   -4.0146 O   0  0  0  0  0  0  0  0  0  0  0  0
   -1.0448    3.1070   -4.3262 H   0  0  0  0  0  0  0  0  0  0  0  0
    0.1871    0.1189    1.8122 C   0  0  0  0  0  0  0  0  0  0  0  0
    1.2513   -0.3641    2.1941 O   0  0  0  0  0  0  0  0  0  0  0  0
   -0.6005    0.8512    2.6091 N   0  0  0  0  0  0  0  0  0  0  0  0
   -1.4487    1.2336    2.2185 H   0  0  0  0  0  0  0  0  0  0  0  0
   -0.2960    1.1498    4.0070 C   0  0  0  0  0  0  0  0  0  0  0  0
    0.6720    1.6495    4.0755 H   0  0  0  0  0  0  0  0  0  0  0  0
   -1.0644    1.7969    4.4324 H   0  0  0  0  0  0  0  0  0  0  0  0
   -0.2482    0.2218    4.5802 H   0  0  0  0  0  0  0  0  0  0  0  0
  5  6  2  0  0  0  0
  5  7  1  0  0  0  0
  2  3  1  0  0  0  0
  2  4  1  0  0  0  0
  2  5  1  0  0  0  0
  1  2  1  0  0  0  0
 21 22  2  0  0  0  0
 21 23  1  0  0  0  0
 19 20  1  0  0  0  0
 17 18  2  0  0  0  0
 17 19  1  0  0  0  0
 14 15  1  0  0  0  0
 14 16  1  0  0  0  0
 14 17  1  0  0  0  0
 11 12  1  0  0  0  0
 11 13  1  0  0  0  0
 11 14  1  0  0  0  0
  9 10  1  0  0  0  0
  9 11  1  0  0  0  0
  9 21  1  0  0  0  0
  7  8  1  0  0  0  0
  7  9  1  0  0  0  0
 25 26  1  0  0  0  0
 25 27  1  0  0  0  0
 25 28  1  0  0  0  0
 23 24  1  0  0  0  0
 23 25  1  0  0  0  0
M  END
$$$$
default_name
  -OEChem-01062215323D

 28 27  0     1  0  0  0  0  0999 V2000
   -3.2133   -3.5565    1.2809 H   0  0  0  0  0  0  0  0  0  0  0  0
   -3.1873   -2.5755    0.8089 C   0  0  0  0  0  0  0  0  0  0  0  0
   -3.8793   -1.9065    1.3169 H   0  0  0  0  0  0  0  0  0  0  0  0
   -3.4623   -2.6685   -0.2401 H   0  0  0  0  0  0  0  0  0  0  0  0
   -1.7863   -2.0195    0.9119 C   0  0  0  0  0  0  0  0  0  0  0  0
   -0.9073   -2.6615    1.4699 O   0  0  0  0  0  0  0  0  0  0  0  0
   -1.5803   -0.8195    0.3749 N   0  0  0  0  0  0  0  0  0  0  0  0
   -2.3603   -0.3345   -0.0451 H   0  0  0  0  0  0  0  0  0  0  0  0
   -0.2933   -0.1205    0.3719 C   0  0  1  0  0  0  0  0  0  0  0  0
    0.4439   -0.7485   -0.1303 H   0  0  0  0  0  0  0  0  0  0  0  0
   -0.4368    1.1924   -0.4246 C   0  0  0  0  0  0  0  0  0  0  0  0
   -1.2714    1.7553   -0.0031 H   0  0  0  0  0  0  0  0  0  0  0  0
    0.4695    1.7877   -0.3036 H   0  0  0  0  0  0  0  0  0  0  0  0
   -0.6880    0.9851   -1.9283 C   0  0  0  0  0  0  0  0  0  0  0  0
    0.1458    0.4412   -2.3724 H   0  0  0  0  0  0  0  0  0  0  0  0
   -1.6020    0.4078   -2.0621 H   0  0  0  0  0  0  0  0  0  0  0  0
   -0.8481    2.3053   -2.6752 C   0  0  0  0  0  0  0  0  0  0  0  0
   -0.9093    3.4049   -2.1487 O   0  0  0  0  0  0  0  0  0  0  0  0
   -0.9366    2.2067   -4.0146 O   0  0  0  0  0  0  0  0  0  0  0  0
   -1.0448    3.1070   -4.3262 H   0  0  0  0  0  0  0  0  0  0  0  0
    0.1871    0.1189    1.8122 C   0  0  0  0  0  0  0  0  0  0  0  0
    1.3541   -0.1171    2.1187 O   0  0  0  0  0  0  0  0  0  0  0  0
   -0.7126    0.5740    2.6926 N   0  0  0  0  0  0  0  0  0  0  0  0
   -1.6464    0.7663    2.3621 H   0  0  0  0  0  0  0  0  0  0  0  0
   -0.4191    0.8310    4.1010 C   0  0  0  0  0  0  0  0  0  0  0  0
    0.4022    1.5452    4.1828 H   0  0  0  0  0  0  0  0  0  0  0  0
   -1.2983    1.2366    4.6035 H   0  0  0  0  0  0  0  0  0  0  0  0
   -0.1204   -0.0980    4.5907 H   0  0  0  0  0  0  0  0  0  0  0  0
  5  6  2  0  0  0  0
  5  7  1  0  0  0  0
  2  3  1  0  0  0  0
  2  4  1  0  0  0  0
  2  5  1  0  0  0  0
  1  2  1  0  0  0  0
 21 22  2  0  0  0  0
 21 23  1  0  0  0  0
 19 20  1  0  0  0  0
 17 18  2  0  0  0  0
 17 19  1  0  0  0  0
 14 15  1  0  0  0  0
 14 16  1  0  0  0  0
 14 17  1  0  0  0  0
 11 12  1  0  0  0  0
 11 13  1  0  0  0  0
 11 14  1  0  0  0  0
  9 10  1  0  0  0  0
  9 11  1  0  0  0  0
  9 21  1  0  0  0  0
  7  8  1  0  0  0  0
  7  9  1  0  0  0  0
 25 26  1  0  0  0  0
 25 27  1  0  0  0  0
 25 28  1  0  0  0  0
 23 24  1  0  0  0  0
 23 25  1  0  0  0  0
M  END
$$$$
default_name
  -OEChem-01062215323D

 28 27  0     1  0  0  0  0  0999 V2000
   -3.2133   -3.5565    1.2809 H   0  0  0  0  0  0  0  0  0  0  0  0
   -3.1873   -2.5755    0.8089 C   0  0  0  0  0  0  0  0  0  0  0  0
   -3.8793   -1.9065    1.3169 H   0  0  0  0  0  0  0  0  0  0  0  0
   -3.4623   -2.6685   -0.2401 H   0  0  0  0  0  0  0  0  0  0  0  0
   -1.7863   -2.0195    0.9119 C   0  0  0  0  0  0  0  0  0  0  0  0
   -0.9073   -2.6615    1.4699 O   0  0  0  0  0  0  0  0  0  0  0  0
   -1.5803   -0.8195    0.3749 N   0  0  0  0  0  0  0  0  0  0  0  0
   -2.3603   -0.3345   -0.0451 H   0  0  0  0  0  0  0  0  0  0  0  0
   -0.2933   -0.1205    0.3719 C   0  0  1  0  0  0  0  0  0  0  0  0
    0.4439   -0.7485   -0.1303 H   0  0  0  0  0  0  0  0  0  0  0  0
   -0.4368    1.1924   -0.4246 C   0  0  0  0  0  0  0  0  0  0  0  0
   -1.2714    1.7553   -0.0031 H   0  0  0  0  0  0  0  0  0  0  0  0
    0.4695    1.7877   -0.3036 H   0  0  0  0  0  0  0  0  0  0  0  0
   -0.6880    0.9851   -1.9283 C   0  0  0  0  0  0  0  0  0  0  0  0
    0.1458    0.4412   -2.3724 H   0  0  0  0  0  0  0  0  0  0  0  0
   -1.6020    0.4078   -2.0621 H   0  0  0  0  0  0  0  0  0  0  0  0
   -0.8481    2.3053   -2.6752 C   0  0  0  0  0  0  0  0  0  0  0  0
   -0.9093    3.4049   -2.1487 O   0  0  0  0  0  0  0  0  0  0  0  0
   -0.9366    2.2067   -4.0146 O   0  0  0  0  0  0  0  0  0  0  0  0
   -1.0448    3.1070   -4.3262 H   0  0  0  0  0  0  0  0  0  0  0  0
    0.1871    0.1189    1.8122 C   0  0  0  0  0  0  0  0  0  0  0  0
    1.3905    0.1524    2.0618 O   0  0  0  0  0  0  0  0  0  0  0  0
   -0.7503    0.2724    2.7553 N   0  0  0  0  0  0  0  0  0  0  0  0
   -1.7183    0.2553    2.4710 H   0  0  0  0  0  0  0  0  0  0  0  0
   -0.4568    0.4855    4.1710 C   0  0  0  0  0  0  0  0  0  0  0  0
    0.1713    1.3704    4.2889 H   0  0  0  0  0  0  0  0  0  0  0  0
   -1.3815    0.6248    4.7329 H   0  0  0  0  0  0  0  0  0  0  0  0
    0.0811   -0.3768    4.5699 H   0  0  0  0  0  0  0  0  0  0  0  0
  5  6  2  0  0  0  0
  5  7  1  0  0  0  0
  2  3  1  0  0  0  0
  2  4  1  0  0  0  0
  2  5  1  0  0  0  0
  1  2  1  0  0  0  0
 21 22  2  0  0  0  0
 21 23  1  0  0  0  0
 19 20  1  0  0  0  0
 17 18  2  0  0  0  0
 17 19  1  0  0  0  0
 14 15  1  0  0  0  0
 14 16  1  0  0  0  0
 14 17  1  0  0  0  0
 11 12  1  0  0  0  0
 11 13  1  0  0  0  0
 11 14  1  0  0  0  0
  9 10  1  0  0  0  0
  9 11  1  0  0  0  0
  9 21  1  0  0  0  0
  7  8  1  0  0  0  0
  7  9  1  0  0  0  0
 25 26  1  0  0  0  0
 25 27  1  0  0  0  0
 25 28  1  0  0  0  0
 23 24  1  0  0  0  0
 23 25  1  0  0  0  0
M  END
$$$$
default_name
  -OEChem-01062215323D

 28 27  0     1  0  0  0  0  0999 V2000
   -3.2133   -3.5565    1.2809 H   0  0  0  0  0  0  0  0  0  0  0  0
   -3.1873   -2.5755    0.8089 C   0  0  0  0  0  0  0  0  0  0  0  0
   -3.8793   -1.9065    1.3169 H   0  0  0  0  0  0  0  0  0  0  0  0
   -3.4623   -2.6685   -0.2401 H   0  0  0  0  0  0  0  0  0  0  0  0
   -1.7863   -2.0195    0.9119 C   0  0  0  0  0  0  0  0  0  0  0  0
   -0.9073   -2.6615    1.4699 O   0  0  0  0  0  0  0  0  0  0  0  0
   -1.5803   -0.8195    0.3749 N   0  0  0  0  0  0  0  0  0  0  0  0
   -2.3603   -0.3345   -0.0451 H   0  0  0  0  0  0  0  0  0  0  0  0
   -0.2933   -0.1205    0.3719 C   0  0  1  0  0  0  0  0  0  0  0  0
    0.4439   -0.7485   -0.1303 H   0  0  0  0  0  0  0  0  0  0  0  0
   -0.4368    1.1924   -0.4246 C   0  0  0  0  0  0  0  0  0  0  0  0
   -1.2714    1.7553   -0.0031 H   0  0  0  0  0  0  0  0  0  0  0  0
    0.4695    1.7877   -0.3036 H   0  0  0  0  0  0  0  0  0  0  0  0
   -0.6880    0.9851   -1.9283 C   0  0  0  0  0  0  0  0  0  0  0  0
    0.1458    0.4412   -2.3724 H   0  0  0  0  0  0  0  0  0  0  0  0
   -1.6020    0.4078   -2.0621 H   0  0  0  0  0  0  0  0  0  0  0  0
   -0.8481    2.3053   -2.6752 C   0  0  0  0  0  0  0  0  0  0  0  0
   -0.9093    3.4049   -2.1487 O   0  0  0  0  0  0  0  0  0  0  0  0
   -0.9366    2.2067   -4.0146 O   0  0  0  0  0  0  0  0  0  0  0  0
   -1.0448    3.1070   -4.3262 H   0  0  0  0  0  0  0  0  0  0  0  0
    0.1871    0.1189    1.8122 C   0  0  0  0  0  0  0  0  0  0  0  0
    1.3580    0.4262    2.0271 O   0  0  0  0  0  0  0  0  0  0  0  0
   -0.7110   -0.0332    2.7930 N   0  0  0  0  0  0  0  0  0  0  0  0
   -1.6595   -0.2645    2.5378 H   0  0  0  0  0  0  0  0  0  0  0  0
   -0.4067    0.1370    4.2122 C   0  0  0  0  0  0  0  0  0  0  0  0
   -0.0051    1.1369    4.3866 H   0  0  0  0  0  0  0  0  0  0  0  0
   -1.3082    0.0033    4.8118 H   0  0  0  0  0  0  0  0  0  0  0  0
    0.3424   -0.5955    4.5191 H   0  0  0  0  0  0  0  0  0  0  0  0
  5  6  2  0  0  0  0
  5  7  1  0  0  0  0
  2  3  1  0  0  0  0
  2  4  1  0  0  0  0
  2  5  1  0  0  0  0
  1  2  1  0  0  0  0
 21 22  2  0  0  0  0
 21 23  1  0  0  0  0
 19 20  1  0  0  0  0
 17 18  2  0  0  0  0
 17 19  1  0  0  0  0
 14 15  1  0  0  0  0
 14 16  1  0  0  0  0
 14 17  1  0  0  0  0
 11 12  1  0  0  0  0
 11 13  1  0  0  0  0
 11 14  1  0  0  0  0
  9 10  1  0  0  0  0
  9 11  1  0  0  0  0
  9 21  1  0  0  0  0
  7  8  1  0  0  0  0
  7  9  1  0  0  0  0
 25 26  1  0  0  0  0
 25 27  1  0  0  0  0
 25 28  1  0  0  0  0
 23 24  1  0  0  0  0
 23 25  1  0  0  0  0
M  END
$$$$
default_name
  -OEChem-01062215323D

 28 27  0     1  0  0  0  0  0999 V2000
   -3.2133   -3.5565    1.2809 H   0  0  0  0  0  0  0  0  0  0  0  0
   -3.1873   -2.5755    0.8089 C   0  0  0  0  0  0  0  0  0  0  0  0
   -3.8793   -1.9065    1.3169 H   0  0  0  0  0  0  0  0  0  0  0  0
   -3.4623   -2.6685   -0.2401 H   0  0  0  0  0  0  0  0  0  0  0  0
   -1.7863   -2.0195    0.9119 C   0  0  0  0  0  0  0  0  0  0  0  0
   -0.9073   -2.6615    1.4699 O   0  0  0  0  0  0  0  0  0  0  0  0
   -1.5803   -0.8195    0.3749 N   0  0  0  0  0  0  0  0  0  0  0  0
   -2.3603   -0.3345   -0.0451 H   0  0  0  0  0  0  0  0  0  0  0  0
   -0.2933   -0.1205    0.3719 C   0  0  1  0  0  0  0  0  0  0  0  0
    0.4439   -0.7485   -0.1303 H   0  0  0  0  0  0  0  0  0  0  0  0
   -0.4368    1.1924   -0.4246 C   0  0  0  0  0  0  0  0  0  0  0  0
   -1.2714    1.7553   -0.0031 H   0  0  0  0  0  0  0  0  0  0  0  0
    0.4695    1.7877   -0.3036 H   0  0  0  0  0  0  0  0  0  0  0  0
   -0.6880    0.9851   -1.9283 C   0  0  0  0  0  0  0  0  0  0  0  0
    0.1458    0.4412   -2.3724 H   0  0  0  0  0  0  0  0  0  0  0  0
   -1.6020    0.4078   -2.0621 H   0  0  0  0  0  0  0  0  0  0  0  0
   -0.8481    2.3053   -2.6752 C   0  0  0  0  0  0  0  0  0  0  0  0
   -0.9093    3.4049   -2.1487 O   0  0  0  0  0  0  0  0  0  0  0  0
   -0.9366    2.2067   -4.0146 O   0  0  0  0  0  0  0  0  0  0  0  0
   -1.0448    3.1070   -4.3262 H   0  0  0  0  0  0  0  0  0  0  0  0
    0.1871    0.1189    1.8122 C   0  0  0  0  0  0  0  0  0  0  0  0
    1.2588    0.6856    2.0171 O   0  0  0  0  0  0  0  0  0  0  0  0
   -0.5974   -0.3219    2.8031 N   0  0  0  0  0  0  0  0  0  0  0  0
   -1.4739   -0.7578    2.5579 H   0  0  0  0  0  0  0  0  0  0  0  0
   -0.2721   -0.1908    4.2218 C   0  0  0  0  0  0  0  0  0  0  0  0
   -0.1149    0.8607    4.4691 H   0  0  0  0  0  0  0  0  0  0  0  0
   -1.0836   -0.5857    4.8348 H   0  0  0  0  0  0  0  0  0  0  0  0
    0.6458   -0.7394    4.4418 H   0  0  0  0  0  0  0  0  0  0  0  0
  5  6  2  0  0  0  0
  5  7  1  0  0  0  0
  2  3  1  0  0  0  0
  2  4  1  0  0  0  0
  2  5  1  0  0  0  0
  1  2  1  0  0  0  0
 21 22  2  0  0  0  0
 21 23  1  0  0  0  0
 19 20  1  0  0  0  0
 17 18  2  0  0  0  0
 17 19  1  0  0  0  0
 14 15  1  0  0  0  0
 14 16  1  0  0  0  0
 14 17  1  0  0  0  0
 11 12  1  0  0  0  0
 11 13  1  0  0  0  0
 11 14  1  0  0  0  0
  9 10  1  0  0  0  0
  9 11  1  0  0  0  0
  9 21  1  0  0  0  0
  7  8  1  0  0  0  0
  7  9  1  0  0  0  0
 25 26  1  0  0  0  0
 25 27  1  0  0  0  0
 25 28  1  0  0  0  0
 23 24  1  0  0  0  0
 23 25  1  0  0  0  0
M  END
$$$$
default_name
  -OEChem-01062215323D

 28 27  0     1  0  0  0  0  0999 V2000
   -3.2133   -3.5565    1.2809 H   0  0  0  0  0  0  0  0  0  0  0  0
   -3.1873   -2.5755    0.8089 C   0  0  0  0  0  0  0  0  0  0  0  0
   -3.8793   -1.9065    1.3169 H   0  0  0  0  0  0  0  0  0  0  0  0
   -3.4623   -2.6685   -0.2401 H   0  0  0  0  0  0  0  0  0  0  0  0
   -1.7863   -2.0195    0.9119 C   0  0  0  0  0  0  0  0  0  0  0  0
   -0.9073   -2.6615    1.4699 O   0  0  0  0  0  0  0  0  0  0  0  0
   -1.5803   -0.8195    0.3749 N   0  0  0  0  0  0  0  0  0  0  0  0
   -2.3603   -0.3345   -0.0451 H   0  0  0  0  0  0  0  0  0  0  0  0
   -0.2933   -0.1205    0.3719 C   0  0  1  0  0  0  0  0  0  0  0  0
    0.4439   -0.7485   -0.1303 H   0  0  0  0  0  0  0  0  0  0  0  0
   -0.4368    1.1924   -0.4246 C   0  0  0  0  0  0  0  0  0  0  0  0
   -1.2714    1.7553   -0.0031 H   0  0  0  0  0  0  0  0  0  0  0  0
    0.4695    1.7877   -0.3036 H   0  0  0  0  0  0  0  0  0  0  0  0
   -0.6880    0.9851   -1.9283 C   0  0  0  0  0  0  0  0  0  0  0  0
    0.1458    0.4412   -2.3724 H   0  0  0  0  0  0  0  0  0  0  0  0
   -1.6020    0.4078   -2.0621 H   0  0  0  0  0  0  0  0  0  0  0  0
   -0.8481    2.3053   -2.6752 C   0  0  0  0  0  0  0  0  0  0  0  0
   -0.9093    3.4049   -2.1487 O   0  0  0  0  0  0  0  0  0  0  0  0
   -0.9366    2.2067   -4.0146 O   0  0  0  0  0  0  0  0  0  0  0  0
   -1.0448    3.1070   -4.3262 H   0  0  0  0  0  0  0  0  0  0  0  0
    0.1871    0.1189    1.8122 C   0  0  0  0  0  0  0  0  0  0  0  0
    1.0997    0.9129    2.0324 O   0  0  0  0  0  0  0  0  0  0  0  0
   -0.4173   -0.5741    2.7849 N   0  0  0  0  0  0  0  0  0  0  0  0
   -1.1741   -1.1908    2.5299 H   0  0  0  0  0  0  0  0  0  0  0  0
   -0.0622   -0.4755    4.1992 C   0  0  0  0  0  0  0  0  0  0  0  0
   -0.1507    0.5606    4.5309 H   0  0  0  0  0  0  0  0  0  0  0  0
   -0.7228   -1.1020    4.8003 H   0  0  0  0  0  0  0  0  0  0  0  0
    0.9707   -0.7984    4.3432 H   0  0  0  0  0  0  0  0  0  0  0  0
  5  6  2  0  0  0  0
  5  7  1  0  0  0  0
  2  3  1  0  0  0  0
  2  4  1  0  0  0  0
  2  5  1  0  0  0  0
  1  2  1  0  0  0  0
 21 22  2  0  0  0  0
 21 23  1  0  0  0  0
 19 20  1  0  0  0  0
 17 18  2  0  0  0  0
 17 19  1  0  0  0  0
 14 15  1  0  0  0  0
 14 16  1  0  0  0  0
 14 17  1  0  0  0  0
 11 12  1  0  0  0  0
 11 13  1  0  0  0  0
 11 14  1  0  0  0  0
  9 10  1  0  0  0  0
  9 11  1  0  0  0  0
  9 21  1  0  0  0  0
  7  8  1  0  0  0  0
  7  9  1  0  0  0  0
 25 26  1  0  0  0  0
 25 27  1  0  0  0  0
 25 28  1  0  0  0  0
 23 24  1  0  0  0  0
 23 25  1  0  0  0  0
M  END
$$$$
default_name
  -OEChem-01062215323D

 28 27  0     1  0  0  0  0  0999 V2000
   -3.2133   -3.5565    1.2809 H   0  0  0  0  0  0  0  0  0  0  0  0
   -3.1873   -2.5755    0.8089 C   0  0  0  0  0  0  0  0  0  0  0  0
   -3.8793   -1.9065    1.3169 H   0  0  0  0  0  0  0  0  0  0  0  0
   -3.4623   -2.6685   -0.2401 H   0  0  0  0  0  0  0  0  0  0  0  0
   -1.7863   -2.0195    0.9119 C   0  0  0  0  0  0  0  0  0  0  0  0
   -0.9073   -2.6615    1.4699 O   0  0  0  0  0  0  0  0  0  0  0  0
   -1.5803   -0.8195    0.3749 N   0  0  0  0  0  0  0  0  0  0  0  0
   -2.3603   -0.3345   -0.0451 H   0  0  0  0  0  0  0  0  0  0  0  0
   -0.2933   -0.1205    0.3719 C   0  0  1  0  0  0  0  0  0  0  0  0
    0.4439   -0.7485   -0.1303 H   0  0  0  0  0  0  0  0  0  0  0  0
   -0.4368    1.1924   -0.4246 C   0  0  0  0  0  0  0  0  0  0  0  0
   -1.2714    1.7553   -0.0031 H   0  0  0  0  0  0  0  0  0  0  0  0
    0.4695    1.7877   -0.3036 H   0  0  0  0  0  0  0  0  0  0  0  0
   -0.6880    0.9851   -1.9283 C   0  0  0  0  0  0  0  0  0  0  0  0
    0.1458    0.4412   -2.3724 H   0  0  0  0  0  0  0  0  0  0  0  0
   -1.6020    0.4078   -2.0621 H   0  0  0  0  0  0  0  0  0  0  0  0
   -0.8481    2.3053   -2.6752 C   0  0  0  0  0  0  0  0  0  0  0  0
   -0.9093    3.4049   -2.1487 O   0  0  0  0  0  0  0  0  0  0  0  0
   -0.9366    2.2067   -4.0146 O   0  0  0  0  0  0  0  0  0  0  0  0
   -1.0448    3.1070   -4.3262 H   0  0  0  0  0  0  0  0  0  0  0  0
    0.1871    0.1189    1.8122 C   0  0  0  0  0  0  0  0  0  0  0  0
    0.8914    1.0926    2.0720 O   0  0  0  0  0  0  0  0  0  0  0  0
   -0.1829   -0.7724    2.7397 N   0  0  0  0  0  0  0  0  0  0  0  0
   -0.7807   -1.5341    2.4557 H   0  0  0  0  0  0  0  0  0  0  0  0
    0.2086   -0.6979    4.1458 C   0  0  0  0  0  0  0  0  0  0  0  0
   -0.1100    0.2570    4.5678 H   0  0  0  0  0  0  0  0  0  0  0  0
   -0.2504   -1.5105    4.7106 H   0  0  0  0  0  0  0  0  0  0  0  0
    1.2948   -0.7687    4.2302 H   0  0  0  0  0  0  0  0  0  0  0  0
  5  6  2  0  0  0  0
  5  7  1  0  0  0  0
  2  3  1  0  0  0  0
  2  4  1  0  0  0  0
  2  5  1  0  0  0  0
  1  2  1  0  0  0  0
 21 22  2  0  0  0  0
 21 23  1  0  0  0  0
 19 20  1  0  0  0  0
 17 18  2  0  0  0  0
 17 19  1  0  0  0  0
 14 15  1  0  0  0  0
 14 16  1  0  0  0  0
 14 17  1  0  0  0  0
 11 12  1  0  0  0  0
 11 13  1  0  0  0  0
 11 14  1  0  0  0  0
  9 10  1  0  0  0  0
  9 11  1  0  0  0  0
  9 21  1  0  0  0  0
  7  8  1  0  0  0  0
  7  9  1  0  0  0  0
 25 26  1  0  0  0  0
 25 27  1  0  0  0  0
 25 28  1  0  0  0  0
 23 24  1  0  0  0  0
 23 25  1  0  0  0  0
M  END
$$$$
default_name
  -OEChem-01062215323D

 28 27  0     1  0  0  0  0  0999 V2000
   -3.2133   -3.5565    1.2809 H   0  0  0  0  0  0  0  0  0  0  0  0
   -3.1873   -2.5755    0.8089 C   0  0  0  0  0  0  0  0  0  0  0  0
   -3.8793   -1.9065    1.3169 H   0  0  0  0  0  0  0  0  0  0  0  0
   -3.4623   -2.6685   -0.2401 H   0  0  0  0  0  0  0  0  0  0  0  0
   -1.7863   -2.0195    0.9119 C   0  0  0  0  0  0  0  0  0  0  0  0
   -0.9073   -2.6615    1.4699 O   0  0  0  0  0  0  0  0  0  0  0  0
   -1.5803   -0.8195    0.3749 N   0  0  0  0  0  0  0  0  0  0  0  0
   -2.3603   -0.3345   -0.0451 H   0  0  0  0  0  0  0  0  0  0  0  0
   -0.2933   -0.1205    0.3719 C   0  0  1  0  0  0  0  0  0  0  0  0
    0.4439   -0.7485   -0.1303 H   0  0  0  0  0  0  0  0  0  0  0  0
   -0.4368    1.1924   -0.4246 C   0  0  0  0  0  0  0  0  0  0  0  0
   -1.2714    1.7553   -0.0031 H   0  0  0  0  0  0  0  0  0  0  0  0
    0.4695    1.7877   -0.3036 H   0  0  0  0  0  0  0  0  0  0  0  0
   -0.6880    0.9851   -1.9283 C   0  0  0  0  0  0  0  0  0  0  0  0
    0.1458    0.4412   -2.3724 H   0  0  0  0  0  0  0  0  0  0  0  0
   -1.6020    0.4078   -2.0621 H   0  0  0  0  0  0  0  0  0  0  0  0
   -0.8481    2.3053   -2.6752 C   0  0  0  0  0  0  0  0  0  0  0  0
   -0.9093    3.4049   -2.1487 O   0  0  0  0  0  0  0  0  0  0  0  0
   -0.9366    2.2067   -4.0146 O   0  0  0  0  0  0  0  0  0  0  0  0
   -1.0448    3.1070   -4.3262 H   0  0  0  0  0  0  0  0  0  0  0  0
    0.1871    0.1189    1.8122 C   0  0  0  0  0  0  0  0  0  0  0  0
    0.6483    1.2125    2.1332 O   0  0  0  0  0  0  0  0  0  0  0  0
    0.0898   -0.9035    2.6705 N   0  0  0  0  0  0  0  0  0  0  0  0
   -0.3204   -1.7643    2.3405 H   0  0  0  0  0  0  0  0  0  0  0  0
    0.5221   -0.8426    4.0653 C   0  0  0  0  0  0  0  0  0  0  0  0
    0.0045   -0.0293    4.5772 H   0  0  0  0  0  0  0  0  0  0  0  0
    0.3012   -1.7832    4.5719 H   0  0  0  0  0  0  0  0  0  0  0  0
    1.5962   -0.6523    4.1103 H   0  0  0  0  0  0  0  0  0  0  0  0
  5  6  2  0  0  0  0
  5  7  1  0  0  0  0
  2  3  1  0  0  0  0
  2  4  1  0  0  0  0
  2  5  1  0  0  0  0
  1  2  1  0  0  0  0
 21 22  2  0  0  0  0
 21 23  1  0  0  0  0
 19 20  1  0  0  0  0
 17 18  2  0  0  0  0
 17 19  1  0  0  0  0
 14 15  1  0  0  0  0
 14 16  1  0  0  0  0
 14 17  1  0  0  0  0
 11 12  1  0  0  0  0
 11 13  1  0  0  0  0
 11 14  1  0  0  0  0
  9 10  1  0  0  0  0
  9 11  1  0  0  0  0
  9 21  1  0  0  0  0
  7  8  1  0  0  0  0
  7  9  1  0  0  0  0
 25 26  1  0  0  0  0
 25 27  1  0  0  0  0
 25 28  1  0  0  0  0
 23 24  1  0  0  0  0
 23 25  1  0  0  0  0
M  END
$$$$
default_name
  -OEChem-01062215323D

 28 27  0     1  0  0  0  0  0999 V2000
   -3.2133   -3.5565    1.2809 H   0  0  0  0  0  0  0  0  0  0  0  0
   -3.1873   -2.5755    0.8089 C   0  0  0  0  0  0  0  0  0  0  0  0
   -3.8793   -1.9065    1.3169 H   0  0  0  0  0  0  0  0  0  0  0  0
   -3.4623   -2.6685   -0.2401 H   0  0  0  0  0  0  0  0  0  0  0  0
   -1.7863   -2.0195    0.9119 C   0  0  0  0  0  0  0  0  0  0  0  0
   -0.9073   -2.6615    1.4699 O   0  0  0  0  0  0  0  0  0  0  0  0
   -1.5803   -0.8195    0.3749 N   0  0  0  0  0  0  0  0  0  0  0  0
   -2.3603   -0.3345   -0.0451 H   0  0  0  0  0  0  0  0  0  0  0  0
   -0.2933   -0.1205    0.3719 C   0  0  1  0  0  0  0  0  0  0  0  0
    0.4439   -0.7485   -0.1303 H   0  0  0  0  0  0  0  0  0  0  0  0
   -0.4368    1.1924   -0.4246 C   0  0  0  0  0  0  0  0  0  0  0  0
   -1.2714    1.7553   -0.0031 H   0  0  0  0  0  0  0  0  0  0  0  0
    0.4695    1.7877   -0.3036 H   0  0  0  0  0  0  0  0  0  0  0  0
   -0.6880    0.9851   -1.9283 C   0  0  0  0  0  0  0  0  0  0  0  0
    0.1458    0.4412   -2.3724 H   0  0  0  0  0  0  0  0  0  0  0  0
   -1.6020    0.4078   -2.0621 H   0  0  0  0  0  0  0  0  0  0  0  0
   -0.8481    2.3053   -2.6752 C   0  0  0  0  0  0  0  0  0  0  0  0
   -0.9093    3.4049   -2.1487 O   0  0  0  0  0  0  0  0  0  0  0  0
   -0.9366    2.2067   -4.0146 O   0  0  0  0  0  0  0  0  0  0  0  0
   -1.0448    3.1070   -4.3262 H   0  0  0  0  0  0  0  0  0  0  0  0
    0.1871    0.1189    1.8122 C   0  0  0  0  0  0  0  0  0  0  0  0
    0.3868    1.2644    2.2117 O   0  0  0  0  0  0  0  0  0  0  0  0
    0.3823   -0.9585    2.5821 N   0  0  0  0  0  0  0  0  0  0  0  0
    0.1754   -1.8658    2.1920 H   0  0  0  0  0  0  0  0  0  0  0  0
    0.8567   -0.8999    3.9632 C   0  0  0  0  0  0  0  0  0  0  0  0
    0.1848   -0.2789    4.5585 H   0  0  0  0  0  0  0  0  0  0  0  0
    0.8947   -1.9015    4.3937 H   0  0  0  0  0  0  0  0  0  0  0  0
    1.8542   -0.4570    3.9918 H   0  0  0  0  0  0  0  0  0  0  0  0
  5  6  2  0  0  0  0
  5  7  1  0  0  0  0
  2  3  1  0  0  0  0
  2  4  1  0  0  0  0
  2  5  1  0  0  0  0
  1  2  1  0  0  0  0
 21 22  2  0  0  0  0
 21 23  1  0  0  0  0
 19 20  1  0  0  0  0
 17 18  2  0  0  0  0
 17 19  1  0  0  0  0
 14 15  1  0  0  0  0
 14 16  1  0  0  0  0
 14 17  1  0  0  0  0
 11 12  1  0  0  0  0
 11 13  1  0  0  0  0
 11 14  1  0  0  0  0
  9 10  1  0  0  0  0
  9 11  1  0  0  0  0
  9 21  1  0  0  0  0
  7  8  1  0  0  0  0
  7  9  1  0  0  0  0
 25 26  1  0  0  0  0
 25 27  1  0  0  0  0
 25 28  1  0  0  0  0
 23 24  1  0  0  0  0
 23 25  1  0  0  0  0
M  END
$$$$
default_name
  -OEChem-01062215323D

 28 27  0     1  0  0  0  0  0999 V2000
   -3.2133   -3.5565    1.2809 H   0  0  0  0  0  0  0  0  0  0  0  0
   -3.1873   -2.5755    0.8089 C   0  0  0  0  0  0  0  0  0  0  0  0
   -3.8793   -1.9065    1.3169 H   0  0  0  0  0  0  0  0  0  0  0  0
   -3.4623   -2.6685   -0.2401 H   0  0  0  0  0  0  0  0  0  0  0  0
   -1.7863   -2.0195    0.9119 C   0  0  0  0  0  0  0  0  0  0  0  0
   -0.9073   -2.6615    1.4699 O   0  0  0  0  0  0  0  0  0  0  0  0
   -1.5803   -0.8195    0.3749 N   0  0  0  0  0  0  0  0  0  0  0  0
   -2.3603   -0.3345   -0.0451 H   0  0  0  0  0  0  0  0  0  0  0  0
   -0.2933   -0.1205    0.3719 C   0  0  1  0  0  0  0  0  0  0  0  0
    0.4439   -0.7485   -0.1303 H   0  0  0  0  0  0  0  0  0  0  0  0
   -0.4368    1.1924   -0.4246 C   0  0  0  0  0  0  0  0  0  0  0  0
   -1.2714    1.7553   -0.0031 H   0  0  0  0  0  0  0  0  0  0  0  0
    0.4695    1.7877   -0.3036 H   0  0  0  0  0  0  0  0  0  0  0  0
   -0.6880    0.9851   -1.9283 C   0  0  0  0  0  0  0  0  0  0  0  0
    0.1458    0.4412   -2.3724 H   0  0  0  0  0  0  0  0  0  0  0  0
   -1.6020    0.4078   -2.0621 H   0  0  0  0  0  0  0  0  0  0  0  0
   -0.8481    2.3053   -2.6752 C   0  0  0  0  0  0  0  0  0  0  0  0
   -0.9093    3.4049   -2.1487 O   0  0  0  0  0  0  0  0  0  0  0  0
   -0.9366    2.2067   -4.0146 O   0  0  0  0  0  0  0  0  0  0  0  0
   -1.0448    3.1070   -4.3262 H   0  0  0  0  0  0  0  0  0  0  0  0
    0.1871    0.1189    1.8122 C   0  0  0  0  0  0  0  0  0  0  0  0
    0.1249    1.2448    2.3024 O   0  0  0  0  0  0  0  0  0  0  0  0
    0.6745   -0.9334    2.4805 N   0  0  0  0  0  0  0  0  0  0  0  0
    0.6729   -1.8315    2.0204 H   0  0  0  0  0  0  0  0  0  0  0  0
    1.1896   -0.8658    3.8465 C   0  0  0  0  0  0  0  0  0  0  0  0
    0.4188   -0.4747    4.5130 H   0  0  0  0  0  0  0  0  0  0  0  0
    1.4894   -1.8576    4.1880 H   0  0  0  0  0  0  0  0  0  0  0  0
    2.0513   -0.1963    3.8828 H   0  0  0  0  0  0  0  0  0  0  0  0
  5  6  2  0  0  0  0
  5  7  1  0  0  0  0
  2  3  1  0  0  0  0
  2  4  1  0  0  0  0
  2  5  1  0  0  0  0
  1  2  1  0  0  0  0
 21 22  2  0  0  0  0
 21 23  1  0  0  0  0
 19 20  1  0  0  0  0
 17 18  2  0  0  0  0
 17 19  1  0  0  0  0
 14 15  1  0  0  0  0
 14 16  1  0  0  0  0
 14 17  1  0  0  0  0
 11 12  1  0  0  0  0
 11 13  1  0  0  0  0
 11 14  1  0  0  0  0
  9 10  1  0  0  0  0
  9 11  1  0  0  0  0
  9 21  1  0  0  0  0
  7  8  1  0  0  0  0
  7  9  1  0  0  0  0
 25 26  1  0  0  0  0
 25 27  1  0  0  0  0
 25 28  1  0  0  0  0
 23 24  1  0  0  0  0
 23 25  1  0  0  0  0
M  END
$$$$
default_name
  -OEChem-01062215323D

 28 27  0     1  0  0  0  0  0999 V2000
   -3.2133   -3.5565    1.2809 H   0  0  0  0  0  0  0  0  0  0  0  0
   -3.1873   -2.5755    0.8089 C   0  0  0  0  0  0  0  0  0  0  0  0
   -3.8793   -1.9065    1.3169 H   0  0  0  0  0  0  0  0  0  0  0  0
   -3.4623   -2.6685   -0.2401 H   0  0  0  0  0  0  0  0  0  0  0  0
   -1.7863   -2.0195    0.9119 C   0  0  0  0  0  0  0  0  0  0  0  0
   -0.9073   -2.6615    1.4699 O   0  0  0  0  0  0  0  0  0  0  0  0
   -1.5803   -0.8195    0.3749 N   0  0  0  0  0  0  0  0  0  0  0  0
   -2.3603   -0.3345   -0.0451 H   0  0  0  0  0  0  0  0  0  0  0  0
   -0.2933   -0.1205    0.3719 C   0  0  1  0  0  0  0  0  0  0  0  0
    0.4439   -0.7485   -0.1303 H   0  0  0  0  0  0  0  0  0  0  0  0
   -0.4368    1.1924   -0.4246 C   0  0  0  0  0  0  0  0  0  0  0  0
   -1.2714    1.7553   -0.0031 H   0  0  0  0  0  0  0  0  0  0  0  0
    0.4695    1.7877   -0.3036 H   0  0  0  0  0  0  0  0  0  0  0  0
   -0.6880    0.9851   -1.9283 C   0  0  0  0  0  0  0  0  0  0  0  0
    0.1458    0.4412   -2.3724 H   0  0  0  0  0  0  0  0  0  0  0  0
   -1.6020    0.4078   -2.0621 H   0  0  0  0  0  0  0  0  0  0  0  0
   -0.8481    2.3053   -2.6752 C   0  0  0  0  0  0  0  0  0  0  0  0
   -0.9093    3.4049   -2.1487 O   0  0  0  0  0  0  0  0  0  0  0  0
   -0.9366    2.2067   -4.0146 O   0  0  0  0  0  0  0  0  0  0  0  0
   -1.0448    3.1070   -4.3262 H   0  0  0  0  0  0  0  0  0  0  0  0
    0.1871    0.1189    1.8122 C   0  0  0  0  0  0  0  0  0  0  0  0
   -0.1198    1.1550    2.3989 O   0  0  0  0  0  0  0  0  0  0  0  0
    0.9466   -0.8301    2.3726 N   0  0  0  0  0  0  0  0  0  0  0  0
    1.1382   -1.6638    1.8373 H   0  0  0  0  0  0  0  0  0  0  0  0
    1.4983   -0.7427    3.7231 C   0  0  0  0  0  0  0  0  0  0  0  0
    0.6905   -0.6034    4.4438 H   0  0  0  0  0  0  0  0  0  0  0  0
    2.0449   -1.6542    3.9690 H   0  0  0  0  0  0  0  0  0  0  0  0
    2.1740    0.1122    3.7905 H   0  0  0  0  0  0  0  0  0  0  0  0
  5  6  2  0  0  0  0
  5  7  1  0  0  0  0
  2  3  1  0  0  0  0
  2  4  1  0  0  0  0
  2  5  1  0  0  0  0
  1  2  1  0  0  0  0
 21 22  2  0  0  0  0
 21 23  1  0  0  0  0
 19 20  1  0  0  0  0
 17 18  2  0  0  0  0
 17 19  1  0  0  0  0
 14 15  1  0  0  0  0
 14 16  1  0  0  0  0
 14 17  1  0  0  0  0
 11 12  1  0  0  0  0
 11 13  1  0  0  0  0
 11 14  1  0  0  0  0
  9 10  1  0  0  0  0
  9 11  1  0  0  0  0
  9 21  1  0  0  0  0
  7  8  1  0  0  0  0
  7  9  1  0  0  0  0
 25 26  1  0  0  0  0
 25 27  1  0  0  0  0
 25 28  1  0  0  0  0
 23 24  1  0  0  0  0
 23 25  1  0  0  0  0
M  END
$$$$
default_name
  -OEChem-01062215323D

 28 27  0     1  0  0  0  0  0999 V2000
   -3.2133   -3.5565    1.2809 H   0  0  0  0  0  0  0  0  0  0  0  0
   -3.1873   -2.5755    0.8089 C   0  0  0  0  0  0  0  0  0  0  0  0
   -3.8793   -1.9065    1.3169 H   0  0  0  0  0  0  0  0  0  0  0  0
   -3.4623   -2.6685   -0.2401 H   0  0  0  0  0  0  0  0  0  0  0  0
   -1.7863   -2.0195    0.9119 C   0  0  0  0  0  0  0  0  0  0  0  0
   -0.9073   -2.6615    1.4699 O   0  0  0  0  0  0  0  0  0  0  0  0
   -1.5803   -0.8195    0.3749 N   0  0  0  0  0  0  0  0  0  0  0  0
   -2.3603   -0.3345   -0.0451 H   0  0  0  0  0  0  0  0  0  0  0  0
   -0.2933   -0.1205    0.3719 C   0  0  1  0  0  0  0  0  0  0  0  0
    0.4439   -0.7485   -0.1303 H   0  0  0  0  0  0  0  0  0  0  0  0
   -0.4368    1.1924   -0.4246 C   0  0  0  0  0  0  0  0  0  0  0  0
   -1.2714    1.7553   -0.0031 H   0  0  0  0  0  0  0  0  0  0  0  0
    0.4695    1.7877   -0.3036 H   0  0  0  0  0  0  0  0  0  0  0  0
   -0.6880    0.9851   -1.9283 C   0  0  0  0  0  0  0  0  0  0  0  0
    0.1458    0.4412   -2.3724 H   0  0  0  0  0  0  0  0  0  0  0  0
   -1.6020    0.4078   -2.0621 H   0  0  0  0  0  0  0  0  0  0  0  0
   -0.8481    2.3053   -2.6752 C   0  0  0  0  0  0  0  0  0  0  0  0
   -0.9093    3.4049   -2.1487 O   0  0  0  0  0  0  0  0  0  0  0  0
   -0.9366    2.2067   -4.0146 O   0  0  0  0  0  0  0  0  0  0  0  0
   -1.0448    3.1070   -4.3262 H   0  0  0  0  0  0  0  0  0  0  0  0
    0.1871    0.1189    1.8122 C   0  0  0  0  0  0  0  0  0  0  0  0
   -0.3304    1.0010    2.4947 O   0  0  0  0  0  0  0  0  0  0  0  0
    1.1800   -0.6557    2.2657 N   0  0  0  0  0  0  0  0  0  0  0  0
    1.5396   -1.3742    1.6553 H   0  0  0  0  0  0  0  0  0  0  0  0
    1.7616   -0.5389    3.6014 C   0  0  0  0  0  0  0  0  0  0  0  0
    0.9813   -0.6562    4.3556 H   0  0  0  0  0  0  0  0  0  0  0  0
    2.5233   -1.3053    3.7514 H   0  0  0  0  0  0  0  0  0  0  0  0
    2.2140    0.4475    3.7215 H   0  0  0  0  0  0  0  0  0  0  0  0
  5  6  2  0  0  0  0
  5  7  1  0  0  0  0
  2  3  1  0  0  0  0
  2  4  1  0  0  0  0
  2  5  1  0  0  0  0
  1  2  1  0  0  0  0
 21 22  2  0  0  0  0
 21 23  1  0  0  0  0
 19 20  1  0  0  0  0
 17 18  2  0  0  0  0
 17 19  1  0  0  0  0
 14 15  1  0  0  0  0
 14 16  1  0  0  0  0
 14 17  1  0  0  0  0
 11 12  1  0  0  0  0
 11 13  1  0  0  0  0
 11 14  1  0  0  0  0
  9 10  1  0  0  0  0
  9 11  1  0  0  0  0
  9 21  1  0  0  0  0
  7  8  1  0  0  0  0
  7  9  1  0  0  0  0
 25 26  1  0  0  0  0
 25 27  1  0  0  0  0
 25 28  1  0  0  0  0
 23 24  1  0  0  0  0
 23 25  1  0  0  0  0
M  END
$$$$
default_name
  -OEChem-01062215323D

 28 27  0     1  0  0  0  0  0999 V2000
   -3.2133   -3.5565    1.2809 H   0  0  0  0  0  0  0  0  0  0  0  0
   -3.1873   -2.5755    0.8089 C   0  0  0  0  0  0  0  0  0  0  0  0
   -3.8793   -1.9065    1.3169 H   0  0  0  0  0  0  0  0  0  0  0  0
   -3.4623   -2.6685   -0.2401 H   0  0  0  0  0  0  0  0  0  0  0  0
   -1.7863   -2.0195    0.9119 C   0  0  0  0  0  0  0  0  0  0  0  0
   -0.9073   -2.6615    1.4699 O   0  0  0  0  0  0  0  0  0  0  0  0
   -1.5803   -0.8195    0.3749 N   0  0  0  0  0  0  0  0  0  0  0  0
   -2.3603   -0.3345   -0.0451 H   0  0  0  0  0  0  0  0  0  0  0  0
   -0.2933   -0.1205    0.3719 C   0  0  1  0  0  0  0  0  0  0  0  0
    0.4439   -0.7485   -0.1303 H   0  0  0  0  0  0  0  0  0  0  0  0
   -0.4368    1.1924   -0.4246 C   0  0  0  0  0  0  0  0  0  0  0  0
   -1.2714    1.7553   -0.0031 H   0  0  0  0  0  0  0  0  0  0  0  0
    0.4695    1.7877   -0.3036 H   0  0  0  0  0  0  0  0  0  0  0  0
   -0.6880    0.9851   -1.9283 C   0  0  0  0  0  0  0  0  0  0  0  0
    0.1458    0.4412   -2.3724 H   0  0  0  0  0  0  0  0  0  0  0  0
   -1.6020    0.4078   -2.0621 H   0  0  0  0  0  0  0  0  0  0  0  0
   -0.8481    2.3053   -2.6752 C   0  0  0  0  0  0  0  0  0  0  0  0
   -0.9093    3.4049   -2.1487 O   0  0  0  0  0  0  0  0  0  0  0  0
   -0.9366    2.2067   -4.0146 O   0  0  0  0  0  0  0  0  0  0  0  0
   -1.0448    3.1070   -4.3262 H   0  0  0  0  0  0  0  0  0  0  0  0
    0.1871    0.1189    1.8122 C   0  0  0  0  0  0  0  0  0  0  0  0
   -0.4926    0.7935    2.5833 O   0  0  0  0  0  0  0  0  0  0  0  0
    1.3589   -0.4219    2.1672 N   0  0  0  0  0  0  0  0  0  0  0  0
    1.8498   -0.9824    1.4867 H   0  0  0  0  0  0  0  0  0  0  0  0
    1.9616   -0.2684    3.4897 C   0  0  0  0  0  0  0  0  0  0  0  0
    1.2715   -0.6296    4.2544 H   0  0  0  0  0  0  0  0  0  0  0  0
    2.8921   -0.8347    3.5502 H   0  0  0  0  0  0  0  0  0  0  0  0
    2.1685    0.7865    3.6803 H   0  0  0  0  0  0  0  0  0  0  0  0
  5  6  2  0  0  0  0
  5  7  1  0  0  0  0
  2  3  1  0  0  0  0
  2  4  1  0  0  0  0
  2  5  1  0  0  0  0
  1  2  1  0  0  0  0
 21 22  2  0  0  0  0
 21 23  1  0  0  0  0
 19 20  1  0  0  0  0
 17 18  2  0  0  0  0
 17 19  1  0  0  0  0
 14 15  1  0  0  0  0
 14 16  1  0  0  0  0
 14 17  1  0  0  0  0
 11 12  1  0  0  0  0
 11 13  1  0  0  0  0
 11 14  1  0  0  0  0
  9 10  1  0  0  0  0
  9 11  1  0  0  0  0
  9 21  1  0  0  0  0
  7  8  1  0  0  0  0
  7  9  1  0  0  0  0
 25 26  1  0  0  0  0
 25 27  1  0  0  0  0
 25 28  1  0  0  0  0
 23 24  1  0  0  0  0
 23 25  1  0  0  0  0
M  END
$$$$
default_name
  -OEChem-01062215323D

 28 27  0     1  0  0  0  0  0999 V2000
   -3.2133   -3.5565    1.2809 H   0  0  0  0  0  0  0  0  0  0  0  0
   -3.1873   -2.5755    0.8089 C   0  0  0  0  0  0  0  0  0  0  0  0
   -3.8793   -1.9065    1.3169 H   0  0  0  0  0  0  0  0  0  0  0  0
   -3.4623   -2.6685   -0.2401 H   0  0  0  0  0  0  0  0  0  0  0  0
   -1.7863   -2.0195    0.9119 C   0  0  0  0  0  0  0  0  0  0  0  0
   -0.9073   -2.6615    1.4699 O   0  0  0  0  0  0  0  0  0  0  0  0
   -1.5803   -0.8195    0.3749 N   0  0  0  0  0  0  0  0  0  0  0  0
   -2.3603   -0.3345   -0.0451 H   0  0  0  0  0  0  0  0  0  0  0  0
   -0.2933   -0.1205    0.3719 C   0  0  1  0  0  0  0  0  0  0  0  0
    0.4439   -0.7485   -0.1303 H   0  0  0  0  0  0  0  0  0  0  0  0
   -0.4368    1.1924   -0.4246 C   0  0  0  0  0  0  0  0  0  0  0  0
   -1.2714    1.7553   -0.0031 H   0  0  0  0  0  0  0  0  0  0  0  0
    0.4695    1.7877   -0.3036 H   0  0  0  0  0  0  0  0  0  0  0  0
   -0.6880    0.9851   -1.9283 C   0  0  0  0  0  0  0  0  0  0  0  0
    0.1458    0.4412   -2.3724 H   0  0  0  0  0  0  0  0  0  0  0  0
   -1.6020    0.4078   -2.0621 H   0  0  0  0  0  0  0  0  0  0  0  0
   -0.8481    2.3053   -2.6752 C   0  0  0  0  0  0  0  0  0  0  0  0
   -0.9093    3.4049   -2.1487 O   0  0  0  0  0  0  0  0  0  0  0  0
   -0.9366    2.2067   -4.0146 O   0  0  0  0  0  0  0  0  0  0  0  0
   -1.0448    3.1070   -4.3262 H   0  0  0  0  0  0  0  0  0  0  0  0
    0.1871    0.1189    1.8122 C   0  0  0  0  0  0  0  0  0  0  0  0
   -0.5954    0.5466    2.6587 O   0  0  0  0  0  0  0  0  0  0  0  0
    1.4709   -0.1447    2.0838 N   0  0  0  0  0  0  0  0  0  0  0  0
    2.0475   -0.5150    1.3431 H   0  0  0  0  0  0  0  0  0  0  0  0
    2.0847    0.0505    3.3957 C   0  0  0  0  0  0  0  0  0  0  0  0
    1.5413   -0.5253    4.1471 H   0  0  0  0  0  0  0  0  0  0  0  0
    3.1260   -0.2744    3.3791 H   0  0  0  0  0  0  0  0  0  0  0  0
    2.0408    1.1064    3.6698 H   0  0  0  0  0  0  0  0  0  0  0  0
  5  6  2  0  0  0  0
  5  7  1  0  0  0  0
  2  3  1  0  0  0  0
  2  4  1  0  0  0  0
  2  5  1  0  0  0  0
  1  2  1  0  0  0  0
 21 22  2  0  0  0  0
 21 23  1  0  0  0  0
 19 20  1  0  0  0  0
 17 18  2  0  0  0  0
 17 19  1  0  0  0  0
 14 15  1  0  0  0  0
 14 16  1  0  0  0  0
 14 17  1  0  0  0  0
 11 12  1  0  0  0  0
 11 13  1  0  0  0  0
 11 14  1  0  0  0  0
  9 10  1  0  0  0  0
  9 11  1  0  0  0  0
  9 21  1  0  0  0  0
  7  8  1  0  0  0  0
  7  9  1  0  0  0  0
 25 26  1  0  0  0  0
 25 27  1  0  0  0  0
 25 28  1  0  0  0  0
 23 24  1  0  0  0  0
 23 25  1  0  0  0  0
M  END
$$$$
default_name
  -OEChem-01062215323D

 28 27  0     1  0  0  0  0  0999 V2000
   -3.2133   -3.5565    1.2809 H   0  0  0  0  0  0  0  0  0  0  0  0
   -3.1873   -2.5755    0.8089 C   0  0  0  0  0  0  0  0  0  0  0  0
   -3.8793   -1.9065    1.3169 H   0  0  0  0  0  0  0  0  0  0  0  0
   -3.4623   -2.6685   -0.2401 H   0  0  0  0  0  0  0  0  0  0  0  0
   -1.7863   -2.0195    0.9119 C   0  0  0  0  0  0  0  0  0  0  0  0
   -0.9073   -2.6615    1.4699 O   0  0  0  0  0  0  0  0  0  0  0  0
   -1.5803   -0.8195    0.3749 N   0  0  0  0  0  0  0  0  0  0  0  0
   -2.3603   -0.3345   -0.0451 H   0  0  0  0  0  0  0  0  0  0  0  0
   -0.2933   -0.1205    0.3719 C   0  0  1  0  0  0  0  0  0  0  0  0
    0.4439   -0.7485   -0.1303 H   0  0  0  0  0  0  0  0  0  0  0  0
   -0.4368    1.1924   -0.4246 C   0  0  0  0  0  0  0  0  0  0  0  0
   -1.2714    1.7553   -0.0031 H   0  0  0  0  0  0  0  0  0  0  0  0
    0.4695    1.7877   -0.3036 H   0  0  0  0  0  0  0  0  0  0  0  0
   -0.6880    0.9851   -1.9283 C   0  0  0  0  0  0  0  0  0  0  0  0
    0.1458    0.4412   -2.3724 H   0  0  0  0  0  0  0  0  0  0  0  0
   -1.6020    0.4078   -2.0621 H   0  0  0  0  0  0  0  0  0  0  0  0
   -0.8481    2.3053   -2.6752 C   0  0  0  0  0  0  0  0  0  0  0  0
   -0.9093    3.4049   -2.1487 O   0  0  0  0  0  0  0  0  0  0  0  0
   -0.9366    2.2067   -4.0146 O   0  0  0  0  0  0  0  0  0  0  0  0
   -1.0448    3.1070   -4.3262 H   0  0  0  0  0  0  0  0  0  0  0  0
    0.1871    0.1189    1.8122 C   0  0  0  0  0  0  0  0  0  0  0  0
   -0.6318    0.2771    2.7156 O   0  0  0  0  0  0  0  0  0  0  0  0
    1.5086    0.1569    2.0210 N   0  0  0  0  0  0  0  0  0  0  0  0
    2.1194   -0.0040    1.2342 H   0  0  0  0  0  0  0  0  0  0  0  0
    2.1225    0.3959    3.3257 C   0  0  0  0  0  0  0  0  0  0  0  0
    1.7723   -0.3505    4.0410 H   0  0  0  0  0  0  0  0  0  0  0  0
    3.2092    0.3373    3.2496 H   0  0  0  0  0  0  0  0  0  0  0  0
    1.8393    1.3852    3.6906 H   0  0  0  0  0  0  0  0  0  0  0  0
  5  6  2  0  0  0  0
  5  7  1  0  0  0  0
  2  3  1  0  0  0  0
  2  4  1  0  0  0  0
  2  5  1  0  0  0  0
  1  2  1  0  0  0  0
 21 22  2  0  0  0  0
 21 23  1  0  0  0  0
 19 20  1  0  0  0  0
 17 18  2  0  0  0  0
 17 19  1  0  0  0  0
 14 15  1  0  0  0  0
 14 16  1  0  0  0  0
 14 17  1  0  0  0  0
 11 12  1  0  0  0  0
 11 13  1  0  0  0  0
 11 14  1  0  0  0  0
  9 10  1  0  0  0  0
  9 11  1  0  0  0  0
  9 21  1  0  0  0  0
  7  8  1  0  0  0  0
  7  9  1  0  0  0  0
 25 26  1  0  0  0  0
 25 27  1  0  0  0  0
 25 28  1  0  0  0  0
 23 24  1  0  0  0  0
 23 25  1  0  0  0  0
M  END
$$$$
default_name
  -OEChem-01062215323D

 28 27  0     1  0  0  0  0  0999 V2000
   -3.2133   -3.5565    1.2809 H   0  0  0  0  0  0  0  0  0  0  0  0
   -3.1873   -2.5755    0.8089 C   0  0  0  0  0  0  0  0  0  0  0  0
   -3.8793   -1.9065    1.3169 H   0  0  0  0  0  0  0  0  0  0  0  0
   -3.4623   -2.6685   -0.2401 H   0  0  0  0  0  0  0  0  0  0  0  0
   -1.7863   -2.0195    0.9119 C   0  0  0  0  0  0  0  0  0  0  0  0
   -0.9073   -2.6615    1.4699 O   0  0  0  0  0  0  0  0  0  0  0  0
   -1.5803   -0.8195    0.3749 N   0  0  0  0  0  0  0  0  0  0  0  0
   -2.3603   -0.3345   -0.0451 H   0  0  0  0  0  0  0  0  0  0  0  0
   -0.2933   -0.1205    0.3719 C   0  0  1  0  0  0  0  0  0  0  0  0
    0.4439   -0.7485   -0.1303 H   0  0  0  0  0  0  0  0  0  0  0  0
   -0.4368    1.1924   -0.4246 C   0  0  0  0  0  0  0  0  0  0  0  0
   -1.2714    1.7553   -0.0031 H   0  0  0  0  0  0  0  0  0  0  0  0
    0.4695    1.7877   -0.3036 H   0  0  0  0  0  0  0  0  0  0  0  0
   -0.6880    0.9851   -1.9283 C   0  0  0  0  0  0  0  0  0  0  0  0
    0.1458    0.4412   -2.3724 H   0  0  0  0  0  0  0  0  0  0  0  0
   -1.6020    0.4078   -2.0621 H   0  0  0  0  0  0  0  0  0  0  0  0
   -0.8481    2.3053   -2.6752 C   0  0  0  0  0  0  0  0  0  0  0  0
   -0.9093    3.4049   -2.1487 O   0  0  0  0  0  0  0  0  0  0  0  0
   -0.9366    2.2067   -4.0146 O   0  0  0  0  0  0  0  0  0  0  0  0
   -1.0448    3.1070   -4.3262 H   0  0  0  0  0  0  0  0  0  0  0  0
    0.1871    0.1189    1.8122 C   0  0  0  0  0  0  0  0  0  0  0  0
   -0.5993    0.0032    2.7503 O   0  0  0  0  0  0  0  0  0  0  0  0
    1.4693    0.4625    1.9834 N   0  0  0  0  0  0  0  0  0  0  0  0
    2.0606    0.5158    1.1674 H   0  0  0  0  0  0  0  0  0  0  0  0
    2.0724    0.7444    3.2845 C   0  0  0  0  0  0  0  0  0  0  0  0
    1.9487   -0.1170    3.9433 H   0  0  0  0  0  0  0  0  0  0  0  0
    3.1359    0.9589    3.1708 H   0  0  0  0  0  0  0  0  0  0  0  0
    1.5780    1.6039    3.7414 H   0  0  0  0  0  0  0  0  0  0  0  0
  5  6  2  0  0  0  0
  5  7  1  0  0  0  0
  2  3  1  0  0  0  0
  2  4  1  0  0  0  0
  2  5  1  0  0  0  0
  1  2  1  0  0  0  0
 21 22  2  0  0  0  0
 21 23  1  0  0  0  0
 19 20  1  0  0  0  0
 17 18  2  0  0  0  0
 17 19  1  0  0  0  0
 14 15  1  0  0  0  0
 14 16  1  0  0  0  0
 14 17  1  0  0  0  0
 11 12  1  0  0  0  0
 11 13  1  0  0  0  0
 11 14  1  0  0  0  0
  9 10  1  0  0  0  0
  9 11  1  0  0  0  0
  9 21  1  0  0  0  0
  7  8  1  0  0  0  0
  7  9  1  0  0  0  0
 25 26  1  0  0  0  0
 25 27  1  0  0  0  0
 25 28  1  0  0  0  0
 23 24  1  0  0  0  0
 23 25  1  0  0  0  0
M  END
$$$$
default_name
  -OEChem-01062215323D

 28 27  0     1  0  0  0  0  0999 V2000
   -3.2133   -3.5565    1.2809 H   0  0  0  0  0  0  0  0  0  0  0  0
   -3.1873   -2.5755    0.8089 C   0  0  0  0  0  0  0  0  0  0  0  0
   -3.8793   -1.9065    1.3169 H   0  0  0  0  0  0  0  0  0  0  0  0
   -3.4623   -2.6685   -0.2401 H   0  0  0  0  0  0  0  0  0  0  0  0
   -1.7863   -2.0195    0.9119 C   0  0  0  0  0  0  0  0  0  0  0  0
   -0.9073   -2.6615    1.4699 O   0  0  0  0  0  0  0  0  0  0  0  0
   -1.5803   -0.8195    0.3749 N   0  0  0  0  0  0  0  0  0  0  0  0
   -2.3603   -0.3345   -0.0451 H   0  0  0  0  0  0  0  0  0  0  0  0
   -0.2933   -0.1205    0.3719 C   0  0  1  0  0  0  0  0  0  0  0  0
    0.3669   -0.6075   -0.3471 H   0  0  0  0  0  0  0  0  0  0  0  0
   -0.5145    1.3371   -0.0812 C   0  0  0  0  0  0  0  0  0  0  0  0
   -1.2823    1.7778    0.5571 H   0  0  0  0  0  0  0  0  0  0  0  0
    0.4084    1.9016    0.0591 H   0  0  0  0  0  0  0  0  0  0  0  0
   -0.9525    1.4738   -1.5497 C   0  0  0  0  0  0  0  0  0  0  0  0
   -0.1882    1.0568   -2.2055 H   0  0  0  0  0  0  0  0  0  0  0  0
   -1.8846    0.9295   -1.6973 H   0  0  0  0  0  0  0  0  0  0  0  0
   -1.1841    2.9270   -1.9511 C   0  0  0  0  0  0  0  0  0  0  0  0
   -1.1635    3.8770   -1.1850 O   0  0  0  0  0  0  0  0  0  0  0  0
   -1.4387    3.1344   -3.2564 O   0  0  0  0  0  0  0  0  0  0  0  0
   -1.5711    4.0804   -3.3393 H   0  0  0  0  0  0  0  0  0  0  0  0
    0.3647   -0.2084    1.7582 C   0  0  0  0  0  0  0  0  0  0  0  0
   -0.2056   -0.7987    2.6736 O   0  0  0  0  0  0  0  0  0  0  0  0
    1.5536    0.3867    1.9131 N   0  0  0  0  0  0  0  0  0  0  0  0
    1.9706    0.8328    1.1098 H   0  0  0  0  0  0  0  0  0  0  0  0
    2.2966    0.4112    3.1714 C   0  0  0  0  0  0  0  0  0  0  0  0
    2.4751   -0.6094    3.5149 H   0  0  0  0  0  0  0  0  0  0  0  0
    3.2538    0.9167    3.0366 H   0  0  0  0  0  0  0  0  0  0  0  0
    1.7156    0.9361    3.9323 H   0  0  0  0  0  0  0  0  0  0  0  0
  5  6  2  0  0  0  0
  5  7  1  0  0  0  0
  2  3  1  0  0  0  0
  2  4  1  0  0  0  0
  2  5  1  0  0  0  0
  1  2  1  0  0  0  0
 21 22  2  0  0  0  0
 21 23  1  0  0  0  0
 19 20  1  0  0  0  0
 17 18  2  0  0  0  0
 17 19  1  0  0  0  0
 14 15  1  0  0  0  0
 14 16  1  0  0  0  0
 14 17  1  0  0  0  0
 11 12  1  0  0  0  0
 11 13  1  0  0  0  0
 11 14  1  0  0  0  0
  9 10  1  0  0  0  0
  9 11  1  0  0  0  0
  9 21  1  0  0  0  0
  7  8  1  0  0  0  0
  7  9  1  0  0  0  0
 25 26  1  0  0  0  0
 25 27  1  0  0  0  0
 25 28  1  0  0  0  0
 23 24  1  0  0  0  0
 23 25  1  0  0  0  0
M  END
$$$$
default_name
  -OEChem-01062215323D

 28 27  0     1  0  0  0  0  0999 V2000
   -3.2133   -3.5565    1.2809 H   0  0  0  0  0  0  0  0  0  0  0  0
   -3.1873   -2.5755    0.8089 C   0  0  0  0  0  0  0  0  0  0  0  0
   -3.8793   -1.9065    1.3169 H   0  0  0  0  0  0  0  0  0  0  0  0
   -3.4623   -2.6685   -0.2401 H   0  0  0  0  0  0  0  0  0  0  0  0
   -1.7863   -2.0195    0.9119 C   0  0  0  0  0  0  0  0  0  0  0  0
   -0.9073   -2.6615    1.4699 O   0  0  0  0  0  0  0  0  0  0  0  0
   -1.5803   -0.8195    0.3749 N   0  0  0  0  0  0  0  0  0  0  0  0
   -2.3603   -0.3345   -0.0451 H   0  0  0  0  0  0  0  0  0  0  0  0
   -0.2933   -0.1205    0.3719 C   0  0  1  0  0  0  0  0  0  0  0  0
    0.3669   -0.6075   -0.3471 H   0  0  0  0  0  0  0  0  0  0  0  0
   -0.5145    1.3371   -0.0812 C   0  0  0  0  0  0  0  0  0  0  0  0
   -1.2823    1.7778    0.5571 H   0  0  0  0  0  0  0  0  0  0  0  0
    0.4084    1.9016    0.0591 H   0  0  0  0  0  0  0  0  0  0  0  0
   -0.9525    1.4738   -1.5497 C   0  0  0  0  0  0  0  0  0  0  0  0
   -0.1882    1.0568   -2.2055 H   0  0  0  0  0  0  0  0  0  0  0  0
   -1.8846    0.9295   -1.6973 H   0  0  0  0  0  0  0  0  0  0  0  0
   -1.1841    2.9270   -1.9511 C   0  0  0  0  0  0  0  0  0  0  0  0
   -1.1635    3.8770   -1.1850 O   0  0  0  0  0  0  0  0  0  0  0  0
   -1.4387    3.1344   -3.2564 O   0  0  0  0  0  0  0  0  0  0  0  0
   -1.5711    4.0804   -3.3393 H   0  0  0  0  0  0  0  0  0  0  0  0
    0.3647   -0.2084    1.7582 C   0  0  0  0  0  0  0  0  0  0  0  0
   -0.0530   -1.0144    2.5875 O   0  0  0  0  0  0  0  0  0  0  0  0
    1.3808    0.6256    2.0103 N   0  0  0  0  0  0  0  0  0  0  0  0
    1.6831    1.2439    1.2723 H   0  0  0  0  0  0  0  0  0  0  0  0
    2.0953    0.6804    3.2840 C   0  0  0  0  0  0  0  0  0  0  0  0
    2.5074   -0.3026    3.5190 H   0  0  0  0  0  0  0  0  0  0  0  0
    2.9078    1.4066    3.2319 H   0  0  0  0  0  0  0  0  0  0  0  0
    1.4063    0.9667    4.0811 H   0  0  0  0  0  0  0  0  0  0  0  0
  5  6  2  0  0  0  0
  5  7  1  0  0  0  0
  2  3  1  0  0  0  0
  2  4  1  0  0  0  0
  2  5  1  0  0  0  0
  1  2  1  0  0  0  0
 21 22  2  0  0  0  0
 21 23  1  0  0  0  0
 19 20  1  0  0  0  0
 17 18  2  0  0  0  0
 17 19  1  0  0  0  0
 14 15  1  0  0  0  0
 14 16  1  0  0  0  0
 14 17  1  0  0  0  0
 11 12  1  0  0  0  0
 11 13  1  0  0  0  0
 11 14  1  0  0  0  0
  9 10  1  0  0  0  0
  9 11  1  0  0  0  0
  9 21  1  0  0  0  0
  7  8  1  0  0  0  0
  7  9  1  0  0  0  0
 25 26  1  0  0  0  0
 25 27  1  0  0  0  0
 25 28  1  0  0  0  0
 23 24  1  0  0  0  0
 23 25  1  0  0  0  0
M  END
$$$$
default_name
  -OEChem-01062215323D

 28 27  0     1  0  0  0  0  0999 V2000
   -3.2133   -3.5565    1.2809 H   0  0  0  0  0  0  0  0  0  0  0  0
   -3.1873   -2.5755    0.8089 C   0  0  0  0  0  0  0  0  0  0  0  0
   -3.8793   -1.9065    1.3169 H   0  0  0  0  0  0  0  0  0  0  0  0
   -3.4623   -2.6685   -0.2401 H   0  0  0  0  0  0  0  0  0  0  0  0
   -1.7863   -2.0195    0.9119 C   0  0  0  0  0  0  0  0  0  0  0  0
   -0.9073   -2.6615    1.4699 O   0  0  0  0  0  0  0  0  0  0  0  0
   -1.5803   -0.8195    0.3749 N   0  0  0  0  0  0  0  0  0  0  0  0
   -2.3603   -0.3345   -0.0451 H   0  0  0  0  0  0  0  0  0  0  0  0
   -0.2933   -0.1205    0.3719 C   0  0  1  0  0  0  0  0  0  0  0  0
    0.3669   -0.6075   -0.3471 H   0  0  0  0  0  0  0  0  0  0  0  0
   -0.5145    1.3371   -0.0812 C   0  0  0  0  0  0  0  0  0  0  0  0
   -1.2823    1.7778    0.5571 H   0  0  0  0  0  0  0  0  0  0  0  0
    0.4084    1.9016    0.0591 H   0  0  0  0  0  0  0  0  0  0  0  0
   -0.9525    1.4738   -1.5497 C   0  0  0  0  0  0  0  0  0  0  0  0
   -0.1882    1.0568   -2.2055 H   0  0  0  0  0  0  0  0  0  0  0  0
   -1.8846    0.9295   -1.6973 H   0  0  0  0  0  0  0  0  0  0  0  0
   -1.1841    2.9270   -1.9511 C   0  0  0  0  0  0  0  0  0  0  0  0
   -1.1635    3.8770   -1.1850 O   0  0  0  0  0  0  0  0  0  0  0  0
   -1.4387    3.1344   -3.2564 O   0  0  0  0  0  0  0  0  0  0  0  0
   -1.5711    4.0804   -3.3393 H   0  0  0  0  0  0  0  0  0  0  0  0
    0.3647   -0.2084    1.7582 C   0  0  0  0  0  0  0  0  0  0  0  0
    0.1461   -1.1775    2.4826 O   0  0  0  0  0  0  0  0  0  0  0  0
    1.1568    0.8052    2.1280 N   0  0  0  0  0  0  0  0  0  0  0  0
    1.3070    1.5559    1.4707 H   0  0  0  0  0  0  0  0  0  0  0  0
    1.8364    0.8810    3.4196 C   0  0  0  0  0  0  0  0  0  0  0  0
    2.4670    0.0008    3.5574 H   0  0  0  0  0  0  0  0  0  0  0  0
    2.4562    1.7774    3.4698 H   0  0  0  0  0  0  0  0  0  0  0  0
    1.0982    0.9076    4.2236 H   0  0  0  0  0  0  0  0  0  0  0  0
  5  6  2  0  0  0  0
  5  7  1  0  0  0  0
  2  3  1  0  0  0  0
  2  4  1  0  0  0  0
  2  5  1  0  0  0  0
  1  2  1  0  0  0  0
 21 22  2  0  0  0  0
 21 23  1  0  0  0  0
 19 20  1  0  0  0  0
 17 18  2  0  0  0  0
 17 19  1  0  0  0  0
 14 15  1  0  0  0  0
 14 16  1  0  0  0  0
 14 17  1  0  0  0  0
 11 12  1  0  0  0  0
 11 13  1  0  0  0  0
 11 14  1  0  0  0  0
  9 10  1  0  0  0  0
  9 11  1  0  0  0  0
  9 21  1  0  0  0  0
  7  8  1  0  0  0  0
  7  9  1  0  0  0  0
 25 26  1  0  0  0  0
 25 27  1  0  0  0  0
 25 28  1  0  0  0  0
 23 24  1  0  0  0  0
 23 25  1  0  0  0  0
M  END
$$$$
default_name
  -OEChem-01062215323D

 28 27  0     1  0  0  0  0  0999 V2000
   -3.2133   -3.5565    1.2809 H   0  0  0  0  0  0  0  0  0  0  0  0
   -3.1873   -2.5755    0.8089 C   0  0  0  0  0  0  0  0  0  0  0  0
   -3.8793   -1.9065    1.3169 H   0  0  0  0  0  0  0  0  0  0  0  0
   -3.4623   -2.6685   -0.2401 H   0  0  0  0  0  0  0  0  0  0  0  0
   -1.7863   -2.0195    0.9119 C   0  0  0  0  0  0  0  0  0  0  0  0
   -0.9073   -2.6615    1.4699 O   0  0  0  0  0  0  0  0  0  0  0  0
   -1.5803   -0.8195    0.3749 N   0  0  0  0  0  0  0  0  0  0  0  0
   -2.3603   -0.3345   -0.0451 H   0  0  0  0  0  0  0  0  0  0  0  0
   -0.2933   -0.1205    0.3719 C   0  0  1  0  0  0  0  0  0  0  0  0
    0.3669   -0.6075   -0.3471 H   0  0  0  0  0  0  0  0  0  0  0  0
   -0.5145    1.3371   -0.0812 C   0  0  0  0  0  0  0  0  0  0  0  0
   -1.2823    1.7778    0.5571 H   0  0  0  0  0  0  0  0  0  0  0  0
    0.4084    1.9016    0.0591 H   0  0  0  0  0  0  0  0  0  0  0  0
   -0.9525    1.4738   -1.5497 C   0  0  0  0  0  0  0  0  0  0  0  0
   -0.1882    1.0568   -2.2055 H   0  0  0  0  0  0  0  0  0  0  0  0
   -1.8846    0.9295   -1.6973 H   0  0  0  0  0  0  0  0  0  0  0  0
   -1.1841    2.9270   -1.9511 C   0  0  0  0  0  0  0  0  0  0  0  0
   -1.1635    3.8770   -1.1850 O   0  0  0  0  0  0  0  0  0  0  0  0
   -1.4387    3.1344   -3.2564 O   0  0  0  0  0  0  0  0  0  0  0  0
   -1.5711    4.0804   -3.3393 H   0  0  0  0  0  0  0  0  0  0  0  0
    0.3647   -0.2084    1.7582 C   0  0  0  0  0  0  0  0  0  0  0  0
    0.3780   -1.2770    2.3662 O   0  0  0  0  0  0  0  0  0  0  0  0
    0.8967    0.9134    2.2583 N   0  0  0  0  0  0  0  0  0  0  0  0
    0.8679    1.7475    1.6912 H   0  0  0  0  0  0  0  0  0  0  0  0
    1.5375    0.9993    3.5690 C   0  0  0  0  0  0  0  0  0  0  0  0
    2.3565    0.2801    3.6276 H   0  0  0  0  0  0  0  0  0  0  0  0
    1.9300    2.0038    3.7339 H   0  0  0  0  0  0  0  0  0  0  0  0
    0.8123    0.7628    4.3501 H   0  0  0  0  0  0  0  0  0  0  0  0
  5  6  2  0  0  0  0
  5  7  1  0  0  0  0
  2  3  1  0  0  0  0
  2  4  1  0  0  0  0
  2  5  1  0  0  0  0
  1  2  1  0  0  0  0
 21 22  2  0  0  0  0
 21 23  1  0  0  0  0
 19 20  1  0  0  0  0
 17 18  2  0  0  0  0
 17 19  1  0  0  0  0
 14 15  1  0  0  0  0
 14 16  1  0  0  0  0
 14 17  1  0  0  0  0
 11 12  1  0  0  0  0
 11 13  1  0  0  0  0
 11 14  1  0  0  0  0
  9 10  1  0  0  0  0
  9 11  1  0  0  0  0
  9 21  1  0  0  0  0
  7  8  1  0  0  0  0
  7  9  1  0  0  0  0
 25 26  1  0  0  0  0
 25 27  1  0  0  0  0
 25 28  1  0  0  0  0
 23 24  1  0  0  0  0
 23 25  1  0  0  0  0
M  END
$$$$
default_name
  -OEChem-01062215323D

 28 27  0     1  0  0  0  0  0999 V2000
   -3.2133   -3.5565    1.2809 H   0  0  0  0  0  0  0  0  0  0  0  0
   -3.1873   -2.5755    0.8089 C   0  0  0  0  0  0  0  0  0  0  0  0
   -3.8793   -1.9065    1.3169 H   0  0  0  0  0  0  0  0  0  0  0  0
   -3.4623   -2.6685   -0.2401 H   0  0  0  0  0  0  0  0  0  0  0  0
   -1.7863   -2.0195    0.9119 C   0  0  0  0  0  0  0  0  0  0  0  0
   -0.9073   -2.6615    1.4699 O   0  0  0  0  0  0  0  0  0  0  0  0
   -1.5803   -0.8195    0.3749 N   0  0  0  0  0  0  0  0  0  0  0  0
   -2.3603   -0.3345   -0.0451 H   0  0  0  0  0  0  0  0  0  0  0  0
   -0.2933   -0.1205    0.3719 C   0  0  1  0  0  0  0  0  0  0  0  0
    0.3669   -0.6075   -0.3471 H   0  0  0  0  0  0  0  0  0  0  0  0
   -0.5145    1.3371   -0.0812 C   0  0  0  0  0  0  0  0  0  0  0  0
   -1.2823    1.7778    0.5571 H   0  0  0  0  0  0  0  0  0  0  0  0
    0.4084    1.9016    0.0591 H   0  0  0  0  0  0  0  0  0  0  0  0
   -0.9525    1.4738   -1.5497 C   0  0  0  0  0  0  0  0  0  0  0  0
   -0.1882    1.0568   -2.2055 H   0  0  0  0  0  0  0  0  0  0  0  0
   -1.8846    0.9295   -1.6973 H   0  0  0  0  0  0  0  0  0  0  0  0
   -1.1841    2.9270   -1.9511 C   0  0  0  0  0  0  0  0  0  0  0  0
   -1.1635    3.8770   -1.1850 O   0  0  0  0  0  0  0  0  0  0  0  0
   -1.4387    3.1344   -3.2564 O   0  0  0  0  0  0  0  0  0  0  0  0
   -1.5711    4.0804   -3.3393 H   0  0  0  0  0  0  0  0  0  0  0  0
    0.3647   -0.2084    1.7582 C   0  0  0  0  0  0  0  0  0  0  0  0
    0.6270   -1.3060    2.2462 O   0  0  0  0  0  0  0  0  0  0  0  0
    0.6182    0.9427    2.3924 N   0  0  0  0  0  0  0  0  0  0  0  0
    0.3958    1.8057    1.9190 H   0  0  0  0  0  0  0  0  0  0  0  0
    1.2190    1.0273    3.7220 C   0  0  0  0  0  0  0  0  0  0  0  0
    2.1836    0.5164    3.7247 H   0  0  0  0  0  0  0  0  0  0  0  0
    1.3649    2.0703    4.0063 H   0  0  0  0  0  0  0  0  0  0  0  0
    0.5680    0.5422    4.4521 H   0  0  0  0  0  0  0  0  0  0  0  0
  5  6  2  0  0  0  0
  5  7  1  0  0  0  0
  2  3  1  0  0  0  0
  2  4  1  0  0  0  0
  2  5  1  0  0  0  0
  1  2  1  0  0  0  0
 21 22  2  0  0  0  0
 21 23  1  0  0  0  0
 19 20  1  0  0  0  0
 17 18  2  0  0  0  0
 17 19  1  0  0  0  0
 14 15  1  0  0  0  0
 14 16  1  0  0  0  0
 14 17  1  0  0  0  0
 11 12  1  0  0  0  0
 11 13  1  0  0  0  0
 11 14  1  0  0  0  0
  9 10  1  0  0  0  0
  9 11  1  0  0  0  0
  9 21  1  0  0  0  0
  7  8  1  0  0  0  0
  7  9  1  0  0  0  0
 25 26  1  0  0  0  0
 25 27  1  0  0  0  0
 25 28  1  0  0  0  0
 23 24  1  0  0  0  0
 23 25  1  0  0  0  0
M  END
$$$$
default_name
  -OEChem-01062215323D

 28 27  0     1  0  0  0  0  0999 V2000
   -3.2133   -3.5565    1.2809 H   0  0  0  0  0  0  0  0  0  0  0  0
   -3.1873   -2.5755    0.8089 C   0  0  0  0  0  0  0  0  0  0  0  0
   -3.8793   -1.9065    1.3169 H   0  0  0  0  0  0  0  0  0  0  0  0
   -3.4623   -2.6685   -0.2401 H   0  0  0  0  0  0  0  0  0  0  0  0
   -1.7863   -2.0195    0.9119 C   0  0  0  0  0  0  0  0  0  0  0  0
   -0.9073   -2.6615    1.4699 O   0  0  0  0  0  0  0  0  0  0  0  0
   -1.5803   -0.8195    0.3749 N   0  0  0  0  0  0  0  0  0  0  0  0
   -2.3603   -0.3345   -0.0451 H   0  0  0  0  0  0  0  0  0  0  0  0
   -0.2933   -0.1205    0.3719 C   0  0  1  0  0  0  0  0  0  0  0  0
    0.3669   -0.6075   -0.3471 H   0  0  0  0  0  0  0  0  0  0  0  0
   -0.5145    1.3371   -0.0812 C   0  0  0  0  0  0  0  0  0  0  0  0
   -1.2823    1.7778    0.5571 H   0  0  0  0  0  0  0  0  0  0  0  0
    0.4084    1.9016    0.0591 H   0  0  0  0  0  0  0  0  0  0  0  0
   -0.9525    1.4738   -1.5497 C   0  0  0  0  0  0  0  0  0  0  0  0
   -0.1882    1.0568   -2.2055 H   0  0  0  0  0  0  0  0  0  0  0  0
   -1.8846    0.9295   -1.6973 H   0  0  0  0  0  0  0  0  0  0  0  0
   -1.1841    2.9270   -1.9511 C   0  0  0  0  0  0  0  0  0  0  0  0
   -1.1635    3.8770   -1.1850 O   0  0  0  0  0  0  0  0  0  0  0  0
   -1.4387    3.1344   -3.2564 O   0  0  0  0  0  0  0  0  0  0  0  0
   -1.5711    4.0804   -3.3393 H   0  0  0  0  0  0  0  0  0  0  0  0
    0.3647   -0.2084    1.7582 C   0  0  0  0  0  0  0  0  0  0  0  0
    0.8760   -1.2627    2.1308 O   0  0  0  0  0  0  0  0  0  0  0  0
    0.3404    0.8912    2.5210 N   0  0  0  0  0  0  0  0  0  0  0  0
   -0.0772    1.7264    2.1385 H   0  0  0  0  0  0  0  0  0  0  0  0
    0.9025    0.9630    3.8681 C   0  0  0  0  0  0  0  0  0  0  0  0
    1.9599    0.6935    3.8421 H   0  0  0  0  0  0  0  0  0  0  0  0
    0.7996    1.9725    4.2685 H   0  0  0  0  0  0  0  0  0  0  0  0
    0.3821    0.2608    4.5225 H   0  0  0  0  0  0  0  0  0  0  0  0
  5  6  2  0  0  0  0
  5  7  1  0  0  0  0
  2  3  1  0  0  0  0
  2  4  1  0  0  0  0
  2  5  1  0  0  0  0
  1  2  1  0  0  0  0
 21 22  2  0  0  0  0
 21 23  1  0  0  0  0
 19 20  1  0  0  0  0
 17 18  2  0  0  0  0
 17 19  1  0  0  0  0
 14 15  1  0  0  0  0
 14 16  1  0  0  0  0
 14 17  1  0  0  0  0
 11 12  1  0  0  0  0
 11 13  1  0  0  0  0
 11 14  1  0  0  0  0
  9 10  1  0  0  0  0
  9 11  1  0  0  0  0
  9 21  1  0  0  0  0
  7  8  1  0  0  0  0
  7  9  1  0  0  0  0
 25 26  1  0  0  0  0
 25 27  1  0  0  0  0
 25 28  1  0  0  0  0
 23 24  1  0  0  0  0
 23 25  1  0  0  0  0
M  END
$$$$
default_name
  -OEChem-01062215323D

 28 27  0     1  0  0  0  0  0999 V2000
   -3.2133   -3.5565    1.2809 H   0  0  0  0  0  0  0  0  0  0  0  0
   -3.1873   -2.5755    0.8089 C   0  0  0  0  0  0  0  0  0  0  0  0
   -3.8793   -1.9065    1.3169 H   0  0  0  0  0  0  0  0  0  0  0  0
   -3.4623   -2.6685   -0.2401 H   0  0  0  0  0  0  0  0  0  0  0  0
   -1.7863   -2.0195    0.9119 C   0  0  0  0  0  0  0  0  0  0  0  0
   -0.9073   -2.6615    1.4699 O   0  0  0  0  0  0  0  0  0  0  0  0
   -1.5803   -0.8195    0.3749 N   0  0  0  0  0  0  0  0  0  0  0  0
   -2.3603   -0.3345   -0.0451 H   0  0  0  0  0  0  0  0  0  0  0  0
   -0.2933   -0.1205    0.3719 C   0  0  1  0  0  0  0  0  0  0  0  0
    0.3669   -0.6075   -0.3471 H   0  0  0  0  0  0  0  0  0  0  0  0
   -0.5145    1.3371   -0.0812 C   0  0  0  0  0  0  0  0  0  0  0  0
   -1.2823    1.7778    0.5571 H   0  0  0  0  0  0  0  0  0  0  0  0
    0.4084    1.9016    0.0591 H   0  0  0  0  0  0  0  0  0  0  0  0
   -0.9525    1.4738   -1.5497 C   0  0  0  0  0  0  0  0  0  0  0  0
   -0.1882    1.0568   -2.2055 H   0  0  0  0  0  0  0  0  0  0  0  0
   -1.8846    0.9295   -1.6973 H   0  0  0  0  0  0  0  0  0  0  0  0
   -1.1841    2.9270   -1.9511 C   0  0  0  0  0  0  0  0  0  0  0  0
   -1.1635    3.8770   -1.1850 O   0  0  0  0  0  0  0  0  0  0  0  0
   -1.4387    3.1344   -3.2564 O   0  0  0  0  0  0  0  0  0  0  0  0
   -1.5711    4.0804   -3.3393 H   0  0  0  0  0  0  0  0  0  0  0  0
    0.3647   -0.2084    1.7582 C   0  0  0  0  0  0  0  0  0  0  0  0
    1.1081   -1.1499    2.0277 O   0  0  0  0  0  0  0  0  0  0  0  0
    0.0823    0.7624    2.6353 N   0  0  0  0  0  0  0  0  0  0  0  0
   -0.5188    1.5151    2.3347 H   0  0  0  0  0  0  0  0  0  0  0  0
    0.6096    0.8108    3.9975 C   0  0  0  0  0  0  0  0  0  0  0  0
    1.7008    0.7994    3.9718 H   0  0  0  0  0  0  0  0  0  0  0  0
    0.2724    1.7170    4.5025 H   0  0  0  0  0  0  0  0  0  0  0  0
    0.2671   -0.0623    4.5566 H   0  0  0  0  0  0  0  0  0  0  0  0
  5  6  2  0  0  0  0
  5  7  1  0  0  0  0
  2  3  1  0  0  0  0
  2  4  1  0  0  0  0
  2  5  1  0  0  0  0
  1  2  1  0  0  0  0
 21 22  2  0  0  0  0
 21 23  1  0  0  0  0
 19 20  1  0  0  0  0
 17 18  2  0  0  0  0
 17 19  1  0  0  0  0
 14 15  1  0  0  0  0
 14 16  1  0  0  0  0
 14 17  1  0  0  0  0
 11 12  1  0  0  0  0
 11 13  1  0  0  0  0
 11 14  1  0  0  0  0
  9 10  1  0  0  0  0
  9 11  1  0  0  0  0
  9 21  1  0  0  0  0
  7  8  1  0  0  0  0
  7  9  1  0  0  0  0
 25 26  1  0  0  0  0
 25 27  1  0  0  0  0
 25 28  1  0  0  0  0
 23 24  1  0  0  0  0
 23 25  1  0  0  0  0
M  END
$$$$
default_name
  -OEChem-01062215323D

 28 27  0     1  0  0  0  0  0999 V2000
   -3.2133   -3.5565    1.2809 H   0  0  0  0  0  0  0  0  0  0  0  0
   -3.1873   -2.5755    0.8089 C   0  0  0  0  0  0  0  0  0  0  0  0
   -3.8793   -1.9065    1.3169 H   0  0  0  0  0  0  0  0  0  0  0  0
   -3.4623   -2.6685   -0.2401 H   0  0  0  0  0  0  0  0  0  0  0  0
   -1.7863   -2.0195    0.9119 C   0  0  0  0  0  0  0  0  0  0  0  0
   -0.9073   -2.6615    1.4699 O   0  0  0  0  0  0  0  0  0  0  0  0
   -1.5803   -0.8195    0.3749 N   0  0  0  0  0  0  0  0  0  0  0  0
   -2.3603   -0.3345   -0.0451 H   0  0  0  0  0  0  0  0  0  0  0  0
   -0.2933   -0.1205    0.3719 C   0  0  1  0  0  0  0  0  0  0  0  0
    0.3669   -0.6075   -0.3471 H   0  0  0  0  0  0  0  0  0  0  0  0
   -0.5145    1.3371   -0.0812 C   0  0  0  0  0  0  0  0  0  0  0  0
   -1.2823    1.7778    0.5571 H   0  0  0  0  0  0  0  0  0  0  0  0
    0.4084    1.9016    0.0591 H   0  0  0  0  0  0  0  0  0  0  0  0
   -0.9525    1.4738   -1.5497 C   0  0  0  0  0  0  0  0  0  0  0  0
   -0.1882    1.0568   -2.2055 H   0  0  0  0  0  0  0  0  0  0  0  0
   -1.8846    0.9295   -1.6973 H   0  0  0  0  0  0  0  0  0  0  0  0
   -1.1841    2.9270   -1.9511 C   0  0  0  0  0  0  0  0  0  0  0  0
   -1.1635    3.8770   -1.1850 O   0  0  0  0  0  0  0  0  0  0  0  0
   -1.4387    3.1344   -3.2564 O   0  0  0  0  0  0  0  0  0  0  0  0
   -1.5711    4.0804   -3.3393 H   0  0  0  0  0  0  0  0  0  0  0  0
    0.3647   -0.2084    1.7582 C   0  0  0  0  0  0  0  0  0  0  0  0
    1.3076   -0.9753    1.9441 O   0  0  0  0  0  0  0  0  0  0  0  0
   -0.1388    0.5650    2.7277 N   0  0  0  0  0  0  0  0  0  0  0  0
   -0.8989    1.1862    2.4942 H   0  0  0  0  0  0  0  0  0  0  0  0
    0.3604    0.5810    4.1012 C   0  0  0  0  0  0  0  0  0  0  0  0
    1.4239    0.8267    4.1050 H   0  0  0  0  0  0  0  0  0  0  0  0
   -0.1806    1.3213    4.6924 H   0  0  0  0  0  0  0  0  0  0  0  0
    0.2310   -0.4049    4.5520 H   0  0  0  0  0  0  0  0  0  0  0  0
  5  6  2  0  0  0  0
  5  7  1  0  0  0  0
  2  3  1  0  0  0  0
  2  4  1  0  0  0  0
  2  5  1  0  0  0  0
  1  2  1  0  0  0  0
 21 22  2  0  0  0  0
 21 23  1  0  0  0  0
 19 20  1  0  0  0  0
 17 18  2  0  0  0  0
 17 19  1  0  0  0  0
 14 15  1  0  0  0  0
 14 16  1  0  0  0  0
 14 17  1  0  0  0  0
 11 12  1  0  0  0  0
 11 13  1  0  0  0  0
 11 14  1  0  0  0  0
  9 10  1  0  0  0  0
  9 11  1  0  0  0  0
  9 21  1  0  0  0  0
  7  8  1  0  0  0  0
  7  9  1  0  0  0  0
 25 26  1  0  0  0  0
 25 27  1  0  0  0  0
 25 28  1  0  0  0  0
 23 24  1  0  0  0  0
 23 25  1  0  0  0  0
M  END
$$$$
default_name
  -OEChem-01062215323D

 28 27  0     1  0  0  0  0  0999 V2000
   -3.2133   -3.5565    1.2809 H   0  0  0  0  0  0  0  0  0  0  0  0
   -3.1873   -2.5755    0.8089 C   0  0  0  0  0  0  0  0  0  0  0  0
   -3.8793   -1.9065    1.3169 H   0  0  0  0  0  0  0  0  0  0  0  0
   -3.4623   -2.6685   -0.2401 H   0  0  0  0  0  0  0  0  0  0  0  0
   -1.7863   -2.0195    0.9119 C   0  0  0  0  0  0  0  0  0  0  0  0
   -0.9073   -2.6615    1.4699 O   0  0  0  0  0  0  0  0  0  0  0  0
   -1.5803   -0.8195    0.3749 N   0  0  0  0  0  0  0  0  0  0  0  0
   -2.3603   -0.3345   -0.0451 H   0  0  0  0  0  0  0  0  0  0  0  0
   -0.2933   -0.1205    0.3719 C   0  0  1  0  0  0  0  0  0  0  0  0
    0.3669   -0.6075   -0.3471 H   0  0  0  0  0  0  0  0  0  0  0  0
   -0.5145    1.3371   -0.0812 C   0  0  0  0  0  0  0  0  0  0  0  0
   -1.2823    1.7778    0.5571 H   0  0  0  0  0  0  0  0  0  0  0  0
    0.4084    1.9016    0.0591 H   0  0  0  0  0  0  0  0  0  0  0  0
   -0.9525    1.4738   -1.5497 C   0  0  0  0  0  0  0  0  0  0  0  0
   -0.1882    1.0568   -2.2055 H   0  0  0  0  0  0  0  0  0  0  0  0
   -1.8846    0.9295   -1.6973 H   0  0  0  0  0  0  0  0  0  0  0  0
   -1.1841    2.9270   -1.9511 C   0  0  0  0  0  0  0  0  0  0  0  0
   -1.1635    3.8770   -1.1850 O   0  0  0  0  0  0  0  0  0  0  0  0
   -1.4387    3.1344   -3.2564 O   0  0  0  0  0  0  0  0  0  0  0  0
   -1.5711    4.0804   -3.3393 H   0  0  0  0  0  0  0  0  0  0  0  0
    0.3647   -0.2084    1.7582 C   0  0  0  0  0  0  0  0  0  0  0  0
    1.4607   -0.7509    1.8857 O   0  0  0  0  0  0  0  0  0  0  0  0
   -0.3075    0.3125    2.7918 N   0  0  0  0  0  0  0  0  0  0  0  0
   -1.1916    0.7621    2.6063 H   0  0  0  0  0  0  0  0  0  0  0  0
    0.1717    0.2895    4.1723 C   0  0  0  0  0  0  0  0  0  0  0  0
    1.1480    0.7738    4.2325 H   0  0  0  0  0  0  0  0  0  0  0  0
   -0.5286    0.8122    4.8253 H   0  0  0  0  0  0  0  0  0  0  0  0
    0.2761   -0.7438    4.5090 H   0  0  0  0  0  0  0  0  0  0  0  0
  5  6  2  0  0  0  0
  5  7  1  0  0  0  0
  2  3  1  0  0  0  0
  2  4  1  0  0  0  0
  2  5  1  0  0  0  0
  1  2  1  0  0  0  0
 21 22  2  0  0  0  0
 21 23  1  0  0  0  0
 19 20  1  0  0  0  0
 17 18  2  0  0  0  0
 17 19  1  0  0  0  0
 14 15  1  0  0  0  0
 14 16  1  0  0  0  0
 14 17  1  0  0  0  0
 11 12  1  0  0  0  0
 11 13  1  0  0  0  0
 11 14  1  0  0  0  0
  9 10  1  0  0  0  0
  9 11  1  0  0  0  0
  9 21  1  0  0  0  0
  7  8  1  0  0  0  0
  7  9  1  0  0  0  0
 25 26  1  0  0  0  0
 25 27  1  0  0  0  0
 25 28  1  0  0  0  0
 23 24  1  0  0  0  0
 23 25  1  0  0  0  0
M  END
$$$$
default_name
  -OEChem-01062215323D

 28 27  0     1  0  0  0  0  0999 V2000
   -3.2133   -3.5565    1.2809 H   0  0  0  0  0  0  0  0  0  0  0  0
   -3.1873   -2.5755    0.8089 C   0  0  0  0  0  0  0  0  0  0  0  0
   -3.8793   -1.9065    1.3169 H   0  0  0  0  0  0  0  0  0  0  0  0
   -3.4623   -2.6685   -0.2401 H   0  0  0  0  0  0  0  0  0  0  0  0
   -1.7863   -2.0195    0.9119 C   0  0  0  0  0  0  0  0  0  0  0  0
   -0.9073   -2.6615    1.4699 O   0  0  0  0  0  0  0  0  0  0  0  0
   -1.5803   -0.8195    0.3749 N   0  0  0  0  0  0  0  0  0  0  0  0
   -2.3603   -0.3345   -0.0451 H   0  0  0  0  0  0  0  0  0  0  0  0
   -0.2933   -0.1205    0.3719 C   0  0  1  0  0  0  0  0  0  0  0  0
    0.3669   -0.6075   -0.3471 H   0  0  0  0  0  0  0  0  0  0  0  0
   -0.5145    1.3371   -0.0812 C   0  0  0  0  0  0  0  0  0  0  0  0
   -1.2823    1.7778    0.5571 H   0  0  0  0  0  0  0  0  0  0  0  0
    0.4084    1.9016    0.0591 H   0  0  0  0  0  0  0  0  0  0  0  0
   -0.9525    1.4738   -1.5497 C   0  0  0  0  0  0  0  0  0  0  0  0
   -0.1882    1.0568   -2.2055 H   0  0  0  0  0  0  0  0  0  0  0  0
   -1.8846    0.9295   -1.6973 H   0  0  0  0  0  0  0  0  0  0  0  0
   -1.1841    2.9270   -1.9511 C   0  0  0  0  0  0  0  0  0  0  0  0
   -1.1635    3.8770   -1.1850 O   0  0  0  0  0  0  0  0  0  0  0  0
   -1.4387    3.1344   -3.2564 O   0  0  0  0  0  0  0  0  0  0  0  0
   -1.5711    4.0804   -3.3393 H   0  0  0  0  0  0  0  0  0  0  0  0
    0.3647   -0.2084    1.7582 C   0  0  0  0  0  0  0  0  0  0  0  0
    1.5571   -0.4919    1.8564 O   0  0  0  0  0  0  0  0  0  0  0  0
   -0.4125    0.0221    2.8232 N   0  0  0  0  0  0  0  0  0  0  0  0
   -1.3771    0.2716    2.6632 H   0  0  0  0  0  0  0  0  0  0  0  0
    0.0564   -0.0441    4.2059 C   0  0  0  0  0  0  0  0  0  0  0  0
    0.8921    0.6441    4.3458 H   0  0  0  0  0  0  0  0  0  0  0  0
   -0.7479    0.2245    4.8921 H   0  0  0  0  0  0  0  0  0  0  0  0
    0.3995   -1.0559    4.4307 H   0  0  0  0  0  0  0  0  0  0  0  0
  5  6  2  0  0  0  0
  5  7  1  0  0  0  0
  2  3  1  0  0  0  0
  2  4  1  0  0  0  0
  2  5  1  0  0  0  0
  1  2  1  0  0  0  0
 21 22  2  0  0  0  0
 21 23  1  0  0  0  0
 19 20  1  0  0  0  0
 17 18  2  0  0  0  0
 17 19  1  0  0  0  0
 14 15  1  0  0  0  0
 14 16  1  0  0  0  0
 14 17  1  0  0  0  0
 11 12  1  0  0  0  0
 11 13  1  0  0  0  0
 11 14  1  0  0  0  0
  9 10  1  0  0  0  0
  9 11  1  0  0  0  0
  9 21  1  0  0  0  0
  7  8  1  0  0  0  0
  7  9  1  0  0  0  0
 25 26  1  0  0  0  0
 25 27  1  0  0  0  0
 25 28  1  0  0  0  0
 23 24  1  0  0  0  0
 23 25  1  0  0  0  0
M  END
$$$$
default_name
  -OEChem-01062215323D

 28 27  0     1  0  0  0  0  0999 V2000
   -3.2133   -3.5565    1.2809 H   0  0  0  0  0  0  0  0  0  0  0  0
   -3.1873   -2.5755    0.8089 C   0  0  0  0  0  0  0  0  0  0  0  0
   -3.8793   -1.9065    1.3169 H   0  0  0  0  0  0  0  0  0  0  0  0
   -3.4623   -2.6685   -0.2401 H   0  0  0  0  0  0  0  0  0  0  0  0
   -1.7863   -2.0195    0.9119 C   0  0  0  0  0  0  0  0  0  0  0  0
   -0.9073   -2.6615    1.4699 O   0  0  0  0  0  0  0  0  0  0  0  0
   -1.5803   -0.8195    0.3749 N   0  0  0  0  0  0  0  0  0  0  0  0
   -2.3603   -0.3345   -0.0451 H   0  0  0  0  0  0  0  0  0  0  0  0
   -0.2933   -0.1205    0.3719 C   0  0  1  0  0  0  0  0  0  0  0  0
    0.3669   -0.6075   -0.3471 H   0  0  0  0  0  0  0  0  0  0  0  0
   -0.5145    1.3371   -0.0812 C   0  0  0  0  0  0  0  0  0  0  0  0
   -1.2823    1.7778    0.5571 H   0  0  0  0  0  0  0  0  0  0  0  0
    0.4084    1.9016    0.0591 H   0  0  0  0  0  0  0  0  0  0  0  0
   -0.9525    1.4738   -1.5497 C   0  0  0  0  0  0  0  0  0  0  0  0
   -0.1882    1.0568   -2.2055 H   0  0  0  0  0  0  0  0  0  0  0  0
   -1.8846    0.9295   -1.6973 H   0  0  0  0  0  0  0  0  0  0  0  0
   -1.1841    2.9270   -1.9511 C   0  0  0  0  0  0  0  0  0  0  0  0
   -1.1635    3.8770   -1.1850 O   0  0  0  0  0  0  0  0  0  0  0  0
   -1.4387    3.1344   -3.2564 O   0  0  0  0  0  0  0  0  0  0  0  0
   -1.5711    4.0804   -3.3393 H   0  0  0  0  0  0  0  0  0  0  0  0
    0.3647   -0.2084    1.7582 C   0  0  0  0  0  0  0  0  0  0  0  0
    1.5902   -0.2160    1.8582 O   0  0  0  0  0  0  0  0  0  0  0  0
   -0.4467   -0.2864    2.8199 N   0  0  0  0  0  0  0  0  0  0  0  0
   -1.4425   -0.2517    2.6611 H   0  0  0  0  0  0  0  0  0  0  0  0
    0.0225   -0.3969    4.1996 C   0  0  0  0  0  0  0  0  0  0  0  0
    0.6734    0.4465    4.4371 H   0  0  0  0  0  0  0  0  0  0  0  0
   -0.8236   -0.4018    4.8883 H   0  0  0  0  0  0  0  0  0  0  0  0
    0.5927   -1.3198    4.3223 H   0  0  0  0  0  0  0  0  0  0  0  0
  5  6  2  0  0  0  0
  5  7  1  0  0  0  0
  2  3  1  0  0  0  0
  2  4  1  0  0  0  0
  2  5  1  0  0  0  0
  1  2  1  0  0  0  0
 21 22  2  0  0  0  0
 21 23  1  0  0  0  0
 19 20  1  0  0  0  0
 17 18  2  0  0  0  0
 17 19  1  0  0  0  0
 14 15  1  0  0  0  0
 14 16  1  0  0  0  0
 14 17  1  0  0  0  0
 11 12  1  0  0  0  0
 11 13  1  0  0  0  0
 11 14  1  0  0  0  0
  9 10  1  0  0  0  0
  9 11  1  0  0  0  0
  9 21  1  0  0  0  0
  7  8  1  0  0  0  0
  7  9  1  0  0  0  0
 25 26  1  0  0  0  0
 25 27  1  0  0  0  0
 25 28  1  0  0  0  0
 23 24  1  0  0  0  0
 23 25  1  0  0  0  0
M  END
$$$$
default_name
  -OEChem-01062215323D

 28 27  0     1  0  0  0  0  0999 V2000
   -3.2133   -3.5565    1.2809 H   0  0  0  0  0  0  0  0  0  0  0  0
   -3.1873   -2.5755    0.8089 C   0  0  0  0  0  0  0  0  0  0  0  0
   -3.8793   -1.9065    1.3169 H   0  0  0  0  0  0  0  0  0  0  0  0
   -3.4623   -2.6685   -0.2401 H   0  0  0  0  0  0  0  0  0  0  0  0
   -1.7863   -2.0195    0.9119 C   0  0  0  0  0  0  0  0  0  0  0  0
   -0.9073   -2.6615    1.4699 O   0  0  0  0  0  0  0  0  0  0  0  0
   -1.5803   -0.8195    0.3749 N   0  0  0  0  0  0  0  0  0  0  0  0
   -2.3603   -0.3345   -0.0451 H   0  0  0  0  0  0  0  0  0  0  0  0
   -0.2933   -0.1205    0.3719 C   0  0  1  0  0  0  0  0  0  0  0  0
    0.3669   -0.6075   -0.3471 H   0  0  0  0  0  0  0  0  0  0  0  0
   -0.5145    1.3371   -0.0812 C   0  0  0  0  0  0  0  0  0  0  0  0
   -1.2823    1.7778    0.5571 H   0  0  0  0  0  0  0  0  0  0  0  0
    0.4084    1.9016    0.0591 H   0  0  0  0  0  0  0  0  0  0  0  0
   -0.9525    1.4738   -1.5497 C   0  0  0  0  0  0  0  0  0  0  0  0
   -0.1882    1.0568   -2.2055 H   0  0  0  0  0  0  0  0  0  0  0  0
   -1.8846    0.9295   -1.6973 H   0  0  0  0  0  0  0  0  0  0  0  0
   -1.1841    2.9270   -1.9511 C   0  0  0  0  0  0  0  0  0  0  0  0
   -1.1635    3.8770   -1.1850 O   0  0  0  0  0  0  0  0  0  0  0  0
   -1.4387    3.1344   -3.2564 O   0  0  0  0  0  0  0  0  0  0  0  0
   -1.5711    4.0804   -3.3393 H   0  0  0  0  0  0  0  0  0  0  0  0
    0.3647   -0.2084    1.7582 C   0  0  0  0  0  0  0  0  0  0  0  0
    1.5577    0.0580    1.8910 O   0  0  0  0  0  0  0  0  0  0  0  0
   -0.4076   -0.5920    2.7819 N   0  0  0  0  0  0  0  0  0  0  0  0
   -1.3836   -0.7722    2.6001 H   0  0  0  0  0  0  0  0  0  0  0  0
    0.0721   -0.7449    4.1540 C   0  0  0  0  0  0  0  0  0  0  0  0
    0.5070    0.1946    4.5001 H   0  0  0  0  0  0  0  0  0  0  0  0
   -0.7503   -1.0239    4.8141 H   0  0  0  0  0  0  0  0  0  0  0  0
    0.8424   -1.5176    4.1912 H   0  0  0  0  0  0  0  0  0  0  0  0
  5  6  2  0  0  0  0
  5  7  1  0  0  0  0
  2  3  1  0  0  0  0
  2  4  1  0  0  0  0
  2  5  1  0  0  0  0
  1  2  1  0  0  0  0
 21 22  2  0  0  0  0
 21 23  1  0  0  0  0
 19 20  1  0  0  0  0
 17 18  2  0  0  0  0
 17 19  1  0  0  0  0
 14 15  1  0  0  0  0
 14 16  1  0  0  0  0
 14 17  1  0  0  0  0
 11 12  1  0  0  0  0
 11 13  1  0  0  0  0
 11 14  1  0  0  0  0
  9 10  1  0  0  0  0
  9 11  1  0  0  0  0
  9 21  1  0  0  0  0
  7  8  1  0  0  0  0
  7  9  1  0  0  0  0
 25 26  1  0  0  0  0
 25 27  1  0  0  0  0
 25 28  1  0  0  0  0
 23 24  1  0  0  0  0
 23 25  1  0  0  0  0
M  END
$$$$
default_name
  -OEChem-01062215323D

 28 27  0     1  0  0  0  0  0999 V2000
   -3.2133   -3.5565    1.2809 H   0  0  0  0  0  0  0  0  0  0  0  0
   -3.1873   -2.5755    0.8089 C   0  0  0  0  0  0  0  0  0  0  0  0
   -3.8793   -1.9065    1.3169 H   0  0  0  0  0  0  0  0  0  0  0  0
   -3.4623   -2.6685   -0.2401 H   0  0  0  0  0  0  0  0  0  0  0  0
   -1.7863   -2.0195    0.9119 C   0  0  0  0  0  0  0  0  0  0  0  0
   -0.9073   -2.6615    1.4699 O   0  0  0  0  0  0  0  0  0  0  0  0
   -1.5803   -0.8195    0.3749 N   0  0  0  0  0  0  0  0  0  0  0  0
   -2.3603   -0.3345   -0.0451 H   0  0  0  0  0  0  0  0  0  0  0  0
   -0.2933   -0.1205    0.3719 C   0  0  1  0  0  0  0  0  0  0  0  0
    0.3669   -0.6075   -0.3471 H   0  0  0  0  0  0  0  0  0  0  0  0
   -0.5145    1.3371   -0.0812 C   0  0  0  0  0  0  0  0  0  0  0  0
   -1.2823    1.7778    0.5571 H   0  0  0  0  0  0  0  0  0  0  0  0
    0.4084    1.9016    0.0591 H   0  0  0  0  0  0  0  0  0  0  0  0
   -0.9525    1.4738   -1.5497 C   0  0  0  0  0  0  0  0  0  0  0  0
   -0.1882    1.0568   -2.2055 H   0  0  0  0  0  0  0  0  0  0  0  0
   -1.8846    0.9295   -1.6973 H   0  0  0  0  0  0  0  0  0  0  0  0
   -1.1841    2.9270   -1.9511 C   0  0  0  0  0  0  0  0  0  0  0  0
   -1.1635    3.8770   -1.1850 O   0  0  0  0  0  0  0  0  0  0  0  0
   -1.4387    3.1344   -3.2564 O   0  0  0  0  0  0  0  0  0  0  0  0
   -1.5711    4.0804   -3.3393 H   0  0  0  0  0  0  0  0  0  0  0  0
    0.3647   -0.2084    1.7582 C   0  0  0  0  0  0  0  0  0  0  0  0
    1.4618    0.3115    1.9525 O   0  0  0  0  0  0  0  0  0  0  0  0
   -0.2979   -0.8738    2.7120 N   0  0  0  0  0  0  0  0  0  0  0  0
   -1.2042   -1.2545    2.4844 H   0  0  0  0  0  0  0  0  0  0  0  0
    0.2020   -1.0644    4.0721 C   0  0  0  0  0  0  0  0  0  0  0  0
    0.4041   -0.0947    4.5306 H   0  0  0  0  0  0  0  0  0  0  0  0
   -0.5333   -1.5995    4.6746 H   0  0  0  0  0  0  0  0  0  0  0  0
    1.1319   -1.6359    4.0463 H   0  0  0  0  0  0  0  0  0  0  0  0
  5  6  2  0  0  0  0
  5  7  1  0  0  0  0
  2  3  1  0  0  0  0
  2  4  1  0  0  0  0
  2  5  1  0  0  0  0
  1  2  1  0  0  0  0
 21 22  2  0  0  0  0
 21 23  1  0  0  0  0
 19 20  1  0  0  0  0
 17 18  2  0  0  0  0
 17 19  1  0  0  0  0
 14 15  1  0  0  0  0
 14 16  1  0  0  0  0
 14 17  1  0  0  0  0
 11 12  1  0  0  0  0
 11 13  1  0  0  0  0
 11 14  1  0  0  0  0
  9 10  1  0  0  0  0
  9 11  1  0  0  0  0
  9 21  1  0  0  0  0
  7  8  1  0  0  0  0
  7  9  1  0  0  0  0
 25 26  1  0  0  0  0
 25 27  1  0  0  0  0
 25 28  1  0  0  0  0
 23 24  1  0  0  0  0
 23 25  1  0  0  0  0
M  END
$$$$
default_name
  -OEChem-01062215323D

 28 27  0     1  0  0  0  0  0999 V2000
   -3.2133   -3.5565    1.2809 H   0  0  0  0  0  0  0  0  0  0  0  0
   -3.1873   -2.5755    0.8089 C   0  0  0  0  0  0  0  0  0  0  0  0
   -3.8793   -1.9065    1.3169 H   0  0  0  0  0  0  0  0  0  0  0  0
   -3.4623   -2.6685   -0.2401 H   0  0  0  0  0  0  0  0  0  0  0  0
   -1.7863   -2.0195    0.9119 C   0  0  0  0  0  0  0  0  0  0  0  0
   -0.9073   -2.6615    1.4699 O   0  0  0  0  0  0  0  0  0  0  0  0
   -1.5803   -0.8195    0.3749 N   0  0  0  0  0  0  0  0  0  0  0  0
   -2.3603   -0.3345   -0.0451 H   0  0  0  0  0  0  0  0  0  0  0  0
   -0.2933   -0.1205    0.3719 C   0  0  1  0  0  0  0  0  0  0  0  0
    0.3669   -0.6075   -0.3471 H   0  0  0  0  0  0  0  0  0  0  0  0
   -0.5145    1.3371   -0.0812 C   0  0  0  0  0  0  0  0  0  0  0  0
   -1.2823    1.7778    0.5571 H   0  0  0  0  0  0  0  0  0  0  0  0
    0.4084    1.9016    0.0591 H   0  0  0  0  0  0  0  0  0  0  0  0
   -0.9525    1.4738   -1.5497 C   0  0  0  0  0  0  0  0  0  0  0  0
   -0.1882    1.0568   -2.2055 H   0  0  0  0  0  0  0  0  0  0  0  0
   -1.8846    0.9295   -1.6973 H   0  0  0  0  0  0  0  0  0  0  0  0
   -1.1841    2.9270   -1.9511 C   0  0  0  0  0  0  0  0  0  0  0  0
   -1.1635    3.8770   -1.1850 O   0  0  0  0  0  0  0  0  0  0  0  0
   -1.4387    3.1344   -3.2564 O   0  0  0  0  0  0  0  0  0  0  0  0
   -1.5711    4.0804   -3.3393 H   0  0  0  0  0  0  0  0  0  0  0  0
    0.3647   -0.2084    1.7582 C   0  0  0  0  0  0  0  0  0  0  0  0
    1.3092    0.5272    2.0387 O   0  0  0  0  0  0  0  0  0  0  0  0
   -0.1251   -1.1127    2.6148 N   0  0  0  0  0  0  0  0  0  0  0  0
   -0.9167   -1.6656    2.3218 H   0  0  0  0  0  0  0  0  0  0  0  0
    0.4032   -1.3336    3.9595 C   0  0  0  0  0  0  0  0  0  0  0  0
    0.3718   -0.4014    4.5264 H   0  0  0  0  0  0  0  0  0  0  0  0
   -0.1872   -2.0894    4.4792 H   0  0  0  0  0  0  0  0  0  0  0  0
    1.4412   -1.6666    3.8975 H   0  0  0  0  0  0  0  0  0  0  0  0
  5  6  2  0  0  0  0
  5  7  1  0  0  0  0
  2  3  1  0  0  0  0
  2  4  1  0  0  0  0
  2  5  1  0  0  0  0
  1  2  1  0  0  0  0
 21 22  2  0  0  0  0
 21 23  1  0  0  0  0
 19 20  1  0  0  0  0
 17 18  2  0  0  0  0
 17 19  1  0  0  0  0
 14 15  1  0  0  0  0
 14 16  1  0  0  0  0
 14 17  1  0  0  0  0
 11 12  1  0  0  0  0
 11 13  1  0  0  0  0
 11 14  1  0  0  0  0
  9 10  1  0  0  0  0
  9 11  1  0  0  0  0
  9 21  1  0  0  0  0
  7  8  1  0  0  0  0
  7  9  1  0  0  0  0
 25 26  1  0  0  0  0
 25 27  1  0  0  0  0
 25 28  1  0  0  0  0
 23 24  1  0  0  0  0
 23 25  1  0  0  0  0
M  END
$$$$
default_name
  -OEChem-01062215323D

 28 27  0     1  0  0  0  0  0999 V2000
   -3.2133   -3.5565    1.2809 H   0  0  0  0  0  0  0  0  0  0  0  0
   -3.1873   -2.5755    0.8089 C   0  0  0  0  0  0  0  0  0  0  0  0
   -3.8793   -1.9065    1.3169 H   0  0  0  0  0  0  0  0  0  0  0  0
   -3.4623   -2.6685   -0.2401 H   0  0  0  0  0  0  0  0  0  0  0  0
   -1.7863   -2.0195    0.9119 C   0  0  0  0  0  0  0  0  0  0  0  0
   -0.9073   -2.6615    1.4699 O   0  0  0  0  0  0  0  0  0  0  0  0
   -1.5803   -0.8195    0.3749 N   0  0  0  0  0  0  0  0  0  0  0  0
   -2.3603   -0.3345   -0.0451 H   0  0  0  0  0  0  0  0  0  0  0  0
   -0.2933   -0.1205    0.3719 C   0  0  1  0  0  0  0  0  0  0  0  0
    0.3669   -0.6075   -0.3471 H   0  0  0  0  0  0  0  0  0  0  0  0
   -0.5145    1.3371   -0.0812 C   0  0  0  0  0  0  0  0  0  0  0  0
   -1.2823    1.7778    0.5571 H   0  0  0  0  0  0  0  0  0  0  0  0
    0.4084    1.9016    0.0591 H   0  0  0  0  0  0  0  0  0  0  0  0
   -0.9525    1.4738   -1.5497 C   0  0  0  0  0  0  0  0  0  0  0  0
   -0.1882    1.0568   -2.2055 H   0  0  0  0  0  0  0  0  0  0  0  0
   -1.8846    0.9295   -1.6973 H   0  0  0  0  0  0  0  0  0  0  0  0
   -1.1841    2.9270   -1.9511 C   0  0  0  0  0  0  0  0  0  0  0  0
   -1.1635    3.8770   -1.1850 O   0  0  0  0  0  0  0  0  0  0  0  0
   -1.4387    3.1344   -3.2564 O   0  0  0  0  0  0  0  0  0  0  0  0
   -1.5711    4.0804   -3.3393 H   0  0  0  0  0  0  0  0  0  0  0  0
    0.3647   -0.2084    1.7582 C   0  0  0  0  0  0  0  0  0  0  0  0
    1.1101    0.6903    2.1435 O   0  0  0  0  0  0  0  0  0  0  0  0
    0.0989   -1.2924    2.4971 N   0  0  0  0  0  0  0  0  0  0  0  0
   -0.5406   -1.9776    2.1235 H   0  0  0  0  0  0  0  0  0  0  0  0
    0.6621   -1.5342    3.8238 C   0  0  0  0  0  0  0  0  0  0  0  0
    0.4122   -0.7048    4.4880 H   0  0  0  0  0  0  0  0  0  0  0  0
    0.2643   -2.4602    4.2414 H   0  0  0  0  0  0  0  0  0  0  0  0
    1.7493   -1.6075    3.7550 H   0  0  0  0  0  0  0  0  0  0  0  0
  5  6  2  0  0  0  0
  5  7  1  0  0  0  0
  2  3  1  0  0  0  0
  2  4  1  0  0  0  0
  2  5  1  0  0  0  0
  1  2  1  0  0  0  0
 21 22  2  0  0  0  0
 21 23  1  0  0  0  0
 19 20  1  0  0  0  0
 17 18  2  0  0  0  0
 17 19  1  0  0  0  0
 14 15  1  0  0  0  0
 14 16  1  0  0  0  0
 14 17  1  0  0  0  0
 11 12  1  0  0  0  0
 11 13  1  0  0  0  0
 11 14  1  0  0  0  0
  9 10  1  0  0  0  0
  9 11  1  0  0  0  0
  9 21  1  0  0  0  0
  7  8  1  0  0  0  0
  7  9  1  0  0  0  0
 25 26  1  0  0  0  0
 25 27  1  0  0  0  0
 25 28  1  0  0  0  0
 23 24  1  0  0  0  0
 23 25  1  0  0  0  0
M  END
$$$$
default_name
  -OEChem-01062215323D

 28 27  0     1  0  0  0  0  0999 V2000
   -3.2133   -3.5565    1.2809 H   0  0  0  0  0  0  0  0  0  0  0  0
   -3.1873   -2.5755    0.8089 C   0  0  0  0  0  0  0  0  0  0  0  0
   -3.8793   -1.9065    1.3169 H   0  0  0  0  0  0  0  0  0  0  0  0
   -3.4623   -2.6685   -0.2401 H   0  0  0  0  0  0  0  0  0  0  0  0
   -1.7863   -2.0195    0.9119 C   0  0  0  0  0  0  0  0  0  0  0  0
   -0.9073   -2.6615    1.4699 O   0  0  0  0  0  0  0  0  0  0  0  0
   -1.5803   -0.8195    0.3749 N   0  0  0  0  0  0  0  0  0  0  0  0
   -2.3603   -0.3345   -0.0451 H   0  0  0  0  0  0  0  0  0  0  0  0
   -0.2933   -0.1205    0.3719 C   0  0  1  0  0  0  0  0  0  0  0  0
    0.3669   -0.6075   -0.3471 H   0  0  0  0  0  0  0  0  0  0  0  0
   -0.5145    1.3371   -0.0812 C   0  0  0  0  0  0  0  0  0  0  0  0
   -1.2823    1.7778    0.5571 H   0  0  0  0  0  0  0  0  0  0  0  0
    0.4084    1.9016    0.0591 H   0  0  0  0  0  0  0  0  0  0  0  0
   -0.9525    1.4738   -1.5497 C   0  0  0  0  0  0  0  0  0  0  0  0
   -0.1882    1.0568   -2.2055 H   0  0  0  0  0  0  0  0  0  0  0  0
   -1.8846    0.9295   -1.6973 H   0  0  0  0  0  0  0  0  0  0  0  0
   -1.1841    2.9270   -1.9511 C   0  0  0  0  0  0  0  0  0  0  0  0
   -1.1635    3.8770   -1.1850 O   0  0  0  0  0  0  0  0  0  0  0  0
   -1.4387    3.1344   -3.2564 O   0  0  0  0  0  0  0  0  0  0  0  0
   -1.5711    4.0804   -3.3393 H   0  0  0  0  0  0  0  0  0  0  0  0
    0.3647   -0.2084    1.7582 C   0  0  0  0  0  0  0  0  0  0  0  0
    0.8782    0.7898    2.2599 O   0  0  0  0  0  0  0  0  0  0  0  0
    0.3591   -1.4005    2.3668 N   0  0  0  0  0  0  0  0  0  0  0  0
   -0.1015   -2.1692    1.9029 H   0  0  0  0  0  0  0  0  0  0  0  0
    0.9610   -1.6525    3.6745 C   0  0  0  0  0  0  0  0  0  0  0  0
    0.5227   -0.9842    4.4178 H   0  0  0  0  0  0  0  0  0  0  0  0
    0.7905   -2.6866    3.9772 H   0  0  0  0  0  0  0  0  0  0  0  0
    2.0352   -1.4627    3.6285 H   0  0  0  0  0  0  0  0  0  0  0  0
  5  6  2  0  0  0  0
  5  7  1  0  0  0  0
  2  3  1  0  0  0  0
  2  4  1  0  0  0  0
  2  5  1  0  0  0  0
  1  2  1  0  0  0  0
 21 22  2  0  0  0  0
 21 23  1  0  0  0  0
 19 20  1  0  0  0  0
 17 18  2  0  0  0  0
 17 19  1  0  0  0  0
 14 15  1  0  0  0  0
 14 16  1  0  0  0  0
 14 17  1  0  0  0  0
 11 12  1  0  0  0  0
 11 13  1  0  0  0  0
 11 14  1  0  0  0  0
  9 10  1  0  0  0  0
  9 11  1  0  0  0  0
  9 21  1  0  0  0  0
  7  8  1  0  0  0  0
  7  9  1  0  0  0  0
 25 26  1  0  0  0  0
 25 27  1  0  0  0  0
 25 28  1  0  0  0  0
 23 24  1  0  0  0  0
 23 25  1  0  0  0  0
M  END
$$$$
default_name
  -OEChem-01062215323D

 28 27  0     1  0  0  0  0  0999 V2000
   -3.2133   -3.5565    1.2809 H   0  0  0  0  0  0  0  0  0  0  0  0
   -3.1873   -2.5755    0.8089 C   0  0  0  0  0  0  0  0  0  0  0  0
   -3.8793   -1.9065    1.3169 H   0  0  0  0  0  0  0  0  0  0  0  0
   -3.4623   -2.6685   -0.2401 H   0  0  0  0  0  0  0  0  0  0  0  0
   -1.7863   -2.0195    0.9119 C   0  0  0  0  0  0  0  0  0  0  0  0
   -0.9073   -2.6615    1.4699 O   0  0  0  0  0  0  0  0  0  0  0  0
   -1.5803   -0.8195    0.3749 N   0  0  0  0  0  0  0  0  0  0  0  0
   -2.3603   -0.3345   -0.0451 H   0  0  0  0  0  0  0  0  0  0  0  0
   -0.2933   -0.1205    0.3719 C   0  0  1  0  0  0  0  0  0  0  0  0
    0.3669   -0.6075   -0.3471 H   0  0  0  0  0  0  0  0  0  0  0  0
   -0.5145    1.3371   -0.0812 C   0  0  0  0  0  0  0  0  0  0  0  0
   -1.2823    1.7778    0.5571 H   0  0  0  0  0  0  0  0  0  0  0  0
    0.4084    1.9016    0.0591 H   0  0  0  0  0  0  0  0  0  0  0  0
   -0.9525    1.4738   -1.5497 C   0  0  0  0  0  0  0  0  0  0  0  0
   -0.1882    1.0568   -2.2055 H   0  0  0  0  0  0  0  0  0  0  0  0
   -1.8846    0.9295   -1.6973 H   0  0  0  0  0  0  0  0  0  0  0  0
   -1.1841    2.9270   -1.9511 C   0  0  0  0  0  0  0  0  0  0  0  0
   -1.1635    3.8770   -1.1850 O   0  0  0  0  0  0  0  0  0  0  0  0
   -1.4387    3.1344   -3.2564 O   0  0  0  0  0  0  0  0  0  0  0  0
   -1.5711    4.0804   -3.3393 H   0  0  0  0  0  0  0  0  0  0  0  0
    0.3647   -0.2084    1.7582 C   0  0  0  0  0  0  0  0  0  0  0  0
    0.6292    0.8188    2.3799 O   0  0  0  0  0  0  0  0  0  0  0  0
    0.6375   -1.4299    2.2327 N   0  0  0  0  0  0  0  0  0  0  0  0
    0.3706   -2.2274    1.6752 H   0  0  0  0  0  0  0  0  0  0  0  0
    1.2796   -1.6805    3.5215 C   0  0  0  0  0  0  0  0  0  0  0  0
    0.6957   -1.2205    4.3208 H   0  0  0  0  0  0  0  0  0  0  0  0
    1.3556   -2.7532    3.7048 H   0  0  0  0  0  0  0  0  0  0  0  0
    2.2795   -1.2420    3.5265 H   0  0  0  0  0  0  0  0  0  0  0  0
  5  6  2  0  0  0  0
  5  7  1  0  0  0  0
  2  3  1  0  0  0  0
  2  4  1  0  0  0  0
  2  5  1  0  0  0  0
  1  2  1  0  0  0  0
 21 22  2  0  0  0  0
 21 23  1  0  0  0  0
 19 20  1  0  0  0  0
 17 18  2  0  0  0  0
 17 19  1  0  0  0  0
 14 15  1  0  0  0  0
 14 16  1  0  0  0  0
 14 17  1  0  0  0  0
 11 12  1  0  0  0  0
 11 13  1  0  0  0  0
 11 14  1  0  0  0  0
  9 10  1  0  0  0  0
  9 11  1  0  0  0  0
  9 21  1  0  0  0  0
  7  8  1  0  0  0  0
  7  9  1  0  0  0  0
 25 26  1  0  0  0  0
 25 27  1  0  0  0  0
 25 28  1  0  0  0  0
 23 24  1  0  0  0  0
 23 25  1  0  0  0  0
M  END
$$$$
default_name
  -OEChem-01062215323D

 28 27  0     1  0  0  0  0  0999 V2000
   -3.2133   -3.5565    1.2809 H   0  0  0  0  0  0  0  0  0  0  0  0
   -3.1873   -2.5755    0.8089 C   0  0  0  0  0  0  0  0  0  0  0  0
   -3.8793   -1.9065    1.3169 H   0  0  0  0  0  0  0  0  0  0  0  0
   -3.4623   -2.6685   -0.2401 H   0  0  0  0  0  0  0  0  0  0  0  0
   -1.7863   -2.0195    0.9119 C   0  0  0  0  0  0  0  0  0  0  0  0
   -0.9073   -2.6615    1.4699 O   0  0  0  0  0  0  0  0  0  0  0  0
   -1.5803   -0.8195    0.3749 N   0  0  0  0  0  0  0  0  0  0  0  0
   -2.3603   -0.3345   -0.0451 H   0  0  0  0  0  0  0  0  0  0  0  0
   -0.2933   -0.1205    0.3719 C   0  0  1  0  0  0  0  0  0  0  0  0
    0.3669   -0.6075   -0.3471 H   0  0  0  0  0  0  0  0  0  0  0  0
   -0.5145    1.3371   -0.0812 C   0  0  0  0  0  0  0  0  0  0  0  0
   -1.2823    1.7778    0.5571 H   0  0  0  0  0  0  0  0  0  0  0  0
    0.4084    1.9016    0.0591 H   0  0  0  0  0  0  0  0  0  0  0  0
   -0.9525    1.4738   -1.5497 C   0  0  0  0  0  0  0  0  0  0  0  0
   -0.1882    1.0568   -2.2055 H   0  0  0  0  0  0  0  0  0  0  0  0
   -1.8846    0.9295   -1.6973 H   0  0  0  0  0  0  0  0  0  0  0  0
   -1.1841    2.9270   -1.9511 C   0  0  0  0  0  0  0  0  0  0  0  0
   -1.1635    3.8770   -1.1850 O   0  0  0  0  0  0  0  0  0  0  0  0
   -1.4387    3.1344   -3.2564 O   0  0  0  0  0  0  0  0  0  0  0  0
   -1.5711    4.0804   -3.3393 H   0  0  0  0  0  0  0  0  0  0  0  0
    0.3647   -0.2084    1.7582 C   0  0  0  0  0  0  0  0  0  0  0  0
    0.3802    0.7755    2.4954 O   0  0  0  0  0  0  0  0  0  0  0  0
    0.9153   -1.3783    2.1042 N   0  0  0  0  0  0  0  0  0  0  0  0
    0.8435   -2.1481    1.4557 H   0  0  0  0  0  0  0  0  0  0  0  0
    1.5961   -1.6161    3.3753 C   0  0  0  0  0  0  0  0  0  0  0  0
    0.9193   -1.3976    4.2034 H   0  0  0  0  0  0  0  0  0  0  0  0
    1.9210   -2.6554    3.4427 H   0  0  0  0  0  0  0  0  0  0  0  0
    2.4654   -0.9606    3.4561 H   0  0  0  0  0  0  0  0  0  0  0  0
  5  6  2  0  0  0  0
  5  7  1  0  0  0  0
  2  3  1  0  0  0  0
  2  4  1  0  0  0  0
  2  5  1  0  0  0  0
  1  2  1  0  0  0  0
 21 22  2  0  0  0  0
 21 23  1  0  0  0  0
 19 20  1  0  0  0  0
 17 18  2  0  0  0  0
 17 19  1  0  0  0  0
 14 15  1  0  0  0  0
 14 16  1  0  0  0  0
 14 17  1  0  0  0  0
 11 12  1  0  0  0  0
 11 13  1  0  0  0  0
 11 14  1  0  0  0  0
  9 10  1  0  0  0  0
  9 11  1  0  0  0  0
  9 21  1  0  0  0  0
  7  8  1  0  0  0  0
  7  9  1  0  0  0  0
 25 26  1  0  0  0  0
 25 27  1  0  0  0  0
 25 28  1  0  0  0  0
 23 24  1  0  0  0  0
 23 25  1  0  0  0  0
M  END
$$$$
default_name
  -OEChem-01062215323D

 28 27  0     1  0  0  0  0  0999 V2000
   -3.2133   -3.5565    1.2809 H   0  0  0  0  0  0  0  0  0  0  0  0
   -3.1873   -2.5755    0.8089 C   0  0  0  0  0  0  0  0  0  0  0  0
   -3.8793   -1.9065    1.3169 H   0  0  0  0  0  0  0  0  0  0  0  0
   -3.4623   -2.6685   -0.2401 H   0  0  0  0  0  0  0  0  0  0  0  0
   -1.7863   -2.0195    0.9119 C   0  0  0  0  0  0  0  0  0  0  0  0
   -0.9073   -2.6615    1.4699 O   0  0  0  0  0  0  0  0  0  0  0  0
   -1.5803   -0.8195    0.3749 N   0  0  0  0  0  0  0  0  0  0  0  0
   -2.3603   -0.3345   -0.0451 H   0  0  0  0  0  0  0  0  0  0  0  0
   -0.2933   -0.1205    0.3719 C   0  0  1  0  0  0  0  0  0  0  0  0
    0.3669   -0.6075   -0.3471 H   0  0  0  0  0  0  0  0  0  0  0  0
   -0.5145    1.3371   -0.0812 C   0  0  0  0  0  0  0  0  0  0  0  0
   -1.2823    1.7778    0.5571 H   0  0  0  0  0  0  0  0  0  0  0  0
    0.4084    1.9016    0.0591 H   0  0  0  0  0  0  0  0  0  0  0  0
   -0.9525    1.4738   -1.5497 C   0  0  0  0  0  0  0  0  0  0  0  0
   -0.1882    1.0568   -2.2055 H   0  0  0  0  0  0  0  0  0  0  0  0
   -1.8846    0.9295   -1.6973 H   0  0  0  0  0  0  0  0  0  0  0  0
   -1.1841    2.9270   -1.9511 C   0  0  0  0  0  0  0  0  0  0  0  0
   -1.1635    3.8770   -1.1850 O   0  0  0  0  0  0  0  0  0  0  0  0
   -1.4387    3.1344   -3.2564 O   0  0  0  0  0  0  0  0  0  0  0  0
   -1.5711    4.0804   -3.3393 H   0  0  0  0  0  0  0  0  0  0  0  0
    0.3647   -0.2084    1.7582 C   0  0  0  0  0  0  0  0  0  0  0  0
    0.1481    0.6627    2.5984 O   0  0  0  0  0  0  0  0  0  0  0  0
    1.1735   -1.2495    1.9898 N   0  0  0  0  0  0  0  0  0  0  0  0
    1.2851   -1.9368    1.2595 H   0  0  0  0  0  0  0  0  0  0  0  0
    1.8889   -1.4639    3.2460 C   0  0  0  0  0  0  0  0  0  0  0  0
    1.1784   -1.5034    4.0737 H   0  0  0  0  0  0  0  0  0  0  0  0
    2.4481   -2.3999    3.2086 H   0  0  0  0  0  0  0  0  0  0  0  0
    2.5804   -0.6376    3.4221 H   0  0  0  0  0  0  0  0  0  0  0  0
  5  6  2  0  0  0  0
  5  7  1  0  0  0  0
  2  3  1  0  0  0  0
  2  4  1  0  0  0  0
  2  5  1  0  0  0  0
  1  2  1  0  0  0  0
 21 22  2  0  0  0  0
 21 23  1  0  0  0  0
 19 20  1  0  0  0  0
 17 18  2  0  0  0  0
 17 19  1  0  0  0  0
 14 15  1  0  0  0  0
 14 16  1  0  0  0  0
 14 17  1  0  0  0  0
 11 12  1  0  0  0  0
 11 13  1  0  0  0  0
 11 14  1  0  0  0  0
  9 10  1  0  0  0  0
  9 11  1  0  0  0  0
  9 21  1  0  0  0  0
  7  8  1  0  0  0  0
  7  9  1  0  0  0  0
 25 26  1  0  0  0  0
 25 27  1  0  0  0  0
 25 28  1  0  0  0  0
 23 24  1  0  0  0  0
 23 25  1  0  0  0  0
M  END
$$$$
default_name
  -OEChem-01062215323D

 28 27  0     1  0  0  0  0  0999 V2000
   -3.2133   -3.5565    1.2809 H   0  0  0  0  0  0  0  0  0  0  0  0
   -3.1873   -2.5755    0.8089 C   0  0  0  0  0  0  0  0  0  0  0  0
   -3.8793   -1.9065    1.3169 H   0  0  0  0  0  0  0  0  0  0  0  0
   -3.4623   -2.6685   -0.2401 H   0  0  0  0  0  0  0  0  0  0  0  0
   -1.7863   -2.0195    0.9119 C   0  0  0  0  0  0  0  0  0  0  0  0
   -0.9073   -2.6615    1.4699 O   0  0  0  0  0  0  0  0  0  0  0  0
   -1.5803   -0.8195    0.3749 N   0  0  0  0  0  0  0  0  0  0  0  0
   -2.3603   -0.3345   -0.0451 H   0  0  0  0  0  0  0  0  0  0  0  0
   -0.2933   -0.1205    0.3719 C   0  0  1  0  0  0  0  0  0  0  0  0
    0.3669   -0.6075   -0.3471 H   0  0  0  0  0  0  0  0  0  0  0  0
   -0.5145    1.3371   -0.0812 C   0  0  0  0  0  0  0  0  0  0  0  0
   -1.2823    1.7778    0.5571 H   0  0  0  0  0  0  0  0  0  0  0  0
    0.4084    1.9016    0.0591 H   0  0  0  0  0  0  0  0  0  0  0  0
   -0.9525    1.4738   -1.5497 C   0  0  0  0  0  0  0  0  0  0  0  0
   -0.1882    1.0568   -2.2055 H   0  0  0  0  0  0  0  0  0  0  0  0
   -1.8846    0.9295   -1.6973 H   0  0  0  0  0  0  0  0  0  0  0  0
   -1.1841    2.9270   -1.9511 C   0  0  0  0  0  0  0  0  0  0  0  0
   -1.1635    3.8770   -1.1850 O   0  0  0  0  0  0  0  0  0  0  0  0
   -1.4387    3.1344   -3.2564 O   0  0  0  0  0  0  0  0  0  0  0  0
   -1.5711    4.0804   -3.3393 H   0  0  0  0  0  0  0  0  0  0  0  0
    0.3647   -0.2084    1.7582 C   0  0  0  0  0  0  0  0  0  0  0  0
   -0.0514    0.4882    2.6820 O   0  0  0  0  0  0  0  0  0  0  0  0
    1.3945   -1.0521    1.8974 N   0  0  0  0  0  0  0  0  0  0  0  0
    1.6652   -1.6079    1.0999 H   0  0  0  0  0  0  0  0  0  0  0  0
    2.1382   -1.2342    3.1422 C   0  0  0  0  0  0  0  0  0  0  0  0
    1.4553   -1.5308    3.9405 H   0  0  0  0  0  0  0  0  0  0  0  0
    2.9012   -2.0041    3.0187 H   0  0  0  0  0  0  0  0  0  0  0  0
    2.6165   -0.2949    3.4266 H   0  0  0  0  0  0  0  0  0  0  0  0
  5  6  2  0  0  0  0
  5  7  1  0  0  0  0
  2  3  1  0  0  0  0
  2  4  1  0  0  0  0
  2  5  1  0  0  0  0
  1  2  1  0  0  0  0
 21 22  2  0  0  0  0
 21 23  1  0  0  0  0
 19 20  1  0  0  0  0
 17 18  2  0  0  0  0
 17 19  1  0  0  0  0
 14 15  1  0  0  0  0
 14 16  1  0  0  0  0
 14 17  1  0  0  0  0
 11 12  1  0  0  0  0
 11 13  1  0  0  0  0
 11 14  1  0  0  0  0
  9 10  1  0  0  0  0
  9 11  1  0  0  0  0
  9 21  1  0  0  0  0
  7  8  1  0  0  0  0
  7  9  1  0  0  0  0
 25 26  1  0  0  0  0
 25 27  1  0  0  0  0
 25 28  1  0  0  0  0
 23 24  1  0  0  0  0
 23 25  1  0  0  0  0
M  END
$$$$
default_name
  -OEChem-01062215323D

 28 27  0     1  0  0  0  0  0999 V2000
   -3.2133   -3.5565    1.2809 H   0  0  0  0  0  0  0  0  0  0  0  0
   -3.1873   -2.5755    0.8089 C   0  0  0  0  0  0  0  0  0  0  0  0
   -3.8793   -1.9065    1.3169 H   0  0  0  0  0  0  0  0  0  0  0  0
   -3.4623   -2.6685   -0.2401 H   0  0  0  0  0  0  0  0  0  0  0  0
   -1.7863   -2.0195    0.9119 C   0  0  0  0  0  0  0  0  0  0  0  0
   -0.9073   -2.6615    1.4699 O   0  0  0  0  0  0  0  0  0  0  0  0
   -1.5803   -0.8195    0.3749 N   0  0  0  0  0  0  0  0  0  0  0  0
   -2.3603   -0.3345   -0.0451 H   0  0  0  0  0  0  0  0  0  0  0  0
   -0.2933   -0.1205    0.3719 C   0  0  1  0  0  0  0  0  0  0  0  0
    0.3669   -0.6075   -0.3471 H   0  0  0  0  0  0  0  0  0  0  0  0
   -0.5145    1.3371   -0.0812 C   0  0  0  0  0  0  0  0  0  0  0  0
   -1.2823    1.7778    0.5571 H   0  0  0  0  0  0  0  0  0  0  0  0
    0.4084    1.9016    0.0591 H   0  0  0  0  0  0  0  0  0  0  0  0
   -0.9525    1.4738   -1.5497 C   0  0  0  0  0  0  0  0  0  0  0  0
   -0.1882    1.0568   -2.2055 H   0  0  0  0  0  0  0  0  0  0  0  0
   -1.8846    0.9295   -1.6973 H   0  0  0  0  0  0  0  0  0  0  0  0
   -1.1841    2.9270   -1.9511 C   0  0  0  0  0  0  0  0  0  0  0  0
   -1.1635    3.8770   -1.1850 O   0  0  0  0  0  0  0  0  0  0  0  0
   -1.4387    3.1344   -3.2564 O   0  0  0  0  0  0  0  0  0  0  0  0
   -1.5711    4.0804   -3.3393 H   0  0  0  0  0  0  0  0  0  0  0  0
    0.3647   -0.2084    1.7582 C   0  0  0  0  0  0  0  0  0  0  0  0
   -0.2045    0.2637    2.7404 O   0  0  0  0  0  0  0  0  0  0  0  0
    1.5632   -0.7996    1.8333 N   0  0  0  0  0  0  0  0  0  0  0  0
    1.9580   -1.1838    0.9879 H   0  0  0  0  0  0  0  0  0  0  0  0
    2.3269   -0.9427    3.0712 C   0  0  0  0  0  0  0  0  0  0  0  0
    1.7312   -1.4778    3.8129 H   0  0  0  0  0  0  0  0  0  0  0  0
    3.2492   -1.4951    2.8858 H   0  0  0  0  0  0  0  0  0  0  0  0
    2.5714    0.0440    3.4696 H   0  0  0  0  0  0  0  0  0  0  0  0
  5  6  2  0  0  0  0
  5  7  1  0  0  0  0
  2  3  1  0  0  0  0
  2  4  1  0  0  0  0
  2  5  1  0  0  0  0
  1  2  1  0  0  0  0
 21 22  2  0  0  0  0
 21 23  1  0  0  0  0
 19 20  1  0  0  0  0
 17 18  2  0  0  0  0
 17 19  1  0  0  0  0
 14 15  1  0  0  0  0
 14 16  1  0  0  0  0
 14 17  1  0  0  0  0
 11 12  1  0  0  0  0
 11 13  1  0  0  0  0
 11 14  1  0  0  0  0
  9 10  1  0  0  0  0
  9 11  1  0  0  0  0
  9 21  1  0  0  0  0
  7  8  1  0  0  0  0
  7  9  1  0  0  0  0
 25 26  1  0  0  0  0
 25 27  1  0  0  0  0
 25 28  1  0  0  0  0
 23 24  1  0  0  0  0
 23 25  1  0  0  0  0
M  END
$$$$
default_name
  -OEChem-01062215323D

 28 27  0     1  0  0  0  0  0999 V2000
   -3.2133   -3.5565    1.2809 H   0  0  0  0  0  0  0  0  0  0  0  0
   -3.1873   -2.5755    0.8089 C   0  0  0  0  0  0  0  0  0  0  0  0
   -3.8793   -1.9065    1.3169 H   0  0  0  0  0  0  0  0  0  0  0  0
   -3.4623   -2.6685   -0.2401 H   0  0  0  0  0  0  0  0  0  0  0  0
   -1.7863   -2.0195    0.9119 C   0  0  0  0  0  0  0  0  0  0  0  0
   -0.9073   -2.6615    1.4699 O   0  0  0  0  0  0  0  0  0  0  0  0
   -1.5803   -0.8195    0.3749 N   0  0  0  0  0  0  0  0  0  0  0  0
   -2.3603   -0.3345   -0.0451 H   0  0  0  0  0  0  0  0  0  0  0  0
   -0.2933   -0.1205    0.3719 C   0  0  1  0  0  0  0  0  0  0  0  0
    0.3669   -0.6075   -0.3471 H   0  0  0  0  0  0  0  0  0  0  0  0
   -0.5145    1.3371   -0.0812 C   0  0  0  0  0  0  0  0  0  0  0  0
   -1.2823    1.7778    0.5571 H   0  0  0  0  0  0  0  0  0  0  0  0
    0.4084    1.9016    0.0591 H   0  0  0  0  0  0  0  0  0  0  0  0
   -0.9525    1.4738   -1.5497 C   0  0  0  0  0  0  0  0  0  0  0  0
   -0.1882    1.0568   -2.2055 H   0  0  0  0  0  0  0  0  0  0  0  0
   -1.8846    0.9295   -1.6973 H   0  0  0  0  0  0  0  0  0  0  0  0
   -1.1841    2.9270   -1.9511 C   0  0  0  0  0  0  0  0  0  0  0  0
   -1.1635    3.8770   -1.1850 O   0  0  0  0  0  0  0  0  0  0  0  0
   -1.4387    3.1344   -3.2564 O   0  0  0  0  0  0  0  0  0  0  0  0
   -1.5711    4.0804   -3.3393 H   0  0  0  0  0  0  0  0  0  0  0  0
    0.3647   -0.2084    1.7582 C   0  0  0  0  0  0  0  0  0  0  0  0
   -0.3009    0.0047    2.7698 O   0  0  0  0  0  0  0  0  0  0  0  0
    1.6682   -0.5092    1.8019 N   0  0  0  0  0  0  0  0  0  0  0  0
    2.1434   -0.6933    0.9310 H   0  0  0  0  0  0  0  0  0  0  0  0
    2.4421   -0.6091    3.0376 C   0  0  0  0  0  0  0  0  0  0  0  0
    1.9872   -1.3482    3.6996 H   0  0  0  0  0  0  0  0  0  0  0  0
    3.4685   -0.9074    2.8190 H   0  0  0  0  0  0  0  0  0  0  0  0
    2.4480    0.3560    3.5479 H   0  0  0  0  0  0  0  0  0  0  0  0
  5  6  2  0  0  0  0
  5  7  1  0  0  0  0
  2  3  1  0  0  0  0
  2  4  1  0  0  0  0
  2  5  1  0  0  0  0
  1  2  1  0  0  0  0
 21 22  2  0  0  0  0
 21 23  1  0  0  0  0
 19 20  1  0  0  0  0
 17 18  2  0  0  0  0
 17 19  1  0  0  0  0
 14 15  1  0  0  0  0
 14 16  1  0  0  0  0
 14 17  1  0  0  0  0
 11 12  1  0  0  0  0
 11 13  1  0  0  0  0
 11 14  1  0  0  0  0
  9 10  1  0  0  0  0
  9 11  1  0  0  0  0
  9 21  1  0  0  0  0
  7  8  1  0  0  0  0
  7  9  1  0  0  0  0
 25 26  1  0  0  0  0
 25 27  1  0  0  0  0
 25 28  1  0  0  0  0
 23 24  1  0  0  0  0
 23 25  1  0  0  0  0
M  END
$$$$
default_name
  -OEChem-01062215323D

 28 27  0     1  0  0  0  0  0999 V2000
   -3.2133   -3.5565    1.2809 H   0  0  0  0  0  0  0  0  0  0  0  0
   -3.1873   -2.5755    0.8089 C   0  0  0  0  0  0  0  0  0  0  0  0
   -3.8793   -1.9065    1.3169 H   0  0  0  0  0  0  0  0  0  0  0  0
   -3.4623   -2.6685   -0.2401 H   0  0  0  0  0  0  0  0  0  0  0  0
   -1.7863   -2.0195    0.9119 C   0  0  0  0  0  0  0  0  0  0  0  0
   -0.9073   -2.6615    1.4699 O   0  0  0  0  0  0  0  0  0  0  0  0
   -1.5803   -0.8195    0.3749 N   0  0  0  0  0  0  0  0  0  0  0  0
   -2.3603   -0.3345   -0.0451 H   0  0  0  0  0  0  0  0  0  0  0  0
   -0.2933   -0.1205    0.3719 C   0  0  1  0  0  0  0  0  0  0  0  0
    0.3669   -0.6075   -0.3471 H   0  0  0  0  0  0  0  0  0  0  0  0
   -0.5145    1.3371   -0.0812 C   0  0  0  0  0  0  0  0  0  0  0  0
   -1.2823    1.7778    0.5571 H   0  0  0  0  0  0  0  0  0  0  0  0
    0.4084    1.9016    0.0591 H   0  0  0  0  0  0  0  0  0  0  0  0
   -0.9525    1.4738   -1.5497 C   0  0  0  0  0  0  0  0  0  0  0  0
   -0.1882    1.0568   -2.2055 H   0  0  0  0  0  0  0  0  0  0  0  0
   -1.8846    0.9295   -1.6973 H   0  0  0  0  0  0  0  0  0  0  0  0
   -1.1841    2.9270   -1.9511 C   0  0  0  0  0  0  0  0  0  0  0  0
   -1.1635    3.8770   -1.1850 O   0  0  0  0  0  0  0  0  0  0  0  0
   -1.4387    3.1344   -3.2564 O   0  0  0  0  0  0  0  0  0  0  0  0
   -1.5711    4.0804   -3.3393 H   0  0  0  0  0  0  0  0  0  0  0  0
    0.3647   -0.2084    1.7582 C   0  0  0  0  0  0  0  0  0  0  0  0
   -0.3339   -0.2712    2.7680 O   0  0  0  0  0  0  0  0  0  0  0  0
    1.7024   -0.2007    1.8052 N   0  0  0  0  0  0  0  0  0  0  0  0
    2.2089   -0.1700    0.9331 H   0  0  0  0  0  0  0  0  0  0  0  0
    2.4761   -0.2563    3.0439 C   0  0  0  0  0  0  0  0  0  0  0  0
    2.2058   -1.1506    3.6084 H   0  0  0  0  0  0  0  0  0  0  0  0
    3.5441   -0.2811    2.8228 H   0  0  0  0  0  0  0  0  0  0  0  0
    2.2548    0.6200    3.6563 H   0  0  0  0  0  0  0  0  0  0  0  0
  5  6  2  0  0  0  0
  5  7  1  0  0  0  0
  2  3  1  0  0  0  0
  2  4  1  0  0  0  0
  2  5  1  0  0  0  0
  1  2  1  0  0  0  0
 21 22  2  0  0  0  0
 21 23  1  0  0  0  0
 19 20  1  0  0  0  0
 17 18  2  0  0  0  0
 17 19  1  0  0  0  0
 14 15  1  0  0  0  0
 14 16  1  0  0  0  0
 14 17  1  0  0  0  0
 11 12  1  0  0  0  0
 11 13  1  0  0  0  0
 11 14  1  0  0  0  0
  9 10  1  0  0  0  0
  9 11  1  0  0  0  0
  9 21  1  0  0  0  0
  7  8  1  0  0  0  0
  7  9  1  0  0  0  0
 25 26  1  0  0  0  0
 25 27  1  0  0  0  0
 25 28  1  0  0  0  0
 23 24  1  0  0  0  0
 23 25  1  0  0  0  0
M  END
$$$$
default_name
  -OEChem-01062215323D

 28 27  0     1  0  0  0  0  0999 V2000
   -3.2133   -3.5565    1.2809 H   0  0  0  0  0  0  0  0  0  0  0  0
   -3.1873   -2.5755    0.8089 C   0  0  0  0  0  0  0  0  0  0  0  0
   -3.8793   -1.9065    1.3169 H   0  0  0  0  0  0  0  0  0  0  0  0
   -3.4623   -2.6685   -0.2401 H   0  0  0  0  0  0  0  0  0  0  0  0
   -1.7863   -2.0195    0.9119 C   0  0  0  0  0  0  0  0  0  0  0  0
   -0.9073   -2.6615    1.4699 O   0  0  0  0  0  0  0  0  0  0  0  0
   -1.5803   -0.8195    0.3749 N   0  0  0  0  0  0  0  0  0  0  0  0
   -2.3603   -0.3345   -0.0451 H   0  0  0  0  0  0  0  0  0  0  0  0
   -0.2933   -0.1205    0.3719 C   0  0  1  0  0  0  0  0  0  0  0  0
    0.3669   -0.6075   -0.3471 H   0  0  0  0  0  0  0  0  0  0  0  0
   -0.5145    1.3371   -0.0812 C   0  0  0  0  0  0  0  0  0  0  0  0
   -1.2823    1.7778    0.5571 H   0  0  0  0  0  0  0  0  0  0  0  0
    0.4084    1.9016    0.0591 H   0  0  0  0  0  0  0  0  0  0  0  0
   -0.9525    1.4738   -1.5497 C   0  0  0  0  0  0  0  0  0  0  0  0
   -0.1882    1.0568   -2.2055 H   0  0  0  0  0  0  0  0  0  0  0  0
   -1.8846    0.9295   -1.6973 H   0  0  0  0  0  0  0  0  0  0  0  0
   -1.1841    2.9270   -1.9511 C   0  0  0  0  0  0  0  0  0  0  0  0
   -1.1635    3.8770   -1.1850 O   0  0  0  0  0  0  0  0  0  0  0  0
   -1.4387    3.1344   -3.2564 O   0  0  0  0  0  0  0  0  0  0  0  0
   -1.5711    4.0804   -3.3393 H   0  0  0  0  0  0  0  0  0  0  0  0
    0.3647   -0.2084    1.7582 C   0  0  0  0  0  0  0  0  0  0  0  0
   -0.3015   -0.5452    2.7352 O   0  0  0  0  0  0  0  0  0  0  0  0
    1.6633    0.1049    1.8432 N   0  0  0  0  0  0  0  0  0  0  0  0
    2.1500    0.3505    0.9941 H   0  0  0  0  0  0  0  0  0  0  0  0
    2.4264    0.0917    3.0895 C   0  0  0  0  0  0  0  0  0  0  0  0
    2.3723   -0.8986    3.5454 H   0  0  0  0  0  0  0  0  0  0  0  0
    3.4709    0.3411    2.8970 H   0  0  0  0  0  0  0  0  0  0  0  0
    2.0050    0.8178    3.7874 H   0  0  0  0  0  0  0  0  0  0  0  0
  5  6  2  0  0  0  0
  5  7  1  0  0  0  0
  2  3  1  0  0  0  0
  2  4  1  0  0  0  0
  2  5  1  0  0  0  0
  1  2  1  0  0  0  0
 21 22  2  0  0  0  0
 21 23  1  0  0  0  0
 19 20  1  0  0  0  0
 17 18  2  0  0  0  0
 17 19  1  0  0  0  0
 14 15  1  0  0  0  0
 14 16  1  0  0  0  0
 14 17  1  0  0  0  0
 11 12  1  0  0  0  0
 11 13  1  0  0  0  0
 11 14  1  0  0  0  0
  9 10  1  0  0  0  0
  9 11  1  0  0  0  0
  9 21  1  0  0  0  0
  7  8  1  0  0  0  0
  7  9  1  0  0  0  0
 25 26  1  0  0  0  0
 25 27  1  0  0  0  0
 25 28  1  0  0  0  0
 23 24  1  0  0  0  0
 23 25  1  0  0  0  0
M  END
$$$$
default_name
  -OEChem-01062215323D

 28 27  0     1  0  0  0  0  0999 V2000
   -3.2133   -3.5565    1.2809 H   0  0  0  0  0  0  0  0  0  0  0  0
   -3.1873   -2.5755    0.8089 C   0  0  0  0  0  0  0  0  0  0  0  0
   -3.8793   -1.9065    1.3169 H   0  0  0  0  0  0  0  0  0  0  0  0
   -3.4623   -2.6685   -0.2401 H   0  0  0  0  0  0  0  0  0  0  0  0
   -1.7863   -2.0195    0.9119 C   0  0  0  0  0  0  0  0  0  0  0  0
   -0.9073   -2.6615    1.4699 O   0  0  0  0  0  0  0  0  0  0  0  0
   -1.5803   -0.8195    0.3749 N   0  0  0  0  0  0  0  0  0  0  0  0
   -2.3603   -0.3345   -0.0451 H   0  0  0  0  0  0  0  0  0  0  0  0
   -0.2933   -0.1205    0.3719 C   0  0  1  0  0  0  0  0  0  0  0  0
    0.2658   -0.4221   -0.5150 H   0  0  0  0  0  0  0  0  0  0  0  0
   -0.5472    1.3988    0.2931 C   0  0  0  0  0  0  0  0  0  0  0  0
   -1.2236    1.6721    1.1047 H   0  0  0  0  0  0  0  0  0  0  0  0
    0.3943    1.9292    0.4429 H   0  0  0  0  0  0  0  0  0  0  0  0
   -1.1610    1.8599   -1.0402 C   0  0  0  0  0  0  0  0  0  0  0  0
   -0.4897    1.6135   -1.8629 H   0  0  0  0  0  0  0  0  0  0  0  0
   -2.1121    1.3507   -1.1913 H   0  0  0  0  0  0  0  0  0  0  0  0
   -1.4188    3.3630   -1.0689 C   0  0  0  0  0  0  0  0  0  0  0  0
   -1.2897    4.1140   -0.1154 O   0  0  0  0  0  0  0  0  0  0  0  0
   -1.8295    3.8584   -2.2511 O   0  0  0  0  0  0  0  0  0  0  0  0
   -1.9572    4.7965   -2.0996 H   0  0  0  0  0  0  0  0  0  0  0  0
    0.5295   -0.5124    1.6096 C   0  0  0  0  0  0  0  0  0  0  0  0
    0.0678   -1.3032    2.4301 O   0  0  0  0  0  0  0  0  0  0  0  0
    1.7371    0.0482    1.7477 N   0  0  0  0  0  0  0  0  0  0  0  0
    2.0583    0.6710    1.0216 H   0  0  0  0  0  0  0  0  0  0  0  0
    2.6300   -0.2040    2.8769 C   0  0  0  0  0  0  0  0  0  0  0  0
    2.8344   -1.2734    2.9544 H   0  0  0  0  0  0  0  0  0  0  0  0
    3.5707    0.3321    2.7432 H   0  0  0  0  0  0  0  0  0  0  0  0
    2.1553    0.1261    3.8030 H   0  0  0  0  0  0  0  0  0  0  0  0
  5  6  2  0  0  0  0
  5  7  1  0  0  0  0
  2  3  1  0  0  0  0
  2  4  1  0  0  0  0
  2  5  1  0  0  0  0
  1  2  1  0  0  0  0
 21 22  2  0  0  0  0
 21 23  1  0  0  0  0
 19 20  1  0  0  0  0
 17 18  2  0  0  0  0
 17 19  1  0  0  0  0
 14 15  1  0  0  0  0
 14 16  1  0  0  0  0
 14 17  1  0  0  0  0
 11 12  1  0  0  0  0
 11 13  1  0  0  0  0
 11 14  1  0  0  0  0
  9 10  1  0  0  0  0
  9 11  1  0  0  0  0
  9 21  1  0  0  0  0
  7  8  1  0  0  0  0
  7  9  1  0  0  0  0
 25 26  1  0  0  0  0
 25 27  1  0  0  0  0
 25 28  1  0  0  0  0
 23 24  1  0  0  0  0
 23 25  1  0  0  0  0
M  END
$$$$
default_name
  -OEChem-01062215323D

 28 27  0     1  0  0  0  0  0999 V2000
   -3.2133   -3.5565    1.2809 H   0  0  0  0  0  0  0  0  0  0  0  0
   -3.1873   -2.5755    0.8089 C   0  0  0  0  0  0  0  0  0  0  0  0
   -3.8793   -1.9065    1.3169 H   0  0  0  0  0  0  0  0  0  0  0  0
   -3.4623   -2.6685   -0.2401 H   0  0  0  0  0  0  0  0  0  0  0  0
   -1.7863   -2.0195    0.9119 C   0  0  0  0  0  0  0  0  0  0  0  0
   -0.9073   -2.6615    1.4699 O   0  0  0  0  0  0  0  0  0  0  0  0
   -1.5803   -0.8195    0.3749 N   0  0  0  0  0  0  0  0  0  0  0  0
   -2.3603   -0.3345   -0.0451 H   0  0  0  0  0  0  0  0  0  0  0  0
   -0.2933   -0.1205    0.3719 C   0  0  1  0  0  0  0  0  0  0  0  0
    0.2658   -0.4221   -0.5150 H   0  0  0  0  0  0  0  0  0  0  0  0
   -0.5472    1.3988    0.2931 C   0  0  0  0  0  0  0  0  0  0  0  0
   -1.2236    1.6721    1.1047 H   0  0  0  0  0  0  0  0  0  0  0  0
    0.3943    1.9292    0.4429 H   0  0  0  0  0  0  0  0  0  0  0  0
   -1.1610    1.8599   -1.0402 C   0  0  0  0  0  0  0  0  0  0  0  0
   -0.4897    1.6135   -1.8629 H   0  0  0  0  0  0  0  0  0  0  0  0
   -2.1121    1.3507   -1.1913 H   0  0  0  0  0  0  0  0  0  0  0  0
   -1.4188    3.3630   -1.0689 C   0  0  0  0  0  0  0  0  0  0  0  0
   -1.2897    4.1140   -0.1154 O   0  0  0  0  0  0  0  0  0  0  0  0
   -1.8295    3.8584   -2.2511 O   0  0  0  0  0  0  0  0  0  0  0  0
   -1.9572    4.7965   -2.0996 H   0  0  0  0  0  0  0  0  0  0  0  0
    0.5295   -0.5124    1.6096 C   0  0  0  0  0  0  0  0  0  0  0  0
    0.2055   -1.4915    2.2790 O   0  0  0  0  0  0  0  0  0  0  0  0
    1.5812    0.2563    1.9172 N   0  0  0  0  0  0  0  0  0  0  0  0
    1.7991    1.0304    1.3077 H   0  0  0  0  0  0  0  0  0  0  0  0
    2.4482    0.0298    3.0717 C   0  0  0  0  0  0  0  0  0  0  0  0
    2.8716   -0.9752    3.0242 H   0  0  0  0  0  0  0  0  0  0  0  0
    3.2587    0.7599    3.0861 H   0  0  0  0  0  0  0  0  0  0  0  0
    1.8672    0.1178    3.9919 H   0  0  0  0  0  0  0  0  0  0  0  0
  5  6  2  0  0  0  0
  5  7  1  0  0  0  0
  2  3  1  0  0  0  0
  2  4  1  0  0  0  0
  2  5  1  0  0  0  0
  1  2  1  0  0  0  0
 21 22  2  0  0  0  0
 21 23  1  0  0  0  0
 19 20  1  0  0  0  0
 17 18  2  0  0  0  0
 17 19  1  0  0  0  0
 14 15  1  0  0  0  0
 14 16  1  0  0  0  0
 14 17  1  0  0  0  0
 11 12  1  0  0  0  0
 11 13  1  0  0  0  0
 11 14  1  0  0  0  0
  9 10  1  0  0  0  0
  9 11  1  0  0  0  0
  9 21  1  0  0  0  0
  7  8  1  0  0  0  0
  7  9  1  0  0  0  0
 25 26  1  0  0  0  0
 25 27  1  0  0  0  0
 25 28  1  0  0  0  0
 23 24  1  0  0  0  0
 23 25  1  0  0  0  0
M  END
$$$$
default_name
  -OEChem-01062215323D

 28 27  0     1  0  0  0  0  0999 V2000
   -3.2133   -3.5565    1.2809 H   0  0  0  0  0  0  0  0  0  0  0  0
   -3.1873   -2.5755    0.8089 C   0  0  0  0  0  0  0  0  0  0  0  0
   -3.8793   -1.9065    1.3169 H   0  0  0  0  0  0  0  0  0  0  0  0
   -3.4623   -2.6685   -0.2401 H   0  0  0  0  0  0  0  0  0  0  0  0
   -1.7863   -2.0195    0.9119 C   0  0  0  0  0  0  0  0  0  0  0  0
   -0.9073   -2.6615    1.4699 O   0  0  0  0  0  0  0  0  0  0  0  0
   -1.5803   -0.8195    0.3749 N   0  0  0  0  0  0  0  0  0  0  0  0
   -2.3603   -0.3345   -0.0451 H   0  0  0  0  0  0  0  0  0  0  0  0
   -0.2933   -0.1205    0.3719 C   0  0  1  0  0  0  0  0  0  0  0  0
    0.2658   -0.4221   -0.5150 H   0  0  0  0  0  0  0  0  0  0  0  0
   -0.5472    1.3988    0.2931 C   0  0  0  0  0  0  0  0  0  0  0  0
   -1.2236    1.6721    1.1047 H   0  0  0  0  0  0  0  0  0  0  0  0
    0.3943    1.9292    0.4429 H   0  0  0  0  0  0  0  0  0  0  0  0
   -1.1610    1.8599   -1.0402 C   0  0  0  0  0  0  0  0  0  0  0  0
   -0.4897    1.6135   -1.8629 H   0  0  0  0  0  0  0  0  0  0  0  0
   -2.1121    1.3507   -1.1913 H   0  0  0  0  0  0  0  0  0  0  0  0
   -1.4188    3.3630   -1.0689 C   0  0  0  0  0  0  0  0  0  0  0  0
   -1.2897    4.1140   -0.1154 O   0  0  0  0  0  0  0  0  0  0  0  0
   -1.8295    3.8584   -2.2511 O   0  0  0  0  0  0  0  0  0  0  0  0
   -1.9572    4.7965   -2.0996 H   0  0  0  0  0  0  0  0  0  0  0  0
    0.5295   -0.5124    1.6096 C   0  0  0  0  0  0  0  0  0  0  0  0
    0.3876   -1.6237    2.1160 O   0  0  0  0  0  0  0  0  0  0  0  0
    1.3761    0.4014    2.0995 N   0  0  0  0  0  0  0  0  0  0  0  0
    1.4550    1.2839    1.6167 H   0  0  0  0  0  0  0  0  0  0  0  0
    2.2110    0.1907    3.2803 C   0  0  0  0  0  0  0  0  0  0  0  0
    2.8407   -0.6890    3.1353 H   0  0  0  0  0  0  0  0  0  0  0  0
    2.8455    1.0606    3.4560 H   0  0  0  0  0  0  0  0  0  0  0  0
    1.5782    0.0236    4.1542 H   0  0  0  0  0  0  0  0  0  0  0  0
  5  6  2  0  0  0  0
  5  7  1  0  0  0  0
  2  3  1  0  0  0  0
  2  4  1  0  0  0  0
  2  5  1  0  0  0  0
  1  2  1  0  0  0  0
 21 22  2  0  0  0  0
 21 23  1  0  0  0  0
 19 20  1  0  0  0  0
 17 18  2  0  0  0  0
 17 19  1  0  0  0  0
 14 15  1  0  0  0  0
 14 16  1  0  0  0  0
 14 17  1  0  0  0  0
 11 12  1  0  0  0  0
 11 13  1  0  0  0  0
 11 14  1  0  0  0  0
  9 10  1  0  0  0  0
  9 11  1  0  0  0  0
  9 21  1  0  0  0  0
  7  8  1  0  0  0  0
  7  9  1  0  0  0  0
 25 26  1  0  0  0  0
 25 27  1  0  0  0  0
 25 28  1  0  0  0  0
 23 24  1  0  0  0  0
 23 25  1  0  0  0  0
M  END
$$$$
default_name
  -OEChem-01062215323D

 28 27  0     1  0  0  0  0  0999 V2000
   -3.2133   -3.5565    1.2809 H   0  0  0  0  0  0  0  0  0  0  0  0
   -3.1873   -2.5755    0.8089 C   0  0  0  0  0  0  0  0  0  0  0  0
   -3.8793   -1.9065    1.3169 H   0  0  0  0  0  0  0  0  0  0  0  0
   -3.4623   -2.6685   -0.2401 H   0  0  0  0  0  0  0  0  0  0  0  0
   -1.7863   -2.0195    0.9119 C   0  0  0  0  0  0  0  0  0  0  0  0
   -0.9073   -2.6615    1.4699 O   0  0  0  0  0  0  0  0  0  0  0  0
   -1.5803   -0.8195    0.3749 N   0  0  0  0  0  0  0  0  0  0  0  0
   -2.3603   -0.3345   -0.0451 H   0  0  0  0  0  0  0  0  0  0  0  0
   -0.2933   -0.1205    0.3719 C   0  0  1  0  0  0  0  0  0  0  0  0
    0.2658   -0.4221   -0.5150 H   0  0  0  0  0  0  0  0  0  0  0  0
   -0.5472    1.3988    0.2931 C   0  0  0  0  0  0  0  0  0  0  0  0
   -1.2236    1.6721    1.1047 H   0  0  0  0  0  0  0  0  0  0  0  0
    0.3943    1.9292    0.4429 H   0  0  0  0  0  0  0  0  0  0  0  0
   -1.1610    1.8599   -1.0402 C   0  0  0  0  0  0  0  0  0  0  0  0
   -0.4897    1.6135   -1.8629 H   0  0  0  0  0  0  0  0  0  0  0  0
   -2.1121    1.3507   -1.1913 H   0  0  0  0  0  0  0  0  0  0  0  0
   -1.4188    3.3630   -1.0689 C   0  0  0  0  0  0  0  0  0  0  0  0
   -1.2897    4.1140   -0.1154 O   0  0  0  0  0  0  0  0  0  0  0  0
   -1.8295    3.8584   -2.2511 O   0  0  0  0  0  0  0  0  0  0  0  0
   -1.9572    4.7965   -2.0996 H   0  0  0  0  0  0  0  0  0  0  0  0
    0.5295   -0.5124    1.6096 C   0  0  0  0  0  0  0  0  0  0  0  0
    0.6019   -1.6909    1.9523 O   0  0  0  0  0  0  0  0  0  0  0  0
    1.1357    0.4735    2.2821 N   0  0  0  0  0  0  0  0  0  0  0  0
    1.0495    1.4143    1.9276 H   0  0  0  0  0  0  0  0  0  0  0  0
    1.9346    0.2678    3.4885 C   0  0  0  0  0  0  0  0  0  0  0  0
    2.7438   -0.4345    3.2803 H   0  0  0  0  0  0  0  0  0  0  0  0
    2.3593    1.2137    3.8276 H   0  0  0  0  0  0  0  0  0  0  0  0
    1.3080   -0.1501    4.2788 H   0  0  0  0  0  0  0  0  0  0  0  0
  5  6  2  0  0  0  0
  5  7  1  0  0  0  0
  2  3  1  0  0  0  0
  2  4  1  0  0  0  0
  2  5  1  0  0  0  0
  1  2  1  0  0  0  0
 21 22  2  0  0  0  0
 21 23  1  0  0  0  0
 19 20  1  0  0  0  0
 17 18  2  0  0  0  0
 17 19  1  0  0  0  0
 14 15  1  0  0  0  0
 14 16  1  0  0  0  0
 14 17  1  0  0  0  0
 11 12  1  0  0  0  0
 11 13  1  0  0  0  0
 11 14  1  0  0  0  0
  9 10  1  0  0  0  0
  9 11  1  0  0  0  0
  9 21  1  0  0  0  0
  7  8  1  0  0  0  0
  7  9  1  0  0  0  0
 25 26  1  0  0  0  0
 25 27  1  0  0  0  0
 25 28  1  0  0  0  0
 23 24  1  0  0  0  0
 23 25  1  0  0  0  0
M  END
$$$$
default_name
  -OEChem-01062215323D

 28 27  0     1  0  0  0  0  0999 V2000
   -3.2133   -3.5565    1.2809 H   0  0  0  0  0  0  0  0  0  0  0  0
   -3.1873   -2.5755    0.8089 C   0  0  0  0  0  0  0  0  0  0  0  0
   -3.8793   -1.9065    1.3169 H   0  0  0  0  0  0  0  0  0  0  0  0
   -3.4623   -2.6685   -0.2401 H   0  0  0  0  0  0  0  0  0  0  0  0
   -1.7863   -2.0195    0.9119 C   0  0  0  0  0  0  0  0  0  0  0  0
   -0.9073   -2.6615    1.4699 O   0  0  0  0  0  0  0  0  0  0  0  0
   -1.5803   -0.8195    0.3749 N   0  0  0  0  0  0  0  0  0  0  0  0
   -2.3603   -0.3345   -0.0451 H   0  0  0  0  0  0  0  0  0  0  0  0
   -0.2933   -0.1205    0.3719 C   0  0  1  0  0  0  0  0  0  0  0  0
    0.2658   -0.4221   -0.5150 H   0  0  0  0  0  0  0  0  0  0  0  0
   -0.5472    1.3988    0.2931 C   0  0  0  0  0  0  0  0  0  0  0  0
   -1.2236    1.6721    1.1047 H   0  0  0  0  0  0  0  0  0  0  0  0
    0.3943    1.9292    0.4429 H   0  0  0  0  0  0  0  0  0  0  0  0
   -1.1610    1.8599   -1.0402 C   0  0  0  0  0  0  0  0  0  0  0  0
   -0.4897    1.6135   -1.8629 H   0  0  0  0  0  0  0  0  0  0  0  0
   -2.1121    1.3507   -1.1913 H   0  0  0  0  0  0  0  0  0  0  0  0
   -1.4188    3.3630   -1.0689 C   0  0  0  0  0  0  0  0  0  0  0  0
   -1.2897    4.1140   -0.1154 O   0  0  0  0  0  0  0  0  0  0  0  0
   -1.8295    3.8584   -2.2511 O   0  0  0  0  0  0  0  0  0  0  0  0
   -1.9572    4.7965   -2.0996 H   0  0  0  0  0  0  0  0  0  0  0  0
    0.5295   -0.5124    1.6096 C   0  0  0  0  0  0  0  0  0  0  0  0
    0.8337   -1.6885    1.7990 O   0  0  0  0  0  0  0  0  0  0  0  0
    0.8764    0.4677    2.4527 N   0  0  0  0  0  0  0  0  0  0  0  0
    0.6100    1.4126    2.2191 H   0  0  0  0  0  0  0  0  0  0  0  0
    1.6379    0.2558    3.6820 C   0  0  0  0  0  0  0  0  0  0  0  0
    2.5877   -0.2289    3.4492 H   0  0  0  0  0  0  0  0  0  0  0  0
    1.8333    1.2088    4.1757 H   0  0  0  0  0  0  0  0  0  0  0  0
    1.0749   -0.3915    4.3573 H   0  0  0  0  0  0  0  0  0  0  0  0
  5  6  2  0  0  0  0
  5  7  1  0  0  0  0
  2  3  1  0  0  0  0
  2  4  1  0  0  0  0
  2  5  1  0  0  0  0
  1  2  1  0  0  0  0
 21 22  2  0  0  0  0
 21 23  1  0  0  0  0
 19 20  1  0  0  0  0
 17 18  2  0  0  0  0
 17 19  1  0  0  0  0
 14 15  1  0  0  0  0
 14 16  1  0  0  0  0
 14 17  1  0  0  0  0
 11 12  1  0  0  0  0
 11 13  1  0  0  0  0
 11 14  1  0  0  0  0
  9 10  1  0  0  0  0
  9 11  1  0  0  0  0
  9 21  1  0  0  0  0
  7  8  1  0  0  0  0
  7  9  1  0  0  0  0
 25 26  1  0  0  0  0
 25 27  1  0  0  0  0
 25 28  1  0  0  0  0
 23 24  1  0  0  0  0
 23 25  1  0  0  0  0
M  END
$$$$
default_name
  -OEChem-01062215323D

 28 27  0     1  0  0  0  0  0999 V2000
   -3.2133   -3.5565    1.2809 H   0  0  0  0  0  0  0  0  0  0  0  0
   -3.1873   -2.5755    0.8089 C   0  0  0  0  0  0  0  0  0  0  0  0
   -3.8793   -1.9065    1.3169 H   0  0  0  0  0  0  0  0  0  0  0  0
   -3.4623   -2.6685   -0.2401 H   0  0  0  0  0  0  0  0  0  0  0  0
   -1.7863   -2.0195    0.9119 C   0  0  0  0  0  0  0  0  0  0  0  0
   -0.9073   -2.6615    1.4699 O   0  0  0  0  0  0  0  0  0  0  0  0
   -1.5803   -0.8195    0.3749 N   0  0  0  0  0  0  0  0  0  0  0  0
   -2.3603   -0.3345   -0.0451 H   0  0  0  0  0  0  0  0  0  0  0  0
   -0.2933   -0.1205    0.3719 C   0  0  1  0  0  0  0  0  0  0  0  0
    0.2658   -0.4221   -0.5150 H   0  0  0  0  0  0  0  0  0  0  0  0
   -0.5472    1.3988    0.2931 C   0  0  0  0  0  0  0  0  0  0  0  0
   -1.2236    1.6721    1.1047 H   0  0  0  0  0  0  0  0  0  0  0  0
    0.3943    1.9292    0.4429 H   0  0  0  0  0  0  0  0  0  0  0  0
   -1.1610    1.8599   -1.0402 C   0  0  0  0  0  0  0  0  0  0  0  0
   -0.4897    1.6135   -1.8629 H   0  0  0  0  0  0  0  0  0  0  0  0
   -2.1121    1.3507   -1.1913 H   0  0  0  0  0  0  0  0  0  0  0  0
   -1.4188    3.3630   -1.0689 C   0  0  0  0  0  0  0  0  0  0  0  0
   -1.2897    4.1140   -0.1154 O   0  0  0  0  0  0  0  0  0  0  0  0
   -1.8295    3.8584   -2.2511 O   0  0  0  0  0  0  0  0  0  0  0  0
   -1.9572    4.7965   -2.0996 H   0  0  0  0  0  0  0  0  0  0  0  0
    0.5295   -0.5124    1.6096 C   0  0  0  0  0  0  0  0  0  0  0  0
    1.0672   -1.6166    1.6666 O   0  0  0  0  0  0  0  0  0  0  0  0
    0.6159    0.3845    2.5995 N   0  0  0  0  0  0  0  0  0  0  0  0
    0.1666    1.2789    2.4716 H   0  0  0  0  0  0  0  0  0  0  0  0
    1.3409    0.1556    3.8476 C   0  0  0  0  0  0  0  0  0  0  0  0
    2.3829   -0.0863    3.6305 H   0  0  0  0  0  0  0  0  0  0  0  0
    1.3032    1.0461    4.4766 H   0  0  0  0  0  0  0  0  0  0  0  0
    0.8949   -0.6841    4.3843 H   0  0  0  0  0  0  0  0  0  0  0  0
  5  6  2  0  0  0  0
  5  7  1  0  0  0  0
  2  3  1  0  0  0  0
  2  4  1  0  0  0  0
  2  5  1  0  0  0  0
  1  2  1  0  0  0  0
 21 22  2  0  0  0  0
 21 23  1  0  0  0  0
 19 20  1  0  0  0  0
 17 18  2  0  0  0  0
 17 19  1  0  0  0  0
 14 15  1  0  0  0  0
 14 16  1  0  0  0  0
 14 17  1  0  0  0  0
 11 12  1  0  0  0  0
 11 13  1  0  0  0  0
 11 14  1  0  0  0  0
  9 10  1  0  0  0  0
  9 11  1  0  0  0  0
  9 21  1  0  0  0  0
  7  8  1  0  0  0  0
  7  9  1  0  0  0  0
 25 26  1  0  0  0  0
 25 27  1  0  0  0  0
 25 28  1  0  0  0  0
 23 24  1  0  0  0  0
 23 25  1  0  0  0  0
M  END
$$$$
default_name
  -OEChem-01062215323D

 28 27  0     1  0  0  0  0  0999 V2000
   -3.2133   -3.5565    1.2809 H   0  0  0  0  0  0  0  0  0  0  0  0
   -3.1873   -2.5755    0.8089 C   0  0  0  0  0  0  0  0  0  0  0  0
   -3.8793   -1.9065    1.3169 H   0  0  0  0  0  0  0  0  0  0  0  0
   -3.4623   -2.6685   -0.2401 H   0  0  0  0  0  0  0  0  0  0  0  0
   -1.7863   -2.0195    0.9119 C   0  0  0  0  0  0  0  0  0  0  0  0
   -0.9073   -2.6615    1.4699 O   0  0  0  0  0  0  0  0  0  0  0  0
   -1.5803   -0.8195    0.3749 N   0  0  0  0  0  0  0  0  0  0  0  0
   -2.3603   -0.3345   -0.0451 H   0  0  0  0  0  0  0  0  0  0  0  0
   -0.2933   -0.1205    0.3719 C   0  0  1  0  0  0  0  0  0  0  0  0
    0.2658   -0.4221   -0.5150 H   0  0  0  0  0  0  0  0  0  0  0  0
   -0.5472    1.3988    0.2931 C   0  0  0  0  0  0  0  0  0  0  0  0
   -1.2236    1.6721    1.1047 H   0  0  0  0  0  0  0  0  0  0  0  0
    0.3943    1.9292    0.4429 H   0  0  0  0  0  0  0  0  0  0  0  0
   -1.1610    1.8599   -1.0402 C   0  0  0  0  0  0  0  0  0  0  0  0
   -0.4897    1.6135   -1.8629 H   0  0  0  0  0  0  0  0  0  0  0  0
   -2.1121    1.3507   -1.1913 H   0  0  0  0  0  0  0  0  0  0  0  0
   -1.4188    3.3630   -1.0689 C   0  0  0  0  0  0  0  0  0  0  0  0
   -1.2897    4.1140   -0.1154 O   0  0  0  0  0  0  0  0  0  0  0  0
   -1.8295    3.8584   -2.2511 O   0  0  0  0  0  0  0  0  0  0  0  0
   -1.9572    4.7965   -2.0996 H   0  0  0  0  0  0  0  0  0  0  0  0
    0.5295   -0.5124    1.6096 C   0  0  0  0  0  0  0  0  0  0  0  0
    1.2864   -1.4802    1.5640 O   0  0  0  0  0  0  0  0  0  0  0  0
    0.3719    0.2295    2.7126 N   0  0  0  0  0  0  0  0  0  0  0  0
   -0.2504    1.0225    2.6676 H   0  0  0  0  0  0  0  0  0  0  0  0
    1.0641   -0.0260    3.9741 C   0  0  0  0  0  0  0  0  0  0  0  0
    2.1434   -0.0163    3.8118 H   0  0  0  0  0  0  0  0  0  0  0  0
    0.8052    0.7369    4.7097 H   0  0  0  0  0  0  0  0  0  0  0  0
    0.7803   -1.0080    4.3579 H   0  0  0  0  0  0  0  0  0  0  0  0
  5  6  2  0  0  0  0
  5  7  1  0  0  0  0
  2  3  1  0  0  0  0
  2  4  1  0  0  0  0
  2  5  1  0  0  0  0
  1  2  1  0  0  0  0
 21 22  2  0  0  0  0
 21 23  1  0  0  0  0
 19 20  1  0  0  0  0
 17 18  2  0  0  0  0
 17 19  1  0  0  0  0
 14 15  1  0  0  0  0
 14 16  1  0  0  0  0
 14 17  1  0  0  0  0
 11 12  1  0  0  0  0
 11 13  1  0  0  0  0
 11 14  1  0  0  0  0
  9 10  1  0  0  0  0
  9 11  1  0  0  0  0
  9 21  1  0  0  0  0
  7  8  1  0  0  0  0
  7  9  1  0  0  0  0
 25 26  1  0  0  0  0
 25 27  1  0  0  0  0
 25 28  1  0  0  0  0
 23 24  1  0  0  0  0
 23 25  1  0  0  0  0
M  END
$$$$
default_name
  -OEChem-01062215323D

 28 27  0     1  0  0  0  0  0999 V2000
   -3.2133   -3.5565    1.2809 H   0  0  0  0  0  0  0  0  0  0  0  0
   -3.1873   -2.5755    0.8089 C   0  0  0  0  0  0  0  0  0  0  0  0
   -3.8793   -1.9065    1.3169 H   0  0  0  0  0  0  0  0  0  0  0  0
   -3.4623   -2.6685   -0.2401 H   0  0  0  0  0  0  0  0  0  0  0  0
   -1.7863   -2.0195    0.9119 C   0  0  0  0  0  0  0  0  0  0  0  0
   -0.9073   -2.6615    1.4699 O   0  0  0  0  0  0  0  0  0  0  0  0
   -1.5803   -0.8195    0.3749 N   0  0  0  0  0  0  0  0  0  0  0  0
   -2.3603   -0.3345   -0.0451 H   0  0  0  0  0  0  0  0  0  0  0  0
   -0.2933   -0.1205    0.3719 C   0  0  1  0  0  0  0  0  0  0  0  0
    0.2658   -0.4221   -0.5150 H   0  0  0  0  0  0  0  0  0  0  0  0
   -0.5472    1.3988    0.2931 C   0  0  0  0  0  0  0  0  0  0  0  0
   -1.2236    1.6721    1.1047 H   0  0  0  0  0  0  0  0  0  0  0  0
    0.3943    1.9292    0.4429 H   0  0  0  0  0  0  0  0  0  0  0  0
   -1.1610    1.8599   -1.0402 C   0  0  0  0  0  0  0  0  0  0  0  0
   -0.4897    1.6135   -1.8629 H   0  0  0  0  0  0  0  0  0  0  0  0
   -2.1121    1.3507   -1.1913 H   0  0  0  0  0  0  0  0  0  0  0  0
   -1.4188    3.3630   -1.0689 C   0  0  0  0  0  0  0  0  0  0  0  0
   -1.2897    4.1140   -0.1154 O   0  0  0  0  0  0  0  0  0  0  0  0
   -1.8295    3.8584   -2.2511 O   0  0  0  0  0  0  0  0  0  0  0  0
   -1.9572    4.7965   -2.0996 H   0  0  0  0  0  0  0  0  0  0  0  0
    0.5295   -0.5124    1.6096 C   0  0  0  0  0  0  0  0  0  0  0  0
    1.4766   -1.2884    1.4983 O   0  0  0  0  0  0  0  0  0  0  0  0
    0.1611    0.0132    2.7842 N   0  0  0  0  0  0  0  0  0  0  0  0
   -0.6128    0.6607    2.7939 H   0  0  0  0  0  0  0  0  0  0  0  0
    0.8261   -0.2767    4.0529 C   0  0  0  0  0  0  0  0  0  0  0  0
    1.8855   -0.0237    3.9809 H   0  0  0  0  0  0  0  0  0  0  0  0
    0.3733    0.3021    4.8592 H   0  0  0  0  0  0  0  0  0  0  0  0
    0.7388   -1.3410    4.2801 H   0  0  0  0  0  0  0  0  0  0  0  0
  5  6  2  0  0  0  0
  5  7  1  0  0  0  0
  2  3  1  0  0  0  0
  2  4  1  0  0  0  0
  2  5  1  0  0  0  0
  1  2  1  0  0  0  0
 21 22  2  0  0  0  0
 21 23  1  0  0  0  0
 19 20  1  0  0  0  0
 17 18  2  0  0  0  0
 17 19  1  0  0  0  0
 14 15  1  0  0  0  0
 14 16  1  0  0  0  0
 14 17  1  0  0  0  0
 11 12  1  0  0  0  0
 11 13  1  0  0  0  0
 11 14  1  0  0  0  0
  9 10  1  0  0  0  0
  9 11  1  0  0  0  0
  9 21  1  0  0  0  0
  7  8  1  0  0  0  0
  7  9  1  0  0  0  0
 25 26  1  0  0  0  0
 25 27  1  0  0  0  0
 25 28  1  0  0  0  0
 23 24  1  0  0  0  0
 23 25  1  0  0  0  0
M  END
$$$$
default_name
  -OEChem-01062215323D

 28 27  0     1  0  0  0  0  0999 V2000
   -3.2133   -3.5565    1.2809 H   0  0  0  0  0  0  0  0  0  0  0  0
   -3.1873   -2.5755    0.8089 C   0  0  0  0  0  0  0  0  0  0  0  0
   -3.8793   -1.9065    1.3169 H   0  0  0  0  0  0  0  0  0  0  0  0
   -3.4623   -2.6685   -0.2401 H   0  0  0  0  0  0  0  0  0  0  0  0
   -1.7863   -2.0195    0.9119 C   0  0  0  0  0  0  0  0  0  0  0  0
   -0.9073   -2.6615    1.4699 O   0  0  0  0  0  0  0  0  0  0  0  0
   -1.5803   -0.8195    0.3749 N   0  0  0  0  0  0  0  0  0  0  0  0
   -2.3603   -0.3345   -0.0451 H   0  0  0  0  0  0  0  0  0  0  0  0
   -0.2933   -0.1205    0.3719 C   0  0  1  0  0  0  0  0  0  0  0  0
    0.2658   -0.4221   -0.5150 H   0  0  0  0  0  0  0  0  0  0  0  0
   -0.5472    1.3988    0.2931 C   0  0  0  0  0  0  0  0  0  0  0  0
   -1.2236    1.6721    1.1047 H   0  0  0  0  0  0  0  0  0  0  0  0
    0.3943    1.9292    0.4429 H   0  0  0  0  0  0  0  0  0  0  0  0
   -1.1610    1.8599   -1.0402 C   0  0  0  0  0  0  0  0  0  0  0  0
   -0.4897    1.6135   -1.8629 H   0  0  0  0  0  0  0  0  0  0  0  0
   -2.1121    1.3507   -1.1913 H   0  0  0  0  0  0  0  0  0  0  0  0
   -1.4188    3.3630   -1.0689 C   0  0  0  0  0  0  0  0  0  0  0  0
   -1.2897    4.1140   -0.1154 O   0  0  0  0  0  0  0  0  0  0  0  0
   -1.8295    3.8584   -2.2511 O   0  0  0  0  0  0  0  0  0  0  0  0
   -1.9572    4.7965   -2.0996 H   0  0  0  0  0  0  0  0  0  0  0  0
    0.5295   -0.5124    1.6096 C   0  0  0  0  0  0  0  0  0  0  0  0
    1.6246   -1.0545    1.4740 O   0  0  0  0  0  0  0  0  0  0  0  0
   -0.0022   -0.2496    2.8096 N   0  0  0  0  0  0  0  0  0  0  0  0
   -0.8957    0.2182    2.8419 H   0  0  0  0  0  0  0  0  0  0  0  0
    0.6434   -0.5794    4.0786 C   0  0  0  0  0  0  0  0  0  0  0  0
    1.6267   -0.1081    4.1262 H   0  0  0  0  0  0  0  0  0  0  0  0
    0.0369   -0.2286    4.9148 H   0  0  0  0  0  0  0  0  0  0  0  0
    0.7733   -1.6606    4.1560 H   0  0  0  0  0  0  0  0  0  0  0  0
  5  6  2  0  0  0  0
  5  7  1  0  0  0  0
  2  3  1  0  0  0  0
  2  4  1  0  0  0  0
  2  5  1  0  0  0  0
  1  2  1  0  0  0  0
 21 22  2  0  0  0  0
 21 23  1  0  0  0  0
 19 20  1  0  0  0  0
 17 18  2  0  0  0  0
 17 19  1  0  0  0  0
 14 15  1  0  0  0  0
 14 16  1  0  0  0  0
 14 17  1  0  0  0  0
 11 12  1  0  0  0  0
 11 13  1  0  0  0  0
 11 14  1  0  0  0  0
  9 10  1  0  0  0  0
  9 11  1  0  0  0  0
  9 21  1  0  0  0  0
  7  8  1  0  0  0  0
  7  9  1  0  0  0  0
 25 26  1  0  0  0  0
 25 27  1  0  0  0  0
 25 28  1  0  0  0  0
 23 24  1  0  0  0  0
 23 25  1  0  0  0  0
M  END
$$$$
default_name
  -OEChem-01062215323D

 28 27  0     1  0  0  0  0  0999 V2000
   -3.2133   -3.5565    1.2809 H   0  0  0  0  0  0  0  0  0  0  0  0
   -3.1873   -2.5755    0.8089 C   0  0  0  0  0  0  0  0  0  0  0  0
   -3.8793   -1.9065    1.3169 H   0  0  0  0  0  0  0  0  0  0  0  0
   -3.4623   -2.6685   -0.2401 H   0  0  0  0  0  0  0  0  0  0  0  0
   -1.7863   -2.0195    0.9119 C   0  0  0  0  0  0  0  0  0  0  0  0
   -0.9073   -2.6615    1.4699 O   0  0  0  0  0  0  0  0  0  0  0  0
   -1.5803   -0.8195    0.3749 N   0  0  0  0  0  0  0  0  0  0  0  0
   -2.3603   -0.3345   -0.0451 H   0  0  0  0  0  0  0  0  0  0  0  0
   -0.2933   -0.1205    0.3719 C   0  0  1  0  0  0  0  0  0  0  0  0
    0.2658   -0.4221   -0.5150 H   0  0  0  0  0  0  0  0  0  0  0  0
   -0.5472    1.3988    0.2931 C   0  0  0  0  0  0  0  0  0  0  0  0
   -1.2236    1.6721    1.1047 H   0  0  0  0  0  0  0  0  0  0  0  0
    0.3943    1.9292    0.4429 H   0  0  0  0  0  0  0  0  0  0  0  0
   -1.1610    1.8599   -1.0402 C   0  0  0  0  0  0  0  0  0  0  0  0
   -0.4897    1.6135   -1.8629 H   0  0  0  0  0  0  0  0  0  0  0  0
   -2.1121    1.3507   -1.1913 H   0  0  0  0  0  0  0  0  0  0  0  0
   -1.4188    3.3630   -1.0689 C   0  0  0  0  0  0  0  0  0  0  0  0
   -1.2897    4.1140   -0.1154 O   0  0  0  0  0  0  0  0  0  0  0  0
   -1.8295    3.8584   -2.2511 O   0  0  0  0  0  0  0  0  0  0  0  0
   -1.9572    4.7965   -2.0996 H   0  0  0  0  0  0  0  0  0  0  0  0
    0.5295   -0.5124    1.6096 C   0  0  0  0  0  0  0  0  0  0  0  0
    1.7205   -0.7943    1.4926 O   0  0  0  0  0  0  0  0  0  0  0  0
   -0.1068   -0.5409    2.7869 N   0  0  0  0  0  0  0  0  0  0  0  0
   -1.0799   -0.2748    2.8082 H   0  0  0  0  0  0  0  0  0  0  0  0
    0.5282   -0.9134    4.0494 C   0  0  0  0  0  0  0  0  0  0  0  0
    1.3848   -0.2636    4.2378 H   0  0  0  0  0  0  0  0  0  0  0  0
   -0.1812   -0.8190    4.8728 H   0  0  0  0  0  0  0  0  0  0  0  0
    0.8814   -1.9450    3.9941 H   0  0  0  0  0  0  0  0  0  0  0  0
  5  6  2  0  0  0  0
  5  7  1  0  0  0  0
  2  3  1  0  0  0  0
  2  4  1  0  0  0  0
  2  5  1  0  0  0  0
  1  2  1  0  0  0  0
 21 22  2  0  0  0  0
 21 23  1  0  0  0  0
 19 20  1  0  0  0  0
 17 18  2  0  0  0  0
 17 19  1  0  0  0  0
 14 15  1  0  0  0  0
 14 16  1  0  0  0  0
 14 17  1  0  0  0  0
 11 12  1  0  0  0  0
 11 13  1  0  0  0  0
 11 14  1  0  0  0  0
  9 10  1  0  0  0  0
  9 11  1  0  0  0  0
  9 21  1  0  0  0  0
  7  8  1  0  0  0  0
  7  9  1  0  0  0  0
 25 26  1  0  0  0  0
 25 27  1  0  0  0  0
 25 28  1  0  0  0  0
 23 24  1  0  0  0  0
 23 25  1  0  0  0  0
M  END
$$$$
default_name
  -OEChem-01062215323D

 28 27  0     1  0  0  0  0  0999 V2000
   -3.2133   -3.5565    1.2809 H   0  0  0  0  0  0  0  0  0  0  0  0
   -3.1873   -2.5755    0.8089 C   0  0  0  0  0  0  0  0  0  0  0  0
   -3.8793   -1.9065    1.3169 H   0  0  0  0  0  0  0  0  0  0  0  0
   -3.4623   -2.6685   -0.2401 H   0  0  0  0  0  0  0  0  0  0  0  0
   -1.7863   -2.0195    0.9119 C   0  0  0  0  0  0  0  0  0  0  0  0
   -0.9073   -2.6615    1.4699 O   0  0  0  0  0  0  0  0  0  0  0  0
   -1.5803   -0.8195    0.3749 N   0  0  0  0  0  0  0  0  0  0  0  0
   -2.3603   -0.3345   -0.0451 H   0  0  0  0  0  0  0  0  0  0  0  0
   -0.2933   -0.1205    0.3719 C   0  0  1  0  0  0  0  0  0  0  0  0
    0.2658   -0.4221   -0.5150 H   0  0  0  0  0  0  0  0  0  0  0  0
   -0.5472    1.3988    0.2931 C   0  0  0  0  0  0  0  0  0  0  0  0
   -1.2236    1.6721    1.1047 H   0  0  0  0  0  0  0  0  0  0  0  0
    0.3943    1.9292    0.4429 H   0  0  0  0  0  0  0  0  0  0  0  0
   -1.1610    1.8599   -1.0402 C   0  0  0  0  0  0  0  0  0  0  0  0
   -0.4897    1.6135   -1.8629 H   0  0  0  0  0  0  0  0  0  0  0  0
   -2.1121    1.3507   -1.1913 H   0  0  0  0  0  0  0  0  0  0  0  0
   -1.4188    3.3630   -1.0689 C   0  0  0  0  0  0  0  0  0  0  0  0
   -1.2897    4.1140   -0.1154 O   0  0  0  0  0  0  0  0  0  0  0  0
   -1.8295    3.8584   -2.2511 O   0  0  0  0  0  0  0  0  0  0  0  0
   -1.9572    4.7965   -2.0996 H   0  0  0  0  0  0  0  0  0  0  0  0
    0.5295   -0.5124    1.6096 C   0  0  0  0  0  0  0  0  0  0  0  0
    1.7576   -0.5256    1.5530 O   0  0  0  0  0  0  0  0  0  0  0  0
   -0.1457   -0.8410    2.7177 N   0  0  0  0  0  0  0  0  0  0  0  0
   -1.1529   -0.7848    2.6953 H   0  0  0  0  0  0  0  0  0  0  0  0
    0.4885   -1.2559    3.9673 C   0  0  0  0  0  0  0  0  0  0  0  0
    1.1762   -0.4798    4.3080 H   0  0  0  0  0  0  0  0  0  0  0  0
   -0.2660   -1.4290    4.7360 H   0  0  0  0  0  0  0  0  0  0  0  0
    1.0557   -2.1746    3.8054 H   0  0  0  0  0  0  0  0  0  0  0  0
  5  6  2  0  0  0  0
  5  7  1  0  0  0  0
  2  3  1  0  0  0  0
  2  4  1  0  0  0  0
  2  5  1  0  0  0  0
  1  2  1  0  0  0  0
 21 22  2  0  0  0  0
 21 23  1  0  0  0  0
 19 20  1  0  0  0  0
 17 18  2  0  0  0  0
 17 19  1  0  0  0  0
 14 15  1  0  0  0  0
 14 16  1  0  0  0  0
 14 17  1  0  0  0  0
 11 12  1  0  0  0  0
 11 13  1  0  0  0  0
 11 14  1  0  0  0  0
  9 10  1  0  0  0  0
  9 11  1  0  0  0  0
  9 21  1  0  0  0  0
  7  8  1  0  0  0  0
  7  9  1  0  0  0  0
 25 26  1  0  0  0  0
 25 27  1  0  0  0  0
 25 28  1  0  0  0  0
 23 24  1  0  0  0  0
 23 25  1  0  0  0  0
M  END
$$$$
default_name
  -OEChem-01062215323D

 28 27  0     1  0  0  0  0  0999 V2000
   -3.2133   -3.5565    1.2809 H   0  0  0  0  0  0  0  0  0  0  0  0
   -3.1873   -2.5755    0.8089 C   0  0  0  0  0  0  0  0  0  0  0  0
   -3.8793   -1.9065    1.3169 H   0  0  0  0  0  0  0  0  0  0  0  0
   -3.4623   -2.6685   -0.2401 H   0  0  0  0  0  0  0  0  0  0  0  0
   -1.7863   -2.0195    0.9119 C   0  0  0  0  0  0  0  0  0  0  0  0
   -0.9073   -2.6615    1.4699 O   0  0  0  0  0  0  0  0  0  0  0  0
   -1.5803   -0.8195    0.3749 N   0  0  0  0  0  0  0  0  0  0  0  0
   -2.3603   -0.3345   -0.0451 H   0  0  0  0  0  0  0  0  0  0  0  0
   -0.2933   -0.1205    0.3719 C   0  0  1  0  0  0  0  0  0  0  0  0
    0.2658   -0.4221   -0.5150 H   0  0  0  0  0  0  0  0  0  0  0  0
   -0.5472    1.3988    0.2931 C   0  0  0  0  0  0  0  0  0  0  0  0
   -1.2236    1.6721    1.1047 H   0  0  0  0  0  0  0  0  0  0  0  0
    0.3943    1.9292    0.4429 H   0  0  0  0  0  0  0  0  0  0  0  0
   -1.1610    1.8599   -1.0402 C   0  0  0  0  0  0  0  0  0  0  0  0
   -0.4897    1.6135   -1.8629 H   0  0  0  0  0  0  0  0  0  0  0  0
   -2.1121    1.3507   -1.1913 H   0  0  0  0  0  0  0  0  0  0  0  0
   -1.4188    3.3630   -1.0689 C   0  0  0  0  0  0  0  0  0  0  0  0
   -1.2897    4.1140   -0.1154 O   0  0  0  0  0  0  0  0  0  0  0  0
   -1.8295    3.8584   -2.2511 O   0  0  0  0  0  0  0  0  0  0  0  0
   -1.9572    4.7965   -2.0996 H   0  0  0  0  0  0  0  0  0  0  0  0
    0.5295   -0.5124    1.6096 C   0  0  0  0  0  0  0  0  0  0  0  0
    1.7335   -0.2667    1.6511 O   0  0  0  0  0  0  0  0  0  0  0  0
   -0.1161   -1.1294    2.6067 N   0  0  0  0  0  0  0  0  0  0  0  0
   -1.1097   -1.2769    2.5107 H   0  0  0  0  0  0  0  0  0  0  0  0
    0.5270   -1.5837    3.8379 C   0  0  0  0  0  0  0  0  0  0  0  0
    1.0151   -0.7417    4.3322 H   0  0  0  0  0  0  0  0  0  0  0  0
   -0.2117   -2.0169    4.5138 H   0  0  0  0  0  0  0  0  0  0  0  0
    1.2845   -2.3340    3.6029 H   0  0  0  0  0  0  0  0  0  0  0  0
  5  6  2  0  0  0  0
  5  7  1  0  0  0  0
  2  3  1  0  0  0  0
  2  4  1  0  0  0  0
  2  5  1  0  0  0  0
  1  2  1  0  0  0  0
 21 22  2  0  0  0  0
 21 23  1  0  0  0  0
 19 20  1  0  0  0  0
 17 18  2  0  0  0  0
 17 19  1  0  0  0  0
 14 15  1  0  0  0  0
 14 16  1  0  0  0  0
 14 17  1  0  0  0  0
 11 12  1  0  0  0  0
 11 13  1  0  0  0  0
 11 14  1  0  0  0  0
  9 10  1  0  0  0  0
  9 11  1  0  0  0  0
  9 21  1  0  0  0  0
  7  8  1  0  0  0  0
  7  9  1  0  0  0  0
 25 26  1  0  0  0  0
 25 27  1  0  0  0  0
 25 28  1  0  0  0  0
 23 24  1  0  0  0  0
 23 25  1  0  0  0  0
M  END
$$$$
default_name
  -OEChem-01062215323D

 28 27  0     1  0  0  0  0  0999 V2000
   -3.2133   -3.5565    1.2809 H   0  0  0  0  0  0  0  0  0  0  0  0
   -3.1873   -2.5755    0.8089 C   0  0  0  0  0  0  0  0  0  0  0  0
   -3.8793   -1.9065    1.3169 H   0  0  0  0  0  0  0  0  0  0  0  0
   -3.4623   -2.6685   -0.2401 H   0  0  0  0  0  0  0  0  0  0  0  0
   -1.7863   -2.0195    0.9119 C   0  0  0  0  0  0  0  0  0  0  0  0
   -0.9073   -2.6615    1.4699 O   0  0  0  0  0  0  0  0  0  0  0  0
   -1.5803   -0.8195    0.3749 N   0  0  0  0  0  0  0  0  0  0  0  0
   -2.3603   -0.3345   -0.0451 H   0  0  0  0  0  0  0  0  0  0  0  0
   -0.2933   -0.1205    0.3719 C   0  0  1  0  0  0  0  0  0  0  0  0
    0.2658   -0.4221   -0.5150 H   0  0  0  0  0  0  0  0  0  0  0  0
   -0.5472    1.3988    0.2931 C   0  0  0  0  0  0  0  0  0  0  0  0
   -1.2236    1.6721    1.1047 H   0  0  0  0  0  0  0  0  0  0  0  0
    0.3943    1.9292    0.4429 H   0  0  0  0  0  0  0  0  0  0  0  0
   -1.1610    1.8599   -1.0402 C   0  0  0  0  0  0  0  0  0  0  0  0
   -0.4897    1.6135   -1.8629 H   0  0  0  0  0  0  0  0  0  0  0  0
   -2.1121    1.3507   -1.1913 H   0  0  0  0  0  0  0  0  0  0  0  0
   -1.4188    3.3630   -1.0689 C   0  0  0  0  0  0  0  0  0  0  0  0
   -1.2897    4.1140   -0.1154 O   0  0  0  0  0  0  0  0  0  0  0  0
   -1.8295    3.8584   -2.2511 O   0  0  0  0  0  0  0  0  0  0  0  0
   -1.9572    4.7965   -2.0996 H   0  0  0  0  0  0  0  0  0  0  0  0
    0.5295   -0.5124    1.6096 C   0  0  0  0  0  0  0  0  0  0  0  0
    1.6498   -0.0352    1.7800 O   0  0  0  0  0  0  0  0  0  0  0  0
   -0.0201   -1.3864    2.4615 N   0  0  0  0  0  0  0  0  0  0  0  0
   -0.9532   -1.7177    2.2671 H   0  0  0  0  0  0  0  0  0  0  0  0
    0.6410   -1.8744    3.6701 C   0  0  0  0  0  0  0  0  0  0  0  0
    0.9125   -1.0317    4.3085 H   0  0  0  0  0  0  0  0  0  0  0  0
   -0.0221   -2.5427    4.2213 H   0  0  0  0  0  0  0  0  0  0  0  0
    1.5520   -2.4122    3.4003 H   0  0  0  0  0  0  0  0  0  0  0  0
  5  6  2  0  0  0  0
  5  7  1  0  0  0  0
  2  3  1  0  0  0  0
  2  4  1  0  0  0  0
  2  5  1  0  0  0  0
  1  2  1  0  0  0  0
 21 22  2  0  0  0  0
 21 23  1  0  0  0  0
 19 20  1  0  0  0  0
 17 18  2  0  0  0  0
 17 19  1  0  0  0  0
 14 15  1  0  0  0  0
 14 16  1  0  0  0  0
 14 17  1  0  0  0  0
 11 12  1  0  0  0  0
 11 13  1  0  0  0  0
 11 14  1  0  0  0  0
  9 10  1  0  0  0  0
  9 11  1  0  0  0  0
  9 21  1  0  0  0  0
  7  8  1  0  0  0  0
  7  9  1  0  0  0  0
 25 26  1  0  0  0  0
 25 27  1  0  0  0  0
 25 28  1  0  0  0  0
 23 24  1  0  0  0  0
 23 25  1  0  0  0  0
M  END
$$$$
default_name
  -OEChem-01062215323D

 28 27  0     1  0  0  0  0  0999 V2000
   -3.2133   -3.5565    1.2809 H   0  0  0  0  0  0  0  0  0  0  0  0
   -3.1873   -2.5755    0.8089 C   0  0  0  0  0  0  0  0  0  0  0  0
   -3.8793   -1.9065    1.3169 H   0  0  0  0  0  0  0  0  0  0  0  0
   -3.4623   -2.6685   -0.2401 H   0  0  0  0  0  0  0  0  0  0  0  0
   -1.7863   -2.0195    0.9119 C   0  0  0  0  0  0  0  0  0  0  0  0
   -0.9073   -2.6615    1.4699 O   0  0  0  0  0  0  0  0  0  0  0  0
   -1.5803   -0.8195    0.3749 N   0  0  0  0  0  0  0  0  0  0  0  0
   -2.3603   -0.3345   -0.0451 H   0  0  0  0  0  0  0  0  0  0  0  0
   -0.2933   -0.1205    0.3719 C   0  0  1  0  0  0  0  0  0  0  0  0
    0.2658   -0.4221   -0.5150 H   0  0  0  0  0  0  0  0  0  0  0  0
   -0.5472    1.3988    0.2931 C   0  0  0  0  0  0  0  0  0  0  0  0
   -1.2236    1.6721    1.1047 H   0  0  0  0  0  0  0  0  0  0  0  0
    0.3943    1.9292    0.4429 H   0  0  0  0  0  0  0  0  0  0  0  0
   -1.1610    1.8599   -1.0402 C   0  0  0  0  0  0  0  0  0  0  0  0
   -0.4897    1.6135   -1.8629 H   0  0  0  0  0  0  0  0  0  0  0  0
   -2.1121    1.3507   -1.1913 H   0  0  0  0  0  0  0  0  0  0  0  0
   -1.4188    3.3630   -1.0689 C   0  0  0  0  0  0  0  0  0  0  0  0
   -1.2897    4.1140   -0.1154 O   0  0  0  0  0  0  0  0  0  0  0  0
   -1.8295    3.8584   -2.2511 O   0  0  0  0  0  0  0  0  0  0  0  0
   -1.9572    4.7965   -2.0996 H   0  0  0  0  0  0  0  0  0  0  0  0
    0.5295   -0.5124    1.6096 C   0  0  0  0  0  0  0  0  0  0  0  0
    1.5121    0.1531    1.9311 O   0  0  0  0  0  0  0  0  0  0  0  0
    0.1358   -1.5945    2.2920 N   0  0  0  0  0  0  0  0  0  0  0  0
   -0.6940   -2.0771    1.9811 H   0  0  0  0  0  0  0  0  0  0  0  0
    0.8228   -2.1082    3.4753 C   0  0  0  0  0  0  0  0  0  0  0  0
    0.8754   -1.3299    4.2388 H   0  0  0  0  0  0  0  0  0  0  0  0
    0.2899   -2.9705    3.8784 H   0  0  0  0  0  0  0  0  0  0  0  0
    1.8401   -2.4040    3.2115 H   0  0  0  0  0  0  0  0  0  0  0  0
  5  6  2  0  0  0  0
  5  7  1  0  0  0  0
  2  3  1  0  0  0  0
  2  4  1  0  0  0  0
  2  5  1  0  0  0  0
  1  2  1  0  0  0  0
 21 22  2  0  0  0  0
 21 23  1  0  0  0  0
 19 20  1  0  0  0  0
 17 18  2  0  0  0  0
 17 19  1  0  0  0  0
 14 15  1  0  0  0  0
 14 16  1  0  0  0  0
 14 17  1  0  0  0  0
 11 12  1  0  0  0  0
 11 13  1  0  0  0  0
 11 14  1  0  0  0  0
  9 10  1  0  0  0  0
  9 11  1  0  0  0  0
  9 21  1  0  0  0  0
  7  8  1  0  0  0  0
  7  9  1  0  0  0  0
 25 26  1  0  0  0  0
 25 27  1  0  0  0  0
 25 28  1  0  0  0  0
 23 24  1  0  0  0  0
 23 25  1  0  0  0  0
M  END
$$$$
default_name
  -OEChem-01062215323D

 28 27  0     1  0  0  0  0  0999 V2000
   -3.2133   -3.5565    1.2809 H   0  0  0  0  0  0  0  0  0  0  0  0
   -3.1873   -2.5755    0.8089 C   0  0  0  0  0  0  0  0  0  0  0  0
   -3.8793   -1.9065    1.3169 H   0  0  0  0  0  0  0  0  0  0  0  0
   -3.4623   -2.6685   -0.2401 H   0  0  0  0  0  0  0  0  0  0  0  0
   -1.7863   -2.0195    0.9119 C   0  0  0  0  0  0  0  0  0  0  0  0
   -0.9073   -2.6615    1.4699 O   0  0  0  0  0  0  0  0  0  0  0  0
   -1.5803   -0.8195    0.3749 N   0  0  0  0  0  0  0  0  0  0  0  0
   -2.3603   -0.3345   -0.0451 H   0  0  0  0  0  0  0  0  0  0  0  0
   -0.2933   -0.1205    0.3719 C   0  0  1  0  0  0  0  0  0  0  0  0
    0.2658   -0.4221   -0.5150 H   0  0  0  0  0  0  0  0  0  0  0  0
   -0.5472    1.3988    0.2931 C   0  0  0  0  0  0  0  0  0  0  0  0
   -1.2236    1.6721    1.1047 H   0  0  0  0  0  0  0  0  0  0  0  0
    0.3943    1.9292    0.4429 H   0  0  0  0  0  0  0  0  0  0  0  0
   -1.1610    1.8599   -1.0402 C   0  0  0  0  0  0  0  0  0  0  0  0
   -0.4897    1.6135   -1.8629 H   0  0  0  0  0  0  0  0  0  0  0  0
   -2.1121    1.3507   -1.1913 H   0  0  0  0  0  0  0  0  0  0  0  0
   -1.4188    3.3630   -1.0689 C   0  0  0  0  0  0  0  0  0  0  0  0
   -1.2897    4.1140   -0.1154 O   0  0  0  0  0  0  0  0  0  0  0  0
   -1.8295    3.8584   -2.2511 O   0  0  0  0  0  0  0  0  0  0  0  0
   -1.9572    4.7965   -2.0996 H   0  0  0  0  0  0  0  0  0  0  0  0
    0.5295   -0.5124    1.6096 C   0  0  0  0  0  0  0  0  0  0  0  0
    1.3300    0.2853    2.0941 O   0  0  0  0  0  0  0  0  0  0  0  0
    0.3409   -1.7395    2.1097 N   0  0  0  0  0  0  0  0  0  0  0  0
   -0.3499   -2.3306    1.6721 H   0  0  0  0  0  0  0  0  0  0  0  0
    1.0600   -2.2691    3.2667 C   0  0  0  0  0  0  0  0  0  0  0  0
    0.9063   -1.6160    4.1277 H   0  0  0  0  0  0  0  0  0  0  0  0
    0.7031   -3.2712    3.5086 H   0  0  0  0  0  0  0  0  0  0  0  0
    2.1291   -2.3098    3.0492 H   0  0  0  0  0  0  0  0  0  0  0  0
  5  6  2  0  0  0  0
  5  7  1  0  0  0  0
  2  3  1  0  0  0  0
  2  4  1  0  0  0  0
  2  5  1  0  0  0  0
  1  2  1  0  0  0  0
 21 22  2  0  0  0  0
 21 23  1  0  0  0  0
 19 20  1  0  0  0  0
 17 18  2  0  0  0  0
 17 19  1  0  0  0  0
 14 15  1  0  0  0  0
 14 16  1  0  0  0  0
 14 17  1  0  0  0  0
 11 12  1  0  0  0  0
 11 13  1  0  0  0  0
 11 14  1  0  0  0  0
  9 10  1  0  0  0  0
  9 11  1  0  0  0  0
  9 21  1  0  0  0  0
  7  8  1  0  0  0  0
  7  9  1  0  0  0  0
 25 26  1  0  0  0  0
 25 27  1  0  0  0  0
 25 28  1  0  0  0  0
 23 24  1  0  0  0  0
 23 25  1  0  0  0  0
M  END
$$$$
default_name
  -OEChem-01062215323D

 28 27  0     1  0  0  0  0  0999 V2000
   -3.2133   -3.5565    1.2809 H   0  0  0  0  0  0  0  0  0  0  0  0
   -3.1873   -2.5755    0.8089 C   0  0  0  0  0  0  0  0  0  0  0  0
   -3.8793   -1.9065    1.3169 H   0  0  0  0  0  0  0  0  0  0  0  0
   -3.4623   -2.6685   -0.2401 H   0  0  0  0  0  0  0  0  0  0  0  0
   -1.7863   -2.0195    0.9119 C   0  0  0  0  0  0  0  0  0  0  0  0
   -0.9073   -2.6615    1.4699 O   0  0  0  0  0  0  0  0  0  0  0  0
   -1.5803   -0.8195    0.3749 N   0  0  0  0  0  0  0  0  0  0  0  0
   -2.3603   -0.3345   -0.0451 H   0  0  0  0  0  0  0  0  0  0  0  0
   -0.2933   -0.1205    0.3719 C   0  0  1  0  0  0  0  0  0  0  0  0
    0.2658   -0.4221   -0.5150 H   0  0  0  0  0  0  0  0  0  0  0  0
   -0.5472    1.3988    0.2931 C   0  0  0  0  0  0  0  0  0  0  0  0
   -1.2236    1.6721    1.1047 H   0  0  0  0  0  0  0  0  0  0  0  0
    0.3943    1.9292    0.4429 H   0  0  0  0  0  0  0  0  0  0  0  0
   -1.1610    1.8599   -1.0402 C   0  0  0  0  0  0  0  0  0  0  0  0
   -0.4897    1.6135   -1.8629 H   0  0  0  0  0  0  0  0  0  0  0  0
   -2.1121    1.3507   -1.1913 H   0  0  0  0  0  0  0  0  0  0  0  0
   -1.4188    3.3630   -1.0689 C   0  0  0  0  0  0  0  0  0  0  0  0
   -1.2897    4.1140   -0.1154 O   0  0  0  0  0  0  0  0  0  0  0  0
   -1.8295    3.8584   -2.2511 O   0  0  0  0  0  0  0  0  0  0  0  0
   -1.9572    4.7965   -2.0996 H   0  0  0  0  0  0  0  0  0  0  0  0
    0.5295   -0.5124    1.6096 C   0  0  0  0  0  0  0  0  0  0  0  0
    1.1157    0.3525    2.2578 O   0  0  0  0  0  0  0  0  0  0  0  0
    0.5813   -1.8116    1.9271 N   0  0  0  0  0  0  0  0  0  0  0  0
    0.0556   -2.4610    1.3612 H   0  0  0  0  0  0  0  0  0  0  0  0
    1.3363   -2.3462    3.0585 C   0  0  0  0  0  0  0  0  0  0  0  0
    1.0031   -1.8706    3.9827 H   0  0  0  0  0  0  0  0  0  0  0  0
    1.1892   -3.4243    3.1369 H   0  0  0  0  0  0  0  0  0  0  0  0
    2.3993   -2.1361    2.9245 H   0  0  0  0  0  0  0  0  0  0  0  0
  5  6  2  0  0  0  0
  5  7  1  0  0  0  0
  2  3  1  0  0  0  0
  2  4  1  0  0  0  0
  2  5  1  0  0  0  0
  1  2  1  0  0  0  0
 21 22  2  0  0  0  0
 21 23  1  0  0  0  0
 19 20  1  0  0  0  0
 17 18  2  0  0  0  0
 17 19  1  0  0  0  0
 14 15  1  0  0  0  0
 14 16  1  0  0  0  0
 14 17  1  0  0  0  0
 11 12  1  0  0  0  0
 11 13  1  0  0  0  0
 11 14  1  0  0  0  0
  9 10  1  0  0  0  0
  9 11  1  0  0  0  0
  9 21  1  0  0  0  0
  7  8  1  0  0  0  0
  7  9  1  0  0  0  0
 25 26  1  0  0  0  0
 25 27  1  0  0  0  0
 25 28  1  0  0  0  0
 23 24  1  0  0  0  0
 23 25  1  0  0  0  0
M  END
$$$$
default_name
  -OEChem-01062215323D

 28 27  0     1  0  0  0  0  0999 V2000
   -3.2133   -3.5565    1.2809 H   0  0  0  0  0  0  0  0  0  0  0  0
   -3.1873   -2.5755    0.8089 C   0  0  0  0  0  0  0  0  0  0  0  0
   -3.8793   -1.9065    1.3169 H   0  0  0  0  0  0  0  0  0  0  0  0
   -3.4623   -2.6685   -0.2401 H   0  0  0  0  0  0  0  0  0  0  0  0
   -1.7863   -2.0195    0.9119 C   0  0  0  0  0  0  0  0  0  0  0  0
   -0.9073   -2.6615    1.4699 O   0  0  0  0  0  0  0  0  0  0  0  0
   -1.5803   -0.8195    0.3749 N   0  0  0  0  0  0  0  0  0  0  0  0
   -2.3603   -0.3345   -0.0451 H   0  0  0  0  0  0  0  0  0  0  0  0
   -0.2933   -0.1205    0.3719 C   0  0  1  0  0  0  0  0  0  0  0  0
    0.2658   -0.4221   -0.5150 H   0  0  0  0  0  0  0  0  0  0  0  0
   -0.5472    1.3988    0.2931 C   0  0  0  0  0  0  0  0  0  0  0  0
   -1.2236    1.6721    1.1047 H   0  0  0  0  0  0  0  0  0  0  0  0
    0.3943    1.9292    0.4429 H   0  0  0  0  0  0  0  0  0  0  0  0
   -1.1610    1.8599   -1.0402 C   0  0  0  0  0  0  0  0  0  0  0  0
   -0.4897    1.6135   -1.8629 H   0  0  0  0  0  0  0  0  0  0  0  0
   -2.1121    1.3507   -1.1913 H   0  0  0  0  0  0  0  0  0  0  0  0
   -1.4188    3.3630   -1.0689 C   0  0  0  0  0  0  0  0  0  0  0  0
   -1.2897    4.1140   -0.1154 O   0  0  0  0  0  0  0  0  0  0  0  0
   -1.8295    3.8584   -2.2511 O   0  0  0  0  0  0  0  0  0  0  0  0
   -1.9572    4.7965   -2.0996 H   0  0  0  0  0  0  0  0  0  0  0  0
    0.5295   -0.5124    1.6096 C   0  0  0  0  0  0  0  0  0  0  0  0
    0.8839    0.3501    2.4111 O   0  0  0  0  0  0  0  0  0  0  0  0
    0.8406   -1.8059    1.7565 N   0  0  0  0  0  0  0  0  0  0  0  0
    0.4951   -2.4593    1.0696 H   0  0  0  0  0  0  0  0  0  0  0  0
    1.6331   -2.3342    2.8650 C   0  0  0  0  0  0  0  0  0  0  0  0
    1.1592   -2.0762    3.8138 H   0  0  0  0  0  0  0  0  0  0  0  0
    1.7153   -3.4193    2.7888 H   0  0  0  0  0  0  0  0  0  0  0  0
    2.6324   -1.8947    2.8460 H   0  0  0  0  0  0  0  0  0  0  0  0
  5  6  2  0  0  0  0
  5  7  1  0  0  0  0
  2  3  1  0  0  0  0
  2  4  1  0  0  0  0
  2  5  1  0  0  0  0
  1  2  1  0  0  0  0
 21 22  2  0  0  0  0
 21 23  1  0  0  0  0
 19 20  1  0  0  0  0
 17 18  2  0  0  0  0
 17 19  1  0  0  0  0
 14 15  1  0  0  0  0
 14 16  1  0  0  0  0
 14 17  1  0  0  0  0
 11 12  1  0  0  0  0
 11 13  1  0  0  0  0
 11 14  1  0  0  0  0
  9 10  1  0  0  0  0
  9 11  1  0  0  0  0
  9 21  1  0  0  0  0
  7  8  1  0  0  0  0
  7  9  1  0  0  0  0
 25 26  1  0  0  0  0
 25 27  1  0  0  0  0
 25 28  1  0  0  0  0
 23 24  1  0  0  0  0
 23 25  1  0  0  0  0
M  END
$$$$
default_name
  -OEChem-01062215323D

 28 27  0     1  0  0  0  0  0999 V2000
   -3.2133   -3.5565    1.2809 H   0  0  0  0  0  0  0  0  0  0  0  0
   -3.1873   -2.5755    0.8089 C   0  0  0  0  0  0  0  0  0  0  0  0
   -3.8793   -1.9065    1.3169 H   0  0  0  0  0  0  0  0  0  0  0  0
   -3.4623   -2.6685   -0.2401 H   0  0  0  0  0  0  0  0  0  0  0  0
   -1.7863   -2.0195    0.9119 C   0  0  0  0  0  0  0  0  0  0  0  0
   -0.9073   -2.6615    1.4699 O   0  0  0  0  0  0  0  0  0  0  0  0
   -1.5803   -0.8195    0.3749 N   0  0  0  0  0  0  0  0  0  0  0  0
   -2.3603   -0.3345   -0.0451 H   0  0  0  0  0  0  0  0  0  0  0  0
   -0.2933   -0.1205    0.3719 C   0  0  1  0  0  0  0  0  0  0  0  0
    0.2658   -0.4221   -0.5150 H   0  0  0  0  0  0  0  0  0  0  0  0
   -0.5472    1.3988    0.2931 C   0  0  0  0  0  0  0  0  0  0  0  0
   -1.2236    1.6721    1.1047 H   0  0  0  0  0  0  0  0  0  0  0  0
    0.3943    1.9292    0.4429 H   0  0  0  0  0  0  0  0  0  0  0  0
   -1.1610    1.8599   -1.0402 C   0  0  0  0  0  0  0  0  0  0  0  0
   -0.4897    1.6135   -1.8629 H   0  0  0  0  0  0  0  0  0  0  0  0
   -2.1121    1.3507   -1.1913 H   0  0  0  0  0  0  0  0  0  0  0  0
   -1.4188    3.3630   -1.0689 C   0  0  0  0  0  0  0  0  0  0  0  0
   -1.2897    4.1140   -0.1154 O   0  0  0  0  0  0  0  0  0  0  0  0
   -1.8295    3.8584   -2.2511 O   0  0  0  0  0  0  0  0  0  0  0  0
   -1.9572    4.7965   -2.0996 H   0  0  0  0  0  0  0  0  0  0  0  0
    0.5295   -0.5124    1.6096 C   0  0  0  0  0  0  0  0  0  0  0  0
    0.6504    0.2782    2.5435 O   0  0  0  0  0  0  0  0  0  0  0  0
    1.1011   -1.7226    1.6097 N   0  0  0  0  0  0  0  0  0  0  0  0
    0.9385   -2.3256    0.8172 H   0  0  0  0  0  0  0  0  0  0  0  0
    1.9301   -2.2340    2.6994 C   0  0  0  0  0  0  0  0  0  0  0  0
    1.3640   -2.2188    3.6325 H   0  0  0  0  0  0  0  0  0  0  0  0
    2.2453   -3.2567    2.4879 H   0  0  0  0  0  0  0  0  0  0  0  0
    2.8123   -1.6021    2.8190 H   0  0  0  0  0  0  0  0  0  0  0  0
  5  6  2  0  0  0  0
  5  7  1  0  0  0  0
  2  3  1  0  0  0  0
  2  4  1  0  0  0  0
  2  5  1  0  0  0  0
  1  2  1  0  0  0  0
 21 22  2  0  0  0  0
 21 23  1  0  0  0  0
 19 20  1  0  0  0  0
 17 18  2  0  0  0  0
 17 19  1  0  0  0  0
 14 15  1  0  0  0  0
 14 16  1  0  0  0  0
 14 17  1  0  0  0  0
 11 12  1  0  0  0  0
 11 13  1  0  0  0  0
 11 14  1  0  0  0  0
  9 10  1  0  0  0  0
  9 11  1  0  0  0  0
  9 21  1  0  0  0  0
  7  8  1  0  0  0  0
  7  9  1  0  0  0  0
 25 26  1  0  0  0  0
 25 27  1  0  0  0  0
 25 28  1  0  0  0  0
 23 24  1  0  0  0  0
 23 25  1  0  0  0  0
M  END
$$$$
default_name
  -OEChem-01062215323D

 28 27  0     1  0  0  0  0  0999 V2000
   -3.2133   -3.5565    1.2809 H   0  0  0  0  0  0  0  0  0  0  0  0
   -3.1873   -2.5755    0.8089 C   0  0  0  0  0  0  0  0  0  0  0  0
   -3.8793   -1.9065    1.3169 H   0  0  0  0  0  0  0  0  0  0  0  0
   -3.4623   -2.6685   -0.2401 H   0  0  0  0  0  0  0  0  0  0  0  0
   -1.7863   -2.0195    0.9119 C   0  0  0  0  0  0  0  0  0  0  0  0
   -0.9073   -2.6615    1.4699 O   0  0  0  0  0  0  0  0  0  0  0  0
   -1.5803   -0.8195    0.3749 N   0  0  0  0  0  0  0  0  0  0  0  0
   -2.3603   -0.3345   -0.0451 H   0  0  0  0  0  0  0  0  0  0  0  0
   -0.2933   -0.1205    0.3719 C   0  0  1  0  0  0  0  0  0  0  0  0
    0.2658   -0.4221   -0.5150 H   0  0  0  0  0  0  0  0  0  0  0  0
   -0.5472    1.3988    0.2931 C   0  0  0  0  0  0  0  0  0  0  0  0
   -1.2236    1.6721    1.1047 H   0  0  0  0  0  0  0  0  0  0  0  0
    0.3943    1.9292    0.4429 H   0  0  0  0  0  0  0  0  0  0  0  0
   -1.1610    1.8599   -1.0402 C   0  0  0  0  0  0  0  0  0  0  0  0
   -0.4897    1.6135   -1.8629 H   0  0  0  0  0  0  0  0  0  0  0  0
   -2.1121    1.3507   -1.1913 H   0  0  0  0  0  0  0  0  0  0  0  0
   -1.4188    3.3630   -1.0689 C   0  0  0  0  0  0  0  0  0  0  0  0
   -1.2897    4.1140   -0.1154 O   0  0  0  0  0  0  0  0  0  0  0  0
   -1.8295    3.8584   -2.2511 O   0  0  0  0  0  0  0  0  0  0  0  0
   -1.9572    4.7965   -2.0996 H   0  0  0  0  0  0  0  0  0  0  0  0
    0.5295   -0.5124    1.6096 C   0  0  0  0  0  0  0  0  0  0  0  0
    0.4311    0.1417    2.6461 O   0  0  0  0  0  0  0  0  0  0  0  0
    1.3451   -1.5676    1.4966 N   0  0  0  0  0  0  0  0  0  0  0  0
    1.3555   -2.0692    0.6211 H   0  0  0  0  0  0  0  0  0  0  0  0
    2.2069   -2.0523    2.5728 C   0  0  0  0  0  0  0  0  0  0  0  0
    1.6036   -2.2888    3.4511 H   0  0  0  0  0  0  0  0  0  0  0  0
    2.7433   -2.9475    2.2548 H   0  0  0  0  0  0  0  0  0  0  0  0
    2.9270   -1.2782    2.8454 H   0  0  0  0  0  0  0  0  0  0  0  0
  5  6  2  0  0  0  0
  5  7  1  0  0  0  0
  2  3  1  0  0  0  0
  2  4  1  0  0  0  0
  2  5  1  0  0  0  0
  1  2  1  0  0  0  0
 21 22  2  0  0  0  0
 21 23  1  0  0  0  0
 19 20  1  0  0  0  0
 17 18  2  0  0  0  0
 17 19  1  0  0  0  0
 14 15  1  0  0  0  0
 14 16  1  0  0  0  0
 14 17  1  0  0  0  0
 11 12  1  0  0  0  0
 11 13  1  0  0  0  0
 11 14  1  0  0  0  0
  9 10  1  0  0  0  0
  9 11  1  0  0  0  0
  9 21  1  0  0  0  0
  7  8  1  0  0  0  0
  7  9  1  0  0  0  0
 25 26  1  0  0  0  0
 25 27  1  0  0  0  0
 25 28  1  0  0  0  0
 23 24  1  0  0  0  0
 23 25  1  0  0  0  0
M  END
$$$$
default_name
  -OEChem-01062215323D

 28 27  0     1  0  0  0  0  0999 V2000
   -3.2133   -3.5565    1.2809 H   0  0  0  0  0  0  0  0  0  0  0  0
   -3.1873   -2.5755    0.8089 C   0  0  0  0  0  0  0  0  0  0  0  0
   -3.8793   -1.9065    1.3169 H   0  0  0  0  0  0  0  0  0  0  0  0
   -3.4623   -2.6685   -0.2401 H   0  0  0  0  0  0  0  0  0  0  0  0
   -1.7863   -2.0195    0.9119 C   0  0  0  0  0  0  0  0  0  0  0  0
   -0.9073   -2.6615    1.4699 O   0  0  0  0  0  0  0  0  0  0  0  0
   -1.5803   -0.8195    0.3749 N   0  0  0  0  0  0  0  0  0  0  0  0
   -2.3603   -0.3345   -0.0451 H   0  0  0  0  0  0  0  0  0  0  0  0
   -0.2933   -0.1205    0.3719 C   0  0  1  0  0  0  0  0  0  0  0  0
    0.2658   -0.4221   -0.5150 H   0  0  0  0  0  0  0  0  0  0  0  0
   -0.5472    1.3988    0.2931 C   0  0  0  0  0  0  0  0  0  0  0  0
   -1.2236    1.6721    1.1047 H   0  0  0  0  0  0  0  0  0  0  0  0
    0.3943    1.9292    0.4429 H   0  0  0  0  0  0  0  0  0  0  0  0
   -1.1610    1.8599   -1.0402 C   0  0  0  0  0  0  0  0  0  0  0  0
   -0.4897    1.6135   -1.8629 H   0  0  0  0  0  0  0  0  0  0  0  0
   -2.1121    1.3507   -1.1913 H   0  0  0  0  0  0  0  0  0  0  0  0
   -1.4188    3.3630   -1.0689 C   0  0  0  0  0  0  0  0  0  0  0  0
   -1.2897    4.1140   -0.1154 O   0  0  0  0  0  0  0  0  0  0  0  0
   -1.8295    3.8584   -2.2511 O   0  0  0  0  0  0  0  0  0  0  0  0
   -1.9572    4.7965   -2.0996 H   0  0  0  0  0  0  0  0  0  0  0  0
    0.5295   -0.5124    1.6096 C   0  0  0  0  0  0  0  0  0  0  0  0
    0.2410   -0.0500    2.7118 O   0  0  0  0  0  0  0  0  0  0  0  0
    1.5559   -1.3514    1.4250 N   0  0  0  0  0  0  0  0  0  0  0  0
    1.7179   -1.7074    0.4948 H   0  0  0  0  0  0  0  0  0  0  0  0
    2.4449   -1.8016    2.4941 C   0  0  0  0  0  0  0  0  0  0  0  0
    1.8615   -2.2814    3.2821 H   0  0  0  0  0  0  0  0  0  0  0  0
    3.1752   -2.5127    2.1054 H   0  0  0  0  0  0  0  0  0  0  0  0
    2.9685   -0.9451    2.9233 H   0  0  0  0  0  0  0  0  0  0  0  0
  5  6  2  0  0  0  0
  5  7  1  0  0  0  0
  2  3  1  0  0  0  0
  2  4  1  0  0  0  0
  2  5  1  0  0  0  0
  1  2  1  0  0  0  0
 21 22  2  0  0  0  0
 21 23  1  0  0  0  0
 19 20  1  0  0  0  0
 17 18  2  0  0  0  0
 17 19  1  0  0  0  0
 14 15  1  0  0  0  0
 14 16  1  0  0  0  0
 14 17  1  0  0  0  0
 11 12  1  0  0  0  0
 11 13  1  0  0  0  0
 11 14  1  0  0  0  0
  9 10  1  0  0  0  0
  9 11  1  0  0  0  0
  9 21  1  0  0  0  0
  7  8  1  0  0  0  0
  7  9  1  0  0  0  0
 25 26  1  0  0  0  0
 25 27  1  0  0  0  0
 25 28  1  0  0  0  0
 23 24  1  0  0  0  0
 23 25  1  0  0  0  0
M  END
$$$$
default_name
  -OEChem-01062215323D

 28 27  0     1  0  0  0  0  0999 V2000
   -3.2133   -3.5565    1.2809 H   0  0  0  0  0  0  0  0  0  0  0  0
   -3.1873   -2.5755    0.8089 C   0  0  0  0  0  0  0  0  0  0  0  0
   -3.8793   -1.9065    1.3169 H   0  0  0  0  0  0  0  0  0  0  0  0
   -3.4623   -2.6685   -0.2401 H   0  0  0  0  0  0  0  0  0  0  0  0
   -1.7863   -2.0195    0.9119 C   0  0  0  0  0  0  0  0  0  0  0  0
   -0.9073   -2.6615    1.4699 O   0  0  0  0  0  0  0  0  0  0  0  0
   -1.5803   -0.8195    0.3749 N   0  0  0  0  0  0  0  0  0  0  0  0
   -2.3603   -0.3345   -0.0451 H   0  0  0  0  0  0  0  0  0  0  0  0
   -0.2933   -0.1205    0.3719 C   0  0  1  0  0  0  0  0  0  0  0  0
    0.2658   -0.4221   -0.5150 H   0  0  0  0  0  0  0  0  0  0  0  0
   -0.5472    1.3988    0.2931 C   0  0  0  0  0  0  0  0  0  0  0  0
   -1.2236    1.6721    1.1047 H   0  0  0  0  0  0  0  0  0  0  0  0
    0.3943    1.9292    0.4429 H   0  0  0  0  0  0  0  0  0  0  0  0
   -1.1610    1.8599   -1.0402 C   0  0  0  0  0  0  0  0  0  0  0  0
   -0.4897    1.6135   -1.8629 H   0  0  0  0  0  0  0  0  0  0  0  0
   -2.1121    1.3507   -1.1913 H   0  0  0  0  0  0  0  0  0  0  0  0
   -1.4188    3.3630   -1.0689 C   0  0  0  0  0  0  0  0  0  0  0  0
   -1.2897    4.1140   -0.1154 O   0  0  0  0  0  0  0  0  0  0  0  0
   -1.8295    3.8584   -2.2511 O   0  0  0  0  0  0  0  0  0  0  0  0
   -1.9572    4.7965   -2.0996 H   0  0  0  0  0  0  0  0  0  0  0  0
    0.5295   -0.5124    1.6096 C   0  0  0  0  0  0  0  0  0  0  0  0
    0.0929   -0.2839    2.7361 O   0  0  0  0  0  0  0  0  0  0  0  0
    1.7192   -1.0886    1.3996 N   0  0  0  0  0  0  0  0  0  0  0  0
    2.0008   -1.2649    0.4468 H   0  0  0  0  0  0  0  0  0  0  0  0
    2.6276   -1.4990    2.4684 C   0  0  0  0  0  0  0  0  0  0  0  0
    2.1202   -2.1970    3.1368 H   0  0  0  0  0  0  0  0  0  0  0  0
    3.5117   -1.9820    2.0497 H   0  0  0  0  0  0  0  0  0  0  0  0
    2.9340   -0.6255    3.0474 H   0  0  0  0  0  0  0  0  0  0  0  0
  5  6  2  0  0  0  0
  5  7  1  0  0  0  0
  2  3  1  0  0  0  0
  2  4  1  0  0  0  0
  2  5  1  0  0  0  0
  1  2  1  0  0  0  0
 21 22  2  0  0  0  0
 21 23  1  0  0  0  0
 19 20  1  0  0  0  0
 17 18  2  0  0  0  0
 17 19  1  0  0  0  0
 14 15  1  0  0  0  0
 14 16  1  0  0  0  0
 14 17  1  0  0  0  0
 11 12  1  0  0  0  0
 11 13  1  0  0  0  0
 11 14  1  0  0  0  0
  9 10  1  0  0  0  0
  9 11  1  0  0  0  0
  9 21  1  0  0  0  0
  7  8  1  0  0  0  0
  7  9  1  0  0  0  0
 25 26  1  0  0  0  0
 25 27  1  0  0  0  0
 25 28  1  0  0  0  0
 23 24  1  0  0  0  0
 23 25  1  0  0  0  0
M  END
$$$$
default_name
  -OEChem-01062215323D

 28 27  0     1  0  0  0  0  0999 V2000
   -3.2133   -3.5565    1.2809 H   0  0  0  0  0  0  0  0  0  0  0  0
   -3.1873   -2.5755    0.8089 C   0  0  0  0  0  0  0  0  0  0  0  0
   -3.8793   -1.9065    1.3169 H   0  0  0  0  0  0  0  0  0  0  0  0
   -3.4623   -2.6685   -0.2401 H   0  0  0  0  0  0  0  0  0  0  0  0
   -1.7863   -2.0195    0.9119 C   0  0  0  0  0  0  0  0  0  0  0  0
   -0.9073   -2.6615    1.4699 O   0  0  0  0  0  0  0  0  0  0  0  0
   -1.5803   -0.8195    0.3749 N   0  0  0  0  0  0  0  0  0  0  0  0
   -2.3603   -0.3345   -0.0451 H   0  0  0  0  0  0  0  0  0  0  0  0
   -0.2933   -0.1205    0.3719 C   0  0  1  0  0  0  0  0  0  0  0  0
    0.2658   -0.4221   -0.5150 H   0  0  0  0  0  0  0  0  0  0  0  0
   -0.5472    1.3988    0.2931 C   0  0  0  0  0  0  0  0  0  0  0  0
   -1.2236    1.6721    1.1047 H   0  0  0  0  0  0  0  0  0  0  0  0
    0.3943    1.9292    0.4429 H   0  0  0  0  0  0  0  0  0  0  0  0
   -1.1610    1.8599   -1.0402 C   0  0  0  0  0  0  0  0  0  0  0  0
   -0.4897    1.6135   -1.8629 H   0  0  0  0  0  0  0  0  0  0  0  0
   -2.1121    1.3507   -1.1913 H   0  0  0  0  0  0  0  0  0  0  0  0
   -1.4188    3.3630   -1.0689 C   0  0  0  0  0  0  0  0  0  0  0  0
   -1.2897    4.1140   -0.1154 O   0  0  0  0  0  0  0  0  0  0  0  0
   -1.8295    3.8584   -2.2511 O   0  0  0  0  0  0  0  0  0  0  0  0
   -1.9572    4.7965   -2.0996 H   0  0  0  0  0  0  0  0  0  0  0  0
    0.5295   -0.5124    1.6096 C   0  0  0  0  0  0  0  0  0  0  0  0
   -0.0029   -0.5441    2.7175 O   0  0  0  0  0  0  0  0  0  0  0  0
    1.8238   -0.7972    1.4223 N   0  0  0  0  0  0  0  0  0  0  0  0
    2.1850   -0.7719    0.4805 H   0  0  0  0  0  0  0  0  0  0  0  0
    2.7428   -1.1650    2.4976 C   0  0  0  0  0  0  0  0  0  0  0  0
    2.3621   -2.0414    3.0252 H   0  0  0  0  0  0  0  0  0  0  0  0
    3.7297   -1.3915    2.0918 H   0  0  0  0  0  0  0  0  0  0  0  0
    2.8259   -0.3412    3.2093 H   0  0  0  0  0  0  0  0  0  0  0  0
  5  6  2  0  0  0  0
  5  7  1  0  0  0  0
  2  3  1  0  0  0  0
  2  4  1  0  0  0  0
  2  5  1  0  0  0  0
  1  2  1  0  0  0  0
 21 22  2  0  0  0  0
 21 23  1  0  0  0  0
 19 20  1  0  0  0  0
 17 18  2  0  0  0  0
 17 19  1  0  0  0  0
 14 15  1  0  0  0  0
 14 16  1  0  0  0  0
 14 17  1  0  0  0  0
 11 12  1  0  0  0  0
 11 13  1  0  0  0  0
 11 14  1  0  0  0  0
  9 10  1  0  0  0  0
  9 11  1  0  0  0  0
  9 21  1  0  0  0  0
  7  8  1  0  0  0  0
  7  9  1  0  0  0  0
 25 26  1  0  0  0  0
 25 27  1  0  0  0  0
 25 28  1  0  0  0  0
 23 24  1  0  0  0  0
 23 25  1  0  0  0  0
M  END
$$$$
default_name
  -OEChem-01062215323D

 28 27  0     1  0  0  0  0  0999 V2000
   -3.2133   -3.5565    1.2809 H   0  0  0  0  0  0  0  0  0  0  0  0
   -3.1873   -2.5755    0.8089 C   0  0  0  0  0  0  0  0  0  0  0  0
   -3.8793   -1.9065    1.3169 H   0  0  0  0  0  0  0  0  0  0  0  0
   -3.4623   -2.6685   -0.2401 H   0  0  0  0  0  0  0  0  0  0  0  0
   -1.7863   -2.0195    0.9119 C   0  0  0  0  0  0  0  0  0  0  0  0
   -0.9073   -2.6615    1.4699 O   0  0  0  0  0  0  0  0  0  0  0  0
   -1.5803   -0.8195    0.3749 N   0  0  0  0  0  0  0  0  0  0  0  0
   -2.3603   -0.3345   -0.0451 H   0  0  0  0  0  0  0  0  0  0  0  0
   -0.2933   -0.1205    0.3719 C   0  0  1  0  0  0  0  0  0  0  0  0
    0.2658   -0.4221   -0.5150 H   0  0  0  0  0  0  0  0  0  0  0  0
   -0.5472    1.3988    0.2931 C   0  0  0  0  0  0  0  0  0  0  0  0
   -1.2236    1.6721    1.1047 H   0  0  0  0  0  0  0  0  0  0  0  0
    0.3943    1.9292    0.4429 H   0  0  0  0  0  0  0  0  0  0  0  0
   -1.1610    1.8599   -1.0402 C   0  0  0  0  0  0  0  0  0  0  0  0
   -0.4897    1.6135   -1.8629 H   0  0  0  0  0  0  0  0  0  0  0  0
   -2.1121    1.3507   -1.1913 H   0  0  0  0  0  0  0  0  0  0  0  0
   -1.4188    3.3630   -1.0689 C   0  0  0  0  0  0  0  0  0  0  0  0
   -1.2897    4.1140   -0.1154 O   0  0  0  0  0  0  0  0  0  0  0  0
   -1.8295    3.8584   -2.2511 O   0  0  0  0  0  0  0  0  0  0  0  0
   -1.9572    4.7965   -2.0996 H   0  0  0  0  0  0  0  0  0  0  0  0
    0.5295   -0.5124    1.6096 C   0  0  0  0  0  0  0  0  0  0  0  0
   -0.0400   -0.8128    2.6571 O   0  0  0  0  0  0  0  0  0  0  0  0
    1.8627   -0.4972    1.4915 N   0  0  0  0  0  0  0  0  0  0  0  0
    2.2580   -0.2619    0.5934 H   0  0  0  0  0  0  0  0  0  0  0  0
    2.7825   -0.8224    2.5797 C   0  0  0  0  0  0  0  0  0  0  0  0
    2.5707   -1.8253    2.9550 H   0  0  0  0  0  0  0  0  0  0  0  0
    3.8145   -0.7816    2.2285 H   0  0  0  0  0  0  0  0  0  0  0  0
    2.6515   -0.1115    3.3979 H   0  0  0  0  0  0  0  0  0  0  0  0
  5  6  2  0  0  0  0
  5  7  1  0  0  0  0
  2  3  1  0  0  0  0
  2  4  1  0  0  0  0
  2  5  1  0  0  0  0
  1  2  1  0  0  0  0
 21 22  2  0  0  0  0
 21 23  1  0  0  0  0
 19 20  1  0  0  0  0
 17 18  2  0  0  0  0
 17 19  1  0  0  0  0
 14 15  1  0  0  0  0
 14 16  1  0  0  0  0
 14 17  1  0  0  0  0
 11 12  1  0  0  0  0
 11 13  1  0  0  0  0
 11 14  1  0  0  0  0
  9 10  1  0  0  0  0
  9 11  1  0  0  0  0
  9 21  1  0  0  0  0
  7  8  1  0  0  0  0
  7  9  1  0  0  0  0
 25 26  1  0  0  0  0
 25 27  1  0  0  0  0
 25 28  1  0  0  0  0
 23 24  1  0  0  0  0
 23 25  1  0  0  0  0
M  END
$$$$
default_name
  -OEChem-01062215323D

 28 27  0     1  0  0  0  0  0999 V2000
   -3.2133   -3.5565    1.2809 H   0  0  0  0  0  0  0  0  0  0  0  0
   -3.1873   -2.5755    0.8089 C   0  0  0  0  0  0  0  0  0  0  0  0
   -3.8793   -1.9065    1.3169 H   0  0  0  0  0  0  0  0  0  0  0  0
   -3.4623   -2.6685   -0.2401 H   0  0  0  0  0  0  0  0  0  0  0  0
   -1.7863   -2.0195    0.9119 C   0  0  0  0  0  0  0  0  0  0  0  0
   -0.9073   -2.6615    1.4699 O   0  0  0  0  0  0  0  0  0  0  0  0
   -1.5803   -0.8195    0.3749 N   0  0  0  0  0  0  0  0  0  0  0  0
   -2.3603   -0.3345   -0.0451 H   0  0  0  0  0  0  0  0  0  0  0  0
   -0.2933   -0.1205    0.3719 C   0  0  1  0  0  0  0  0  0  0  0  0
    0.2658   -0.4221   -0.5150 H   0  0  0  0  0  0  0  0  0  0  0  0
   -0.5472    1.3988    0.2931 C   0  0  0  0  0  0  0  0  0  0  0  0
   -1.2236    1.6721    1.1047 H   0  0  0  0  0  0  0  0  0  0  0  0
    0.3943    1.9292    0.4429 H   0  0  0  0  0  0  0  0  0  0  0  0
   -1.1610    1.8599   -1.0402 C   0  0  0  0  0  0  0  0  0  0  0  0
   -0.4897    1.6135   -1.8629 H   0  0  0  0  0  0  0  0  0  0  0  0
   -2.1121    1.3507   -1.1913 H   0  0  0  0  0  0  0  0  0  0  0  0
   -1.4188    3.3630   -1.0689 C   0  0  0  0  0  0  0  0  0  0  0  0
   -1.2897    4.1140   -0.1154 O   0  0  0  0  0  0  0  0  0  0  0  0
   -1.8295    3.8584   -2.2511 O   0  0  0  0  0  0  0  0  0  0  0  0
   -1.9572    4.7965   -2.0996 H   0  0  0  0  0  0  0  0  0  0  0  0
    0.5295   -0.5124    1.6096 C   0  0  0  0  0  0  0  0  0  0  0  0
   -0.0159   -1.0717    2.5591 O   0  0  0  0  0  0  0  0  0  0  0  0
    1.8331   -0.2088    1.6025 N   0  0  0  0  0  0  0  0  0  0  0  0
    2.2148    0.2302    0.7780 H   0  0  0  0  0  0  0  0  0  0  0  0
    2.7440   -0.4947    2.7090 C   0  0  0  0  0  0  0  0  0  0  0  0
    2.7318   -1.5633    2.9308 H   0  0  0  0  0  0  0  0  0  0  0  0
    3.7603   -0.1937    2.4507 H   0  0  0  0  0  0  0  0  0  0  0  0
    2.4228    0.0478    3.6004 H   0  0  0  0  0  0  0  0  0  0  0  0
  5  6  2  0  0  0  0
  5  7  1  0  0  0  0
  2  3  1  0  0  0  0
  2  4  1  0  0  0  0
  2  5  1  0  0  0  0
  1  2  1  0  0  0  0
 21 22  2  0  0  0  0
 21 23  1  0  0  0  0
 19 20  1  0  0  0  0
 17 18  2  0  0  0  0
 17 19  1  0  0  0  0
 14 15  1  0  0  0  0
 14 16  1  0  0  0  0
 14 17  1  0  0  0  0
 11 12  1  0  0  0  0
 11 13  1  0  0  0  0
 11 14  1  0  0  0  0
  9 10  1  0  0  0  0
  9 11  1  0  0  0  0
  9 21  1  0  0  0  0
  7  8  1  0  0  0  0
  7  9  1  0  0  0  0
 25 26  1  0  0  0  0
 25 27  1  0  0  0  0
 25 28  1  0  0  0  0
 23 24  1  0  0  0  0
 23 25  1  0  0  0  0
M  END
$$$$
default_name
  -OEChem-01062215323D

 28 27  0     1  0  0  0  0  0999 V2000
   -3.2133   -3.5565    1.2809 H   0  0  0  0  0  0  0  0  0  0  0  0
   -3.1873   -2.5755    0.8089 C   0  0  0  0  0  0  0  0  0  0  0  0
   -3.8793   -1.9065    1.3169 H   0  0  0  0  0  0  0  0  0  0  0  0
   -3.4623   -2.6685   -0.2401 H   0  0  0  0  0  0  0  0  0  0  0  0
   -1.7863   -2.0195    0.9119 C   0  0  0  0  0  0  0  0  0  0  0  0
   -0.9073   -2.6615    1.4699 O   0  0  0  0  0  0  0  0  0  0  0  0
   -1.5803   -0.8195    0.3749 N   0  0  0  0  0  0  0  0  0  0  0  0
   -2.3603   -0.3345   -0.0451 H   0  0  0  0  0  0  0  0  0  0  0  0
   -0.2933   -0.1205    0.3719 C   0  0  1  0  0  0  0  0  0  0  0  0
    0.1474   -0.2047   -0.6224 H   0  0  0  0  0  0  0  0  0  0  0  0
   -0.5324    1.3733    0.6726 C   0  0  0  0  0  0  0  0  0  0  0  0
   -1.0994    1.4455    1.6023 H   0  0  0  0  0  0  0  0  0  0  0  0
    0.4281    1.8686    0.8216 H   0  0  0  0  0  0  0  0  0  0  0  0
   -1.2993    2.1171   -0.4345 C   0  0  0  0  0  0  0  0  0  0  0  0
   -0.7384    2.0736   -1.3682 H   0  0  0  0  0  0  0  0  0  0  0  0
   -2.2692    1.6425   -0.5787 H   0  0  0  0  0  0  0  0  0  0  0  0
   -1.5364    3.5836   -0.0885 C   0  0  0  0  0  0  0  0  0  0  0  0
   -1.2794    4.0997    0.9873 O   0  0  0  0  0  0  0  0  0  0  0  0
   -2.0825    4.3292   -1.0670 O   0  0  0  0  0  0  0  0  0  0  0  0
   -2.1765    5.2064   -0.6916 H   0  0  0  0  0  0  0  0  0  0  0  0
    0.6701   -0.7723    1.3767 C   0  0  0  0  0  0  0  0  0  0  0  0
    0.3016   -1.7353    2.0464 O   0  0  0  0  0  0  0  0  0  0  0  0
    1.8937   -0.2412    1.4882 N   0  0  0  0  0  0  0  0  0  0  0  0
    2.1320    0.5347    0.8888 H   0  0  0  0  0  0  0  0  0  0  0  0
    2.9153   -0.7313    2.4112 C   0  0  0  0  0  0  0  0  0  0  0  0
    3.1119   -1.7874    2.2177 H   0  0  0  0  0  0  0  0  0  0  0  0
    3.8402   -0.1661    2.2878 H   0  0  0  0  0  0  0  0  0  0  0  0
    2.5636   -0.6272    3.4395 H   0  0  0  0  0  0  0  0  0  0  0  0
  5  6  2  0  0  0  0
  5  7  1  0  0  0  0
  2  3  1  0  0  0  0
  2  4  1  0  0  0  0
  2  5  1  0  0  0  0
  1  2  1  0  0  0  0
 21 22  2  0  0  0  0
 21 23  1  0  0  0  0
 19 20  1  0  0  0  0
 17 18  2  0  0  0  0
 17 19  1  0  0  0  0
 14 15  1  0  0  0  0
 14 16  1  0  0  0  0
 14 17  1  0  0  0  0
 11 12  1  0  0  0  0
 11 13  1  0  0  0  0
 11 14  1  0  0  0  0
  9 10  1  0  0  0  0
  9 11  1  0  0  0  0
  9 21  1  0  0  0  0
  7  8  1  0  0  0  0
  7  9  1  0  0  0  0
 25 26  1  0  0  0  0
 25 27  1  0  0  0  0
 25 28  1  0  0  0  0
 23 24  1  0  0  0  0
 23 25  1  0  0  0  0
M  END
$$$$
default_name
  -OEChem-01062215323D

 28 27  0     1  0  0  0  0  0999 V2000
   -3.2133   -3.5565    1.2809 H   0  0  0  0  0  0  0  0  0  0  0  0
   -3.1873   -2.5755    0.8089 C   0  0  0  0  0  0  0  0  0  0  0  0
   -3.8793   -1.9065    1.3169 H   0  0  0  0  0  0  0  0  0  0  0  0
   -3.4623   -2.6685   -0.2401 H   0  0  0  0  0  0  0  0  0  0  0  0
   -1.7863   -2.0195    0.9119 C   0  0  0  0  0  0  0  0  0  0  0  0
   -0.9073   -2.6615    1.4699 O   0  0  0  0  0  0  0  0  0  0  0  0
   -1.5803   -0.8195    0.3749 N   0  0  0  0  0  0  0  0  0  0  0  0
   -2.3603   -0.3345   -0.0451 H   0  0  0  0  0  0  0  0  0  0  0  0
   -0.2933   -0.1205    0.3719 C   0  0  1  0  0  0  0  0  0  0  0  0
    0.1474   -0.2047   -0.6224 H   0  0  0  0  0  0  0  0  0  0  0  0
   -0.5324    1.3733    0.6726 C   0  0  0  0  0  0  0  0  0  0  0  0
   -1.0994    1.4455    1.6023 H   0  0  0  0  0  0  0  0  0  0  0  0
    0.4281    1.8686    0.8216 H   0  0  0  0  0  0  0  0  0  0  0  0
   -1.2993    2.1171   -0.4345 C   0  0  0  0  0  0  0  0  0  0  0  0
   -0.7384    2.0736   -1.3682 H   0  0  0  0  0  0  0  0  0  0  0  0
   -2.2692    1.6425   -0.5787 H   0  0  0  0  0  0  0  0  0  0  0  0
   -1.5364    3.5836   -0.0885 C   0  0  0  0  0  0  0  0  0  0  0  0
   -1.2794    4.0997    0.9873 O   0  0  0  0  0  0  0  0  0  0  0  0
   -2.0825    4.3292   -1.0670 O   0  0  0  0  0  0  0  0  0  0  0  0
   -2.1765    5.2064   -0.6916 H   0  0  0  0  0  0  0  0  0  0  0  0
    0.6701   -0.7723    1.3767 C   0  0  0  0  0  0  0  0  0  0  0  0
    0.4167   -1.8824    1.8406 O   0  0  0  0  0  0  0  0  0  0  0  0
    1.7630   -0.0793    1.7186 N   0  0  0  0  0  0  0  0  0  0  0  0
    1.9155    0.8160    1.2789 H   0  0  0  0  0  0  0  0  0  0  0  0
    2.7625   -0.5506    2.6751 C   0  0  0  0  0  0  0  0  0  0  0  0
    3.1618   -1.5124    2.3483 H   0  0  0  0  0  0  0  0  0  0  0  0
    3.5792    0.1682    2.7548 H   0  0  0  0  0  0  0  0  0  0  0  0
    2.3009   -0.6822    3.6557 H   0  0  0  0  0  0  0  0  0  0  0  0
  5  6  2  0  0  0  0
  5  7  1  0  0  0  0
  2  3  1  0  0  0  0
  2  4  1  0  0  0  0
  2  5  1  0  0  0  0
  1  2  1  0  0  0  0
 21 22  2  0  0  0  0
 21 23  1  0  0  0  0
 19 20  1  0  0  0  0
 17 18  2  0  0  0  0
 17 19  1  0  0  0  0
 14 15  1  0  0  0  0
 14 16  1  0  0  0  0
 14 17  1  0  0  0  0
 11 12  1  0  0  0  0
 11 13  1  0  0  0  0
 11 14  1  0  0  0  0
  9 10  1  0  0  0  0
  9 11  1  0  0  0  0
  9 21  1  0  0  0  0
  7  8  1  0  0  0  0
  7  9  1  0  0  0  0
 25 26  1  0  0  0  0
 25 27  1  0  0  0  0
 25 28  1  0  0  0  0
 23 24  1  0  0  0  0
 23 25  1  0  0  0  0
M  END
$$$$
default_name
  -OEChem-01062215323D

 28 27  0     1  0  0  0  0  0999 V2000
   -3.2133   -3.5565    1.2809 H   0  0  0  0  0  0  0  0  0  0  0  0
   -3.1873   -2.5755    0.8089 C   0  0  0  0  0  0  0  0  0  0  0  0
   -3.8793   -1.9065    1.3169 H   0  0  0  0  0  0  0  0  0  0  0  0
   -3.4623   -2.6685   -0.2401 H   0  0  0  0  0  0  0  0  0  0  0  0
   -1.7863   -2.0195    0.9119 C   0  0  0  0  0  0  0  0  0  0  0  0
   -0.9073   -2.6615    1.4699 O   0  0  0  0  0  0  0  0  0  0  0  0
   -1.5803   -0.8195    0.3749 N   0  0  0  0  0  0  0  0  0  0  0  0
   -2.3603   -0.3345   -0.0451 H   0  0  0  0  0  0  0  0  0  0  0  0
   -0.2933   -0.1205    0.3719 C   0  0  1  0  0  0  0  0  0  0  0  0
    0.1474   -0.2047   -0.6224 H   0  0  0  0  0  0  0  0  0  0  0  0
   -0.5324    1.3733    0.6726 C   0  0  0  0  0  0  0  0  0  0  0  0
   -1.0994    1.4455    1.6023 H   0  0  0  0  0  0  0  0  0  0  0  0
    0.4281    1.8686    0.8216 H   0  0  0  0  0  0  0  0  0  0  0  0
   -1.2993    2.1171   -0.4345 C   0  0  0  0  0  0  0  0  0  0  0  0
   -0.7384    2.0736   -1.3682 H   0  0  0  0  0  0  0  0  0  0  0  0
   -2.2692    1.6425   -0.5787 H   0  0  0  0  0  0  0  0  0  0  0  0
   -1.5364    3.5836   -0.0885 C   0  0  0  0  0  0  0  0  0  0  0  0
   -1.2794    4.0997    0.9873 O   0  0  0  0  0  0  0  0  0  0  0  0
   -2.0825    4.3292   -1.0670 O   0  0  0  0  0  0  0  0  0  0  0  0
   -2.1765    5.2064   -0.6916 H   0  0  0  0  0  0  0  0  0  0  0  0
    0.6701   -0.7723    1.3767 C   0  0  0  0  0  0  0  0  0  0  0  0
    0.5754   -1.9716    1.6306 O   0  0  0  0  0  0  0  0  0  0  0  0
    1.5841    0.0177    1.9530 N   0  0  0  0  0  0  0  0  0  0  0  0
    1.6160    0.9879    1.6775 H   0  0  0  0  0  0  0  0  0  0  0  0
    2.5553   -0.4446    2.9425 C   0  0  0  0  0  0  0  0  0  0  0  0
    3.1491   -1.2595    2.5245 H   0  0  0  0  0  0  0  0  0  0  0  0
    3.2194    0.3712    3.2315 H   0  0  0  0  0  0  0  0  0  0  0  0
    2.0328   -0.8148    3.8267 H   0  0  0  0  0  0  0  0  0  0  0  0
  5  6  2  0  0  0  0
  5  7  1  0  0  0  0
  2  3  1  0  0  0  0
  2  4  1  0  0  0  0
  2  5  1  0  0  0  0
  1  2  1  0  0  0  0
 21 22  2  0  0  0  0
 21 23  1  0  0  0  0
 19 20  1  0  0  0  0
 17 18  2  0  0  0  0
 17 19  1  0  0  0  0
 14 15  1  0  0  0  0
 14 16  1  0  0  0  0
 14 17  1  0  0  0  0
 11 12  1  0  0  0  0
 11 13  1  0  0  0  0
 11 14  1  0  0  0  0
  9 10  1  0  0  0  0
  9 11  1  0  0  0  0
  9 21  1  0  0  0  0
  7  8  1  0  0  0  0
  7  9  1  0  0  0  0
 25 26  1  0  0  0  0
 25 27  1  0  0  0  0
 25 28  1  0  0  0  0
 23 24  1  0  0  0  0
 23 25  1  0  0  0  0
M  END
$$$$
default_name
  -OEChem-01062215323D

 28 27  0     1  0  0  0  0  0999 V2000
   -3.2133   -3.5565    1.2809 H   0  0  0  0  0  0  0  0  0  0  0  0
   -3.1873   -2.5755    0.8089 C   0  0  0  0  0  0  0  0  0  0  0  0
   -3.8793   -1.9065    1.3169 H   0  0  0  0  0  0  0  0  0  0  0  0
   -3.4623   -2.6685   -0.2401 H   0  0  0  0  0  0  0  0  0  0  0  0
   -1.7863   -2.0195    0.9119 C   0  0  0  0  0  0  0  0  0  0  0  0
   -0.9073   -2.6615    1.4699 O   0  0  0  0  0  0  0  0  0  0  0  0
   -1.5803   -0.8195    0.3749 N   0  0  0  0  0  0  0  0  0  0  0  0
   -2.3603   -0.3345   -0.0451 H   0  0  0  0  0  0  0  0  0  0  0  0
   -0.2933   -0.1205    0.3719 C   0  0  1  0  0  0  0  0  0  0  0  0
    0.1474   -0.2047   -0.6224 H   0  0  0  0  0  0  0  0  0  0  0  0
   -0.5324    1.3733    0.6726 C   0  0  0  0  0  0  0  0  0  0  0  0
   -1.0994    1.4455    1.6023 H   0  0  0  0  0  0  0  0  0  0  0  0
    0.4281    1.8686    0.8216 H   0  0  0  0  0  0  0  0  0  0  0  0
   -1.2993    2.1171   -0.4345 C   0  0  0  0  0  0  0  0  0  0  0  0
   -0.7384    2.0736   -1.3682 H   0  0  0  0  0  0  0  0  0  0  0  0
   -2.2692    1.6425   -0.5787 H   0  0  0  0  0  0  0  0  0  0  0  0
   -1.5364    3.5836   -0.0885 C   0  0  0  0  0  0  0  0  0  0  0  0
   -1.2794    4.0997    0.9873 O   0  0  0  0  0  0  0  0  0  0  0  0
   -2.0825    4.3292   -1.0670 O   0  0  0  0  0  0  0  0  0  0  0  0
   -2.1765    5.2064   -0.6916 H   0  0  0  0  0  0  0  0  0  0  0  0
    0.6701   -0.7723    1.3767 C   0  0  0  0  0  0  0  0  0  0  0  0
    0.7668   -1.9968    1.4307 O   0  0  0  0  0  0  0  0  0  0  0  0
    1.3692    0.0430    2.1755 N   0  0  0  0  0  0  0  0  0  0  0  0
    1.2538    1.0385    2.0576 H   0  0  0  0  0  0  0  0  0  0  0  0
    2.3079   -0.4207    3.1952 C   0  0  0  0  0  0  0  0  0  0  0  0
    3.0747   -1.0460    2.7344 H   0  0  0  0  0  0  0  0  0  0  0  0
    2.7852    0.4290    3.6854 H   0  0  0  0  0  0  0  0  0  0  0  0
    1.7775   -1.0160    3.9410 H   0  0  0  0  0  0  0  0  0  0  0  0
  5  6  2  0  0  0  0
  5  7  1  0  0  0  0
  2  3  1  0  0  0  0
  2  4  1  0  0  0  0
  2  5  1  0  0  0  0
  1  2  1  0  0  0  0
 21 22  2  0  0  0  0
 21 23  1  0  0  0  0
 19 20  1  0  0  0  0
 17 18  2  0  0  0  0
 17 19  1  0  0  0  0
 14 15  1  0  0  0  0
 14 16  1  0  0  0  0
 14 17  1  0  0  0  0
 11 12  1  0  0  0  0
 11 13  1  0  0  0  0
 11 14  1  0  0  0  0
  9 10  1  0  0  0  0
  9 11  1  0  0  0  0
  9 21  1  0  0  0  0
  7  8  1  0  0  0  0
  7  9  1  0  0  0  0
 25 26  1  0  0  0  0
 25 27  1  0  0  0  0
 25 28  1  0  0  0  0
 23 24  1  0  0  0  0
 23 25  1  0  0  0  0
M  END
$$$$
default_name
  -OEChem-01062215323D

 28 27  0     1  0  0  0  0  0999 V2000
   -3.2133   -3.5565    1.2809 H   0  0  0  0  0  0  0  0  0  0  0  0
   -3.1873   -2.5755    0.8089 C   0  0  0  0  0  0  0  0  0  0  0  0
   -3.8793   -1.9065    1.3169 H   0  0  0  0  0  0  0  0  0  0  0  0
   -3.4623   -2.6685   -0.2401 H   0  0  0  0  0  0  0  0  0  0  0  0
   -1.7863   -2.0195    0.9119 C   0  0  0  0  0  0  0  0  0  0  0  0
   -0.9073   -2.6615    1.4699 O   0  0  0  0  0  0  0  0  0  0  0  0
   -1.5803   -0.8195    0.3749 N   0  0  0  0  0  0  0  0  0  0  0  0
   -2.3603   -0.3345   -0.0451 H   0  0  0  0  0  0  0  0  0  0  0  0
   -0.2933   -0.1205    0.3719 C   0  0  1  0  0  0  0  0  0  0  0  0
    0.1474   -0.2047   -0.6224 H   0  0  0  0  0  0  0  0  0  0  0  0
   -0.5324    1.3733    0.6726 C   0  0  0  0  0  0  0  0  0  0  0  0
   -1.0994    1.4455    1.6023 H   0  0  0  0  0  0  0  0  0  0  0  0
    0.4281    1.8686    0.8216 H   0  0  0  0  0  0  0  0  0  0  0  0
   -1.2993    2.1171   -0.4345 C   0  0  0  0  0  0  0  0  0  0  0  0
   -0.7384    2.0736   -1.3682 H   0  0  0  0  0  0  0  0  0  0  0  0
   -2.2692    1.6425   -0.5787 H   0  0  0  0  0  0  0  0  0  0  0  0
   -1.5364    3.5836   -0.0885 C   0  0  0  0  0  0  0  0  0  0  0  0
   -1.2794    4.0997    0.9873 O   0  0  0  0  0  0  0  0  0  0  0  0
   -2.0825    4.3292   -1.0670 O   0  0  0  0  0  0  0  0  0  0  0  0
   -2.1765    5.2064   -0.6916 H   0  0  0  0  0  0  0  0  0  0  0  0
    0.6701   -0.7723    1.3767 C   0  0  0  0  0  0  0  0  0  0  0  0
    0.9779   -1.9564    1.2545 O   0  0  0  0  0  0  0  0  0  0  0  0
    1.1329   -0.0050    2.3710 N   0  0  0  0  0  0  0  0  0  0  0  0
    0.8538    0.9645    2.3932 H   0  0  0  0  0  0  0  0  0  0  0  0
    2.0371   -0.4804    3.4161 C   0  0  0  0  0  0  0  0  0  0  0  0
    2.9437   -0.8864    2.9636 H   0  0  0  0  0  0  0  0  0  0  0  0
    2.3061    0.3378    4.0856 H   0  0  0  0  0  0  0  0  0  0  0  0
    1.5523   -1.2721    3.9908 H   0  0  0  0  0  0  0  0  0  0  0  0
  5  6  2  0  0  0  0
  5  7  1  0  0  0  0
  2  3  1  0  0  0  0
  2  4  1  0  0  0  0
  2  5  1  0  0  0  0
  1  2  1  0  0  0  0
 21 22  2  0  0  0  0
 21 23  1  0  0  0  0
 19 20  1  0  0  0  0
 17 18  2  0  0  0  0
 17 19  1  0  0  0  0
 14 15  1  0  0  0  0
 14 16  1  0  0  0  0
 14 17  1  0  0  0  0
 11 12  1  0  0  0  0
 11 13  1  0  0  0  0
 11 14  1  0  0  0  0
  9 10  1  0  0  0  0
  9 11  1  0  0  0  0
  9 21  1  0  0  0  0
  7  8  1  0  0  0  0
  7  9  1  0  0  0  0
 25 26  1  0  0  0  0
 25 27  1  0  0  0  0
 25 28  1  0  0  0  0
 23 24  1  0  0  0  0
 23 25  1  0  0  0  0
M  END
$$$$
default_name
  -OEChem-01062215323D

 28 27  0     1  0  0  0  0  0999 V2000
   -3.2133   -3.5565    1.2809 H   0  0  0  0  0  0  0  0  0  0  0  0
   -3.1873   -2.5755    0.8089 C   0  0  0  0  0  0  0  0  0  0  0  0
   -3.8793   -1.9065    1.3169 H   0  0  0  0  0  0  0  0  0  0  0  0
   -3.4623   -2.6685   -0.2401 H   0  0  0  0  0  0  0  0  0  0  0  0
   -1.7863   -2.0195    0.9119 C   0  0  0  0  0  0  0  0  0  0  0  0
   -0.9073   -2.6615    1.4699 O   0  0  0  0  0  0  0  0  0  0  0  0
   -1.5803   -0.8195    0.3749 N   0  0  0  0  0  0  0  0  0  0  0  0
   -2.3603   -0.3345   -0.0451 H   0  0  0  0  0  0  0  0  0  0  0  0
   -0.2933   -0.1205    0.3719 C   0  0  1  0  0  0  0  0  0  0  0  0
    0.1474   -0.2047   -0.6224 H   0  0  0  0  0  0  0  0  0  0  0  0
   -0.5324    1.3733    0.6726 C   0  0  0  0  0  0  0  0  0  0  0  0
   -1.0994    1.4455    1.6023 H   0  0  0  0  0  0  0  0  0  0  0  0
    0.4281    1.8686    0.8216 H   0  0  0  0  0  0  0  0  0  0  0  0
   -1.2993    2.1171   -0.4345 C   0  0  0  0  0  0  0  0  0  0  0  0
   -0.7384    2.0736   -1.3682 H   0  0  0  0  0  0  0  0  0  0  0  0
   -2.2692    1.6425   -0.5787 H   0  0  0  0  0  0  0  0  0  0  0  0
   -1.5364    3.5836   -0.0885 C   0  0  0  0  0  0  0  0  0  0  0  0
   -1.2794    4.0997    0.9873 O   0  0  0  0  0  0  0  0  0  0  0  0
   -2.0825    4.3292   -1.0670 O   0  0  0  0  0  0  0  0  0  0  0  0
   -2.1765    5.2064   -0.6916 H   0  0  0  0  0  0  0  0  0  0  0  0
    0.6701   -0.7723    1.3767 C   0  0  0  0  0  0  0  0  0  0  0  0
    1.1943   -1.8530    1.1141 O   0  0  0  0  0  0  0  0  0  0  0  0
    0.8913   -0.1230    2.5260 N   0  0  0  0  0  0  0  0  0  0  0  0
    0.4430    0.7708    2.6614 H   0  0  0  0  0  0  0  0  0  0  0  0
    1.7615   -0.6198    3.5900 C   0  0  0  0  0  0  0  0  0  0  0  0
    2.7650   -0.7916    3.1965 H   0  0  0  0  0  0  0  0  0  0  0  0
    1.8149    0.1037    4.4047 H   0  0  0  0  0  0  0  0  0  0  0  0
    1.3728   -1.5656    3.9725 H   0  0  0  0  0  0  0  0  0  0  0  0
  5  6  2  0  0  0  0
  5  7  1  0  0  0  0
  2  3  1  0  0  0  0
  2  4  1  0  0  0  0
  2  5  1  0  0  0  0
  1  2  1  0  0  0  0
 21 22  2  0  0  0  0
 21 23  1  0  0  0  0
 19 20  1  0  0  0  0
 17 18  2  0  0  0  0
 17 19  1  0  0  0  0
 14 15  1  0  0  0  0
 14 16  1  0  0  0  0
 14 17  1  0  0  0  0
 11 12  1  0  0  0  0
 11 13  1  0  0  0  0
 11 14  1  0  0  0  0
  9 10  1  0  0  0  0
  9 11  1  0  0  0  0
  9 21  1  0  0  0  0
  7  8  1  0  0  0  0
  7  9  1  0  0  0  0
 25 26  1  0  0  0  0
 25 27  1  0  0  0  0
 25 28  1  0  0  0  0
 23 24  1  0  0  0  0
 23 25  1  0  0  0  0
M  END
$$$$
default_name
  -OEChem-01062215323D

 28 27  0     1  0  0  0  0  0999 V2000
   -3.2133   -3.5565    1.2809 H   0  0  0  0  0  0  0  0  0  0  0  0
   -3.1873   -2.5755    0.8089 C   0  0  0  0  0  0  0  0  0  0  0  0
   -3.8793   -1.9065    1.3169 H   0  0  0  0  0  0  0  0  0  0  0  0
   -3.4623   -2.6685   -0.2401 H   0  0  0  0  0  0  0  0  0  0  0  0
   -1.7863   -2.0195    0.9119 C   0  0  0  0  0  0  0  0  0  0  0  0
   -0.9073   -2.6615    1.4699 O   0  0  0  0  0  0  0  0  0  0  0  0
   -1.5803   -0.8195    0.3749 N   0  0  0  0  0  0  0  0  0  0  0  0
   -2.3603   -0.3345   -0.0451 H   0  0  0  0  0  0  0  0  0  0  0  0
   -0.2933   -0.1205    0.3719 C   0  0  1  0  0  0  0  0  0  0  0  0
    0.1474   -0.2047   -0.6224 H   0  0  0  0  0  0  0  0  0  0  0  0
   -0.5324    1.3733    0.6726 C   0  0  0  0  0  0  0  0  0  0  0  0
   -1.0994    1.4455    1.6023 H   0  0  0  0  0  0  0  0  0  0  0  0
    0.4281    1.8686    0.8216 H   0  0  0  0  0  0  0  0  0  0  0  0
   -1.2993    2.1171   -0.4345 C   0  0  0  0  0  0  0  0  0  0  0  0
   -0.7384    2.0736   -1.3682 H   0  0  0  0  0  0  0  0  0  0  0  0
   -2.2692    1.6425   -0.5787 H   0  0  0  0  0  0  0  0  0  0  0  0
   -1.5364    3.5836   -0.0885 C   0  0  0  0  0  0  0  0  0  0  0  0
   -1.2794    4.0997    0.9873 O   0  0  0  0  0  0  0  0  0  0  0  0
   -2.0825    4.3292   -1.0670 O   0  0  0  0  0  0  0  0  0  0  0  0
   -2.1765    5.2064   -0.6916 H   0  0  0  0  0  0  0  0  0  0  0  0
    0.6701   -0.7723    1.3767 C   0  0  0  0  0  0  0  0  0  0  0  0
    1.4012   -1.6938    1.0190 O   0  0  0  0  0  0  0  0  0  0  0  0
    0.6609   -0.3030    2.6302 N   0  0  0  0  0  0  0  0  0  0  0  0
    0.0496    0.4708    2.8440 H   0  0  0  0  0  0  0  0  0  0  0  0
    1.4997   -0.8292    3.7051 C   0  0  0  0  0  0  0  0  0  0  0  0
    2.5507   -0.7680    3.4172 H   0  0  0  0  0  0  0  0  0  0  0  0
    1.3450   -0.2573    4.6211 H   0  0  0  0  0  0  0  0  0  0  0  0
    1.2510   -1.8765    3.8876 H   0  0  0  0  0  0  0  0  0  0  0  0
  5  6  2  0  0  0  0
  5  7  1  0  0  0  0
  2  3  1  0  0  0  0
  2  4  1  0  0  0  0
  2  5  1  0  0  0  0
  1  2  1  0  0  0  0
 21 22  2  0  0  0  0
 21 23  1  0  0  0  0
 19 20  1  0  0  0  0
 17 18  2  0  0  0  0
 17 19  1  0  0  0  0
 14 15  1  0  0  0  0
 14 16  1  0  0  0  0
 14 17  1  0  0  0  0
 11 12  1  0  0  0  0
 11 13  1  0  0  0  0
 11 14  1  0  0  0  0
  9 10  1  0  0  0  0
  9 11  1  0  0  0  0
  9 21  1  0  0  0  0
  7  8  1  0  0  0  0
  7  9  1  0  0  0  0
 25 26  1  0  0  0  0
 25 27  1  0  0  0  0
 25 28  1  0  0  0  0
 23 24  1  0  0  0  0
 23 25  1  0  0  0  0
M  END
$$$$
default_name
  -OEChem-01062215323D

 28 27  0     1  0  0  0  0  0999 V2000
   -3.2133   -3.5565    1.2809 H   0  0  0  0  0  0  0  0  0  0  0  0
   -3.1873   -2.5755    0.8089 C   0  0  0  0  0  0  0  0  0  0  0  0
   -3.8793   -1.9065    1.3169 H   0  0  0  0  0  0  0  0  0  0  0  0
   -3.4623   -2.6685   -0.2401 H   0  0  0  0  0  0  0  0  0  0  0  0
   -1.7863   -2.0195    0.9119 C   0  0  0  0  0  0  0  0  0  0  0  0
   -0.9073   -2.6615    1.4699 O   0  0  0  0  0  0  0  0  0  0  0  0
   -1.5803   -0.8195    0.3749 N   0  0  0  0  0  0  0  0  0  0  0  0
   -2.3603   -0.3345   -0.0451 H   0  0  0  0  0  0  0  0  0  0  0  0
   -0.2933   -0.1205    0.3719 C   0  0  1  0  0  0  0  0  0  0  0  0
    0.1474   -0.2047   -0.6224 H   0  0  0  0  0  0  0  0  0  0  0  0
   -0.5324    1.3733    0.6726 C   0  0  0  0  0  0  0  0  0  0  0  0
   -1.0994    1.4455    1.6023 H   0  0  0  0  0  0  0  0  0  0  0  0
    0.4281    1.8686    0.8216 H   0  0  0  0  0  0  0  0  0  0  0  0
   -1.2993    2.1171   -0.4345 C   0  0  0  0  0  0  0  0  0  0  0  0
   -0.7384    2.0736   -1.3682 H   0  0  0  0  0  0  0  0  0  0  0  0
   -2.2692    1.6425   -0.5787 H   0  0  0  0  0  0  0  0  0  0  0  0
   -1.5364    3.5836   -0.0885 C   0  0  0  0  0  0  0  0  0  0  0  0
   -1.2794    4.0997    0.9873 O   0  0  0  0  0  0  0  0  0  0  0  0
   -2.0825    4.3292   -1.0670 O   0  0  0  0  0  0  0  0  0  0  0  0
   -2.1765    5.2064   -0.6916 H   0  0  0  0  0  0  0  0  0  0  0  0
    0.6701   -0.7723    1.3767 C   0  0  0  0  0  0  0  0  0  0  0  0
    1.5846   -1.4896    0.9756 O   0  0  0  0  0  0  0  0  0  0  0  0
    0.4574   -0.5328    2.6763 N   0  0  0  0  0  0  0  0  0  0  0  0
   -0.2997    0.0848    2.9285 H   0  0  0  0  0  0  0  0  0  0  0  0
    1.2696   -1.0945    3.7536 C   0  0  0  0  0  0  0  0  0  0  0  0
    2.3156   -0.8172    3.6107 H   0  0  0  0  0  0  0  0  0  0  0  0
    0.9284   -0.7206    4.7200 H   0  0  0  0  0  0  0  0  0  0  0  0
    1.1952   -2.1837    3.7418 H   0  0  0  0  0  0  0  0  0  0  0  0
  5  6  2  0  0  0  0
  5  7  1  0  0  0  0
  2  3  1  0  0  0  0
  2  4  1  0  0  0  0
  2  5  1  0  0  0  0
  1  2  1  0  0  0  0
 21 22  2  0  0  0  0
 21 23  1  0  0  0  0
 19 20  1  0  0  0  0
 17 18  2  0  0  0  0
 17 19  1  0  0  0  0
 14 15  1  0  0  0  0
 14 16  1  0  0  0  0
 14 17  1  0  0  0  0
 11 12  1  0  0  0  0
 11 13  1  0  0  0  0
 11 14  1  0  0  0  0
  9 10  1  0  0  0  0
  9 11  1  0  0  0  0
  9 21  1  0  0  0  0
  7  8  1  0  0  0  0
  7  9  1  0  0  0  0
 25 26  1  0  0  0  0
 25 27  1  0  0  0  0
 25 28  1  0  0  0  0
 23 24  1  0  0  0  0
 23 25  1  0  0  0  0
M  END
$$$$
default_name
  -OEChem-01062215323D

 28 27  0     1  0  0  0  0  0999 V2000
   -3.2133   -3.5565    1.2809 H   0  0  0  0  0  0  0  0  0  0  0  0
   -3.1873   -2.5755    0.8089 C   0  0  0  0  0  0  0  0  0  0  0  0
   -3.8793   -1.9065    1.3169 H   0  0  0  0  0  0  0  0  0  0  0  0
   -3.4623   -2.6685   -0.2401 H   0  0  0  0  0  0  0  0  0  0  0  0
   -1.7863   -2.0195    0.9119 C   0  0  0  0  0  0  0  0  0  0  0  0
   -0.9073   -2.6615    1.4699 O   0  0  0  0  0  0  0  0  0  0  0  0
   -1.5803   -0.8195    0.3749 N   0  0  0  0  0  0  0  0  0  0  0  0
   -2.3603   -0.3345   -0.0451 H   0  0  0  0  0  0  0  0  0  0  0  0
   -0.2933   -0.1205    0.3719 C   0  0  1  0  0  0  0  0  0  0  0  0
    0.1474   -0.2047   -0.6224 H   0  0  0  0  0  0  0  0  0  0  0  0
   -0.5324    1.3733    0.6726 C   0  0  0  0  0  0  0  0  0  0  0  0
   -1.0994    1.4455    1.6023 H   0  0  0  0  0  0  0  0  0  0  0  0
    0.4281    1.8686    0.8216 H   0  0  0  0  0  0  0  0  0  0  0  0
   -1.2993    2.1171   -0.4345 C   0  0  0  0  0  0  0  0  0  0  0  0
   -0.7384    2.0736   -1.3682 H   0  0  0  0  0  0  0  0  0  0  0  0
   -2.2692    1.6425   -0.5787 H   0  0  0  0  0  0  0  0  0  0  0  0
   -1.5364    3.5836   -0.0885 C   0  0  0  0  0  0  0  0  0  0  0  0
   -1.2794    4.0997    0.9873 O   0  0  0  0  0  0  0  0  0  0  0  0
   -2.0825    4.3292   -1.0670 O   0  0  0  0  0  0  0  0  0  0  0  0
   -2.1765    5.2064   -0.6916 H   0  0  0  0  0  0  0  0  0  0  0  0
    0.6701   -0.7723    1.3767 C   0  0  0  0  0  0  0  0  0  0  0  0
    1.7320   -1.2542    0.9870 O   0  0  0  0  0  0  0  0  0  0  0  0
    0.2946   -0.7966    2.6612 N   0  0  0  0  0  0  0  0  0  0  0  0
   -0.5811   -0.3608    2.9092 H   0  0  0  0  0  0  0  0  0  0  0  0
    1.0869   -1.3976    3.7322 C   0  0  0  0  0  0  0  0  0  0  0  0
    2.0755   -0.9360    3.7638 H   0  0  0  0  0  0  0  0  0  0  0  0
    0.5936   -1.2546    4.6946 H   0  0  0  0  0  0  0  0  0  0  0  0
    1.2094   -2.4662    3.5450 H   0  0  0  0  0  0  0  0  0  0  0  0
  5  6  2  0  0  0  0
  5  7  1  0  0  0  0
  2  3  1  0  0  0  0
  2  4  1  0  0  0  0
  2  5  1  0  0  0  0
  1  2  1  0  0  0  0
 21 22  2  0  0  0  0
 21 23  1  0  0  0  0
 19 20  1  0  0  0  0
 17 18  2  0  0  0  0
 17 19  1  0  0  0  0
 14 15  1  0  0  0  0
 14 16  1  0  0  0  0
 14 17  1  0  0  0  0
 11 12  1  0  0  0  0
 11 13  1  0  0  0  0
 11 14  1  0  0  0  0
  9 10  1  0  0  0  0
  9 11  1  0  0  0  0
  9 21  1  0  0  0  0
  7  8  1  0  0  0  0
  7  9  1  0  0  0  0
 25 26  1  0  0  0  0
 25 27  1  0  0  0  0
 25 28  1  0  0  0  0
 23 24  1  0  0  0  0
 23 25  1  0  0  0  0
M  END
$$$$
default_name
  -OEChem-01062215323D

 28 27  0     1  0  0  0  0  0999 V2000
   -3.2133   -3.5565    1.2809 H   0  0  0  0  0  0  0  0  0  0  0  0
   -3.1873   -2.5755    0.8089 C   0  0  0  0  0  0  0  0  0  0  0  0
   -3.8793   -1.9065    1.3169 H   0  0  0  0  0  0  0  0  0  0  0  0
   -3.4623   -2.6685   -0.2401 H   0  0  0  0  0  0  0  0  0  0  0  0
   -1.7863   -2.0195    0.9119 C   0  0  0  0  0  0  0  0  0  0  0  0
   -0.9073   -2.6615    1.4699 O   0  0  0  0  0  0  0  0  0  0  0  0
   -1.5803   -0.8195    0.3749 N   0  0  0  0  0  0  0  0  0  0  0  0
   -2.3603   -0.3345   -0.0451 H   0  0  0  0  0  0  0  0  0  0  0  0
   -0.2933   -0.1205    0.3719 C   0  0  1  0  0  0  0  0  0  0  0  0
    0.1474   -0.2047   -0.6224 H   0  0  0  0  0  0  0  0  0  0  0  0
   -0.5324    1.3733    0.6726 C   0  0  0  0  0  0  0  0  0  0  0  0
   -1.0994    1.4455    1.6023 H   0  0  0  0  0  0  0  0  0  0  0  0
    0.4281    1.8686    0.8216 H   0  0  0  0  0  0  0  0  0  0  0  0
   -1.2993    2.1171   -0.4345 C   0  0  0  0  0  0  0  0  0  0  0  0
   -0.7384    2.0736   -1.3682 H   0  0  0  0  0  0  0  0  0  0  0  0
   -2.2692    1.6425   -0.5787 H   0  0  0  0  0  0  0  0  0  0  0  0
   -1.5364    3.5836   -0.0885 C   0  0  0  0  0  0  0  0  0  0  0  0
   -1.2794    4.0997    0.9873 O   0  0  0  0  0  0  0  0  0  0  0  0
   -2.0825    4.3292   -1.0670 O   0  0  0  0  0  0  0  0  0  0  0  0
   -2.1765    5.2064   -0.6916 H   0  0  0  0  0  0  0  0  0  0  0  0
    0.6701   -0.7723    1.3767 C   0  0  0  0  0  0  0  0  0  0  0  0
    1.8332   -1.0038    1.0523 O   0  0  0  0  0  0  0  0  0  0  0  0
    0.1836   -1.0766    2.5859 N   0  0  0  0  0  0  0  0  0  0  0  0
   -0.7753   -0.8358    2.7873 H   0  0  0  0  0  0  0  0  0  0  0  0
    0.9641   -1.7177    3.6422 C   0  0  0  0  0  0  0  0  0  0  0  0
    1.8470   -1.1162    3.8661 H   0  0  0  0  0  0  0  0  0  0  0  0
    0.3633   -1.8229    4.5467 H   0  0  0  0  0  0  0  0  0  0  0  0
    1.2924   -2.7047    3.3106 H   0  0  0  0  0  0  0  0  0  0  0  0
  5  6  2  0  0  0  0
  5  7  1  0  0  0  0
  2  3  1  0  0  0  0
  2  4  1  0  0  0  0
  2  5  1  0  0  0  0
  1  2  1  0  0  0  0
 21 22  2  0  0  0  0
 21 23  1  0  0  0  0
 19 20  1  0  0  0  0
 17 18  2  0  0  0  0
 17 19  1  0  0  0  0
 14 15  1  0  0  0  0
 14 16  1  0  0  0  0
 14 17  1  0  0  0  0
 11 12  1  0  0  0  0
 11 13  1  0  0  0  0
 11 14  1  0  0  0  0
  9 10  1  0  0  0  0
  9 11  1  0  0  0  0
  9 21  1  0  0  0  0
  7  8  1  0  0  0  0
  7  9  1  0  0  0  0
 25 26  1  0  0  0  0
 25 27  1  0  0  0  0
 25 28  1  0  0  0  0
 23 24  1  0  0  0  0
 23 25  1  0  0  0  0
M  END
$$$$
default_name
  -OEChem-01062215323D

 28 27  0     1  0  0  0  0  0999 V2000
   -3.2133   -3.5565    1.2809 H   0  0  0  0  0  0  0  0  0  0  0  0
   -3.1873   -2.5755    0.8089 C   0  0  0  0  0  0  0  0  0  0  0  0
   -3.8793   -1.9065    1.3169 H   0  0  0  0  0  0  0  0  0  0  0  0
   -3.4623   -2.6685   -0.2401 H   0  0  0  0  0  0  0  0  0  0  0  0
   -1.7863   -2.0195    0.9119 C   0  0  0  0  0  0  0  0  0  0  0  0
   -0.9073   -2.6615    1.4699 O   0  0  0  0  0  0  0  0  0  0  0  0
   -1.5803   -0.8195    0.3749 N   0  0  0  0  0  0  0  0  0  0  0  0
   -2.3603   -0.3345   -0.0451 H   0  0  0  0  0  0  0  0  0  0  0  0
   -0.2933   -0.1205    0.3719 C   0  0  1  0  0  0  0  0  0  0  0  0
    0.1474   -0.2047   -0.6224 H   0  0  0  0  0  0  0  0  0  0  0  0
   -0.5324    1.3733    0.6726 C   0  0  0  0  0  0  0  0  0  0  0  0
   -1.0994    1.4455    1.6023 H   0  0  0  0  0  0  0  0  0  0  0  0
    0.4281    1.8686    0.8216 H   0  0  0  0  0  0  0  0  0  0  0  0
   -1.2993    2.1171   -0.4345 C   0  0  0  0  0  0  0  0  0  0  0  0
   -0.7384    2.0736   -1.3682 H   0  0  0  0  0  0  0  0  0  0  0  0
   -2.2692    1.6425   -0.5787 H   0  0  0  0  0  0  0  0  0  0  0  0
   -1.5364    3.5836   -0.0885 C   0  0  0  0  0  0  0  0  0  0  0  0
   -1.2794    4.0997    0.9873 O   0  0  0  0  0  0  0  0  0  0  0  0
   -2.0825    4.3292   -1.0670 O   0  0  0  0  0  0  0  0  0  0  0  0
   -2.1765    5.2064   -0.6916 H   0  0  0  0  0  0  0  0  0  0  0  0
    0.6701   -0.7723    1.3767 C   0  0  0  0  0  0  0  0  0  0  0  0
    1.8815   -0.7554    1.1672 O   0  0  0  0  0  0  0  0  0  0  0  0
    0.1321   -1.3536    2.4556 N   0  0  0  0  0  0  0  0  0  0  0  0
   -0.8692   -1.3076    2.5713 H   0  0  0  0  0  0  0  0  0  0  0  0
    0.9095   -2.0331    3.4900 C   0  0  0  0  0  0  0  0  0  0  0  0
    1.6454   -1.3454    3.9106 H   0  0  0  0  0  0  0  0  0  0  0  0
    0.2532   -2.3869    4.2864 H   0  0  0  0  0  0  0  0  0  0  0  0
    1.4387   -2.8831    3.0546 H   0  0  0  0  0  0  0  0  0  0  0  0
  5  6  2  0  0  0  0
  5  7  1  0  0  0  0
  2  3  1  0  0  0  0
  2  4  1  0  0  0  0
  2  5  1  0  0  0  0
  1  2  1  0  0  0  0
 21 22  2  0  0  0  0
 21 23  1  0  0  0  0
 19 20  1  0  0  0  0
 17 18  2  0  0  0  0
 17 19  1  0  0  0  0
 14 15  1  0  0  0  0
 14 16  1  0  0  0  0
 14 17  1  0  0  0  0
 11 12  1  0  0  0  0
 11 13  1  0  0  0  0
 11 14  1  0  0  0  0
  9 10  1  0  0  0  0
  9 11  1  0  0  0  0
  9 21  1  0  0  0  0
  7  8  1  0  0  0  0
  7  9  1  0  0  0  0
 25 26  1  0  0  0  0
 25 27  1  0  0  0  0
 25 28  1  0  0  0  0
 23 24  1  0  0  0  0
 23 25  1  0  0  0  0
M  END
$$$$
default_name
  -OEChem-01062215323D

 28 27  0     1  0  0  0  0  0999 V2000
   -3.2133   -3.5565    1.2809 H   0  0  0  0  0  0  0  0  0  0  0  0
   -3.1873   -2.5755    0.8089 C   0  0  0  0  0  0  0  0  0  0  0  0
   -3.8793   -1.9065    1.3169 H   0  0  0  0  0  0  0  0  0  0  0  0
   -3.4623   -2.6685   -0.2401 H   0  0  0  0  0  0  0  0  0  0  0  0
   -1.7863   -2.0195    0.9119 C   0  0  0  0  0  0  0  0  0  0  0  0
   -0.9073   -2.6615    1.4699 O   0  0  0  0  0  0  0  0  0  0  0  0
   -1.5803   -0.8195    0.3749 N   0  0  0  0  0  0  0  0  0  0  0  0
   -2.3603   -0.3345   -0.0451 H   0  0  0  0  0  0  0  0  0  0  0  0
   -0.2933   -0.1205    0.3719 C   0  0  1  0  0  0  0  0  0  0  0  0
    0.1474   -0.2047   -0.6224 H   0  0  0  0  0  0  0  0  0  0  0  0
   -0.5324    1.3733    0.6726 C   0  0  0  0  0  0  0  0  0  0  0  0
   -1.0994    1.4455    1.6023 H   0  0  0  0  0  0  0  0  0  0  0  0
    0.4281    1.8686    0.8216 H   0  0  0  0  0  0  0  0  0  0  0  0
   -1.2993    2.1171   -0.4345 C   0  0  0  0  0  0  0  0  0  0  0  0
   -0.7384    2.0736   -1.3682 H   0  0  0  0  0  0  0  0  0  0  0  0
   -2.2692    1.6425   -0.5787 H   0  0  0  0  0  0  0  0  0  0  0  0
   -1.5364    3.5836   -0.0885 C   0  0  0  0  0  0  0  0  0  0  0  0
   -1.2794    4.0997    0.9873 O   0  0  0  0  0  0  0  0  0  0  0  0
   -2.0825    4.3292   -1.0670 O   0  0  0  0  0  0  0  0  0  0  0  0
   -2.1765    5.2064   -0.6916 H   0  0  0  0  0  0  0  0  0  0  0  0
    0.6701   -0.7723    1.3767 C   0  0  0  0  0  0  0  0  0  0  0  0
    1.8735   -0.5259    1.3237 O   0  0  0  0  0  0  0  0  0  0  0  0
    0.1435   -1.6087    2.2792 N   0  0  0  0  0  0  0  0  0  0  0  0
   -0.8564   -1.7442    2.2758 H   0  0  0  0  0  0  0  0  0  0  0  0
    0.9269   -2.3223    3.2857 C   0  0  0  0  0  0  0  0  0  0  0  0
    1.4847   -1.6082    3.8942 H   0  0  0  0  0  0  0  0  0  0  0  0
    0.2709   -2.9080    3.9313 H   0  0  0  0  0  0  0  0  0  0  0  0
    1.6383   -2.9890    2.7945 H   0  0  0  0  0  0  0  0  0  0  0  0
  5  6  2  0  0  0  0
  5  7  1  0  0  0  0
  2  3  1  0  0  0  0
  2  4  1  0  0  0  0
  2  5  1  0  0  0  0
  1  2  1  0  0  0  0
 21 22  2  0  0  0  0
 21 23  1  0  0  0  0
 19 20  1  0  0  0  0
 17 18  2  0  0  0  0
 17 19  1  0  0  0  0
 14 15  1  0  0  0  0
 14 16  1  0  0  0  0
 14 17  1  0  0  0  0
 11 12  1  0  0  0  0
 11 13  1  0  0  0  0
 11 14  1  0  0  0  0
  9 10  1  0  0  0  0
  9 11  1  0  0  0  0
  9 21  1  0  0  0  0
  7  8  1  0  0  0  0
  7  9  1  0  0  0  0
 25 26  1  0  0  0  0
 25 27  1  0  0  0  0
 25 28  1  0  0  0  0
 23 24  1  0  0  0  0
 23 25  1  0  0  0  0
M  END
$$$$
default_name
  -OEChem-01062215323D

 28 27  0     1  0  0  0  0  0999 V2000
   -3.2133   -3.5565    1.2809 H   0  0  0  0  0  0  0  0  0  0  0  0
   -3.1873   -2.5755    0.8089 C   0  0  0  0  0  0  0  0  0  0  0  0
   -3.8793   -1.9065    1.3169 H   0  0  0  0  0  0  0  0  0  0  0  0
   -3.4623   -2.6685   -0.2401 H   0  0  0  0  0  0  0  0  0  0  0  0
   -1.7863   -2.0195    0.9119 C   0  0  0  0  0  0  0  0  0  0  0  0
   -0.9073   -2.6615    1.4699 O   0  0  0  0  0  0  0  0  0  0  0  0
   -1.5803   -0.8195    0.3749 N   0  0  0  0  0  0  0  0  0  0  0  0
   -2.3603   -0.3345   -0.0451 H   0  0  0  0  0  0  0  0  0  0  0  0
   -0.2933   -0.1205    0.3719 C   0  0  1  0  0  0  0  0  0  0  0  0
    0.1474   -0.2047   -0.6224 H   0  0  0  0  0  0  0  0  0  0  0  0
   -0.5324    1.3733    0.6726 C   0  0  0  0  0  0  0  0  0  0  0  0
   -1.0994    1.4455    1.6023 H   0  0  0  0  0  0  0  0  0  0  0  0
    0.4281    1.8686    0.8216 H   0  0  0  0  0  0  0  0  0  0  0  0
   -1.2993    2.1171   -0.4345 C   0  0  0  0  0  0  0  0  0  0  0  0
   -0.7384    2.0736   -1.3682 H   0  0  0  0  0  0  0  0  0  0  0  0
   -2.2692    1.6425   -0.5787 H   0  0  0  0  0  0  0  0  0  0  0  0
   -1.5364    3.5836   -0.0885 C   0  0  0  0  0  0  0  0  0  0  0  0
   -1.2794    4.0997    0.9873 O   0  0  0  0  0  0  0  0  0  0  0  0
   -2.0825    4.3292   -1.0670 O   0  0  0  0  0  0  0  0  0  0  0  0
   -2.1765    5.2064   -0.6916 H   0  0  0  0  0  0  0  0  0  0  0  0
    0.6701   -0.7723    1.3767 C   0  0  0  0  0  0  0  0  0  0  0  0
    1.8098   -0.3310    1.5113 O   0  0  0  0  0  0  0  0  0  0  0  0
    0.2170   -1.8246    2.0687 N   0  0  0  0  0  0  0  0  0  0  0  0
   -0.7377   -2.1158    1.9209 H   0  0  0  0  0  0  0  0  0  0  0  0
    1.0150   -2.5656    3.0434 C   0  0  0  0  0  0  0  0  0  0  0  0
    1.3757   -1.8866    3.8182 H   0  0  0  0  0  0  0  0  0  0  0  0
    0.4151   -3.3508    3.5058 H   0  0  0  0  0  0  0  0  0  0  0  0
    1.8776   -3.0154    2.5479 H   0  0  0  0  0  0  0  0  0  0  0  0
  5  6  2  0  0  0  0
  5  7  1  0  0  0  0
  2  3  1  0  0  0  0
  2  4  1  0  0  0  0
  2  5  1  0  0  0  0
  1  2  1  0  0  0  0
 21 22  2  0  0  0  0
 21 23  1  0  0  0  0
 19 20  1  0  0  0  0
 17 18  2  0  0  0  0
 17 19  1  0  0  0  0
 14 15  1  0  0  0  0
 14 16  1  0  0  0  0
 14 17  1  0  0  0  0
 11 12  1  0  0  0  0
 11 13  1  0  0  0  0
 11 14  1  0  0  0  0
  9 10  1  0  0  0  0
  9 11  1  0  0  0  0
  9 21  1  0  0  0  0
  7  8  1  0  0  0  0
  7  9  1  0  0  0  0
 25 26  1  0  0  0  0
 25 27  1  0  0  0  0
 25 28  1  0  0  0  0
 23 24  1  0  0  0  0
 23 25  1  0  0  0  0
M  END
$$$$
default_name
  -OEChem-01062215323D

 28 27  0     1  0  0  0  0  0999 V2000
   -3.2133   -3.5565    1.2809 H   0  0  0  0  0  0  0  0  0  0  0  0
   -3.1873   -2.5755    0.8089 C   0  0  0  0  0  0  0  0  0  0  0  0
   -3.8793   -1.9065    1.3169 H   0  0  0  0  0  0  0  0  0  0  0  0
   -3.4623   -2.6685   -0.2401 H   0  0  0  0  0  0  0  0  0  0  0  0
   -1.7863   -2.0195    0.9119 C   0  0  0  0  0  0  0  0  0  0  0  0
   -0.9073   -2.6615    1.4699 O   0  0  0  0  0  0  0  0  0  0  0  0
   -1.5803   -0.8195    0.3749 N   0  0  0  0  0  0  0  0  0  0  0  0
   -2.3603   -0.3345   -0.0451 H   0  0  0  0  0  0  0  0  0  0  0  0
   -0.2933   -0.1205    0.3719 C   0  0  1  0  0  0  0  0  0  0  0  0
    0.1474   -0.2047   -0.6224 H   0  0  0  0  0  0  0  0  0  0  0  0
   -0.5324    1.3733    0.6726 C   0  0  0  0  0  0  0  0  0  0  0  0
   -1.0994    1.4455    1.6023 H   0  0  0  0  0  0  0  0  0  0  0  0
    0.4281    1.8686    0.8216 H   0  0  0  0  0  0  0  0  0  0  0  0
   -1.2993    2.1171   -0.4345 C   0  0  0  0  0  0  0  0  0  0  0  0
   -0.7384    2.0736   -1.3682 H   0  0  0  0  0  0  0  0  0  0  0  0
   -2.2692    1.6425   -0.5787 H   0  0  0  0  0  0  0  0  0  0  0  0
   -1.5364    3.5836   -0.0885 C   0  0  0  0  0  0  0  0  0  0  0  0
   -1.2794    4.0997    0.9873 O   0  0  0  0  0  0  0  0  0  0  0  0
   -2.0825    4.3292   -1.0670 O   0  0  0  0  0  0  0  0  0  0  0  0
   -2.1765    5.2064   -0.6916 H   0  0  0  0  0  0  0  0  0  0  0  0
    0.6701   -0.7723    1.3767 C   0  0  0  0  0  0  0  0  0  0  0  0
    1.6947   -0.1840    1.7171 O   0  0  0  0  0  0  0  0  0  0  0  0
    0.3477   -1.9865    1.8383 N   0  0  0  0  0  0  0  0  0  0  0  0
   -0.5212   -2.3972    1.5308 H   0  0  0  0  0  0  0  0  0  0  0  0
    1.1678   -2.7464    2.7796 C   0  0  0  0  0  0  0  0  0  0  0  0
    1.3258   -2.1616    3.6876 H   0  0  0  0  0  0  0  0  0  0  0  0
    0.6760   -3.6851    3.0388 H   0  0  0  0  0  0  0  0  0  0  0  0
    2.1402   -2.9604    2.3318 H   0  0  0  0  0  0  0  0  0  0  0  0
  5  6  2  0  0  0  0
  5  7  1  0  0  0  0
  2  3  1  0  0  0  0
  2  4  1  0  0  0  0
  2  5  1  0  0  0  0
  1  2  1  0  0  0  0
 21 22  2  0  0  0  0
 21 23  1  0  0  0  0
 19 20  1  0  0  0  0
 17 18  2  0  0  0  0
 17 19  1  0  0  0  0
 14 15  1  0  0  0  0
 14 16  1  0  0  0  0
 14 17  1  0  0  0  0
 11 12  1  0  0  0  0
 11 13  1  0  0  0  0
 11 14  1  0  0  0  0
  9 10  1  0  0  0  0
  9 11  1  0  0  0  0
  9 21  1  0  0  0  0
  7  8  1  0  0  0  0
  7  9  1  0  0  0  0
 25 26  1  0  0  0  0
 25 27  1  0  0  0  0
 25 28  1  0  0  0  0
 23 24  1  0  0  0  0
 23 25  1  0  0  0  0
M  END
$$$$
default_name
  -OEChem-01062215323D

 28 27  0     1  0  0  0  0  0999 V2000
   -3.2133   -3.5565    1.2809 H   0  0  0  0  0  0  0  0  0  0  0  0
   -3.1873   -2.5755    0.8089 C   0  0  0  0  0  0  0  0  0  0  0  0
   -3.8793   -1.9065    1.3169 H   0  0  0  0  0  0  0  0  0  0  0  0
   -3.4623   -2.6685   -0.2401 H   0  0  0  0  0  0  0  0  0  0  0  0
   -1.7863   -2.0195    0.9119 C   0  0  0  0  0  0  0  0  0  0  0  0
   -0.9073   -2.6615    1.4699 O   0  0  0  0  0  0  0  0  0  0  0  0
   -1.5803   -0.8195    0.3749 N   0  0  0  0  0  0  0  0  0  0  0  0
   -2.3603   -0.3345   -0.0451 H   0  0  0  0  0  0  0  0  0  0  0  0
   -0.2933   -0.1205    0.3719 C   0  0  1  0  0  0  0  0  0  0  0  0
    0.1474   -0.2047   -0.6224 H   0  0  0  0  0  0  0  0  0  0  0  0
   -0.5324    1.3733    0.6726 C   0  0  0  0  0  0  0  0  0  0  0  0
   -1.0994    1.4455    1.6023 H   0  0  0  0  0  0  0  0  0  0  0  0
    0.4281    1.8686    0.8216 H   0  0  0  0  0  0  0  0  0  0  0  0
   -1.2993    2.1171   -0.4345 C   0  0  0  0  0  0  0  0  0  0  0  0
   -0.7384    2.0736   -1.3682 H   0  0  0  0  0  0  0  0  0  0  0  0
   -2.2692    1.6425   -0.5787 H   0  0  0  0  0  0  0  0  0  0  0  0
   -1.5364    3.5836   -0.0885 C   0  0  0  0  0  0  0  0  0  0  0  0
   -1.2794    4.0997    0.9873 O   0  0  0  0  0  0  0  0  0  0  0  0
   -2.0825    4.3292   -1.0670 O   0  0  0  0  0  0  0  0  0  0  0  0
   -2.1765    5.2064   -0.6916 H   0  0  0  0  0  0  0  0  0  0  0  0
    0.6701   -0.7723    1.3767 C   0  0  0  0  0  0  0  0  0  0  0  0
    1.5360   -0.0948    1.9271 O   0  0  0  0  0  0  0  0  0  0  0  0
    0.5266   -2.0835    1.6039 N   0  0  0  0  0  0  0  0  0  0  0  0
   -0.2217   -2.5690    1.1322 H   0  0  0  0  0  0  0  0  0  0  0  0
    1.3750   -2.8524    2.5122 C   0  0  0  0  0  0  0  0  0  0  0  0
    1.3385   -2.4145    3.5113 H   0  0  0  0  0  0  0  0  0  0  0  0
    1.0359   -3.8881    2.5621 H   0  0  0  0  0  0  0  0  0  0  0  0
    2.4084   -2.8278    2.1607 H   0  0  0  0  0  0  0  0  0  0  0  0
  5  6  2  0  0  0  0
  5  7  1  0  0  0  0
  2  3  1  0  0  0  0
  2  4  1  0  0  0  0
  2  5  1  0  0  0  0
  1  2  1  0  0  0  0
 21 22  2  0  0  0  0
 21 23  1  0  0  0  0
 19 20  1  0  0  0  0
 17 18  2  0  0  0  0
 17 19  1  0  0  0  0
 14 15  1  0  0  0  0
 14 16  1  0  0  0  0
 14 17  1  0  0  0  0
 11 12  1  0  0  0  0
 11 13  1  0  0  0  0
 11 14  1  0  0  0  0
  9 10  1  0  0  0  0
  9 11  1  0  0  0  0
  9 21  1  0  0  0  0
  7  8  1  0  0  0  0
  7  9  1  0  0  0  0
 25 26  1  0  0  0  0
 25 27  1  0  0  0  0
 25 28  1  0  0  0  0
 23 24  1  0  0  0  0
 23 25  1  0  0  0  0
M  END
$$$$
default_name
  -OEChem-01062215323D

 28 27  0     1  0  0  0  0  0999 V2000
   -3.2133   -3.5565    1.2809 H   0  0  0  0  0  0  0  0  0  0  0  0
   -3.1873   -2.5755    0.8089 C   0  0  0  0  0  0  0  0  0  0  0  0
   -3.8793   -1.9065    1.3169 H   0  0  0  0  0  0  0  0  0  0  0  0
   -3.4623   -2.6685   -0.2401 H   0  0  0  0  0  0  0  0  0  0  0  0
   -1.7863   -2.0195    0.9119 C   0  0  0  0  0  0  0  0  0  0  0  0
   -0.9073   -2.6615    1.4699 O   0  0  0  0  0  0  0  0  0  0  0  0
   -1.5803   -0.8195    0.3749 N   0  0  0  0  0  0  0  0  0  0  0  0
   -2.3603   -0.3345   -0.0451 H   0  0  0  0  0  0  0  0  0  0  0  0
   -0.2933   -0.1205    0.3719 C   0  0  1  0  0  0  0  0  0  0  0  0
    0.1474   -0.2047   -0.6224 H   0  0  0  0  0  0  0  0  0  0  0  0
   -0.5324    1.3733    0.6726 C   0  0  0  0  0  0  0  0  0  0  0  0
   -1.0994    1.4455    1.6023 H   0  0  0  0  0  0  0  0  0  0  0  0
    0.4281    1.8686    0.8216 H   0  0  0  0  0  0  0  0  0  0  0  0
   -1.2993    2.1171   -0.4345 C   0  0  0  0  0  0  0  0  0  0  0  0
   -0.7384    2.0736   -1.3682 H   0  0  0  0  0  0  0  0  0  0  0  0
   -2.2692    1.6425   -0.5787 H   0  0  0  0  0  0  0  0  0  0  0  0
   -1.5364    3.5836   -0.0885 C   0  0  0  0  0  0  0  0  0  0  0  0
   -1.2794    4.0997    0.9873 O   0  0  0  0  0  0  0  0  0  0  0  0
   -2.0825    4.3292   -1.0670 O   0  0  0  0  0  0  0  0  0  0  0  0
   -2.1765    5.2064   -0.6916 H   0  0  0  0  0  0  0  0  0  0  0  0
    0.6701   -0.7723    1.3767 C   0  0  0  0  0  0  0  0  0  0  0  0
    1.3446   -0.0695    2.1270 O   0  0  0  0  0  0  0  0  0  0  0  0
    0.7415   -2.1089    1.3814 N   0  0  0  0  0  0  0  0  0  0  0  0
    0.1404   -2.6196    0.7521 H   0  0  0  0  0  0  0  0  0  0  0  0
    1.6224   -2.8763    2.2594 C   0  0  0  0  0  0  0  0  0  0  0  0
    1.4129   -2.6280    3.3015 H   0  0  0  0  0  0  0  0  0  0  0  0
    1.4701   -3.9459    2.1082 H   0  0  0  0  0  0  0  0  0  0  0  0
    2.6637   -2.6266    2.0464 H   0  0  0  0  0  0  0  0  0  0  0  0
  5  6  2  0  0  0  0
  5  7  1  0  0  0  0
  2  3  1  0  0  0  0
  2  4  1  0  0  0  0
  2  5  1  0  0  0  0
  1  2  1  0  0  0  0
 21 22  2  0  0  0  0
 21 23  1  0  0  0  0
 19 20  1  0  0  0  0
 17 18  2  0  0  0  0
 17 19  1  0  0  0  0
 14 15  1  0  0  0  0
 14 16  1  0  0  0  0
 14 17  1  0  0  0  0
 11 12  1  0  0  0  0
 11 13  1  0  0  0  0
 11 14  1  0  0  0  0
  9 10  1  0  0  0  0
  9 11  1  0  0  0  0
  9 21  1  0  0  0  0
  7  8  1  0  0  0  0
  7  9  1  0  0  0  0
 25 26  1  0  0  0  0
 25 27  1  0  0  0  0
 25 28  1  0  0  0  0
 23 24  1  0  0  0  0
 23 25  1  0  0  0  0
M  END
$$$$
default_name
  -OEChem-01062215323D

 28 27  0     1  0  0  0  0  0999 V2000
   -3.2133   -3.5565    1.2809 H   0  0  0  0  0  0  0  0  0  0  0  0
   -3.1873   -2.5755    0.8089 C   0  0  0  0  0  0  0  0  0  0  0  0
   -3.8793   -1.9065    1.3169 H   0  0  0  0  0  0  0  0  0  0  0  0
   -3.4623   -2.6685   -0.2401 H   0  0  0  0  0  0  0  0  0  0  0  0
   -1.7863   -2.0195    0.9119 C   0  0  0  0  0  0  0  0  0  0  0  0
   -0.9073   -2.6615    1.4699 O   0  0  0  0  0  0  0  0  0  0  0  0
   -1.5803   -0.8195    0.3749 N   0  0  0  0  0  0  0  0  0  0  0  0
   -2.3603   -0.3345   -0.0451 H   0  0  0  0  0  0  0  0  0  0  0  0
   -0.2933   -0.1205    0.3719 C   0  0  1  0  0  0  0  0  0  0  0  0
    0.1474   -0.2047   -0.6224 H   0  0  0  0  0  0  0  0  0  0  0  0
   -0.5324    1.3733    0.6726 C   0  0  0  0  0  0  0  0  0  0  0  0
   -1.0994    1.4455    1.6023 H   0  0  0  0  0  0  0  0  0  0  0  0
    0.4281    1.8686    0.8216 H   0  0  0  0  0  0  0  0  0  0  0  0
   -1.2993    2.1171   -0.4345 C   0  0  0  0  0  0  0  0  0  0  0  0
   -0.7384    2.0736   -1.3682 H   0  0  0  0  0  0  0  0  0  0  0  0
   -2.2692    1.6425   -0.5787 H   0  0  0  0  0  0  0  0  0  0  0  0
   -1.5364    3.5836   -0.0885 C   0  0  0  0  0  0  0  0  0  0  0  0
   -1.2794    4.0997    0.9873 O   0  0  0  0  0  0  0  0  0  0  0  0
   -2.0825    4.3292   -1.0670 O   0  0  0  0  0  0  0  0  0  0  0  0
   -2.1765    5.2064   -0.6916 H   0  0  0  0  0  0  0  0  0  0  0  0
    0.6701   -0.7723    1.3767 C   0  0  0  0  0  0  0  0  0  0  0  0
    1.1335   -0.1100    2.3031 O   0  0  0  0  0  0  0  0  0  0  0  0
    0.9778   -2.0609    1.1859 N   0  0  0  0  0  0  0  0  0  0  0  0
    0.5405   -2.5456    0.4165 H   0  0  0  0  0  0  0  0  0  0  0  0
    1.8932   -2.8165    2.0386 C   0  0  0  0  0  0  0  0  0  0  0  0
    1.5439   -2.7876    3.0723 H   0  0  0  0  0  0  0  0  0  0  0  0
    1.9492   -3.8547    1.7080 H   0  0  0  0  0  0  0  0  0  0  0  0
    2.8888   -2.3705    1.9967 H   0  0  0  0  0  0  0  0  0  0  0  0
  5  6  2  0  0  0  0
  5  7  1  0  0  0  0
  2  3  1  0  0  0  0
  2  4  1  0  0  0  0
  2  5  1  0  0  0  0
  1  2  1  0  0  0  0
 21 22  2  0  0  0  0
 21 23  1  0  0  0  0
 19 20  1  0  0  0  0
 17 18  2  0  0  0  0
 17 19  1  0  0  0  0
 14 15  1  0  0  0  0
 14 16  1  0  0  0  0
 14 17  1  0  0  0  0
 11 12  1  0  0  0  0
 11 13  1  0  0  0  0
 11 14  1  0  0  0  0
  9 10  1  0  0  0  0
  9 11  1  0  0  0  0
  9 21  1  0  0  0  0
  7  8  1  0  0  0  0
  7  9  1  0  0  0  0
 25 26  1  0  0  0  0
 25 27  1  0  0  0  0
 25 28  1  0  0  0  0
 23 24  1  0  0  0  0
 23 25  1  0  0  0  0
M  END
$$$$
default_name
  -OEChem-01062215323D

 28 27  0     1  0  0  0  0  0999 V2000
   -3.2133   -3.5565    1.2809 H   0  0  0  0  0  0  0  0  0  0  0  0
   -3.1873   -2.5755    0.8089 C   0  0  0  0  0  0  0  0  0  0  0  0
   -3.8793   -1.9065    1.3169 H   0  0  0  0  0  0  0  0  0  0  0  0
   -3.4623   -2.6685   -0.2401 H   0  0  0  0  0  0  0  0  0  0  0  0
   -1.7863   -2.0195    0.9119 C   0  0  0  0  0  0  0  0  0  0  0  0
   -0.9073   -2.6615    1.4699 O   0  0  0  0  0  0  0  0  0  0  0  0
   -1.5803   -0.8195    0.3749 N   0  0  0  0  0  0  0  0  0  0  0  0
   -2.3603   -0.3345   -0.0451 H   0  0  0  0  0  0  0  0  0  0  0  0
   -0.2933   -0.1205    0.3719 C   0  0  1  0  0  0  0  0  0  0  0  0
    0.1474   -0.2047   -0.6224 H   0  0  0  0  0  0  0  0  0  0  0  0
   -0.5324    1.3733    0.6726 C   0  0  0  0  0  0  0  0  0  0  0  0
   -1.0994    1.4455    1.6023 H   0  0  0  0  0  0  0  0  0  0  0  0
    0.4281    1.8686    0.8216 H   0  0  0  0  0  0  0  0  0  0  0  0
   -1.2993    2.1171   -0.4345 C   0  0  0  0  0  0  0  0  0  0  0  0
   -0.7384    2.0736   -1.3682 H   0  0  0  0  0  0  0  0  0  0  0  0
   -2.2692    1.6425   -0.5787 H   0  0  0  0  0  0  0  0  0  0  0  0
   -1.5364    3.5836   -0.0885 C   0  0  0  0  0  0  0  0  0  0  0  0
   -1.2794    4.0997    0.9873 O   0  0  0  0  0  0  0  0  0  0  0  0
   -2.0825    4.3292   -1.0670 O   0  0  0  0  0  0  0  0  0  0  0  0
   -2.1765    5.2064   -0.6916 H   0  0  0  0  0  0  0  0  0  0  0  0
    0.6701   -0.7723    1.3767 C   0  0  0  0  0  0  0  0  0  0  0  0
    0.9171   -0.2133    2.4436 O   0  0  0  0  0  0  0  0  0  0  0  0
    1.2194   -1.9429    1.0309 N   0  0  0  0  0  0  0  0  0  0  0  0
    0.9512   -2.3520    0.1483 H   0  0  0  0  0  0  0  0  0  0  0  0
    2.1688   -2.6772    1.8647 C   0  0  0  0  0  0  0  0  0  0  0  0
    1.7226   -2.8825    2.8394 H   0  0  0  0  0  0  0  0  0  0  0  0
    2.4404   -3.6206    1.3889 H   0  0  0  0  0  0  0  0  0  0  0  0
    3.0684   -2.0770    2.0149 H   0  0  0  0  0  0  0  0  0  0  0  0
  5  6  2  0  0  0  0
  5  7  1  0  0  0  0
  2  3  1  0  0  0  0
  2  4  1  0  0  0  0
  2  5  1  0  0  0  0
  1  2  1  0  0  0  0
 21 22  2  0  0  0  0
 21 23  1  0  0  0  0
 19 20  1  0  0  0  0
 17 18  2  0  0  0  0
 17 19  1  0  0  0  0
 14 15  1  0  0  0  0
 14 16  1  0  0  0  0
 14 17  1  0  0  0  0
 11 12  1  0  0  0  0
 11 13  1  0  0  0  0
 11 14  1  0  0  0  0
  9 10  1  0  0  0  0
  9 11  1  0  0  0  0
  9 21  1  0  0  0  0
  7  8  1  0  0  0  0
  7  9  1  0  0  0  0
 25 26  1  0  0  0  0
 25 27  1  0  0  0  0
 25 28  1  0  0  0  0
 23 24  1  0  0  0  0
 23 25  1  0  0  0  0
M  END
$$$$
default_name
  -OEChem-01062215323D

 28 27  0     1  0  0  0  0  0999 V2000
   -3.2133   -3.5565    1.2809 H   0  0  0  0  0  0  0  0  0  0  0  0
   -3.1873   -2.5755    0.8089 C   0  0  0  0  0  0  0  0  0  0  0  0
   -3.8793   -1.9065    1.3169 H   0  0  0  0  0  0  0  0  0  0  0  0
   -3.4623   -2.6685   -0.2401 H   0  0  0  0  0  0  0  0  0  0  0  0
   -1.7863   -2.0195    0.9119 C   0  0  0  0  0  0  0  0  0  0  0  0
   -0.9073   -2.6615    1.4699 O   0  0  0  0  0  0  0  0  0  0  0  0
   -1.5803   -0.8195    0.3749 N   0  0  0  0  0  0  0  0  0  0  0  0
   -2.3603   -0.3345   -0.0451 H   0  0  0  0  0  0  0  0  0  0  0  0
   -0.2933   -0.1205    0.3719 C   0  0  1  0  0  0  0  0  0  0  0  0
    0.1474   -0.2047   -0.6224 H   0  0  0  0  0  0  0  0  0  0  0  0
   -0.5324    1.3733    0.6726 C   0  0  0  0  0  0  0  0  0  0  0  0
   -1.0994    1.4455    1.6023 H   0  0  0  0  0  0  0  0  0  0  0  0
    0.4281    1.8686    0.8216 H   0  0  0  0  0  0  0  0  0  0  0  0
   -1.2993    2.1171   -0.4345 C   0  0  0  0  0  0  0  0  0  0  0  0
   -0.7384    2.0736   -1.3682 H   0  0  0  0  0  0  0  0  0  0  0  0
   -2.2692    1.6425   -0.5787 H   0  0  0  0  0  0  0  0  0  0  0  0
   -1.5364    3.5836   -0.0885 C   0  0  0  0  0  0  0  0  0  0  0  0
   -1.2794    4.0997    0.9873 O   0  0  0  0  0  0  0  0  0  0  0  0
   -2.0825    4.3292   -1.0670 O   0  0  0  0  0  0  0  0  0  0  0  0
   -2.1765    5.2064   -0.6916 H   0  0  0  0  0  0  0  0  0  0  0  0
    0.6701   -0.7723    1.3767 C   0  0  0  0  0  0  0  0  0  0  0  0
    0.7102   -0.3725    2.5387 O   0  0  0  0  0  0  0  0  0  0  0  0
    1.4498   -1.7628    0.9267 N   0  0  0  0  0  0  0  0  0  0  0  0
    1.3446   -2.0519   -0.0343 H   0  0  0  0  0  0  0  0  0  0  0  0
    2.4306   -2.4677    1.7495 C   0  0  0  0  0  0  0  0  0  0  0  0
    1.9369   -2.9061    2.6187 H   0  0  0  0  0  0  0  0  0  0  0  0
    2.9103   -3.2596    1.1725 H   0  0  0  0  0  0  0  0  0  0  0  0
    3.1902   -1.7661    2.0998 H   0  0  0  0  0  0  0  0  0  0  0  0
  5  6  2  0  0  0  0
  5  7  1  0  0  0  0
  2  3  1  0  0  0  0
  2  4  1  0  0  0  0
  2  5  1  0  0  0  0
  1  2  1  0  0  0  0
 21 22  2  0  0  0  0
 21 23  1  0  0  0  0
 19 20  1  0  0  0  0
 17 18  2  0  0  0  0
 17 19  1  0  0  0  0
 14 15  1  0  0  0  0
 14 16  1  0  0  0  0
 14 17  1  0  0  0  0
 11 12  1  0  0  0  0
 11 13  1  0  0  0  0
 11 14  1  0  0  0  0
  9 10  1  0  0  0  0
  9 11  1  0  0  0  0
  9 21  1  0  0  0  0
  7  8  1  0  0  0  0
  7  9  1  0  0  0  0
 25 26  1  0  0  0  0
 25 27  1  0  0  0  0
 25 28  1  0  0  0  0
 23 24  1  0  0  0  0
 23 25  1  0  0  0  0
M  END
$$$$
default_name
  -OEChem-01062215323D

 28 27  0     1  0  0  0  0  0999 V2000
   -3.2133   -3.5565    1.2809 H   0  0  0  0  0  0  0  0  0  0  0  0
   -3.1873   -2.5755    0.8089 C   0  0  0  0  0  0  0  0  0  0  0  0
   -3.8793   -1.9065    1.3169 H   0  0  0  0  0  0  0  0  0  0  0  0
   -3.4623   -2.6685   -0.2401 H   0  0  0  0  0  0  0  0  0  0  0  0
   -1.7863   -2.0195    0.9119 C   0  0  0  0  0  0  0  0  0  0  0  0
   -0.9073   -2.6615    1.4699 O   0  0  0  0  0  0  0  0  0  0  0  0
   -1.5803   -0.8195    0.3749 N   0  0  0  0  0  0  0  0  0  0  0  0
   -2.3603   -0.3345   -0.0451 H   0  0  0  0  0  0  0  0  0  0  0  0
   -0.2933   -0.1205    0.3719 C   0  0  1  0  0  0  0  0  0  0  0  0
    0.1474   -0.2047   -0.6224 H   0  0  0  0  0  0  0  0  0  0  0  0
   -0.5324    1.3733    0.6726 C   0  0  0  0  0  0  0  0  0  0  0  0
   -1.0994    1.4455    1.6023 H   0  0  0  0  0  0  0  0  0  0  0  0
    0.4281    1.8686    0.8216 H   0  0  0  0  0  0  0  0  0  0  0  0
   -1.2993    2.1171   -0.4345 C   0  0  0  0  0  0  0  0  0  0  0  0
   -0.7384    2.0736   -1.3682 H   0  0  0  0  0  0  0  0  0  0  0  0
   -2.2692    1.6425   -0.5787 H   0  0  0  0  0  0  0  0  0  0  0  0
   -1.5364    3.5836   -0.0885 C   0  0  0  0  0  0  0  0  0  0  0  0
   -1.2794    4.0997    0.9873 O   0  0  0  0  0  0  0  0  0  0  0  0
   -2.0825    4.3292   -1.0670 O   0  0  0  0  0  0  0  0  0  0  0  0
   -2.1765    5.2064   -0.6916 H   0  0  0  0  0  0  0  0  0  0  0  0
    0.6701   -0.7723    1.3767 C   0  0  0  0  0  0  0  0  0  0  0  0
    0.5268   -0.5768    2.5821 O   0  0  0  0  0  0  0  0  0  0  0  0
    1.6533   -1.5331    0.8806 N   0  0  0  0  0  0  0  0  0  0  0  0
    1.6939   -1.6659   -0.1188 H   0  0  0  0  0  0  0  0  0  0  0  0
    2.6607   -2.2024    1.7010 C   0  0  0  0  0  0  0  0  0  0  0  0
    2.1720   -2.8568    2.4252 H   0  0  0  0  0  0  0  0  0  0  0  0
    3.3269   -2.7963    1.0736 H   0  0  0  0  0  0  0  0  0  0  0  0
    3.2459   -1.4589    2.2457 H   0  0  0  0  0  0  0  0  0  0  0  0
  5  6  2  0  0  0  0
  5  7  1  0  0  0  0
  2  3  1  0  0  0  0
  2  4  1  0  0  0  0
  2  5  1  0  0  0  0
  1  2  1  0  0  0  0
 21 22  2  0  0  0  0
 21 23  1  0  0  0  0
 19 20  1  0  0  0  0
 17 18  2  0  0  0  0
 17 19  1  0  0  0  0
 14 15  1  0  0  0  0
 14 16  1  0  0  0  0
 14 17  1  0  0  0  0
 11 12  1  0  0  0  0
 11 13  1  0  0  0  0
 11 14  1  0  0  0  0
  9 10  1  0  0  0  0
  9 11  1  0  0  0  0
  9 21  1  0  0  0  0
  7  8  1  0  0  0  0
  7  9  1  0  0  0  0
 25 26  1  0  0  0  0
 25 27  1  0  0  0  0
 25 28  1  0  0  0  0
 23 24  1  0  0  0  0
 23 25  1  0  0  0  0
M  END
$$$$
default_name
  -OEChem-01062215323D

 28 27  0     1  0  0  0  0  0999 V2000
   -3.2133   -3.5565    1.2809 H   0  0  0  0  0  0  0  0  0  0  0  0
   -3.1873   -2.5755    0.8089 C   0  0  0  0  0  0  0  0  0  0  0  0
   -3.8793   -1.9065    1.3169 H   0  0  0  0  0  0  0  0  0  0  0  0
   -3.4623   -2.6685   -0.2401 H   0  0  0  0  0  0  0  0  0  0  0  0
   -1.7863   -2.0195    0.9119 C   0  0  0  0  0  0  0  0  0  0  0  0
   -0.9073   -2.6615    1.4699 O   0  0  0  0  0  0  0  0  0  0  0  0
   -1.5803   -0.8195    0.3749 N   0  0  0  0  0  0  0  0  0  0  0  0
   -2.3603   -0.3345   -0.0451 H   0  0  0  0  0  0  0  0  0  0  0  0
   -0.2933   -0.1205    0.3719 C   0  0  1  0  0  0  0  0  0  0  0  0
    0.1474   -0.2047   -0.6224 H   0  0  0  0  0  0  0  0  0  0  0  0
   -0.5324    1.3733    0.6726 C   0  0  0  0  0  0  0  0  0  0  0  0
   -1.0994    1.4455    1.6023 H   0  0  0  0  0  0  0  0  0  0  0  0
    0.4281    1.8686    0.8216 H   0  0  0  0  0  0  0  0  0  0  0  0
   -1.2993    2.1171   -0.4345 C   0  0  0  0  0  0  0  0  0  0  0  0
   -0.7384    2.0736   -1.3682 H   0  0  0  0  0  0  0  0  0  0  0  0
   -2.2692    1.6425   -0.5787 H   0  0  0  0  0  0  0  0  0  0  0  0
   -1.5364    3.5836   -0.0885 C   0  0  0  0  0  0  0  0  0  0  0  0
   -1.2794    4.0997    0.9873 O   0  0  0  0  0  0  0  0  0  0  0  0
   -2.0825    4.3292   -1.0670 O   0  0  0  0  0  0  0  0  0  0  0  0
   -2.1765    5.2064   -0.6916 H   0  0  0  0  0  0  0  0  0  0  0  0
    0.6701   -0.7723    1.3767 C   0  0  0  0  0  0  0  0  0  0  0  0
    0.3794   -0.8121    2.5707 O   0  0  0  0  0  0  0  0  0  0  0  0
    1.8161   -1.2692    0.8957 N   0  0  0  0  0  0  0  0  0  0  0  0
    1.9753   -1.2203   -0.0995 H   0  0  0  0  0  0  0  0  0  0  0  0
    2.8434   -1.8994    1.7225 C   0  0  0  0  0  0  0  0  0  0  0  0
    2.4121   -2.7381    2.2721 H   0  0  0  0  0  0  0  0  0  0  0  0
    3.6617   -2.2623    1.0990 H   0  0  0  0  0  0  0  0  0  0  0  0
    3.2318   -1.1764    2.4425 H   0  0  0  0  0  0  0  0  0  0  0  0
  5  6  2  0  0  0  0
  5  7  1  0  0  0  0
  2  3  1  0  0  0  0
  2  4  1  0  0  0  0
  2  5  1  0  0  0  0
  1  2  1  0  0  0  0
 21 22  2  0  0  0  0
 21 23  1  0  0  0  0
 19 20  1  0  0  0  0
 17 18  2  0  0  0  0
 17 19  1  0  0  0  0
 14 15  1  0  0  0  0
 14 16  1  0  0  0  0
 14 17  1  0  0  0  0
 11 12  1  0  0  0  0
 11 13  1  0  0  0  0
 11 14  1  0  0  0  0
  9 10  1  0  0  0  0
  9 11  1  0  0  0  0
  9 21  1  0  0  0  0
  7  8  1  0  0  0  0
  7  9  1  0  0  0  0
 25 26  1  0  0  0  0
 25 27  1  0  0  0  0
 25 28  1  0  0  0  0
 23 24  1  0  0  0  0
 23 25  1  0  0  0  0
M  END
$$$$
default_name
  -OEChem-01062215323D

 28 27  0     1  0  0  0  0  0999 V2000
   -3.2133   -3.5565    1.2809 H   0  0  0  0  0  0  0  0  0  0  0  0
   -3.1873   -2.5755    0.8089 C   0  0  0  0  0  0  0  0  0  0  0  0
   -3.8793   -1.9065    1.3169 H   0  0  0  0  0  0  0  0  0  0  0  0
   -3.4623   -2.6685   -0.2401 H   0  0  0  0  0  0  0  0  0  0  0  0
   -1.7863   -2.0195    0.9119 C   0  0  0  0  0  0  0  0  0  0  0  0
   -0.9073   -2.6615    1.4699 O   0  0  0  0  0  0  0  0  0  0  0  0
   -1.5803   -0.8195    0.3749 N   0  0  0  0  0  0  0  0  0  0  0  0
   -2.3603   -0.3345   -0.0451 H   0  0  0  0  0  0  0  0  0  0  0  0
   -0.2933   -0.1205    0.3719 C   0  0  1  0  0  0  0  0  0  0  0  0
    0.1474   -0.2047   -0.6224 H   0  0  0  0  0  0  0  0  0  0  0  0
   -0.5324    1.3733    0.6726 C   0  0  0  0  0  0  0  0  0  0  0  0
   -1.0994    1.4455    1.6023 H   0  0  0  0  0  0  0  0  0  0  0  0
    0.4281    1.8686    0.8216 H   0  0  0  0  0  0  0  0  0  0  0  0
   -1.2993    2.1171   -0.4345 C   0  0  0  0  0  0  0  0  0  0  0  0
   -0.7384    2.0736   -1.3682 H   0  0  0  0  0  0  0  0  0  0  0  0
   -2.2692    1.6425   -0.5787 H   0  0  0  0  0  0  0  0  0  0  0  0
   -1.5364    3.5836   -0.0885 C   0  0  0  0  0  0  0  0  0  0  0  0
   -1.2794    4.0997    0.9873 O   0  0  0  0  0  0  0  0  0  0  0  0
   -2.0825    4.3292   -1.0670 O   0  0  0  0  0  0  0  0  0  0  0  0
   -2.1765    5.2064   -0.6916 H   0  0  0  0  0  0  0  0  0  0  0  0
    0.6701   -0.7723    1.3767 C   0  0  0  0  0  0  0  0  0  0  0  0
    0.2782   -1.0625    2.5053 O   0  0  0  0  0  0  0  0  0  0  0  0
    1.9270   -0.9892    0.9710 N   0  0  0  0  0  0  0  0  0  0  0  0
    2.1696   -0.7454    0.0224 H   0  0  0  0  0  0  0  0  0  0  0  0
    2.9662   -1.5793    1.8124 C   0  0  0  0  0  0  0  0  0  0  0  0
    2.6406   -2.5579    2.1698 H   0  0  0  0  0  0  0  0  0  0  0  0
    3.8920   -1.6939    1.2469 H   0  0  0  0  0  0  0  0  0  0  0  0
    3.1487   -0.9379    2.6769 H   0  0  0  0  0  0  0  0  0  0  0  0
  5  6  2  0  0  0  0
  5  7  1  0  0  0  0
  2  3  1  0  0  0  0
  2  4  1  0  0  0  0
  2  5  1  0  0  0  0
  1  2  1  0  0  0  0
 21 22  2  0  0  0  0
 21 23  1  0  0  0  0
 19 20  1  0  0  0  0
 17 18  2  0  0  0  0
 17 19  1  0  0  0  0
 14 15  1  0  0  0  0
 14 16  1  0  0  0  0
 14 17  1  0  0  0  0
 11 12  1  0  0  0  0
 11 13  1  0  0  0  0
 11 14  1  0  0  0  0
  9 10  1  0  0  0  0
  9 11  1  0  0  0  0
  9 21  1  0  0  0  0
  7  8  1  0  0  0  0
  7  9  1  0  0  0  0
 25 26  1  0  0  0  0
 25 27  1  0  0  0  0
 25 28  1  0  0  0  0
 23 24  1  0  0  0  0
 23 25  1  0  0  0  0
M  END
$$$$
default_name
  -OEChem-01062215323D

 28 27  0     1  0  0  0  0  0999 V2000
   -3.2133   -3.5565    1.2809 H   0  0  0  0  0  0  0  0  0  0  0  0
   -3.1873   -2.5755    0.8089 C   0  0  0  0  0  0  0  0  0  0  0  0
   -3.8793   -1.9065    1.3169 H   0  0  0  0  0  0  0  0  0  0  0  0
   -3.4623   -2.6685   -0.2401 H   0  0  0  0  0  0  0  0  0  0  0  0
   -1.7863   -2.0195    0.9119 C   0  0  0  0  0  0  0  0  0  0  0  0
   -0.9073   -2.6615    1.4699 O   0  0  0  0  0  0  0  0  0  0  0  0
   -1.5803   -0.8195    0.3749 N   0  0  0  0  0  0  0  0  0  0  0  0
   -2.3603   -0.3345   -0.0451 H   0  0  0  0  0  0  0  0  0  0  0  0
   -0.2933   -0.1205    0.3719 C   0  0  1  0  0  0  0  0  0  0  0  0
    0.1474   -0.2047   -0.6224 H   0  0  0  0  0  0  0  0  0  0  0  0
   -0.5324    1.3733    0.6726 C   0  0  0  0  0  0  0  0  0  0  0  0
   -1.0994    1.4455    1.6023 H   0  0  0  0  0  0  0  0  0  0  0  0
    0.4281    1.8686    0.8216 H   0  0  0  0  0  0  0  0  0  0  0  0
   -1.2993    2.1171   -0.4345 C   0  0  0  0  0  0  0  0  0  0  0  0
   -0.7384    2.0736   -1.3682 H   0  0  0  0  0  0  0  0  0  0  0  0
   -2.2692    1.6425   -0.5787 H   0  0  0  0  0  0  0  0  0  0  0  0
   -1.5364    3.5836   -0.0885 C   0  0  0  0  0  0  0  0  0  0  0  0
   -1.2794    4.0997    0.9873 O   0  0  0  0  0  0  0  0  0  0  0  0
   -2.0825    4.3292   -1.0670 O   0  0  0  0  0  0  0  0  0  0  0  0
   -2.1765    5.2064   -0.6916 H   0  0  0  0  0  0  0  0  0  0  0  0
    0.6701   -0.7723    1.3767 C   0  0  0  0  0  0  0  0  0  0  0  0
    0.2299   -1.3109    2.3905 O   0  0  0  0  0  0  0  0  0  0  0  0
    1.9786   -0.7123    1.1013 N   0  0  0  0  0  0  0  0  0  0  0  0
    2.2635   -0.2735    0.2384 H   0  0  0  0  0  0  0  0  0  0  0  0
    3.0208   -1.2638    1.9647 C   0  0  0  0  0  0  0  0  0  0  0  0
    2.8422   -2.3286    2.1253 H   0  0  0  0  0  0  0  0  0  0  0  0
    4.0021   -1.1300    1.5072 H   0  0  0  0  0  0  0  0  0  0  0  0
    3.0024   -0.7596    2.9329 H   0  0  0  0  0  0  0  0  0  0  0  0
  5  6  2  0  0  0  0
  5  7  1  0  0  0  0
  2  3  1  0  0  0  0
  2  4  1  0  0  0  0
  2  5  1  0  0  0  0
  1  2  1  0  0  0  0
 21 22  2  0  0  0  0
 21 23  1  0  0  0  0
 19 20  1  0  0  0  0
 17 18  2  0  0  0  0
 17 19  1  0  0  0  0
 14 15  1  0  0  0  0
 14 16  1  0  0  0  0
 14 17  1  0  0  0  0
 11 12  1  0  0  0  0
 11 13  1  0  0  0  0
 11 14  1  0  0  0  0
  9 10  1  0  0  0  0
  9 11  1  0  0  0  0
  9 21  1  0  0  0  0
  7  8  1  0  0  0  0
  7  9  1  0  0  0  0
 25 26  1  0  0  0  0
 25 27  1  0  0  0  0
 25 28  1  0  0  0  0
 23 24  1  0  0  0  0
 23 25  1  0  0  0  0
M  END
$$$$
default_name
  -OEChem-01062215323D

 28 27  0     1  0  0  0  0  0999 V2000
   -3.2133   -3.5565    1.2809 H   0  0  0  0  0  0  0  0  0  0  0  0
   -3.1873   -2.5755    0.8089 C   0  0  0  0  0  0  0  0  0  0  0  0
   -3.8793   -1.9065    1.3169 H   0  0  0  0  0  0  0  0  0  0  0  0
   -3.4623   -2.6685   -0.2401 H   0  0  0  0  0  0  0  0  0  0  0  0
   -1.7863   -2.0195    0.9119 C   0  0  0  0  0  0  0  0  0  0  0  0
   -0.9073   -2.6615    1.4699 O   0  0  0  0  0  0  0  0  0  0  0  0
   -1.5803   -0.8195    0.3749 N   0  0  0  0  0  0  0  0  0  0  0  0
   -2.3603   -0.3345   -0.0451 H   0  0  0  0  0  0  0  0  0  0  0  0
   -0.2933   -0.1205    0.3719 C   0  0  1  0  0  0  0  0  0  0  0  0
    0.1474   -0.2047   -0.6224 H   0  0  0  0  0  0  0  0  0  0  0  0
   -0.5324    1.3733    0.6726 C   0  0  0  0  0  0  0  0  0  0  0  0
   -1.0994    1.4455    1.6023 H   0  0  0  0  0  0  0  0  0  0  0  0
    0.4281    1.8686    0.8216 H   0  0  0  0  0  0  0  0  0  0  0  0
   -1.2993    2.1171   -0.4345 C   0  0  0  0  0  0  0  0  0  0  0  0
   -0.7384    2.0736   -1.3682 H   0  0  0  0  0  0  0  0  0  0  0  0
   -2.2692    1.6425   -0.5787 H   0  0  0  0  0  0  0  0  0  0  0  0
   -1.5364    3.5836   -0.0885 C   0  0  0  0  0  0  0  0  0  0  0  0
   -1.2794    4.0997    0.9873 O   0  0  0  0  0  0  0  0  0  0  0  0
   -2.0825    4.3292   -1.0670 O   0  0  0  0  0  0  0  0  0  0  0  0
   -2.1765    5.2064   -0.6916 H   0  0  0  0  0  0  0  0  0  0  0  0
    0.6701   -0.7723    1.3767 C   0  0  0  0  0  0  0  0  0  0  0  0
    0.2379   -1.5404    2.2339 O   0  0  0  0  0  0  0  0  0  0  0  0
    1.9672   -0.4571    1.2777 N   0  0  0  0  0  0  0  0  0  0  0  0
    2.2506    0.1631    0.5339 H   0  0  0  0  0  0  0  0  0  0  0  0
    3.0034   -0.9746    2.1689 C   0  0  0  0  0  0  0  0  0  0  0  0
    3.0029   -2.0658    2.1417 H   0  0  0  0  0  0  0  0  0  0  0  0
    3.9844   -0.6088    1.8623 H   0  0  0  0  0  0  0  0  0  0  0  0
    2.8028   -0.6536    3.1930 H   0  0  0  0  0  0  0  0  0  0  0  0
  5  6  2  0  0  0  0
  5  7  1  0  0  0  0
  2  3  1  0  0  0  0
  2  4  1  0  0  0  0
  2  5  1  0  0  0  0
  1  2  1  0  0  0  0
 21 22  2  0  0  0  0
 21 23  1  0  0  0  0
 19 20  1  0  0  0  0
 17 18  2  0  0  0  0
 17 19  1  0  0  0  0
 14 15  1  0  0  0  0
 14 16  1  0  0  0  0
 14 17  1  0  0  0  0
 11 12  1  0  0  0  0
 11 13  1  0  0  0  0
 11 14  1  0  0  0  0
  9 10  1  0  0  0  0
  9 11  1  0  0  0  0
  9 21  1  0  0  0  0
  7  8  1  0  0  0  0
  7  9  1  0  0  0  0
 25 26  1  0  0  0  0
 25 27  1  0  0  0  0
 25 28  1  0  0  0  0
 23 24  1  0  0  0  0
 23 25  1  0  0  0  0
M  END
$$$$
default_name
  -OEChem-01062215323D

 28 27  0     1  0  0  0  0  0999 V2000
   -3.2133   -3.5565    1.2809 H   0  0  0  0  0  0  0  0  0  0  0  0
   -3.1873   -2.5755    0.8089 C   0  0  0  0  0  0  0  0  0  0  0  0
   -3.8793   -1.9065    1.3169 H   0  0  0  0  0  0  0  0  0  0  0  0
   -3.4623   -2.6685   -0.2401 H   0  0  0  0  0  0  0  0  0  0  0  0
   -1.7863   -2.0195    0.9119 C   0  0  0  0  0  0  0  0  0  0  0  0
   -0.9073   -2.6615    1.4699 O   0  0  0  0  0  0  0  0  0  0  0  0
   -1.5803   -0.8195    0.3749 N   0  0  0  0  0  0  0  0  0  0  0  0
   -2.3603   -0.3345   -0.0451 H   0  0  0  0  0  0  0  0  0  0  0  0
   -0.2933   -0.1205    0.3719 C   0  0  1  0  0  0  0  0  0  0  0  0
    0.0200    0.0298   -0.6622 H   0  0  0  0  0  0  0  0  0  0  0  0
   -0.4713    1.2623    1.0316 C   0  0  0  0  0  0  0  0  0  0  0  0
   -0.9180    1.1133    2.0161 H   0  0  0  0  0  0  0  0  0  0  0  0
    0.5075    1.7239    1.1694 H   0  0  0  0  0  0  0  0  0  0  0  0
   -1.3579    2.2278    0.2261 C   0  0  0  0  0  0  0  0  0  0  0  0
   -0.9173    2.4055   -0.7549 H   0  0  0  0  0  0  0  0  0  0  0  0
   -2.3451    1.7852    0.0988 H   0  0  0  0  0  0  0  0  0  0  0  0
   -1.5287    3.5737    0.9231 C   0  0  0  0  0  0  0  0  0  0  0  0
   -1.1332    3.8351    2.0479 O   0  0  0  0  0  0  0  0  0  0  0  0
   -2.1803    4.5148    0.2150 O   0  0  0  0  0  0  0  0  0  0  0  0
   -2.2143    5.2823    0.7887 H   0  0  0  0  0  0  0  0  0  0  0  0
    0.7770   -0.9704    1.0751 C   0  0  0  0  0  0  0  0  0  0  0  0
    0.4798   -2.0655    1.5486 O   0  0  0  0  0  0  0  0  0  0  0  0
    2.0127   -0.4619    1.1525 N   0  0  0  0  0  0  0  0  0  0  0  0
    2.1867    0.4333    0.7205 H   0  0  0  0  0  0  0  0  0  0  0  0
    3.1332   -1.1350    1.8063 C   0  0  0  0  0  0  0  0  0  0  0  0
    3.2887   -2.1166    1.3549 H   0  0  0  0  0  0  0  0  0  0  0  0
    4.0440   -0.5438    1.7013 H   0  0  0  0  0  0  0  0  0  0  0  0
    2.9126   -1.2723    2.8667 H   0  0  0  0  0  0  0  0  0  0  0  0
  5  6  2  0  0  0  0
  5  7  1  0  0  0  0
  2  3  1  0  0  0  0
  2  4  1  0  0  0  0
  2  5  1  0  0  0  0
  1  2  1  0  0  0  0
 21 22  2  0  0  0  0
 21 23  1  0  0  0  0
 19 20  1  0  0  0  0
 17 18  2  0  0  0  0
 17 19  1  0  0  0  0
 14 15  1  0  0  0  0
 14 16  1  0  0  0  0
 14 17  1  0  0  0  0
 11 12  1  0  0  0  0
 11 13  1  0  0  0  0
 11 14  1  0  0  0  0
  9 10  1  0  0  0  0
  9 11  1  0  0  0  0
  9 21  1  0  0  0  0
  7  8  1  0  0  0  0
  7  9  1  0  0  0  0
 25 26  1  0  0  0  0
 25 27  1  0  0  0  0
 25 28  1  0  0  0  0
 23 24  1  0  0  0  0
 23 25  1  0  0  0  0
M  END
$$$$
default_name
  -OEChem-01062215323D

 28 27  0     1  0  0  0  0  0999 V2000
   -3.2133   -3.5565    1.2809 H   0  0  0  0  0  0  0  0  0  0  0  0
   -3.1873   -2.5755    0.8089 C   0  0  0  0  0  0  0  0  0  0  0  0
   -3.8793   -1.9065    1.3169 H   0  0  0  0  0  0  0  0  0  0  0  0
   -3.4623   -2.6685   -0.2401 H   0  0  0  0  0  0  0  0  0  0  0  0
   -1.7863   -2.0195    0.9119 C   0  0  0  0  0  0  0  0  0  0  0  0
   -0.9073   -2.6615    1.4699 O   0  0  0  0  0  0  0  0  0  0  0  0
   -1.5803   -0.8195    0.3749 N   0  0  0  0  0  0  0  0  0  0  0  0
   -2.3603   -0.3345   -0.0451 H   0  0  0  0  0  0  0  0  0  0  0  0
   -0.2933   -0.1205    0.3719 C   0  0  1  0  0  0  0  0  0  0  0  0
    0.0200    0.0298   -0.6622 H   0  0  0  0  0  0  0  0  0  0  0  0
   -0.4713    1.2623    1.0316 C   0  0  0  0  0  0  0  0  0  0  0  0
   -0.9180    1.1133    2.0161 H   0  0  0  0  0  0  0  0  0  0  0  0
    0.5075    1.7239    1.1694 H   0  0  0  0  0  0  0  0  0  0  0  0
   -1.3579    2.2278    0.2261 C   0  0  0  0  0  0  0  0  0  0  0  0
   -0.9173    2.4055   -0.7549 H   0  0  0  0  0  0  0  0  0  0  0  0
   -2.3451    1.7852    0.0988 H   0  0  0  0  0  0  0  0  0  0  0  0
   -1.5287    3.5737    0.9231 C   0  0  0  0  0  0  0  0  0  0  0  0
   -1.1332    3.8351    2.0479 O   0  0  0  0  0  0  0  0  0  0  0  0
   -2.1803    4.5148    0.2150 O   0  0  0  0  0  0  0  0  0  0  0  0
   -2.2143    5.2823    0.7887 H   0  0  0  0  0  0  0  0  0  0  0  0
    0.7770   -0.9704    1.0751 C   0  0  0  0  0  0  0  0  0  0  0  0
    0.5664   -2.1603    1.3021 O   0  0  0  0  0  0  0  0  0  0  0  0
    1.9139   -0.3584    1.4279 N   0  0  0  0  0  0  0  0  0  0  0  0
    2.0242    0.6155    1.1880 H   0  0  0  0  0  0  0  0  0  0  0  0
    3.0167   -1.0211    2.1211 C   0  0  0  0  0  0  0  0  0  0  0  0
    3.3584   -1.8778    1.5374 H   0  0  0  0  0  0  0  0  0  0  0  0
    3.8477   -0.3281    2.2607 H   0  0  0  0  0  0  0  0  0  0  0  0
    2.6779   -1.3787    3.0955 H   0  0  0  0  0  0  0  0  0  0  0  0
  5  6  2  0  0  0  0
  5  7  1  0  0  0  0
  2  3  1  0  0  0  0
  2  4  1  0  0  0  0
  2  5  1  0  0  0  0
  1  2  1  0  0  0  0
 21 22  2  0  0  0  0
 21 23  1  0  0  0  0
 19 20  1  0  0  0  0
 17 18  2  0  0  0  0
 17 19  1  0  0  0  0
 14 15  1  0  0  0  0
 14 16  1  0  0  0  0
 14 17  1  0  0  0  0
 11 12  1  0  0  0  0
 11 13  1  0  0  0  0
 11 14  1  0  0  0  0
  9 10  1  0  0  0  0
  9 11  1  0  0  0  0
  9 21  1  0  0  0  0
  7  8  1  0  0  0  0
  7  9  1  0  0  0  0
 25 26  1  0  0  0  0
 25 27  1  0  0  0  0
 25 28  1  0  0  0  0
 23 24  1  0  0  0  0
 23 25  1  0  0  0  0
M  END
$$$$
default_name
  -OEChem-01062215323D

 28 27  0     1  0  0  0  0  0999 V2000
   -3.2133   -3.5565    1.2809 H   0  0  0  0  0  0  0  0  0  0  0  0
   -3.1873   -2.5755    0.8089 C   0  0  0  0  0  0  0  0  0  0  0  0
   -3.8793   -1.9065    1.3169 H   0  0  0  0  0  0  0  0  0  0  0  0
   -3.4623   -2.6685   -0.2401 H   0  0  0  0  0  0  0  0  0  0  0  0
   -1.7863   -2.0195    0.9119 C   0  0  0  0  0  0  0  0  0  0  0  0
   -0.9073   -2.6615    1.4699 O   0  0  0  0  0  0  0  0  0  0  0  0
   -1.5803   -0.8195    0.3749 N   0  0  0  0  0  0  0  0  0  0  0  0
   -2.3603   -0.3345   -0.0451 H   0  0  0  0  0  0  0  0  0  0  0  0
   -0.2933   -0.1205    0.3719 C   0  0  1  0  0  0  0  0  0  0  0  0
    0.0200    0.0298   -0.6622 H   0  0  0  0  0  0  0  0  0  0  0  0
   -0.4713    1.2623    1.0316 C   0  0  0  0  0  0  0  0  0  0  0  0
   -0.9180    1.1133    2.0161 H   0  0  0  0  0  0  0  0  0  0  0  0
    0.5075    1.7239    1.1694 H   0  0  0  0  0  0  0  0  0  0  0  0
   -1.3579    2.2278    0.2261 C   0  0  0  0  0  0  0  0  0  0  0  0
   -0.9173    2.4055   -0.7549 H   0  0  0  0  0  0  0  0  0  0  0  0
   -2.3451    1.7852    0.0988 H   0  0  0  0  0  0  0  0  0  0  0  0
   -1.5287    3.5737    0.9231 C   0  0  0  0  0  0  0  0  0  0  0  0
   -1.1332    3.8351    2.0479 O   0  0  0  0  0  0  0  0  0  0  0  0
   -2.1803    4.5148    0.2150 O   0  0  0  0  0  0  0  0  0  0  0  0
   -2.2143    5.2823    0.7887 H   0  0  0  0  0  0  0  0  0  0  0  0
    0.7770   -0.9704    1.0751 C   0  0  0  0  0  0  0  0  0  0  0  0
    0.6966   -2.1972    1.0594 O   0  0  0  0  0  0  0  0  0  0  0  0
    1.7668   -0.3198    1.6985 N   0  0  0  0  0  0  0  0  0  0  0  0
    1.7788    0.6880    1.6491 H   0  0  0  0  0  0  0  0  0  0  0  0
    2.8458   -0.9816    2.4291 C   0  0  0  0  0  0  0  0  0  0  0  0
    3.3713   -1.6719    1.7667 H   0  0  0  0  0  0  0  0  0  0  0  0
    3.5525   -0.2439    2.8118 H   0  0  0  0  0  0  0  0  0  0  0  0
    2.4310   -1.5504    3.2637 H   0  0  0  0  0  0  0  0  0  0  0  0
  5  6  2  0  0  0  0
  5  7  1  0  0  0  0
  2  3  1  0  0  0  0
  2  4  1  0  0  0  0
  2  5  1  0  0  0  0
  1  2  1  0  0  0  0
 21 22  2  0  0  0  0
 21 23  1  0  0  0  0
 19 20  1  0  0  0  0
 17 18  2  0  0  0  0
 17 19  1  0  0  0  0
 14 15  1  0  0  0  0
 14 16  1  0  0  0  0
 14 17  1  0  0  0  0
 11 12  1  0  0  0  0
 11 13  1  0  0  0  0
 11 14  1  0  0  0  0
  9 10  1  0  0  0  0
  9 11  1  0  0  0  0
  9 21  1  0  0  0  0
  7  8  1  0  0  0  0
  7  9  1  0  0  0  0
 25 26  1  0  0  0  0
 25 27  1  0  0  0  0
 25 28  1  0  0  0  0
 23 24  1  0  0  0  0
 23 25  1  0  0  0  0
M  END
$$$$
default_name
  -OEChem-01062215323D

 28 27  0     1  0  0  0  0  0999 V2000
   -3.2133   -3.5565    1.2809 H   0  0  0  0  0  0  0  0  0  0  0  0
   -3.1873   -2.5755    0.8089 C   0  0  0  0  0  0  0  0  0  0  0  0
   -3.8793   -1.9065    1.3169 H   0  0  0  0  0  0  0  0  0  0  0  0
   -3.4623   -2.6685   -0.2401 H   0  0  0  0  0  0  0  0  0  0  0  0
   -1.7863   -2.0195    0.9119 C   0  0  0  0  0  0  0  0  0  0  0  0
   -0.9073   -2.6615    1.4699 O   0  0  0  0  0  0  0  0  0  0  0  0
   -1.5803   -0.8195    0.3749 N   0  0  0  0  0  0  0  0  0  0  0  0
   -2.3603   -0.3345   -0.0451 H   0  0  0  0  0  0  0  0  0  0  0  0
   -0.2933   -0.1205    0.3719 C   0  0  1  0  0  0  0  0  0  0  0  0
    0.0200    0.0298   -0.6622 H   0  0  0  0  0  0  0  0  0  0  0  0
   -0.4713    1.2623    1.0316 C   0  0  0  0  0  0  0  0  0  0  0  0
   -0.9180    1.1133    2.0161 H   0  0  0  0  0  0  0  0  0  0  0  0
    0.5075    1.7239    1.1694 H   0  0  0  0  0  0  0  0  0  0  0  0
   -1.3579    2.2278    0.2261 C   0  0  0  0  0  0  0  0  0  0  0  0
   -0.9173    2.4055   -0.7549 H   0  0  0  0  0  0  0  0  0  0  0  0
   -2.3451    1.7852    0.0988 H   0  0  0  0  0  0  0  0  0  0  0  0
   -1.5287    3.5737    0.9231 C   0  0  0  0  0  0  0  0  0  0  0  0
   -1.1332    3.8351    2.0479 O   0  0  0  0  0  0  0  0  0  0  0  0
   -2.1803    4.5148    0.2150 O   0  0  0  0  0  0  0  0  0  0  0  0
   -2.2143    5.2823    0.7887 H   0  0  0  0  0  0  0  0  0  0  0  0
    0.7770   -0.9704    1.0751 C   0  0  0  0  0  0  0  0  0  0  0  0
    0.8615   -2.1737    0.8369 O   0  0  0  0  0  0  0  0  0  0  0  0
    1.5814   -0.3487    1.9457 N   0  0  0  0  0  0  0  0  0  0  0  0
    1.4671    0.6458    2.0725 H   0  0  0  0  0  0  0  0  0  0  0  0
    2.6318   -1.0192    2.7093 C   0  0  0  0  0  0  0  0  0  0  0  0
    3.3265   -1.5127    2.0272 H   0  0  0  0  0  0  0  0  0  0  0  0
    3.1785   -0.2968    3.3170 H   0  0  0  0  0  0  0  0  0  0  0  0
    2.1888   -1.7758    3.3598 H   0  0  0  0  0  0  0  0  0  0  0  0
  5  6  2  0  0  0  0
  5  7  1  0  0  0  0
  2  3  1  0  0  0  0
  2  4  1  0  0  0  0
  2  5  1  0  0  0  0
  1  2  1  0  0  0  0
 21 22  2  0  0  0  0
 21 23  1  0  0  0  0
 19 20  1  0  0  0  0
 17 18  2  0  0  0  0
 17 19  1  0  0  0  0
 14 15  1  0  0  0  0
 14 16  1  0  0  0  0
 14 17  1  0  0  0  0
 11 12  1  0  0  0  0
 11 13  1  0  0  0  0
 11 14  1  0  0  0  0
  9 10  1  0  0  0  0
  9 11  1  0  0  0  0
  9 21  1  0  0  0  0
  7  8  1  0  0  0  0
  7  9  1  0  0  0  0
 25 26  1  0  0  0  0
 25 27  1  0  0  0  0
 25 28  1  0  0  0  0
 23 24  1  0  0  0  0
 23 25  1  0  0  0  0
M  END
$$$$
default_name
  -OEChem-01062215323D

 28 27  0     1  0  0  0  0  0999 V2000
   -3.2133   -3.5565    1.2809 H   0  0  0  0  0  0  0  0  0  0  0  0
   -3.1873   -2.5755    0.8089 C   0  0  0  0  0  0  0  0  0  0  0  0
   -3.8793   -1.9065    1.3169 H   0  0  0  0  0  0  0  0  0  0  0  0
   -3.4623   -2.6685   -0.2401 H   0  0  0  0  0  0  0  0  0  0  0  0
   -1.7863   -2.0195    0.9119 C   0  0  0  0  0  0  0  0  0  0  0  0
   -0.9073   -2.6615    1.4699 O   0  0  0  0  0  0  0  0  0  0  0  0
   -1.5803   -0.8195    0.3749 N   0  0  0  0  0  0  0  0  0  0  0  0
   -2.3603   -0.3345   -0.0451 H   0  0  0  0  0  0  0  0  0  0  0  0
   -0.2933   -0.1205    0.3719 C   0  0  1  0  0  0  0  0  0  0  0  0
    0.0200    0.0298   -0.6622 H   0  0  0  0  0  0  0  0  0  0  0  0
   -0.4713    1.2623    1.0316 C   0  0  0  0  0  0  0  0  0  0  0  0
   -0.9180    1.1133    2.0161 H   0  0  0  0  0  0  0  0  0  0  0  0
    0.5075    1.7239    1.1694 H   0  0  0  0  0  0  0  0  0  0  0  0
   -1.3579    2.2278    0.2261 C   0  0  0  0  0  0  0  0  0  0  0  0
   -0.9173    2.4055   -0.7549 H   0  0  0  0  0  0  0  0  0  0  0  0
   -2.3451    1.7852    0.0988 H   0  0  0  0  0  0  0  0  0  0  0  0
   -1.5287    3.5737    0.9231 C   0  0  0  0  0  0  0  0  0  0  0  0
   -1.1332    3.8351    2.0479 O   0  0  0  0  0  0  0  0  0  0  0  0
   -2.1803    4.5148    0.2150 O   0  0  0  0  0  0  0  0  0  0  0  0
   -2.2143    5.2823    0.7887 H   0  0  0  0  0  0  0  0  0  0  0  0
    0.7770   -0.9704    1.0751 C   0  0  0  0  0  0  0  0  0  0  0  0
    1.0498   -2.0913    0.6499 O   0  0  0  0  0  0  0  0  0  0  0  0
    1.3704   -0.4431    2.1528 N   0  0  0  0  0  0  0  0  0  0  0  0
    1.1105    0.4919    2.4293 H   0  0  0  0  0  0  0  0  0  0  0  0
    2.3895   -1.1313    2.9425 C   0  0  0  0  0  0  0  0  0  0  0  0
    3.2272   -1.4112    2.3010 H   0  0  0  0  0  0  0  0  0  0  0  0
    2.7512   -0.4832    3.7420 H   0  0  0  0  0  0  0  0  0  0  0  0
    1.9678   -2.0396    3.3775 H   0  0  0  0  0  0  0  0  0  0  0  0
  5  6  2  0  0  0  0
  5  7  1  0  0  0  0
  2  3  1  0  0  0  0
  2  4  1  0  0  0  0
  2  5  1  0  0  0  0
  1  2  1  0  0  0  0
 21 22  2  0  0  0  0
 21 23  1  0  0  0  0
 19 20  1  0  0  0  0
 17 18  2  0  0  0  0
 17 19  1  0  0  0  0
 14 15  1  0  0  0  0
 14 16  1  0  0  0  0
 14 17  1  0  0  0  0
 11 12  1  0  0  0  0
 11 13  1  0  0  0  0
 11 14  1  0  0  0  0
  9 10  1  0  0  0  0
  9 11  1  0  0  0  0
  9 21  1  0  0  0  0
  7  8  1  0  0  0  0
  7  9  1  0  0  0  0
 25 26  1  0  0  0  0
 25 27  1  0  0  0  0
 25 28  1  0  0  0  0
 23 24  1  0  0  0  0
 23 25  1  0  0  0  0
M  END
$$$$
default_name
  -OEChem-01062215323D

 28 27  0     1  0  0  0  0  0999 V2000
   -3.2133   -3.5565    1.2809 H   0  0  0  0  0  0  0  0  0  0  0  0
   -3.1873   -2.5755    0.8089 C   0  0  0  0  0  0  0  0  0  0  0  0
   -3.8793   -1.9065    1.3169 H   0  0  0  0  0  0  0  0  0  0  0  0
   -3.4623   -2.6685   -0.2401 H   0  0  0  0  0  0  0  0  0  0  0  0
   -1.7863   -2.0195    0.9119 C   0  0  0  0  0  0  0  0  0  0  0  0
   -0.9073   -2.6615    1.4699 O   0  0  0  0  0  0  0  0  0  0  0  0
   -1.5803   -0.8195    0.3749 N   0  0  0  0  0  0  0  0  0  0  0  0
   -2.3603   -0.3345   -0.0451 H   0  0  0  0  0  0  0  0  0  0  0  0
   -0.2933   -0.1205    0.3719 C   0  0  1  0  0  0  0  0  0  0  0  0
    0.0200    0.0298   -0.6622 H   0  0  0  0  0  0  0  0  0  0  0  0
   -0.4713    1.2623    1.0316 C   0  0  0  0  0  0  0  0  0  0  0  0
   -0.9180    1.1133    2.0161 H   0  0  0  0  0  0  0  0  0  0  0  0
    0.5075    1.7239    1.1694 H   0  0  0  0  0  0  0  0  0  0  0  0
   -1.3579    2.2278    0.2261 C   0  0  0  0  0  0  0  0  0  0  0  0
   -0.9173    2.4055   -0.7549 H   0  0  0  0  0  0  0  0  0  0  0  0
   -2.3451    1.7852    0.0988 H   0  0  0  0  0  0  0  0  0  0  0  0
   -1.5287    3.5737    0.9231 C   0  0  0  0  0  0  0  0  0  0  0  0
   -1.1332    3.8351    2.0479 O   0  0  0  0  0  0  0  0  0  0  0  0
   -2.1803    4.5148    0.2150 O   0  0  0  0  0  0  0  0  0  0  0  0
   -2.2143    5.2823    0.7887 H   0  0  0  0  0  0  0  0  0  0  0  0
    0.7770   -0.9704    1.0751 C   0  0  0  0  0  0  0  0  0  0  0  0
    1.2487   -1.9558    0.5110 O   0  0  0  0  0  0  0  0  0  0  0  0
    1.1480   -0.5966    2.3057 N   0  0  0  0  0  0  0  0  0  0  0  0
    0.7332    0.2367    2.6951 H   0  0  0  0  0  0  0  0  0  0  0  0
    2.1354   -1.3104    3.1128 C   0  0  0  0  0  0  0  0  0  0  0  0
    3.0800   -1.3743    2.5696 H   0  0  0  0  0  0  0  0  0  0  0  0
    2.2998   -0.7905    4.0577 H   0  0  0  0  0  0  0  0  0  0  0  0
    1.7830   -2.3237    3.3153 H   0  0  0  0  0  0  0  0  0  0  0  0
  5  6  2  0  0  0  0
  5  7  1  0  0  0  0
  2  3  1  0  0  0  0
  2  4  1  0  0  0  0
  2  5  1  0  0  0  0
  1  2  1  0  0  0  0
 21 22  2  0  0  0  0
 21 23  1  0  0  0  0
 19 20  1  0  0  0  0
 17 18  2  0  0  0  0
 17 19  1  0  0  0  0
 14 15  1  0  0  0  0
 14 16  1  0  0  0  0
 14 17  1  0  0  0  0
 11 12  1  0  0  0  0
 11 13  1  0  0  0  0
 11 14  1  0  0  0  0
  9 10  1  0  0  0  0
  9 11  1  0  0  0  0
  9 21  1  0  0  0  0
  7  8  1  0  0  0  0
  7  9  1  0  0  0  0
 25 26  1  0  0  0  0
 25 27  1  0  0  0  0
 25 28  1  0  0  0  0
 23 24  1  0  0  0  0
 23 25  1  0  0  0  0
M  END
$$$$
default_name
  -OEChem-01062215323D

 28 27  0     1  0  0  0  0  0999 V2000
   -3.2133   -3.5565    1.2809 H   0  0  0  0  0  0  0  0  0  0  0  0
   -3.1873   -2.5755    0.8089 C   0  0  0  0  0  0  0  0  0  0  0  0
   -3.8793   -1.9065    1.3169 H   0  0  0  0  0  0  0  0  0  0  0  0
   -3.4623   -2.6685   -0.2401 H   0  0  0  0  0  0  0  0  0  0  0  0
   -1.7863   -2.0195    0.9119 C   0  0  0  0  0  0  0  0  0  0  0  0
   -0.9073   -2.6615    1.4699 O   0  0  0  0  0  0  0  0  0  0  0  0
   -1.5803   -0.8195    0.3749 N   0  0  0  0  0  0  0  0  0  0  0  0
   -2.3603   -0.3345   -0.0451 H   0  0  0  0  0  0  0  0  0  0  0  0
   -0.2933   -0.1205    0.3719 C   0  0  1  0  0  0  0  0  0  0  0  0
    0.0200    0.0298   -0.6622 H   0  0  0  0  0  0  0  0  0  0  0  0
   -0.4713    1.2623    1.0316 C   0  0  0  0  0  0  0  0  0  0  0  0
   -0.9180    1.1133    2.0161 H   0  0  0  0  0  0  0  0  0  0  0  0
    0.5075    1.7239    1.1694 H   0  0  0  0  0  0  0  0  0  0  0  0
   -1.3579    2.2278    0.2261 C   0  0  0  0  0  0  0  0  0  0  0  0
   -0.9173    2.4055   -0.7549 H   0  0  0  0  0  0  0  0  0  0  0  0
   -2.3451    1.7852    0.0988 H   0  0  0  0  0  0  0  0  0  0  0  0
   -1.5287    3.5737    0.9231 C   0  0  0  0  0  0  0  0  0  0  0  0
   -1.1332    3.8351    2.0479 O   0  0  0  0  0  0  0  0  0  0  0  0
   -2.1803    4.5148    0.2150 O   0  0  0  0  0  0  0  0  0  0  0  0
   -2.2143    5.2823    0.7887 H   0  0  0  0  0  0  0  0  0  0  0  0
    0.7770   -0.9704    1.0751 C   0  0  0  0  0  0  0  0  0  0  0  0
    1.4446   -1.7763    0.4297 O   0  0  0  0  0  0  0  0  0  0  0  0
    0.9296   -0.7988    2.3938 N   0  0  0  0  0  0  0  0  0  0  0  0
    0.3609   -0.1024    2.8518 H   0  0  0  0  0  0  0  0  0  0  0  0
    1.8868   -1.5441    3.2088 C   0  0  0  0  0  0  0  0  0  0  0  0
    2.8950   -1.4045    2.8147 H   0  0  0  0  0  0  0  0  0  0  0  0
    1.8549   -1.1977    4.2427 H   0  0  0  0  0  0  0  0  0  0  0  0
    1.6470   -2.6088    3.1776 H   0  0  0  0  0  0  0  0  0  0  0  0
  5  6  2  0  0  0  0
  5  7  1  0  0  0  0
  2  3  1  0  0  0  0
  2  4  1  0  0  0  0
  2  5  1  0  0  0  0
  1  2  1  0  0  0  0
 21 22  2  0  0  0  0
 21 23  1  0  0  0  0
 19 20  1  0  0  0  0
 17 18  2  0  0  0  0
 17 19  1  0  0  0  0
 14 15  1  0  0  0  0
 14 16  1  0  0  0  0
 14 17  1  0  0  0  0
 11 12  1  0  0  0  0
 11 13  1  0  0  0  0
 11 14  1  0  0  0  0
  9 10  1  0  0  0  0
  9 11  1  0  0  0  0
  9 21  1  0  0  0  0
  7  8  1  0  0  0  0
  7  9  1  0  0  0  0
 25 26  1  0  0  0  0
 25 27  1  0  0  0  0
 25 28  1  0  0  0  0
 23 24  1  0  0  0  0
 23 25  1  0  0  0  0
M  END
$$$$
default_name
  -OEChem-01062215323D

 28 27  0     1  0  0  0  0  0999 V2000
   -3.2133   -3.5565    1.2809 H   0  0  0  0  0  0  0  0  0  0  0  0
   -3.1873   -2.5755    0.8089 C   0  0  0  0  0  0  0  0  0  0  0  0
   -3.8793   -1.9065    1.3169 H   0  0  0  0  0  0  0  0  0  0  0  0
   -3.4623   -2.6685   -0.2401 H   0  0  0  0  0  0  0  0  0  0  0  0
   -1.7863   -2.0195    0.9119 C   0  0  0  0  0  0  0  0  0  0  0  0
   -0.9073   -2.6615    1.4699 O   0  0  0  0  0  0  0  0  0  0  0  0
   -1.5803   -0.8195    0.3749 N   0  0  0  0  0  0  0  0  0  0  0  0
   -2.3603   -0.3345   -0.0451 H   0  0  0  0  0  0  0  0  0  0  0  0
   -0.2933   -0.1205    0.3719 C   0  0  1  0  0  0  0  0  0  0  0  0
    0.0200    0.0298   -0.6622 H   0  0  0  0  0  0  0  0  0  0  0  0
   -0.4713    1.2623    1.0316 C   0  0  0  0  0  0  0  0  0  0  0  0
   -0.9180    1.1133    2.0161 H   0  0  0  0  0  0  0  0  0  0  0  0
    0.5075    1.7239    1.1694 H   0  0  0  0  0  0  0  0  0  0  0  0
   -1.3579    2.2278    0.2261 C   0  0  0  0  0  0  0  0  0  0  0  0
   -0.9173    2.4055   -0.7549 H   0  0  0  0  0  0  0  0  0  0  0  0
   -2.3451    1.7852    0.0988 H   0  0  0  0  0  0  0  0  0  0  0  0
   -1.5287    3.5737    0.9231 C   0  0  0  0  0  0  0  0  0  0  0  0
   -1.1332    3.8351    2.0479 O   0  0  0  0  0  0  0  0  0  0  0  0
   -2.1803    4.5148    0.2150 O   0  0  0  0  0  0  0  0  0  0  0  0
   -2.2143    5.2823    0.7887 H   0  0  0  0  0  0  0  0  0  0  0  0
    0.7770   -0.9704    1.0751 C   0  0  0  0  0  0  0  0  0  0  0  0
    1.6243   -1.5650    0.4116 O   0  0  0  0  0  0  0  0  0  0  0  0
    0.7299   -1.0358    2.4112 N   0  0  0  0  0  0  0  0  0  0  0  0
    0.0191   -0.5022    2.8889 H   0  0  0  0  0  0  0  0  0  0  0  0
    1.6606   -1.8166    3.2237 C   0  0  0  0  0  0  0  0  0  0  0  0
    2.6849   -1.4997    3.0195 H   0  0  0  0  0  0  0  0  0  0  0  0
    1.4469   -1.6770    4.2844 H   0  0  0  0  0  0  0  0  0  0  0  0
    1.5691   -2.8755    2.9738 H   0  0  0  0  0  0  0  0  0  0  0  0
  5  6  2  0  0  0  0
  5  7  1  0  0  0  0
  2  3  1  0  0  0  0
  2  4  1  0  0  0  0
  2  5  1  0  0  0  0
  1  2  1  0  0  0  0
 21 22  2  0  0  0  0
 21 23  1  0  0  0  0
 19 20  1  0  0  0  0
 17 18  2  0  0  0  0
 17 19  1  0  0  0  0
 14 15  1  0  0  0  0
 14 16  1  0  0  0  0
 14 17  1  0  0  0  0
 11 12  1  0  0  0  0
 11 13  1  0  0  0  0
 11 14  1  0  0  0  0
  9 10  1  0  0  0  0
  9 11  1  0  0  0  0
  9 21  1  0  0  0  0
  7  8  1  0  0  0  0
  7  9  1  0  0  0  0
 25 26  1  0  0  0  0
 25 27  1  0  0  0  0
 25 28  1  0  0  0  0
 23 24  1  0  0  0  0
 23 25  1  0  0  0  0
M  END
$$$$
default_name
  -OEChem-01062215323D

 28 27  0     1  0  0  0  0  0999 V2000
   -3.2133   -3.5565    1.2809 H   0  0  0  0  0  0  0  0  0  0  0  0
   -3.1873   -2.5755    0.8089 C   0  0  0  0  0  0  0  0  0  0  0  0
   -3.8793   -1.9065    1.3169 H   0  0  0  0  0  0  0  0  0  0  0  0
   -3.4623   -2.6685   -0.2401 H   0  0  0  0  0  0  0  0  0  0  0  0
   -1.7863   -2.0195    0.9119 C   0  0  0  0  0  0  0  0  0  0  0  0
   -0.9073   -2.6615    1.4699 O   0  0  0  0  0  0  0  0  0  0  0  0
   -1.5803   -0.8195    0.3749 N   0  0  0  0  0  0  0  0  0  0  0  0
   -2.3603   -0.3345   -0.0451 H   0  0  0  0  0  0  0  0  0  0  0  0
   -0.2933   -0.1205    0.3719 C   0  0  1  0  0  0  0  0  0  0  0  0
    0.0200    0.0298   -0.6622 H   0  0  0  0  0  0  0  0  0  0  0  0
   -0.4713    1.2623    1.0316 C   0  0  0  0  0  0  0  0  0  0  0  0
   -0.9180    1.1133    2.0161 H   0  0  0  0  0  0  0  0  0  0  0  0
    0.5075    1.7239    1.1694 H   0  0  0  0  0  0  0  0  0  0  0  0
   -1.3579    2.2278    0.2261 C   0  0  0  0  0  0  0  0  0  0  0  0
   -0.9173    2.4055   -0.7549 H   0  0  0  0  0  0  0  0  0  0  0  0
   -2.3451    1.7852    0.0988 H   0  0  0  0  0  0  0  0  0  0  0  0
   -1.5287    3.5737    0.9231 C   0  0  0  0  0  0  0  0  0  0  0  0
   -1.1332    3.8351    2.0479 O   0  0  0  0  0  0  0  0  0  0  0  0
   -2.1803    4.5148    0.2150 O   0  0  0  0  0  0  0  0  0  0  0  0
   -2.2143    5.2823    0.7887 H   0  0  0  0  0  0  0  0  0  0  0  0
    0.7770   -0.9704    1.0751 C   0  0  0  0  0  0  0  0  0  0  0  0
    1.7754   -1.3364    0.4579 O   0  0  0  0  0  0  0  0  0  0  0  0
    0.5626   -1.2915    2.3567 N   0  0  0  0  0  0  0  0  0  0  0  0
   -0.2691   -0.9356    2.8036 H   0  0  0  0  0  0  0  0  0  0  0  0
    1.4722   -2.1093    3.1567 C   0  0  0  0  0  0  0  0  0  0  0  0
    2.4639   -1.6535    3.1700 H   0  0  0  0  0  0  0  0  0  0  0  0
    1.1036   -2.1958    4.1798 H   0  0  0  0  0  0  0  0  0  0  0  0
    1.5547   -3.1056    2.7177 H   0  0  0  0  0  0  0  0  0  0  0  0
  5  6  2  0  0  0  0
  5  7  1  0  0  0  0
  2  3  1  0  0  0  0
  2  4  1  0  0  0  0
  2  5  1  0  0  0  0
  1  2  1  0  0  0  0
 21 22  2  0  0  0  0
 21 23  1  0  0  0  0
 19 20  1  0  0  0  0
 17 18  2  0  0  0  0
 17 19  1  0  0  0  0
 14 15  1  0  0  0  0
 14 16  1  0  0  0  0
 14 17  1  0  0  0  0
 11 12  1  0  0  0  0
 11 13  1  0  0  0  0
 11 14  1  0  0  0  0
  9 10  1  0  0  0  0
  9 11  1  0  0  0  0
  9 21  1  0  0  0  0
  7  8  1  0  0  0  0
  7  9  1  0  0  0  0
 25 26  1  0  0  0  0
 25 27  1  0  0  0  0
 25 28  1  0  0  0  0
 23 24  1  0  0  0  0
 23 25  1  0  0  0  0
M  END
$$$$
default_name
  -OEChem-01062215323D

 28 27  0     1  0  0  0  0  0999 V2000
   -3.2133   -3.5565    1.2809 H   0  0  0  0  0  0  0  0  0  0  0  0
   -3.1873   -2.5755    0.8089 C   0  0  0  0  0  0  0  0  0  0  0  0
   -3.8793   -1.9065    1.3169 H   0  0  0  0  0  0  0  0  0  0  0  0
   -3.4623   -2.6685   -0.2401 H   0  0  0  0  0  0  0  0  0  0  0  0
   -1.7863   -2.0195    0.9119 C   0  0  0  0  0  0  0  0  0  0  0  0
   -0.9073   -2.6615    1.4699 O   0  0  0  0  0  0  0  0  0  0  0  0
   -1.5803   -0.8195    0.3749 N   0  0  0  0  0  0  0  0  0  0  0  0
   -2.3603   -0.3345   -0.0451 H   0  0  0  0  0  0  0  0  0  0  0  0
   -0.2933   -0.1205    0.3719 C   0  0  1  0  0  0  0  0  0  0  0  0
    0.0200    0.0298   -0.6622 H   0  0  0  0  0  0  0  0  0  0  0  0
   -0.4713    1.2623    1.0316 C   0  0  0  0  0  0  0  0  0  0  0  0
   -0.9180    1.1133    2.0161 H   0  0  0  0  0  0  0  0  0  0  0  0
    0.5075    1.7239    1.1694 H   0  0  0  0  0  0  0  0  0  0  0  0
   -1.3579    2.2278    0.2261 C   0  0  0  0  0  0  0  0  0  0  0  0
   -0.9173    2.4055   -0.7549 H   0  0  0  0  0  0  0  0  0  0  0  0
   -2.3451    1.7852    0.0988 H   0  0  0  0  0  0  0  0  0  0  0  0
   -1.5287    3.5737    0.9231 C   0  0  0  0  0  0  0  0  0  0  0  0
   -1.1332    3.8351    2.0479 O   0  0  0  0  0  0  0  0  0  0  0  0
   -2.1803    4.5148    0.2150 O   0  0  0  0  0  0  0  0  0  0  0  0
   -2.2143    5.2823    0.7887 H   0  0  0  0  0  0  0  0  0  0  0  0
    0.7770   -0.9704    1.0751 C   0  0  0  0  0  0  0  0  0  0  0  0
    1.8876   -1.1061    0.5655 O   0  0  0  0  0  0  0  0  0  0  0  0
    0.4391   -1.5485    2.2341 N   0  0  0  0  0  0  0  0  0  0  0  0
   -0.4840   -1.3730    2.6020 H   0  0  0  0  0  0  0  0  0  0  0  0
    1.3345   -2.4023    3.0122 C   0  0  0  0  0  0  0  0  0  0  0  0
    2.2470   -1.8553    3.2561 H   0  0  0  0  0  0  0  0  0  0  0  0
    0.8484   -2.7187    3.9361 H   0  0  0  0  0  0  0  0  0  0  0  0
    1.6046   -3.2834    2.4268 H   0  0  0  0  0  0  0  0  0  0  0  0
  5  6  2  0  0  0  0
  5  7  1  0  0  0  0
  2  3  1  0  0  0  0
  2  4  1  0  0  0  0
  2  5  1  0  0  0  0
  1  2  1  0  0  0  0
 21 22  2  0  0  0  0
 21 23  1  0  0  0  0
 19 20  1  0  0  0  0
 17 18  2  0  0  0  0
 17 19  1  0  0  0  0
 14 15  1  0  0  0  0
 14 16  1  0  0  0  0
 14 17  1  0  0  0  0
 11 12  1  0  0  0  0
 11 13  1  0  0  0  0
 11 14  1  0  0  0  0
  9 10  1  0  0  0  0
  9 11  1  0  0  0  0
  9 21  1  0  0  0  0
  7  8  1  0  0  0  0
  7  9  1  0  0  0  0
 25 26  1  0  0  0  0
 25 27  1  0  0  0  0
 25 28  1  0  0  0  0
 23 24  1  0  0  0  0
 23 25  1  0  0  0  0
M  END
$$$$
default_name
  -OEChem-01062215323D

 28 27  0     1  0  0  0  0  0999 V2000
   -3.2133   -3.5565    1.2809 H   0  0  0  0  0  0  0  0  0  0  0  0
   -3.1873   -2.5755    0.8089 C   0  0  0  0  0  0  0  0  0  0  0  0
   -3.8793   -1.9065    1.3169 H   0  0  0  0  0  0  0  0  0  0  0  0
   -3.4623   -2.6685   -0.2401 H   0  0  0  0  0  0  0  0  0  0  0  0
   -1.7863   -2.0195    0.9119 C   0  0  0  0  0  0  0  0  0  0  0  0
   -0.9073   -2.6615    1.4699 O   0  0  0  0  0  0  0  0  0  0  0  0
   -1.5803   -0.8195    0.3749 N   0  0  0  0  0  0  0  0  0  0  0  0
   -2.3603   -0.3345   -0.0451 H   0  0  0  0  0  0  0  0  0  0  0  0
   -0.2933   -0.1205    0.3719 C   0  0  1  0  0  0  0  0  0  0  0  0
    0.0200    0.0298   -0.6622 H   0  0  0  0  0  0  0  0  0  0  0  0
   -0.4713    1.2623    1.0316 C   0  0  0  0  0  0  0  0  0  0  0  0
   -0.9180    1.1133    2.0161 H   0  0  0  0  0  0  0  0  0  0  0  0
    0.5075    1.7239    1.1694 H   0  0  0  0  0  0  0  0  0  0  0  0
   -1.3579    2.2278    0.2261 C   0  0  0  0  0  0  0  0  0  0  0  0
   -0.9173    2.4055   -0.7549 H   0  0  0  0  0  0  0  0  0  0  0  0
   -2.3451    1.7852    0.0988 H   0  0  0  0  0  0  0  0  0  0  0  0
   -1.5287    3.5737    0.9231 C   0  0  0  0  0  0  0  0  0  0  0  0
   -1.1332    3.8351    2.0479 O   0  0  0  0  0  0  0  0  0  0  0  0
   -2.1803    4.5148    0.2150 O   0  0  0  0  0  0  0  0  0  0  0  0
   -2.2143    5.2823    0.7887 H   0  0  0  0  0  0  0  0  0  0  0  0
    0.7770   -0.9704    1.0751 C   0  0  0  0  0  0  0  0  0  0  0  0
    1.9534   -0.8897    0.7269 O   0  0  0  0  0  0  0  0  0  0  0  0
    0.3678   -1.7893    2.0517 N   0  0  0  0  0  0  0  0  0  0  0  0
   -0.6108   -1.7846    2.2976 H   0  0  0  0  0  0  0  0  0  0  0  0
    1.2568   -2.6755    2.8001 C   0  0  0  0  0  0  0  0  0  0  0  0
    2.0491   -2.0915    3.2718 H   0  0  0  0  0  0  0  0  0  0  0  0
    0.6987   -3.2102    3.5700 H   0  0  0  0  0  0  0  0  0  0  0  0
    1.7156   -3.3968    2.1209 H   0  0  0  0  0  0  0  0  0  0  0  0
  5  6  2  0  0  0  0
  5  7  1  0  0  0  0
  2  3  1  0  0  0  0
  2  4  1  0  0  0  0
  2  5  1  0  0  0  0
  1  2  1  0  0  0  0
 21 22  2  0  0  0  0
 21 23  1  0  0  0  0
 19 20  1  0  0  0  0
 17 18  2  0  0  0  0
 17 19  1  0  0  0  0
 14 15  1  0  0  0  0
 14 16  1  0  0  0  0
 14 17  1  0  0  0  0
 11 12  1  0  0  0  0
 11 13  1  0  0  0  0
 11 14  1  0  0  0  0
  9 10  1  0  0  0  0
  9 11  1  0  0  0  0
  9 21  1  0  0  0  0
  7  8  1  0  0  0  0
  7  9  1  0  0  0  0
 25 26  1  0  0  0  0
 25 27  1  0  0  0  0
 25 28  1  0  0  0  0
 23 24  1  0  0  0  0
 23 25  1  0  0  0  0
M  END
$$$$
default_name
  -OEChem-01062215323D

 28 27  0     1  0  0  0  0  0999 V2000
   -3.2133   -3.5565    1.2809 H   0  0  0  0  0  0  0  0  0  0  0  0
   -3.1873   -2.5755    0.8089 C   0  0  0  0  0  0  0  0  0  0  0  0
   -3.8793   -1.9065    1.3169 H   0  0  0  0  0  0  0  0  0  0  0  0
   -3.4623   -2.6685   -0.2401 H   0  0  0  0  0  0  0  0  0  0  0  0
   -1.7863   -2.0195    0.9119 C   0  0  0  0  0  0  0  0  0  0  0  0
   -0.9073   -2.6615    1.4699 O   0  0  0  0  0  0  0  0  0  0  0  0
   -1.5803   -0.8195    0.3749 N   0  0  0  0  0  0  0  0  0  0  0  0
   -2.3603   -0.3345   -0.0451 H   0  0  0  0  0  0  0  0  0  0  0  0
   -0.2933   -0.1205    0.3719 C   0  0  1  0  0  0  0  0  0  0  0  0
    0.0200    0.0298   -0.6622 H   0  0  0  0  0  0  0  0  0  0  0  0
   -0.4713    1.2623    1.0316 C   0  0  0  0  0  0  0  0  0  0  0  0
   -0.9180    1.1133    2.0161 H   0  0  0  0  0  0  0  0  0  0  0  0
    0.5075    1.7239    1.1694 H   0  0  0  0  0  0  0  0  0  0  0  0
   -1.3579    2.2278    0.2261 C   0  0  0  0  0  0  0  0  0  0  0  0
   -0.9173    2.4055   -0.7549 H   0  0  0  0  0  0  0  0  0  0  0  0
   -2.3451    1.7852    0.0988 H   0  0  0  0  0  0  0  0  0  0  0  0
   -1.5287    3.5737    0.9231 C   0  0  0  0  0  0  0  0  0  0  0  0
   -1.1332    3.8351    2.0479 O   0  0  0  0  0  0  0  0  0  0  0  0
   -2.1803    4.5148    0.2150 O   0  0  0  0  0  0  0  0  0  0  0  0
   -2.2143    5.2823    0.7887 H   0  0  0  0  0  0  0  0  0  0  0  0
    0.7770   -0.9704    1.0751 C   0  0  0  0  0  0  0  0  0  0  0  0
    1.9682   -0.7020    0.9313 O   0  0  0  0  0  0  0  0  0  0  0  0
    0.3535   -1.9974    1.8218 N   0  0  0  0  0  0  0  0  0  0  0  0
   -0.6411   -2.1423    1.9112 H   0  0  0  0  0  0  0  0  0  0  0  0
    1.2445   -2.9104    2.5349 C   0  0  0  0  0  0  0  0  0  0  0  0
    1.8837   -2.3458    3.2161 H   0  0  0  0  0  0  0  0  0  0  0  0
    0.6647   -3.6366    3.1064 H   0  0  0  0  0  0  0  0  0  0  0  0
    1.8799   -3.4380    1.8209 H   0  0  0  0  0  0  0  0  0  0  0  0
  5  6  2  0  0  0  0
  5  7  1  0  0  0  0
  2  3  1  0  0  0  0
  2  4  1  0  0  0  0
  2  5  1  0  0  0  0
  1  2  1  0  0  0  0
 21 22  2  0  0  0  0
 21 23  1  0  0  0  0
 19 20  1  0  0  0  0
 17 18  2  0  0  0  0
 17 19  1  0  0  0  0
 14 15  1  0  0  0  0
 14 16  1  0  0  0  0
 14 17  1  0  0  0  0
 11 12  1  0  0  0  0
 11 13  1  0  0  0  0
 11 14  1  0  0  0  0
  9 10  1  0  0  0  0
  9 11  1  0  0  0  0
  9 21  1  0  0  0  0
  7  8  1  0  0  0  0
  7  9  1  0  0  0  0
 25 26  1  0  0  0  0
 25 27  1  0  0  0  0
 25 28  1  0  0  0  0
 23 24  1  0  0  0  0
 23 25  1  0  0  0  0
M  END
$$$$
default_name
  -OEChem-01062215323D

 28 27  0     1  0  0  0  0  0999 V2000
   -3.2133   -3.5565    1.2809 H   0  0  0  0  0  0  0  0  0  0  0  0
   -3.1873   -2.5755    0.8089 C   0  0  0  0  0  0  0  0  0  0  0  0
   -3.8793   -1.9065    1.3169 H   0  0  0  0  0  0  0  0  0  0  0  0
   -3.4623   -2.6685   -0.2401 H   0  0  0  0  0  0  0  0  0  0  0  0
   -1.7863   -2.0195    0.9119 C   0  0  0  0  0  0  0  0  0  0  0  0
   -0.9073   -2.6615    1.4699 O   0  0  0  0  0  0  0  0  0  0  0  0
   -1.5803   -0.8195    0.3749 N   0  0  0  0  0  0  0  0  0  0  0  0
   -2.3603   -0.3345   -0.0451 H   0  0  0  0  0  0  0  0  0  0  0  0
   -0.2933   -0.1205    0.3719 C   0  0  1  0  0  0  0  0  0  0  0  0
    0.0200    0.0298   -0.6622 H   0  0  0  0  0  0  0  0  0  0  0  0
   -0.4713    1.2623    1.0316 C   0  0  0  0  0  0  0  0  0  0  0  0
   -0.9180    1.1133    2.0161 H   0  0  0  0  0  0  0  0  0  0  0  0
    0.5075    1.7239    1.1694 H   0  0  0  0  0  0  0  0  0  0  0  0
   -1.3579    2.2278    0.2261 C   0  0  0  0  0  0  0  0  0  0  0  0
   -0.9173    2.4055   -0.7549 H   0  0  0  0  0  0  0  0  0  0  0  0
   -2.3451    1.7852    0.0988 H   0  0  0  0  0  0  0  0  0  0  0  0
   -1.5287    3.5737    0.9231 C   0  0  0  0  0  0  0  0  0  0  0  0
   -1.1332    3.8351    2.0479 O   0  0  0  0  0  0  0  0  0  0  0  0
   -2.1803    4.5148    0.2150 O   0  0  0  0  0  0  0  0  0  0  0  0
   -2.2143    5.2823    0.7887 H   0  0  0  0  0  0  0  0  0  0  0  0
    0.7770   -0.9704    1.0751 C   0  0  0  0  0  0  0  0  0  0  0  0
    1.9310   -0.5557    1.1647 O   0  0  0  0  0  0  0  0  0  0  0  0
    0.3973   -2.1587    1.5603 N   0  0  0  0  0  0  0  0  0  0  0  0
   -0.5726   -2.4218    1.4693 H   0  0  0  0  0  0  0  0  0  0  0  0
    1.2984   -3.0910    2.2347 C   0  0  0  0  0  0  0  0  0  0  0  0
    1.7620   -2.6011    3.0928 H   0  0  0  0  0  0  0  0  0  0  0  0
    0.7487   -3.9689    2.5769 H   0  0  0  0  0  0  0  0  0  0  0  0
    2.0865   -3.4044    1.5472 H   0  0  0  0  0  0  0  0  0  0  0  0
  5  6  2  0  0  0  0
  5  7  1  0  0  0  0
  2  3  1  0  0  0  0
  2  4  1  0  0  0  0
  2  5  1  0  0  0  0
  1  2  1  0  0  0  0
 21 22  2  0  0  0  0
 21 23  1  0  0  0  0
 19 20  1  0  0  0  0
 17 18  2  0  0  0  0
 17 19  1  0  0  0  0
 14 15  1  0  0  0  0
 14 16  1  0  0  0  0
 14 17  1  0  0  0  0
 11 12  1  0  0  0  0
 11 13  1  0  0  0  0
 11 14  1  0  0  0  0
  9 10  1  0  0  0  0
  9 11  1  0  0  0  0
  9 21  1  0  0  0  0
  7  8  1  0  0  0  0
  7  9  1  0  0  0  0
 25 26  1  0  0  0  0
 25 27  1  0  0  0  0
 25 28  1  0  0  0  0
 23 24  1  0  0  0  0
 23 25  1  0  0  0  0
M  END
$$$$
default_name
  -OEChem-01062215323D

 28 27  0     1  0  0  0  0  0999 V2000
   -3.2133   -3.5565    1.2809 H   0  0  0  0  0  0  0  0  0  0  0  0
   -3.1873   -2.5755    0.8089 C   0  0  0  0  0  0  0  0  0  0  0  0
   -3.8793   -1.9065    1.3169 H   0  0  0  0  0  0  0  0  0  0  0  0
   -3.4623   -2.6685   -0.2401 H   0  0  0  0  0  0  0  0  0  0  0  0
   -1.7863   -2.0195    0.9119 C   0  0  0  0  0  0  0  0  0  0  0  0
   -0.9073   -2.6615    1.4699 O   0  0  0  0  0  0  0  0  0  0  0  0
   -1.5803   -0.8195    0.3749 N   0  0  0  0  0  0  0  0  0  0  0  0
   -2.3603   -0.3345   -0.0451 H   0  0  0  0  0  0  0  0  0  0  0  0
   -0.2933   -0.1205    0.3719 C   0  0  1  0  0  0  0  0  0  0  0  0
    0.0200    0.0298   -0.6622 H   0  0  0  0  0  0  0  0  0  0  0  0
   -0.4713    1.2623    1.0316 C   0  0  0  0  0  0  0  0  0  0  0  0
   -0.9180    1.1133    2.0161 H   0  0  0  0  0  0  0  0  0  0  0  0
    0.5075    1.7239    1.1694 H   0  0  0  0  0  0  0  0  0  0  0  0
   -1.3579    2.2278    0.2261 C   0  0  0  0  0  0  0  0  0  0  0  0
   -0.9173    2.4055   -0.7549 H   0  0  0  0  0  0  0  0  0  0  0  0
   -2.3451    1.7852    0.0988 H   0  0  0  0  0  0  0  0  0  0  0  0
   -1.5287    3.5737    0.9231 C   0  0  0  0  0  0  0  0  0  0  0  0
   -1.1332    3.8351    2.0479 O   0  0  0  0  0  0  0  0  0  0  0  0
   -2.1803    4.5148    0.2150 O   0  0  0  0  0  0  0  0  0  0  0  0
   -2.2143    5.2823    0.7887 H   0  0  0  0  0  0  0  0  0  0  0  0
    0.7770   -0.9704    1.0751 C   0  0  0  0  0  0  0  0  0  0  0  0
    1.8444   -0.4609    1.4111 O   0  0  0  0  0  0  0  0  0  0  0  0
    0.4961   -2.2622    1.2848 N   0  0  0  0  0  0  0  0  0  0  0  0
   -0.4101   -2.6040    1.0018 H   0  0  0  0  0  0  0  0  0  0  0  0
    1.4148   -3.2049    1.9198 C   0  0  0  0  0  0  0  0  0  0  0  0
    1.6924   -2.8398    2.9103 H   0  0  0  0  0  0  0  0  0  0  0  0
    0.9450   -4.1846    2.0175 H   0  0  0  0  0  0  0  0  0  0  0  0
    2.3212   -3.2980    1.3184 H   0  0  0  0  0  0  0  0  0  0  0  0
  5  6  2  0  0  0  0
  5  7  1  0  0  0  0
  2  3  1  0  0  0  0
  2  4  1  0  0  0  0
  2  5  1  0  0  0  0
  1  2  1  0  0  0  0
 21 22  2  0  0  0  0
 21 23  1  0  0  0  0
 19 20  1  0  0  0  0
 17 18  2  0  0  0  0
 17 19  1  0  0  0  0
 14 15  1  0  0  0  0
 14 16  1  0  0  0  0
 14 17  1  0  0  0  0
 11 12  1  0  0  0  0
 11 13  1  0  0  0  0
 11 14  1  0  0  0  0
  9 10  1  0  0  0  0
  9 11  1  0  0  0  0
  9 21  1  0  0  0  0
  7  8  1  0  0  0  0
  7  9  1  0  0  0  0
 25 26  1  0  0  0  0
 25 27  1  0  0  0  0
 25 28  1  0  0  0  0
 23 24  1  0  0  0  0
 23 25  1  0  0  0  0
M  END
$$$$
default_name
  -OEChem-01062215323D

 28 27  0     1  0  0  0  0  0999 V2000
   -3.2133   -3.5565    1.2809 H   0  0  0  0  0  0  0  0  0  0  0  0
   -3.1873   -2.5755    0.8089 C   0  0  0  0  0  0  0  0  0  0  0  0
   -3.8793   -1.9065    1.3169 H   0  0  0  0  0  0  0  0  0  0  0  0
   -3.4623   -2.6685   -0.2401 H   0  0  0  0  0  0  0  0  0  0  0  0
   -1.7863   -2.0195    0.9119 C   0  0  0  0  0  0  0  0  0  0  0  0
   -0.9073   -2.6615    1.4699 O   0  0  0  0  0  0  0  0  0  0  0  0
   -1.5803   -0.8195    0.3749 N   0  0  0  0  0  0  0  0  0  0  0  0
   -2.3603   -0.3345   -0.0451 H   0  0  0  0  0  0  0  0  0  0  0  0
   -0.2933   -0.1205    0.3719 C   0  0  1  0  0  0  0  0  0  0  0  0
    0.0200    0.0298   -0.6622 H   0  0  0  0  0  0  0  0  0  0  0  0
   -0.4713    1.2623    1.0316 C   0  0  0  0  0  0  0  0  0  0  0  0
   -0.9180    1.1133    2.0161 H   0  0  0  0  0  0  0  0  0  0  0  0
    0.5075    1.7239    1.1694 H   0  0  0  0  0  0  0  0  0  0  0  0
   -1.3579    2.2278    0.2261 C   0  0  0  0  0  0  0  0  0  0  0  0
   -0.9173    2.4055   -0.7549 H   0  0  0  0  0  0  0  0  0  0  0  0
   -2.3451    1.7852    0.0988 H   0  0  0  0  0  0  0  0  0  0  0  0
   -1.5287    3.5737    0.9231 C   0  0  0  0  0  0  0  0  0  0  0  0
   -1.1332    3.8351    2.0479 O   0  0  0  0  0  0  0  0  0  0  0  0
   -2.1803    4.5148    0.2150 O   0  0  0  0  0  0  0  0  0  0  0  0
   -2.2143    5.2823    0.7887 H   0  0  0  0  0  0  0  0  0  0  0  0
    0.7770   -0.9704    1.0751 C   0  0  0  0  0  0  0  0  0  0  0  0
    1.7142   -0.4240    1.6538 O   0  0  0  0  0  0  0  0  0  0  0  0
    0.6432   -2.3008    1.0142 N   0  0  0  0  0  0  0  0  0  0  0  0
   -0.1647   -2.6765    0.5406 H   0  0  0  0  0  0  0  0  0  0  0  0
    1.5858   -3.2444    1.6118 C   0  0  0  0  0  0  0  0  0  0  0  0
    1.6795   -3.0458    2.6810 H   0  0  0  0  0  0  0  0  0  0  0  0
    1.2401   -4.2688    1.4664 H   0  0  0  0  0  0  0  0  0  0  0  0
    2.5681   -3.1263    1.1502 H   0  0  0  0  0  0  0  0  0  0  0  0
  5  6  2  0  0  0  0
  5  7  1  0  0  0  0
  2  3  1  0  0  0  0
  2  4  1  0  0  0  0
  2  5  1  0  0  0  0
  1  2  1  0  0  0  0
 21 22  2  0  0  0  0
 21 23  1  0  0  0  0
 19 20  1  0  0  0  0
 17 18  2  0  0  0  0
 17 19  1  0  0  0  0
 14 15  1  0  0  0  0
 14 16  1  0  0  0  0
 14 17  1  0  0  0  0
 11 12  1  0  0  0  0
 11 13  1  0  0  0  0
 11 14  1  0  0  0  0
  9 10  1  0  0  0  0
  9 11  1  0  0  0  0
  9 21  1  0  0  0  0
  7  8  1  0  0  0  0
  7  9  1  0  0  0  0
 25 26  1  0  0  0  0
 25 27  1  0  0  0  0
 25 28  1  0  0  0  0
 23 24  1  0  0  0  0
 23 25  1  0  0  0  0
M  END
$$$$
default_name
  -OEChem-01062215323D

 28 27  0     1  0  0  0  0  0999 V2000
   -3.2133   -3.5565    1.2809 H   0  0  0  0  0  0  0  0  0  0  0  0
   -3.1873   -2.5755    0.8089 C   0  0  0  0  0  0  0  0  0  0  0  0
   -3.8793   -1.9065    1.3169 H   0  0  0  0  0  0  0  0  0  0  0  0
   -3.4623   -2.6685   -0.2401 H   0  0  0  0  0  0  0  0  0  0  0  0
   -1.7863   -2.0195    0.9119 C   0  0  0  0  0  0  0  0  0  0  0  0
   -0.9073   -2.6615    1.4699 O   0  0  0  0  0  0  0  0  0  0  0  0
   -1.5803   -0.8195    0.3749 N   0  0  0  0  0  0  0  0  0  0  0  0
   -2.3603   -0.3345   -0.0451 H   0  0  0  0  0  0  0  0  0  0  0  0
   -0.2933   -0.1205    0.3719 C   0  0  1  0  0  0  0  0  0  0  0  0
    0.0200    0.0298   -0.6622 H   0  0  0  0  0  0  0  0  0  0  0  0
   -0.4713    1.2623    1.0316 C   0  0  0  0  0  0  0  0  0  0  0  0
   -0.9180    1.1133    2.0161 H   0  0  0  0  0  0  0  0  0  0  0  0
    0.5075    1.7239    1.1694 H   0  0  0  0  0  0  0  0  0  0  0  0
   -1.3579    2.2278    0.2261 C   0  0  0  0  0  0  0  0  0  0  0  0
   -0.9173    2.4055   -0.7549 H   0  0  0  0  0  0  0  0  0  0  0  0
   -2.3451    1.7852    0.0988 H   0  0  0  0  0  0  0  0  0  0  0  0
   -1.5287    3.5737    0.9231 C   0  0  0  0  0  0  0  0  0  0  0  0
   -1.1332    3.8351    2.0479 O   0  0  0  0  0  0  0  0  0  0  0  0
   -2.1803    4.5148    0.2150 O   0  0  0  0  0  0  0  0  0  0  0  0
   -2.2143    5.2823    0.7887 H   0  0  0  0  0  0  0  0  0  0  0  0
    0.7770   -0.9704    1.0751 C   0  0  0  0  0  0  0  0  0  0  0  0
    1.5493   -0.4476    1.8763 O   0  0  0  0  0  0  0  0  0  0  0  0
    0.8286   -2.2719    0.7670 N   0  0  0  0  0  0  0  0  0  0  0  0
    0.1469   -2.6343    0.1172 H   0  0  0  0  0  0  0  0  0  0  0  0
    1.7997   -3.2068    1.3317 C   0  0  0  0  0  0  0  0  0  0  0  0
    1.7242   -3.2050    2.4206 H   0  0  0  0  0  0  0  0  0  0  0  0
    1.6141   -4.2159    0.9611 H   0  0  0  0  0  0  0  0  0  0  0  0
    2.8103   -2.9009    1.0540 H   0  0  0  0  0  0  0  0  0  0  0  0
  5  6  2  0  0  0  0
  5  7  1  0  0  0  0
  2  3  1  0  0  0  0
  2  4  1  0  0  0  0
  2  5  1  0  0  0  0
  1  2  1  0  0  0  0
 21 22  2  0  0  0  0
 21 23  1  0  0  0  0
 19 20  1  0  0  0  0
 17 18  2  0  0  0  0
 17 19  1  0  0  0  0
 14 15  1  0  0  0  0
 14 16  1  0  0  0  0
 14 17  1  0  0  0  0
 11 12  1  0  0  0  0
 11 13  1  0  0  0  0
 11 14  1  0  0  0  0
  9 10  1  0  0  0  0
  9 11  1  0  0  0  0
  9 21  1  0  0  0  0
  7  8  1  0  0  0  0
  7  9  1  0  0  0  0
 25 26  1  0  0  0  0
 25 27  1  0  0  0  0
 25 28  1  0  0  0  0
 23 24  1  0  0  0  0
 23 25  1  0  0  0  0
M  END
$$$$
default_name
  -OEChem-01062215323D

 28 27  0     1  0  0  0  0  0999 V2000
   -3.2133   -3.5565    1.2809 H   0  0  0  0  0  0  0  0  0  0  0  0
   -3.1873   -2.5755    0.8089 C   0  0  0  0  0  0  0  0  0  0  0  0
   -3.8793   -1.9065    1.3169 H   0  0  0  0  0  0  0  0  0  0  0  0
   -3.4623   -2.6685   -0.2401 H   0  0  0  0  0  0  0  0  0  0  0  0
   -1.7863   -2.0195    0.9119 C   0  0  0  0  0  0  0  0  0  0  0  0
   -0.9073   -2.6615    1.4699 O   0  0  0  0  0  0  0  0  0  0  0  0
   -1.5803   -0.8195    0.3749 N   0  0  0  0  0  0  0  0  0  0  0  0
   -2.3603   -0.3345   -0.0451 H   0  0  0  0  0  0  0  0  0  0  0  0
   -0.2933   -0.1205    0.3719 C   0  0  1  0  0  0  0  0  0  0  0  0
    0.0200    0.0298   -0.6622 H   0  0  0  0  0  0  0  0  0  0  0  0
   -0.4713    1.2623    1.0316 C   0  0  0  0  0  0  0  0  0  0  0  0
   -0.9180    1.1133    2.0161 H   0  0  0  0  0  0  0  0  0  0  0  0
    0.5075    1.7239    1.1694 H   0  0  0  0  0  0  0  0  0  0  0  0
   -1.3579    2.2278    0.2261 C   0  0  0  0  0  0  0  0  0  0  0  0
   -0.9173    2.4055   -0.7549 H   0  0  0  0  0  0  0  0  0  0  0  0
   -2.3451    1.7852    0.0988 H   0  0  0  0  0  0  0  0  0  0  0  0
   -1.5287    3.5737    0.9231 C   0  0  0  0  0  0  0  0  0  0  0  0
   -1.1332    3.8351    2.0479 O   0  0  0  0  0  0  0  0  0  0  0  0
   -2.1803    4.5148    0.2150 O   0  0  0  0  0  0  0  0  0  0  0  0
   -2.2143    5.2823    0.7887 H   0  0  0  0  0  0  0  0  0  0  0  0
    0.7770   -0.9704    1.0751 C   0  0  0  0  0  0  0  0  0  0  0  0
    1.3610   -0.5299    2.0634 O   0  0  0  0  0  0  0  0  0  0  0  0
    1.0397   -2.1775    0.5599 N   0  0  0  0  0  0  0  0  0  0  0  0
    0.5035   -2.4804   -0.2395 H   0  0  0  0  0  0  0  0  0  0  0  0
    2.0420   -3.0946    1.0985 C   0  0  0  0  0  0  0  0  0  0  0  0
    1.8235   -3.3064    2.1467 H   0  0  0  0  0  0  0  0  0  0  0  0
    2.0414   -4.0295    0.5362 H   0  0  0  0  0  0  0  0  0  0  0  0
    3.0314   -2.6371    1.0364 H   0  0  0  0  0  0  0  0  0  0  0  0
  5  6  2  0  0  0  0
  5  7  1  0  0  0  0
  2  3  1  0  0  0  0
  2  4  1  0  0  0  0
  2  5  1  0  0  0  0
  1  2  1  0  0  0  0
 21 22  2  0  0  0  0
 21 23  1  0  0  0  0
 19 20  1  0  0  0  0
 17 18  2  0  0  0  0
 17 19  1  0  0  0  0
 14 15  1  0  0  0  0
 14 16  1  0  0  0  0
 14 17  1  0  0  0  0
 11 12  1  0  0  0  0
 11 13  1  0  0  0  0
 11 14  1  0  0  0  0
  9 10  1  0  0  0  0
  9 11  1  0  0  0  0
  9 21  1  0  0  0  0
  7  8  1  0  0  0  0
  7  9  1  0  0  0  0
 25 26  1  0  0  0  0
 25 27  1  0  0  0  0
 25 28  1  0  0  0  0
 23 24  1  0  0  0  0
 23 25  1  0  0  0  0
M  END
$$$$
default_name
  -OEChem-01062215323D

 28 27  0     1  0  0  0  0  0999 V2000
   -3.2133   -3.5565    1.2809 H   0  0  0  0  0  0  0  0  0  0  0  0
   -3.1873   -2.5755    0.8089 C   0  0  0  0  0  0  0  0  0  0  0  0
   -3.8793   -1.9065    1.3169 H   0  0  0  0  0  0  0  0  0  0  0  0
   -3.4623   -2.6685   -0.2401 H   0  0  0  0  0  0  0  0  0  0  0  0
   -1.7863   -2.0195    0.9119 C   0  0  0  0  0  0  0  0  0  0  0  0
   -0.9073   -2.6615    1.4699 O   0  0  0  0  0  0  0  0  0  0  0  0
   -1.5803   -0.8195    0.3749 N   0  0  0  0  0  0  0  0  0  0  0  0
   -2.3603   -0.3345   -0.0451 H   0  0  0  0  0  0  0  0  0  0  0  0
   -0.2933   -0.1205    0.3719 C   0  0  1  0  0  0  0  0  0  0  0  0
    0.0200    0.0298   -0.6622 H   0  0  0  0  0  0  0  0  0  0  0  0
   -0.4713    1.2623    1.0316 C   0  0  0  0  0  0  0  0  0  0  0  0
   -0.9180    1.1133    2.0161 H   0  0  0  0  0  0  0  0  0  0  0  0
    0.5075    1.7239    1.1694 H   0  0  0  0  0  0  0  0  0  0  0  0
   -1.3579    2.2278    0.2261 C   0  0  0  0  0  0  0  0  0  0  0  0
   -0.9173    2.4055   -0.7549 H   0  0  0  0  0  0  0  0  0  0  0  0
   -2.3451    1.7852    0.0988 H   0  0  0  0  0  0  0  0  0  0  0  0
   -1.5287    3.5737    0.9231 C   0  0  0  0  0  0  0  0  0  0  0  0
   -1.1332    3.8351    2.0479 O   0  0  0  0  0  0  0  0  0  0  0  0
   -2.1803    4.5148    0.2150 O   0  0  0  0  0  0  0  0  0  0  0  0
   -2.2143    5.2823    0.7887 H   0  0  0  0  0  0  0  0  0  0  0  0
    0.7770   -0.9704    1.0751 C   0  0  0  0  0  0  0  0  0  0  0  0
    1.1621   -0.6655    2.2023 O   0  0  0  0  0  0  0  0  0  0  0  0
    1.2620   -2.0240    0.4070 N   0  0  0  0  0  0  0  0  0  0  0  0
    0.8808   -2.2252   -0.5053 H   0  0  0  0  0  0  0  0  0  0  0  0
    2.2961   -2.9156    0.9281 C   0  0  0  0  0  0  0  0  0  0  0  0
    1.9707   -3.3434    1.8781 H   0  0  0  0  0  0  0  0  0  0  0  0
    2.4929   -3.7222    0.2204 H   0  0  0  0  0  0  0  0  0  0  0  0
    3.2162   -2.3530    1.0985 H   0  0  0  0  0  0  0  0  0  0  0  0
  5  6  2  0  0  0  0
  5  7  1  0  0  0  0
  2  3  1  0  0  0  0
  2  4  1  0  0  0  0
  2  5  1  0  0  0  0
  1  2  1  0  0  0  0
 21 22  2  0  0  0  0
 21 23  1  0  0  0  0
 19 20  1  0  0  0  0
 17 18  2  0  0  0  0
 17 19  1  0  0  0  0
 14 15  1  0  0  0  0
 14 16  1  0  0  0  0
 14 17  1  0  0  0  0
 11 12  1  0  0  0  0
 11 13  1  0  0  0  0
 11 14  1  0  0  0  0
  9 10  1  0  0  0  0
  9 11  1  0  0  0  0
  9 21  1  0  0  0  0
  7  8  1  0  0  0  0
  7  9  1  0  0  0  0
 25 26  1  0  0  0  0
 25 27  1  0  0  0  0
 25 28  1  0  0  0  0
 23 24  1  0  0  0  0
 23 25  1  0  0  0  0
M  END
$$$$
default_name
  -OEChem-01062215323D

 28 27  0     1  0  0  0  0  0999 V2000
   -3.2133   -3.5565    1.2809 H   0  0  0  0  0  0  0  0  0  0  0  0
   -3.1873   -2.5755    0.8089 C   0  0  0  0  0  0  0  0  0  0  0  0
   -3.8793   -1.9065    1.3169 H   0  0  0  0  0  0  0  0  0  0  0  0
   -3.4623   -2.6685   -0.2401 H   0  0  0  0  0  0  0  0  0  0  0  0
   -1.7863   -2.0195    0.9119 C   0  0  0  0  0  0  0  0  0  0  0  0
   -0.9073   -2.6615    1.4699 O   0  0  0  0  0  0  0  0  0  0  0  0
   -1.5803   -0.8195    0.3749 N   0  0  0  0  0  0  0  0  0  0  0  0
   -2.3603   -0.3345   -0.0451 H   0  0  0  0  0  0  0  0  0  0  0  0
   -0.2933   -0.1205    0.3719 C   0  0  1  0  0  0  0  0  0  0  0  0
    0.0200    0.0298   -0.6622 H   0  0  0  0  0  0  0  0  0  0  0  0
   -0.4713    1.2623    1.0316 C   0  0  0  0  0  0  0  0  0  0  0  0
   -0.9180    1.1133    2.0161 H   0  0  0  0  0  0  0  0  0  0  0  0
    0.5075    1.7239    1.1694 H   0  0  0  0  0  0  0  0  0  0  0  0
   -1.3579    2.2278    0.2261 C   0  0  0  0  0  0  0  0  0  0  0  0
   -0.9173    2.4055   -0.7549 H   0  0  0  0  0  0  0  0  0  0  0  0
   -2.3451    1.7852    0.0988 H   0  0  0  0  0  0  0  0  0  0  0  0
   -1.5287    3.5737    0.9231 C   0  0  0  0  0  0  0  0  0  0  0  0
   -1.1332    3.8351    2.0479 O   0  0  0  0  0  0  0  0  0  0  0  0
   -2.1803    4.5148    0.2150 O   0  0  0  0  0  0  0  0  0  0  0  0
   -2.2143    5.2823    0.7887 H   0  0  0  0  0  0  0  0  0  0  0  0
    0.7770   -0.9704    1.0751 C   0  0  0  0  0  0  0  0  0  0  0  0
    0.9662   -0.8450    2.2835 O   0  0  0  0  0  0  0  0  0  0  0  0
    1.4804   -1.8218    0.3189 N   0  0  0  0  0  0  0  0  0  0  0  0
    1.2531   -1.8862   -0.6621 H   0  0  0  0  0  0  0  0  0  0  0  0
    2.5448   -2.6819    0.8322 C   0  0  0  0  0  0  0  0  0  0  0  0
    2.1557   -3.3132    1.6331 H   0  0  0  0  0  0  0  0  0  0  0  0
    2.9378   -3.3150    0.0354 H   0  0  0  0  0  0  0  0  0  0  0  0
    3.3521   -2.0679    1.2362 H   0  0  0  0  0  0  0  0  0  0  0  0
  5  6  2  0  0  0  0
  5  7  1  0  0  0  0
  2  3  1  0  0  0  0
  2  4  1  0  0  0  0
  2  5  1  0  0  0  0
  1  2  1  0  0  0  0
 21 22  2  0  0  0  0
 21 23  1  0  0  0  0
 19 20  1  0  0  0  0
 17 18  2  0  0  0  0
 17 19  1  0  0  0  0
 14 15  1  0  0  0  0
 14 16  1  0  0  0  0
 14 17  1  0  0  0  0
 11 12  1  0  0  0  0
 11 13  1  0  0  0  0
 11 14  1  0  0  0  0
  9 10  1  0  0  0  0
  9 11  1  0  0  0  0
  9 21  1  0  0  0  0
  7  8  1  0  0  0  0
  7  9  1  0  0  0  0
 25 26  1  0  0  0  0
 25 27  1  0  0  0  0
 25 28  1  0  0  0  0
 23 24  1  0  0  0  0
 23 25  1  0  0  0  0
M  END
$$$$
default_name
  -OEChem-01062215323D

 28 27  0     1  0  0  0  0  0999 V2000
   -3.2133   -3.5565    1.2809 H   0  0  0  0  0  0  0  0  0  0  0  0
   -3.1873   -2.5755    0.8089 C   0  0  0  0  0  0  0  0  0  0  0  0
   -3.8793   -1.9065    1.3169 H   0  0  0  0  0  0  0  0  0  0  0  0
   -3.4623   -2.6685   -0.2401 H   0  0  0  0  0  0  0  0  0  0  0  0
   -1.7863   -2.0195    0.9119 C   0  0  0  0  0  0  0  0  0  0  0  0
   -0.9073   -2.6615    1.4699 O   0  0  0  0  0  0  0  0  0  0  0  0
   -1.5803   -0.8195    0.3749 N   0  0  0  0  0  0  0  0  0  0  0  0
   -2.3603   -0.3345   -0.0451 H   0  0  0  0  0  0  0  0  0  0  0  0
   -0.2933   -0.1205    0.3719 C   0  0  1  0  0  0  0  0  0  0  0  0
    0.0200    0.0298   -0.6622 H   0  0  0  0  0  0  0  0  0  0  0  0
   -0.4713    1.2623    1.0316 C   0  0  0  0  0  0  0  0  0  0  0  0
   -0.9180    1.1133    2.0161 H   0  0  0  0  0  0  0  0  0  0  0  0
    0.5075    1.7239    1.1694 H   0  0  0  0  0  0  0  0  0  0  0  0
   -1.3579    2.2278    0.2261 C   0  0  0  0  0  0  0  0  0  0  0  0
   -0.9173    2.4055   -0.7549 H   0  0  0  0  0  0  0  0  0  0  0  0
   -2.3451    1.7852    0.0988 H   0  0  0  0  0  0  0  0  0  0  0  0
   -1.5287    3.5737    0.9231 C   0  0  0  0  0  0  0  0  0  0  0  0
   -1.1332    3.8351    2.0479 O   0  0  0  0  0  0  0  0  0  0  0  0
   -2.1803    4.5148    0.2150 O   0  0  0  0  0  0  0  0  0  0  0  0
   -2.2143    5.2823    0.7887 H   0  0  0  0  0  0  0  0  0  0  0  0
    0.7770   -0.9704    1.0751 C   0  0  0  0  0  0  0  0  0  0  0  0
    0.7865   -1.0562    2.3016 O   0  0  0  0  0  0  0  0  0  0  0  0
    1.6801   -1.5848    0.3015 N   0  0  0  0  0  0  0  0  0  0  0  0
    1.5950   -1.4863   -0.6991 H   0  0  0  0  0  0  0  0  0  0  0  0
    2.7710   -2.4094    0.8172 C   0  0  0  0  0  0  0  0  0  0  0  0
    2.3658   -3.2179    1.4283 H   0  0  0  0  0  0  0  0  0  0  0  0
    3.3458   -2.8357   -0.0062 H   0  0  0  0  0  0  0  0  0  0  0  0
    3.4300   -1.8012    1.4401 H   0  0  0  0  0  0  0  0  0  0  0  0
  5  6  2  0  0  0  0
  5  7  1  0  0  0  0
  2  3  1  0  0  0  0
  2  4  1  0  0  0  0
  2  5  1  0  0  0  0
  1  2  1  0  0  0  0
 21 22  2  0  0  0  0
 21 23  1  0  0  0  0
 19 20  1  0  0  0  0
 17 18  2  0  0  0  0
 17 19  1  0  0  0  0
 14 15  1  0  0  0  0
 14 16  1  0  0  0  0
 14 17  1  0  0  0  0
 11 12  1  0  0  0  0
 11 13  1  0  0  0  0
 11 14  1  0  0  0  0
  9 10  1  0  0  0  0
  9 11  1  0  0  0  0
  9 21  1  0  0  0  0
  7  8  1  0  0  0  0
  7  9  1  0  0  0  0
 25 26  1  0  0  0  0
 25 27  1  0  0  0  0
 25 28  1  0  0  0  0
 23 24  1  0  0  0  0
 23 25  1  0  0  0  0
M  END
$$$$
default_name
  -OEChem-01062215323D

 28 27  0     1  0  0  0  0  0999 V2000
   -3.2133   -3.5565    1.2809 H   0  0  0  0  0  0  0  0  0  0  0  0
   -3.1873   -2.5755    0.8089 C   0  0  0  0  0  0  0  0  0  0  0  0
   -3.8793   -1.9065    1.3169 H   0  0  0  0  0  0  0  0  0  0  0  0
   -3.4623   -2.6685   -0.2401 H   0  0  0  0  0  0  0  0  0  0  0  0
   -1.7863   -2.0195    0.9119 C   0  0  0  0  0  0  0  0  0  0  0  0
   -0.9073   -2.6615    1.4699 O   0  0  0  0  0  0  0  0  0  0  0  0
   -1.5803   -0.8195    0.3749 N   0  0  0  0  0  0  0  0  0  0  0  0
   -2.3603   -0.3345   -0.0451 H   0  0  0  0  0  0  0  0  0  0  0  0
   -0.2933   -0.1205    0.3719 C   0  0  1  0  0  0  0  0  0  0  0  0
    0.0200    0.0298   -0.6622 H   0  0  0  0  0  0  0  0  0  0  0  0
   -0.4713    1.2623    1.0316 C   0  0  0  0  0  0  0  0  0  0  0  0
   -0.9180    1.1133    2.0161 H   0  0  0  0  0  0  0  0  0  0  0  0
    0.5075    1.7239    1.1694 H   0  0  0  0  0  0  0  0  0  0  0  0
   -1.3579    2.2278    0.2261 C   0  0  0  0  0  0  0  0  0  0  0  0
   -0.9173    2.4055   -0.7549 H   0  0  0  0  0  0  0  0  0  0  0  0
   -2.3451    1.7852    0.0988 H   0  0  0  0  0  0  0  0  0  0  0  0
   -1.5287    3.5737    0.9231 C   0  0  0  0  0  0  0  0  0  0  0  0
   -1.1332    3.8351    2.0479 O   0  0  0  0  0  0  0  0  0  0  0  0
   -2.1803    4.5148    0.2150 O   0  0  0  0  0  0  0  0  0  0  0  0
   -2.2143    5.2823    0.7887 H   0  0  0  0  0  0  0  0  0  0  0  0
    0.7770   -0.9704    1.0751 C   0  0  0  0  0  0  0  0  0  0  0  0
    0.6354   -1.2848    2.2553 O   0  0  0  0  0  0  0  0  0  0  0  0
    1.8474   -1.3291    0.3560 N   0  0  0  0  0  0  0  0  0  0  0  0
    1.8832   -1.0529   -0.6139 H   0  0  0  0  0  0  0  0  0  0  0  0
    2.9594   -2.1166    0.8843 C   0  0  0  0  0  0  0  0  0  0  0  0
    2.5869   -3.0642    1.2777 H   0  0  0  0  0  0  0  0  0  0  0  0
    3.6890   -2.3169    0.0984 H   0  0  0  0  0  0  0  0  0  0  0  0
    3.4444   -1.5711    1.6961 H   0  0  0  0  0  0  0  0  0  0  0  0
  5  6  2  0  0  0  0
  5  7  1  0  0  0  0
  2  3  1  0  0  0  0
  2  4  1  0  0  0  0
  2  5  1  0  0  0  0
  1  2  1  0  0  0  0
 21 22  2  0  0  0  0
 21 23  1  0  0  0  0
 19 20  1  0  0  0  0
 17 18  2  0  0  0  0
 17 19  1  0  0  0  0
 14 15  1  0  0  0  0
 14 16  1  0  0  0  0
 14 17  1  0  0  0  0
 11 12  1  0  0  0  0
 11 13  1  0  0  0  0
 11 14  1  0  0  0  0
  9 10  1  0  0  0  0
  9 11  1  0  0  0  0
  9 21  1  0  0  0  0
  7  8  1  0  0  0  0
  7  9  1  0  0  0  0
 25 26  1  0  0  0  0
 25 27  1  0  0  0  0
 25 28  1  0  0  0  0
 23 24  1  0  0  0  0
 23 25  1  0  0  0  0
M  END
$$$$
default_name
  -OEChem-01062215323D

 28 27  0     1  0  0  0  0  0999 V2000
   -3.2133   -3.5565    1.2809 H   0  0  0  0  0  0  0  0  0  0  0  0
   -3.1873   -2.5755    0.8089 C   0  0  0  0  0  0  0  0  0  0  0  0
   -3.8793   -1.9065    1.3169 H   0  0  0  0  0  0  0  0  0  0  0  0
   -3.4623   -2.6685   -0.2401 H   0  0  0  0  0  0  0  0  0  0  0  0
   -1.7863   -2.0195    0.9119 C   0  0  0  0  0  0  0  0  0  0  0  0
   -0.9073   -2.6615    1.4699 O   0  0  0  0  0  0  0  0  0  0  0  0
   -1.5803   -0.8195    0.3749 N   0  0  0  0  0  0  0  0  0  0  0  0
   -2.3603   -0.3345   -0.0451 H   0  0  0  0  0  0  0  0  0  0  0  0
   -0.2933   -0.1205    0.3719 C   0  0  1  0  0  0  0  0  0  0  0  0
    0.0200    0.0298   -0.6622 H   0  0  0  0  0  0  0  0  0  0  0  0
   -0.4713    1.2623    1.0316 C   0  0  0  0  0  0  0  0  0  0  0  0
   -0.9180    1.1133    2.0161 H   0  0  0  0  0  0  0  0  0  0  0  0
    0.5075    1.7239    1.1694 H   0  0  0  0  0  0  0  0  0  0  0  0
   -1.3579    2.2278    0.2261 C   0  0  0  0  0  0  0  0  0  0  0  0
   -0.9173    2.4055   -0.7549 H   0  0  0  0  0  0  0  0  0  0  0  0
   -2.3451    1.7852    0.0988 H   0  0  0  0  0  0  0  0  0  0  0  0
   -1.5287    3.5737    0.9231 C   0  0  0  0  0  0  0  0  0  0  0  0
   -1.1332    3.8351    2.0479 O   0  0  0  0  0  0  0  0  0  0  0  0
   -2.1803    4.5148    0.2150 O   0  0  0  0  0  0  0  0  0  0  0  0
   -2.2143    5.2823    0.7887 H   0  0  0  0  0  0  0  0  0  0  0  0
    0.7770   -0.9704    1.0751 C   0  0  0  0  0  0  0  0  0  0  0  0
    0.5232   -1.5151    2.1478 O   0  0  0  0  0  0  0  0  0  0  0  0
    1.9709   -1.0721    0.4786 N   0  0  0  0  0  0  0  0  0  0  0  0
    2.0980   -0.6155   -0.4122 H   0  0  0  0  0  0  0  0  0  0  0  0
    3.0971   -1.8237    1.0288 C   0  0  0  0  0  0  0  0  0  0  0  0
    2.8037   -2.8623    1.1917 H   0  0  0  0  0  0  0  0  0  0  0  0
    3.9442   -1.7940    0.3420 H   0  0  0  0  0  0  0  0  0  0  0  0
    3.3945   -1.3933    1.9871 H   0  0  0  0  0  0  0  0  0  0  0  0
  5  6  2  0  0  0  0
  5  7  1  0  0  0  0
  2  3  1  0  0  0  0
  2  4  1  0  0  0  0
  2  5  1  0  0  0  0
  1  2  1  0  0  0  0
 21 22  2  0  0  0  0
 21 23  1  0  0  0  0
 19 20  1  0  0  0  0
 17 18  2  0  0  0  0
 17 19  1  0  0  0  0
 14 15  1  0  0  0  0
 14 16  1  0  0  0  0
 14 17  1  0  0  0  0
 11 12  1  0  0  0  0
 11 13  1  0  0  0  0
 11 14  1  0  0  0  0
  9 10  1  0  0  0  0
  9 11  1  0  0  0  0
  9 21  1  0  0  0  0
  7  8  1  0  0  0  0
  7  9  1  0  0  0  0
 25 26  1  0  0  0  0
 25 27  1  0  0  0  0
 25 28  1  0  0  0  0
 23 24  1  0  0  0  0
 23 25  1  0  0  0  0
M  END
$$$$
default_name
  -OEChem-01062215323D

 28 27  0     1  0  0  0  0  0999 V2000
   -3.2133   -3.5565    1.2809 H   0  0  0  0  0  0  0  0  0  0  0  0
   -3.1873   -2.5755    0.8089 C   0  0  0  0  0  0  0  0  0  0  0  0
   -3.8793   -1.9065    1.3169 H   0  0  0  0  0  0  0  0  0  0  0  0
   -3.4623   -2.6685   -0.2401 H   0  0  0  0  0  0  0  0  0  0  0  0
   -1.7863   -2.0195    0.9119 C   0  0  0  0  0  0  0  0  0  0  0  0
   -0.9073   -2.6615    1.4699 O   0  0  0  0  0  0  0  0  0  0  0  0
   -1.5803   -0.8195    0.3749 N   0  0  0  0  0  0  0  0  0  0  0  0
   -2.3603   -0.3345   -0.0451 H   0  0  0  0  0  0  0  0  0  0  0  0
   -0.2933   -0.1205    0.3719 C   0  0  1  0  0  0  0  0  0  0  0  0
    0.0200    0.0298   -0.6622 H   0  0  0  0  0  0  0  0  0  0  0  0
   -0.4713    1.2623    1.0316 C   0  0  0  0  0  0  0  0  0  0  0  0
   -0.9180    1.1133    2.0161 H   0  0  0  0  0  0  0  0  0  0  0  0
    0.5075    1.7239    1.1694 H   0  0  0  0  0  0  0  0  0  0  0  0
   -1.3579    2.2278    0.2261 C   0  0  0  0  0  0  0  0  0  0  0  0
   -0.9173    2.4055   -0.7549 H   0  0  0  0  0  0  0  0  0  0  0  0
   -2.3451    1.7852    0.0988 H   0  0  0  0  0  0  0  0  0  0  0  0
   -1.5287    3.5737    0.9231 C   0  0  0  0  0  0  0  0  0  0  0  0
   -1.1332    3.8351    2.0479 O   0  0  0  0  0  0  0  0  0  0  0  0
   -2.1803    4.5148    0.2150 O   0  0  0  0  0  0  0  0  0  0  0  0
   -2.2143    5.2823    0.7887 H   0  0  0  0  0  0  0  0  0  0  0  0
    0.7770   -0.9704    1.0751 C   0  0  0  0  0  0  0  0  0  0  0  0
    0.4574   -1.7316    1.9863 O   0  0  0  0  0  0  0  0  0  0  0  0
    2.0422   -0.8313    0.6611 N   0  0  0  0  0  0  0  0  0  0  0  0
    2.2249   -0.2039   -0.1078 H   0  0  0  0  0  0  0  0  0  0  0  0
    3.1748   -1.5505    1.2408 C   0  0  0  0  0  0  0  0  0  0  0  0
    3.0016   -2.6262    1.1759 H   0  0  0  0  0  0  0  0  0  0  0  0
    4.0939   -1.3026    0.7081 H   0  0  0  0  0  0  0  0  0  0  0  0
    3.2836   -1.2799    2.2929 H   0  0  0  0  0  0  0  0  0  0  0  0
  5  6  2  0  0  0  0
  5  7  1  0  0  0  0
  2  3  1  0  0  0  0
  2  4  1  0  0  0  0
  2  5  1  0  0  0  0
  1  2  1  0  0  0  0
 21 22  2  0  0  0  0
 21 23  1  0  0  0  0
 19 20  1  0  0  0  0
 17 18  2  0  0  0  0
 17 19  1  0  0  0  0
 14 15  1  0  0  0  0
 14 16  1  0  0  0  0
 14 17  1  0  0  0  0
 11 12  1  0  0  0  0
 11 13  1  0  0  0  0
 11 14  1  0  0  0  0
  9 10  1  0  0  0  0
  9 11  1  0  0  0  0
  9 21  1  0  0  0  0
  7  8  1  0  0  0  0
  7  9  1  0  0  0  0
 25 26  1  0  0  0  0
 25 27  1  0  0  0  0
 25 28  1  0  0  0  0
 23 24  1  0  0  0  0
 23 25  1  0  0  0  0
M  END
$$$$
default_name
  -OEChem-01062215323D

 28 27  0     1  0  0  0  0  0999 V2000
   -3.2133   -3.5565    1.2809 H   0  0  0  0  0  0  0  0  0  0  0  0
   -3.1873   -2.5755    0.8089 C   0  0  0  0  0  0  0  0  0  0  0  0
   -3.8793   -1.9065    1.3169 H   0  0  0  0  0  0  0  0  0  0  0  0
   -3.4623   -2.6685   -0.2401 H   0  0  0  0  0  0  0  0  0  0  0  0
   -1.7863   -2.0195    0.9119 C   0  0  0  0  0  0  0  0  0  0  0  0
   -0.9073   -2.6615    1.4699 O   0  0  0  0  0  0  0  0  0  0  0  0
   -1.5803   -0.8195    0.3749 N   0  0  0  0  0  0  0  0  0  0  0  0
   -2.3603   -0.3345   -0.0451 H   0  0  0  0  0  0  0  0  0  0  0  0
   -0.2933   -0.1205    0.3719 C   0  0  1  0  0  0  0  0  0  0  0  0
    0.0200    0.0298   -0.6622 H   0  0  0  0  0  0  0  0  0  0  0  0
   -0.4713    1.2623    1.0316 C   0  0  0  0  0  0  0  0  0  0  0  0
   -0.9180    1.1133    2.0161 H   0  0  0  0  0  0  0  0  0  0  0  0
    0.5075    1.7239    1.1694 H   0  0  0  0  0  0  0  0  0  0  0  0
   -1.3579    2.2278    0.2261 C   0  0  0  0  0  0  0  0  0  0  0  0
   -0.9173    2.4055   -0.7549 H   0  0  0  0  0  0  0  0  0  0  0  0
   -2.3451    1.7852    0.0988 H   0  0  0  0  0  0  0  0  0  0  0  0
   -1.5287    3.5737    0.9231 C   0  0  0  0  0  0  0  0  0  0  0  0
   -1.1332    3.8351    2.0479 O   0  0  0  0  0  0  0  0  0  0  0  0
   -2.1803    4.5148    0.2150 O   0  0  0  0  0  0  0  0  0  0  0  0
   -2.2143    5.2823    0.7887 H   0  0  0  0  0  0  0  0  0  0  0  0
    0.7770   -0.9704    1.0751 C   0  0  0  0  0  0  0  0  0  0  0  0
    0.4426   -1.9193    1.7819 O   0  0  0  0  0  0  0  0  0  0  0  0
    2.0565   -0.6232    0.8909 N   0  0  0  0  0  0  0  0  0  0  0  0
    2.2551    0.1538    0.2785 H   0  0  0  0  0  0  0  0  0  0  0  0
    3.1871   -1.3156    1.5060 C   0  0  0  0  0  0  0  0  0  0  0  0
    3.1670   -2.3718    1.2316 H   0  0  0  0  0  0  0  0  0  0  0  0
    4.1279   -0.8761    1.1718 H   0  0  0  0  0  0  0  0  0  0  0  0
    3.1192   -1.2387    2.5930 H   0  0  0  0  0  0  0  0  0  0  0  0
  5  6  2  0  0  0  0
  5  7  1  0  0  0  0
  2  3  1  0  0  0  0
  2  4  1  0  0  0  0
  2  5  1  0  0  0  0
  1  2  1  0  0  0  0
 21 22  2  0  0  0  0
 21 23  1  0  0  0  0
 19 20  1  0  0  0  0
 17 18  2  0  0  0  0
 17 19  1  0  0  0  0
 14 15  1  0  0  0  0
 14 16  1  0  0  0  0
 14 17  1  0  0  0  0
 11 12  1  0  0  0  0
 11 13  1  0  0  0  0
 11 14  1  0  0  0  0
  9 10  1  0  0  0  0
  9 11  1  0  0  0  0
  9 21  1  0  0  0  0
  7  8  1  0  0  0  0
  7  9  1  0  0  0  0
 25 26  1  0  0  0  0
 25 27  1  0  0  0  0
 25 28  1  0  0  0  0
 23 24  1  0  0  0  0
 23 25  1  0  0  0  0
M  END
$$$$
default_name
  -OEChem-01062215323D

 28 27  0     1  0  0  0  0  0999 V2000
   -3.2133   -3.5565    1.2809 H   0  0  0  0  0  0  0  0  0  0  0  0
   -3.1873   -2.5755    0.8089 C   0  0  0  0  0  0  0  0  0  0  0  0
   -3.8793   -1.9065    1.3169 H   0  0  0  0  0  0  0  0  0  0  0  0
   -3.4623   -2.6685   -0.2401 H   0  0  0  0  0  0  0  0  0  0  0  0
   -1.7863   -2.0195    0.9119 C   0  0  0  0  0  0  0  0  0  0  0  0
   -0.9073   -2.6615    1.4699 O   0  0  0  0  0  0  0  0  0  0  0  0
   -1.5803   -0.8195    0.3749 N   0  0  0  0  0  0  0  0  0  0  0  0
   -2.3603   -0.3345   -0.0451 H   0  0  0  0  0  0  0  0  0  0  0  0
   -0.2933   -0.1205    0.3719 C   0  0  1  0  0  0  0  0  0  0  0  0
   -0.1079    0.2653   -0.6315 H   0  0  0  0  0  0  0  0  0  0  0  0
   -0.3680    1.0734    1.3456 C   0  0  0  0  0  0  0  0  0  0  0  0
   -0.6918    0.6982    2.3179 H   0  0  0  0  0  0  0  0  0  0  0  0
    0.6271    1.5050    1.4627 H   0  0  0  0  0  0  0  0  0  0  0  0
   -1.3328    2.1845    0.8967 C   0  0  0  0  0  0  0  0  0  0  0  0
   -1.0142    2.5868   -0.0650 H   0  0  0  0  0  0  0  0  0  0  0  0
   -2.3347    1.7690    0.7950 H   0  0  0  0  0  0  0  0  0  0  0  0
   -1.3963    3.3342    1.8971 C   0  0  0  0  0  0  0  0  0  0  0  0
   -0.8612    3.3383    2.9941 O   0  0  0  0  0  0  0  0  0  0  0  0
   -2.1163    4.4026    1.5076 O   0  0  0  0  0  0  0  0  0  0  0  0
   -2.0678    5.0189    2.2405 H   0  0  0  0  0  0  0  0  0  0  0  0
    0.8429   -1.0933    0.7256 C   0  0  0  0  0  0  0  0  0  0  0  0
    0.5902   -2.2714    0.9706 O   0  0  0  0  0  0  0  0  0  0  0  0
    2.0861   -0.5987    0.7632 N   0  0  0  0  0  0  0  0  0  0  0  0
    2.2187    0.3736    0.5280 H   0  0  0  0  0  0  0  0  0  0  0  0
    3.2686   -1.3874    1.1032 C   0  0  0  0  0  0  0  0  0  0  0  0
    3.3527   -2.2384    0.4248 H   0  0  0  0  0  0  0  0  0  0  0  0
    4.1681   -0.7754    1.0237 H   0  0  0  0  0  0  0  0  0  0  0  0
    3.1787   -1.7654    2.1235 H   0  0  0  0  0  0  0  0  0  0  0  0
  5  6  2  0  0  0  0
  5  7  1  0  0  0  0
  2  3  1  0  0  0  0
  2  4  1  0  0  0  0
  2  5  1  0  0  0  0
  1  2  1  0  0  0  0
 21 22  2  0  0  0  0
 21 23  1  0  0  0  0
 19 20  1  0  0  0  0
 17 18  2  0  0  0  0
 17 19  1  0  0  0  0
 14 15  1  0  0  0  0
 14 16  1  0  0  0  0
 14 17  1  0  0  0  0
 11 12  1  0  0  0  0
 11 13  1  0  0  0  0
 11 14  1  0  0  0  0
  9 10  1  0  0  0  0
  9 11  1  0  0  0  0
  9 21  1  0  0  0  0
  7  8  1  0  0  0  0
  7  9  1  0  0  0  0
 25 26  1  0  0  0  0
 25 27  1  0  0  0  0
 25 28  1  0  0  0  0
 23 24  1  0  0  0  0
 23 25  1  0  0  0  0
M  END
$$$$
default_name
  -OEChem-01062215323D

 28 27  0     1  0  0  0  0  0999 V2000
   -3.2133   -3.5565    1.2809 H   0  0  0  0  0  0  0  0  0  0  0  0
   -3.1873   -2.5755    0.8089 C   0  0  0  0  0  0  0  0  0  0  0  0
   -3.8793   -1.9065    1.3169 H   0  0  0  0  0  0  0  0  0  0  0  0
   -3.4623   -2.6685   -0.2401 H   0  0  0  0  0  0  0  0  0  0  0  0
   -1.7863   -2.0195    0.9119 C   0  0  0  0  0  0  0  0  0  0  0  0
   -0.9073   -2.6615    1.4699 O   0  0  0  0  0  0  0  0  0  0  0  0
   -1.5803   -0.8195    0.3749 N   0  0  0  0  0  0  0  0  0  0  0  0
   -2.3603   -0.3345   -0.0451 H   0  0  0  0  0  0  0  0  0  0  0  0
   -0.2933   -0.1205    0.3719 C   0  0  1  0  0  0  0  0  0  0  0  0
   -0.1079    0.2653   -0.6315 H   0  0  0  0  0  0  0  0  0  0  0  0
   -0.3680    1.0734    1.3456 C   0  0  0  0  0  0  0  0  0  0  0  0
   -0.6918    0.6982    2.3179 H   0  0  0  0  0  0  0  0  0  0  0  0
    0.6271    1.5050    1.4627 H   0  0  0  0  0  0  0  0  0  0  0  0
   -1.3328    2.1845    0.8967 C   0  0  0  0  0  0  0  0  0  0  0  0
   -1.0142    2.5868   -0.0650 H   0  0  0  0  0  0  0  0  0  0  0  0
   -2.3347    1.7690    0.7950 H   0  0  0  0  0  0  0  0  0  0  0  0
   -1.3963    3.3342    1.8971 C   0  0  0  0  0  0  0  0  0  0  0  0
   -0.8612    3.3383    2.9941 O   0  0  0  0  0  0  0  0  0  0  0  0
   -2.1163    4.4026    1.5076 O   0  0  0  0  0  0  0  0  0  0  0  0
   -2.0678    5.0189    2.2405 H   0  0  0  0  0  0  0  0  0  0  0  0
    0.8429   -1.0933    0.7256 C   0  0  0  0  0  0  0  0  0  0  0  0
    0.6444   -2.3064    0.7003 O   0  0  0  0  0  0  0  0  0  0  0  0
    2.0236   -0.5620    1.0650 N   0  0  0  0  0  0  0  0  0  0  0  0
    2.1179    0.4424    1.0411 H   0  0  0  0  0  0  0  0  0  0  0  0
    3.1937   -1.3497    1.4476 C   0  0  0  0  0  0  0  0  0  0  0  0
    3.4479   -2.0465    0.6468 H   0  0  0  0  0  0  0  0  0  0  0  0
    4.0457   -0.6953    1.6373 H   0  0  0  0  0  0  0  0  0  0  0  0
    2.9724   -1.9242    2.3493 H   0  0  0  0  0  0  0  0  0  0  0  0
  5  6  2  0  0  0  0
  5  7  1  0  0  0  0
  2  3  1  0  0  0  0
  2  4  1  0  0  0  0
  2  5  1  0  0  0  0
  1  2  1  0  0  0  0
 21 22  2  0  0  0  0
 21 23  1  0  0  0  0
 19 20  1  0  0  0  0
 17 18  2  0  0  0  0
 17 19  1  0  0  0  0
 14 15  1  0  0  0  0
 14 16  1  0  0  0  0
 14 17  1  0  0  0  0
 11 12  1  0  0  0  0
 11 13  1  0  0  0  0
 11 14  1  0  0  0  0
  9 10  1  0  0  0  0
  9 11  1  0  0  0  0
  9 21  1  0  0  0  0
  7  8  1  0  0  0  0
  7  9  1  0  0  0  0
 25 26  1  0  0  0  0
 25 27  1  0  0  0  0
 25 28  1  0  0  0  0
 23 24  1  0  0  0  0
 23 25  1  0  0  0  0
M  END
$$$$
default_name
  -OEChem-01062215323D

 28 27  0     1  0  0  0  0  0999 V2000
   -3.2133   -3.5565    1.2809 H   0  0  0  0  0  0  0  0  0  0  0  0
   -3.1873   -2.5755    0.8089 C   0  0  0  0  0  0  0  0  0  0  0  0
   -3.8793   -1.9065    1.3169 H   0  0  0  0  0  0  0  0  0  0  0  0
   -3.4623   -2.6685   -0.2401 H   0  0  0  0  0  0  0  0  0  0  0  0
   -1.7863   -2.0195    0.9119 C   0  0  0  0  0  0  0  0  0  0  0  0
   -0.9073   -2.6615    1.4699 O   0  0  0  0  0  0  0  0  0  0  0  0
   -1.5803   -0.8195    0.3749 N   0  0  0  0  0  0  0  0  0  0  0  0
   -2.3603   -0.3345   -0.0451 H   0  0  0  0  0  0  0  0  0  0  0  0
   -0.2933   -0.1205    0.3719 C   0  0  1  0  0  0  0  0  0  0  0  0
   -0.1079    0.2653   -0.6315 H   0  0  0  0  0  0  0  0  0  0  0  0
   -0.3680    1.0734    1.3456 C   0  0  0  0  0  0  0  0  0  0  0  0
   -0.6918    0.6982    2.3179 H   0  0  0  0  0  0  0  0  0  0  0  0
    0.6271    1.5050    1.4627 H   0  0  0  0  0  0  0  0  0  0  0  0
   -1.3328    2.1845    0.8967 C   0  0  0  0  0  0  0  0  0  0  0  0
   -1.0142    2.5868   -0.0650 H   0  0  0  0  0  0  0  0  0  0  0  0
   -2.3347    1.7690    0.7950 H   0  0  0  0  0  0  0  0  0  0  0  0
   -1.3963    3.3342    1.8971 C   0  0  0  0  0  0  0  0  0  0  0  0
   -0.8612    3.3383    2.9941 O   0  0  0  0  0  0  0  0  0  0  0  0
   -2.1163    4.4026    1.5076 O   0  0  0  0  0  0  0  0  0  0  0  0
   -2.0678    5.0189    2.2405 H   0  0  0  0  0  0  0  0  0  0  0  0
    0.8429   -1.0933    0.7256 C   0  0  0  0  0  0  0  0  0  0  0  0
    0.7430   -2.2853    0.4414 O   0  0  0  0  0  0  0  0  0  0  0  0
    1.9116   -0.5880    1.3534 N   0  0  0  0  0  0  0  0  0  0  0  0
    1.9324    0.4047    1.5334 H   0  0  0  0  0  0  0  0  0  0  0  0
    3.0626   -1.3837    1.7753 C   0  0  0  0  0  0  0  0  0  0  0  0
    3.4920   -1.8979    0.9135 H   0  0  0  0  0  0  0  0  0  0  0  0
    3.8220   -0.7427    2.2253 H   0  0  0  0  0  0  0  0  0  0  0  0
    2.7457   -2.1331    2.5033 H   0  0  0  0  0  0  0  0  0  0  0  0
  5  6  2  0  0  0  0
  5  7  1  0  0  0  0
  2  3  1  0  0  0  0
  2  4  1  0  0  0  0
  2  5  1  0  0  0  0
  1  2  1  0  0  0  0
 21 22  2  0  0  0  0
 21 23  1  0  0  0  0
 19 20  1  0  0  0  0
 17 18  2  0  0  0  0
 17 19  1  0  0  0  0
 14 15  1  0  0  0  0
 14 16  1  0  0  0  0
 14 17  1  0  0  0  0
 11 12  1  0  0  0  0
 11 13  1  0  0  0  0
 11 14  1  0  0  0  0
  9 10  1  0  0  0  0
  9 11  1  0  0  0  0
  9 21  1  0  0  0  0
  7  8  1  0  0  0  0
  7  9  1  0  0  0  0
 25 26  1  0  0  0  0
 25 27  1  0  0  0  0
 25 28  1  0  0  0  0
 23 24  1  0  0  0  0
 23 25  1  0  0  0  0
M  END
$$$$
default_name
  -OEChem-01062215323D

 28 27  0     1  0  0  0  0  0999 V2000
   -3.2133   -3.5565    1.2809 H   0  0  0  0  0  0  0  0  0  0  0  0
   -3.1873   -2.5755    0.8089 C   0  0  0  0  0  0  0  0  0  0  0  0
   -3.8793   -1.9065    1.3169 H   0  0  0  0  0  0  0  0  0  0  0  0
   -3.4623   -2.6685   -0.2401 H   0  0  0  0  0  0  0  0  0  0  0  0
   -1.7863   -2.0195    0.9119 C   0  0  0  0  0  0  0  0  0  0  0  0
   -0.9073   -2.6615    1.4699 O   0  0  0  0  0  0  0  0  0  0  0  0
   -1.5803   -0.8195    0.3749 N   0  0  0  0  0  0  0  0  0  0  0  0
   -2.3603   -0.3345   -0.0451 H   0  0  0  0  0  0  0  0  0  0  0  0
   -0.2933   -0.1205    0.3719 C   0  0  1  0  0  0  0  0  0  0  0  0
   -0.1079    0.2653   -0.6315 H   0  0  0  0  0  0  0  0  0  0  0  0
   -0.3680    1.0734    1.3456 C   0  0  0  0  0  0  0  0  0  0  0  0
   -0.6918    0.6982    2.3179 H   0  0  0  0  0  0  0  0  0  0  0  0
    0.6271    1.5050    1.4627 H   0  0  0  0  0  0  0  0  0  0  0  0
   -1.3328    2.1845    0.8967 C   0  0  0  0  0  0  0  0  0  0  0  0
   -1.0142    2.5868   -0.0650 H   0  0  0  0  0  0  0  0  0  0  0  0
   -2.3347    1.7690    0.7950 H   0  0  0  0  0  0  0  0  0  0  0  0
   -1.3963    3.3342    1.8971 C   0  0  0  0  0  0  0  0  0  0  0  0
   -0.8612    3.3383    2.9941 O   0  0  0  0  0  0  0  0  0  0  0  0
   -2.1163    4.4026    1.5076 O   0  0  0  0  0  0  0  0  0  0  0  0
   -2.0678    5.0189    2.2405 H   0  0  0  0  0  0  0  0  0  0  0  0
    0.8429   -1.0933    0.7256 C   0  0  0  0  0  0  0  0  0  0  0  0
    0.8795   -2.2095    0.2115 O   0  0  0  0  0  0  0  0  0  0  0  0
    1.7578   -0.6749    1.6085 N   0  0  0  0  0  0  0  0  0  0  0  0
    1.6748    0.2631    1.9713 H   0  0  0  0  0  0  0  0  0  0  0  0
    2.8844   -1.4870    2.0637 C   0  0  0  0  0  0  0  0  0  0  0  0
    3.4822   -1.8028    1.2068 H   0  0  0  0  0  0  0  0  0  0  0  0
    3.5126   -0.9143    2.7475 H   0  0  0  0  0  0  0  0  0  0  0  0
    2.5139   -2.3778    2.5749 H   0  0  0  0  0  0  0  0  0  0  0  0
  5  6  2  0  0  0  0
  5  7  1  0  0  0  0
  2  3  1  0  0  0  0
  2  4  1  0  0  0  0
  2  5  1  0  0  0  0
  1  2  1  0  0  0  0
 21 22  2  0  0  0  0
 21 23  1  0  0  0  0
 19 20  1  0  0  0  0
 17 18  2  0  0  0  0
 17 19  1  0  0  0  0
 14 15  1  0  0  0  0
 14 16  1  0  0  0  0
 14 17  1  0  0  0  0
 11 12  1  0  0  0  0
 11 13  1  0  0  0  0
 11 14  1  0  0  0  0
  9 10  1  0  0  0  0
  9 11  1  0  0  0  0
  9 21  1  0  0  0  0
  7  8  1  0  0  0  0
  7  9  1  0  0  0  0
 25 26  1  0  0  0  0
 25 27  1  0  0  0  0
 25 28  1  0  0  0  0
 23 24  1  0  0  0  0
 23 25  1  0  0  0  0
M  END
$$$$
default_name
  -OEChem-01062215323D

 28 27  0     1  0  0  0  0  0999 V2000
   -3.2133   -3.5565    1.2809 H   0  0  0  0  0  0  0  0  0  0  0  0
   -3.1873   -2.5755    0.8089 C   0  0  0  0  0  0  0  0  0  0  0  0
   -3.8793   -1.9065    1.3169 H   0  0  0  0  0  0  0  0  0  0  0  0
   -3.4623   -2.6685   -0.2401 H   0  0  0  0  0  0  0  0  0  0  0  0
   -1.7863   -2.0195    0.9119 C   0  0  0  0  0  0  0  0  0  0  0  0
   -0.9073   -2.6615    1.4699 O   0  0  0  0  0  0  0  0  0  0  0  0
   -1.5803   -0.8195    0.3749 N   0  0  0  0  0  0  0  0  0  0  0  0
   -2.3603   -0.3345   -0.0451 H   0  0  0  0  0  0  0  0  0  0  0  0
   -0.2933   -0.1205    0.3719 C   0  0  1  0  0  0  0  0  0  0  0  0
   -0.1079    0.2653   -0.6315 H   0  0  0  0  0  0  0  0  0  0  0  0
   -0.3680    1.0734    1.3456 C   0  0  0  0  0  0  0  0  0  0  0  0
   -0.6918    0.6982    2.3179 H   0  0  0  0  0  0  0  0  0  0  0  0
    0.6271    1.5050    1.4627 H   0  0  0  0  0  0  0  0  0  0  0  0
   -1.3328    2.1845    0.8967 C   0  0  0  0  0  0  0  0  0  0  0  0
   -1.0142    2.5868   -0.0650 H   0  0  0  0  0  0  0  0  0  0  0  0
   -2.3347    1.7690    0.7950 H   0  0  0  0  0  0  0  0  0  0  0  0
   -1.3963    3.3342    1.8971 C   0  0  0  0  0  0  0  0  0  0  0  0
   -0.8612    3.3383    2.9941 O   0  0  0  0  0  0  0  0  0  0  0  0
   -2.1163    4.4026    1.5076 O   0  0  0  0  0  0  0  0  0  0  0  0
   -2.0678    5.0189    2.2405 H   0  0  0  0  0  0  0  0  0  0  0  0
    0.8429   -1.0933    0.7256 C   0  0  0  0  0  0  0  0  0  0  0  0
    1.0445   -2.0842    0.0262 O   0  0  0  0  0  0  0  0  0  0  0  0
    1.5725   -0.8168    1.8132 N   0  0  0  0  0  0  0  0  0  0  0  0
    1.3627    0.0271    2.3249 H   0  0  0  0  0  0  0  0  0  0  0  0
    2.6711   -1.6526    2.2934 C   0  0  0  0  0  0  0  0  0  0  0  0
    3.4189   -1.7676    1.5067 H   0  0  0  0  0  0  0  0  0  0  0  0
    3.1383   -1.1984    3.1684 H   0  0  0  0  0  0  0  0  0  0  0  0
    2.2928   -2.6416    2.5592 H   0  0  0  0  0  0  0  0  0  0  0  0
  5  6  2  0  0  0  0
  5  7  1  0  0  0  0
  2  3  1  0  0  0  0
  2  4  1  0  0  0  0
  2  5  1  0  0  0  0
  1  2  1  0  0  0  0
 21 22  2  0  0  0  0
 21 23  1  0  0  0  0
 19 20  1  0  0  0  0
 17 18  2  0  0  0  0
 17 19  1  0  0  0  0
 14 15  1  0  0  0  0
 14 16  1  0  0  0  0
 14 17  1  0  0  0  0
 11 12  1  0  0  0  0
 11 13  1  0  0  0  0
 11 14  1  0  0  0  0
  9 10  1  0  0  0  0
  9 11  1  0  0  0  0
  9 21  1  0  0  0  0
  7  8  1  0  0  0  0
  7  9  1  0  0  0  0
 25 26  1  0  0  0  0
 25 27  1  0  0  0  0
 25 28  1  0  0  0  0
 23 24  1  0  0  0  0
 23 25  1  0  0  0  0
M  END
$$$$
default_name
  -OEChem-01062215323D

 28 27  0     1  0  0  0  0  0999 V2000
   -3.2133   -3.5565    1.2809 H   0  0  0  0  0  0  0  0  0  0  0  0
   -3.1873   -2.5755    0.8089 C   0  0  0  0  0  0  0  0  0  0  0  0
   -3.8793   -1.9065    1.3169 H   0  0  0  0  0  0  0  0  0  0  0  0
   -3.4623   -2.6685   -0.2401 H   0  0  0  0  0  0  0  0  0  0  0  0
   -1.7863   -2.0195    0.9119 C   0  0  0  0  0  0  0  0  0  0  0  0
   -0.9073   -2.6615    1.4699 O   0  0  0  0  0  0  0  0  0  0  0  0
   -1.5803   -0.8195    0.3749 N   0  0  0  0  0  0  0  0  0  0  0  0
   -2.3603   -0.3345   -0.0451 H   0  0  0  0  0  0  0  0  0  0  0  0
   -0.2933   -0.1205    0.3719 C   0  0  1  0  0  0  0  0  0  0  0  0
   -0.1079    0.2653   -0.6315 H   0  0  0  0  0  0  0  0  0  0  0  0
   -0.3680    1.0734    1.3456 C   0  0  0  0  0  0  0  0  0  0  0  0
   -0.6918    0.6982    2.3179 H   0  0  0  0  0  0  0  0  0  0  0  0
    0.6271    1.5050    1.4627 H   0  0  0  0  0  0  0  0  0  0  0  0
   -1.3328    2.1845    0.8967 C   0  0  0  0  0  0  0  0  0  0  0  0
   -1.0142    2.5868   -0.0650 H   0  0  0  0  0  0  0  0  0  0  0  0
   -2.3347    1.7690    0.7950 H   0  0  0  0  0  0  0  0  0  0  0  0
   -1.3963    3.3342    1.8971 C   0  0  0  0  0  0  0  0  0  0  0  0
   -0.8612    3.3383    2.9941 O   0  0  0  0  0  0  0  0  0  0  0  0
   -2.1163    4.4026    1.5076 O   0  0  0  0  0  0  0  0  0  0  0  0
   -2.0678    5.0189    2.2405 H   0  0  0  0  0  0  0  0  0  0  0  0
    0.8429   -1.0933    0.7256 C   0  0  0  0  0  0  0  0  0  0  0  0
    1.2267   -1.9179   -0.1017 O   0  0  0  0  0  0  0  0  0  0  0  0
    1.3685   -1.0041    1.9534 N   0  0  0  0  0  0  0  0  0  0  0  0
    1.0174   -0.2870    2.5703 H   0  0  0  0  0  0  0  0  0  0  0  0
    2.4373   -1.8691    2.4487 C   0  0  0  0  0  0  0  0  0  0  0  0
    3.3066   -1.7948    1.7927 H   0  0  0  0  0  0  0  0  0  0  0  0
    2.7248   -1.5756    3.4593 H   0  0  0  0  0  0  0  0  0  0  0  0
    2.0976   -2.9067    2.4574 H   0  0  0  0  0  0  0  0  0  0  0  0
  5  6  2  0  0  0  0
  5  7  1  0  0  0  0
  2  3  1  0  0  0  0
  2  4  1  0  0  0  0
  2  5  1  0  0  0  0
  1  2  1  0  0  0  0
 21 22  2  0  0  0  0
 21 23  1  0  0  0  0
 19 20  1  0  0  0  0
 17 18  2  0  0  0  0
 17 19  1  0  0  0  0
 14 15  1  0  0  0  0
 14 16  1  0  0  0  0
 14 17  1  0  0  0  0
 11 12  1  0  0  0  0
 11 13  1  0  0  0  0
 11 14  1  0  0  0  0
  9 10  1  0  0  0  0
  9 11  1  0  0  0  0
  9 21  1  0  0  0  0
  7  8  1  0  0  0  0
  7  9  1  0  0  0  0
 25 26  1  0  0  0  0
 25 27  1  0  0  0  0
 25 28  1  0  0  0  0
 23 24  1  0  0  0  0
 23 25  1  0  0  0  0
M  END
$$$$
default_name
  -OEChem-01062215323D

 28 27  0     1  0  0  0  0  0999 V2000
   -3.2133   -3.5565    1.2809 H   0  0  0  0  0  0  0  0  0  0  0  0
   -3.1873   -2.5755    0.8089 C   0  0  0  0  0  0  0  0  0  0  0  0
   -3.8793   -1.9065    1.3169 H   0  0  0  0  0  0  0  0  0  0  0  0
   -3.4623   -2.6685   -0.2401 H   0  0  0  0  0  0  0  0  0  0  0  0
   -1.7863   -2.0195    0.9119 C   0  0  0  0  0  0  0  0  0  0  0  0
   -0.9073   -2.6615    1.4699 O   0  0  0  0  0  0  0  0  0  0  0  0
   -1.5803   -0.8195    0.3749 N   0  0  0  0  0  0  0  0  0  0  0  0
   -2.3603   -0.3345   -0.0451 H   0  0  0  0  0  0  0  0  0  0  0  0
   -0.2933   -0.1205    0.3719 C   0  0  1  0  0  0  0  0  0  0  0  0
   -0.1079    0.2653   -0.6315 H   0  0  0  0  0  0  0  0  0  0  0  0
   -0.3680    1.0734    1.3456 C   0  0  0  0  0  0  0  0  0  0  0  0
   -0.6918    0.6982    2.3179 H   0  0  0  0  0  0  0  0  0  0  0  0
    0.6271    1.5050    1.4627 H   0  0  0  0  0  0  0  0  0  0  0  0
   -1.3328    2.1845    0.8967 C   0  0  0  0  0  0  0  0  0  0  0  0
   -1.0142    2.5868   -0.0650 H   0  0  0  0  0  0  0  0  0  0  0  0
   -2.3347    1.7690    0.7950 H   0  0  0  0  0  0  0  0  0  0  0  0
   -1.3963    3.3342    1.8971 C   0  0  0  0  0  0  0  0  0  0  0  0
   -0.8612    3.3383    2.9941 O   0  0  0  0  0  0  0  0  0  0  0  0
   -2.1163    4.4026    1.5076 O   0  0  0  0  0  0  0  0  0  0  0  0
   -2.0678    5.0189    2.2405 H   0  0  0  0  0  0  0  0  0  0  0  0
    0.8429   -1.0933    0.7256 C   0  0  0  0  0  0  0  0  0  0  0  0
    1.4137   -1.7219   -0.1636 O   0  0  0  0  0  0  0  0  0  0  0  0
    1.1597   -1.2240    2.0195 N   0  0  0  0  0  0  0  0  0  0  0  0
    0.6623   -0.6579    2.6906 H   0  0  0  0  0  0  0  0  0  0  0  0
    2.1990   -2.1220    2.5189 C   0  0  0  0  0  0  0  0  0  0  0  0
    3.1529   -1.8825    2.0454 H   0  0  0  0  0  0  0  0  0  0  0  0
    2.3001   -2.0203    3.6004 H   0  0  0  0  0  0  0  0  0  0  0  0
    1.9415   -3.1548    2.2764 H   0  0  0  0  0  0  0  0  0  0  0  0
  5  6  2  0  0  0  0
  5  7  1  0  0  0  0
  2  3  1  0  0  0  0
  2  4  1  0  0  0  0
  2  5  1  0  0  0  0
  1  2  1  0  0  0  0
 21 22  2  0  0  0  0
 21 23  1  0  0  0  0
 19 20  1  0  0  0  0
 17 18  2  0  0  0  0
 17 19  1  0  0  0  0
 14 15  1  0  0  0  0
 14 16  1  0  0  0  0
 14 17  1  0  0  0  0
 11 12  1  0  0  0  0
 11 13  1  0  0  0  0
 11 14  1  0  0  0  0
  9 10  1  0  0  0  0
  9 11  1  0  0  0  0
  9 21  1  0  0  0  0
  7  8  1  0  0  0  0
  7  9  1  0  0  0  0
 25 26  1  0  0  0  0
 25 27  1  0  0  0  0
 25 28  1  0  0  0  0
 23 24  1  0  0  0  0
 23 25  1  0  0  0  0
M  END
$$$$
default_name
  -OEChem-01062215323D

 28 27  0     1  0  0  0  0  0999 V2000
   -3.2133   -3.5565    1.2809 H   0  0  0  0  0  0  0  0  0  0  0  0
   -3.1873   -2.5755    0.8089 C   0  0  0  0  0  0  0  0  0  0  0  0
   -3.8793   -1.9065    1.3169 H   0  0  0  0  0  0  0  0  0  0  0  0
   -3.4623   -2.6685   -0.2401 H   0  0  0  0  0  0  0  0  0  0  0  0
   -1.7863   -2.0195    0.9119 C   0  0  0  0  0  0  0  0  0  0  0  0
   -0.9073   -2.6615    1.4699 O   0  0  0  0  0  0  0  0  0  0  0  0
   -1.5803   -0.8195    0.3749 N   0  0  0  0  0  0  0  0  0  0  0  0
   -2.3603   -0.3345   -0.0451 H   0  0  0  0  0  0  0  0  0  0  0  0
   -0.2933   -0.1205    0.3719 C   0  0  1  0  0  0  0  0  0  0  0  0
   -0.1079    0.2653   -0.6315 H   0  0  0  0  0  0  0  0  0  0  0  0
   -0.3680    1.0734    1.3456 C   0  0  0  0  0  0  0  0  0  0  0  0
   -0.6918    0.6982    2.3179 H   0  0  0  0  0  0  0  0  0  0  0  0
    0.6271    1.5050    1.4627 H   0  0  0  0  0  0  0  0  0  0  0  0
   -1.3328    2.1845    0.8967 C   0  0  0  0  0  0  0  0  0  0  0  0
   -1.0142    2.5868   -0.0650 H   0  0  0  0  0  0  0  0  0  0  0  0
   -2.3347    1.7690    0.7950 H   0  0  0  0  0  0  0  0  0  0  0  0
   -1.3963    3.3342    1.8971 C   0  0  0  0  0  0  0  0  0  0  0  0
   -0.8612    3.3383    2.9941 O   0  0  0  0  0  0  0  0  0  0  0  0
   -2.1163    4.4026    1.5076 O   0  0  0  0  0  0  0  0  0  0  0  0
   -2.0678    5.0189    2.2405 H   0  0  0  0  0  0  0  0  0  0  0  0
    0.8429   -1.0933    0.7256 C   0  0  0  0  0  0  0  0  0  0  0  0
    1.5929   -1.5097   -0.1552 O   0  0  0  0  0  0  0  0  0  0  0  0
    0.9602   -1.4615    2.0071 N   0  0  0  0  0  0  0  0  0  0  0  0
    0.3217   -1.0604    2.6777 H   0  0  0  0  0  0  0  0  0  0  0  0
    1.9724   -2.3938    2.4994 C   0  0  0  0  0  0  0  0  0  0  0  0
    2.9682   -2.0247    2.2475 H   0  0  0  0  0  0  0  0  0  0  0  0
    1.8933   -2.5021    3.5820 H   0  0  0  0  0  0  0  0  0  0  0  0
    1.8351   -3.3692    2.0285 H   0  0  0  0  0  0  0  0  0  0  0  0
  5  6  2  0  0  0  0
  5  7  1  0  0  0  0
  2  3  1  0  0  0  0
  2  4  1  0  0  0  0
  2  5  1  0  0  0  0
  1  2  1  0  0  0  0
 21 22  2  0  0  0  0
 21 23  1  0  0  0  0
 19 20  1  0  0  0  0
 17 18  2  0  0  0  0
 17 19  1  0  0  0  0
 14 15  1  0  0  0  0
 14 16  1  0  0  0  0
 14 17  1  0  0  0  0
 11 12  1  0  0  0  0
 11 13  1  0  0  0  0
 11 14  1  0  0  0  0
  9 10  1  0  0  0  0
  9 11  1  0  0  0  0
  9 21  1  0  0  0  0
  7  8  1  0  0  0  0
  7  9  1  0  0  0  0
 25 26  1  0  0  0  0
 25 27  1  0  0  0  0
 25 28  1  0  0  0  0
 23 24  1  0  0  0  0
 23 25  1  0  0  0  0
M  END
$$$$
default_name
  -OEChem-01062215323D

 28 27  0     1  0  0  0  0  0999 V2000
   -3.2133   -3.5565    1.2809 H   0  0  0  0  0  0  0  0  0  0  0  0
   -3.1873   -2.5755    0.8089 C   0  0  0  0  0  0  0  0  0  0  0  0
   -3.8793   -1.9065    1.3169 H   0  0  0  0  0  0  0  0  0  0  0  0
   -3.4623   -2.6685   -0.2401 H   0  0  0  0  0  0  0  0  0  0  0  0
   -1.7863   -2.0195    0.9119 C   0  0  0  0  0  0  0  0  0  0  0  0
   -0.9073   -2.6615    1.4699 O   0  0  0  0  0  0  0  0  0  0  0  0
   -1.5803   -0.8195    0.3749 N   0  0  0  0  0  0  0  0  0  0  0  0
   -2.3603   -0.3345   -0.0451 H   0  0  0  0  0  0  0  0  0  0  0  0
   -0.2933   -0.1205    0.3719 C   0  0  1  0  0  0  0  0  0  0  0  0
   -0.1079    0.2653   -0.6315 H   0  0  0  0  0  0  0  0  0  0  0  0
   -0.3680    1.0734    1.3456 C   0  0  0  0  0  0  0  0  0  0  0  0
   -0.6918    0.6982    2.3179 H   0  0  0  0  0  0  0  0  0  0  0  0
    0.6271    1.5050    1.4627 H   0  0  0  0  0  0  0  0  0  0  0  0
   -1.3328    2.1845    0.8967 C   0  0  0  0  0  0  0  0  0  0  0  0
   -1.0142    2.5868   -0.0650 H   0  0  0  0  0  0  0  0  0  0  0  0
   -2.3347    1.7690    0.7950 H   0  0  0  0  0  0  0  0  0  0  0  0
   -1.3963    3.3342    1.8971 C   0  0  0  0  0  0  0  0  0  0  0  0
   -0.8612    3.3383    2.9941 O   0  0  0  0  0  0  0  0  0  0  0  0
   -2.1163    4.4026    1.5076 O   0  0  0  0  0  0  0  0  0  0  0  0
   -2.0678    5.0189    2.2405 H   0  0  0  0  0  0  0  0  0  0  0  0
    0.8429   -1.0933    0.7256 C   0  0  0  0  0  0  0  0  0  0  0  0
    1.7519   -1.2955   -0.0772 O   0  0  0  0  0  0  0  0  0  0  0  0
    0.7837   -1.7004    1.9170 N   0  0  0  0  0  0  0  0  0  0  0  0
    0.0188   -1.4670    2.5324 H   0  0  0  0  0  0  0  0  0  0  0  0
    1.7728   -2.6662    2.3913 C   0  0  0  0  0  0  0  0  0  0  0  0
    2.7652   -2.2117    2.3853 H   0  0  0  0  0  0  0  0  0  0  0  0
    1.5321   -2.9882    3.4055 H   0  0  0  0  0  0  0  0  0  0  0  0
    1.7857   -3.5352    1.7306 H   0  0  0  0  0  0  0  0  0  0  0  0
  5  6  2  0  0  0  0
  5  7  1  0  0  0  0
  2  3  1  0  0  0  0
  2  4  1  0  0  0  0
  2  5  1  0  0  0  0
  1  2  1  0  0  0  0
 21 22  2  0  0  0  0
 21 23  1  0  0  0  0
 19 20  1  0  0  0  0
 17 18  2  0  0  0  0
 17 19  1  0  0  0  0
 14 15  1  0  0  0  0
 14 16  1  0  0  0  0
 14 17  1  0  0  0  0
 11 12  1  0  0  0  0
 11 13  1  0  0  0  0
 11 14  1  0  0  0  0
  9 10  1  0  0  0  0
  9 11  1  0  0  0  0
  9 21  1  0  0  0  0
  7  8  1  0  0  0  0
  7  9  1  0  0  0  0
 25 26  1  0  0  0  0
 25 27  1  0  0  0  0
 25 28  1  0  0  0  0
 23 24  1  0  0  0  0
 23 25  1  0  0  0  0
M  END
$$$$
default_name
  -OEChem-01062215323D

 28 27  0     1  0  0  0  0  0999 V2000
   -3.2133   -3.5565    1.2809 H   0  0  0  0  0  0  0  0  0  0  0  0
   -3.1873   -2.5755    0.8089 C   0  0  0  0  0  0  0  0  0  0  0  0
   -3.8793   -1.9065    1.3169 H   0  0  0  0  0  0  0  0  0  0  0  0
   -3.4623   -2.6685   -0.2401 H   0  0  0  0  0  0  0  0  0  0  0  0
   -1.7863   -2.0195    0.9119 C   0  0  0  0  0  0  0  0  0  0  0  0
   -0.9073   -2.6615    1.4699 O   0  0  0  0  0  0  0  0  0  0  0  0
   -1.5803   -0.8195    0.3749 N   0  0  0  0  0  0  0  0  0  0  0  0
   -2.3603   -0.3345   -0.0451 H   0  0  0  0  0  0  0  0  0  0  0  0
   -0.2933   -0.1205    0.3719 C   0  0  1  0  0  0  0  0  0  0  0  0
   -0.1079    0.2653   -0.6315 H   0  0  0  0  0  0  0  0  0  0  0  0
   -0.3680    1.0734    1.3456 C   0  0  0  0  0  0  0  0  0  0  0  0
   -0.6918    0.6982    2.3179 H   0  0  0  0  0  0  0  0  0  0  0  0
    0.6271    1.5050    1.4627 H   0  0  0  0  0  0  0  0  0  0  0  0
   -1.3328    2.1845    0.8967 C   0  0  0  0  0  0  0  0  0  0  0  0
   -1.0142    2.5868   -0.0650 H   0  0  0  0  0  0  0  0  0  0  0  0
   -2.3347    1.7690    0.7950 H   0  0  0  0  0  0  0  0  0  0  0  0
   -1.3963    3.3342    1.8971 C   0  0  0  0  0  0  0  0  0  0  0  0
   -0.8612    3.3383    2.9941 O   0  0  0  0  0  0  0  0  0  0  0  0
   -2.1163    4.4026    1.5076 O   0  0  0  0  0  0  0  0  0  0  0  0
   -2.0678    5.0189    2.2405 H   0  0  0  0  0  0  0  0  0  0  0  0
    0.8429   -1.0933    0.7256 C   0  0  0  0  0  0  0  0  0  0  0  0
    1.8800   -1.0942    0.0652 O   0  0  0  0  0  0  0  0  0  0  0  0
    0.6422   -1.9244    1.7554 N   0  0  0  0  0  0  0  0  0  0  0  0
   -0.2257   -1.8499    2.2647 H   0  0  0  0  0  0  0  0  0  0  0  0
    1.6140   -2.9204    2.2022 C   0  0  0  0  0  0  0  0  0  0  0  0
    2.5577   -2.4308    2.4493 H   0  0  0  0  0  0  0  0  0  0  0  0
    1.2411   -3.4454    3.0827 H   0  0  0  0  0  0  0  0  0  0  0  0
    1.7967   -3.6414    1.4030 H   0  0  0  0  0  0  0  0  0  0  0  0
  5  6  2  0  0  0  0
  5  7  1  0  0  0  0
  2  3  1  0  0  0  0
  2  4  1  0  0  0  0
  2  5  1  0  0  0  0
  1  2  1  0  0  0  0
 21 22  2  0  0  0  0
 21 23  1  0  0  0  0
 19 20  1  0  0  0  0
 17 18  2  0  0  0  0
 17 19  1  0  0  0  0
 14 15  1  0  0  0  0
 14 16  1  0  0  0  0
 14 17  1  0  0  0  0
 11 12  1  0  0  0  0
 11 13  1  0  0  0  0
 11 14  1  0  0  0  0
  9 10  1  0  0  0  0
  9 11  1  0  0  0  0
  9 21  1  0  0  0  0
  7  8  1  0  0  0  0
  7  9  1  0  0  0  0
 25 26  1  0  0  0  0
 25 27  1  0  0  0  0
 25 28  1  0  0  0  0
 23 24  1  0  0  0  0
 23 25  1  0  0  0  0
M  END
$$$$
default_name
  -OEChem-01062215323D

 28 27  0     1  0  0  0  0  0999 V2000
   -3.2133   -3.5565    1.2809 H   0  0  0  0  0  0  0  0  0  0  0  0
   -3.1873   -2.5755    0.8089 C   0  0  0  0  0  0  0  0  0  0  0  0
   -3.8793   -1.9065    1.3169 H   0  0  0  0  0  0  0  0  0  0  0  0
   -3.4623   -2.6685   -0.2401 H   0  0  0  0  0  0  0  0  0  0  0  0
   -1.7863   -2.0195    0.9119 C   0  0  0  0  0  0  0  0  0  0  0  0
   -0.9073   -2.6615    1.4699 O   0  0  0  0  0  0  0  0  0  0  0  0
   -1.5803   -0.8195    0.3749 N   0  0  0  0  0  0  0  0  0  0  0  0
   -2.3603   -0.3345   -0.0451 H   0  0  0  0  0  0  0  0  0  0  0  0
   -0.2933   -0.1205    0.3719 C   0  0  1  0  0  0  0  0  0  0  0  0
   -0.1079    0.2653   -0.6315 H   0  0  0  0  0  0  0  0  0  0  0  0
   -0.3680    1.0734    1.3456 C   0  0  0  0  0  0  0  0  0  0  0  0
   -0.6918    0.6982    2.3179 H   0  0  0  0  0  0  0  0  0  0  0  0
    0.6271    1.5050    1.4627 H   0  0  0  0  0  0  0  0  0  0  0  0
   -1.3328    2.1845    0.8967 C   0  0  0  0  0  0  0  0  0  0  0  0
   -1.0142    2.5868   -0.0650 H   0  0  0  0  0  0  0  0  0  0  0  0
   -2.3347    1.7690    0.7950 H   0  0  0  0  0  0  0  0  0  0  0  0
   -1.3963    3.3342    1.8971 C   0  0  0  0  0  0  0  0  0  0  0  0
   -0.8612    3.3383    2.9941 O   0  0  0  0  0  0  0  0  0  0  0  0
   -2.1163    4.4026    1.5076 O   0  0  0  0  0  0  0  0  0  0  0  0
   -2.0678    5.0189    2.2405 H   0  0  0  0  0  0  0  0  0  0  0  0
    0.8429   -1.0933    0.7256 C   0  0  0  0  0  0  0  0  0  0  0  0
    1.9684   -0.9193    0.2622 O   0  0  0  0  0  0  0  0  0  0  0  0
    0.5453   -2.1184    1.5332 N   0  0  0  0  0  0  0  0  0  0  0  0
   -0.3953   -2.1832    1.8928 H   0  0  0  0  0  0  0  0  0  0  0  0
    1.5067   -3.1393    1.9448 C   0  0  0  0  0  0  0  0  0  0  0  0
    2.3598   -2.6670    2.4353 H   0  0  0  0  0  0  0  0  0  0  0  0
    1.0401   -3.8427    2.6359 H   0  0  0  0  0  0  0  0  0  0  0  0
    1.8674   -3.6807    1.0680 H   0  0  0  0  0  0  0  0  0  0  0  0
  5  6  2  0  0  0  0
  5  7  1  0  0  0  0
  2  3  1  0  0  0  0
  2  4  1  0  0  0  0
  2  5  1  0  0  0  0
  1  2  1  0  0  0  0
 21 22  2  0  0  0  0
 21 23  1  0  0  0  0
 19 20  1  0  0  0  0
 17 18  2  0  0  0  0
 17 19  1  0  0  0  0
 14 15  1  0  0  0  0
 14 16  1  0  0  0  0
 14 17  1  0  0  0  0
 11 12  1  0  0  0  0
 11 13  1  0  0  0  0
 11 14  1  0  0  0  0
  9 10  1  0  0  0  0
  9 11  1  0  0  0  0
  9 21  1  0  0  0  0
  7  8  1  0  0  0  0
  7  9  1  0  0  0  0
 25 26  1  0  0  0  0
 25 27  1  0  0  0  0
 25 28  1  0  0  0  0
 23 24  1  0  0  0  0
 23 25  1  0  0  0  0
M  END
$$$$
default_name
  -OEChem-01062215323D

 28 27  0     1  0  0  0  0  0999 V2000
   -3.2133   -3.5565    1.2809 H   0  0  0  0  0  0  0  0  0  0  0  0
   -3.1873   -2.5755    0.8089 C   0  0  0  0  0  0  0  0  0  0  0  0
   -3.8793   -1.9065    1.3169 H   0  0  0  0  0  0  0  0  0  0  0  0
   -3.4623   -2.6685   -0.2401 H   0  0  0  0  0  0  0  0  0  0  0  0
   -1.7863   -2.0195    0.9119 C   0  0  0  0  0  0  0  0  0  0  0  0
   -0.9073   -2.6615    1.4699 O   0  0  0  0  0  0  0  0  0  0  0  0
   -1.5803   -0.8195    0.3749 N   0  0  0  0  0  0  0  0  0  0  0  0
   -2.3603   -0.3345   -0.0451 H   0  0  0  0  0  0  0  0  0  0  0  0
   -0.2933   -0.1205    0.3719 C   0  0  1  0  0  0  0  0  0  0  0  0
   -0.1079    0.2653   -0.6315 H   0  0  0  0  0  0  0  0  0  0  0  0
   -0.3680    1.0734    1.3456 C   0  0  0  0  0  0  0  0  0  0  0  0
   -0.6918    0.6982    2.3179 H   0  0  0  0  0  0  0  0  0  0  0  0
    0.6271    1.5050    1.4627 H   0  0  0  0  0  0  0  0  0  0  0  0
   -1.3328    2.1845    0.8967 C   0  0  0  0  0  0  0  0  0  0  0  0
   -1.0142    2.5868   -0.0650 H   0  0  0  0  0  0  0  0  0  0  0  0
   -2.3347    1.7690    0.7950 H   0  0  0  0  0  0  0  0  0  0  0  0
   -1.3963    3.3342    1.8971 C   0  0  0  0  0  0  0  0  0  0  0  0
   -0.8612    3.3383    2.9941 O   0  0  0  0  0  0  0  0  0  0  0  0
   -2.1163    4.4026    1.5076 O   0  0  0  0  0  0  0  0  0  0  0  0
   -2.0678    5.0189    2.2405 H   0  0  0  0  0  0  0  0  0  0  0  0
    0.8429   -1.0933    0.7256 C   0  0  0  0  0  0  0  0  0  0  0  0
    2.0111   -0.7828    0.5005 O   0  0  0  0  0  0  0  0  0  0  0  0
    0.4997   -2.2689    1.2657 N   0  0  0  0  0  0  0  0  0  0  0  0
   -0.4783   -2.4440    1.4420 H   0  0  0  0  0  0  0  0  0  0  0  0
    1.4583   -3.3079    1.6367 C   0  0  0  0  0  0  0  0  0  0  0  0
    2.1850   -2.9043    2.3441 H   0  0  0  0  0  0  0  0  0  0  0  0
    0.9427   -4.1529    2.0953 H   0  0  0  0  0  0  0  0  0  0  0  0
    1.9928   -3.6504    0.7485 H   0  0  0  0  0  0  0  0  0  0  0  0
  5  6  2  0  0  0  0
  5  7  1  0  0  0  0
  2  3  1  0  0  0  0
  2  4  1  0  0  0  0
  2  5  1  0  0  0  0
  1  2  1  0  0  0  0
 21 22  2  0  0  0  0
 21 23  1  0  0  0  0
 19 20  1  0  0  0  0
 17 18  2  0  0  0  0
 17 19  1  0  0  0  0
 14 15  1  0  0  0  0
 14 16  1  0  0  0  0
 14 17  1  0  0  0  0
 11 12  1  0  0  0  0
 11 13  1  0  0  0  0
 11 14  1  0  0  0  0
  9 10  1  0  0  0  0
  9 11  1  0  0  0  0
  9 21  1  0  0  0  0
  7  8  1  0  0  0  0
  7  9  1  0  0  0  0
 25 26  1  0  0  0  0
 25 27  1  0  0  0  0
 25 28  1  0  0  0  0
 23 24  1  0  0  0  0
 23 25  1  0  0  0  0
M  END
$$$$
default_name
  -OEChem-01062215323D

 28 27  0     1  0  0  0  0  0999 V2000
   -3.2133   -3.5565    1.2809 H   0  0  0  0  0  0  0  0  0  0  0  0
   -3.1873   -2.5755    0.8089 C   0  0  0  0  0  0  0  0  0  0  0  0
   -3.8793   -1.9065    1.3169 H   0  0  0  0  0  0  0  0  0  0  0  0
   -3.4623   -2.6685   -0.2401 H   0  0  0  0  0  0  0  0  0  0  0  0
   -1.7863   -2.0195    0.9119 C   0  0  0  0  0  0  0  0  0  0  0  0
   -0.9073   -2.6615    1.4699 O   0  0  0  0  0  0  0  0  0  0  0  0
   -1.5803   -0.8195    0.3749 N   0  0  0  0  0  0  0  0  0  0  0  0
   -2.3603   -0.3345   -0.0451 H   0  0  0  0  0  0  0  0  0  0  0  0
   -0.2933   -0.1205    0.3719 C   0  0  1  0  0  0  0  0  0  0  0  0
   -0.1079    0.2653   -0.6315 H   0  0  0  0  0  0  0  0  0  0  0  0
   -0.3680    1.0734    1.3456 C   0  0  0  0  0  0  0  0  0  0  0  0
   -0.6918    0.6982    2.3179 H   0  0  0  0  0  0  0  0  0  0  0  0
    0.6271    1.5050    1.4627 H   0  0  0  0  0  0  0  0  0  0  0  0
   -1.3328    2.1845    0.8967 C   0  0  0  0  0  0  0  0  0  0  0  0
   -1.0142    2.5868   -0.0650 H   0  0  0  0  0  0  0  0  0  0  0  0
   -2.3347    1.7690    0.7950 H   0  0  0  0  0  0  0  0  0  0  0  0
   -1.3963    3.3342    1.8971 C   0  0  0  0  0  0  0  0  0  0  0  0
   -0.8612    3.3383    2.9941 O   0  0  0  0  0  0  0  0  0  0  0  0
   -2.1163    4.4026    1.5076 O   0  0  0  0  0  0  0  0  0  0  0  0
   -2.0678    5.0189    2.2405 H   0  0  0  0  0  0  0  0  0  0  0  0
    0.8429   -1.0933    0.7256 C   0  0  0  0  0  0  0  0  0  0  0  0
    2.0052   -0.6940    0.7638 O   0  0  0  0  0  0  0  0  0  0  0  0
    0.5084   -2.3659    0.9709 N   0  0  0  0  0  0  0  0  0  0  0  0
   -0.4691   -2.6147    0.9430 H   0  0  0  0  0  0  0  0  0  0  0  0
    1.4720   -3.4146    1.2990 C   0  0  0  0  0  0  0  0  0  0  0  0
    2.0453   -3.1265    2.1820 H   0  0  0  0  0  0  0  0  0  0  0  0
    0.9558   -4.3549    1.4978 H   0  0  0  0  0  0  0  0  0  0  0  0
    2.1645   -3.5525    0.4662 H   0  0  0  0  0  0  0  0  0  0  0  0
  5  6  2  0  0  0  0
  5  7  1  0  0  0  0
  2  3  1  0  0  0  0
  2  4  1  0  0  0  0
  2  5  1  0  0  0  0
  1  2  1  0  0  0  0
 21 22  2  0  0  0  0
 21 23  1  0  0  0  0
 19 20  1  0  0  0  0
 17 18  2  0  0  0  0
 17 19  1  0  0  0  0
 14 15  1  0  0  0  0
 14 16  1  0  0  0  0
 14 17  1  0  0  0  0
 11 12  1  0  0  0  0
 11 13  1  0  0  0  0
 11 14  1  0  0  0  0
  9 10  1  0  0  0  0
  9 11  1  0  0  0  0
  9 21  1  0  0  0  0
  7  8  1  0  0  0  0
  7  9  1  0  0  0  0
 25 26  1  0  0  0  0
 25 27  1  0  0  0  0
 25 28  1  0  0  0  0
 23 24  1  0  0  0  0
 23 25  1  0  0  0  0
M  END
$$$$
default_name
  -OEChem-01062215323D

 28 27  0     1  0  0  0  0  0999 V2000
   -3.2133   -3.5565    1.2809 H   0  0  0  0  0  0  0  0  0  0  0  0
   -3.1873   -2.5755    0.8089 C   0  0  0  0  0  0  0  0  0  0  0  0
   -3.8793   -1.9065    1.3169 H   0  0  0  0  0  0  0  0  0  0  0  0
   -3.4623   -2.6685   -0.2401 H   0  0  0  0  0  0  0  0  0  0  0  0
   -1.7863   -2.0195    0.9119 C   0  0  0  0  0  0  0  0  0  0  0  0
   -0.9073   -2.6615    1.4699 O   0  0  0  0  0  0  0  0  0  0  0  0
   -1.5803   -0.8195    0.3749 N   0  0  0  0  0  0  0  0  0  0  0  0
   -2.3603   -0.3345   -0.0451 H   0  0  0  0  0  0  0  0  0  0  0  0
   -0.2933   -0.1205    0.3719 C   0  0  1  0  0  0  0  0  0  0  0  0
   -0.1079    0.2653   -0.6315 H   0  0  0  0  0  0  0  0  0  0  0  0
   -0.3680    1.0734    1.3456 C   0  0  0  0  0  0  0  0  0  0  0  0
   -0.6918    0.6982    2.3179 H   0  0  0  0  0  0  0  0  0  0  0  0
    0.6271    1.5050    1.4627 H   0  0  0  0  0  0  0  0  0  0  0  0
   -1.3328    2.1845    0.8967 C   0  0  0  0  0  0  0  0  0  0  0  0
   -1.0142    2.5868   -0.0650 H   0  0  0  0  0  0  0  0  0  0  0  0
   -2.3347    1.7690    0.7950 H   0  0  0  0  0  0  0  0  0  0  0  0
   -1.3963    3.3342    1.8971 C   0  0  0  0  0  0  0  0  0  0  0  0
   -0.8612    3.3383    2.9941 O   0  0  0  0  0  0  0  0  0  0  0  0
   -2.1163    4.4026    1.5076 O   0  0  0  0  0  0  0  0  0  0  0  0
   -2.0678    5.0189    2.2405 H   0  0  0  0  0  0  0  0  0  0  0  0
    0.8429   -1.0933    0.7256 C   0  0  0  0  0  0  0  0  0  0  0  0
    1.9510   -0.6589    1.0341 O   0  0  0  0  0  0  0  0  0  0  0  0
    0.5709   -2.4026    0.6691 N   0  0  0  0  0  0  0  0  0  0  0  0
   -0.3683   -2.6835    0.4300 H   0  0  0  0  0  0  0  0  0  0  0  0
    1.5470   -3.4523    0.9546 C   0  0  0  0  0  0  0  0  0  0  0  0
    1.9500   -3.3184    1.9600 H   0  0  0  0  0  0  0  0  0  0  0  0
    1.0783   -4.4349    0.8842 H   0  0  0  0  0  0  0  0  0  0  0  0
    2.3707   -3.3937    0.2404 H   0  0  0  0  0  0  0  0  0  0  0  0
  5  6  2  0  0  0  0
  5  7  1  0  0  0  0
  2  3  1  0  0  0  0
  2  4  1  0  0  0  0
  2  5  1  0  0  0  0
  1  2  1  0  0  0  0
 21 22  2  0  0  0  0
 21 23  1  0  0  0  0
 19 20  1  0  0  0  0
 17 18  2  0  0  0  0
 17 19  1  0  0  0  0
 14 15  1  0  0  0  0
 14 16  1  0  0  0  0
 14 17  1  0  0  0  0
 11 12  1  0  0  0  0
 11 13  1  0  0  0  0
 11 14  1  0  0  0  0
  9 10  1  0  0  0  0
  9 11  1  0  0  0  0
  9 21  1  0  0  0  0
  7  8  1  0  0  0  0
  7  9  1  0  0  0  0
 25 26  1  0  0  0  0
 25 27  1  0  0  0  0
 25 28  1  0  0  0  0
 23 24  1  0  0  0  0
 23 25  1  0  0  0  0
M  END
$$$$
default_name
  -OEChem-01062215323D

 28 27  0     1  0  0  0  0  0999 V2000
   -3.2133   -3.5565    1.2809 H   0  0  0  0  0  0  0  0  0  0  0  0
   -3.1873   -2.5755    0.8089 C   0  0  0  0  0  0  0  0  0  0  0  0
   -3.8793   -1.9065    1.3169 H   0  0  0  0  0  0  0  0  0  0  0  0
   -3.4623   -2.6685   -0.2401 H   0  0  0  0  0  0  0  0  0  0  0  0
   -1.7863   -2.0195    0.9119 C   0  0  0  0  0  0  0  0  0  0  0  0
   -0.9073   -2.6615    1.4699 O   0  0  0  0  0  0  0  0  0  0  0  0
   -1.5803   -0.8195    0.3749 N   0  0  0  0  0  0  0  0  0  0  0  0
   -2.3603   -0.3345   -0.0451 H   0  0  0  0  0  0  0  0  0  0  0  0
   -0.2933   -0.1205    0.3719 C   0  0  1  0  0  0  0  0  0  0  0  0
   -0.1079    0.2653   -0.6315 H   0  0  0  0  0  0  0  0  0  0  0  0
   -0.3680    1.0734    1.3456 C   0  0  0  0  0  0  0  0  0  0  0  0
   -0.6918    0.6982    2.3179 H   0  0  0  0  0  0  0  0  0  0  0  0
    0.6271    1.5050    1.4627 H   0  0  0  0  0  0  0  0  0  0  0  0
   -1.3328    2.1845    0.8967 C   0  0  0  0  0  0  0  0  0  0  0  0
   -1.0142    2.5868   -0.0650 H   0  0  0  0  0  0  0  0  0  0  0  0
   -2.3347    1.7690    0.7950 H   0  0  0  0  0  0  0  0  0  0  0  0
   -1.3963    3.3342    1.8971 C   0  0  0  0  0  0  0  0  0  0  0  0
   -0.8612    3.3383    2.9941 O   0  0  0  0  0  0  0  0  0  0  0  0
   -2.1163    4.4026    1.5076 O   0  0  0  0  0  0  0  0  0  0  0  0
   -2.0678    5.0189    2.2405 H   0  0  0  0  0  0  0  0  0  0  0  0
    0.8429   -1.0933    0.7256 C   0  0  0  0  0  0  0  0  0  0  0  0
    1.8524   -0.6800    1.2930 O   0  0  0  0  0  0  0  0  0  0  0  0
    0.6829   -2.3767    0.3808 N   0  0  0  0  0  0  0  0  0  0  0  0
   -0.1828   -2.6458   -0.0623 H   0  0  0  0  0  0  0  0  0  0  0  0
    1.6780   -3.4184    0.6269 C   0  0  0  0  0  0  0  0  0  0  0  0
    1.9059   -3.4669    1.6933 H   0  0  0  0  0  0  0  0  0  0  0  0
    1.3019   -4.3875    0.2962 H   0  0  0  0  0  0  0  0  0  0  0  0
    2.5975   -3.1849    0.0865 H   0  0  0  0  0  0  0  0  0  0  0  0
  5  6  2  0  0  0  0
  5  7  1  0  0  0  0
  2  3  1  0  0  0  0
  2  4  1  0  0  0  0
  2  5  1  0  0  0  0
  1  2  1  0  0  0  0
 21 22  2  0  0  0  0
 21 23  1  0  0  0  0
 19 20  1  0  0  0  0
 17 18  2  0  0  0  0
 17 19  1  0  0  0  0
 14 15  1  0  0  0  0
 14 16  1  0  0  0  0
 14 17  1  0  0  0  0
 11 12  1  0  0  0  0
 11 13  1  0  0  0  0
 11 14  1  0  0  0  0
  9 10  1  0  0  0  0
  9 11  1  0  0  0  0
  9 21  1  0  0  0  0
  7  8  1  0  0  0  0
  7  9  1  0  0  0  0
 25 26  1  0  0  0  0
 25 27  1  0  0  0  0
 25 28  1  0  0  0  0
 23 24  1  0  0  0  0
 23 25  1  0  0  0  0
M  END
$$$$
default_name
  -OEChem-01062215323D

 28 27  0     1  0  0  0  0  0999 V2000
   -3.2133   -3.5565    1.2809 H   0  0  0  0  0  0  0  0  0  0  0  0
   -3.1873   -2.5755    0.8089 C   0  0  0  0  0  0  0  0  0  0  0  0
   -3.8793   -1.9065    1.3169 H   0  0  0  0  0  0  0  0  0  0  0  0
   -3.4623   -2.6685   -0.2401 H   0  0  0  0  0  0  0  0  0  0  0  0
   -1.7863   -2.0195    0.9119 C   0  0  0  0  0  0  0  0  0  0  0  0
   -0.9073   -2.6615    1.4699 O   0  0  0  0  0  0  0  0  0  0  0  0
   -1.5803   -0.8195    0.3749 N   0  0  0  0  0  0  0  0  0  0  0  0
   -2.3603   -0.3345   -0.0451 H   0  0  0  0  0  0  0  0  0  0  0  0
   -0.2933   -0.1205    0.3719 C   0  0  1  0  0  0  0  0  0  0  0  0
   -0.1079    0.2653   -0.6315 H   0  0  0  0  0  0  0  0  0  0  0  0
   -0.3680    1.0734    1.3456 C   0  0  0  0  0  0  0  0  0  0  0  0
   -0.6918    0.6982    2.3179 H   0  0  0  0  0  0  0  0  0  0  0  0
    0.6271    1.5050    1.4627 H   0  0  0  0  0  0  0  0  0  0  0  0
   -1.3328    2.1845    0.8967 C   0  0  0  0  0  0  0  0  0  0  0  0
   -1.0142    2.5868   -0.0650 H   0  0  0  0  0  0  0  0  0  0  0  0
   -2.3347    1.7690    0.7950 H   0  0  0  0  0  0  0  0  0  0  0  0
   -1.3963    3.3342    1.8971 C   0  0  0  0  0  0  0  0  0  0  0  0
   -0.8612    3.3383    2.9941 O   0  0  0  0  0  0  0  0  0  0  0  0
   -2.1163    4.4026    1.5076 O   0  0  0  0  0  0  0  0  0  0  0  0
   -2.0678    5.0189    2.2405 H   0  0  0  0  0  0  0  0  0  0  0  0
    0.8429   -1.0933    0.7256 C   0  0  0  0  0  0  0  0  0  0  0  0
    1.7159   -0.7558    1.5229 O   0  0  0  0  0  0  0  0  0  0  0  0
    0.8368   -2.2897    0.1256 N   0  0  0  0  0  0  0  0  0  0  0  0
    0.0748   -2.5042   -0.5002 H   0  0  0  0  0  0  0  0  0  0  0  0
    1.8562   -3.3151    0.3385 C   0  0  0  0  0  0  0  0  0  0  0  0
    1.9158   -3.5620    1.4000 H   0  0  0  0  0  0  0  0  0  0  0  0
    1.6114   -4.2159   -0.2260 H   0  0  0  0  0  0  0  0  0  0  0  0
    2.8293   -2.9402    0.0149 H   0  0  0  0  0  0  0  0  0  0  0  0
  5  6  2  0  0  0  0
  5  7  1  0  0  0  0
  2  3  1  0  0  0  0
  2  4  1  0  0  0  0
  2  5  1  0  0  0  0
  1  2  1  0  0  0  0
 21 22  2  0  0  0  0
 21 23  1  0  0  0  0
 19 20  1  0  0  0  0
 17 18  2  0  0  0  0
 17 19  1  0  0  0  0
 14 15  1  0  0  0  0
 14 16  1  0  0  0  0
 14 17  1  0  0  0  0
 11 12  1  0  0  0  0
 11 13  1  0  0  0  0
 11 14  1  0  0  0  0
  9 10  1  0  0  0  0
  9 11  1  0  0  0  0
  9 21  1  0  0  0  0
  7  8  1  0  0  0  0
  7  9  1  0  0  0  0
 25 26  1  0  0  0  0
 25 27  1  0  0  0  0
 25 28  1  0  0  0  0
 23 24  1  0  0  0  0
 23 25  1  0  0  0  0
M  END
$$$$
default_name
  -OEChem-01062215323D

 28 27  0     1  0  0  0  0  0999 V2000
   -3.2133   -3.5565    1.2809 H   0  0  0  0  0  0  0  0  0  0  0  0
   -3.1873   -2.5755    0.8089 C   0  0  0  0  0  0  0  0  0  0  0  0
   -3.8793   -1.9065    1.3169 H   0  0  0  0  0  0  0  0  0  0  0  0
   -3.4623   -2.6685   -0.2401 H   0  0  0  0  0  0  0  0  0  0  0  0
   -1.7863   -2.0195    0.9119 C   0  0  0  0  0  0  0  0  0  0  0  0
   -0.9073   -2.6615    1.4699 O   0  0  0  0  0  0  0  0  0  0  0  0
   -1.5803   -0.8195    0.3749 N   0  0  0  0  0  0  0  0  0  0  0  0
   -2.3603   -0.3345   -0.0451 H   0  0  0  0  0  0  0  0  0  0  0  0
   -0.2933   -0.1205    0.3719 C   0  0  1  0  0  0  0  0  0  0  0  0
   -0.1079    0.2653   -0.6315 H   0  0  0  0  0  0  0  0  0  0  0  0
   -0.3680    1.0734    1.3456 C   0  0  0  0  0  0  0  0  0  0  0  0
   -0.6918    0.6982    2.3179 H   0  0  0  0  0  0  0  0  0  0  0  0
    0.6271    1.5050    1.4627 H   0  0  0  0  0  0  0  0  0  0  0  0
   -1.3328    2.1845    0.8967 C   0  0  0  0  0  0  0  0  0  0  0  0
   -1.0142    2.5868   -0.0650 H   0  0  0  0  0  0  0  0  0  0  0  0
   -2.3347    1.7690    0.7950 H   0  0  0  0  0  0  0  0  0  0  0  0
   -1.3963    3.3342    1.8971 C   0  0  0  0  0  0  0  0  0  0  0  0
   -0.8612    3.3383    2.9941 O   0  0  0  0  0  0  0  0  0  0  0  0
   -2.1163    4.4026    1.5076 O   0  0  0  0  0  0  0  0  0  0  0  0
   -2.0678    5.0189    2.2405 H   0  0  0  0  0  0  0  0  0  0  0  0
    0.8429   -1.0933    0.7256 C   0  0  0  0  0  0  0  0  0  0  0  0
    1.5510   -0.8811    1.7082 O   0  0  0  0  0  0  0  0  0  0  0  0
    1.0220   -2.1478   -0.0791 N   0  0  0  0  0  0  0  0  0  0  0  0
    0.3869   -2.2683   -0.8538 H   0  0  0  0  0  0  0  0  0  0  0  0
    2.0695   -3.1495    0.1088 C   0  0  0  0  0  0  0  0  0  0  0  0
    1.9790   -3.5972    1.1001 H   0  0  0  0  0  0  0  0  0  0  0  0
    1.9856   -3.9318   -0.6469 H   0  0  0  0  0  0  0  0  0  0  0  0
    3.0503   -2.6763    0.0305 H   0  0  0  0  0  0  0  0  0  0  0  0
  5  6  2  0  0  0  0
  5  7  1  0  0  0  0
  2  3  1  0  0  0  0
  2  4  1  0  0  0  0
  2  5  1  0  0  0  0
  1  2  1  0  0  0  0
 21 22  2  0  0  0  0
 21 23  1  0  0  0  0
 19 20  1  0  0  0  0
 17 18  2  0  0  0  0
 17 19  1  0  0  0  0
 14 15  1  0  0  0  0
 14 16  1  0  0  0  0
 14 17  1  0  0  0  0
 11 12  1  0  0  0  0
 11 13  1  0  0  0  0
 11 14  1  0  0  0  0
  9 10  1  0  0  0  0
  9 11  1  0  0  0  0
  9 21  1  0  0  0  0
  7  8  1  0  0  0  0
  7  9  1  0  0  0  0
 25 26  1  0  0  0  0
 25 27  1  0  0  0  0
 25 28  1  0  0  0  0
 23 24  1  0  0  0  0
 23 25  1  0  0  0  0
M  END
$$$$
default_name
  -OEChem-01062215323D

 28 27  0     1  0  0  0  0  0999 V2000
   -3.2133   -3.5565    1.2809 H   0  0  0  0  0  0  0  0  0  0  0  0
   -3.1873   -2.5755    0.8089 C   0  0  0  0  0  0  0  0  0  0  0  0
   -3.8793   -1.9065    1.3169 H   0  0  0  0  0  0  0  0  0  0  0  0
   -3.4623   -2.6685   -0.2401 H   0  0  0  0  0  0  0  0  0  0  0  0
   -1.7863   -2.0195    0.9119 C   0  0  0  0  0  0  0  0  0  0  0  0
   -0.9073   -2.6615    1.4699 O   0  0  0  0  0  0  0  0  0  0  0  0
   -1.5803   -0.8195    0.3749 N   0  0  0  0  0  0  0  0  0  0  0  0
   -2.3603   -0.3345   -0.0451 H   0  0  0  0  0  0  0  0  0  0  0  0
   -0.2933   -0.1205    0.3719 C   0  0  1  0  0  0  0  0  0  0  0  0
   -0.1079    0.2653   -0.6315 H   0  0  0  0  0  0  0  0  0  0  0  0
   -0.3680    1.0734    1.3456 C   0  0  0  0  0  0  0  0  0  0  0  0
   -0.6918    0.6982    2.3179 H   0  0  0  0  0  0  0  0  0  0  0  0
    0.6271    1.5050    1.4627 H   0  0  0  0  0  0  0  0  0  0  0  0
   -1.3328    2.1845    0.8967 C   0  0  0  0  0  0  0  0  0  0  0  0
   -1.0142    2.5868   -0.0650 H   0  0  0  0  0  0  0  0  0  0  0  0
   -2.3347    1.7690    0.7950 H   0  0  0  0  0  0  0  0  0  0  0  0
   -1.3963    3.3342    1.8971 C   0  0  0  0  0  0  0  0  0  0  0  0
   -0.8612    3.3383    2.9941 O   0  0  0  0  0  0  0  0  0  0  0  0
   -2.1163    4.4026    1.5076 O   0  0  0  0  0  0  0  0  0  0  0  0
   -2.0678    5.0189    2.2405 H   0  0  0  0  0  0  0  0  0  0  0  0
    0.8429   -1.0933    0.7256 C   0  0  0  0  0  0  0  0  0  0  0  0
    1.3687   -1.0474    1.8361 O   0  0  0  0  0  0  0  0  0  0  0  0
    1.2260   -1.9605   -0.2192 N   0  0  0  0  0  0  0  0  0  0  0  0
    0.7322   -1.9542   -1.0992 H   0  0  0  0  0  0  0  0  0  0  0  0
    2.3033   -2.9329   -0.0465 C   0  0  0  0  0  0  0  0  0  0  0  0
    2.0913   -3.5700    0.8141 H   0  0  0  0  0  0  0  0  0  0  0  0
    2.3992   -3.5546   -0.9378 H   0  0  0  0  0  0  0  0  0  0  0  0
    3.2455   -2.4113    0.1323 H   0  0  0  0  0  0  0  0  0  0  0  0
  5  6  2  0  0  0  0
  5  7  1  0  0  0  0
  2  3  1  0  0  0  0
  2  4  1  0  0  0  0
  2  5  1  0  0  0  0
  1  2  1  0  0  0  0
 21 22  2  0  0  0  0
 21 23  1  0  0  0  0
 19 20  1  0  0  0  0
 17 18  2  0  0  0  0
 17 19  1  0  0  0  0
 14 15  1  0  0  0  0
 14 16  1  0  0  0  0
 14 17  1  0  0  0  0
 11 12  1  0  0  0  0
 11 13  1  0  0  0  0
 11 14  1  0  0  0  0
  9 10  1  0  0  0  0
  9 11  1  0  0  0  0
  9 21  1  0  0  0  0
  7  8  1  0  0  0  0
  7  9  1  0  0  0  0
 25 26  1  0  0  0  0
 25 27  1  0  0  0  0
 25 28  1  0  0  0  0
 23 24  1  0  0  0  0
 23 25  1  0  0  0  0
M  END
$$$$
default_name
  -OEChem-01062215323D

 28 27  0     1  0  0  0  0  0999 V2000
   -3.2133   -3.5565    1.2809 H   0  0  0  0  0  0  0  0  0  0  0  0
   -3.1873   -2.5755    0.8089 C   0  0  0  0  0  0  0  0  0  0  0  0
   -3.8793   -1.9065    1.3169 H   0  0  0  0  0  0  0  0  0  0  0  0
   -3.4623   -2.6685   -0.2401 H   0  0  0  0  0  0  0  0  0  0  0  0
   -1.7863   -2.0195    0.9119 C   0  0  0  0  0  0  0  0  0  0  0  0
   -0.9073   -2.6615    1.4699 O   0  0  0  0  0  0  0  0  0  0  0  0
   -1.5803   -0.8195    0.3749 N   0  0  0  0  0  0  0  0  0  0  0  0
   -2.3603   -0.3345   -0.0451 H   0  0  0  0  0  0  0  0  0  0  0  0
   -0.2933   -0.1205    0.3719 C   0  0  1  0  0  0  0  0  0  0  0  0
   -0.1079    0.2653   -0.6315 H   0  0  0  0  0  0  0  0  0  0  0  0
   -0.3680    1.0734    1.3456 C   0  0  0  0  0  0  0  0  0  0  0  0
   -0.6918    0.6982    2.3179 H   0  0  0  0  0  0  0  0  0  0  0  0
    0.6271    1.5050    1.4627 H   0  0  0  0  0  0  0  0  0  0  0  0
   -1.3328    2.1845    0.8967 C   0  0  0  0  0  0  0  0  0  0  0  0
   -1.0142    2.5868   -0.0650 H   0  0  0  0  0  0  0  0  0  0  0  0
   -2.3347    1.7690    0.7950 H   0  0  0  0  0  0  0  0  0  0  0  0
   -1.3963    3.3342    1.8971 C   0  0  0  0  0  0  0  0  0  0  0  0
   -0.8612    3.3383    2.9941 O   0  0  0  0  0  0  0  0  0  0  0  0
   -2.1163    4.4026    1.5076 O   0  0  0  0  0  0  0  0  0  0  0  0
   -2.0678    5.0189    2.2405 H   0  0  0  0  0  0  0  0  0  0  0  0
    0.8429   -1.0933    0.7256 C   0  0  0  0  0  0  0  0  0  0  0  0
    1.1817   -1.2434    1.8980 O   0  0  0  0  0  0  0  0  0  0  0  0
    1.4349   -1.7406   -0.2854 N   0  0  0  0  0  0  0  0  0  0  0  0
    1.0873   -1.5832   -1.2195 H   0  0  0  0  0  0  0  0  0  0  0  0
    2.5416   -2.6801   -0.1167 C   0  0  0  0  0  0  0  0  0  0  0  0
    2.2451   -3.4823    0.5614 H   0  0  0  0  0  0  0  0  0  0  0  0
    2.8238   -3.1100   -1.0789 H   0  0  0  0  0  0  0  0  0  0  0  0
    3.4017   -2.1631    0.3134 H   0  0  0  0  0  0  0  0  0  0  0  0
  5  6  2  0  0  0  0
  5  7  1  0  0  0  0
  2  3  1  0  0  0  0
  2  4  1  0  0  0  0
  2  5  1  0  0  0  0
  1  2  1  0  0  0  0
 21 22  2  0  0  0  0
 21 23  1  0  0  0  0
 19 20  1  0  0  0  0
 17 18  2  0  0  0  0
 17 19  1  0  0  0  0
 14 15  1  0  0  0  0
 14 16  1  0  0  0  0
 14 17  1  0  0  0  0
 11 12  1  0  0  0  0
 11 13  1  0  0  0  0
 11 14  1  0  0  0  0
  9 10  1  0  0  0  0
  9 11  1  0  0  0  0
  9 21  1  0  0  0  0
  7  8  1  0  0  0  0
  7  9  1  0  0  0  0
 25 26  1  0  0  0  0
 25 27  1  0  0  0  0
 25 28  1  0  0  0  0
 23 24  1  0  0  0  0
 23 25  1  0  0  0  0
M  END
$$$$
default_name
  -OEChem-01062215323D

 28 27  0     1  0  0  0  0  0999 V2000
   -3.2133   -3.5565    1.2809 H   0  0  0  0  0  0  0  0  0  0  0  0
   -3.1873   -2.5755    0.8089 C   0  0  0  0  0  0  0  0  0  0  0  0
   -3.8793   -1.9065    1.3169 H   0  0  0  0  0  0  0  0  0  0  0  0
   -3.4623   -2.6685   -0.2401 H   0  0  0  0  0  0  0  0  0  0  0  0
   -1.7863   -2.0195    0.9119 C   0  0  0  0  0  0  0  0  0  0  0  0
   -0.9073   -2.6615    1.4699 O   0  0  0  0  0  0  0  0  0  0  0  0
   -1.5803   -0.8195    0.3749 N   0  0  0  0  0  0  0  0  0  0  0  0
   -2.3603   -0.3345   -0.0451 H   0  0  0  0  0  0  0  0  0  0  0  0
   -0.2933   -0.1205    0.3719 C   0  0  1  0  0  0  0  0  0  0  0  0
   -0.1079    0.2653   -0.6315 H   0  0  0  0  0  0  0  0  0  0  0  0
   -0.3680    1.0734    1.3456 C   0  0  0  0  0  0  0  0  0  0  0  0
   -0.6918    0.6982    2.3179 H   0  0  0  0  0  0  0  0  0  0  0  0
    0.6271    1.5050    1.4627 H   0  0  0  0  0  0  0  0  0  0  0  0
   -1.3328    2.1845    0.8967 C   0  0  0  0  0  0  0  0  0  0  0  0
   -1.0142    2.5868   -0.0650 H   0  0  0  0  0  0  0  0  0  0  0  0
   -2.3347    1.7690    0.7950 H   0  0  0  0  0  0  0  0  0  0  0  0
   -1.3963    3.3342    1.8971 C   0  0  0  0  0  0  0  0  0  0  0  0
   -0.8612    3.3383    2.9941 O   0  0  0  0  0  0  0  0  0  0  0  0
   -2.1163    4.4026    1.5076 O   0  0  0  0  0  0  0  0  0  0  0  0
   -2.0678    5.0189    2.2405 H   0  0  0  0  0  0  0  0  0  0  0  0
    0.8429   -1.0933    0.7256 C   0  0  0  0  0  0  0  0  0  0  0  0
    1.0025   -1.4557    1.8896 O   0  0  0  0  0  0  0  0  0  0  0  0
    1.6344   -1.5031   -0.2730 N   0  0  0  0  0  0  0  0  0  0  0  0
    1.4279   -1.1807   -1.2066 H   0  0  0  0  0  0  0  0  0  0  0  0
    2.7683   -2.4083   -0.0972 C   0  0  0  0  0  0  0  0  0  0  0  0
    2.4297   -3.3401    0.3593 H   0  0  0  0  0  0  0  0  0  0  0  0
    3.2306   -2.6282   -1.0605 H   0  0  0  0  0  0  0  0  0  0  0  0
    3.5080   -1.9487    0.5613 H   0  0  0  0  0  0  0  0  0  0  0  0
  5  6  2  0  0  0  0
  5  7  1  0  0  0  0
  2  3  1  0  0  0  0
  2  4  1  0  0  0  0
  2  5  1  0  0  0  0
  1  2  1  0  0  0  0
 21 22  2  0  0  0  0
 21 23  1  0  0  0  0
 19 20  1  0  0  0  0
 17 18  2  0  0  0  0
 17 19  1  0  0  0  0
 14 15  1  0  0  0  0
 14 16  1  0  0  0  0
 14 17  1  0  0  0  0
 11 12  1  0  0  0  0
 11 13  1  0  0  0  0
 11 14  1  0  0  0  0
  9 10  1  0  0  0  0
  9 11  1  0  0  0  0
  9 21  1  0  0  0  0
  7  8  1  0  0  0  0
  7  9  1  0  0  0  0
 25 26  1  0  0  0  0
 25 27  1  0  0  0  0
 25 28  1  0  0  0  0
 23 24  1  0  0  0  0
 23 25  1  0  0  0  0
M  END
$$$$
default_name
  -OEChem-01062215323D

 28 27  0     1  0  0  0  0  0999 V2000
   -3.2133   -3.5565    1.2809 H   0  0  0  0  0  0  0  0  0  0  0  0
   -3.1873   -2.5755    0.8089 C   0  0  0  0  0  0  0  0  0  0  0  0
   -3.8793   -1.9065    1.3169 H   0  0  0  0  0  0  0  0  0  0  0  0
   -3.4623   -2.6685   -0.2401 H   0  0  0  0  0  0  0  0  0  0  0  0
   -1.7863   -2.0195    0.9119 C   0  0  0  0  0  0  0  0  0  0  0  0
   -0.9073   -2.6615    1.4699 O   0  0  0  0  0  0  0  0  0  0  0  0
   -1.5803   -0.8195    0.3749 N   0  0  0  0  0  0  0  0  0  0  0  0
   -2.3603   -0.3345   -0.0451 H   0  0  0  0  0  0  0  0  0  0  0  0
   -0.2933   -0.1205    0.3719 C   0  0  1  0  0  0  0  0  0  0  0  0
   -0.1079    0.2653   -0.6315 H   0  0  0  0  0  0  0  0  0  0  0  0
   -0.3680    1.0734    1.3456 C   0  0  0  0  0  0  0  0  0  0  0  0
   -0.6918    0.6982    2.3179 H   0  0  0  0  0  0  0  0  0  0  0  0
    0.6271    1.5050    1.4627 H   0  0  0  0  0  0  0  0  0  0  0  0
   -1.3328    2.1845    0.8967 C   0  0  0  0  0  0  0  0  0  0  0  0
   -1.0142    2.5868   -0.0650 H   0  0  0  0  0  0  0  0  0  0  0  0
   -2.3347    1.7690    0.7950 H   0  0  0  0  0  0  0  0  0  0  0  0
   -1.3963    3.3342    1.8971 C   0  0  0  0  0  0  0  0  0  0  0  0
   -0.8612    3.3383    2.9941 O   0  0  0  0  0  0  0  0  0  0  0  0
   -2.1163    4.4026    1.5076 O   0  0  0  0  0  0  0  0  0  0  0  0
   -2.0678    5.0189    2.2405 H   0  0  0  0  0  0  0  0  0  0  0  0
    0.8429   -1.0933    0.7256 C   0  0  0  0  0  0  0  0  0  0  0  0
    0.8435   -1.6698    1.8116 O   0  0  0  0  0  0  0  0  0  0  0  0
    1.8109   -1.2642   -0.1829 N   0  0  0  0  0  0  0  0  0  0  0  0
    1.7307   -0.7742   -1.0613 H   0  0  0  0  0  0  0  0  0  0  0  0
    2.9678   -2.1359    0.0109 C   0  0  0  0  0  0  0  0  0  0  0  0
    2.6327   -3.1531    0.2215 H   0  0  0  0  0  0  0  0  0  0  0  0
    3.5918   -2.1421   -0.8839 H   0  0  0  0  0  0  0  0  0  0  0  0
    3.5574   -1.7828    0.8592 H   0  0  0  0  0  0  0  0  0  0  0  0
  5  6  2  0  0  0  0
  5  7  1  0  0  0  0
  2  3  1  0  0  0  0
  2  4  1  0  0  0  0
  2  5  1  0  0  0  0
  1  2  1  0  0  0  0
 21 22  2  0  0  0  0
 21 23  1  0  0  0  0
 19 20  1  0  0  0  0
 17 18  2  0  0  0  0
 17 19  1  0  0  0  0
 14 15  1  0  0  0  0
 14 16  1  0  0  0  0
 14 17  1  0  0  0  0
 11 12  1  0  0  0  0
 11 13  1  0  0  0  0
 11 14  1  0  0  0  0
  9 10  1  0  0  0  0
  9 11  1  0  0  0  0
  9 21  1  0  0  0  0
  7  8  1  0  0  0  0
  7  9  1  0  0  0  0
 25 26  1  0  0  0  0
 25 27  1  0  0  0  0
 25 28  1  0  0  0  0
 23 24  1  0  0  0  0
 23 25  1  0  0  0  0
M  END
$$$$
default_name
  -OEChem-01062215323D

 28 27  0     1  0  0  0  0  0999 V2000
   -3.2133   -3.5565    1.2809 H   0  0  0  0  0  0  0  0  0  0  0  0
   -3.1873   -2.5755    0.8089 C   0  0  0  0  0  0  0  0  0  0  0  0
   -3.8793   -1.9065    1.3169 H   0  0  0  0  0  0  0  0  0  0  0  0
   -3.4623   -2.6685   -0.2401 H   0  0  0  0  0  0  0  0  0  0  0  0
   -1.7863   -2.0195    0.9119 C   0  0  0  0  0  0  0  0  0  0  0  0
   -0.9073   -2.6615    1.4699 O   0  0  0  0  0  0  0  0  0  0  0  0
   -1.5803   -0.8195    0.3749 N   0  0  0  0  0  0  0  0  0  0  0  0
   -2.3603   -0.3345   -0.0451 H   0  0  0  0  0  0  0  0  0  0  0  0
   -0.2933   -0.1205    0.3719 C   0  0  1  0  0  0  0  0  0  0  0  0
   -0.1079    0.2653   -0.6315 H   0  0  0  0  0  0  0  0  0  0  0  0
   -0.3680    1.0734    1.3456 C   0  0  0  0  0  0  0  0  0  0  0  0
   -0.6918    0.6982    2.3179 H   0  0  0  0  0  0  0  0  0  0  0  0
    0.6271    1.5050    1.4627 H   0  0  0  0  0  0  0  0  0  0  0  0
   -1.3328    2.1845    0.8967 C   0  0  0  0  0  0  0  0  0  0  0  0
   -1.0142    2.5868   -0.0650 H   0  0  0  0  0  0  0  0  0  0  0  0
   -2.3347    1.7690    0.7950 H   0  0  0  0  0  0  0  0  0  0  0  0
   -1.3963    3.3342    1.8971 C   0  0  0  0  0  0  0  0  0  0  0  0
   -0.8612    3.3383    2.9941 O   0  0  0  0  0  0  0  0  0  0  0  0
   -2.1163    4.4026    1.5076 O   0  0  0  0  0  0  0  0  0  0  0  0
   -2.0678    5.0189    2.2405 H   0  0  0  0  0  0  0  0  0  0  0  0
    0.8429   -1.0933    0.7256 C   0  0  0  0  0  0  0  0  0  0  0  0
    0.7154   -1.8712    1.6692 O   0  0  0  0  0  0  0  0  0  0  0  0
    1.9524   -1.0402   -0.0213 N   0  0  0  0  0  0  0  0  0  0  0  0
    1.9753   -0.3912   -0.7936 H   0  0  0  0  0  0  0  0  0  0  0  0
    3.1266   -1.8816    0.2000 C   0  0  0  0  0  0  0  0  0  0  0  0
    2.8402   -2.9340    0.1575 H   0  0  0  0  0  0  0  0  0  0  0  0
    3.8828   -1.6848   -0.5612 H   0  0  0  0  0  0  0  0  0  0  0  0
    3.5464   -1.6765    1.1868 H   0  0  0  0  0  0  0  0  0  0  0  0
  5  6  2  0  0  0  0
  5  7  1  0  0  0  0
  2  3  1  0  0  0  0
  2  4  1  0  0  0  0
  2  5  1  0  0  0  0
  1  2  1  0  0  0  0
 21 22  2  0  0  0  0
 21 23  1  0  0  0  0
 19 20  1  0  0  0  0
 17 18  2  0  0  0  0
 17 19  1  0  0  0  0
 14 15  1  0  0  0  0
 14 16  1  0  0  0  0
 14 17  1  0  0  0  0
 11 12  1  0  0  0  0
 11 13  1  0  0  0  0
 11 14  1  0  0  0  0
  9 10  1  0  0  0  0
  9 11  1  0  0  0  0
  9 21  1  0  0  0  0
  7  8  1  0  0  0  0
  7  9  1  0  0  0  0
 25 26  1  0  0  0  0
 25 27  1  0  0  0  0
 25 28  1  0  0  0  0
 23 24  1  0  0  0  0
 23 25  1  0  0  0  0
M  END
$$$$
default_name
  -OEChem-01062215323D

 28 27  0     1  0  0  0  0  0999 V2000
   -3.2133   -3.5565    1.2809 H   0  0  0  0  0  0  0  0  0  0  0  0
   -3.1873   -2.5755    0.8089 C   0  0  0  0  0  0  0  0  0  0  0  0
   -3.8793   -1.9065    1.3169 H   0  0  0  0  0  0  0  0  0  0  0  0
   -3.4623   -2.6685   -0.2401 H   0  0  0  0  0  0  0  0  0  0  0  0
   -1.7863   -2.0195    0.9119 C   0  0  0  0  0  0  0  0  0  0  0  0
   -0.9073   -2.6615    1.4699 O   0  0  0  0  0  0  0  0  0  0  0  0
   -1.5803   -0.8195    0.3749 N   0  0  0  0  0  0  0  0  0  0  0  0
   -2.3603   -0.3345   -0.0451 H   0  0  0  0  0  0  0  0  0  0  0  0
   -0.2933   -0.1205    0.3719 C   0  0  1  0  0  0  0  0  0  0  0  0
   -0.1079    0.2653   -0.6315 H   0  0  0  0  0  0  0  0  0  0  0  0
   -0.3680    1.0734    1.3456 C   0  0  0  0  0  0  0  0  0  0  0  0
   -0.6918    0.6982    2.3179 H   0  0  0  0  0  0  0  0  0  0  0  0
    0.6271    1.5050    1.4627 H   0  0  0  0  0  0  0  0  0  0  0  0
   -1.3328    2.1845    0.8967 C   0  0  0  0  0  0  0  0  0  0  0  0
   -1.0142    2.5868   -0.0650 H   0  0  0  0  0  0  0  0  0  0  0  0
   -2.3347    1.7690    0.7950 H   0  0  0  0  0  0  0  0  0  0  0  0
   -1.3963    3.3342    1.8971 C   0  0  0  0  0  0  0  0  0  0  0  0
   -0.8612    3.3383    2.9941 O   0  0  0  0  0  0  0  0  0  0  0  0
   -2.1163    4.4026    1.5076 O   0  0  0  0  0  0  0  0  0  0  0  0
   -2.0678    5.0189    2.2405 H   0  0  0  0  0  0  0  0  0  0  0  0
    0.8429   -1.0933    0.7256 C   0  0  0  0  0  0  0  0  0  0  0  0
    0.6270   -2.0461    1.4722 O   0  0  0  0  0  0  0  0  0  0  0  0
    2.0492   -0.8462    0.2009 N   0  0  0  0  0  0  0  0  0  0  0  0
    2.1449   -0.0579   -0.4217 H   0  0  0  0  0  0  0  0  0  0  0  0
    3.2339   -1.6628    0.4574 C   0  0  0  0  0  0  0  0  0  0  0  0
    3.0381   -2.6978    0.1715 H   0  0  0  0  0  0  0  0  0  0  0  0
    4.0839   -1.2876   -0.1143 H   0  0  0  0  0  0  0  0  0  0  0  0
    3.4758   -1.6372    1.5218 H   0  0  0  0  0  0  0  0  0  0  0  0
  5  6  2  0  0  0  0
  5  7  1  0  0  0  0
  2  3  1  0  0  0  0
  2  4  1  0  0  0  0
  2  5  1  0  0  0  0
  1  2  1  0  0  0  0
 21 22  2  0  0  0  0
 21 23  1  0  0  0  0
 19 20  1  0  0  0  0
 17 18  2  0  0  0  0
 17 19  1  0  0  0  0
 14 15  1  0  0  0  0
 14 16  1  0  0  0  0
 14 17  1  0  0  0  0
 11 12  1  0  0  0  0
 11 13  1  0  0  0  0
 11 14  1  0  0  0  0
  9 10  1  0  0  0  0
  9 11  1  0  0  0  0
  9 21  1  0  0  0  0
  7  8  1  0  0  0  0
  7  9  1  0  0  0  0
 25 26  1  0  0  0  0
 25 27  1  0  0  0  0
 25 28  1  0  0  0  0
 23 24  1  0  0  0  0
 23 25  1  0  0  0  0
M  END
$$$$
default_name
  -OEChem-01062215323D

 28 27  0     1  0  0  0  0  0999 V2000
   -3.2133   -3.5565    1.2809 H   0  0  0  0  0  0  0  0  0  0  0  0
   -3.1873   -2.5755    0.8089 C   0  0  0  0  0  0  0  0  0  0  0  0
   -3.8793   -1.9065    1.3169 H   0  0  0  0  0  0  0  0  0  0  0  0
   -3.4623   -2.6685   -0.2401 H   0  0  0  0  0  0  0  0  0  0  0  0
   -1.7863   -2.0195    0.9119 C   0  0  0  0  0  0  0  0  0  0  0  0
   -0.9073   -2.6615    1.4699 O   0  0  0  0  0  0  0  0  0  0  0  0
   -1.5803   -0.8195    0.3749 N   0  0  0  0  0  0  0  0  0  0  0  0
   -2.3603   -0.3345   -0.0451 H   0  0  0  0  0  0  0  0  0  0  0  0
   -0.2933   -0.1205    0.3719 C   0  0  1  0  0  0  0  0  0  0  0  0
   -0.1079    0.2653   -0.6315 H   0  0  0  0  0  0  0  0  0  0  0  0
   -0.3680    1.0734    1.3456 C   0  0  0  0  0  0  0  0  0  0  0  0
   -0.6918    0.6982    2.3179 H   0  0  0  0  0  0  0  0  0  0  0  0
    0.6271    1.5050    1.4627 H   0  0  0  0  0  0  0  0  0  0  0  0
   -1.3328    2.1845    0.8967 C   0  0  0  0  0  0  0  0  0  0  0  0
   -1.0142    2.5868   -0.0650 H   0  0  0  0  0  0  0  0  0  0  0  0
   -2.3347    1.7690    0.7950 H   0  0  0  0  0  0  0  0  0  0  0  0
   -1.3963    3.3342    1.8971 C   0  0  0  0  0  0  0  0  0  0  0  0
   -0.8612    3.3383    2.9941 O   0  0  0  0  0  0  0  0  0  0  0  0
   -2.1163    4.4026    1.5076 O   0  0  0  0  0  0  0  0  0  0  0  0
   -2.0678    5.0189    2.2405 H   0  0  0  0  0  0  0  0  0  0  0  0
    0.8429   -1.0933    0.7256 C   0  0  0  0  0  0  0  0  0  0  0  0
    0.5843   -2.1826    1.2339 O   0  0  0  0  0  0  0  0  0  0  0  0
    2.0949   -0.6957    0.4685 N   0  0  0  0  0  0  0  0  0  0  0  0
    2.2279    0.2029    0.0291 H   0  0  0  0  0  0  0  0  0  0  0  0
    3.2823   -1.4942    0.7655 C   0  0  0  0  0  0  0  0  0  0  0  0
    3.2129   -2.4605    0.2627 H   0  0  0  0  0  0  0  0  0  0  0  0
    4.1812   -0.9774    0.4262 H   0  0  0  0  0  0  0  0  0  0  0  0
    3.3504   -1.6675    1.8413 H   0  0  0  0  0  0  0  0  0  0  0  0
  5  6  2  0  0  0  0
  5  7  1  0  0  0  0
  2  3  1  0  0  0  0
  2  4  1  0  0  0  0
  2  5  1  0  0  0  0
  1  2  1  0  0  0  0
 21 22  2  0  0  0  0
 21 23  1  0  0  0  0
 19 20  1  0  0  0  0
 17 18  2  0  0  0  0
 17 19  1  0  0  0  0
 14 15  1  0  0  0  0
 14 16  1  0  0  0  0
 14 17  1  0  0  0  0
 11 12  1  0  0  0  0
 11 13  1  0  0  0  0
 11 14  1  0  0  0  0
  9 10  1  0  0  0  0
  9 11  1  0  0  0  0
  9 21  1  0  0  0  0
  7  8  1  0  0  0  0
  7  9  1  0  0  0  0
 25 26  1  0  0  0  0
 25 27  1  0  0  0  0
 25 28  1  0  0  0  0
 23 24  1  0  0  0  0
 23 25  1  0  0  0  0
M  END
$$$$
default_name
  -OEChem-01062215323D

 28 27  0     1  0  0  0  0  0999 V2000
   -3.2133   -3.5565    1.2809 H   0  0  0  0  0  0  0  0  0  0  0  0
   -3.1873   -2.5755    0.8089 C   0  0  0  0  0  0  0  0  0  0  0  0
   -3.8793   -1.9065    1.3169 H   0  0  0  0  0  0  0  0  0  0  0  0
   -3.4623   -2.6685   -0.2401 H   0  0  0  0  0  0  0  0  0  0  0  0
   -1.7863   -2.0195    0.9119 C   0  0  0  0  0  0  0  0  0  0  0  0
   -0.9073   -2.6615    1.4699 O   0  0  0  0  0  0  0  0  0  0  0  0
   -1.5803   -0.8195    0.3749 N   0  0  0  0  0  0  0  0  0  0  0  0
   -2.3603   -0.3345   -0.0451 H   0  0  0  0  0  0  0  0  0  0  0  0
   -0.2933   -0.1205    0.3719 C   0  0  1  0  0  0  0  0  0  0  0  0
   -0.2275    0.4860   -0.5325 H   0  0  0  0  0  0  0  0  0  0  0  0
   -0.2295    0.8195    1.5931 C   0  0  0  0  0  0  0  0  0  0  0  0
   -0.4363    0.2286    2.4870 H   0  0  0  0  0  0  0  0  0  0  0  0
    0.7787    1.2268    1.6814 H   0  0  0  0  0  0  0  0  0  0  0  0
   -1.2258    1.9902    1.5314 C   0  0  0  0  0  0  0  0  0  0  0  0
   -1.0224    2.6050    0.6546 H   0  0  0  0  0  0  0  0  0  0  0  0
   -2.2386    1.5949    1.4626 H   0  0  0  0  0  0  0  0  0  0  0  0
   -1.1482    2.8811    2.7670 C   0  0  0  0  0  0  0  0  0  0  0  0
   -0.4817    2.6430    3.7615 O   0  0  0  0  0  0  0  0  0  0  0  0
   -1.8949    4.0001    2.7228 O   0  0  0  0  0  0  0  0  0  0  0  0
   -1.7472    4.4342    3.5649 H   0  0  0  0  0  0  0  0  0  0  0  0
    0.8633   -1.1325    0.3519 C   0  0  0  0  0  0  0  0  0  0  0  0
    0.6254   -2.3388    0.3519 O   0  0  0  0  0  0  0  0  0  0  0  0
    2.1089   -0.6424    0.3471 N   0  0  0  0  0  0  0  0  0  0  0  0
    2.2258    0.3596    0.3246 H   0  0  0  0  0  0  0  0  0  0  0  0
    3.3125   -1.4714    0.3500 C   0  0  0  0  0  0  0  0  0  0  0  0
    3.2995   -2.1445   -0.5092 H   0  0  0  0  0  0  0  0  0  0  0  0
    4.2043   -0.8450    0.3012 H   0  0  0  0  0  0  0  0  0  0  0  0
    3.3436   -2.0728    1.2607 H   0  0  0  0  0  0  0  0  0  0  0  0
  5  6  2  0  0  0  0
  5  7  1  0  0  0  0
  2  3  1  0  0  0  0
  2  4  1  0  0  0  0
  2  5  1  0  0  0  0
  1  2  1  0  0  0  0
 21 22  2  0  0  0  0
 21 23  1  0  0  0  0
 19 20  1  0  0  0  0
 17 18  2  0  0  0  0
 17 19  1  0  0  0  0
 14 15  1  0  0  0  0
 14 16  1  0  0  0  0
 14 17  1  0  0  0  0
 11 12  1  0  0  0  0
 11 13  1  0  0  0  0
 11 14  1  0  0  0  0
  9 10  1  0  0  0  0
  9 11  1  0  0  0  0
  9 21  1  0  0  0  0
  7  8  1  0  0  0  0
  7  9  1  0  0  0  0
 25 26  1  0  0  0  0
 25 27  1  0  0  0  0
 25 28  1  0  0  0  0
 23 24  1  0  0  0  0
 23 25  1  0  0  0  0
M  END
$$$$
default_name
  -OEChem-01062215323D

 28 27  0     1  0  0  0  0  0999 V2000
   -3.2133   -3.5565    1.2809 H   0  0  0  0  0  0  0  0  0  0  0  0
   -3.1873   -2.5755    0.8089 C   0  0  0  0  0  0  0  0  0  0  0  0
   -3.8793   -1.9065    1.3169 H   0  0  0  0  0  0  0  0  0  0  0  0
   -3.4623   -2.6685   -0.2401 H   0  0  0  0  0  0  0  0  0  0  0  0
   -1.7863   -2.0195    0.9119 C   0  0  0  0  0  0  0  0  0  0  0  0
   -0.9073   -2.6615    1.4699 O   0  0  0  0  0  0  0  0  0  0  0  0
   -1.5803   -0.8195    0.3749 N   0  0  0  0  0  0  0  0  0  0  0  0
   -2.3603   -0.3345   -0.0451 H   0  0  0  0  0  0  0  0  0  0  0  0
   -0.2933   -0.1205    0.3719 C   0  0  1  0  0  0  0  0  0  0  0  0
   -0.2275    0.4860   -0.5325 H   0  0  0  0  0  0  0  0  0  0  0  0
   -0.2295    0.8195    1.5931 C   0  0  0  0  0  0  0  0  0  0  0  0
   -0.4363    0.2286    2.4870 H   0  0  0  0  0  0  0  0  0  0  0  0
    0.7787    1.2268    1.6814 H   0  0  0  0  0  0  0  0  0  0  0  0
   -1.2258    1.9902    1.5314 C   0  0  0  0  0  0  0  0  0  0  0  0
   -1.0224    2.6050    0.6546 H   0  0  0  0  0  0  0  0  0  0  0  0
   -2.2386    1.5949    1.4626 H   0  0  0  0  0  0  0  0  0  0  0  0
   -1.1482    2.8811    2.7670 C   0  0  0  0  0  0  0  0  0  0  0  0
   -0.4817    2.6430    3.7615 O   0  0  0  0  0  0  0  0  0  0  0  0
   -1.8949    4.0001    2.7228 O   0  0  0  0  0  0  0  0  0  0  0  0
   -1.7472    4.4342    3.5649 H   0  0  0  0  0  0  0  0  0  0  0  0
    0.8633   -1.1325    0.3519 C   0  0  0  0  0  0  0  0  0  0  0  0
    0.6452   -2.3107    0.0762 O   0  0  0  0  0  0  0  0  0  0  0  0
    2.0847   -0.6761    0.6547 N   0  0  0  0  0  0  0  0  0  0  0  0
    2.1901    0.3085    0.8483 H   0  0  0  0  0  0  0  0  0  0  0  0
    3.2812   -1.5141    0.7005 C   0  0  0  0  0  0  0  0  0  0  0  0
    3.4242   -2.0068   -0.2629 H   0  0  0  0  0  0  0  0  0  0  0  0
    4.1597   -0.9083    0.9272 H   0  0  0  0  0  0  0  0  0  0  0  0
    3.1645   -2.2816    1.4682 H   0  0  0  0  0  0  0  0  0  0  0  0
  5  6  2  0  0  0  0
  5  7  1  0  0  0  0
  2  3  1  0  0  0  0
  2  4  1  0  0  0  0
  2  5  1  0  0  0  0
  1  2  1  0  0  0  0
 21 22  2  0  0  0  0
 21 23  1  0  0  0  0
 19 20  1  0  0  0  0
 17 18  2  0  0  0  0
 17 19  1  0  0  0  0
 14 15  1  0  0  0  0
 14 16  1  0  0  0  0
 14 17  1  0  0  0  0
 11 12  1  0  0  0  0
 11 13  1  0  0  0  0
 11 14  1  0  0  0  0
  9 10  1  0  0  0  0
  9 11  1  0  0  0  0
  9 21  1  0  0  0  0
  7  8  1  0  0  0  0
  7  9  1  0  0  0  0
 25 26  1  0  0  0  0
 25 27  1  0  0  0  0
 25 28  1  0  0  0  0
 23 24  1  0  0  0  0
 23 25  1  0  0  0  0
M  END
$$$$
default_name
  -OEChem-01062215323D

 28 27  0     1  0  0  0  0  0999 V2000
   -3.2133   -3.5565    1.2809 H   0  0  0  0  0  0  0  0  0  0  0  0
   -3.1873   -2.5755    0.8089 C   0  0  0  0  0  0  0  0  0  0  0  0
   -3.8793   -1.9065    1.3169 H   0  0  0  0  0  0  0  0  0  0  0  0
   -3.4623   -2.6685   -0.2401 H   0  0  0  0  0  0  0  0  0  0  0  0
   -1.7863   -2.0195    0.9119 C   0  0  0  0  0  0  0  0  0  0  0  0
   -0.9073   -2.6615    1.4699 O   0  0  0  0  0  0  0  0  0  0  0  0
   -1.5803   -0.8195    0.3749 N   0  0  0  0  0  0  0  0  0  0  0  0
   -2.3603   -0.3345   -0.0451 H   0  0  0  0  0  0  0  0  0  0  0  0
   -0.2933   -0.1205    0.3719 C   0  0  1  0  0  0  0  0  0  0  0  0
   -0.2275    0.4860   -0.5325 H   0  0  0  0  0  0  0  0  0  0  0  0
   -0.2295    0.8195    1.5931 C   0  0  0  0  0  0  0  0  0  0  0  0
   -0.4363    0.2286    2.4870 H   0  0  0  0  0  0  0  0  0  0  0  0
    0.7787    1.2268    1.6814 H   0  0  0  0  0  0  0  0  0  0  0  0
   -1.2258    1.9902    1.5314 C   0  0  0  0  0  0  0  0  0  0  0  0
   -1.0224    2.6050    0.6546 H   0  0  0  0  0  0  0  0  0  0  0  0
   -2.2386    1.5949    1.4626 H   0  0  0  0  0  0  0  0  0  0  0  0
   -1.1482    2.8811    2.7670 C   0  0  0  0  0  0  0  0  0  0  0  0
   -0.4817    2.6430    3.7615 O   0  0  0  0  0  0  0  0  0  0  0  0
   -1.8949    4.0001    2.7228 O   0  0  0  0  0  0  0  0  0  0  0  0
   -1.7472    4.4342    3.5649 H   0  0  0  0  0  0  0  0  0  0  0  0
    0.8633   -1.1325    0.3519 C   0  0  0  0  0  0  0  0  0  0  0  0
    0.7115   -2.2299   -0.1814 O   0  0  0  0  0  0  0  0  0  0  0  0
    2.0088   -0.7686    0.9411 N   0  0  0  0  0  0  0  0  0  0  0  0
    2.0663    0.1573    1.3382 H   0  0  0  0  0  0  0  0  0  0  0  0
    3.1911   -1.6235    1.0254 C   0  0  0  0  0  0  0  0  0  0  0  0
    3.5032   -1.9222    0.0230 H   0  0  0  0  0  0  0  0  0  0  0  0
    4.0097   -1.0913    1.5120 H   0  0  0  0  0  0  0  0  0  0  0  0
    2.9554   -2.5231    1.5974 H   0  0  0  0  0  0  0  0  0  0  0  0
  5  6  2  0  0  0  0
  5  7  1  0  0  0  0
  2  3  1  0  0  0  0
  2  4  1  0  0  0  0
  2  5  1  0  0  0  0
  1  2  1  0  0  0  0
 21 22  2  0  0  0  0
 21 23  1  0  0  0  0
 19 20  1  0  0  0  0
 17 18  2  0  0  0  0
 17 19  1  0  0  0  0
 14 15  1  0  0  0  0
 14 16  1  0  0  0  0
 14 17  1  0  0  0  0
 11 12  1  0  0  0  0
 11 13  1  0  0  0  0
 11 14  1  0  0  0  0
  9 10  1  0  0  0  0
  9 11  1  0  0  0  0
  9 21  1  0  0  0  0
  7  8  1  0  0  0  0
  7  9  1  0  0  0  0
 25 26  1  0  0  0  0
 25 27  1  0  0  0  0
 25 28  1  0  0  0  0
 23 24  1  0  0  0  0
 23 25  1  0  0  0  0
M  END
$$$$
default_name
  -OEChem-01062215323D

 28 27  0     1  0  0  0  0  0999 V2000
   -3.2133   -3.5565    1.2809 H   0  0  0  0  0  0  0  0  0  0  0  0
   -3.1873   -2.5755    0.8089 C   0  0  0  0  0  0  0  0  0  0  0  0
   -3.8793   -1.9065    1.3169 H   0  0  0  0  0  0  0  0  0  0  0  0
   -3.4623   -2.6685   -0.2401 H   0  0  0  0  0  0  0  0  0  0  0  0
   -1.7863   -2.0195    0.9119 C   0  0  0  0  0  0  0  0  0  0  0  0
   -0.9073   -2.6615    1.4699 O   0  0  0  0  0  0  0  0  0  0  0  0
   -1.5803   -0.8195    0.3749 N   0  0  0  0  0  0  0  0  0  0  0  0
   -2.3603   -0.3345   -0.0451 H   0  0  0  0  0  0  0  0  0  0  0  0
   -0.2933   -0.1205    0.3719 C   0  0  1  0  0  0  0  0  0  0  0  0
   -0.2275    0.4860   -0.5325 H   0  0  0  0  0  0  0  0  0  0  0  0
   -0.2295    0.8195    1.5931 C   0  0  0  0  0  0  0  0  0  0  0  0
   -0.4363    0.2286    2.4870 H   0  0  0  0  0  0  0  0  0  0  0  0
    0.7787    1.2268    1.6814 H   0  0  0  0  0  0  0  0  0  0  0  0
   -1.2258    1.9902    1.5314 C   0  0  0  0  0  0  0  0  0  0  0  0
   -1.0224    2.6050    0.6546 H   0  0  0  0  0  0  0  0  0  0  0  0
   -2.2386    1.5949    1.4626 H   0  0  0  0  0  0  0  0  0  0  0  0
   -1.1482    2.8811    2.7670 C   0  0  0  0  0  0  0  0  0  0  0  0
   -0.4817    2.6430    3.7615 O   0  0  0  0  0  0  0  0  0  0  0  0
   -1.8949    4.0001    2.7228 O   0  0  0  0  0  0  0  0  0  0  0  0
   -1.7472    4.4342    3.5649 H   0  0  0  0  0  0  0  0  0  0  0  0
    0.8633   -1.1325    0.3519 C   0  0  0  0  0  0  0  0  0  0  0  0
    0.8196   -2.1019   -0.4031 O   0  0  0  0  0  0  0  0  0  0  0  0
    1.8863   -0.9134    1.1868 N   0  0  0  0  0  0  0  0  0  0  0  0
    1.8627   -0.0837    1.7607 H   0  0  0  0  0  0  0  0  0  0  0  0
    3.0483   -1.7921    1.3026 C   0  0  0  0  0  0  0  0  0  0  0  0
    3.5310   -1.8965    0.3292 H   0  0  0  0  0  0  0  0  0  0  0  0
    3.7646   -1.3814    2.0157 H   0  0  0  0  0  0  0  0  0  0  0  0
    2.7306   -2.7808    1.6395 H   0  0  0  0  0  0  0  0  0  0  0  0
  5  6  2  0  0  0  0
  5  7  1  0  0  0  0
  2  3  1  0  0  0  0
  2  4  1  0  0  0  0
  2  5  1  0  0  0  0
  1  2  1  0  0  0  0
 21 22  2  0  0  0  0
 21 23  1  0  0  0  0
 19 20  1  0  0  0  0
 17 18  2  0  0  0  0
 17 19  1  0  0  0  0
 14 15  1  0  0  0  0
 14 16  1  0  0  0  0
 14 17  1  0  0  0  0
 11 12  1  0  0  0  0
 11 13  1  0  0  0  0
 11 14  1  0  0  0  0
  9 10  1  0  0  0  0
  9 11  1  0  0  0  0
  9 21  1  0  0  0  0
  7  8  1  0  0  0  0
  7  9  1  0  0  0  0
 25 26  1  0  0  0  0
 25 27  1  0  0  0  0
 25 28  1  0  0  0  0
 23 24  1  0  0  0  0
 23 25  1  0  0  0  0
M  END
$$$$
default_name
  -OEChem-01062215323D

 28 27  0     1  0  0  0  0  0999 V2000
   -3.2133   -3.5565    1.2809 H   0  0  0  0  0  0  0  0  0  0  0  0
   -3.1873   -2.5755    0.8089 C   0  0  0  0  0  0  0  0  0  0  0  0
   -3.8793   -1.9065    1.3169 H   0  0  0  0  0  0  0  0  0  0  0  0
   -3.4623   -2.6685   -0.2401 H   0  0  0  0  0  0  0  0  0  0  0  0
   -1.7863   -2.0195    0.9119 C   0  0  0  0  0  0  0  0  0  0  0  0
   -0.9073   -2.6615    1.4699 O   0  0  0  0  0  0  0  0  0  0  0  0
   -1.5803   -0.8195    0.3749 N   0  0  0  0  0  0  0  0  0  0  0  0
   -2.3603   -0.3345   -0.0451 H   0  0  0  0  0  0  0  0  0  0  0  0
   -0.2933   -0.1205    0.3719 C   0  0  1  0  0  0  0  0  0  0  0  0
   -0.2275    0.4860   -0.5325 H   0  0  0  0  0  0  0  0  0  0  0  0
   -0.2295    0.8195    1.5931 C   0  0  0  0  0  0  0  0  0  0  0  0
   -0.4363    0.2286    2.4870 H   0  0  0  0  0  0  0  0  0  0  0  0
    0.7787    1.2268    1.6814 H   0  0  0  0  0  0  0  0  0  0  0  0
   -1.2258    1.9902    1.5314 C   0  0  0  0  0  0  0  0  0  0  0  0
   -1.0224    2.6050    0.6546 H   0  0  0  0  0  0  0  0  0  0  0  0
   -2.2386    1.5949    1.4626 H   0  0  0  0  0  0  0  0  0  0  0  0
   -1.1482    2.8811    2.7670 C   0  0  0  0  0  0  0  0  0  0  0  0
   -0.4817    2.6430    3.7615 O   0  0  0  0  0  0  0  0  0  0  0  0
   -1.8949    4.0001    2.7228 O   0  0  0  0  0  0  0  0  0  0  0  0
   -1.7472    4.4342    3.5649 H   0  0  0  0  0  0  0  0  0  0  0  0
    0.8633   -1.1325    0.3519 C   0  0  0  0  0  0  0  0  0  0  0  0
    0.9623   -1.9355   -0.5739 O   0  0  0  0  0  0  0  0  0  0  0  0
    1.7257   -1.1007    1.3751 N   0  0  0  0  0  0  0  0  0  0  0  0
    1.5932   -0.3982    2.0873 H   0  0  0  0  0  0  0  0  0  0  0  0
    2.8626   -2.0085    1.5132 C   0  0  0  0  0  0  0  0  0  0  0  0
    3.5058   -1.9313    0.6347 H   0  0  0  0  0  0  0  0  0  0  0  0
    3.4410   -1.7589    2.4039 H   0  0  0  0  0  0  0  0  0  0  0  0
    2.5055   -3.0372    1.5917 H   0  0  0  0  0  0  0  0  0  0  0  0
  5  6  2  0  0  0  0
  5  7  1  0  0  0  0
  2  3  1  0  0  0  0
  2  4  1  0  0  0  0
  2  5  1  0  0  0  0
  1  2  1  0  0  0  0
 21 22  2  0  0  0  0
 21 23  1  0  0  0  0
 19 20  1  0  0  0  0
 17 18  2  0  0  0  0
 17 19  1  0  0  0  0
 14 15  1  0  0  0  0
 14 16  1  0  0  0  0
 14 17  1  0  0  0  0
 11 12  1  0  0  0  0
 11 13  1  0  0  0  0
 11 14  1  0  0  0  0
  9 10  1  0  0  0  0
  9 11  1  0  0  0  0
  9 21  1  0  0  0  0
  7  8  1  0  0  0  0
  7  9  1  0  0  0  0
 25 26  1  0  0  0  0
 25 27  1  0  0  0  0
 25 28  1  0  0  0  0
 23 24  1  0  0  0  0
 23 25  1  0  0  0  0
M  END
$$$$
default_name
  -OEChem-01062215323D

 28 27  0     1  0  0  0  0  0999 V2000
   -3.2133   -3.5565    1.2809 H   0  0  0  0  0  0  0  0  0  0  0  0
   -3.1873   -2.5755    0.8089 C   0  0  0  0  0  0  0  0  0  0  0  0
   -3.8793   -1.9065    1.3169 H   0  0  0  0  0  0  0  0  0  0  0  0
   -3.4623   -2.6685   -0.2401 H   0  0  0  0  0  0  0  0  0  0  0  0
   -1.7863   -2.0195    0.9119 C   0  0  0  0  0  0  0  0  0  0  0  0
   -0.9073   -2.6615    1.4699 O   0  0  0  0  0  0  0  0  0  0  0  0
   -1.5803   -0.8195    0.3749 N   0  0  0  0  0  0  0  0  0  0  0  0
   -2.3603   -0.3345   -0.0451 H   0  0  0  0  0  0  0  0  0  0  0  0
   -0.2933   -0.1205    0.3719 C   0  0  1  0  0  0  0  0  0  0  0  0
   -0.2275    0.4860   -0.5325 H   0  0  0  0  0  0  0  0  0  0  0  0
   -0.2295    0.8195    1.5931 C   0  0  0  0  0  0  0  0  0  0  0  0
   -0.4363    0.2286    2.4870 H   0  0  0  0  0  0  0  0  0  0  0  0
    0.7787    1.2268    1.6814 H   0  0  0  0  0  0  0  0  0  0  0  0
   -1.2258    1.9902    1.5314 C   0  0  0  0  0  0  0  0  0  0  0  0
   -1.0224    2.6050    0.6546 H   0  0  0  0  0  0  0  0  0  0  0  0
   -2.2386    1.5949    1.4626 H   0  0  0  0  0  0  0  0  0  0  0  0
   -1.1482    2.8811    2.7670 C   0  0  0  0  0  0  0  0  0  0  0  0
   -0.4817    2.6430    3.7615 O   0  0  0  0  0  0  0  0  0  0  0  0
   -1.8949    4.0001    2.7228 O   0  0  0  0  0  0  0  0  0  0  0  0
   -1.7472    4.4342    3.5649 H   0  0  0  0  0  0  0  0  0  0  0  0
    0.8633   -1.1325    0.3519 C   0  0  0  0  0  0  0  0  0  0  0  0
    1.1298   -1.7420   -0.6822 O   0  0  0  0  0  0  0  0  0  0  0  0
    1.5378   -1.3177    1.4931 N   0  0  0  0  0  0  0  0  0  0  0  0
    1.2761   -0.7646    2.2955 H   0  0  0  0  0  0  0  0  0  0  0  0
    2.6466   -2.2580    1.6428 C   0  0  0  0  0  0  0  0  0  0  0  0
    3.4293   -2.0244    0.9187 H   0  0  0  0  0  0  0  0  0  0  0  0
    3.0610   -2.1981    2.6502 H   0  0  0  0  0  0  0  0  0  0  0  0
    2.2952   -3.2748    1.4573 H   0  0  0  0  0  0  0  0  0  0  0  0
  5  6  2  0  0  0  0
  5  7  1  0  0  0  0
  2  3  1  0  0  0  0
  2  4  1  0  0  0  0
  2  5  1  0  0  0  0
  1  2  1  0  0  0  0
 21 22  2  0  0  0  0
 21 23  1  0  0  0  0
 19 20  1  0  0  0  0
 17 18  2  0  0  0  0
 17 19  1  0  0  0  0
 14 15  1  0  0  0  0
 14 16  1  0  0  0  0
 14 17  1  0  0  0  0
 11 12  1  0  0  0  0
 11 13  1  0  0  0  0
 11 14  1  0  0  0  0
  9 10  1  0  0  0  0
  9 11  1  0  0  0  0
  9 21  1  0  0  0  0
  7  8  1  0  0  0  0
  7  9  1  0  0  0  0
 25 26  1  0  0  0  0
 25 27  1  0  0  0  0
 25 28  1  0  0  0  0
 23 24  1  0  0  0  0
 23 25  1  0  0  0  0
M  END
$$$$
default_name
  -OEChem-01062215323D

 28 27  0     1  0  0  0  0  0999 V2000
   -3.2133   -3.5565    1.2809 H   0  0  0  0  0  0  0  0  0  0  0  0
   -3.1873   -2.5755    0.8089 C   0  0  0  0  0  0  0  0  0  0  0  0
   -3.8793   -1.9065    1.3169 H   0  0  0  0  0  0  0  0  0  0  0  0
   -3.4623   -2.6685   -0.2401 H   0  0  0  0  0  0  0  0  0  0  0  0
   -1.7863   -2.0195    0.9119 C   0  0  0  0  0  0  0  0  0  0  0  0
   -0.9073   -2.6615    1.4699 O   0  0  0  0  0  0  0  0  0  0  0  0
   -1.5803   -0.8195    0.3749 N   0  0  0  0  0  0  0  0  0  0  0  0
   -2.3603   -0.3345   -0.0451 H   0  0  0  0  0  0  0  0  0  0  0  0
   -0.2933   -0.1205    0.3719 C   0  0  1  0  0  0  0  0  0  0  0  0
   -0.2275    0.4860   -0.5325 H   0  0  0  0  0  0  0  0  0  0  0  0
   -0.2295    0.8195    1.5931 C   0  0  0  0  0  0  0  0  0  0  0  0
   -0.4363    0.2286    2.4870 H   0  0  0  0  0  0  0  0  0  0  0  0
    0.7787    1.2268    1.6814 H   0  0  0  0  0  0  0  0  0  0  0  0
   -1.2258    1.9902    1.5314 C   0  0  0  0  0  0  0  0  0  0  0  0
   -1.0224    2.6050    0.6546 H   0  0  0  0  0  0  0  0  0  0  0  0
   -2.2386    1.5949    1.4626 H   0  0  0  0  0  0  0  0  0  0  0  0
   -1.1482    2.8811    2.7670 C   0  0  0  0  0  0  0  0  0  0  0  0
   -0.4817    2.6430    3.7615 O   0  0  0  0  0  0  0  0  0  0  0  0
   -1.8949    4.0001    2.7228 O   0  0  0  0  0  0  0  0  0  0  0  0
   -1.7472    4.4342    3.5649 H   0  0  0  0  0  0  0  0  0  0  0  0
    0.8633   -1.1325    0.3519 C   0  0  0  0  0  0  0  0  0  0  0  0
    1.3106   -1.5345   -0.7205 O   0  0  0  0  0  0  0  0  0  0  0  0
    1.3355   -1.5498    1.5328 N   0  0  0  0  0  0  0  0  0  0  0  0
    0.9332   -1.1581    2.3713 H   0  0  0  0  0  0  0  0  0  0  0  0
    2.4151   -2.5234    1.6826 C   0  0  0  0  0  0  0  0  0  0  0  0
    3.3066   -2.1694    1.1618 H   0  0  0  0  0  0  0  0  0  0  0  0
    2.6505   -2.6690    2.7378 H   0  0  0  0  0  0  0  0  0  0  0  0
    2.1143   -3.4775    1.2453 H   0  0  0  0  0  0  0  0  0  0  0  0
  5  6  2  0  0  0  0
  5  7  1  0  0  0  0
  2  3  1  0  0  0  0
  2  4  1  0  0  0  0
  2  5  1  0  0  0  0
  1  2  1  0  0  0  0
 21 22  2  0  0  0  0
 21 23  1  0  0  0  0
 19 20  1  0  0  0  0
 17 18  2  0  0  0  0
 17 19  1  0  0  0  0
 14 15  1  0  0  0  0
 14 16  1  0  0  0  0
 14 17  1  0  0  0  0
 11 12  1  0  0  0  0
 11 13  1  0  0  0  0
 11 14  1  0  0  0  0
  9 10  1  0  0  0  0
  9 11  1  0  0  0  0
  9 21  1  0  0  0  0
  7  8  1  0  0  0  0
  7  9  1  0  0  0  0
 25 26  1  0  0  0  0
 25 27  1  0  0  0  0
 25 28  1  0  0  0  0
 23 24  1  0  0  0  0
 23 25  1  0  0  0  0
M  END
$$$$
default_name
  -OEChem-01062215323D

 28 27  0     1  0  0  0  0  0999 V2000
   -3.2133   -3.5565    1.2809 H   0  0  0  0  0  0  0  0  0  0  0  0
   -3.1873   -2.5755    0.8089 C   0  0  0  0  0  0  0  0  0  0  0  0
   -3.8793   -1.9065    1.3169 H   0  0  0  0  0  0  0  0  0  0  0  0
   -3.4623   -2.6685   -0.2401 H   0  0  0  0  0  0  0  0  0  0  0  0
   -1.7863   -2.0195    0.9119 C   0  0  0  0  0  0  0  0  0  0  0  0
   -0.9073   -2.6615    1.4699 O   0  0  0  0  0  0  0  0  0  0  0  0
   -1.5803   -0.8195    0.3749 N   0  0  0  0  0  0  0  0  0  0  0  0
   -2.3603   -0.3345   -0.0451 H   0  0  0  0  0  0  0  0  0  0  0  0
   -0.2933   -0.1205    0.3719 C   0  0  1  0  0  0  0  0  0  0  0  0
   -0.2275    0.4860   -0.5325 H   0  0  0  0  0  0  0  0  0  0  0  0
   -0.2295    0.8195    1.5931 C   0  0  0  0  0  0  0  0  0  0  0  0
   -0.4363    0.2286    2.4870 H   0  0  0  0  0  0  0  0  0  0  0  0
    0.7787    1.2268    1.6814 H   0  0  0  0  0  0  0  0  0  0  0  0
   -1.2258    1.9902    1.5314 C   0  0  0  0  0  0  0  0  0  0  0  0
   -1.0224    2.6050    0.6546 H   0  0  0  0  0  0  0  0  0  0  0  0
   -2.2386    1.5949    1.4626 H   0  0  0  0  0  0  0  0  0  0  0  0
   -1.1482    2.8811    2.7670 C   0  0  0  0  0  0  0  0  0  0  0  0
   -0.4817    2.6430    3.7615 O   0  0  0  0  0  0  0  0  0  0  0  0
   -1.8949    4.0001    2.7228 O   0  0  0  0  0  0  0  0  0  0  0  0
   -1.7472    4.4342    3.5649 H   0  0  0  0  0  0  0  0  0  0  0  0
    0.8633   -1.1325    0.3519 C   0  0  0  0  0  0  0  0  0  0  0  0
    1.4926   -1.3272   -0.6863 O   0  0  0  0  0  0  0  0  0  0  0  0
    1.1325   -1.7809    1.4915 N   0  0  0  0  0  0  0  0  0  0  0  0
    0.5877   -1.5517    2.3094 H   0  0  0  0  0  0  0  0  0  0  0  0
    2.1837   -2.7868    1.6299 C   0  0  0  0  0  0  0  0  0  0  0  0
    3.1462   -2.3563    1.3475 H   0  0  0  0  0  0  0  0  0  0  0  0
    2.2374   -3.1395    2.6608 H   0  0  0  0  0  0  0  0  0  0  0  0
    1.9750   -3.6313    0.9702 H   0  0  0  0  0  0  0  0  0  0  0  0
  5  6  2  0  0  0  0
  5  7  1  0  0  0  0
  2  3  1  0  0  0  0
  2  4  1  0  0  0  0
  2  5  1  0  0  0  0
  1  2  1  0  0  0  0
 21 22  2  0  0  0  0
 21 23  1  0  0  0  0
 19 20  1  0  0  0  0
 17 18  2  0  0  0  0
 17 19  1  0  0  0  0
 14 15  1  0  0  0  0
 14 16  1  0  0  0  0
 14 17  1  0  0  0  0
 11 12  1  0  0  0  0
 11 13  1  0  0  0  0
 11 14  1  0  0  0  0
  9 10  1  0  0  0  0
  9 11  1  0  0  0  0
  9 21  1  0  0  0  0
  7  8  1  0  0  0  0
  7  9  1  0  0  0  0
 25 26  1  0  0  0  0
 25 27  1  0  0  0  0
 25 28  1  0  0  0  0
 23 24  1  0  0  0  0
 23 25  1  0  0  0  0
M  END
$$$$
default_name
  -OEChem-01062215323D

 28 27  0     1  0  0  0  0  0999 V2000
   -3.2133   -3.5565    1.2809 H   0  0  0  0  0  0  0  0  0  0  0  0
   -3.1873   -2.5755    0.8089 C   0  0  0  0  0  0  0  0  0  0  0  0
   -3.8793   -1.9065    1.3169 H   0  0  0  0  0  0  0  0  0  0  0  0
   -3.4623   -2.6685   -0.2401 H   0  0  0  0  0  0  0  0  0  0  0  0
   -1.7863   -2.0195    0.9119 C   0  0  0  0  0  0  0  0  0  0  0  0
   -0.9073   -2.6615    1.4699 O   0  0  0  0  0  0  0  0  0  0  0  0
   -1.5803   -0.8195    0.3749 N   0  0  0  0  0  0  0  0  0  0  0  0
   -2.3603   -0.3345   -0.0451 H   0  0  0  0  0  0  0  0  0  0  0  0
   -0.2933   -0.1205    0.3719 C   0  0  1  0  0  0  0  0  0  0  0  0
   -0.2275    0.4860   -0.5325 H   0  0  0  0  0  0  0  0  0  0  0  0
   -0.2295    0.8195    1.5931 C   0  0  0  0  0  0  0  0  0  0  0  0
   -0.4363    0.2286    2.4870 H   0  0  0  0  0  0  0  0  0  0  0  0
    0.7787    1.2268    1.6814 H   0  0  0  0  0  0  0  0  0  0  0  0
   -1.2258    1.9902    1.5314 C   0  0  0  0  0  0  0  0  0  0  0  0
   -1.0224    2.6050    0.6546 H   0  0  0  0  0  0  0  0  0  0  0  0
   -2.2386    1.5949    1.4626 H   0  0  0  0  0  0  0  0  0  0  0  0
   -1.1482    2.8811    2.7670 C   0  0  0  0  0  0  0  0  0  0  0  0
   -0.4817    2.6430    3.7615 O   0  0  0  0  0  0  0  0  0  0  0  0
   -1.8949    4.0001    2.7228 O   0  0  0  0  0  0  0  0  0  0  0  0
   -1.7472    4.4342    3.5649 H   0  0  0  0  0  0  0  0  0  0  0  0
    0.8633   -1.1325    0.3519 C   0  0  0  0  0  0  0  0  0  0  0  0
    1.6632   -1.1343   -0.5819 O   0  0  0  0  0  0  0  0  0  0  0  0
    0.9427   -1.9955    1.3720 N   0  0  0  0  0  0  0  0  0  0  0  0
    0.2632   -1.9187    2.1140 H   0  0  0  0  0  0  0  0  0  0  0  0
    1.9684   -3.0301    1.4883 C   0  0  0  0  0  0  0  0  0  0  0  0
    2.9590   -2.5726    1.4631 H   0  0  0  0  0  0  0  0  0  0  0  0
    1.8500   -3.5776    2.4244 H   0  0  0  0  0  0  0  0  0  0  0  0
    1.8867   -3.7258    0.6508 H   0  0  0  0  0  0  0  0  0  0  0  0
  5  6  2  0  0  0  0
  5  7  1  0  0  0  0
  2  3  1  0  0  0  0
  2  4  1  0  0  0  0
  2  5  1  0  0  0  0
  1  2  1  0  0  0  0
 21 22  2  0  0  0  0
 21 23  1  0  0  0  0
 19 20  1  0  0  0  0
 17 18  2  0  0  0  0
 17 19  1  0  0  0  0
 14 15  1  0  0  0  0
 14 16  1  0  0  0  0
 14 17  1  0  0  0  0
 11 12  1  0  0  0  0
 11 13  1  0  0  0  0
 11 14  1  0  0  0  0
  9 10  1  0  0  0  0
  9 11  1  0  0  0  0
  9 21  1  0  0  0  0
  7  8  1  0  0  0  0
  7  9  1  0  0  0  0
 25 26  1  0  0  0  0
 25 27  1  0  0  0  0
 25 28  1  0  0  0  0
 23 24  1  0  0  0  0
 23 25  1  0  0  0  0
M  END
$$$$
default_name
  -OEChem-01062215323D

 28 27  0     1  0  0  0  0  0999 V2000
   -3.2133   -3.5565    1.2809 H   0  0  0  0  0  0  0  0  0  0  0  0
   -3.1873   -2.5755    0.8089 C   0  0  0  0  0  0  0  0  0  0  0  0
   -3.8793   -1.9065    1.3169 H   0  0  0  0  0  0  0  0  0  0  0  0
   -3.4623   -2.6685   -0.2401 H   0  0  0  0  0  0  0  0  0  0  0  0
   -1.7863   -2.0195    0.9119 C   0  0  0  0  0  0  0  0  0  0  0  0
   -0.9073   -2.6615    1.4699 O   0  0  0  0  0  0  0  0  0  0  0  0
   -1.5803   -0.8195    0.3749 N   0  0  0  0  0  0  0  0  0  0  0  0
   -2.3603   -0.3345   -0.0451 H   0  0  0  0  0  0  0  0  0  0  0  0
   -0.2933   -0.1205    0.3719 C   0  0  1  0  0  0  0  0  0  0  0  0
   -0.2275    0.4860   -0.5325 H   0  0  0  0  0  0  0  0  0  0  0  0
   -0.2295    0.8195    1.5931 C   0  0  0  0  0  0  0  0  0  0  0  0
   -0.4363    0.2286    2.4870 H   0  0  0  0  0  0  0  0  0  0  0  0
    0.7787    1.2268    1.6814 H   0  0  0  0  0  0  0  0  0  0  0  0
   -1.2258    1.9902    1.5314 C   0  0  0  0  0  0  0  0  0  0  0  0
   -1.0224    2.6050    0.6546 H   0  0  0  0  0  0  0  0  0  0  0  0
   -2.2386    1.5949    1.4626 H   0  0  0  0  0  0  0  0  0  0  0  0
   -1.1482    2.8811    2.7670 C   0  0  0  0  0  0  0  0  0  0  0  0
   -0.4817    2.6430    3.7615 O   0  0  0  0  0  0  0  0  0  0  0  0
   -1.8949    4.0001    2.7228 O   0  0  0  0  0  0  0  0  0  0  0  0
   -1.7472    4.4342    3.5649 H   0  0  0  0  0  0  0  0  0  0  0  0
    0.8633   -1.1325    0.3519 C   0  0  0  0  0  0  0  0  0  0  0  0
    1.8108   -0.9689   -0.4144 O   0  0  0  0  0  0  0  0  0  0  0  0
    0.7790   -2.1788    1.1824 N   0  0  0  0  0  0  0  0  0  0  0  0
   -0.0182   -2.2341    1.7986 H   0  0  0  0  0  0  0  0  0  0  0  0
    1.7837   -3.2368    1.2673 C   0  0  0  0  0  0  0  0  0  0  0  0
    2.7578   -2.8033    1.5008 H   0  0  0  0  0  0  0  0  0  0  0  0
    1.5146   -3.9534    2.0446 H   0  0  0  0  0  0  0  0  0  0  0  0
    1.8556   -3.7546    0.3088 H   0  0  0  0  0  0  0  0  0  0  0  0
  5  6  2  0  0  0  0
  5  7  1  0  0  0  0
  2  3  1  0  0  0  0
  2  4  1  0  0  0  0
  2  5  1  0  0  0  0
  1  2  1  0  0  0  0
 21 22  2  0  0  0  0
 21 23  1  0  0  0  0
 19 20  1  0  0  0  0
 17 18  2  0  0  0  0
 17 19  1  0  0  0  0
 14 15  1  0  0  0  0
 14 16  1  0  0  0  0
 14 17  1  0  0  0  0
 11 12  1  0  0  0  0
 11 13  1  0  0  0  0
 11 14  1  0  0  0  0
  9 10  1  0  0  0  0
  9 11  1  0  0  0  0
  9 21  1  0  0  0  0
  7  8  1  0  0  0  0
  7  9  1  0  0  0  0
 25 26  1  0  0  0  0
 25 27  1  0  0  0  0
 25 28  1  0  0  0  0
 23 24  1  0  0  0  0
 23 25  1  0  0  0  0
M  END
$$$$
default_name
  -OEChem-01062215323D

 28 27  0     1  0  0  0  0  0999 V2000
   -3.2133   -3.5565    1.2809 H   0  0  0  0  0  0  0  0  0  0  0  0
   -3.1873   -2.5755    0.8089 C   0  0  0  0  0  0  0  0  0  0  0  0
   -3.8793   -1.9065    1.3169 H   0  0  0  0  0  0  0  0  0  0  0  0
   -3.4623   -2.6685   -0.2401 H   0  0  0  0  0  0  0  0  0  0  0  0
   -1.7863   -2.0195    0.9119 C   0  0  0  0  0  0  0  0  0  0  0  0
   -0.9073   -2.6615    1.4699 O   0  0  0  0  0  0  0  0  0  0  0  0
   -1.5803   -0.8195    0.3749 N   0  0  0  0  0  0  0  0  0  0  0  0
   -2.3603   -0.3345   -0.0451 H   0  0  0  0  0  0  0  0  0  0  0  0
   -0.2933   -0.1205    0.3719 C   0  0  1  0  0  0  0  0  0  0  0  0
   -0.2275    0.4860   -0.5325 H   0  0  0  0  0  0  0  0  0  0  0  0
   -0.2295    0.8195    1.5931 C   0  0  0  0  0  0  0  0  0  0  0  0
   -0.4363    0.2286    2.4870 H   0  0  0  0  0  0  0  0  0  0  0  0
    0.7787    1.2268    1.6814 H   0  0  0  0  0  0  0  0  0  0  0  0
   -1.2258    1.9902    1.5314 C   0  0  0  0  0  0  0  0  0  0  0  0
   -1.0224    2.6050    0.6546 H   0  0  0  0  0  0  0  0  0  0  0  0
   -2.2386    1.5949    1.4626 H   0  0  0  0  0  0  0  0  0  0  0  0
   -1.1482    2.8811    2.7670 C   0  0  0  0  0  0  0  0  0  0  0  0
   -0.4817    2.6430    3.7615 O   0  0  0  0  0  0  0  0  0  0  0  0
   -1.8949    4.0001    2.7228 O   0  0  0  0  0  0  0  0  0  0  0  0
   -1.7472    4.4342    3.5649 H   0  0  0  0  0  0  0  0  0  0  0  0
    0.8633   -1.1325    0.3519 C   0  0  0  0  0  0  0  0  0  0  0  0
    1.9255   -0.8422   -0.1952 O   0  0  0  0  0  0  0  0  0  0  0  0
    0.6526   -2.3184    0.9357 N   0  0  0  0  0  0  0  0  0  0  0  0
   -0.2373   -2.4763    1.3845 H   0  0  0  0  0  0  0  0  0  0  0  0
    1.6422   -3.3929    0.9822 C   0  0  0  0  0  0  0  0  0  0  0  0
    2.5562   -3.0329    1.4580 H   0  0  0  0  0  0  0  0  0  0  0  0
    1.2541   -4.2414    1.5475 H   0  0  0  0  0  0  0  0  0  0  0  0
    1.8838   -3.7157   -0.0324 H   0  0  0  0  0  0  0  0  0  0  0  0
  5  6  2  0  0  0  0
  5  7  1  0  0  0  0
  2  3  1  0  0  0  0
  2  4  1  0  0  0  0
  2  5  1  0  0  0  0
  1  2  1  0  0  0  0
 21 22  2  0  0  0  0
 21 23  1  0  0  0  0
 19 20  1  0  0  0  0
 17 18  2  0  0  0  0
 17 19  1  0  0  0  0
 14 15  1  0  0  0  0
 14 16  1  0  0  0  0
 14 17  1  0  0  0  0
 11 12  1  0  0  0  0
 11 13  1  0  0  0  0
 11 14  1  0  0  0  0
  9 10  1  0  0  0  0
  9 11  1  0  0  0  0
  9 21  1  0  0  0  0
  7  8  1  0  0  0  0
  7  9  1  0  0  0  0
 25 26  1  0  0  0  0
 25 27  1  0  0  0  0
 25 28  1  0  0  0  0
 23 24  1  0  0  0  0
 23 25  1  0  0  0  0
M  END
$$$$
default_name
  -OEChem-01062215323D

 28 27  0     1  0  0  0  0  0999 V2000
   -3.2133   -3.5565    1.2809 H   0  0  0  0  0  0  0  0  0  0  0  0
   -3.1873   -2.5755    0.8089 C   0  0  0  0  0  0  0  0  0  0  0  0
   -3.8793   -1.9065    1.3169 H   0  0  0  0  0  0  0  0  0  0  0  0
   -3.4623   -2.6685   -0.2401 H   0  0  0  0  0  0  0  0  0  0  0  0
   -1.7863   -2.0195    0.9119 C   0  0  0  0  0  0  0  0  0  0  0  0
   -0.9073   -2.6615    1.4699 O   0  0  0  0  0  0  0  0  0  0  0  0
   -1.5803   -0.8195    0.3749 N   0  0  0  0  0  0  0  0  0  0  0  0
   -2.3603   -0.3345   -0.0451 H   0  0  0  0  0  0  0  0  0  0  0  0
   -0.2933   -0.1205    0.3719 C   0  0  1  0  0  0  0  0  0  0  0  0
   -0.2275    0.4860   -0.5325 H   0  0  0  0  0  0  0  0  0  0  0  0
   -0.2295    0.8195    1.5931 C   0  0  0  0  0  0  0  0  0  0  0  0
   -0.4363    0.2286    2.4870 H   0  0  0  0  0  0  0  0  0  0  0  0
    0.7787    1.2268    1.6814 H   0  0  0  0  0  0  0  0  0  0  0  0
   -1.2258    1.9902    1.5314 C   0  0  0  0  0  0  0  0  0  0  0  0
   -1.0224    2.6050    0.6546 H   0  0  0  0  0  0  0  0  0  0  0  0
   -2.2386    1.5949    1.4626 H   0  0  0  0  0  0  0  0  0  0  0  0
   -1.1482    2.8811    2.7670 C   0  0  0  0  0  0  0  0  0  0  0  0
   -0.4817    2.6430    3.7615 O   0  0  0  0  0  0  0  0  0  0  0  0
   -1.8949    4.0001    2.7228 O   0  0  0  0  0  0  0  0  0  0  0  0
   -1.7472    4.4342    3.5649 H   0  0  0  0  0  0  0  0  0  0  0  0
    0.8633   -1.1325    0.3519 C   0  0  0  0  0  0  0  0  0  0  0  0
    1.9993   -0.7629    0.0607 O   0  0  0  0  0  0  0  0  0  0  0  0
    0.5720   -2.4048    0.6486 N   0  0  0  0  0  0  0  0  0  0  0  0
   -0.3792   -2.6289    0.9000 H   0  0  0  0  0  0  0  0  0  0  0  0
    1.5536   -3.4876    0.6523 C   0  0  0  0  0  0  0  0  0  0  0  0
    2.3680   -3.2456    1.3376 H   0  0  0  0  0  0  0  0  0  0  0  0
    1.0862   -4.4218    0.9668 H   0  0  0  0  0  0  0  0  0  0  0  0
    1.9692   -3.6117   -0.3496 H   0  0  0  0  0  0  0  0  0  0  0  0
  5  6  2  0  0  0  0
  5  7  1  0  0  0  0
  2  3  1  0  0  0  0
  2  4  1  0  0  0  0
  2  5  1  0  0  0  0
  1  2  1  0  0  0  0
 21 22  2  0  0  0  0
 21 23  1  0  0  0  0
 19 20  1  0  0  0  0
 17 18  2  0  0  0  0
 17 19  1  0  0  0  0
 14 15  1  0  0  0  0
 14 16  1  0  0  0  0
 14 17  1  0  0  0  0
 11 12  1  0  0  0  0
 11 13  1  0  0  0  0
 11 14  1  0  0  0  0
  9 10  1  0  0  0  0
  9 11  1  0  0  0  0
  9 21  1  0  0  0  0
  7  8  1  0  0  0  0
  7  9  1  0  0  0  0
 25 26  1  0  0  0  0
 25 27  1  0  0  0  0
 25 28  1  0  0  0  0
 23 24  1  0  0  0  0
 23 25  1  0  0  0  0
M  END
$$$$
default_name
  -OEChem-01062215323D

 28 27  0     1  0  0  0  0  0999 V2000
   -3.2133   -3.5565    1.2809 H   0  0  0  0  0  0  0  0  0  0  0  0
   -3.1873   -2.5755    0.8089 C   0  0  0  0  0  0  0  0  0  0  0  0
   -3.8793   -1.9065    1.3169 H   0  0  0  0  0  0  0  0  0  0  0  0
   -3.4623   -2.6685   -0.2401 H   0  0  0  0  0  0  0  0  0  0  0  0
   -1.7863   -2.0195    0.9119 C   0  0  0  0  0  0  0  0  0  0  0  0
   -0.9073   -2.6615    1.4699 O   0  0  0  0  0  0  0  0  0  0  0  0
   -1.5803   -0.8195    0.3749 N   0  0  0  0  0  0  0  0  0  0  0  0
   -2.3603   -0.3345   -0.0451 H   0  0  0  0  0  0  0  0  0  0  0  0
   -0.2933   -0.1205    0.3719 C   0  0  1  0  0  0  0  0  0  0  0  0
   -0.2275    0.4860   -0.5325 H   0  0  0  0  0  0  0  0  0  0  0  0
   -0.2295    0.8195    1.5931 C   0  0  0  0  0  0  0  0  0  0  0  0
   -0.4363    0.2286    2.4870 H   0  0  0  0  0  0  0  0  0  0  0  0
    0.7787    1.2268    1.6814 H   0  0  0  0  0  0  0  0  0  0  0  0
   -1.2258    1.9902    1.5314 C   0  0  0  0  0  0  0  0  0  0  0  0
   -1.0224    2.6050    0.6546 H   0  0  0  0  0  0  0  0  0  0  0  0
   -2.2386    1.5949    1.4626 H   0  0  0  0  0  0  0  0  0  0  0  0
   -1.1482    2.8811    2.7670 C   0  0  0  0  0  0  0  0  0  0  0  0
   -0.4817    2.6430    3.7615 O   0  0  0  0  0  0  0  0  0  0  0  0
   -1.8949    4.0001    2.7228 O   0  0  0  0  0  0  0  0  0  0  0  0
   -1.7472    4.4342    3.5649 H   0  0  0  0  0  0  0  0  0  0  0  0
    0.8633   -1.1325    0.3519 C   0  0  0  0  0  0  0  0  0  0  0  0
    2.0272   -0.7364    0.3359 O   0  0  0  0  0  0  0  0  0  0  0  0
    0.5429   -2.4320    0.3408 N   0  0  0  0  0  0  0  0  0  0  0  0
   -0.4342   -2.6814    0.3781 H   0  0  0  0  0  0  0  0  0  0  0  0
    1.5239   -3.5145    0.3001 C   0  0  0  0  0  0  0  0  0  0  0  0
    2.2060   -3.4269    1.1477 H   0  0  0  0  0  0  0  0  0  0  0  0
    1.0223   -4.4824    0.3421 H   0  0  0  0  0  0  0  0  0  0  0  0
    2.1062   -3.4499   -0.6212 H   0  0  0  0  0  0  0  0  0  0  0  0
  5  6  2  0  0  0  0
  5  7  1  0  0  0  0
  2  3  1  0  0  0  0
  2  4  1  0  0  0  0
  2  5  1  0  0  0  0
  1  2  1  0  0  0  0
 21 22  2  0  0  0  0
 21 23  1  0  0  0  0
 19 20  1  0  0  0  0
 17 18  2  0  0  0  0
 17 19  1  0  0  0  0
 14 15  1  0  0  0  0
 14 16  1  0  0  0  0
 14 17  1  0  0  0  0
 11 12  1  0  0  0  0
 11 13  1  0  0  0  0
 11 14  1  0  0  0  0
  9 10  1  0  0  0  0
  9 11  1  0  0  0  0
  9 21  1  0  0  0  0
  7  8  1  0  0  0  0
  7  9  1  0  0  0  0
 25 26  1  0  0  0  0
 25 27  1  0  0  0  0
 25 28  1  0  0  0  0
 23 24  1  0  0  0  0
 23 25  1  0  0  0  0
M  END
$$$$
default_name
  -OEChem-01062215323D

 28 27  0     1  0  0  0  0  0999 V2000
   -3.2133   -3.5565    1.2809 H   0  0  0  0  0  0  0  0  0  0  0  0
   -3.1873   -2.5755    0.8089 C   0  0  0  0  0  0  0  0  0  0  0  0
   -3.8793   -1.9065    1.3169 H   0  0  0  0  0  0  0  0  0  0  0  0
   -3.4623   -2.6685   -0.2401 H   0  0  0  0  0  0  0  0  0  0  0  0
   -1.7863   -2.0195    0.9119 C   0  0  0  0  0  0  0  0  0  0  0  0
   -0.9073   -2.6615    1.4699 O   0  0  0  0  0  0  0  0  0  0  0  0
   -1.5803   -0.8195    0.3749 N   0  0  0  0  0  0  0  0  0  0  0  0
   -2.3603   -0.3345   -0.0451 H   0  0  0  0  0  0  0  0  0  0  0  0
   -0.2933   -0.1205    0.3719 C   0  0  1  0  0  0  0  0  0  0  0  0
   -0.2275    0.4860   -0.5325 H   0  0  0  0  0  0  0  0  0  0  0  0
   -0.2295    0.8195    1.5931 C   0  0  0  0  0  0  0  0  0  0  0  0
   -0.4363    0.2286    2.4870 H   0  0  0  0  0  0  0  0  0  0  0  0
    0.7787    1.2268    1.6814 H   0  0  0  0  0  0  0  0  0  0  0  0
   -1.2258    1.9902    1.5314 C   0  0  0  0  0  0  0  0  0  0  0  0
   -1.0224    2.6050    0.6546 H   0  0  0  0  0  0  0  0  0  0  0  0
   -2.2386    1.5949    1.4626 H   0  0  0  0  0  0  0  0  0  0  0  0
   -1.1482    2.8811    2.7670 C   0  0  0  0  0  0  0  0  0  0  0  0
   -0.4817    2.6430    3.7615 O   0  0  0  0  0  0  0  0  0  0  0  0
   -1.8949    4.0001    2.7228 O   0  0  0  0  0  0  0  0  0  0  0  0
   -1.7472    4.4342    3.5649 H   0  0  0  0  0  0  0  0  0  0  0  0
    0.8633   -1.1325    0.3519 C   0  0  0  0  0  0  0  0  0  0  0  0
    2.0074   -0.7645    0.6117 O   0  0  0  0  0  0  0  0  0  0  0  0
    0.5671   -2.3983    0.0332 N   0  0  0  0  0  0  0  0  0  0  0  0
   -0.3985   -2.6303   -0.1456 H   0  0  0  0  0  0  0  0  0  0  0  0
    1.5552   -3.4719   -0.0504 C   0  0  0  0  0  0  0  0  0  0  0  0
    2.0813   -3.5646    0.9014 H   0  0  0  0  0  0  0  0  0  0  0  0
    1.0669   -4.4190   -0.2839 H   0  0  0  0  0  0  0  0  0  0  0  0
    2.2853   -3.2410   -0.8287 H   0  0  0  0  0  0  0  0  0  0  0  0
  5  6  2  0  0  0  0
  5  7  1  0  0  0  0
  2  3  1  0  0  0  0
  2  4  1  0  0  0  0
  2  5  1  0  0  0  0
  1  2  1  0  0  0  0
 21 22  2  0  0  0  0
 21 23  1  0  0  0  0
 19 20  1  0  0  0  0
 17 18  2  0  0  0  0
 17 19  1  0  0  0  0
 14 15  1  0  0  0  0
 14 16  1  0  0  0  0
 14 17  1  0  0  0  0
 11 12  1  0  0  0  0
 11 13  1  0  0  0  0
 11 14  1  0  0  0  0
  9 10  1  0  0  0  0
  9 11  1  0  0  0  0
  9 21  1  0  0  0  0
  7  8  1  0  0  0  0
  7  9  1  0  0  0  0
 25 26  1  0  0  0  0
 25 27  1  0  0  0  0
 25 28  1  0  0  0  0
 23 24  1  0  0  0  0
 23 25  1  0  0  0  0
M  END
$$$$
default_name
  -OEChem-01062215323D

 28 27  0     1  0  0  0  0  0999 V2000
   -3.2133   -3.5565    1.2809 H   0  0  0  0  0  0  0  0  0  0  0  0
   -3.1873   -2.5755    0.8089 C   0  0  0  0  0  0  0  0  0  0  0  0
   -3.8793   -1.9065    1.3169 H   0  0  0  0  0  0  0  0  0  0  0  0
   -3.4623   -2.6685   -0.2401 H   0  0  0  0  0  0  0  0  0  0  0  0
   -1.7863   -2.0195    0.9119 C   0  0  0  0  0  0  0  0  0  0  0  0
   -0.9073   -2.6615    1.4699 O   0  0  0  0  0  0  0  0  0  0  0  0
   -1.5803   -0.8195    0.3749 N   0  0  0  0  0  0  0  0  0  0  0  0
   -2.3603   -0.3345   -0.0451 H   0  0  0  0  0  0  0  0  0  0  0  0
   -0.2933   -0.1205    0.3719 C   0  0  1  0  0  0  0  0  0  0  0  0
   -0.2275    0.4860   -0.5325 H   0  0  0  0  0  0  0  0  0  0  0  0
   -0.2295    0.8195    1.5931 C   0  0  0  0  0  0  0  0  0  0  0  0
   -0.4363    0.2286    2.4870 H   0  0  0  0  0  0  0  0  0  0  0  0
    0.7787    1.2268    1.6814 H   0  0  0  0  0  0  0  0  0  0  0  0
   -1.2258    1.9902    1.5314 C   0  0  0  0  0  0  0  0  0  0  0  0
   -1.0224    2.6050    0.6546 H   0  0  0  0  0  0  0  0  0  0  0  0
   -2.2386    1.5949    1.4626 H   0  0  0  0  0  0  0  0  0  0  0  0
   -1.1482    2.8811    2.7670 C   0  0  0  0  0  0  0  0  0  0  0  0
   -0.4817    2.6430    3.7615 O   0  0  0  0  0  0  0  0  0  0  0  0
   -1.8949    4.0001    2.7228 O   0  0  0  0  0  0  0  0  0  0  0  0
   -1.7472    4.4342    3.5649 H   0  0  0  0  0  0  0  0  0  0  0  0
    0.8633   -1.1325    0.3519 C   0  0  0  0  0  0  0  0  0  0  0  0
    1.9412   -0.8453    0.8692 O   0  0  0  0  0  0  0  0  0  0  0  0
    0.6430   -2.3059   -0.2532 N   0  0  0  0  0  0  0  0  0  0  0  0
   -0.2747   -2.4791   -0.6354 H   0  0  0  0  0  0  0  0  0  0  0  0
    1.6453   -3.3625   -0.3753 C   0  0  0  0  0  0  0  0  0  0  0  0
    2.0024   -3.6492    0.6155 H   0  0  0  0  0  0  0  0  0  0  0  0
    1.2169   -4.2361   -0.8687 H   0  0  0  0  0  0  0  0  0  0  0  0
    2.4944   -2.9995   -0.9579 H   0  0  0  0  0  0  0  0  0  0  0  0
  5  6  2  0  0  0  0
  5  7  1  0  0  0  0
  2  3  1  0  0  0  0
  2  4  1  0  0  0  0
  2  5  1  0  0  0  0
  1  2  1  0  0  0  0
 21 22  2  0  0  0  0
 21 23  1  0  0  0  0
 19 20  1  0  0  0  0
 17 18  2  0  0  0  0
 17 19  1  0  0  0  0
 14 15  1  0  0  0  0
 14 16  1  0  0  0  0
 14 17  1  0  0  0  0
 11 12  1  0  0  0  0
 11 13  1  0  0  0  0
 11 14  1  0  0  0  0
  9 10  1  0  0  0  0
  9 11  1  0  0  0  0
  9 21  1  0  0  0  0
  7  8  1  0  0  0  0
  7  9  1  0  0  0  0
 25 26  1  0  0  0  0
 25 27  1  0  0  0  0
 25 28  1  0  0  0  0
 23 24  1  0  0  0  0
 23 25  1  0  0  0  0
M  END
$$$$
default_name
  -OEChem-01062215323D

 28 27  0     1  0  0  0  0  0999 V2000
   -3.2133   -3.5565    1.2809 H   0  0  0  0  0  0  0  0  0  0  0  0
   -3.1873   -2.5755    0.8089 C   0  0  0  0  0  0  0  0  0  0  0  0
   -3.8793   -1.9065    1.3169 H   0  0  0  0  0  0  0  0  0  0  0  0
   -3.4623   -2.6685   -0.2401 H   0  0  0  0  0  0  0  0  0  0  0  0
   -1.7863   -2.0195    0.9119 C   0  0  0  0  0  0  0  0  0  0  0  0
   -0.9073   -2.6615    1.4699 O   0  0  0  0  0  0  0  0  0  0  0  0
   -1.5803   -0.8195    0.3749 N   0  0  0  0  0  0  0  0  0  0  0  0
   -2.3603   -0.3345   -0.0451 H   0  0  0  0  0  0  0  0  0  0  0  0
   -0.2933   -0.1205    0.3719 C   0  0  1  0  0  0  0  0  0  0  0  0
   -0.2275    0.4860   -0.5325 H   0  0  0  0  0  0  0  0  0  0  0  0
   -0.2295    0.8195    1.5931 C   0  0  0  0  0  0  0  0  0  0  0  0
   -0.4363    0.2286    2.4870 H   0  0  0  0  0  0  0  0  0  0  0  0
    0.7787    1.2268    1.6814 H   0  0  0  0  0  0  0  0  0  0  0  0
   -1.2258    1.9902    1.5314 C   0  0  0  0  0  0  0  0  0  0  0  0
   -1.0224    2.6050    0.6546 H   0  0  0  0  0  0  0  0  0  0  0  0
   -2.2386    1.5949    1.4626 H   0  0  0  0  0  0  0  0  0  0  0  0
   -1.1482    2.8811    2.7670 C   0  0  0  0  0  0  0  0  0  0  0  0
   -0.4817    2.6430    3.7615 O   0  0  0  0  0  0  0  0  0  0  0  0
   -1.8949    4.0001    2.7228 O   0  0  0  0  0  0  0  0  0  0  0  0
   -1.7472    4.4342    3.5649 H   0  0  0  0  0  0  0  0  0  0  0  0
    0.8633   -1.1325    0.3519 C   0  0  0  0  0  0  0  0  0  0  0  0
    1.8330   -0.9733    1.0909 O   0  0  0  0  0  0  0  0  0  0  0  0
    0.7654   -2.1611   -0.4990 N   0  0  0  0  0  0  0  0  0  0  0  0
   -0.0711   -2.2380   -1.0580 H   0  0  0  0  0  0  0  0  0  0  0  0
    1.7881   -3.1938   -0.6525 C   0  0  0  0  0  0  0  0  0  0  0  0
    1.9745   -3.6749    0.3093 H   0  0  0  0  0  0  0  0  0  0  0  0
    1.4621   -3.9460   -1.3723 H   0  0  0  0  0  0  0  0  0  0  0  0
    2.7191   -2.7418   -1.0001 H   0  0  0  0  0  0  0  0  0  0  0  0
  5  6  2  0  0  0  0
  5  7  1  0  0  0  0
  2  3  1  0  0  0  0
  2  4  1  0  0  0  0
  2  5  1  0  0  0  0
  1  2  1  0  0  0  0
 21 22  2  0  0  0  0
 21 23  1  0  0  0  0
 19 20  1  0  0  0  0
 17 18  2  0  0  0  0
 17 19  1  0  0  0  0
 14 15  1  0  0  0  0
 14 16  1  0  0  0  0
 14 17  1  0  0  0  0
 11 12  1  0  0  0  0
 11 13  1  0  0  0  0
 11 14  1  0  0  0  0
  9 10  1  0  0  0  0
  9 11  1  0  0  0  0
  9 21  1  0  0  0  0
  7  8  1  0  0  0  0
  7  9  1  0  0  0  0
 25 26  1  0  0  0  0
 25 27  1  0  0  0  0
 25 28  1  0  0  0  0
 23 24  1  0  0  0  0
 23 25  1  0  0  0  0
M  END
$$$$
default_name
  -OEChem-01062215323D

 28 27  0     1  0  0  0  0  0999 V2000
   -3.2133   -3.5565    1.2809 H   0  0  0  0  0  0  0  0  0  0  0  0
   -3.1873   -2.5755    0.8089 C   0  0  0  0  0  0  0  0  0  0  0  0
   -3.8793   -1.9065    1.3169 H   0  0  0  0  0  0  0  0  0  0  0  0
   -3.4623   -2.6685   -0.2401 H   0  0  0  0  0  0  0  0  0  0  0  0
   -1.7863   -2.0195    0.9119 C   0  0  0  0  0  0  0  0  0  0  0  0
   -0.9073   -2.6615    1.4699 O   0  0  0  0  0  0  0  0  0  0  0  0
   -1.5803   -0.8195    0.3749 N   0  0  0  0  0  0  0  0  0  0  0  0
   -2.3603   -0.3345   -0.0451 H   0  0  0  0  0  0  0  0  0  0  0  0
   -0.2933   -0.1205    0.3719 C   0  0  1  0  0  0  0  0  0  0  0  0
   -0.2275    0.4860   -0.5325 H   0  0  0  0  0  0  0  0  0  0  0  0
   -0.2295    0.8195    1.5931 C   0  0  0  0  0  0  0  0  0  0  0  0
   -0.4363    0.2286    2.4870 H   0  0  0  0  0  0  0  0  0  0  0  0
    0.7787    1.2268    1.6814 H   0  0  0  0  0  0  0  0  0  0  0  0
   -1.2258    1.9902    1.5314 C   0  0  0  0  0  0  0  0  0  0  0  0
   -1.0224    2.6050    0.6546 H   0  0  0  0  0  0  0  0  0  0  0  0
   -2.2386    1.5949    1.4626 H   0  0  0  0  0  0  0  0  0  0  0  0
   -1.1482    2.8811    2.7670 C   0  0  0  0  0  0  0  0  0  0  0  0
   -0.4817    2.6430    3.7615 O   0  0  0  0  0  0  0  0  0  0  0  0
   -1.8949    4.0001    2.7228 O   0  0  0  0  0  0  0  0  0  0  0  0
   -1.7472    4.4342    3.5649 H   0  0  0  0  0  0  0  0  0  0  0  0
    0.8633   -1.1325    0.3519 C   0  0  0  0  0  0  0  0  0  0  0  0
    1.6904   -1.1397    1.2617 O   0  0  0  0  0  0  0  0  0  0  0  0
    0.9261   -1.9738   -0.6873 N   0  0  0  0  0  0  0  0  0  0  0  0
    0.1984   -1.9236   -1.3846 H   0  0  0  0  0  0  0  0  0  0  0  0
    1.9738   -2.9774   -0.8631 C   0  0  0  0  0  0  0  0  0  0  0  0
    1.9998   -3.6401    0.0038 H   0  0  0  0  0  0  0  0  0  0  0  0
    1.7857   -3.5684   -1.7606 H   0  0  0  0  0  0  0  0  0  0  0  0
    2.9443   -2.4854   -0.9523 H   0  0  0  0  0  0  0  0  0  0  0  0
  5  6  2  0  0  0  0
  5  7  1  0  0  0  0
  2  3  1  0  0  0  0
  2  4  1  0  0  0  0
  2  5  1  0  0  0  0
  1  2  1  0  0  0  0
 21 22  2  0  0  0  0
 21 23  1  0  0  0  0
 19 20  1  0  0  0  0
 17 18  2  0  0  0  0
 17 19  1  0  0  0  0
 14 15  1  0  0  0  0
 14 16  1  0  0  0  0
 14 17  1  0  0  0  0
 11 12  1  0  0  0  0
 11 13  1  0  0  0  0
 11 14  1  0  0  0  0
  9 10  1  0  0  0  0
  9 11  1  0  0  0  0
  9 21  1  0  0  0  0
  7  8  1  0  0  0  0
  7  9  1  0  0  0  0
 25 26  1  0  0  0  0
 25 27  1  0  0  0  0
 25 28  1  0  0  0  0
 23 24  1  0  0  0  0
 23 25  1  0  0  0  0
M  END
$$$$
default_name
  -OEChem-01062215323D

 28 27  0     1  0  0  0  0  0999 V2000
   -3.2133   -3.5565    1.2809 H   0  0  0  0  0  0  0  0  0  0  0  0
   -3.1873   -2.5755    0.8089 C   0  0  0  0  0  0  0  0  0  0  0  0
   -3.8793   -1.9065    1.3169 H   0  0  0  0  0  0  0  0  0  0  0  0
   -3.4623   -2.6685   -0.2401 H   0  0  0  0  0  0  0  0  0  0  0  0
   -1.7863   -2.0195    0.9119 C   0  0  0  0  0  0  0  0  0  0  0  0
   -0.9073   -2.6615    1.4699 O   0  0  0  0  0  0  0  0  0  0  0  0
   -1.5803   -0.8195    0.3749 N   0  0  0  0  0  0  0  0  0  0  0  0
   -2.3603   -0.3345   -0.0451 H   0  0  0  0  0  0  0  0  0  0  0  0
   -0.2933   -0.1205    0.3719 C   0  0  1  0  0  0  0  0  0  0  0  0
   -0.2275    0.4860   -0.5325 H   0  0  0  0  0  0  0  0  0  0  0  0
   -0.2295    0.8195    1.5931 C   0  0  0  0  0  0  0  0  0  0  0  0
   -0.4363    0.2286    2.4870 H   0  0  0  0  0  0  0  0  0  0  0  0
    0.7787    1.2268    1.6814 H   0  0  0  0  0  0  0  0  0  0  0  0
   -1.2258    1.9902    1.5314 C   0  0  0  0  0  0  0  0  0  0  0  0
   -1.0224    2.6050    0.6546 H   0  0  0  0  0  0  0  0  0  0  0  0
   -2.2386    1.5949    1.4626 H   0  0  0  0  0  0  0  0  0  0  0  0
   -1.1482    2.8811    2.7670 C   0  0  0  0  0  0  0  0  0  0  0  0
   -0.4817    2.6430    3.7615 O   0  0  0  0  0  0  0  0  0  0  0  0
   -1.8949    4.0001    2.7228 O   0  0  0  0  0  0  0  0  0  0  0  0
   -1.7472    4.4342    3.5649 H   0  0  0  0  0  0  0  0  0  0  0  0
    0.8633   -1.1325    0.3519 C   0  0  0  0  0  0  0  0  0  0  0  0
    1.5229   -1.3332    1.3700 O   0  0  0  0  0  0  0  0  0  0  0  0
    1.1140   -1.7567   -0.8053 N   0  0  0  0  0  0  0  0  0  0  0  0
    0.5155   -1.5572   -1.5928 H   0  0  0  0  0  0  0  0  0  0  0  0
    2.1898   -2.7280   -0.9927 C   0  0  0  0  0  0  0  0  0  0  0  0
    2.0763   -3.5470   -0.2801 H   0  0  0  0  0  0  0  0  0  0  0  0
    2.1657   -3.1293   -2.0069 H   0  0  0  0  0  0  0  0  0  0  0  0
    3.1545   -2.2478   -0.8178 H   0  0  0  0  0  0  0  0  0  0  0  0
  5  6  2  0  0  0  0
  5  7  1  0  0  0  0
  2  3  1  0  0  0  0
  2  4  1  0  0  0  0
  2  5  1  0  0  0  0
  1  2  1  0  0  0  0
 21 22  2  0  0  0  0
 21 23  1  0  0  0  0
 19 20  1  0  0  0  0
 17 18  2  0  0  0  0
 17 19  1  0  0  0  0
 14 15  1  0  0  0  0
 14 16  1  0  0  0  0
 14 17  1  0  0  0  0
 11 12  1  0  0  0  0
 11 13  1  0  0  0  0
 11 14  1  0  0  0  0
  9 10  1  0  0  0  0
  9 11  1  0  0  0  0
  9 21  1  0  0  0  0
  7  8  1  0  0  0  0
  7  9  1  0  0  0  0
 25 26  1  0  0  0  0
 25 27  1  0  0  0  0
 25 28  1  0  0  0  0
 23 24  1  0  0  0  0
 23 25  1  0  0  0  0
M  END
$$$$
default_name
  -OEChem-01062215323D

 28 27  0     1  0  0  0  0  0999 V2000
   -3.2133   -3.5565    1.2809 H   0  0  0  0  0  0  0  0  0  0  0  0
   -3.1873   -2.5755    0.8089 C   0  0  0  0  0  0  0  0  0  0  0  0
   -3.8793   -1.9065    1.3169 H   0  0  0  0  0  0  0  0  0  0  0  0
   -3.4623   -2.6685   -0.2401 H   0  0  0  0  0  0  0  0  0  0  0  0
   -1.7863   -2.0195    0.9119 C   0  0  0  0  0  0  0  0  0  0  0  0
   -0.9073   -2.6615    1.4699 O   0  0  0  0  0  0  0  0  0  0  0  0
   -1.5803   -0.8195    0.3749 N   0  0  0  0  0  0  0  0  0  0  0  0
   -2.3603   -0.3345   -0.0451 H   0  0  0  0  0  0  0  0  0  0  0  0
   -0.2933   -0.1205    0.3719 C   0  0  1  0  0  0  0  0  0  0  0  0
   -0.2275    0.4860   -0.5325 H   0  0  0  0  0  0  0  0  0  0  0  0
   -0.2295    0.8195    1.5931 C   0  0  0  0  0  0  0  0  0  0  0  0
   -0.4363    0.2286    2.4870 H   0  0  0  0  0  0  0  0  0  0  0  0
    0.7787    1.2268    1.6814 H   0  0  0  0  0  0  0  0  0  0  0  0
   -1.2258    1.9902    1.5314 C   0  0  0  0  0  0  0  0  0  0  0  0
   -1.0224    2.6050    0.6546 H   0  0  0  0  0  0  0  0  0  0  0  0
   -2.2386    1.5949    1.4626 H   0  0  0  0  0  0  0  0  0  0  0  0
   -1.1482    2.8811    2.7670 C   0  0  0  0  0  0  0  0  0  0  0  0
   -0.4817    2.6430    3.7615 O   0  0  0  0  0  0  0  0  0  0  0  0
   -1.8949    4.0001    2.7228 O   0  0  0  0  0  0  0  0  0  0  0  0
   -1.7472    4.4342    3.5649 H   0  0  0  0  0  0  0  0  0  0  0  0
    0.8633   -1.1325    0.3519 C   0  0  0  0  0  0  0  0  0  0  0  0
    1.3420   -1.5407    1.4083 O   0  0  0  0  0  0  0  0  0  0  0  0
    1.3163   -1.5247   -0.8450 N   0  0  0  0  0  0  0  0  0  0  0  0
    0.8584   -1.1637   -1.6685 H   0  0  0  0  0  0  0  0  0  0  0  0
    2.4213   -2.4626   -1.0325 C   0  0  0  0  0  0  0  0  0  0  0  0
    2.1989   -3.4020   -0.5233 H   0  0  0  0  0  0  0  0  0  0  0  0
    2.5762   -2.6584   -2.0945 H   0  0  0  0  0  0  0  0  0  0  0  0
    3.3355   -2.0452   -0.6058 H   0  0  0  0  0  0  0  0  0  0  0  0
  5  6  2  0  0  0  0
  5  7  1  0  0  0  0
  2  3  1  0  0  0  0
  2  4  1  0  0  0  0
  2  5  1  0  0  0  0
  1  2  1  0  0  0  0
 21 22  2  0  0  0  0
 21 23  1  0  0  0  0
 19 20  1  0  0  0  0
 17 18  2  0  0  0  0
 17 19  1  0  0  0  0
 14 15  1  0  0  0  0
 14 16  1  0  0  0  0
 14 17  1  0  0  0  0
 11 12  1  0  0  0  0
 11 13  1  0  0  0  0
 11 14  1  0  0  0  0
  9 10  1  0  0  0  0
  9 11  1  0  0  0  0
  9 21  1  0  0  0  0
  7  8  1  0  0  0  0
  7  9  1  0  0  0  0
 25 26  1  0  0  0  0
 25 27  1  0  0  0  0
 25 28  1  0  0  0  0
 23 24  1  0  0  0  0
 23 25  1  0  0  0  0
M  END
$$$$
default_name
  -OEChem-01062215323D

 28 27  0     1  0  0  0  0  0999 V2000
   -3.2133   -3.5565    1.2809 H   0  0  0  0  0  0  0  0  0  0  0  0
   -3.1873   -2.5755    0.8089 C   0  0  0  0  0  0  0  0  0  0  0  0
   -3.8793   -1.9065    1.3169 H   0  0  0  0  0  0  0  0  0  0  0  0
   -3.4623   -2.6685   -0.2401 H   0  0  0  0  0  0  0  0  0  0  0  0
   -1.7863   -2.0195    0.9119 C   0  0  0  0  0  0  0  0  0  0  0  0
   -0.9073   -2.6615    1.4699 O   0  0  0  0  0  0  0  0  0  0  0  0
   -1.5803   -0.8195    0.3749 N   0  0  0  0  0  0  0  0  0  0  0  0
   -2.3603   -0.3345   -0.0451 H   0  0  0  0  0  0  0  0  0  0  0  0
   -0.2933   -0.1205    0.3719 C   0  0  1  0  0  0  0  0  0  0  0  0
   -0.2275    0.4860   -0.5325 H   0  0  0  0  0  0  0  0  0  0  0  0
   -0.2295    0.8195    1.5931 C   0  0  0  0  0  0  0  0  0  0  0  0
   -0.4363    0.2286    2.4870 H   0  0  0  0  0  0  0  0  0  0  0  0
    0.7787    1.2268    1.6814 H   0  0  0  0  0  0  0  0  0  0  0  0
   -1.2258    1.9902    1.5314 C   0  0  0  0  0  0  0  0  0  0  0  0
   -1.0224    2.6050    0.6546 H   0  0  0  0  0  0  0  0  0  0  0  0
   -2.2386    1.5949    1.4626 H   0  0  0  0  0  0  0  0  0  0  0  0
   -1.1482    2.8811    2.7670 C   0  0  0  0  0  0  0  0  0  0  0  0
   -0.4817    2.6430    3.7615 O   0  0  0  0  0  0  0  0  0  0  0  0
   -1.8949    4.0001    2.7228 O   0  0  0  0  0  0  0  0  0  0  0  0
   -1.7472    4.4342    3.5649 H   0  0  0  0  0  0  0  0  0  0  0  0
    0.8633   -1.1325    0.3519 C   0  0  0  0  0  0  0  0  0  0  0  0
    1.1601   -1.7480    1.3741 O   0  0  0  0  0  0  0  0  0  0  0  0
    1.5193   -1.2935   -0.8037 N   0  0  0  0  0  0  0  0  0  0  0  0
    1.2039   -0.7701   -1.6066 H   0  0  0  0  0  0  0  0  0  0  0  0
    2.6527   -2.1992   -0.9798 C   0  0  0  0  0  0  0  0  0  0  0  0
    2.3593   -3.2151   -0.7090 H   0  0  0  0  0  0  0  0  0  0  0  0
    2.9892   -2.1879   -2.0175 H   0  0  0  0  0  0  0  0  0  0  0  0
    3.4748   -1.8914   -0.3307 H   0  0  0  0  0  0  0  0  0  0  0  0
  5  6  2  0  0  0  0
  5  7  1  0  0  0  0
  2  3  1  0  0  0  0
  2  4  1  0  0  0  0
  2  5  1  0  0  0  0
  1  2  1  0  0  0  0
 21 22  2  0  0  0  0
 21 23  1  0  0  0  0
 19 20  1  0  0  0  0
 17 18  2  0  0  0  0
 17 19  1  0  0  0  0
 14 15  1  0  0  0  0
 14 16  1  0  0  0  0
 14 17  1  0  0  0  0
 11 12  1  0  0  0  0
 11 13  1  0  0  0  0
 11 14  1  0  0  0  0
  9 10  1  0  0  0  0
  9 11  1  0  0  0  0
  9 21  1  0  0  0  0
  7  8  1  0  0  0  0
  7  9  1  0  0  0  0
 25 26  1  0  0  0  0
 25 27  1  0  0  0  0
 25 28  1  0  0  0  0
 23 24  1  0  0  0  0
 23 25  1  0  0  0  0
M  END
$$$$
default_name
  -OEChem-01062215323D

 28 27  0     1  0  0  0  0  0999 V2000
   -3.2133   -3.5565    1.2809 H   0  0  0  0  0  0  0  0  0  0  0  0
   -3.1873   -2.5755    0.8089 C   0  0  0  0  0  0  0  0  0  0  0  0
   -3.8793   -1.9065    1.3169 H   0  0  0  0  0  0  0  0  0  0  0  0
   -3.4623   -2.6685   -0.2401 H   0  0  0  0  0  0  0  0  0  0  0  0
   -1.7863   -2.0195    0.9119 C   0  0  0  0  0  0  0  0  0  0  0  0
   -0.9073   -2.6615    1.4699 O   0  0  0  0  0  0  0  0  0  0  0  0
   -1.5803   -0.8195    0.3749 N   0  0  0  0  0  0  0  0  0  0  0  0
   -2.3603   -0.3345   -0.0451 H   0  0  0  0  0  0  0  0  0  0  0  0
   -0.2933   -0.1205    0.3719 C   0  0  1  0  0  0  0  0  0  0  0  0
   -0.2275    0.4860   -0.5325 H   0  0  0  0  0  0  0  0  0  0  0  0
   -0.2295    0.8195    1.5931 C   0  0  0  0  0  0  0  0  0  0  0  0
   -0.4363    0.2286    2.4870 H   0  0  0  0  0  0  0  0  0  0  0  0
    0.7787    1.2268    1.6814 H   0  0  0  0  0  0  0  0  0  0  0  0
   -1.2258    1.9902    1.5314 C   0  0  0  0  0  0  0  0  0  0  0  0
   -1.0224    2.6050    0.6546 H   0  0  0  0  0  0  0  0  0  0  0  0
   -2.2386    1.5949    1.4626 H   0  0  0  0  0  0  0  0  0  0  0  0
   -1.1482    2.8811    2.7670 C   0  0  0  0  0  0  0  0  0  0  0  0
   -0.4817    2.6430    3.7615 O   0  0  0  0  0  0  0  0  0  0  0  0
   -1.8949    4.0001    2.7228 O   0  0  0  0  0  0  0  0  0  0  0  0
   -1.7472    4.4342    3.5649 H   0  0  0  0  0  0  0  0  0  0  0  0
    0.8633   -1.1325    0.3519 C   0  0  0  0  0  0  0  0  0  0  0  0
    0.9895   -1.9409    1.2697 O   0  0  0  0  0  0  0  0  0  0  0  0
    1.7091   -1.0789   -0.6841 N   0  0  0  0  0  0  0  0  0  0  0  0
    1.5284   -0.4031   -1.4113 H   0  0  0  0  0  0  0  0  0  0  0  0
    2.8681   -1.9559   -0.8382 C   0  0  0  0  0  0  0  0  0  0  0  0
    2.5465   -2.9989   -0.8246 H   0  0  0  0  0  0  0  0  0  0  0  0
    3.3766   -1.7498   -1.7810 H   0  0  0  0  0  0  0  0  0  0  0  0
    3.5630   -1.7969   -0.0113 H   0  0  0  0  0  0  0  0  0  0  0  0
  5  6  2  0  0  0  0
  5  7  1  0  0  0  0
  2  3  1  0  0  0  0
  2  4  1  0  0  0  0
  2  5  1  0  0  0  0
  1  2  1  0  0  0  0
 21 22  2  0  0  0  0
 21 23  1  0  0  0  0
 19 20  1  0  0  0  0
 17 18  2  0  0  0  0
 17 19  1  0  0  0  0
 14 15  1  0  0  0  0
 14 16  1  0  0  0  0
 14 17  1  0  0  0  0
 11 12  1  0  0  0  0
 11 13  1  0  0  0  0
 11 14  1  0  0  0  0
  9 10  1  0  0  0  0
  9 11  1  0  0  0  0
  9 21  1  0  0  0  0
  7  8  1  0  0  0  0
  7  9  1  0  0  0  0
 25 26  1  0  0  0  0
 25 27  1  0  0  0  0
 25 28  1  0  0  0  0
 23 24  1  0  0  0  0
 23 25  1  0  0  0  0
M  END
$$$$
default_name
  -OEChem-01062215323D

 28 27  0     1  0  0  0  0  0999 V2000
   -3.2133   -3.5565    1.2809 H   0  0  0  0  0  0  0  0  0  0  0  0
   -3.1873   -2.5755    0.8089 C   0  0  0  0  0  0  0  0  0  0  0  0
   -3.8793   -1.9065    1.3169 H   0  0  0  0  0  0  0  0  0  0  0  0
   -3.4623   -2.6685   -0.2401 H   0  0  0  0  0  0  0  0  0  0  0  0
   -1.7863   -2.0195    0.9119 C   0  0  0  0  0  0  0  0  0  0  0  0
   -0.9073   -2.6615    1.4699 O   0  0  0  0  0  0  0  0  0  0  0  0
   -1.5803   -0.8195    0.3749 N   0  0  0  0  0  0  0  0  0  0  0  0
   -2.3603   -0.3345   -0.0451 H   0  0  0  0  0  0  0  0  0  0  0  0
   -0.2933   -0.1205    0.3719 C   0  0  1  0  0  0  0  0  0  0  0  0
   -0.2275    0.4860   -0.5325 H   0  0  0  0  0  0  0  0  0  0  0  0
   -0.2295    0.8195    1.5931 C   0  0  0  0  0  0  0  0  0  0  0  0
   -0.4363    0.2286    2.4870 H   0  0  0  0  0  0  0  0  0  0  0  0
    0.7787    1.2268    1.6814 H   0  0  0  0  0  0  0  0  0  0  0  0
   -1.2258    1.9902    1.5314 C   0  0  0  0  0  0  0  0  0  0  0  0
   -1.0224    2.6050    0.6546 H   0  0  0  0  0  0  0  0  0  0  0  0
   -2.2386    1.5949    1.4626 H   0  0  0  0  0  0  0  0  0  0  0  0
   -1.1482    2.8811    2.7670 C   0  0  0  0  0  0  0  0  0  0  0  0
   -0.4817    2.6430    3.7615 O   0  0  0  0  0  0  0  0  0  0  0  0
   -1.8949    4.0001    2.7228 O   0  0  0  0  0  0  0  0  0  0  0  0
   -1.7472    4.4342    3.5649 H   0  0  0  0  0  0  0  0  0  0  0  0
    0.8633   -1.1325    0.3519 C   0  0  0  0  0  0  0  0  0  0  0  0
    0.8418   -2.1063    1.1022 O   0  0  0  0  0  0  0  0  0  0  0  0
    1.8728   -0.8956   -0.4946 N   0  0  0  0  0  0  0  0  0  0  0  0
    1.8098   -0.0877   -1.0958 H   0  0  0  0  0  0  0  0  0  0  0  0
    3.0528   -1.7491   -0.6173 C   0  0  0  0  0  0  0  0  0  0  0  0
    2.7477   -2.7681   -0.8623 H   0  0  0  0  0  0  0  0  0  0  0  0
    3.7120   -1.3739   -1.4013 H   0  0  0  0  0  0  0  0  0  0  0  0
    3.5942   -1.7681    0.3306 H   0  0  0  0  0  0  0  0  0  0  0  0
  5  6  2  0  0  0  0
  5  7  1  0  0  0  0
  2  3  1  0  0  0  0
  2  4  1  0  0  0  0
  2  5  1  0  0  0  0
  1  2  1  0  0  0  0
 21 22  2  0  0  0  0
 21 23  1  0  0  0  0
 19 20  1  0  0  0  0
 17 18  2  0  0  0  0
 17 19  1  0  0  0  0
 14 15  1  0  0  0  0
 14 16  1  0  0  0  0
 14 17  1  0  0  0  0
 11 12  1  0  0  0  0
 11 13  1  0  0  0  0
 11 14  1  0  0  0  0
  9 10  1  0  0  0  0
  9 11  1  0  0  0  0
  9 21  1  0  0  0  0
  7  8  1  0  0  0  0
  7  9  1  0  0  0  0
 25 26  1  0  0  0  0
 25 27  1  0  0  0  0
 25 28  1  0  0  0  0
 23 24  1  0  0  0  0
 23 25  1  0  0  0  0
M  END
$$$$
default_name
  -OEChem-01062215323D

 28 27  0     1  0  0  0  0  0999 V2000
   -3.2133   -3.5565    1.2809 H   0  0  0  0  0  0  0  0  0  0  0  0
   -3.1873   -2.5755    0.8089 C   0  0  0  0  0  0  0  0  0  0  0  0
   -3.8793   -1.9065    1.3169 H   0  0  0  0  0  0  0  0  0  0  0  0
   -3.4623   -2.6685   -0.2401 H   0  0  0  0  0  0  0  0  0  0  0  0
   -1.7863   -2.0195    0.9119 C   0  0  0  0  0  0  0  0  0  0  0  0
   -0.9073   -2.6615    1.4699 O   0  0  0  0  0  0  0  0  0  0  0  0
   -1.5803   -0.8195    0.3749 N   0  0  0  0  0  0  0  0  0  0  0  0
   -2.3603   -0.3345   -0.0451 H   0  0  0  0  0  0  0  0  0  0  0  0
   -0.2933   -0.1205    0.3719 C   0  0  1  0  0  0  0  0  0  0  0  0
   -0.2275    0.4860   -0.5325 H   0  0  0  0  0  0  0  0  0  0  0  0
   -0.2295    0.8195    1.5931 C   0  0  0  0  0  0  0  0  0  0  0  0
   -0.4363    0.2286    2.4870 H   0  0  0  0  0  0  0  0  0  0  0  0
    0.7787    1.2268    1.6814 H   0  0  0  0  0  0  0  0  0  0  0  0
   -1.2258    1.9902    1.5314 C   0  0  0  0  0  0  0  0  0  0  0  0
   -1.0224    2.6050    0.6546 H   0  0  0  0  0  0  0  0  0  0  0  0
   -2.2386    1.5949    1.4626 H   0  0  0  0  0  0  0  0  0  0  0  0
   -1.1482    2.8811    2.7670 C   0  0  0  0  0  0  0  0  0  0  0  0
   -0.4817    2.6430    3.7615 O   0  0  0  0  0  0  0  0  0  0  0  0
   -1.8949    4.0001    2.7228 O   0  0  0  0  0  0  0  0  0  0  0  0
   -1.7472    4.4342    3.5649 H   0  0  0  0  0  0  0  0  0  0  0  0
    0.8633   -1.1325    0.3519 C   0  0  0  0  0  0  0  0  0  0  0  0
    0.7272   -2.2330    0.8831 O   0  0  0  0  0  0  0  0  0  0  0  0
    1.9992   -0.7560   -0.2478 N   0  0  0  0  0  0  0  0  0  0  0  0
    2.0289    0.1545   -0.6817 H   0  0  0  0  0  0  0  0  0  0  0  0
    3.1942   -1.5931   -0.3321 C   0  0  0  0  0  0  0  0  0  0  0  0
    2.9493   -2.5386   -0.8195 H   0  0  0  0  0  0  0  0  0  0  0  0
    3.9726   -1.0860   -0.9041 H   0  0  0  0  0  0  0  0  0  0  0  0
    3.5660   -1.8070    0.6719 H   0  0  0  0  0  0  0  0  0  0  0  0
  5  6  2  0  0  0  0
  5  7  1  0  0  0  0
  2  3  1  0  0  0  0
  2  4  1  0  0  0  0
  2  5  1  0  0  0  0
  1  2  1  0  0  0  0
 21 22  2  0  0  0  0
 21 23  1  0  0  0  0
 19 20  1  0  0  0  0
 17 18  2  0  0  0  0
 17 19  1  0  0  0  0
 14 15  1  0  0  0  0
 14 16  1  0  0  0  0
 14 17  1  0  0  0  0
 11 12  1  0  0  0  0
 11 13  1  0  0  0  0
 11 14  1  0  0  0  0
  9 10  1  0  0  0  0
  9 11  1  0  0  0  0
  9 21  1  0  0  0  0
  7  8  1  0  0  0  0
  7  9  1  0  0  0  0
 25 26  1  0  0  0  0
 25 27  1  0  0  0  0
 25 28  1  0  0  0  0
 23 24  1  0  0  0  0
 23 25  1  0  0  0  0
M  END
$$$$
default_name
  -OEChem-01062215323D

 28 27  0     1  0  0  0  0  0999 V2000
   -3.2133   -3.5565    1.2809 H   0  0  0  0  0  0  0  0  0  0  0  0
   -3.1873   -2.5755    0.8089 C   0  0  0  0  0  0  0  0  0  0  0  0
   -3.8793   -1.9065    1.3169 H   0  0  0  0  0  0  0  0  0  0  0  0
   -3.4623   -2.6685   -0.2401 H   0  0  0  0  0  0  0  0  0  0  0  0
   -1.7863   -2.0195    0.9119 C   0  0  0  0  0  0  0  0  0  0  0  0
   -0.9073   -2.6615    1.4699 O   0  0  0  0  0  0  0  0  0  0  0  0
   -1.5803   -0.8195    0.3749 N   0  0  0  0  0  0  0  0  0  0  0  0
   -2.3603   -0.3345   -0.0451 H   0  0  0  0  0  0  0  0  0  0  0  0
   -0.2933   -0.1205    0.3719 C   0  0  1  0  0  0  0  0  0  0  0  0
   -0.2275    0.4860   -0.5325 H   0  0  0  0  0  0  0  0  0  0  0  0
   -0.2295    0.8195    1.5931 C   0  0  0  0  0  0  0  0  0  0  0  0
   -0.4363    0.2286    2.4870 H   0  0  0  0  0  0  0  0  0  0  0  0
    0.7787    1.2268    1.6814 H   0  0  0  0  0  0  0  0  0  0  0  0
   -1.2258    1.9902    1.5314 C   0  0  0  0  0  0  0  0  0  0  0  0
   -1.0224    2.6050    0.6546 H   0  0  0  0  0  0  0  0  0  0  0  0
   -2.2386    1.5949    1.4626 H   0  0  0  0  0  0  0  0  0  0  0  0
   -1.1482    2.8811    2.7670 C   0  0  0  0  0  0  0  0  0  0  0  0
   -0.4817    2.6430    3.7615 O   0  0  0  0  0  0  0  0  0  0  0  0
   -1.8949    4.0001    2.7228 O   0  0  0  0  0  0  0  0  0  0  0  0
   -1.7472    4.4342    3.5649 H   0  0  0  0  0  0  0  0  0  0  0  0
    0.8633   -1.1325    0.3519 C   0  0  0  0  0  0  0  0  0  0  0  0
    0.6534   -2.3123    0.6271 O   0  0  0  0  0  0  0  0  0  0  0  0
    2.0797   -0.6696    0.0392 N   0  0  0  0  0  0  0  0  0  0  0  0
    2.1708    0.3071   -0.1973 H   0  0  0  0  0  0  0  0  0  0  0  0
    3.2828   -1.4984   -0.0022 C   0  0  0  0  0  0  0  0  0  0  0  0
    3.1375   -2.3259   -0.6991 H   0  0  0  0  0  0  0  0  0  0  0  0
    4.1405   -0.9056   -0.3235 H   0  0  0  0  0  0  0  0  0  0  0  0
    3.4806   -1.9109    0.9891 H   0  0  0  0  0  0  0  0  0  0  0  0
  5  6  2  0  0  0  0
  5  7  1  0  0  0  0
  2  3  1  0  0  0  0
  2  4  1  0  0  0  0
  2  5  1  0  0  0  0
  1  2  1  0  0  0  0
 21 22  2  0  0  0  0
 21 23  1  0  0  0  0
 19 20  1  0  0  0  0
 17 18  2  0  0  0  0
 17 19  1  0  0  0  0
 14 15  1  0  0  0  0
 14 16  1  0  0  0  0
 14 17  1  0  0  0  0
 11 12  1  0  0  0  0
 11 13  1  0  0  0  0
 11 14  1  0  0  0  0
  9 10  1  0  0  0  0
  9 11  1  0  0  0  0
  9 21  1  0  0  0  0
  7  8  1  0  0  0  0
  7  9  1  0  0  0  0
 25 26  1  0  0  0  0
 25 27  1  0  0  0  0
 25 28  1  0  0  0  0
 23 24  1  0  0  0  0
 23 25  1  0  0  0  0
M  END
$$$$
default_name
  -OEChem-01062215323D

 28 27  0     1  0  0  0  0  0999 V2000
   -3.2133   -3.5565    1.2809 H   0  0  0  0  0  0  0  0  0  0  0  0
   -3.1873   -2.5755    0.8089 C   0  0  0  0  0  0  0  0  0  0  0  0
   -3.8793   -1.9065    1.3169 H   0  0  0  0  0  0  0  0  0  0  0  0
   -3.4623   -2.6685   -0.2401 H   0  0  0  0  0  0  0  0  0  0  0  0
   -1.7863   -2.0195    0.9119 C   0  0  0  0  0  0  0  0  0  0  0  0
   -0.9073   -2.6615    1.4699 O   0  0  0  0  0  0  0  0  0  0  0  0
   -1.5803   -0.8195    0.3749 N   0  0  0  0  0  0  0  0  0  0  0  0
   -2.3603   -0.3345   -0.0451 H   0  0  0  0  0  0  0  0  0  0  0  0
   -0.2933   -0.1205    0.3719 C   0  0  1  0  0  0  0  0  0  0  0  0
   -0.3307    0.6767   -0.3719 H   0  0  0  0  0  0  0  0  0  0  0  0
   -0.0653    0.5178    1.7574 C   0  0  0  0  0  0  0  0  0  0  0  0
   -0.1689   -0.2637    2.5120 H   0  0  0  0  0  0  0  0  0  0  0  0
    0.9521    0.9082    1.8107 H   0  0  0  0  0  0  0  0  0  0  0  0
   -1.0441    1.6581    2.0872 C   0  0  0  0  0  0  0  0  0  0  0  0
   -0.9414    2.4590    1.3549 H   0  0  0  0  0  0  0  0  0  0  0  0
   -2.0634    1.2749    2.0559 H   0  0  0  0  0  0  0  0  0  0  0  0
   -0.8014    2.2456    3.4737 C   0  0  0  0  0  0  0  0  0  0  0  0
   -0.0208    1.7966    4.2977 O   0  0  0  0  0  0  0  0  0  0  0  0
   -1.5312    3.3349    3.7777 O   0  0  0  0  0  0  0  0  0  0  0  0
   -1.2742    3.5680    4.6715 H   0  0  0  0  0  0  0  0  0  0  0  0
    0.8369   -1.0854   -0.0205 C   0  0  0  0  0  0  0  0  0  0  0  0
    0.5829   -2.2632   -0.2654 O   0  0  0  0  0  0  0  0  0  0  0  0
    2.0794   -0.5900   -0.0677 N   0  0  0  0  0  0  0  0  0  0  0  0
    2.2075    0.3924    0.1241 H   0  0  0  0  0  0  0  0  0  0  0  0
    3.2618   -1.3813   -0.4021 C   0  0  0  0  0  0  0  0  0  0  0  0
    3.1328   -1.8414   -1.3835 H   0  0  0  0  0  0  0  0  0  0  0  0
    4.1499   -0.7480   -0.4170 H   0  0  0  0  0  0  0  0  0  0  0  0
    3.3962   -2.1735    0.3370 H   0  0  0  0  0  0  0  0  0  0  0  0
  5  6  2  0  0  0  0
  5  7  1  0  0  0  0
  2  3  1  0  0  0  0
  2  4  1  0  0  0  0
  2  5  1  0  0  0  0
  1  2  1  0  0  0  0
 21 22  2  0  0  0  0
 21 23  1  0  0  0  0
 19 20  1  0  0  0  0
 17 18  2  0  0  0  0
 17 19  1  0  0  0  0
 14 15  1  0  0  0  0
 14 16  1  0  0  0  0
 14 17  1  0  0  0  0
 11 12  1  0  0  0  0
 11 13  1  0  0  0  0
 11 14  1  0  0  0  0
  9 10  1  0  0  0  0
  9 11  1  0  0  0  0
  9 21  1  0  0  0  0
  7  8  1  0  0  0  0
  7  9  1  0  0  0  0
 25 26  1  0  0  0  0
 25 27  1  0  0  0  0
 25 28  1  0  0  0  0
 23 24  1  0  0  0  0
 23 25  1  0  0  0  0
M  END
$$$$
default_name
  -OEChem-01062215323D

 28 27  0     1  0  0  0  0  0999 V2000
   -3.2133   -3.5565    1.2809 H   0  0  0  0  0  0  0  0  0  0  0  0
   -3.1873   -2.5755    0.8089 C   0  0  0  0  0  0  0  0  0  0  0  0
   -3.8793   -1.9065    1.3169 H   0  0  0  0  0  0  0  0  0  0  0  0
   -3.4623   -2.6685   -0.2401 H   0  0  0  0  0  0  0  0  0  0  0  0
   -1.7863   -2.0195    0.9119 C   0  0  0  0  0  0  0  0  0  0  0  0
   -0.9073   -2.6615    1.4699 O   0  0  0  0  0  0  0  0  0  0  0  0
   -1.5803   -0.8195    0.3749 N   0  0  0  0  0  0  0  0  0  0  0  0
   -2.3603   -0.3345   -0.0451 H   0  0  0  0  0  0  0  0  0  0  0  0
   -0.2933   -0.1205    0.3719 C   0  0  1  0  0  0  0  0  0  0  0  0
   -0.3307    0.6767   -0.3719 H   0  0  0  0  0  0  0  0  0  0  0  0
   -0.0653    0.5178    1.7574 C   0  0  0  0  0  0  0  0  0  0  0  0
   -0.1689   -0.2637    2.5120 H   0  0  0  0  0  0  0  0  0  0  0  0
    0.9521    0.9082    1.8107 H   0  0  0  0  0  0  0  0  0  0  0  0
   -1.0441    1.6581    2.0872 C   0  0  0  0  0  0  0  0  0  0  0  0
   -0.9414    2.4590    1.3549 H   0  0  0  0  0  0  0  0  0  0  0  0
   -2.0634    1.2749    2.0559 H   0  0  0  0  0  0  0  0  0  0  0  0
   -0.8014    2.2456    3.4737 C   0  0  0  0  0  0  0  0  0  0  0  0
   -0.0208    1.7966    4.2977 O   0  0  0  0  0  0  0  0  0  0  0  0
   -1.5312    3.3349    3.7777 O   0  0  0  0  0  0  0  0  0  0  0  0
   -1.2742    3.5680    4.6715 H   0  0  0  0  0  0  0  0  0  0  0  0
    0.8369   -1.0854   -0.0205 C   0  0  0  0  0  0  0  0  0  0  0  0
    0.5690   -2.1729   -0.5278 O   0  0  0  0  0  0  0  0  0  0  0  0
    2.0929   -0.6931    0.2248 N   0  0  0  0  0  0  0  0  0  0  0  0
    2.2360    0.2230    0.6227 H   0  0  0  0  0  0  0  0  0  0  0  0
    3.2734   -1.5030   -0.0694 C   0  0  0  0  0  0  0  0  0  0  0  0
    3.2890   -1.7616   -1.1297 H   0  0  0  0  0  0  0  0  0  0  0  0
    4.1820   -0.9526    0.1788 H   0  0  0  0  0  0  0  0  0  0  0  0
    3.2410   -2.4265    0.5120 H   0  0  0  0  0  0  0  0  0  0  0  0
  5  6  2  0  0  0  0
  5  7  1  0  0  0  0
  2  3  1  0  0  0  0
  2  4  1  0  0  0  0
  2  5  1  0  0  0  0
  1  2  1  0  0  0  0
 21 22  2  0  0  0  0
 21 23  1  0  0  0  0
 19 20  1  0  0  0  0
 17 18  2  0  0  0  0
 17 19  1  0  0  0  0
 14 15  1  0  0  0  0
 14 16  1  0  0  0  0
 14 17  1  0  0  0  0
 11 12  1  0  0  0  0
 11 13  1  0  0  0  0
 11 14  1  0  0  0  0
  9 10  1  0  0  0  0
  9 11  1  0  0  0  0
  9 21  1  0  0  0  0
  7  8  1  0  0  0  0
  7  9  1  0  0  0  0
 25 26  1  0  0  0  0
 25 27  1  0  0  0  0
 25 28  1  0  0  0  0
 23 24  1  0  0  0  0
 23 25  1  0  0  0  0
M  END
$$$$
default_name
  -OEChem-01062215323D

 28 27  0     1  0  0  0  0  0999 V2000
   -3.2133   -3.5565    1.2809 H   0  0  0  0  0  0  0  0  0  0  0  0
   -3.1873   -2.5755    0.8089 C   0  0  0  0  0  0  0  0  0  0  0  0
   -3.8793   -1.9065    1.3169 H   0  0  0  0  0  0  0  0  0  0  0  0
   -3.4623   -2.6685   -0.2401 H   0  0  0  0  0  0  0  0  0  0  0  0
   -1.7863   -2.0195    0.9119 C   0  0  0  0  0  0  0  0  0  0  0  0
   -0.9073   -2.6615    1.4699 O   0  0  0  0  0  0  0  0  0  0  0  0
   -1.5803   -0.8195    0.3749 N   0  0  0  0  0  0  0  0  0  0  0  0
   -2.3603   -0.3345   -0.0451 H   0  0  0  0  0  0  0  0  0  0  0  0
   -0.2933   -0.1205    0.3719 C   0  0  1  0  0  0  0  0  0  0  0  0
   -0.3307    0.6767   -0.3719 H   0  0  0  0  0  0  0  0  0  0  0  0
   -0.0653    0.5178    1.7574 C   0  0  0  0  0  0  0  0  0  0  0  0
   -0.1689   -0.2637    2.5120 H   0  0  0  0  0  0  0  0  0  0  0  0
    0.9521    0.9082    1.8107 H   0  0  0  0  0  0  0  0  0  0  0  0
   -1.0441    1.6581    2.0872 C   0  0  0  0  0  0  0  0  0  0  0  0
   -0.9414    2.4590    1.3549 H   0  0  0  0  0  0  0  0  0  0  0  0
   -2.0634    1.2749    2.0559 H   0  0  0  0  0  0  0  0  0  0  0  0
   -0.8014    2.2456    3.4737 C   0  0  0  0  0  0  0  0  0  0  0  0
   -0.0208    1.7966    4.2977 O   0  0  0  0  0  0  0  0  0  0  0  0
   -1.5312    3.3349    3.7777 O   0  0  0  0  0  0  0  0  0  0  0  0
   -1.2742    3.5680    4.6715 H   0  0  0  0  0  0  0  0  0  0  0  0
    0.8369   -1.0854   -0.0205 C   0  0  0  0  0  0  0  0  0  0  0  0
    0.6041   -2.0347   -0.7664 O   0  0  0  0  0  0  0  0  0  0  0  0
    2.0516   -0.8493    0.4898 N   0  0  0  0  0  0  0  0  0  0  0  0
    2.1714   -0.0373    1.0768 H   0  0  0  0  0  0  0  0  0  0  0  0
    3.2225   -1.6847    0.2307 C   0  0  0  0  0  0  0  0  0  0  0  0
    3.4039   -1.7432   -0.8440 H   0  0  0  0  0  0  0  0  0  0  0  0
    4.1027   -1.2659    0.7206 H   0  0  0  0  0  0  0  0  0  0  0  0
    3.0459   -2.6939    0.6078 H   0  0  0  0  0  0  0  0  0  0  0  0
  5  6  2  0  0  0  0
  5  7  1  0  0  0  0
  2  3  1  0  0  0  0
  2  4  1  0  0  0  0
  2  5  1  0  0  0  0
  1  2  1  0  0  0  0
 21 22  2  0  0  0  0
 21 23  1  0  0  0  0
 19 20  1  0  0  0  0
 17 18  2  0  0  0  0
 17 19  1  0  0  0  0
 14 15  1  0  0  0  0
 14 16  1  0  0  0  0
 14 17  1  0  0  0  0
 11 12  1  0  0  0  0
 11 13  1  0  0  0  0
 11 14  1  0  0  0  0
  9 10  1  0  0  0  0
  9 11  1  0  0  0  0
  9 21  1  0  0  0  0
  7  8  1  0  0  0  0
  7  9  1  0  0  0  0
 25 26  1  0  0  0  0
 25 27  1  0  0  0  0
 25 28  1  0  0  0  0
 23 24  1  0  0  0  0
 23 25  1  0  0  0  0
M  END
$$$$
default_name
  -OEChem-01062215323D

 28 27  0     1  0  0  0  0  0999 V2000
   -3.2133   -3.5565    1.2809 H   0  0  0  0  0  0  0  0  0  0  0  0
   -3.1873   -2.5755    0.8089 C   0  0  0  0  0  0  0  0  0  0  0  0
   -3.8793   -1.9065    1.3169 H   0  0  0  0  0  0  0  0  0  0  0  0
   -3.4623   -2.6685   -0.2401 H   0  0  0  0  0  0  0  0  0  0  0  0
   -1.7863   -2.0195    0.9119 C   0  0  0  0  0  0  0  0  0  0  0  0
   -0.9073   -2.6615    1.4699 O   0  0  0  0  0  0  0  0  0  0  0  0
   -1.5803   -0.8195    0.3749 N   0  0  0  0  0  0  0  0  0  0  0  0
   -2.3603   -0.3345   -0.0451 H   0  0  0  0  0  0  0  0  0  0  0  0
   -0.2933   -0.1205    0.3719 C   0  0  1  0  0  0  0  0  0  0  0  0
   -0.3307    0.6767   -0.3719 H   0  0  0  0  0  0  0  0  0  0  0  0
   -0.0653    0.5178    1.7574 C   0  0  0  0  0  0  0  0  0  0  0  0
   -0.1689   -0.2637    2.5120 H   0  0  0  0  0  0  0  0  0  0  0  0
    0.9521    0.9082    1.8107 H   0  0  0  0  0  0  0  0  0  0  0  0
   -1.0441    1.6581    2.0872 C   0  0  0  0  0  0  0  0  0  0  0  0
   -0.9414    2.4590    1.3549 H   0  0  0  0  0  0  0  0  0  0  0  0
   -2.0634    1.2749    2.0559 H   0  0  0  0  0  0  0  0  0  0  0  0
   -0.8014    2.2456    3.4737 C   0  0  0  0  0  0  0  0  0  0  0  0
   -0.0208    1.7966    4.2977 O   0  0  0  0  0  0  0  0  0  0  0  0
   -1.5312    3.3349    3.7777 O   0  0  0  0  0  0  0  0  0  0  0  0
   -1.2742    3.5680    4.6715 H   0  0  0  0  0  0  0  0  0  0  0  0
    0.8369   -1.0854   -0.0205 C   0  0  0  0  0  0  0  0  0  0  0  0
    0.6859   -1.8582   -0.9648 O   0  0  0  0  0  0  0  0  0  0  0  0
    1.9583   -1.0479    0.7094 N   0  0  0  0  0  0  0  0  0  0  0  0
    2.0179   -0.3710    1.4553 H   0  0  0  0  0  0  0  0  0  0  0  0
    3.1125   -1.9139    0.4778 C   0  0  0  0  0  0  0  0  0  0  0  0
    3.4697   -1.7874   -0.5459 H   0  0  0  0  0  0  0  0  0  0  0  0
    3.9173   -1.6663    1.1714 H   0  0  0  0  0  0  0  0  0  0  0  0
    2.8242   -2.9576    0.6176 H   0  0  0  0  0  0  0  0  0  0  0  0
  5  6  2  0  0  0  0
  5  7  1  0  0  0  0
  2  3  1  0  0  0  0
  2  4  1  0  0  0  0
  2  5  1  0  0  0  0
  1  2  1  0  0  0  0
 21 22  2  0  0  0  0
 21 23  1  0  0  0  0
 19 20  1  0  0  0  0
 17 18  2  0  0  0  0
 17 19  1  0  0  0  0
 14 15  1  0  0  0  0
 14 16  1  0  0  0  0
 14 17  1  0  0  0  0
 11 12  1  0  0  0  0
 11 13  1  0  0  0  0
 11 14  1  0  0  0  0
  9 10  1  0  0  0  0
  9 11  1  0  0  0  0
  9 21  1  0  0  0  0
  7  8  1  0  0  0  0
  7  9  1  0  0  0  0
 25 26  1  0  0  0  0
 25 27  1  0  0  0  0
 25 28  1  0  0  0  0
 23 24  1  0  0  0  0
 23 25  1  0  0  0  0
M  END
$$$$
default_name
  -OEChem-01062215323D

 28 27  0     1  0  0  0  0  0999 V2000
   -3.2133   -3.5565    1.2809 H   0  0  0  0  0  0  0  0  0  0  0  0
   -3.1873   -2.5755    0.8089 C   0  0  0  0  0  0  0  0  0  0  0  0
   -3.8793   -1.9065    1.3169 H   0  0  0  0  0  0  0  0  0  0  0  0
   -3.4623   -2.6685   -0.2401 H   0  0  0  0  0  0  0  0  0  0  0  0
   -1.7863   -2.0195    0.9119 C   0  0  0  0  0  0  0  0  0  0  0  0
   -0.9073   -2.6615    1.4699 O   0  0  0  0  0  0  0  0  0  0  0  0
   -1.5803   -0.8195    0.3749 N   0  0  0  0  0  0  0  0  0  0  0  0
   -2.3603   -0.3345   -0.0451 H   0  0  0  0  0  0  0  0  0  0  0  0
   -0.2933   -0.1205    0.3719 C   0  0  1  0  0  0  0  0  0  0  0  0
   -0.3307    0.6767   -0.3719 H   0  0  0  0  0  0  0  0  0  0  0  0
   -0.0653    0.5178    1.7574 C   0  0  0  0  0  0  0  0  0  0  0  0
   -0.1689   -0.2637    2.5120 H   0  0  0  0  0  0  0  0  0  0  0  0
    0.9521    0.9082    1.8107 H   0  0  0  0  0  0  0  0  0  0  0  0
   -1.0441    1.6581    2.0872 C   0  0  0  0  0  0  0  0  0  0  0  0
   -0.9414    2.4590    1.3549 H   0  0  0  0  0  0  0  0  0  0  0  0
   -2.0634    1.2749    2.0559 H   0  0  0  0  0  0  0  0  0  0  0  0
   -0.8014    2.2456    3.4737 C   0  0  0  0  0  0  0  0  0  0  0  0
   -0.0208    1.7966    4.2977 O   0  0  0  0  0  0  0  0  0  0  0  0
   -1.5312    3.3349    3.7777 O   0  0  0  0  0  0  0  0  0  0  0  0
   -1.2742    3.5680    4.6715 H   0  0  0  0  0  0  0  0  0  0  0  0
    0.8369   -1.0854   -0.0205 C   0  0  0  0  0  0  0  0  0  0  0  0
    0.8089   -1.6553   -1.1096 O   0  0  0  0  0  0  0  0  0  0  0  0
    1.8193   -1.2753    0.8685 N   0  0  0  0  0  0  0  0  0  0  0  0
    1.7862   -0.7551    1.7325 H   0  0  0  0  0  0  0  0  0  0  0  0
    2.9511   -2.1750    0.6549 C   0  0  0  0  0  0  0  0  0  0  0  0
    3.4819   -1.8912   -0.2556 H   0  0  0  0  0  0  0  0  0  0  0  0
    3.6386   -2.1266    1.5006 H   0  0  0  0  0  0  0  0  0  0  0  0
    2.5911   -3.1995    0.5410 H   0  0  0  0  0  0  0  0  0  0  0  0
  5  6  2  0  0  0  0
  5  7  1  0  0  0  0
  2  3  1  0  0  0  0
  2  4  1  0  0  0  0
  2  5  1  0  0  0  0
  1  2  1  0  0  0  0
 21 22  2  0  0  0  0
 21 23  1  0  0  0  0
 19 20  1  0  0  0  0
 17 18  2  0  0  0  0
 17 19  1  0  0  0  0
 14 15  1  0  0  0  0
 14 16  1  0  0  0  0
 14 17  1  0  0  0  0
 11 12  1  0  0  0  0
 11 13  1  0  0  0  0
 11 14  1  0  0  0  0
  9 10  1  0  0  0  0
  9 11  1  0  0  0  0
  9 21  1  0  0  0  0
  7  8  1  0  0  0  0
  7  9  1  0  0  0  0
 25 26  1  0  0  0  0
 25 27  1  0  0  0  0
 25 28  1  0  0  0  0
 23 24  1  0  0  0  0
 23 25  1  0  0  0  0
M  END
$$$$
default_name
  -OEChem-01062215323D

 28 27  0     1  0  0  0  0  0999 V2000
   -3.2133   -3.5565    1.2809 H   0  0  0  0  0  0  0  0  0  0  0  0
   -3.1873   -2.5755    0.8089 C   0  0  0  0  0  0  0  0  0  0  0  0
   -3.8793   -1.9065    1.3169 H   0  0  0  0  0  0  0  0  0  0  0  0
   -3.4623   -2.6685   -0.2401 H   0  0  0  0  0  0  0  0  0  0  0  0
   -1.7863   -2.0195    0.9119 C   0  0  0  0  0  0  0  0  0  0  0  0
   -0.9073   -2.6615    1.4699 O   0  0  0  0  0  0  0  0  0  0  0  0
   -1.5803   -0.8195    0.3749 N   0  0  0  0  0  0  0  0  0  0  0  0
   -2.3603   -0.3345   -0.0451 H   0  0  0  0  0  0  0  0  0  0  0  0
   -0.2933   -0.1205    0.3719 C   0  0  1  0  0  0  0  0  0  0  0  0
   -0.3307    0.6767   -0.3719 H   0  0  0  0  0  0  0  0  0  0  0  0
   -0.0653    0.5178    1.7574 C   0  0  0  0  0  0  0  0  0  0  0  0
   -0.1689   -0.2637    2.5120 H   0  0  0  0  0  0  0  0  0  0  0  0
    0.9521    0.9082    1.8107 H   0  0  0  0  0  0  0  0  0  0  0  0
   -1.0441    1.6581    2.0872 C   0  0  0  0  0  0  0  0  0  0  0  0
   -0.9414    2.4590    1.3549 H   0  0  0  0  0  0  0  0  0  0  0  0
   -2.0634    1.2749    2.0559 H   0  0  0  0  0  0  0  0  0  0  0  0
   -0.8014    2.2456    3.4737 C   0  0  0  0  0  0  0  0  0  0  0  0
   -0.0208    1.7966    4.2977 O   0  0  0  0  0  0  0  0  0  0  0  0
   -1.5312    3.3349    3.7777 O   0  0  0  0  0  0  0  0  0  0  0  0
   -1.2742    3.5680    4.6715 H   0  0  0  0  0  0  0  0  0  0  0  0
    0.8369   -1.0854   -0.0205 C   0  0  0  0  0  0  0  0  0  0  0  0
    0.9645   -1.4399   -1.1908 O   0  0  0  0  0  0  0  0  0  0  0  0
    1.6443   -1.5161    0.9564 N   0  0  0  0  0  0  0  0  0  0  0  0
    1.4919   -1.1637    1.8895 H   0  0  0  0  0  0  0  0  0  0  0  0
    2.7491   -2.4503    0.7501 C   0  0  0  0  0  0  0  0  0  0  0  0
    3.4396   -2.0475    0.0070 H   0  0  0  0  0  0  0  0  0  0  0  0
    3.2854   -2.6155    1.6856 H   0  0  0  0  0  0  0  0  0  0  0  0
    2.3624   -3.4031    0.3830 H   0  0  0  0  0  0  0  0  0  0  0  0
  5  6  2  0  0  0  0
  5  7  1  0  0  0  0
  2  3  1  0  0  0  0
  2  4  1  0  0  0  0
  2  5  1  0  0  0  0
  1  2  1  0  0  0  0
 21 22  2  0  0  0  0
 21 23  1  0  0  0  0
 19 20  1  0  0  0  0
 17 18  2  0  0  0  0
 17 19  1  0  0  0  0
 14 15  1  0  0  0  0
 14 16  1  0  0  0  0
 14 17  1  0  0  0  0
 11 12  1  0  0  0  0
 11 13  1  0  0  0  0
 11 14  1  0  0  0  0
  9 10  1  0  0  0  0
  9 11  1  0  0  0  0
  9 21  1  0  0  0  0
  7  8  1  0  0  0  0
  7  9  1  0  0  0  0
 25 26  1  0  0  0  0
 25 27  1  0  0  0  0
 25 28  1  0  0  0  0
 23 24  1  0  0  0  0
 23 25  1  0  0  0  0
M  END
$$$$
default_name
  -OEChem-01062215323D

 28 27  0     1  0  0  0  0  0999 V2000
   -3.2133   -3.5565    1.2809 H   0  0  0  0  0  0  0  0  0  0  0  0
   -3.1873   -2.5755    0.8089 C   0  0  0  0  0  0  0  0  0  0  0  0
   -3.8793   -1.9065    1.3169 H   0  0  0  0  0  0  0  0  0  0  0  0
   -3.4623   -2.6685   -0.2401 H   0  0  0  0  0  0  0  0  0  0  0  0
   -1.7863   -2.0195    0.9119 C   0  0  0  0  0  0  0  0  0  0  0  0
   -0.9073   -2.6615    1.4699 O   0  0  0  0  0  0  0  0  0  0  0  0
   -1.5803   -0.8195    0.3749 N   0  0  0  0  0  0  0  0  0  0  0  0
   -2.3603   -0.3345   -0.0451 H   0  0  0  0  0  0  0  0  0  0  0  0
   -0.2933   -0.1205    0.3719 C   0  0  1  0  0  0  0  0  0  0  0  0
   -0.3307    0.6767   -0.3719 H   0  0  0  0  0  0  0  0  0  0  0  0
   -0.0653    0.5178    1.7574 C   0  0  0  0  0  0  0  0  0  0  0  0
   -0.1689   -0.2637    2.5120 H   0  0  0  0  0  0  0  0  0  0  0  0
    0.9521    0.9082    1.8107 H   0  0  0  0  0  0  0  0  0  0  0  0
   -1.0441    1.6581    2.0872 C   0  0  0  0  0  0  0  0  0  0  0  0
   -0.9414    2.4590    1.3549 H   0  0  0  0  0  0  0  0  0  0  0  0
   -2.0634    1.2749    2.0559 H   0  0  0  0  0  0  0  0  0  0  0  0
   -0.8014    2.2456    3.4737 C   0  0  0  0  0  0  0  0  0  0  0  0
   -0.0208    1.7966    4.2977 O   0  0  0  0  0  0  0  0  0  0  0  0
   -1.5312    3.3349    3.7777 O   0  0  0  0  0  0  0  0  0  0  0  0
   -1.2742    3.5680    4.6715 H   0  0  0  0  0  0  0  0  0  0  0  0
    0.8369   -1.0854   -0.0205 C   0  0  0  0  0  0  0  0  0  0  0  0
    1.1423   -1.2267   -1.2030 O   0  0  0  0  0  0  0  0  0  0  0  0
    1.4450   -1.7538    0.9670 N   0  0  0  0  0  0  0  0  0  0  0  0
    1.1551   -1.5687    1.9156 H   0  0  0  0  0  0  0  0  0  0  0  0
    2.5203   -2.7210    0.7568 C   0  0  0  0  0  0  0  0  0  0  0  0
    3.3458   -2.2456    0.2240 H   0  0  0  0  0  0  0  0  0  0  0  0
    2.8819   -3.0996    1.7139 H   0  0  0  0  0  0  0  0  0  0  0  0
    2.1537   -3.5547    0.1546 H   0  0  0  0  0  0  0  0  0  0  0  0
  5  6  2  0  0  0  0
  5  7  1  0  0  0  0
  2  3  1  0  0  0  0
  2  4  1  0  0  0  0
  2  5  1  0  0  0  0
  1  2  1  0  0  0  0
 21 22  2  0  0  0  0
 21 23  1  0  0  0  0
 19 20  1  0  0  0  0
 17 18  2  0  0  0  0
 17 19  1  0  0  0  0
 14 15  1  0  0  0  0
 14 16  1  0  0  0  0
 14 17  1  0  0  0  0
 11 12  1  0  0  0  0
 11 13  1  0  0  0  0
 11 14  1  0  0  0  0
  9 10  1  0  0  0  0
  9 11  1  0  0  0  0
  9 21  1  0  0  0  0
  7  8  1  0  0  0  0
  7  9  1  0  0  0  0
 25 26  1  0  0  0  0
 25 27  1  0  0  0  0
 25 28  1  0  0  0  0
 23 24  1  0  0  0  0
 23 25  1  0  0  0  0
M  END
$$$$
default_name
  -OEChem-01062215323D

 28 27  0     1  0  0  0  0  0999 V2000
   -3.2133   -3.5565    1.2809 H   0  0  0  0  0  0  0  0  0  0  0  0
   -3.1873   -2.5755    0.8089 C   0  0  0  0  0  0  0  0  0  0  0  0
   -3.8793   -1.9065    1.3169 H   0  0  0  0  0  0  0  0  0  0  0  0
   -3.4623   -2.6685   -0.2401 H   0  0  0  0  0  0  0  0  0  0  0  0
   -1.7863   -2.0195    0.9119 C   0  0  0  0  0  0  0  0  0  0  0  0
   -0.9073   -2.6615    1.4699 O   0  0  0  0  0  0  0  0  0  0  0  0
   -1.5803   -0.8195    0.3749 N   0  0  0  0  0  0  0  0  0  0  0  0
   -2.3603   -0.3345   -0.0451 H   0  0  0  0  0  0  0  0  0  0  0  0
   -0.2933   -0.1205    0.3719 C   0  0  1  0  0  0  0  0  0  0  0  0
   -0.3307    0.6767   -0.3719 H   0  0  0  0  0  0  0  0  0  0  0  0
   -0.0653    0.5178    1.7574 C   0  0  0  0  0  0  0  0  0  0  0  0
   -0.1689   -0.2637    2.5120 H   0  0  0  0  0  0  0  0  0  0  0  0
    0.9521    0.9082    1.8107 H   0  0  0  0  0  0  0  0  0  0  0  0
   -1.0441    1.6581    2.0872 C   0  0  0  0  0  0  0  0  0  0  0  0
   -0.9414    2.4590    1.3549 H   0  0  0  0  0  0  0  0  0  0  0  0
   -2.0634    1.2749    2.0559 H   0  0  0  0  0  0  0  0  0  0  0  0
   -0.8014    2.2456    3.4737 C   0  0  0  0  0  0  0  0  0  0  0  0
   -0.0208    1.7966    4.2977 O   0  0  0  0  0  0  0  0  0  0  0  0
   -1.5312    3.3349    3.7777 O   0  0  0  0  0  0  0  0  0  0  0  0
   -1.2742    3.5680    4.6715 H   0  0  0  0  0  0  0  0  0  0  0  0
    0.8369   -1.0854   -0.0205 C   0  0  0  0  0  0  0  0  0  0  0  0
    1.3302   -1.0302   -1.1454 O   0  0  0  0  0  0  0  0  0  0  0  0
    1.2350   -1.9723    0.8996 N   0  0  0  0  0  0  0  0  0  0  0  0
    0.7989   -1.9426    1.8090 H   0  0  0  0  0  0  0  0  0  0  0  0
    2.2803   -2.9687    0.6746 C   0  0  0  0  0  0  0  0  0  0  0  0
    3.2069   -2.4721    0.3807 H   0  0  0  0  0  0  0  0  0  0  0  0
    2.4556   -3.5459    1.5835 H   0  0  0  0  0  0  0  0  0  0  0  0
    1.9792   -3.6438   -0.1289 H   0  0  0  0  0  0  0  0  0  0  0  0
  5  6  2  0  0  0  0
  5  7  1  0  0  0  0
  2  3  1  0  0  0  0
  2  4  1  0  0  0  0
  2  5  1  0  0  0  0
  1  2  1  0  0  0  0
 21 22  2  0  0  0  0
 21 23  1  0  0  0  0
 19 20  1  0  0  0  0
 17 18  2  0  0  0  0
 17 19  1  0  0  0  0
 14 15  1  0  0  0  0
 14 16  1  0  0  0  0
 14 17  1  0  0  0  0
 11 12  1  0  0  0  0
 11 13  1  0  0  0  0
 11 14  1  0  0  0  0
  9 10  1  0  0  0  0
  9 11  1  0  0  0  0
  9 21  1  0  0  0  0
  7  8  1  0  0  0  0
  7  9  1  0  0  0  0
 25 26  1  0  0  0  0
 25 27  1  0  0  0  0
 25 28  1  0  0  0  0
 23 24  1  0  0  0  0
 23 25  1  0  0  0  0
M  END
$$$$
default_name
  -OEChem-01062215323D

 28 27  0     1  0  0  0  0  0999 V2000
   -3.2133   -3.5565    1.2809 H   0  0  0  0  0  0  0  0  0  0  0  0
   -3.1873   -2.5755    0.8089 C   0  0  0  0  0  0  0  0  0  0  0  0
   -3.8793   -1.9065    1.3169 H   0  0  0  0  0  0  0  0  0  0  0  0
   -3.4623   -2.6685   -0.2401 H   0  0  0  0  0  0  0  0  0  0  0  0
   -1.7863   -2.0195    0.9119 C   0  0  0  0  0  0  0  0  0  0  0  0
   -0.9073   -2.6615    1.4699 O   0  0  0  0  0  0  0  0  0  0  0  0
   -1.5803   -0.8195    0.3749 N   0  0  0  0  0  0  0  0  0  0  0  0
   -2.3603   -0.3345   -0.0451 H   0  0  0  0  0  0  0  0  0  0  0  0
   -0.2933   -0.1205    0.3719 C   0  0  1  0  0  0  0  0  0  0  0  0
   -0.3307    0.6767   -0.3719 H   0  0  0  0  0  0  0  0  0  0  0  0
   -0.0653    0.5178    1.7574 C   0  0  0  0  0  0  0  0  0  0  0  0
   -0.1689   -0.2637    2.5120 H   0  0  0  0  0  0  0  0  0  0  0  0
    0.9521    0.9082    1.8107 H   0  0  0  0  0  0  0  0  0  0  0  0
   -1.0441    1.6581    2.0872 C   0  0  0  0  0  0  0  0  0  0  0  0
   -0.9414    2.4590    1.3549 H   0  0  0  0  0  0  0  0  0  0  0  0
   -2.0634    1.2749    2.0559 H   0  0  0  0  0  0  0  0  0  0  0  0
   -0.8014    2.2456    3.4737 C   0  0  0  0  0  0  0  0  0  0  0  0
   -0.0208    1.7966    4.2977 O   0  0  0  0  0  0  0  0  0  0  0  0
   -1.5312    3.3349    3.7777 O   0  0  0  0  0  0  0  0  0  0  0  0
   -1.2742    3.5680    4.6715 H   0  0  0  0  0  0  0  0  0  0  0  0
    0.8369   -1.0854   -0.0205 C   0  0  0  0  0  0  0  0  0  0  0  0
    1.5152   -0.8637   -1.0217 O   0  0  0  0  0  0  0  0  0  0  0  0
    1.0288   -2.1566    0.7588 N   0  0  0  0  0  0  0  0  0  0  0  0
    0.4473   -2.2600    1.5770 H   0  0  0  0  0  0  0  0  0  0  0  0
    2.0455   -3.1763    0.5090 C   0  0  0  0  0  0  0  0  0  0  0  0
    3.0322   -2.7115    0.4664 H   0  0  0  0  0  0  0  0  0  0  0  0
    2.0355   -3.9240    1.3034 H   0  0  0  0  0  0  0  0  0  0  0  0
    1.8508   -3.6643   -0.4480 H   0  0  0  0  0  0  0  0  0  0  0  0
  5  6  2  0  0  0  0
  5  7  1  0  0  0  0
  2  3  1  0  0  0  0
  2  4  1  0  0  0  0
  2  5  1  0  0  0  0
  1  2  1  0  0  0  0
 21 22  2  0  0  0  0
 21 23  1  0  0  0  0
 19 20  1  0  0  0  0
 17 18  2  0  0  0  0
 17 19  1  0  0  0  0
 14 15  1  0  0  0  0
 14 16  1  0  0  0  0
 14 17  1  0  0  0  0
 11 12  1  0  0  0  0
 11 13  1  0  0  0  0
 11 14  1  0  0  0  0
  9 10  1  0  0  0  0
  9 11  1  0  0  0  0
  9 21  1  0  0  0  0
  7  8  1  0  0  0  0
  7  9  1  0  0  0  0
 25 26  1  0  0  0  0
 25 27  1  0  0  0  0
 25 28  1  0  0  0  0
 23 24  1  0  0  0  0
 23 25  1  0  0  0  0
M  END
$$$$
default_name
  -OEChem-01062215323D

 28 27  0     1  0  0  0  0  0999 V2000
   -3.2133   -3.5565    1.2809 H   0  0  0  0  0  0  0  0  0  0  0  0
   -3.1873   -2.5755    0.8089 C   0  0  0  0  0  0  0  0  0  0  0  0
   -3.8793   -1.9065    1.3169 H   0  0  0  0  0  0  0  0  0  0  0  0
   -3.4623   -2.6685   -0.2401 H   0  0  0  0  0  0  0  0  0  0  0  0
   -1.7863   -2.0195    0.9119 C   0  0  0  0  0  0  0  0  0  0  0  0
   -0.9073   -2.6615    1.4699 O   0  0  0  0  0  0  0  0  0  0  0  0
   -1.5803   -0.8195    0.3749 N   0  0  0  0  0  0  0  0  0  0  0  0
   -2.3603   -0.3345   -0.0451 H   0  0  0  0  0  0  0  0  0  0  0  0
   -0.2933   -0.1205    0.3719 C   0  0  1  0  0  0  0  0  0  0  0  0
   -0.3307    0.6767   -0.3719 H   0  0  0  0  0  0  0  0  0  0  0  0
   -0.0653    0.5178    1.7574 C   0  0  0  0  0  0  0  0  0  0  0  0
   -0.1689   -0.2637    2.5120 H   0  0  0  0  0  0  0  0  0  0  0  0
    0.9521    0.9082    1.8107 H   0  0  0  0  0  0  0  0  0  0  0  0
   -1.0441    1.6581    2.0872 C   0  0  0  0  0  0  0  0  0  0  0  0
   -0.9414    2.4590    1.3549 H   0  0  0  0  0  0  0  0  0  0  0  0
   -2.0634    1.2749    2.0559 H   0  0  0  0  0  0  0  0  0  0  0  0
   -0.8014    2.2456    3.4737 C   0  0  0  0  0  0  0  0  0  0  0  0
   -0.0208    1.7966    4.2977 O   0  0  0  0  0  0  0  0  0  0  0  0
   -1.5312    3.3349    3.7777 O   0  0  0  0  0  0  0  0  0  0  0  0
   -1.2742    3.5680    4.6715 H   0  0  0  0  0  0  0  0  0  0  0  0
    0.8369   -1.0854   -0.0205 C   0  0  0  0  0  0  0  0  0  0  0  0
    1.6848   -0.7387   -0.8406 O   0  0  0  0  0  0  0  0  0  0  0  0
    0.8402   -2.2943    0.5542 N   0  0  0  0  0  0  0  0  0  0  0  0
    0.1245   -2.4992    1.2353 H   0  0  0  0  0  0  0  0  0  0  0  0
    1.8319   -3.3299    0.2715 C   0  0  0  0  0  0  0  0  0  0  0  0
    2.8337   -2.9475    0.4752 H   0  0  0  0  0  0  0  0  0  0  0  0
    1.6503   -4.2082    0.8926 H   0  0  0  0  0  0  0  0  0  0  0  0
    1.7773   -3.6150   -0.7810 H   0  0  0  0  0  0  0  0  0  0  0  0
  5  6  2  0  0  0  0
  5  7  1  0  0  0  0
  2  3  1  0  0  0  0
  2  4  1  0  0  0  0
  2  5  1  0  0  0  0
  1  2  1  0  0  0  0
 21 22  2  0  0  0  0
 21 23  1  0  0  0  0
 19 20  1  0  0  0  0
 17 18  2  0  0  0  0
 17 19  1  0  0  0  0
 14 15  1  0  0  0  0
 14 16  1  0  0  0  0
 14 17  1  0  0  0  0
 11 12  1  0  0  0  0
 11 13  1  0  0  0  0
 11 14  1  0  0  0  0
  9 10  1  0  0  0  0
  9 11  1  0  0  0  0
  9 21  1  0  0  0  0
  7  8  1  0  0  0  0
  7  9  1  0  0  0  0
 25 26  1  0  0  0  0
 25 27  1  0  0  0  0
 25 28  1  0  0  0  0
 23 24  1  0  0  0  0
 23 25  1  0  0  0  0
M  END
$$$$
default_name
  -OEChem-01062215323D

 28 27  0     1  0  0  0  0  0999 V2000
   -3.2133   -3.5565    1.2809 H   0  0  0  0  0  0  0  0  0  0  0  0
   -3.1873   -2.5755    0.8089 C   0  0  0  0  0  0  0  0  0  0  0  0
   -3.8793   -1.9065    1.3169 H   0  0  0  0  0  0  0  0  0  0  0  0
   -3.4623   -2.6685   -0.2401 H   0  0  0  0  0  0  0  0  0  0  0  0
   -1.7863   -2.0195    0.9119 C   0  0  0  0  0  0  0  0  0  0  0  0
   -0.9073   -2.6615    1.4699 O   0  0  0  0  0  0  0  0  0  0  0  0
   -1.5803   -0.8195    0.3749 N   0  0  0  0  0  0  0  0  0  0  0  0
   -2.3603   -0.3345   -0.0451 H   0  0  0  0  0  0  0  0  0  0  0  0
   -0.2933   -0.1205    0.3719 C   0  0  1  0  0  0  0  0  0  0  0  0
   -0.3307    0.6767   -0.3719 H   0  0  0  0  0  0  0  0  0  0  0  0
   -0.0653    0.5178    1.7574 C   0  0  0  0  0  0  0  0  0  0  0  0
   -0.1689   -0.2637    2.5120 H   0  0  0  0  0  0  0  0  0  0  0  0
    0.9521    0.9082    1.8107 H   0  0  0  0  0  0  0  0  0  0  0  0
   -1.0441    1.6581    2.0872 C   0  0  0  0  0  0  0  0  0  0  0  0
   -0.9414    2.4590    1.3549 H   0  0  0  0  0  0  0  0  0  0  0  0
   -2.0634    1.2749    2.0559 H   0  0  0  0  0  0  0  0  0  0  0  0
   -0.8014    2.2456    3.4737 C   0  0  0  0  0  0  0  0  0  0  0  0
   -0.0208    1.7966    4.2977 O   0  0  0  0  0  0  0  0  0  0  0  0
   -1.5312    3.3349    3.7777 O   0  0  0  0  0  0  0  0  0  0  0  0
   -1.2742    3.5680    4.6715 H   0  0  0  0  0  0  0  0  0  0  0  0
    0.8369   -1.0854   -0.0205 C   0  0  0  0  0  0  0  0  0  0  0  0
    1.8275   -0.6637   -0.6142 O   0  0  0  0  0  0  0  0  0  0  0  0
    0.6823   -2.3758    0.2997 N   0  0  0  0  0  0  0  0  0  0  0  0
   -0.1476   -2.6438    0.8073 H   0  0  0  0  0  0  0  0  0  0  0  0
    1.6540   -3.4190   -0.0219 C   0  0  0  0  0  0  0  0  0  0  0  0
    2.6250   -3.1641    0.4065 H   0  0  0  0  0  0  0  0  0  0  0  0
    1.3261   -4.3791    0.3791 H   0  0  0  0  0  0  0  0  0  0  0  0
    1.7637   -3.4991   -1.1052 H   0  0  0  0  0  0  0  0  0  0  0  0
  5  6  2  0  0  0  0
  5  7  1  0  0  0  0
  2  3  1  0  0  0  0
  2  4  1  0  0  0  0
  2  5  1  0  0  0  0
  1  2  1  0  0  0  0
 21 22  2  0  0  0  0
 21 23  1  0  0  0  0
 19 20  1  0  0  0  0
 17 18  2  0  0  0  0
 17 19  1  0  0  0  0
 14 15  1  0  0  0  0
 14 16  1  0  0  0  0
 14 17  1  0  0  0  0
 11 12  1  0  0  0  0
 11 13  1  0  0  0  0
 11 14  1  0  0  0  0
  9 10  1  0  0  0  0
  9 11  1  0  0  0  0
  9 21  1  0  0  0  0
  7  8  1  0  0  0  0
  7  9  1  0  0  0  0
 25 26  1  0  0  0  0
 25 27  1  0  0  0  0
 25 28  1  0  0  0  0
 23 24  1  0  0  0  0
 23 25  1  0  0  0  0
M  END
$$$$
default_name
  -OEChem-01062215323D

 28 27  0     1  0  0  0  0  0999 V2000
   -3.2133   -3.5565    1.2809 H   0  0  0  0  0  0  0  0  0  0  0  0
   -3.1873   -2.5755    0.8089 C   0  0  0  0  0  0  0  0  0  0  0  0
   -3.8793   -1.9065    1.3169 H   0  0  0  0  0  0  0  0  0  0  0  0
   -3.4623   -2.6685   -0.2401 H   0  0  0  0  0  0  0  0  0  0  0  0
   -1.7863   -2.0195    0.9119 C   0  0  0  0  0  0  0  0  0  0  0  0
   -0.9073   -2.6615    1.4699 O   0  0  0  0  0  0  0  0  0  0  0  0
   -1.5803   -0.8195    0.3749 N   0  0  0  0  0  0  0  0  0  0  0  0
   -2.3603   -0.3345   -0.0451 H   0  0  0  0  0  0  0  0  0  0  0  0
   -0.2933   -0.1205    0.3719 C   0  0  1  0  0  0  0  0  0  0  0  0
   -0.3307    0.6767   -0.3719 H   0  0  0  0  0  0  0  0  0  0  0  0
   -0.0653    0.5178    1.7574 C   0  0  0  0  0  0  0  0  0  0  0  0
   -0.1689   -0.2637    2.5120 H   0  0  0  0  0  0  0  0  0  0  0  0
    0.9521    0.9082    1.8107 H   0  0  0  0  0  0  0  0  0  0  0  0
   -1.0441    1.6581    2.0872 C   0  0  0  0  0  0  0  0  0  0  0  0
   -0.9414    2.4590    1.3549 H   0  0  0  0  0  0  0  0  0  0  0  0
   -2.0634    1.2749    2.0559 H   0  0  0  0  0  0  0  0  0  0  0  0
   -0.8014    2.2456    3.4737 C   0  0  0  0  0  0  0  0  0  0  0  0
   -0.0208    1.7966    4.2977 O   0  0  0  0  0  0  0  0  0  0  0  0
   -1.5312    3.3349    3.7777 O   0  0  0  0  0  0  0  0  0  0  0  0
   -1.2742    3.5680    4.6715 H   0  0  0  0  0  0  0  0  0  0  0  0
    0.8369   -1.0854   -0.0205 C   0  0  0  0  0  0  0  0  0  0  0  0
    1.9335   -0.6436   -0.3581 O   0  0  0  0  0  0  0  0  0  0  0  0
    0.5656   -2.3957    0.0128 N   0  0  0  0  0  0  0  0  0  0  0  0
   -0.3505   -2.6842    0.3222 H   0  0  0  0  0  0  0  0  0  0  0  0
    1.5240   -3.4374   -0.3512 C   0  0  0  0  0  0  0  0  0  0  0  0
    2.4203   -3.3464    0.2651 H   0  0  0  0  0  0  0  0  0  0  0  0
    1.0851   -4.4249   -0.2021 H   0  0  0  0  0  0  0  0  0  0  0  0
    1.8108   -3.3246   -1.3986 H   0  0  0  0  0  0  0  0  0  0  0  0
  5  6  2  0  0  0  0
  5  7  1  0  0  0  0
  2  3  1  0  0  0  0
  2  4  1  0  0  0  0
  2  5  1  0  0  0  0
  1  2  1  0  0  0  0
 21 22  2  0  0  0  0
 21 23  1  0  0  0  0
 19 20  1  0  0  0  0
 17 18  2  0  0  0  0
 17 19  1  0  0  0  0
 14 15  1  0  0  0  0
 14 16  1  0  0  0  0
 14 17  1  0  0  0  0
 11 12  1  0  0  0  0
 11 13  1  0  0  0  0
 11 14  1  0  0  0  0
  9 10  1  0  0  0  0
  9 11  1  0  0  0  0
  9 21  1  0  0  0  0
  7  8  1  0  0  0  0
  7  9  1  0  0  0  0
 25 26  1  0  0  0  0
 25 27  1  0  0  0  0
 25 28  1  0  0  0  0
 23 24  1  0  0  0  0
 23 25  1  0  0  0  0
M  END
$$$$
default_name
  -OEChem-01062215323D

 28 27  0     1  0  0  0  0  0999 V2000
   -3.2133   -3.5565    1.2809 H   0  0  0  0  0  0  0  0  0  0  0  0
   -3.1873   -2.5755    0.8089 C   0  0  0  0  0  0  0  0  0  0  0  0
   -3.8793   -1.9065    1.3169 H   0  0  0  0  0  0  0  0  0  0  0  0
   -3.4623   -2.6685   -0.2401 H   0  0  0  0  0  0  0  0  0  0  0  0
   -1.7863   -2.0195    0.9119 C   0  0  0  0  0  0  0  0  0  0  0  0
   -0.9073   -2.6615    1.4699 O   0  0  0  0  0  0  0  0  0  0  0  0
   -1.5803   -0.8195    0.3749 N   0  0  0  0  0  0  0  0  0  0  0  0
   -2.3603   -0.3345   -0.0451 H   0  0  0  0  0  0  0  0  0  0  0  0
   -0.2933   -0.1205    0.3719 C   0  0  1  0  0  0  0  0  0  0  0  0
   -0.3307    0.6767   -0.3719 H   0  0  0  0  0  0  0  0  0  0  0  0
   -0.0653    0.5178    1.7574 C   0  0  0  0  0  0  0  0  0  0  0  0
   -0.1689   -0.2637    2.5120 H   0  0  0  0  0  0  0  0  0  0  0  0
    0.9521    0.9082    1.8107 H   0  0  0  0  0  0  0  0  0  0  0  0
   -1.0441    1.6581    2.0872 C   0  0  0  0  0  0  0  0  0  0  0  0
   -0.9414    2.4590    1.3549 H   0  0  0  0  0  0  0  0  0  0  0  0
   -2.0634    1.2749    2.0559 H   0  0  0  0  0  0  0  0  0  0  0  0
   -0.8014    2.2456    3.4737 C   0  0  0  0  0  0  0  0  0  0  0  0
   -0.0208    1.7966    4.2977 O   0  0  0  0  0  0  0  0  0  0  0  0
   -1.5312    3.3349    3.7777 O   0  0  0  0  0  0  0  0  0  0  0  0
   -1.2742    3.5680    4.6715 H   0  0  0  0  0  0  0  0  0  0  0  0
    0.8369   -1.0854   -0.0205 C   0  0  0  0  0  0  0  0  0  0  0  0
    1.9956   -0.6801   -0.0897 O   0  0  0  0  0  0  0  0  0  0  0  0
    0.4983   -2.3526   -0.2871 N   0  0  0  0  0  0  0  0  0  0  0  0
   -0.4703   -2.6174   -0.1871 H   0  0  0  0  0  0  0  0  0  0  0  0
    1.4507   -3.3839   -0.6939 C   0  0  0  0  0  0  0  0  0  0  0  0
    2.2334   -3.4820    0.0605 H   0  0  0  0  0  0  0  0  0  0  0  0
    0.9438   -4.3427   -0.8114 H   0  0  0  0  0  0  0  0  0  0  0  0
    1.9156   -3.1033   -1.6410 H   0  0  0  0  0  0  0  0  0  0  0  0
  5  6  2  0  0  0  0
  5  7  1  0  0  0  0
  2  3  1  0  0  0  0
  2  4  1  0  0  0  0
  2  5  1  0  0  0  0
  1  2  1  0  0  0  0
 21 22  2  0  0  0  0
 21 23  1  0  0  0  0
 19 20  1  0  0  0  0
 17 18  2  0  0  0  0
 17 19  1  0  0  0  0
 14 15  1  0  0  0  0
 14 16  1  0  0  0  0
 14 17  1  0  0  0  0
 11 12  1  0  0  0  0
 11 13  1  0  0  0  0
 11 14  1  0  0  0  0
  9 10  1  0  0  0  0
  9 11  1  0  0  0  0
  9 21  1  0  0  0  0
  7  8  1  0  0  0  0
  7  9  1  0  0  0  0
 25 26  1  0  0  0  0
 25 27  1  0  0  0  0
 25 28  1  0  0  0  0
 23 24  1  0  0  0  0
 23 25  1  0  0  0  0
M  END
$$$$
default_name
  -OEChem-01062215323D

 28 27  0     1  0  0  0  0  0999 V2000
   -3.2133   -3.5565    1.2809 H   0  0  0  0  0  0  0  0  0  0  0  0
   -3.1873   -2.5755    0.8089 C   0  0  0  0  0  0  0  0  0  0  0  0
   -3.8793   -1.9065    1.3169 H   0  0  0  0  0  0  0  0  0  0  0  0
   -3.4623   -2.6685   -0.2401 H   0  0  0  0  0  0  0  0  0  0  0  0
   -1.7863   -2.0195    0.9119 C   0  0  0  0  0  0  0  0  0  0  0  0
   -0.9073   -2.6615    1.4699 O   0  0  0  0  0  0  0  0  0  0  0  0
   -1.5803   -0.8195    0.3749 N   0  0  0  0  0  0  0  0  0  0  0  0
   -2.3603   -0.3345   -0.0451 H   0  0  0  0  0  0  0  0  0  0  0  0
   -0.2933   -0.1205    0.3719 C   0  0  1  0  0  0  0  0  0  0  0  0
   -0.3307    0.6767   -0.3719 H   0  0  0  0  0  0  0  0  0  0  0  0
   -0.0653    0.5178    1.7574 C   0  0  0  0  0  0  0  0  0  0  0  0
   -0.1689   -0.2637    2.5120 H   0  0  0  0  0  0  0  0  0  0  0  0
    0.9521    0.9082    1.8107 H   0  0  0  0  0  0  0  0  0  0  0  0
   -1.0441    1.6581    2.0872 C   0  0  0  0  0  0  0  0  0  0  0  0
   -0.9414    2.4590    1.3549 H   0  0  0  0  0  0  0  0  0  0  0  0
   -2.0634    1.2749    2.0559 H   0  0  0  0  0  0  0  0  0  0  0  0
   -0.8014    2.2456    3.4737 C   0  0  0  0  0  0  0  0  0  0  0  0
   -0.0208    1.7966    4.2977 O   0  0  0  0  0  0  0  0  0  0  0  0
   -1.5312    3.3349    3.7777 O   0  0  0  0  0  0  0  0  0  0  0  0
   -1.2742    3.5680    4.6715 H   0  0  0  0  0  0  0  0  0  0  0  0
    0.8369   -1.0854   -0.0205 C   0  0  0  0  0  0  0  0  0  0  0  0
    2.0096   -0.7704    0.1727 O   0  0  0  0  0  0  0  0  0  0  0  0
    0.4848   -2.2495   -0.5796 N   0  0  0  0  0  0  0  0  0  0  0  0
   -0.4988   -2.4480   -0.6857 H   0  0  0  0  0  0  0  0  0  0  0  0
    1.4391   -3.2622   -1.0266 C   0  0  0  0  0  0  0  0  0  0  0  0
    2.0772   -3.5618   -0.1933 H   0  0  0  0  0  0  0  0  0  0  0  0
    0.9117   -4.1380   -1.4072 H   0  0  0  0  0  0  0  0  0  0  0  0
    2.0708   -2.8503   -1.8161 H   0  0  0  0  0  0  0  0  0  0  0  0
  5  6  2  0  0  0  0
  5  7  1  0  0  0  0
  2  3  1  0  0  0  0
  2  4  1  0  0  0  0
  2  5  1  0  0  0  0
  1  2  1  0  0  0  0
 21 22  2  0  0  0  0
 21 23  1  0  0  0  0
 19 20  1  0  0  0  0
 17 18  2  0  0  0  0
 17 19  1  0  0  0  0
 14 15  1  0  0  0  0
 14 16  1  0  0  0  0
 14 17  1  0  0  0  0
 11 12  1  0  0  0  0
 11 13  1  0  0  0  0
 11 14  1  0  0  0  0
  9 10  1  0  0  0  0
  9 11  1  0  0  0  0
  9 21  1  0  0  0  0
  7  8  1  0  0  0  0
  7  9  1  0  0  0  0
 25 26  1  0  0  0  0
 25 27  1  0  0  0  0
 25 28  1  0  0  0  0
 23 24  1  0  0  0  0
 23 25  1  0  0  0  0
M  END
$$$$
default_name
  -OEChem-01062215323D

 28 27  0     1  0  0  0  0  0999 V2000
   -3.2133   -3.5565    1.2809 H   0  0  0  0  0  0  0  0  0  0  0  0
   -3.1873   -2.5755    0.8089 C   0  0  0  0  0  0  0  0  0  0  0  0
   -3.8793   -1.9065    1.3169 H   0  0  0  0  0  0  0  0  0  0  0  0
   -3.4623   -2.6685   -0.2401 H   0  0  0  0  0  0  0  0  0  0  0  0
   -1.7863   -2.0195    0.9119 C   0  0  0  0  0  0  0  0  0  0  0  0
   -0.9073   -2.6615    1.4699 O   0  0  0  0  0  0  0  0  0  0  0  0
   -1.5803   -0.8195    0.3749 N   0  0  0  0  0  0  0  0  0  0  0  0
   -2.3603   -0.3345   -0.0451 H   0  0  0  0  0  0  0  0  0  0  0  0
   -0.2933   -0.1205    0.3719 C   0  0  1  0  0  0  0  0  0  0  0  0
   -0.3307    0.6767   -0.3719 H   0  0  0  0  0  0  0  0  0  0  0  0
   -0.0653    0.5178    1.7574 C   0  0  0  0  0  0  0  0  0  0  0  0
   -0.1689   -0.2637    2.5120 H   0  0  0  0  0  0  0  0  0  0  0  0
    0.9521    0.9082    1.8107 H   0  0  0  0  0  0  0  0  0  0  0  0
   -1.0441    1.6581    2.0872 C   0  0  0  0  0  0  0  0  0  0  0  0
   -0.9414    2.4590    1.3549 H   0  0  0  0  0  0  0  0  0  0  0  0
   -2.0634    1.2749    2.0559 H   0  0  0  0  0  0  0  0  0  0  0  0
   -0.8014    2.2456    3.4737 C   0  0  0  0  0  0  0  0  0  0  0  0
   -0.0208    1.7966    4.2977 O   0  0  0  0  0  0  0  0  0  0  0  0
   -1.5312    3.3349    3.7777 O   0  0  0  0  0  0  0  0  0  0  0  0
   -1.2742    3.5680    4.6715 H   0  0  0  0  0  0  0  0  0  0  0  0
    0.8369   -1.0854   -0.0205 C   0  0  0  0  0  0  0  0  0  0  0  0
    1.9745   -0.9086    0.4113 O   0  0  0  0  0  0  0  0  0  0  0  0
    0.5262   -2.0933   -0.8446 N   0  0  0  0  0  0  0  0  0  0  0  0
   -0.4341   -2.1876   -1.1398 H   0  0  0  0  0  0  0  0  0  0  0  0
    1.4900   -3.0805   -1.3267 C   0  0  0  0  0  0  0  0  0  0  0  0
    1.9623   -3.5802   -0.4790 H   0  0  0  0  0  0  0  0  0  0  0  0
    0.9910   -3.8248   -1.9490 H   0  0  0  0  0  0  0  0  0  0  0  0
    2.2659   -2.5829   -1.9118 H   0  0  0  0  0  0  0  0  0  0  0  0
  5  6  2  0  0  0  0
  5  7  1  0  0  0  0
  2  3  1  0  0  0  0
  2  4  1  0  0  0  0
  2  5  1  0  0  0  0
  1  2  1  0  0  0  0
 21 22  2  0  0  0  0
 21 23  1  0  0  0  0
 19 20  1  0  0  0  0
 17 18  2  0  0  0  0
 17 19  1  0  0  0  0
 14 15  1  0  0  0  0
 14 16  1  0  0  0  0
 14 17  1  0  0  0  0
 11 12  1  0  0  0  0
 11 13  1  0  0  0  0
 11 14  1  0  0  0  0
  9 10  1  0  0  0  0
  9 11  1  0  0  0  0
  9 21  1  0  0  0  0
  7  8  1  0  0  0  0
  7  9  1  0  0  0  0
 25 26  1  0  0  0  0
 25 27  1  0  0  0  0
 25 28  1  0  0  0  0
 23 24  1  0  0  0  0
 23 25  1  0  0  0  0
M  END
$$$$
default_name
  -OEChem-01062215323D

 28 27  0     1  0  0  0  0  0999 V2000
   -3.2133   -3.5565    1.2809 H   0  0  0  0  0  0  0  0  0  0  0  0
   -3.1873   -2.5755    0.8089 C   0  0  0  0  0  0  0  0  0  0  0  0
   -3.8793   -1.9065    1.3169 H   0  0  0  0  0  0  0  0  0  0  0  0
   -3.4623   -2.6685   -0.2401 H   0  0  0  0  0  0  0  0  0  0  0  0
   -1.7863   -2.0195    0.9119 C   0  0  0  0  0  0  0  0  0  0  0  0
   -0.9073   -2.6615    1.4699 O   0  0  0  0  0  0  0  0  0  0  0  0
   -1.5803   -0.8195    0.3749 N   0  0  0  0  0  0  0  0  0  0  0  0
   -2.3603   -0.3345   -0.0451 H   0  0  0  0  0  0  0  0  0  0  0  0
   -0.2933   -0.1205    0.3719 C   0  0  1  0  0  0  0  0  0  0  0  0
   -0.3307    0.6767   -0.3719 H   0  0  0  0  0  0  0  0  0  0  0  0
   -0.0653    0.5178    1.7574 C   0  0  0  0  0  0  0  0  0  0  0  0
   -0.1689   -0.2637    2.5120 H   0  0  0  0  0  0  0  0  0  0  0  0
    0.9521    0.9082    1.8107 H   0  0  0  0  0  0  0  0  0  0  0  0
   -1.0441    1.6581    2.0872 C   0  0  0  0  0  0  0  0  0  0  0  0
   -0.9414    2.4590    1.3549 H   0  0  0  0  0  0  0  0  0  0  0  0
   -2.0634    1.2749    2.0559 H   0  0  0  0  0  0  0  0  0  0  0  0
   -0.8014    2.2456    3.4737 C   0  0  0  0  0  0  0  0  0  0  0  0
   -0.0208    1.7966    4.2977 O   0  0  0  0  0  0  0  0  0  0  0  0
   -1.5312    3.3349    3.7777 O   0  0  0  0  0  0  0  0  0  0  0  0
   -1.2742    3.5680    4.6715 H   0  0  0  0  0  0  0  0  0  0  0  0
    0.8369   -1.0854   -0.0205 C   0  0  0  0  0  0  0  0  0  0  0  0
    1.8926   -1.0851    0.6097 O   0  0  0  0  0  0  0  0  0  0  0  0
    0.6195   -1.8947   -1.0642 N   0  0  0  0  0  0  0  0  0  0  0  0
   -0.2807   -1.8540   -1.5183 H   0  0  0  0  0  0  0  0  0  0  0  0
    1.5999   -2.8513   -1.5738 C   0  0  0  0  0  0  0  0  0  0  0  0
    1.8965   -3.5360   -0.7771 H   0  0  0  0  0  0  0  0  0  0  0  0
    1.1764   -3.4244   -2.3998 H   0  0  0  0  0  0  0  0  0  0  0  0
    2.4875   -2.3193   -1.9217 H   0  0  0  0  0  0  0  0  0  0  0  0
  5  6  2  0  0  0  0
  5  7  1  0  0  0  0
  2  3  1  0  0  0  0
  2  4  1  0  0  0  0
  2  5  1  0  0  0  0
  1  2  1  0  0  0  0
 21 22  2  0  0  0  0
 21 23  1  0  0  0  0
 19 20  1  0  0  0  0
 17 18  2  0  0  0  0
 17 19  1  0  0  0  0
 14 15  1  0  0  0  0
 14 16  1  0  0  0  0
 14 17  1  0  0  0  0
 11 12  1  0  0  0  0
 11 13  1  0  0  0  0
 11 14  1  0  0  0  0
  9 10  1  0  0  0  0
  9 11  1  0  0  0  0
  9 21  1  0  0  0  0
  7  8  1  0  0  0  0
  7  9  1  0  0  0  0
 25 26  1  0  0  0  0
 25 27  1  0  0  0  0
 25 28  1  0  0  0  0
 23 24  1  0  0  0  0
 23 25  1  0  0  0  0
M  END
$$$$
default_name
  -OEChem-01062215323D

 28 27  0     1  0  0  0  0  0999 V2000
   -3.2133   -3.5565    1.2809 H   0  0  0  0  0  0  0  0  0  0  0  0
   -3.1873   -2.5755    0.8089 C   0  0  0  0  0  0  0  0  0  0  0  0
   -3.8793   -1.9065    1.3169 H   0  0  0  0  0  0  0  0  0  0  0  0
   -3.4623   -2.6685   -0.2401 H   0  0  0  0  0  0  0  0  0  0  0  0
   -1.7863   -2.0195    0.9119 C   0  0  0  0  0  0  0  0  0  0  0  0
   -0.9073   -2.6615    1.4699 O   0  0  0  0  0  0  0  0  0  0  0  0
   -1.5803   -0.8195    0.3749 N   0  0  0  0  0  0  0  0  0  0  0  0
   -2.3603   -0.3345   -0.0451 H   0  0  0  0  0  0  0  0  0  0  0  0
   -0.2933   -0.1205    0.3719 C   0  0  1  0  0  0  0  0  0  0  0  0
   -0.3307    0.6767   -0.3719 H   0  0  0  0  0  0  0  0  0  0  0  0
   -0.0653    0.5178    1.7574 C   0  0  0  0  0  0  0  0  0  0  0  0
   -0.1689   -0.2637    2.5120 H   0  0  0  0  0  0  0  0  0  0  0  0
    0.9521    0.9082    1.8107 H   0  0  0  0  0  0  0  0  0  0  0  0
   -1.0441    1.6581    2.0872 C   0  0  0  0  0  0  0  0  0  0  0  0
   -0.9414    2.4590    1.3549 H   0  0  0  0  0  0  0  0  0  0  0  0
   -2.0634    1.2749    2.0559 H   0  0  0  0  0  0  0  0  0  0  0  0
   -0.8014    2.2456    3.4737 C   0  0  0  0  0  0  0  0  0  0  0  0
   -0.0208    1.7966    4.2977 O   0  0  0  0  0  0  0  0  0  0  0  0
   -1.5312    3.3349    3.7777 O   0  0  0  0  0  0  0  0  0  0  0  0
   -1.2742    3.5680    4.6715 H   0  0  0  0  0  0  0  0  0  0  0  0
    0.8369   -1.0854   -0.0205 C   0  0  0  0  0  0  0  0  0  0  0  0
    1.7697   -1.2880    0.7545 O   0  0  0  0  0  0  0  0  0  0  0  0
    0.7584   -1.6673   -1.2233 N   0  0  0  0  0  0  0  0  0  0  0  0
   -0.0490   -1.4698   -1.7955 H   0  0  0  0  0  0  0  0  0  0  0  0
    1.7614   -2.5901   -1.7509 C   0  0  0  0  0  0  0  0  0  0  0  0
    1.8843   -3.4322   -1.0674 H   0  0  0  0  0  0  0  0  0  0  0  0
    1.4551   -2.9640   -2.7289 H   0  0  0  0  0  0  0  0  0  0  0  0
    2.7206   -2.0774   -1.8451 H   0  0  0  0  0  0  0  0  0  0  0  0
  5  6  2  0  0  0  0
  5  7  1  0  0  0  0
  2  3  1  0  0  0  0
  2  4  1  0  0  0  0
  2  5  1  0  0  0  0
  1  2  1  0  0  0  0
 21 22  2  0  0  0  0
 21 23  1  0  0  0  0
 19 20  1  0  0  0  0
 17 18  2  0  0  0  0
 17 19  1  0  0  0  0
 14 15  1  0  0  0  0
 14 16  1  0  0  0  0
 14 17  1  0  0  0  0
 11 12  1  0  0  0  0
 11 13  1  0  0  0  0
 11 14  1  0  0  0  0
  9 10  1  0  0  0  0
  9 11  1  0  0  0  0
  9 21  1  0  0  0  0
  7  8  1  0  0  0  0
  7  9  1  0  0  0  0
 25 26  1  0  0  0  0
 25 27  1  0  0  0  0
 25 28  1  0  0  0  0
 23 24  1  0  0  0  0
 23 25  1  0  0  0  0
M  END
$$$$
default_name
  -OEChem-01062215323D

 28 27  0     1  0  0  0  0  0999 V2000
   -3.2133   -3.5565    1.2809 H   0  0  0  0  0  0  0  0  0  0  0  0
   -3.1873   -2.5755    0.8089 C   0  0  0  0  0  0  0  0  0  0  0  0
   -3.8793   -1.9065    1.3169 H   0  0  0  0  0  0  0  0  0  0  0  0
   -3.4623   -2.6685   -0.2401 H   0  0  0  0  0  0  0  0  0  0  0  0
   -1.7863   -2.0195    0.9119 C   0  0  0  0  0  0  0  0  0  0  0  0
   -0.9073   -2.6615    1.4699 O   0  0  0  0  0  0  0  0  0  0  0  0
   -1.5803   -0.8195    0.3749 N   0  0  0  0  0  0  0  0  0  0  0  0
   -2.3603   -0.3345   -0.0451 H   0  0  0  0  0  0  0  0  0  0  0  0
   -0.2933   -0.1205    0.3719 C   0  0  1  0  0  0  0  0  0  0  0  0
   -0.3307    0.6767   -0.3719 H   0  0  0  0  0  0  0  0  0  0  0  0
   -0.0653    0.5178    1.7574 C   0  0  0  0  0  0  0  0  0  0  0  0
   -0.1689   -0.2637    2.5120 H   0  0  0  0  0  0  0  0  0  0  0  0
    0.9521    0.9082    1.8107 H   0  0  0  0  0  0  0  0  0  0  0  0
   -1.0441    1.6581    2.0872 C   0  0  0  0  0  0  0  0  0  0  0  0
   -0.9414    2.4590    1.3549 H   0  0  0  0  0  0  0  0  0  0  0  0
   -2.0634    1.2749    2.0559 H   0  0  0  0  0  0  0  0  0  0  0  0
   -0.8014    2.2456    3.4737 C   0  0  0  0  0  0  0  0  0  0  0  0
   -0.0208    1.7966    4.2977 O   0  0  0  0  0  0  0  0  0  0  0  0
   -1.5312    3.3349    3.7777 O   0  0  0  0  0  0  0  0  0  0  0  0
   -1.2742    3.5680    4.6715 H   0  0  0  0  0  0  0  0  0  0  0  0
    0.8369   -1.0854   -0.0205 C   0  0  0  0  0  0  0  0  0  0  0  0
    1.6140   -1.5034    0.8357 O   0  0  0  0  0  0  0  0  0  0  0  0
    0.9335   -1.4265   -1.3112 N   0  0  0  0  0  0  0  0  0  0  0  0
    0.2453   -1.0613   -1.9525 H   0  0  0  0  0  0  0  0  0  0  0  0
    1.9634   -2.3148   -1.8461 C   0  0  0  0  0  0  0  0  0  0  0  0
    1.9266   -3.2759   -1.3300 H   0  0  0  0  0  0  0  0  0  0  0  0
    1.8083   -2.4752   -2.9139 H   0  0  0  0  0  0  0  0  0  0  0  0
    2.9494   -1.8738   -1.6871 H   0  0  0  0  0  0  0  0  0  0  0  0
  5  6  2  0  0  0  0
  5  7  1  0  0  0  0
  2  3  1  0  0  0  0
  2  4  1  0  0  0  0
  2  5  1  0  0  0  0
  1  2  1  0  0  0  0
 21 22  2  0  0  0  0
 21 23  1  0  0  0  0
 19 20  1  0  0  0  0
 17 18  2  0  0  0  0
 17 19  1  0  0  0  0
 14 15  1  0  0  0  0
 14 16  1  0  0  0  0
 14 17  1  0  0  0  0
 11 12  1  0  0  0  0
 11 13  1  0  0  0  0
 11 14  1  0  0  0  0
  9 10  1  0  0  0  0
  9 11  1  0  0  0  0
  9 21  1  0  0  0  0
  7  8  1  0  0  0  0
  7  9  1  0  0  0  0
 25 26  1  0  0  0  0
 25 27  1  0  0  0  0
 25 28  1  0  0  0  0
 23 24  1  0  0  0  0
 23 25  1  0  0  0  0
M  END
$$$$
default_name
  -OEChem-01062215323D

 28 27  0     1  0  0  0  0  0999 V2000
   -3.2133   -3.5565    1.2809 H   0  0  0  0  0  0  0  0  0  0  0  0
   -3.1873   -2.5755    0.8089 C   0  0  0  0  0  0  0  0  0  0  0  0
   -3.8793   -1.9065    1.3169 H   0  0  0  0  0  0  0  0  0  0  0  0
   -3.4623   -2.6685   -0.2401 H   0  0  0  0  0  0  0  0  0  0  0  0
   -1.7863   -2.0195    0.9119 C   0  0  0  0  0  0  0  0  0  0  0  0
   -0.9073   -2.6615    1.4699 O   0  0  0  0  0  0  0  0  0  0  0  0
   -1.5803   -0.8195    0.3749 N   0  0  0  0  0  0  0  0  0  0  0  0
   -2.3603   -0.3345   -0.0451 H   0  0  0  0  0  0  0  0  0  0  0  0
   -0.2933   -0.1205    0.3719 C   0  0  1  0  0  0  0  0  0  0  0  0
   -0.3307    0.6767   -0.3719 H   0  0  0  0  0  0  0  0  0  0  0  0
   -0.0653    0.5178    1.7574 C   0  0  0  0  0  0  0  0  0  0  0  0
   -0.1689   -0.2637    2.5120 H   0  0  0  0  0  0  0  0  0  0  0  0
    0.9521    0.9082    1.8107 H   0  0  0  0  0  0  0  0  0  0  0  0
   -1.0441    1.6581    2.0872 C   0  0  0  0  0  0  0  0  0  0  0  0
   -0.9414    2.4590    1.3549 H   0  0  0  0  0  0  0  0  0  0  0  0
   -2.0634    1.2749    2.0559 H   0  0  0  0  0  0  0  0  0  0  0  0
   -0.8014    2.2456    3.4737 C   0  0  0  0  0  0  0  0  0  0  0  0
   -0.0208    1.7966    4.2977 O   0  0  0  0  0  0  0  0  0  0  0  0
   -1.5312    3.3349    3.7777 O   0  0  0  0  0  0  0  0  0  0  0  0
   -1.2742    3.5680    4.6715 H   0  0  0  0  0  0  0  0  0  0  0  0
    0.8369   -1.0854   -0.0205 C   0  0  0  0  0  0  0  0  0  0  0  0
    1.4362   -1.7166    0.8480 O   0  0  0  0  0  0  0  0  0  0  0  0
    1.1327   -1.1888   -1.3218 N   0  0  0  0  0  0  0  0  0  0  0  0
    0.5821   -0.6563   -1.9786 H   0  0  0  0  0  0  0  0  0  0  0  0
    2.1922   -2.0441   -1.8528 C   0  0  0  0  0  0  0  0  0  0  0  0
    2.0204   -3.0778   -1.5470 H   0  0  0  0  0  0  0  0  0  0  0  0
    2.2118   -1.9911   -2.9422 H   0  0  0  0  0  0  0  0  0  0  0  0
    3.1581   -1.7222   -1.4586 H   0  0  0  0  0  0  0  0  0  0  0  0
  5  6  2  0  0  0  0
  5  7  1  0  0  0  0
  2  3  1  0  0  0  0
  2  4  1  0  0  0  0
  2  5  1  0  0  0  0
  1  2  1  0  0  0  0
 21 22  2  0  0  0  0
 21 23  1  0  0  0  0
 19 20  1  0  0  0  0
 17 18  2  0  0  0  0
 17 19  1  0  0  0  0
 14 15  1  0  0  0  0
 14 16  1  0  0  0  0
 14 17  1  0  0  0  0
 11 12  1  0  0  0  0
 11 13  1  0  0  0  0
 11 14  1  0  0  0  0
  9 10  1  0  0  0  0
  9 11  1  0  0  0  0
  9 21  1  0  0  0  0
  7  8  1  0  0  0  0
  7  9  1  0  0  0  0
 25 26  1  0  0  0  0
 25 27  1  0  0  0  0
 25 28  1  0  0  0  0
 23 24  1  0  0  0  0
 23 25  1  0  0  0  0
M  END
$$$$
default_name
  -OEChem-01062215323D

 28 27  0     1  0  0  0  0  0999 V2000
   -3.2133   -3.5565    1.2809 H   0  0  0  0  0  0  0  0  0  0  0  0
   -3.1873   -2.5755    0.8089 C   0  0  0  0  0  0  0  0  0  0  0  0
   -3.8793   -1.9065    1.3169 H   0  0  0  0  0  0  0  0  0  0  0  0
   -3.4623   -2.6685   -0.2401 H   0  0  0  0  0  0  0  0  0  0  0  0
   -1.7863   -2.0195    0.9119 C   0  0  0  0  0  0  0  0  0  0  0  0
   -0.9073   -2.6615    1.4699 O   0  0  0  0  0  0  0  0  0  0  0  0
   -1.5803   -0.8195    0.3749 N   0  0  0  0  0  0  0  0  0  0  0  0
   -2.3603   -0.3345   -0.0451 H   0  0  0  0  0  0  0  0  0  0  0  0
   -0.2933   -0.1205    0.3719 C   0  0  1  0  0  0  0  0  0  0  0  0
   -0.3307    0.6767   -0.3719 H   0  0  0  0  0  0  0  0  0  0  0  0
   -0.0653    0.5178    1.7574 C   0  0  0  0  0  0  0  0  0  0  0  0
   -0.1689   -0.2637    2.5120 H   0  0  0  0  0  0  0  0  0  0  0  0
    0.9521    0.9082    1.8107 H   0  0  0  0  0  0  0  0  0  0  0  0
   -1.0441    1.6581    2.0872 C   0  0  0  0  0  0  0  0  0  0  0  0
   -0.9414    2.4590    1.3549 H   0  0  0  0  0  0  0  0  0  0  0  0
   -2.0634    1.2749    2.0559 H   0  0  0  0  0  0  0  0  0  0  0  0
   -0.8014    2.2456    3.4737 C   0  0  0  0  0  0  0  0  0  0  0  0
   -0.0208    1.7966    4.2977 O   0  0  0  0  0  0  0  0  0  0  0  0
   -1.5312    3.3349    3.7777 O   0  0  0  0  0  0  0  0  0  0  0  0
   -1.2742    3.5680    4.6715 H   0  0  0  0  0  0  0  0  0  0  0  0
    0.8369   -1.0854   -0.0205 C   0  0  0  0  0  0  0  0  0  0  0  0
    1.2484   -1.9131    0.7903 O   0  0  0  0  0  0  0  0  0  0  0  0
    1.3427   -0.9703   -1.2544 N   0  0  0  0  0  0  0  0  0  0  0  0
    0.9384   -0.2823   -1.8720 H   0  0  0  0  0  0  0  0  0  0  0  0
    2.4321   -1.7965   -1.7706 C   0  0  0  0  0  0  0  0  0  0  0  0
    2.1594   -2.8513   -1.7037 H   0  0  0  0  0  0  0  0  0  0  0  0
    2.6381   -1.5448   -2.8119 H   0  0  0  0  0  0  0  0  0  0  0  0
    3.3326   -1.6331   -1.1752 H   0  0  0  0  0  0  0  0  0  0  0  0
  5  6  2  0  0  0  0
  5  7  1  0  0  0  0
  2  3  1  0  0  0  0
  2  4  1  0  0  0  0
  2  5  1  0  0  0  0
  1  2  1  0  0  0  0
 21 22  2  0  0  0  0
 21 23  1  0  0  0  0
 19 20  1  0  0  0  0
 17 18  2  0  0  0  0
 17 19  1  0  0  0  0
 14 15  1  0  0  0  0
 14 16  1  0  0  0  0
 14 17  1  0  0  0  0
 11 12  1  0  0  0  0
 11 13  1  0  0  0  0
 11 14  1  0  0  0  0
  9 10  1  0  0  0  0
  9 11  1  0  0  0  0
  9 21  1  0  0  0  0
  7  8  1  0  0  0  0
  7  9  1  0  0  0  0
 25 26  1  0  0  0  0
 25 27  1  0  0  0  0
 25 28  1  0  0  0  0
 23 24  1  0  0  0  0
 23 25  1  0  0  0  0
M  END
$$$$
default_name
  -OEChem-01062215323D

 28 27  0     1  0  0  0  0  0999 V2000
   -3.2133   -3.5565    1.2809 H   0  0  0  0  0  0  0  0  0  0  0  0
   -3.1873   -2.5755    0.8089 C   0  0  0  0  0  0  0  0  0  0  0  0
   -3.8793   -1.9065    1.3169 H   0  0  0  0  0  0  0  0  0  0  0  0
   -3.4623   -2.6685   -0.2401 H   0  0  0  0  0  0  0  0  0  0  0  0
   -1.7863   -2.0195    0.9119 C   0  0  0  0  0  0  0  0  0  0  0  0
   -0.9073   -2.6615    1.4699 O   0  0  0  0  0  0  0  0  0  0  0  0
   -1.5803   -0.8195    0.3749 N   0  0  0  0  0  0  0  0  0  0  0  0
   -2.3603   -0.3345   -0.0451 H   0  0  0  0  0  0  0  0  0  0  0  0
   -0.2933   -0.1205    0.3719 C   0  0  1  0  0  0  0  0  0  0  0  0
   -0.3307    0.6767   -0.3719 H   0  0  0  0  0  0  0  0  0  0  0  0
   -0.0653    0.5178    1.7574 C   0  0  0  0  0  0  0  0  0  0  0  0
   -0.1689   -0.2637    2.5120 H   0  0  0  0  0  0  0  0  0  0  0  0
    0.9521    0.9082    1.8107 H   0  0  0  0  0  0  0  0  0  0  0  0
   -1.0441    1.6581    2.0872 C   0  0  0  0  0  0  0  0  0  0  0  0
   -0.9414    2.4590    1.3549 H   0  0  0  0  0  0  0  0  0  0  0  0
   -2.0634    1.2749    2.0559 H   0  0  0  0  0  0  0  0  0  0  0  0
   -0.8014    2.2456    3.4737 C   0  0  0  0  0  0  0  0  0  0  0  0
   -0.0208    1.7966    4.2977 O   0  0  0  0  0  0  0  0  0  0  0  0
   -1.5312    3.3349    3.7777 O   0  0  0  0  0  0  0  0  0  0  0  0
   -1.2742    3.5680    4.6715 H   0  0  0  0  0  0  0  0  0  0  0  0
    0.8369   -1.0854   -0.0205 C   0  0  0  0  0  0  0  0  0  0  0  0
    1.0634   -2.0796    0.6666 O   0  0  0  0  0  0  0  0  0  0  0  0
    1.5489   -0.7859   -1.1136 N   0  0  0  0  0  0  0  0  0  0  0  0
    1.2899    0.0351   -1.6399 H   0  0  0  0  0  0  0  0  0  0  0  0
    2.6669   -1.5888   -1.6050 C   0  0  0  0  0  0  0  0  0  0  0  0
    2.3341   -2.6119   -1.7894 H   0  0  0  0  0  0  0  0  0  0  0  0
    3.0582   -1.1666   -2.5317 H   0  0  0  0  0  0  0  0  0  0  0  0
    3.4610   -1.6125   -0.8561 H   0  0  0  0  0  0  0  0  0  0  0  0
  5  6  2  0  0  0  0
  5  7  1  0  0  0  0
  2  3  1  0  0  0  0
  2  4  1  0  0  0  0
  2  5  1  0  0  0  0
  1  2  1  0  0  0  0
 21 22  2  0  0  0  0
 21 23  1  0  0  0  0
 19 20  1  0  0  0  0
 17 18  2  0  0  0  0
 17 19  1  0  0  0  0
 14 15  1  0  0  0  0
 14 16  1  0  0  0  0
 14 17  1  0  0  0  0
 11 12  1  0  0  0  0
 11 13  1  0  0  0  0
 11 14  1  0  0  0  0
  9 10  1  0  0  0  0
  9 11  1  0  0  0  0
  9 21  1  0  0  0  0
  7  8  1  0  0  0  0
  7  9  1  0  0  0  0
 25 26  1  0  0  0  0
 25 27  1  0  0  0  0
 25 28  1  0  0  0  0
 23 24  1  0  0  0  0
 23 25  1  0  0  0  0
M  END
$$$$
default_name
  -OEChem-01062215323D

 28 27  0     1  0  0  0  0  0999 V2000
   -3.2133   -3.5565    1.2809 H   0  0  0  0  0  0  0  0  0  0  0  0
   -3.1873   -2.5755    0.8089 C   0  0  0  0  0  0  0  0  0  0  0  0
   -3.8793   -1.9065    1.3169 H   0  0  0  0  0  0  0  0  0  0  0  0
   -3.4623   -2.6685   -0.2401 H   0  0  0  0  0  0  0  0  0  0  0  0
   -1.7863   -2.0195    0.9119 C   0  0  0  0  0  0  0  0  0  0  0  0
   -0.9073   -2.6615    1.4699 O   0  0  0  0  0  0  0  0  0  0  0  0
   -1.5803   -0.8195    0.3749 N   0  0  0  0  0  0  0  0  0  0  0  0
   -2.3603   -0.3345   -0.0451 H   0  0  0  0  0  0  0  0  0  0  0  0
   -0.2933   -0.1205    0.3719 C   0  0  1  0  0  0  0  0  0  0  0  0
   -0.3307    0.6767   -0.3719 H   0  0  0  0  0  0  0  0  0  0  0  0
   -0.0653    0.5178    1.7574 C   0  0  0  0  0  0  0  0  0  0  0  0
   -0.1689   -0.2637    2.5120 H   0  0  0  0  0  0  0  0  0  0  0  0
    0.9521    0.9082    1.8107 H   0  0  0  0  0  0  0  0  0  0  0  0
   -1.0441    1.6581    2.0872 C   0  0  0  0  0  0  0  0  0  0  0  0
   -0.9414    2.4590    1.3549 H   0  0  0  0  0  0  0  0  0  0  0  0
   -2.0634    1.2749    2.0559 H   0  0  0  0  0  0  0  0  0  0  0  0
   -0.8014    2.2456    3.4737 C   0  0  0  0  0  0  0  0  0  0  0  0
   -0.0208    1.7966    4.2977 O   0  0  0  0  0  0  0  0  0  0  0  0
   -1.5312    3.3349    3.7777 O   0  0  0  0  0  0  0  0  0  0  0  0
   -1.2742    3.5680    4.6715 H   0  0  0  0  0  0  0  0  0  0  0  0
    0.8369   -1.0854   -0.0205 C   0  0  0  0  0  0  0  0  0  0  0  0
    0.8937   -2.2046    0.4855 O   0  0  0  0  0  0  0  0  0  0  0  0
    1.7375   -0.6483   -0.9090 N   0  0  0  0  0  0  0  0  0  0  0  0
    1.6127    0.2742   -1.2983 H   0  0  0  0  0  0  0  0  0  0  0  0
    2.8805   -1.4352   -1.3675 C   0  0  0  0  0  0  0  0  0  0  0  0
    2.5325   -2.3758   -1.7982 H   0  0  0  0  0  0  0  0  0  0  0  0
    3.4434   -0.8825   -2.1209 H   0  0  0  0  0  0  0  0  0  0  0  0
    3.5345   -1.6618   -0.5231 H   0  0  0  0  0  0  0  0  0  0  0  0
  5  6  2  0  0  0  0
  5  7  1  0  0  0  0
  2  3  1  0  0  0  0
  2  4  1  0  0  0  0
  2  5  1  0  0  0  0
  1  2  1  0  0  0  0
 21 22  2  0  0  0  0
 21 23  1  0  0  0  0
 19 20  1  0  0  0  0
 17 18  2  0  0  0  0
 17 19  1  0  0  0  0
 14 15  1  0  0  0  0
 14 16  1  0  0  0  0
 14 17  1  0  0  0  0
 11 12  1  0  0  0  0
 11 13  1  0  0  0  0
 11 14  1  0  0  0  0
  9 10  1  0  0  0  0
  9 11  1  0  0  0  0
  9 21  1  0  0  0  0
  7  8  1  0  0  0  0
  7  9  1  0  0  0  0
 25 26  1  0  0  0  0
 25 27  1  0  0  0  0
 25 28  1  0  0  0  0
 23 24  1  0  0  0  0
 23 25  1  0  0  0  0
M  END
$$$$
default_name
  -OEChem-01062215323D

 28 27  0     1  0  0  0  0  0999 V2000
   -3.2133   -3.5565    1.2809 H   0  0  0  0  0  0  0  0  0  0  0  0
   -3.1873   -2.5755    0.8089 C   0  0  0  0  0  0  0  0  0  0  0  0
   -3.8793   -1.9065    1.3169 H   0  0  0  0  0  0  0  0  0  0  0  0
   -3.4623   -2.6685   -0.2401 H   0  0  0  0  0  0  0  0  0  0  0  0
   -1.7863   -2.0195    0.9119 C   0  0  0  0  0  0  0  0  0  0  0  0
   -0.9073   -2.6615    1.4699 O   0  0  0  0  0  0  0  0  0  0  0  0
   -1.5803   -0.8195    0.3749 N   0  0  0  0  0  0  0  0  0  0  0  0
   -2.3603   -0.3345   -0.0451 H   0  0  0  0  0  0  0  0  0  0  0  0
   -0.2933   -0.1205    0.3719 C   0  0  1  0  0  0  0  0  0  0  0  0
   -0.3307    0.6767   -0.3719 H   0  0  0  0  0  0  0  0  0  0  0  0
   -0.0653    0.5178    1.7574 C   0  0  0  0  0  0  0  0  0  0  0  0
   -0.1689   -0.2637    2.5120 H   0  0  0  0  0  0  0  0  0  0  0  0
    0.9521    0.9082    1.8107 H   0  0  0  0  0  0  0  0  0  0  0  0
   -1.0441    1.6581    2.0872 C   0  0  0  0  0  0  0  0  0  0  0  0
   -0.9414    2.4590    1.3549 H   0  0  0  0  0  0  0  0  0  0  0  0
   -2.0634    1.2749    2.0559 H   0  0  0  0  0  0  0  0  0  0  0  0
   -0.8014    2.2456    3.4737 C   0  0  0  0  0  0  0  0  0  0  0  0
   -0.0208    1.7966    4.2977 O   0  0  0  0  0  0  0  0  0  0  0  0
   -1.5312    3.3349    3.7777 O   0  0  0  0  0  0  0  0  0  0  0  0
   -1.2742    3.5680    4.6715 H   0  0  0  0  0  0  0  0  0  0  0  0
    0.8369   -1.0854   -0.0205 C   0  0  0  0  0  0  0  0  0  0  0  0
    0.7510   -2.2796    0.2591 O   0  0  0  0  0  0  0  0  0  0  0  0
    1.8955   -0.5668   -0.6546 N   0  0  0  0  0  0  0  0  0  0  0  0
    1.8848    0.4189   -0.8703 H   0  0  0  0  0  0  0  0  0  0  0  0
    3.0584   -1.3462   -1.0741 C   0  0  0  0  0  0  0  0  0  0  0  0
    2.7412   -2.1593   -1.7295 H   0  0  0  0  0  0  0  0  0  0  0  0
    3.7676   -0.7116   -1.6074 H   0  0  0  0  0  0  0  0  0  0  0  0
    3.5481   -1.7777   -0.1988 H   0  0  0  0  0  0  0  0  0  0  0  0
  5  6  2  0  0  0  0
  5  7  1  0  0  0  0
  2  3  1  0  0  0  0
  2  4  1  0  0  0  0
  2  5  1  0  0  0  0
  1  2  1  0  0  0  0
 21 22  2  0  0  0  0
 21 23  1  0  0  0  0
 19 20  1  0  0  0  0
 17 18  2  0  0  0  0
 17 19  1  0  0  0  0
 14 15  1  0  0  0  0
 14 16  1  0  0  0  0
 14 17  1  0  0  0  0
 11 12  1  0  0  0  0
 11 13  1  0  0  0  0
 11 14  1  0  0  0  0
  9 10  1  0  0  0  0
  9 11  1  0  0  0  0
  9 21  1  0  0  0  0
  7  8  1  0  0  0  0
  7  9  1  0  0  0  0
 25 26  1  0  0  0  0
 25 27  1  0  0  0  0
 25 28  1  0  0  0  0
 23 24  1  0  0  0  0
 23 25  1  0  0  0  0
M  END
$$$$
default_name
  -OEChem-01062215323D

 28 27  0     1  0  0  0  0  0999 V2000
   -3.2133   -3.5565    1.2809 H   0  0  0  0  0  0  0  0  0  0  0  0
   -3.1873   -2.5755    0.8089 C   0  0  0  0  0  0  0  0  0  0  0  0
   -3.8793   -1.9065    1.3169 H   0  0  0  0  0  0  0  0  0  0  0  0
   -3.4623   -2.6685   -0.2401 H   0  0  0  0  0  0  0  0  0  0  0  0
   -1.7863   -2.0195    0.9119 C   0  0  0  0  0  0  0  0  0  0  0  0
   -0.9073   -2.6615    1.4699 O   0  0  0  0  0  0  0  0  0  0  0  0
   -1.5803   -0.8195    0.3749 N   0  0  0  0  0  0  0  0  0  0  0  0
   -2.3603   -0.3345   -0.0451 H   0  0  0  0  0  0  0  0  0  0  0  0
   -0.2933   -0.1205    0.3719 C   0  0  1  0  0  0  0  0  0  0  0  0
   -0.3307    0.6767   -0.3719 H   0  0  0  0  0  0  0  0  0  0  0  0
   -0.0653    0.5178    1.7574 C   0  0  0  0  0  0  0  0  0  0  0  0
   -0.1689   -0.2637    2.5120 H   0  0  0  0  0  0  0  0  0  0  0  0
    0.9521    0.9082    1.8107 H   0  0  0  0  0  0  0  0  0  0  0  0
   -1.0441    1.6581    2.0872 C   0  0  0  0  0  0  0  0  0  0  0  0
   -0.9414    2.4590    1.3549 H   0  0  0  0  0  0  0  0  0  0  0  0
   -2.0634    1.2749    2.0559 H   0  0  0  0  0  0  0  0  0  0  0  0
   -0.8014    2.2456    3.4737 C   0  0  0  0  0  0  0  0  0  0  0  0
   -0.0208    1.7966    4.2977 O   0  0  0  0  0  0  0  0  0  0  0  0
   -1.5312    3.3349    3.7777 O   0  0  0  0  0  0  0  0  0  0  0  0
   -1.2742    3.5680    4.6715 H   0  0  0  0  0  0  0  0  0  0  0  0
    0.8369   -1.0854   -0.0205 C   0  0  0  0  0  0  0  0  0  0  0  0
    0.6450   -2.2996    0.0030 O   0  0  0  0  0  0  0  0  0  0  0  0
    2.0121   -0.5469   -0.3676 N   0  0  0  0  0  0  0  0  0  0  0  0
    2.0877    0.4592   -0.3852 H   0  0  0  0  0  0  0  0  0  0  0  0
    3.1885   -1.3278   -0.7448 C   0  0  0  0  0  0  0  0  0  0  0  0
    2.9460   -1.9770   -1.5881 H   0  0  0  0  0  0  0  0  0  0  0  0
    4.0086   -0.6657   -1.0263 H   0  0  0  0  0  0  0  0  0  0  0  0
    3.5009   -1.9522    0.0945 H   0  0  0  0  0  0  0  0  0  0  0  0
  5  6  2  0  0  0  0
  5  7  1  0  0  0  0
  2  3  1  0  0  0  0
  2  4  1  0  0  0  0
  2  5  1  0  0  0  0
  1  2  1  0  0  0  0
 21 22  2  0  0  0  0
 21 23  1  0  0  0  0
 19 20  1  0  0  0  0
 17 18  2  0  0  0  0
 17 19  1  0  0  0  0
 14 15  1  0  0  0  0
 14 16  1  0  0  0  0
 14 17  1  0  0  0  0
 11 12  1  0  0  0  0
 11 13  1  0  0  0  0
 11 14  1  0  0  0  0
  9 10  1  0  0  0  0
  9 11  1  0  0  0  0
  9 21  1  0  0  0  0
  7  8  1  0  0  0  0
  7  9  1  0  0  0  0
 25 26  1  0  0  0  0
 25 27  1  0  0  0  0
 25 28  1  0  0  0  0
 23 24  1  0  0  0  0
 23 25  1  0  0  0  0
M  END
$$$$
default_name
  -OEChem-01062215323D

 28 27  0     1  0  0  0  0  0999 V2000
   -3.2133   -3.5565    1.2809 H   0  0  0  0  0  0  0  0  0  0  0  0
   -3.1873   -2.5755    0.8089 C   0  0  0  0  0  0  0  0  0  0  0  0
   -3.8793   -1.9065    1.3169 H   0  0  0  0  0  0  0  0  0  0  0  0
   -3.4623   -2.6685   -0.2401 H   0  0  0  0  0  0  0  0  0  0  0  0
   -1.7863   -2.0195    0.9119 C   0  0  0  0  0  0  0  0  0  0  0  0
   -0.9073   -2.6615    1.4699 O   0  0  0  0  0  0  0  0  0  0  0  0
   -1.5803   -0.8195    0.3749 N   0  0  0  0  0  0  0  0  0  0  0  0
   -2.3603   -0.3345   -0.0451 H   0  0  0  0  0  0  0  0  0  0  0  0
   -0.2933   -0.1205    0.3719 C   0  0  1  0  0  0  0  0  0  0  0  0
   -0.4104    0.8244   -0.1607 H   0  0  0  0  0  0  0  0  0  0  0  0
    0.1135    0.1890    1.8271 C   0  0  0  0  0  0  0  0  0  0  0  0
    0.0922   -0.7450    2.3911 H   0  0  0  0  0  0  0  0  0  0  0  0
    1.1353    0.5710    1.8417 H   0  0  0  0  0  0  0  0  0  0  0  0
   -0.8002    1.2108    2.5260 C   0  0  0  0  0  0  0  0  0  0  0  0
   -0.7768    2.1586    1.9881 H   0  0  0  0  0  0  0  0  0  0  0  0
   -1.8211    0.8308    2.5346 H   0  0  0  0  0  0  0  0  0  0  0  0
   -0.3794    1.4708    3.9688 C   0  0  0  0  0  0  0  0  0  0  0  0
    0.4902    0.8569    4.5662 O   0  0  0  0  0  0  0  0  0  0  0  0
   -1.0499    2.4522    4.6004 O   0  0  0  0  0  0  0  0  0  0  0  0
   -0.6811    2.4794    5.4850 H   0  0  0  0  0  0  0  0  0  0  0  0
    0.7654   -0.9552   -0.3662 C   0  0  0  0  0  0  0  0  0  0  0  0
    0.4657   -2.0498   -0.8392 O   0  0  0  0  0  0  0  0  0  0  0  0
    1.9998   -0.4450   -0.4527 N   0  0  0  0  0  0  0  0  0  0  0  0
    2.1651    0.4697   -0.0599 H   0  0  0  0  0  0  0  0  0  0  0  0
    3.1199   -1.1231   -1.1018 C   0  0  0  0  0  0  0  0  0  0  0  0
    2.8640   -1.3496   -2.1385 H   0  0  0  0  0  0  0  0  0  0  0  0
    4.0087   -0.4908   -1.0819 H   0  0  0  0  0  0  0  0  0  0  0  0
    3.3328   -2.0608   -0.5847 H   0  0  0  0  0  0  0  0  0  0  0  0
  5  6  2  0  0  0  0
  5  7  1  0  0  0  0
  2  3  1  0  0  0  0
  2  4  1  0  0  0  0
  2  5  1  0  0  0  0
  1  2  1  0  0  0  0
 21 22  2  0  0  0  0
 21 23  1  0  0  0  0
 19 20  1  0  0  0  0
 17 18  2  0  0  0  0
 17 19  1  0  0  0  0
 14 15  1  0  0  0  0
 14 16  1  0  0  0  0
 14 17  1  0  0  0  0
 11 12  1  0  0  0  0
 11 13  1  0  0  0  0
 11 14  1  0  0  0  0
  9 10  1  0  0  0  0
  9 11  1  0  0  0  0
  9 21  1  0  0  0  0
  7  8  1  0  0  0  0
  7  9  1  0  0  0  0
 25 26  1  0  0  0  0
 25 27  1  0  0  0  0
 25 28  1  0  0  0  0
 23 24  1  0  0  0  0
 23 25  1  0  0  0  0
M  END
$$$$
default_name
  -OEChem-01062215323D

 28 27  0     1  0  0  0  0  0999 V2000
   -3.2133   -3.5565    1.2809 H   0  0  0  0  0  0  0  0  0  0  0  0
   -3.1873   -2.5755    0.8089 C   0  0  0  0  0  0  0  0  0  0  0  0
   -3.8793   -1.9065    1.3169 H   0  0  0  0  0  0  0  0  0  0  0  0
   -3.4623   -2.6685   -0.2401 H   0  0  0  0  0  0  0  0  0  0  0  0
   -1.7863   -2.0195    0.9119 C   0  0  0  0  0  0  0  0  0  0  0  0
   -0.9073   -2.6615    1.4699 O   0  0  0  0  0  0  0  0  0  0  0  0
   -1.5803   -0.8195    0.3749 N   0  0  0  0  0  0  0  0  0  0  0  0
   -2.3603   -0.3345   -0.0451 H   0  0  0  0  0  0  0  0  0  0  0  0
   -0.2933   -0.1205    0.3719 C   0  0  1  0  0  0  0  0  0  0  0  0
   -0.4104    0.8244   -0.1607 H   0  0  0  0  0  0  0  0  0  0  0  0
    0.1135    0.1890    1.8271 C   0  0  0  0  0  0  0  0  0  0  0  0
    0.0922   -0.7450    2.3911 H   0  0  0  0  0  0  0  0  0  0  0  0
    1.1353    0.5710    1.8417 H   0  0  0  0  0  0  0  0  0  0  0  0
   -0.8002    1.2108    2.5260 C   0  0  0  0  0  0  0  0  0  0  0  0
   -0.7768    2.1586    1.9881 H   0  0  0  0  0  0  0  0  0  0  0  0
   -1.8211    0.8308    2.5346 H   0  0  0  0  0  0  0  0  0  0  0  0
   -0.3794    1.4708    3.9688 C   0  0  0  0  0  0  0  0  0  0  0  0
    0.4902    0.8569    4.5662 O   0  0  0  0  0  0  0  0  0  0  0  0
   -1.0499    2.4522    4.6004 O   0  0  0  0  0  0  0  0  0  0  0  0
   -0.6811    2.4794    5.4850 H   0  0  0  0  0  0  0  0  0  0  0  0
    0.7654   -0.9552   -0.3662 C   0  0  0  0  0  0  0  0  0  0  0  0
    0.4208   -1.9023   -1.0705 O   0  0  0  0  0  0  0  0  0  0  0  0
    2.0477   -0.6117   -0.1953 N   0  0  0  0  0  0  0  0  0  0  0  0
    2.2524    0.1918    0.3797 H   0  0  0  0  0  0  0  0  0  0  0  0
    3.1707   -1.3171   -0.8095 C   0  0  0  0  0  0  0  0  0  0  0  0
    3.0515   -1.3276   -1.8945 H   0  0  0  0  0  0  0  0  0  0  0  0
    4.1111   -0.8252   -0.5569 H   0  0  0  0  0  0  0  0  0  0  0  0
    3.1967   -2.3491   -0.4540 H   0  0  0  0  0  0  0  0  0  0  0  0
  5  6  2  0  0  0  0
  5  7  1  0  0  0  0
  2  3  1  0  0  0  0
  2  4  1  0  0  0  0
  2  5  1  0  0  0  0
  1  2  1  0  0  0  0
 21 22  2  0  0  0  0
 21 23  1  0  0  0  0
 19 20  1  0  0  0  0
 17 18  2  0  0  0  0
 17 19  1  0  0  0  0
 14 15  1  0  0  0  0
 14 16  1  0  0  0  0
 14 17  1  0  0  0  0
 11 12  1  0  0  0  0
 11 13  1  0  0  0  0
 11 14  1  0  0  0  0
  9 10  1  0  0  0  0
  9 11  1  0  0  0  0
  9 21  1  0  0  0  0
  7  8  1  0  0  0  0
  7  9  1  0  0  0  0
 25 26  1  0  0  0  0
 25 27  1  0  0  0  0
 25 28  1  0  0  0  0
 23 24  1  0  0  0  0
 23 25  1  0  0  0  0
M  END
$$$$
default_name
  -OEChem-01062215323D

 28 27  0     1  0  0  0  0  0999 V2000
   -3.2133   -3.5565    1.2809 H   0  0  0  0  0  0  0  0  0  0  0  0
   -3.1873   -2.5755    0.8089 C   0  0  0  0  0  0  0  0  0  0  0  0
   -3.8793   -1.9065    1.3169 H   0  0  0  0  0  0  0  0  0  0  0  0
   -3.4623   -2.6685   -0.2401 H   0  0  0  0  0  0  0  0  0  0  0  0
   -1.7863   -2.0195    0.9119 C   0  0  0  0  0  0  0  0  0  0  0  0
   -0.9073   -2.6615    1.4699 O   0  0  0  0  0  0  0  0  0  0  0  0
   -1.5803   -0.8195    0.3749 N   0  0  0  0  0  0  0  0  0  0  0  0
   -2.3603   -0.3345   -0.0451 H   0  0  0  0  0  0  0  0  0  0  0  0
   -0.2933   -0.1205    0.3719 C   0  0  1  0  0  0  0  0  0  0  0  0
   -0.4104    0.8244   -0.1607 H   0  0  0  0  0  0  0  0  0  0  0  0
    0.1135    0.1890    1.8271 C   0  0  0  0  0  0  0  0  0  0  0  0
    0.0922   -0.7450    2.3911 H   0  0  0  0  0  0  0  0  0  0  0  0
    1.1353    0.5710    1.8417 H   0  0  0  0  0  0  0  0  0  0  0  0
   -0.8002    1.2108    2.5260 C   0  0  0  0  0  0  0  0  0  0  0  0
   -0.7768    2.1586    1.9881 H   0  0  0  0  0  0  0  0  0  0  0  0
   -1.8211    0.8308    2.5346 H   0  0  0  0  0  0  0  0  0  0  0  0
   -0.3794    1.4708    3.9688 C   0  0  0  0  0  0  0  0  0  0  0  0
    0.4902    0.8569    4.5662 O   0  0  0  0  0  0  0  0  0  0  0  0
   -1.0499    2.4522    4.6004 O   0  0  0  0  0  0  0  0  0  0  0  0
   -0.6811    2.4794    5.4850 H   0  0  0  0  0  0  0  0  0  0  0  0
    0.7654   -0.9552   -0.3662 C   0  0  0  0  0  0  0  0  0  0  0  0
    0.4282   -1.7131   -1.2738 O   0  0  0  0  0  0  0  0  0  0  0  0
    2.0371   -0.8247    0.0303 N   0  0  0  0  0  0  0  0  0  0  0  0
    2.2405   -0.1659    0.7671 H   0  0  0  0  0  0  0  0  0  0  0  0
    3.1546   -1.5630   -0.5547 C   0  0  0  0  0  0  0  0  0  0  0  0
    3.2011   -1.3731   -1.6285 H   0  0  0  0  0  0  0  0  0  0  0  0
    4.0946   -1.2546   -0.0950 H   0  0  0  0  0  0  0  0  0  0  0  0
    3.0110   -2.6339   -0.3982 H   0  0  0  0  0  0  0  0  0  0  0  0
  5  6  2  0  0  0  0
  5  7  1  0  0  0  0
  2  3  1  0  0  0  0
  2  4  1  0  0  0  0
  2  5  1  0  0  0  0
  1  2  1  0  0  0  0
 21 22  2  0  0  0  0
 21 23  1  0  0  0  0
 19 20  1  0  0  0  0
 17 18  2  0  0  0  0
 17 19  1  0  0  0  0
 14 15  1  0  0  0  0
 14 16  1  0  0  0  0
 14 17  1  0  0  0  0
 11 12  1  0  0  0  0
 11 13  1  0  0  0  0
 11 14  1  0  0  0  0
  9 10  1  0  0  0  0
  9 11  1  0  0  0  0
  9 21  1  0  0  0  0
  7  8  1  0  0  0  0
  7  9  1  0  0  0  0
 25 26  1  0  0  0  0
 25 27  1  0  0  0  0
 25 28  1  0  0  0  0
 23 24  1  0  0  0  0
 23 25  1  0  0  0  0
M  END
$$$$
default_name
  -OEChem-01062215323D

 28 27  0     1  0  0  0  0  0999 V2000
   -3.2133   -3.5565    1.2809 H   0  0  0  0  0  0  0  0  0  0  0  0
   -3.1873   -2.5755    0.8089 C   0  0  0  0  0  0  0  0  0  0  0  0
   -3.8793   -1.9065    1.3169 H   0  0  0  0  0  0  0  0  0  0  0  0
   -3.4623   -2.6685   -0.2401 H   0  0  0  0  0  0  0  0  0  0  0  0
   -1.7863   -2.0195    0.9119 C   0  0  0  0  0  0  0  0  0  0  0  0
   -0.9073   -2.6615    1.4699 O   0  0  0  0  0  0  0  0  0  0  0  0
   -1.5803   -0.8195    0.3749 N   0  0  0  0  0  0  0  0  0  0  0  0
   -2.3603   -0.3345   -0.0451 H   0  0  0  0  0  0  0  0  0  0  0  0
   -0.2933   -0.1205    0.3719 C   0  0  1  0  0  0  0  0  0  0  0  0
   -0.4104    0.8244   -0.1607 H   0  0  0  0  0  0  0  0  0  0  0  0
    0.1135    0.1890    1.8271 C   0  0  0  0  0  0  0  0  0  0  0  0
    0.0922   -0.7450    2.3911 H   0  0  0  0  0  0  0  0  0  0  0  0
    1.1353    0.5710    1.8417 H   0  0  0  0  0  0  0  0  0  0  0  0
   -0.8002    1.2108    2.5260 C   0  0  0  0  0  0  0  0  0  0  0  0
   -0.7768    2.1586    1.9881 H   0  0  0  0  0  0  0  0  0  0  0  0
   -1.8211    0.8308    2.5346 H   0  0  0  0  0  0  0  0  0  0  0  0
   -0.3794    1.4708    3.9688 C   0  0  0  0  0  0  0  0  0  0  0  0
    0.4902    0.8569    4.5662 O   0  0  0  0  0  0  0  0  0  0  0  0
   -1.0499    2.4522    4.6004 O   0  0  0  0  0  0  0  0  0  0  0  0
   -0.6811    2.4794    5.4850 H   0  0  0  0  0  0  0  0  0  0  0  0
    0.7654   -0.9552   -0.3662 C   0  0  0  0  0  0  0  0  0  0  0  0
    0.4875   -1.4949   -1.4354 O   0  0  0  0  0  0  0  0  0  0  0  0
    1.9687   -1.0692    0.2087 N   0  0  0  0  0  0  0  0  0  0  0  0
    2.1301   -0.5790    1.0758 H   0  0  0  0  0  0  0  0  0  0  0  0
    3.0726   -1.8439   -0.3546 C   0  0  0  0  0  0  0  0  0  0  0  0
    3.3025   -1.4830   -1.3587 H   0  0  0  0  0  0  0  0  0  0  0  0
    3.9604   -1.7496    0.2723 H   0  0  0  0  0  0  0  0  0  0  0  0
    2.7883   -2.8959   -0.4212 H   0  0  0  0  0  0  0  0  0  0  0  0
  5  6  2  0  0  0  0
  5  7  1  0  0  0  0
  2  3  1  0  0  0  0
  2  4  1  0  0  0  0
  2  5  1  0  0  0  0
  1  2  1  0  0  0  0
 21 22  2  0  0  0  0
 21 23  1  0  0  0  0
 19 20  1  0  0  0  0
 17 18  2  0  0  0  0
 17 19  1  0  0  0  0
 14 15  1  0  0  0  0
 14 16  1  0  0  0  0
 14 17  1  0  0  0  0
 11 12  1  0  0  0  0
 11 13  1  0  0  0  0
 11 14  1  0  0  0  0
  9 10  1  0  0  0  0
  9 11  1  0  0  0  0
  9 21  1  0  0  0  0
  7  8  1  0  0  0  0
  7  9  1  0  0  0  0
 25 26  1  0  0  0  0
 25 27  1  0  0  0  0
 25 28  1  0  0  0  0
 23 24  1  0  0  0  0
 23 25  1  0  0  0  0
M  END
$$$$
default_name
  -OEChem-01062215323D

 28 27  0     1  0  0  0  0  0999 V2000
   -3.2133   -3.5565    1.2809 H   0  0  0  0  0  0  0  0  0  0  0  0
   -3.1873   -2.5755    0.8089 C   0  0  0  0  0  0  0  0  0  0  0  0
   -3.8793   -1.9065    1.3169 H   0  0  0  0  0  0  0  0  0  0  0  0
   -3.4623   -2.6685   -0.2401 H   0  0  0  0  0  0  0  0  0  0  0  0
   -1.7863   -2.0195    0.9119 C   0  0  0  0  0  0  0  0  0  0  0  0
   -0.9073   -2.6615    1.4699 O   0  0  0  0  0  0  0  0  0  0  0  0
   -1.5803   -0.8195    0.3749 N   0  0  0  0  0  0  0  0  0  0  0  0
   -2.3603   -0.3345   -0.0451 H   0  0  0  0  0  0  0  0  0  0  0  0
   -0.2933   -0.1205    0.3719 C   0  0  1  0  0  0  0  0  0  0  0  0
   -0.4104    0.8244   -0.1607 H   0  0  0  0  0  0  0  0  0  0  0  0
    0.1135    0.1890    1.8271 C   0  0  0  0  0  0  0  0  0  0  0  0
    0.0922   -0.7450    2.3911 H   0  0  0  0  0  0  0  0  0  0  0  0
    1.1353    0.5710    1.8417 H   0  0  0  0  0  0  0  0  0  0  0  0
   -0.8002    1.2108    2.5260 C   0  0  0  0  0  0  0  0  0  0  0  0
   -0.7768    2.1586    1.9881 H   0  0  0  0  0  0  0  0  0  0  0  0
   -1.8211    0.8308    2.5346 H   0  0  0  0  0  0  0  0  0  0  0  0
   -0.3794    1.4708    3.9688 C   0  0  0  0  0  0  0  0  0  0  0  0
    0.4902    0.8569    4.5662 O   0  0  0  0  0  0  0  0  0  0  0  0
   -1.0499    2.4522    4.6004 O   0  0  0  0  0  0  0  0  0  0  0  0
   -0.6811    2.4794    5.4850 H   0  0  0  0  0  0  0  0  0  0  0  0
    0.7654   -0.9552   -0.3662 C   0  0  0  0  0  0  0  0  0  0  0  0
    0.5946   -1.2628   -1.5443 O   0  0  0  0  0  0  0  0  0  0  0  0
    1.8471   -1.3288    0.3279 N   0  0  0  0  0  0  0  0  0  0  0  0
    1.9286   -1.0193    1.2848 H   0  0  0  0  0  0  0  0  0  0  0  0
    2.9304   -2.1407   -0.2229 C   0  0  0  0  0  0  0  0  0  0  0  0
    3.3489   -1.6499   -1.1035 H   0  0  0  0  0  0  0  0  0  0  0  0
    3.7177   -2.2765    0.5199 H   0  0  0  0  0  0  0  0  0  0  0  0
    2.5440   -3.1172   -0.5214 H   0  0  0  0  0  0  0  0  0  0  0  0
  5  6  2  0  0  0  0
  5  7  1  0  0  0  0
  2  3  1  0  0  0  0
  2  4  1  0  0  0  0
  2  5  1  0  0  0  0
  1  2  1  0  0  0  0
 21 22  2  0  0  0  0
 21 23  1  0  0  0  0
 19 20  1  0  0  0  0
 17 18  2  0  0  0  0
 17 19  1  0  0  0  0
 14 15  1  0  0  0  0
 14 16  1  0  0  0  0
 14 17  1  0  0  0  0
 11 12  1  0  0  0  0
 11 13  1  0  0  0  0
 11 14  1  0  0  0  0
  9 10  1  0  0  0  0
  9 11  1  0  0  0  0
  9 21  1  0  0  0  0
  7  8  1  0  0  0  0
  7  9  1  0  0  0  0
 25 26  1  0  0  0  0
 25 27  1  0  0  0  0
 25 28  1  0  0  0  0
 23 24  1  0  0  0  0
 23 25  1  0  0  0  0
M  END
$$$$
default_name
  -OEChem-01062215323D

 28 27  0     1  0  0  0  0  0999 V2000
   -3.2133   -3.5565    1.2809 H   0  0  0  0  0  0  0  0  0  0  0  0
   -3.1873   -2.5755    0.8089 C   0  0  0  0  0  0  0  0  0  0  0  0
   -3.8793   -1.9065    1.3169 H   0  0  0  0  0  0  0  0  0  0  0  0
   -3.4623   -2.6685   -0.2401 H   0  0  0  0  0  0  0  0  0  0  0  0
   -1.7863   -2.0195    0.9119 C   0  0  0  0  0  0  0  0  0  0  0  0
   -0.9073   -2.6615    1.4699 O   0  0  0  0  0  0  0  0  0  0  0  0
   -1.5803   -0.8195    0.3749 N   0  0  0  0  0  0  0  0  0  0  0  0
   -2.3603   -0.3345   -0.0451 H   0  0  0  0  0  0  0  0  0  0  0  0
   -0.2933   -0.1205    0.3719 C   0  0  1  0  0  0  0  0  0  0  0  0
   -0.4104    0.8244   -0.1607 H   0  0  0  0  0  0  0  0  0  0  0  0
    0.1135    0.1890    1.8271 C   0  0  0  0  0  0  0  0  0  0  0  0
    0.0922   -0.7450    2.3911 H   0  0  0  0  0  0  0  0  0  0  0  0
    1.1353    0.5710    1.8417 H   0  0  0  0  0  0  0  0  0  0  0  0
   -0.8002    1.2108    2.5260 C   0  0  0  0  0  0  0  0  0  0  0  0
   -0.7768    2.1586    1.9881 H   0  0  0  0  0  0  0  0  0  0  0  0
   -1.8211    0.8308    2.5346 H   0  0  0  0  0  0  0  0  0  0  0  0
   -0.3794    1.4708    3.9688 C   0  0  0  0  0  0  0  0  0  0  0  0
    0.4902    0.8569    4.5662 O   0  0  0  0  0  0  0  0  0  0  0  0
   -1.0499    2.4522    4.6004 O   0  0  0  0  0  0  0  0  0  0  0  0
   -0.6811    2.4794    5.4850 H   0  0  0  0  0  0  0  0  0  0  0  0
    0.7654   -0.9552   -0.3662 C   0  0  0  0  0  0  0  0  0  0  0  0
    0.7423   -1.0324   -1.5931 O   0  0  0  0  0  0  0  0  0  0  0  0
    1.6807   -1.5856    0.3796 N   0  0  0  0  0  0  0  0  0  0  0  0
    1.6500   -1.4568    1.3800 H   0  0  0  0  0  0  0  0  0  0  0  0
    2.7376   -2.4332   -0.1686 C   0  0  0  0  0  0  0  0  0  0  0  0
    3.3370   -1.8624   -0.8801 H   0  0  0  0  0  0  0  0  0  0  0  0
    3.3829   -2.7994    0.6311 H   0  0  0  0  0  0  0  0  0  0  0  0
    2.2945   -3.2827   -0.6920 H   0  0  0  0  0  0  0  0  0  0  0  0
  5  6  2  0  0  0  0
  5  7  1  0  0  0  0
  2  3  1  0  0  0  0
  2  4  1  0  0  0  0
  2  5  1  0  0  0  0
  1  2  1  0  0  0  0
 21 22  2  0  0  0  0
 21 23  1  0  0  0  0
 19 20  1  0  0  0  0
 17 18  2  0  0  0  0
 17 19  1  0  0  0  0
 14 15  1  0  0  0  0
 14 16  1  0  0  0  0
 14 17  1  0  0  0  0
 11 12  1  0  0  0  0
 11 13  1  0  0  0  0
 11 14  1  0  0  0  0
  9 10  1  0  0  0  0
  9 11  1  0  0  0  0
  9 21  1  0  0  0  0
  7  8  1  0  0  0  0
  7  9  1  0  0  0  0
 25 26  1  0  0  0  0
 25 27  1  0  0  0  0
 25 28  1  0  0  0  0
 23 24  1  0  0  0  0
 23 25  1  0  0  0  0
M  END
$$$$
default_name
  -OEChem-01062215323D

 28 27  0     1  0  0  0  0  0999 V2000
   -3.2133   -3.5565    1.2809 H   0  0  0  0  0  0  0  0  0  0  0  0
   -3.1873   -2.5755    0.8089 C   0  0  0  0  0  0  0  0  0  0  0  0
   -3.8793   -1.9065    1.3169 H   0  0  0  0  0  0  0  0  0  0  0  0
   -3.4623   -2.6685   -0.2401 H   0  0  0  0  0  0  0  0  0  0  0  0
   -1.7863   -2.0195    0.9119 C   0  0  0  0  0  0  0  0  0  0  0  0
   -0.9073   -2.6615    1.4699 O   0  0  0  0  0  0  0  0  0  0  0  0
   -1.5803   -0.8195    0.3749 N   0  0  0  0  0  0  0  0  0  0  0  0
   -2.3603   -0.3345   -0.0451 H   0  0  0  0  0  0  0  0  0  0  0  0
   -0.2933   -0.1205    0.3719 C   0  0  1  0  0  0  0  0  0  0  0  0
   -0.4104    0.8244   -0.1607 H   0  0  0  0  0  0  0  0  0  0  0  0
    0.1135    0.1890    1.8271 C   0  0  0  0  0  0  0  0  0  0  0  0
    0.0922   -0.7450    2.3911 H   0  0  0  0  0  0  0  0  0  0  0  0
    1.1353    0.5710    1.8417 H   0  0  0  0  0  0  0  0  0  0  0  0
   -0.8002    1.2108    2.5260 C   0  0  0  0  0  0  0  0  0  0  0  0
   -0.7768    2.1586    1.9881 H   0  0  0  0  0  0  0  0  0  0  0  0
   -1.8211    0.8308    2.5346 H   0  0  0  0  0  0  0  0  0  0  0  0
   -0.3794    1.4708    3.9688 C   0  0  0  0  0  0  0  0  0  0  0  0
    0.4902    0.8569    4.5662 O   0  0  0  0  0  0  0  0  0  0  0  0
   -1.0499    2.4522    4.6004 O   0  0  0  0  0  0  0  0  0  0  0  0
   -0.6811    2.4794    5.4850 H   0  0  0  0  0  0  0  0  0  0  0  0
    0.7654   -0.9552   -0.3662 C   0  0  0  0  0  0  0  0  0  0  0  0
    0.9203   -0.8196   -1.5784 O   0  0  0  0  0  0  0  0  0  0  0  0
    1.4807   -1.8223    0.3604 N   0  0  0  0  0  0  0  0  0  0  0  0
    1.3130   -1.8618    1.3547 H   0  0  0  0  0  0  0  0  0  0  0  0
    2.5074   -2.7014   -0.1954 C   0  0  0  0  0  0  0  0  0  0  0  0
    3.2678   -2.1060   -0.7039 H   0  0  0  0  0  0  0  0  0  0  0  0
    2.9788   -3.2828    0.5982 H   0  0  0  0  0  0  0  0  0  0  0  0
    2.0569   -3.3812   -0.9214 H   0  0  0  0  0  0  0  0  0  0  0  0
  5  6  2  0  0  0  0
  5  7  1  0  0  0  0
  2  3  1  0  0  0  0
  2  4  1  0  0  0  0
  2  5  1  0  0  0  0
  1  2  1  0  0  0  0
 21 22  2  0  0  0  0
 21 23  1  0  0  0  0
 19 20  1  0  0  0  0
 17 18  2  0  0  0  0
 17 19  1  0  0  0  0
 14 15  1  0  0  0  0
 14 16  1  0  0  0  0
 14 17  1  0  0  0  0
 11 12  1  0  0  0  0
 11 13  1  0  0  0  0
 11 14  1  0  0  0  0
  9 10  1  0  0  0  0
  9 11  1  0  0  0  0
  9 21  1  0  0  0  0
  7  8  1  0  0  0  0
  7  9  1  0  0  0  0
 25 26  1  0  0  0  0
 25 27  1  0  0  0  0
 25 28  1  0  0  0  0
 23 24  1  0  0  0  0
 23 25  1  0  0  0  0
M  END
$$$$
default_name
  -OEChem-01062215323D

 28 27  0     1  0  0  0  0  0999 V2000
   -3.2133   -3.5565    1.2809 H   0  0  0  0  0  0  0  0  0  0  0  0
   -3.1873   -2.5755    0.8089 C   0  0  0  0  0  0  0  0  0  0  0  0
   -3.8793   -1.9065    1.3169 H   0  0  0  0  0  0  0  0  0  0  0  0
   -3.4623   -2.6685   -0.2401 H   0  0  0  0  0  0  0  0  0  0  0  0
   -1.7863   -2.0195    0.9119 C   0  0  0  0  0  0  0  0  0  0  0  0
   -0.9073   -2.6615    1.4699 O   0  0  0  0  0  0  0  0  0  0  0  0
   -1.5803   -0.8195    0.3749 N   0  0  0  0  0  0  0  0  0  0  0  0
   -2.3603   -0.3345   -0.0451 H   0  0  0  0  0  0  0  0  0  0  0  0
   -0.2933   -0.1205    0.3719 C   0  0  1  0  0  0  0  0  0  0  0  0
   -0.4104    0.8244   -0.1607 H   0  0  0  0  0  0  0  0  0  0  0  0
    0.1135    0.1890    1.8271 C   0  0  0  0  0  0  0  0  0  0  0  0
    0.0922   -0.7450    2.3911 H   0  0  0  0  0  0  0  0  0  0  0  0
    1.1353    0.5710    1.8417 H   0  0  0  0  0  0  0  0  0  0  0  0
   -0.8002    1.2108    2.5260 C   0  0  0  0  0  0  0  0  0  0  0  0
   -0.7768    2.1586    1.9881 H   0  0  0  0  0  0  0  0  0  0  0  0
   -1.8211    0.8308    2.5346 H   0  0  0  0  0  0  0  0  0  0  0  0
   -0.3794    1.4708    3.9688 C   0  0  0  0  0  0  0  0  0  0  0  0
    0.4902    0.8569    4.5662 O   0  0  0  0  0  0  0  0  0  0  0  0
   -1.0499    2.4522    4.6004 O   0  0  0  0  0  0  0  0  0  0  0  0
   -0.6811    2.4794    5.4850 H   0  0  0  0  0  0  0  0  0  0  0  0
    0.7654   -0.9552   -0.3662 C   0  0  0  0  0  0  0  0  0  0  0  0
    1.1167   -0.6388   -1.5012 O   0  0  0  0  0  0  0  0  0  0  0  0
    1.2609   -2.0226    0.2716 N   0  0  0  0  0  0  0  0  0  0  0  0
    0.9408   -2.2066    1.2107 H   0  0  0  0  0  0  0  0  0  0  0  0
    2.2555   -2.9271   -0.3015 C   0  0  0  0  0  0  0  0  0  0  0  0
    3.1459   -2.3641   -0.5869 H   0  0  0  0  0  0  0  0  0  0  0  0
    2.5331   -3.6935    0.4235 H   0  0  0  0  0  0  0  0  0  0  0  0
    1.8475   -3.4059   -1.1939 H   0  0  0  0  0  0  0  0  0  0  0  0
  5  6  2  0  0  0  0
  5  7  1  0  0  0  0
  2  3  1  0  0  0  0
  2  4  1  0  0  0  0
  2  5  1  0  0  0  0
  1  2  1  0  0  0  0
 21 22  2  0  0  0  0
 21 23  1  0  0  0  0
 19 20  1  0  0  0  0
 17 18  2  0  0  0  0
 17 19  1  0  0  0  0
 14 15  1  0  0  0  0
 14 16  1  0  0  0  0
 14 17  1  0  0  0  0
 11 12  1  0  0  0  0
 11 13  1  0  0  0  0
 11 14  1  0  0  0  0
  9 10  1  0  0  0  0
  9 11  1  0  0  0  0
  9 21  1  0  0  0  0
  7  8  1  0  0  0  0
  7  9  1  0  0  0  0
 25 26  1  0  0  0  0
 25 27  1  0  0  0  0
 25 28  1  0  0  0  0
 23 24  1  0  0  0  0
 23 25  1  0  0  0  0
M  END
$$$$
default_name
  -OEChem-01062215323D

 28 27  0     1  0  0  0  0  0999 V2000
   -3.2133   -3.5565    1.2809 H   0  0  0  0  0  0  0  0  0  0  0  0
   -3.1873   -2.5755    0.8089 C   0  0  0  0  0  0  0  0  0  0  0  0
   -3.8793   -1.9065    1.3169 H   0  0  0  0  0  0  0  0  0  0  0  0
   -3.4623   -2.6685   -0.2401 H   0  0  0  0  0  0  0  0  0  0  0  0
   -1.7863   -2.0195    0.9119 C   0  0  0  0  0  0  0  0  0  0  0  0
   -0.9073   -2.6615    1.4699 O   0  0  0  0  0  0  0  0  0  0  0  0
   -1.5803   -0.8195    0.3749 N   0  0  0  0  0  0  0  0  0  0  0  0
   -2.3603   -0.3345   -0.0451 H   0  0  0  0  0  0  0  0  0  0  0  0
   -0.2933   -0.1205    0.3719 C   0  0  1  0  0  0  0  0  0  0  0  0
   -0.4104    0.8244   -0.1607 H   0  0  0  0  0  0  0  0  0  0  0  0
    0.1135    0.1890    1.8271 C   0  0  0  0  0  0  0  0  0  0  0  0
    0.0922   -0.7450    2.3911 H   0  0  0  0  0  0  0  0  0  0  0  0
    1.1353    0.5710    1.8417 H   0  0  0  0  0  0  0  0  0  0  0  0
   -0.8002    1.2108    2.5260 C   0  0  0  0  0  0  0  0  0  0  0  0
   -0.7768    2.1586    1.9881 H   0  0  0  0  0  0  0  0  0  0  0  0
   -1.8211    0.8308    2.5346 H   0  0  0  0  0  0  0  0  0  0  0  0
   -0.3794    1.4708    3.9688 C   0  0  0  0  0  0  0  0  0  0  0  0
    0.4902    0.8569    4.5662 O   0  0  0  0  0  0  0  0  0  0  0  0
   -1.0499    2.4522    4.6004 O   0  0  0  0  0  0  0  0  0  0  0  0
   -0.6811    2.4794    5.4850 H   0  0  0  0  0  0  0  0  0  0  0  0
    0.7654   -0.9552   -0.3662 C   0  0  0  0  0  0  0  0  0  0  0  0
    1.3181   -0.5023   -1.3668 O   0  0  0  0  0  0  0  0  0  0  0  0
    1.0361   -2.1729    0.1192 N   0  0  0  0  0  0  0  0  0  0  0  0
    0.5586   -2.4676    0.9578 H   0  0  0  0  0  0  0  0  0  0  0  0
    1.9990   -3.0949   -0.4796 C   0  0  0  0  0  0  0  0  0  0  0  0
    2.9796   -2.6191   -0.5370 H   0  0  0  0  0  0  0  0  0  0  0  0
    2.0761   -4.0038    0.1189 H   0  0  0  0  0  0  0  0  0  0  0  0
    1.6804   -3.3551   -1.4909 H   0  0  0  0  0  0  0  0  0  0  0  0
  5  6  2  0  0  0  0
  5  7  1  0  0  0  0
  2  3  1  0  0  0  0
  2  4  1  0  0  0  0
  2  5  1  0  0  0  0
  1  2  1  0  0  0  0
 21 22  2  0  0  0  0
 21 23  1  0  0  0  0
 19 20  1  0  0  0  0
 17 18  2  0  0  0  0
 17 19  1  0  0  0  0
 14 15  1  0  0  0  0
 14 16  1  0  0  0  0
 14 17  1  0  0  0  0
 11 12  1  0  0  0  0
 11 13  1  0  0  0  0
 11 14  1  0  0  0  0
  9 10  1  0  0  0  0
  9 11  1  0  0  0  0
  9 21  1  0  0  0  0
  7  8  1  0  0  0  0
  7  9  1  0  0  0  0
 25 26  1  0  0  0  0
 25 27  1  0  0  0  0
 25 28  1  0  0  0  0
 23 24  1  0  0  0  0
 23 25  1  0  0  0  0
M  END
$$$$
default_name
  -OEChem-01062215323D

 28 27  0     1  0  0  0  0  0999 V2000
   -3.2133   -3.5565    1.2809 H   0  0  0  0  0  0  0  0  0  0  0  0
   -3.1873   -2.5755    0.8089 C   0  0  0  0  0  0  0  0  0  0  0  0
   -3.8793   -1.9065    1.3169 H   0  0  0  0  0  0  0  0  0  0  0  0
   -3.4623   -2.6685   -0.2401 H   0  0  0  0  0  0  0  0  0  0  0  0
   -1.7863   -2.0195    0.9119 C   0  0  0  0  0  0  0  0  0  0  0  0
   -0.9073   -2.6615    1.4699 O   0  0  0  0  0  0  0  0  0  0  0  0
   -1.5803   -0.8195    0.3749 N   0  0  0  0  0  0  0  0  0  0  0  0
   -2.3603   -0.3345   -0.0451 H   0  0  0  0  0  0  0  0  0  0  0  0
   -0.2933   -0.1205    0.3719 C   0  0  1  0  0  0  0  0  0  0  0  0
   -0.4104    0.8244   -0.1607 H   0  0  0  0  0  0  0  0  0  0  0  0
    0.1135    0.1890    1.8271 C   0  0  0  0  0  0  0  0  0  0  0  0
    0.0922   -0.7450    2.3911 H   0  0  0  0  0  0  0  0  0  0  0  0
    1.1353    0.5710    1.8417 H   0  0  0  0  0  0  0  0  0  0  0  0
   -0.8002    1.2108    2.5260 C   0  0  0  0  0  0  0  0  0  0  0  0
   -0.7768    2.1586    1.9881 H   0  0  0  0  0  0  0  0  0  0  0  0
   -1.8211    0.8308    2.5346 H   0  0  0  0  0  0  0  0  0  0  0  0
   -0.3794    1.4708    3.9688 C   0  0  0  0  0  0  0  0  0  0  0  0
    0.4902    0.8569    4.5662 O   0  0  0  0  0  0  0  0  0  0  0  0
   -1.0499    2.4522    4.6004 O   0  0  0  0  0  0  0  0  0  0  0  0
   -0.6811    2.4794    5.4850 H   0  0  0  0  0  0  0  0  0  0  0  0
    0.7654   -0.9552   -0.3662 C   0  0  0  0  0  0  0  0  0  0  0  0
    1.5106   -0.4194   -1.1843 O   0  0  0  0  0  0  0  0  0  0  0  0
    0.8217   -2.2629   -0.0864 N   0  0  0  0  0  0  0  0  0  0  0  0
    0.1926   -2.6272    0.6133 H   0  0  0  0  0  0  0  0  0  0  0  0
    1.7554   -3.1934   -0.7176 C   0  0  0  0  0  0  0  0  0  0  0  0
    2.7803   -2.8536   -0.5577 H   0  0  0  0  0  0  0  0  0  0  0  0
    1.6389   -4.1923   -0.2949 H   0  0  0  0  0  0  0  0  0  0  0  0
    1.5671   -3.2323   -1.7923 H   0  0  0  0  0  0  0  0  0  0  0  0
  5  6  2  0  0  0  0
  5  7  1  0  0  0  0
  2  3  1  0  0  0  0
  2  4  1  0  0  0  0
  2  5  1  0  0  0  0
  1  2  1  0  0  0  0
 21 22  2  0  0  0  0
 21 23  1  0  0  0  0
 19 20  1  0  0  0  0
 17 18  2  0  0  0  0
 17 19  1  0  0  0  0
 14 15  1  0  0  0  0
 14 16  1  0  0  0  0
 14 17  1  0  0  0  0
 11 12  1  0  0  0  0
 11 13  1  0  0  0  0
 11 14  1  0  0  0  0
  9 10  1  0  0  0  0
  9 11  1  0  0  0  0
  9 21  1  0  0  0  0
  7  8  1  0  0  0  0
  7  9  1  0  0  0  0
 25 26  1  0  0  0  0
 25 27  1  0  0  0  0
 25 28  1  0  0  0  0
 23 24  1  0  0  0  0
 23 25  1  0  0  0  0
M  END
$$$$
default_name
  -OEChem-01062215323D

 28 27  0     1  0  0  0  0  0999 V2000
   -3.2133   -3.5565    1.2809 H   0  0  0  0  0  0  0  0  0  0  0  0
   -3.1873   -2.5755    0.8089 C   0  0  0  0  0  0  0  0  0  0  0  0
   -3.8793   -1.9065    1.3169 H   0  0  0  0  0  0  0  0  0  0  0  0
   -3.4623   -2.6685   -0.2401 H   0  0  0  0  0  0  0  0  0  0  0  0
   -1.7863   -2.0195    0.9119 C   0  0  0  0  0  0  0  0  0  0  0  0
   -0.9073   -2.6615    1.4699 O   0  0  0  0  0  0  0  0  0  0  0  0
   -1.5803   -0.8195    0.3749 N   0  0  0  0  0  0  0  0  0  0  0  0
   -2.3603   -0.3345   -0.0451 H   0  0  0  0  0  0  0  0  0  0  0  0
   -0.2933   -0.1205    0.3719 C   0  0  1  0  0  0  0  0  0  0  0  0
   -0.4104    0.8244   -0.1607 H   0  0  0  0  0  0  0  0  0  0  0  0
    0.1135    0.1890    1.8271 C   0  0  0  0  0  0  0  0  0  0  0  0
    0.0922   -0.7450    2.3911 H   0  0  0  0  0  0  0  0  0  0  0  0
    1.1353    0.5710    1.8417 H   0  0  0  0  0  0  0  0  0  0  0  0
   -0.8002    1.2108    2.5260 C   0  0  0  0  0  0  0  0  0  0  0  0
   -0.7768    2.1586    1.9881 H   0  0  0  0  0  0  0  0  0  0  0  0
   -1.8211    0.8308    2.5346 H   0  0  0  0  0  0  0  0  0  0  0  0
   -0.3794    1.4708    3.9688 C   0  0  0  0  0  0  0  0  0  0  0  0
    0.4902    0.8569    4.5662 O   0  0  0  0  0  0  0  0  0  0  0  0
   -1.0499    2.4522    4.6004 O   0  0  0  0  0  0  0  0  0  0  0  0
   -0.6811    2.4794    5.4850 H   0  0  0  0  0  0  0  0  0  0  0  0
    0.7654   -0.9552   -0.3662 C   0  0  0  0  0  0  0  0  0  0  0  0
    1.6813   -0.3959   -0.9662 O   0  0  0  0  0  0  0  0  0  0  0  0
    0.6324   -2.2866   -0.3312 N   0  0  0  0  0  0  0  0  0  0  0  0
   -0.1324   -2.6745    0.2007 H   0  0  0  0  0  0  0  0  0  0  0  0
    1.5414   -3.2158   -0.9993 C   0  0  0  0  0  0  0  0  0  0  0  0
    2.5615   -3.0517   -0.6474 H   0  0  0  0  0  0  0  0  0  0  0  0
    1.2513   -4.2463   -0.7897 H   0  0  0  0  0  0  0  0  0  0  0  0
    1.5152   -3.0459   -2.0774 H   0  0  0  0  0  0  0  0  0  0  0  0
  5  6  2  0  0  0  0
  5  7  1  0  0  0  0
  2  3  1  0  0  0  0
  2  4  1  0  0  0  0
  2  5  1  0  0  0  0
  1  2  1  0  0  0  0
 21 22  2  0  0  0  0
 21 23  1  0  0  0  0
 19 20  1  0  0  0  0
 17 18  2  0  0  0  0
 17 19  1  0  0  0  0
 14 15  1  0  0  0  0
 14 16  1  0  0  0  0
 14 17  1  0  0  0  0
 11 12  1  0  0  0  0
 11 13  1  0  0  0  0
 11 14  1  0  0  0  0
  9 10  1  0  0  0  0
  9 11  1  0  0  0  0
  9 21  1  0  0  0  0
  7  8  1  0  0  0  0
  7  9  1  0  0  0  0
 25 26  1  0  0  0  0
 25 27  1  0  0  0  0
 25 28  1  0  0  0  0
 23 24  1  0  0  0  0
 23 25  1  0  0  0  0
M  END
$$$$
default_name
  -OEChem-01062215323D

 28 27  0     1  0  0  0  0  0999 V2000
   -3.2133   -3.5565    1.2809 H   0  0  0  0  0  0  0  0  0  0  0  0
   -3.1873   -2.5755    0.8089 C   0  0  0  0  0  0  0  0  0  0  0  0
   -3.8793   -1.9065    1.3169 H   0  0  0  0  0  0  0  0  0  0  0  0
   -3.4623   -2.6685   -0.2401 H   0  0  0  0  0  0  0  0  0  0  0  0
   -1.7863   -2.0195    0.9119 C   0  0  0  0  0  0  0  0  0  0  0  0
   -0.9073   -2.6615    1.4699 O   0  0  0  0  0  0  0  0  0  0  0  0
   -1.5803   -0.8195    0.3749 N   0  0  0  0  0  0  0  0  0  0  0  0
   -2.3603   -0.3345   -0.0451 H   0  0  0  0  0  0  0  0  0  0  0  0
   -0.2933   -0.1205    0.3719 C   0  0  1  0  0  0  0  0  0  0  0  0
   -0.4104    0.8244   -0.1607 H   0  0  0  0  0  0  0  0  0  0  0  0
    0.1135    0.1890    1.8271 C   0  0  0  0  0  0  0  0  0  0  0  0
    0.0922   -0.7450    2.3911 H   0  0  0  0  0  0  0  0  0  0  0  0
    1.1353    0.5710    1.8417 H   0  0  0  0  0  0  0  0  0  0  0  0
   -0.8002    1.2108    2.5260 C   0  0  0  0  0  0  0  0  0  0  0  0
   -0.7768    2.1586    1.9881 H   0  0  0  0  0  0  0  0  0  0  0  0
   -1.8211    0.8308    2.5346 H   0  0  0  0  0  0  0  0  0  0  0  0
   -0.3794    1.4708    3.9688 C   0  0  0  0  0  0  0  0  0  0  0  0
    0.4902    0.8569    4.5662 O   0  0  0  0  0  0  0  0  0  0  0  0
   -1.0499    2.4522    4.6004 O   0  0  0  0  0  0  0  0  0  0  0  0
   -0.6811    2.4794    5.4850 H   0  0  0  0  0  0  0  0  0  0  0  0
    0.7654   -0.9552   -0.3662 C   0  0  0  0  0  0  0  0  0  0  0  0
    1.8184   -0.4332   -0.7274 O   0  0  0  0  0  0  0  0  0  0  0  0
    0.4809   -2.2423   -0.5985 N   0  0  0  0  0  0  0  0  0  0  0  0
   -0.3942   -2.6062   -0.2520 H   0  0  0  0  0  0  0  0  0  0  0  0
    1.3714   -3.1606   -1.3054 C   0  0  0  0  0  0  0  0  0  0  0  0
    2.3382   -3.1999   -0.8002 H   0  0  0  0  0  0  0  0  0  0  0  0
    0.9398   -4.1621   -1.3318 H   0  0  0  0  0  0  0  0  0  0  0  0
    1.5284   -2.8086   -2.3269 H   0  0  0  0  0  0  0  0  0  0  0  0
  5  6  2  0  0  0  0
  5  7  1  0  0  0  0
  2  3  1  0  0  0  0
  2  4  1  0  0  0  0
  2  5  1  0  0  0  0
  1  2  1  0  0  0  0
 21 22  2  0  0  0  0
 21 23  1  0  0  0  0
 19 20  1  0  0  0  0
 17 18  2  0  0  0  0
 17 19  1  0  0  0  0
 14 15  1  0  0  0  0
 14 16  1  0  0  0  0
 14 17  1  0  0  0  0
 11 12  1  0  0  0  0
 11 13  1  0  0  0  0
 11 14  1  0  0  0  0
  9 10  1  0  0  0  0
  9 11  1  0  0  0  0
  9 21  1  0  0  0  0
  7  8  1  0  0  0  0
  7  9  1  0  0  0  0
 25 26  1  0  0  0  0
 25 27  1  0  0  0  0
 25 28  1  0  0  0  0
 23 24  1  0  0  0  0
 23 25  1  0  0  0  0
M  END
$$$$
default_name
  -OEChem-01062215323D

 28 27  0     1  0  0  0  0  0999 V2000
   -3.2133   -3.5565    1.2809 H   0  0  0  0  0  0  0  0  0  0  0  0
   -3.1873   -2.5755    0.8089 C   0  0  0  0  0  0  0  0  0  0  0  0
   -3.8793   -1.9065    1.3169 H   0  0  0  0  0  0  0  0  0  0  0  0
   -3.4623   -2.6685   -0.2401 H   0  0  0  0  0  0  0  0  0  0  0  0
   -1.7863   -2.0195    0.9119 C   0  0  0  0  0  0  0  0  0  0  0  0
   -0.9073   -2.6615    1.4699 O   0  0  0  0  0  0  0  0  0  0  0  0
   -1.5803   -0.8195    0.3749 N   0  0  0  0  0  0  0  0  0  0  0  0
   -2.3603   -0.3345   -0.0451 H   0  0  0  0  0  0  0  0  0  0  0  0
   -0.2933   -0.1205    0.3719 C   0  0  1  0  0  0  0  0  0  0  0  0
   -0.4104    0.8244   -0.1607 H   0  0  0  0  0  0  0  0  0  0  0  0
    0.1135    0.1890    1.8271 C   0  0  0  0  0  0  0  0  0  0  0  0
    0.0922   -0.7450    2.3911 H   0  0  0  0  0  0  0  0  0  0  0  0
    1.1353    0.5710    1.8417 H   0  0  0  0  0  0  0  0  0  0  0  0
   -0.8002    1.2108    2.5260 C   0  0  0  0  0  0  0  0  0  0  0  0
   -0.7768    2.1586    1.9881 H   0  0  0  0  0  0  0  0  0  0  0  0
   -1.8211    0.8308    2.5346 H   0  0  0  0  0  0  0  0  0  0  0  0
   -0.3794    1.4708    3.9688 C   0  0  0  0  0  0  0  0  0  0  0  0
    0.4902    0.8569    4.5662 O   0  0  0  0  0  0  0  0  0  0  0  0
   -1.0499    2.4522    4.6004 O   0  0  0  0  0  0  0  0  0  0  0  0
   -0.6811    2.4794    5.4850 H   0  0  0  0  0  0  0  0  0  0  0  0
    0.7654   -0.9552   -0.3662 C   0  0  0  0  0  0  0  0  0  0  0  0
    1.9126   -0.5288   -0.4841 O   0  0  0  0  0  0  0  0  0  0  0  0
    0.3777   -2.1331   -0.8701 N   0  0  0  0  0  0  0  0  0  0  0  0
   -0.5749   -2.4269   -0.7139 H   0  0  0  0  0  0  0  0  0  0  0  0
    1.2572   -3.0316   -1.6152 C   0  0  0  0  0  0  0  0  0  0  0  0
    2.1255   -3.2880   -1.0056 H   0  0  0  0  0  0  0  0  0  0  0  0
    0.7255   -3.9454   -1.8841 H   0  0  0  0  0  0  0  0  0  0  0  0
    1.6057   -2.5365   -2.5237 H   0  0  0  0  0  0  0  0  0  0  0  0
  5  6  2  0  0  0  0
  5  7  1  0  0  0  0
  2  3  1  0  0  0  0
  2  4  1  0  0  0  0
  2  5  1  0  0  0  0
  1  2  1  0  0  0  0
 21 22  2  0  0  0  0
 21 23  1  0  0  0  0
 19 20  1  0  0  0  0
 17 18  2  0  0  0  0
 17 19  1  0  0  0  0
 14 15  1  0  0  0  0
 14 16  1  0  0  0  0
 14 17  1  0  0  0  0
 11 12  1  0  0  0  0
 11 13  1  0  0  0  0
 11 14  1  0  0  0  0
  9 10  1  0  0  0  0
  9 11  1  0  0  0  0
  9 21  1  0  0  0  0
  7  8  1  0  0  0  0
  7  9  1  0  0  0  0
 25 26  1  0  0  0  0
 25 27  1  0  0  0  0
 25 28  1  0  0  0  0
 23 24  1  0  0  0  0
 23 25  1  0  0  0  0
M  END
$$$$
default_name
  -OEChem-01062215323D

 28 27  0     1  0  0  0  0  0999 V2000
   -3.2133   -3.5565    1.2809 H   0  0  0  0  0  0  0  0  0  0  0  0
   -3.1873   -2.5755    0.8089 C   0  0  0  0  0  0  0  0  0  0  0  0
   -3.8793   -1.9065    1.3169 H   0  0  0  0  0  0  0  0  0  0  0  0
   -3.4623   -2.6685   -0.2401 H   0  0  0  0  0  0  0  0  0  0  0  0
   -1.7863   -2.0195    0.9119 C   0  0  0  0  0  0  0  0  0  0  0  0
   -0.9073   -2.6615    1.4699 O   0  0  0  0  0  0  0  0  0  0  0  0
   -1.5803   -0.8195    0.3749 N   0  0  0  0  0  0  0  0  0  0  0  0
   -2.3603   -0.3345   -0.0451 H   0  0  0  0  0  0  0  0  0  0  0  0
   -0.2933   -0.1205    0.3719 C   0  0  1  0  0  0  0  0  0  0  0  0
   -0.4104    0.8244   -0.1607 H   0  0  0  0  0  0  0  0  0  0  0  0
    0.1135    0.1890    1.8271 C   0  0  0  0  0  0  0  0  0  0  0  0
    0.0922   -0.7450    2.3911 H   0  0  0  0  0  0  0  0  0  0  0  0
    1.1353    0.5710    1.8417 H   0  0  0  0  0  0  0  0  0  0  0  0
   -0.8002    1.2108    2.5260 C   0  0  0  0  0  0  0  0  0  0  0  0
   -0.7768    2.1586    1.9881 H   0  0  0  0  0  0  0  0  0  0  0  0
   -1.8211    0.8308    2.5346 H   0  0  0  0  0  0  0  0  0  0  0  0
   -0.3794    1.4708    3.9688 C   0  0  0  0  0  0  0  0  0  0  0  0
    0.4902    0.8569    4.5662 O   0  0  0  0  0  0  0  0  0  0  0  0
   -1.0499    2.4522    4.6004 O   0  0  0  0  0  0  0  0  0  0  0  0
   -0.6811    2.4794    5.4850 H   0  0  0  0  0  0  0  0  0  0  0  0
    0.7654   -0.9552   -0.3662 C   0  0  0  0  0  0  0  0  0  0  0  0
    1.9575   -0.6763   -0.2529 O   0  0  0  0  0  0  0  0  0  0  0  0
    0.3298   -1.9663   -1.1275 N   0  0  0  0  0  0  0  0  0  0  0  0
   -0.6623   -2.1490   -1.1536 H   0  0  0  0  0  0  0  0  0  0  0  0
    1.2064   -2.8375   -1.9075 C   0  0  0  0  0  0  0  0  0  0  0  0
    1.9380   -3.3100   -1.2496 H   0  0  0  0  0  0  0  0  0  0  0  0
    0.6231   -3.6110   -2.4091 H   0  0  0  0  0  0  0  0  0  0  0  0
    1.7418   -2.2483   -2.6545 H   0  0  0  0  0  0  0  0  0  0  0  0
  5  6  2  0  0  0  0
  5  7  1  0  0  0  0
  2  3  1  0  0  0  0
  2  4  1  0  0  0  0
  2  5  1  0  0  0  0
  1  2  1  0  0  0  0
 21 22  2  0  0  0  0
 21 23  1  0  0  0  0
 19 20  1  0  0  0  0
 17 18  2  0  0  0  0
 17 19  1  0  0  0  0
 14 15  1  0  0  0  0
 14 16  1  0  0  0  0
 14 17  1  0  0  0  0
 11 12  1  0  0  0  0
 11 13  1  0  0  0  0
 11 14  1  0  0  0  0
  9 10  1  0  0  0  0
  9 11  1  0  0  0  0
  9 21  1  0  0  0  0
  7  8  1  0  0  0  0
  7  9  1  0  0  0  0
 25 26  1  0  0  0  0
 25 27  1  0  0  0  0
 25 28  1  0  0  0  0
 23 24  1  0  0  0  0
 23 25  1  0  0  0  0
M  END
$$$$
default_name
  -OEChem-01062215323D

 28 27  0     1  0  0  0  0  0999 V2000
   -3.2133   -3.5565    1.2809 H   0  0  0  0  0  0  0  0  0  0  0  0
   -3.1873   -2.5755    0.8089 C   0  0  0  0  0  0  0  0  0  0  0  0
   -3.8793   -1.9065    1.3169 H   0  0  0  0  0  0  0  0  0  0  0  0
   -3.4623   -2.6685   -0.2401 H   0  0  0  0  0  0  0  0  0  0  0  0
   -1.7863   -2.0195    0.9119 C   0  0  0  0  0  0  0  0  0  0  0  0
   -0.9073   -2.6615    1.4699 O   0  0  0  0  0  0  0  0  0  0  0  0
   -1.5803   -0.8195    0.3749 N   0  0  0  0  0  0  0  0  0  0  0  0
   -2.3603   -0.3345   -0.0451 H   0  0  0  0  0  0  0  0  0  0  0  0
   -0.2933   -0.1205    0.3719 C   0  0  1  0  0  0  0  0  0  0  0  0
   -0.4104    0.8244   -0.1607 H   0  0  0  0  0  0  0  0  0  0  0  0
    0.1135    0.1890    1.8271 C   0  0  0  0  0  0  0  0  0  0  0  0
    0.0922   -0.7450    2.3911 H   0  0  0  0  0  0  0  0  0  0  0  0
    1.1353    0.5710    1.8417 H   0  0  0  0  0  0  0  0  0  0  0  0
   -0.8002    1.2108    2.5260 C   0  0  0  0  0  0  0  0  0  0  0  0
   -0.7768    2.1586    1.9881 H   0  0  0  0  0  0  0  0  0  0  0  0
   -1.8211    0.8308    2.5346 H   0  0  0  0  0  0  0  0  0  0  0  0
   -0.3794    1.4708    3.9688 C   0  0  0  0  0  0  0  0  0  0  0  0
    0.4902    0.8569    4.5662 O   0  0  0  0  0  0  0  0  0  0  0  0
   -1.0499    2.4522    4.6004 O   0  0  0  0  0  0  0  0  0  0  0  0
   -0.6811    2.4794    5.4850 H   0  0  0  0  0  0  0  0  0  0  0  0
    0.7654   -0.9552   -0.3662 C   0  0  0  0  0  0  0  0  0  0  0  0
    1.9500   -0.8656   -0.0496 O   0  0  0  0  0  0  0  0  0  0  0  0
    0.3403   -1.7534   -1.3531 N   0  0  0  0  0  0  0  0  0  0  0  0
   -0.6503   -1.7913   -1.5409 H   0  0  0  0  0  0  0  0  0  0  0  0
    1.2225   -2.5917   -2.1624 C   0  0  0  0  0  0  0  0  0  0  0  0
    1.7885   -3.2645   -1.5155 H   0  0  0  0  0  0  0  0  0  0  0  0
    0.6396   -3.1817   -2.8710 H   0  0  0  0  0  0  0  0  0  0  0  0
    1.9275   -1.9634   -2.7103 H   0  0  0  0  0  0  0  0  0  0  0  0
  5  6  2  0  0  0  0
  5  7  1  0  0  0  0
  2  3  1  0  0  0  0
  2  4  1  0  0  0  0
  2  5  1  0  0  0  0
  1  2  1  0  0  0  0
 21 22  2  0  0  0  0
 21 23  1  0  0  0  0
 19 20  1  0  0  0  0
 17 18  2  0  0  0  0
 17 19  1  0  0  0  0
 14 15  1  0  0  0  0
 14 16  1  0  0  0  0
 14 17  1  0  0  0  0
 11 12  1  0  0  0  0
 11 13  1  0  0  0  0
 11 14  1  0  0  0  0
  9 10  1  0  0  0  0
  9 11  1  0  0  0  0
  9 21  1  0  0  0  0
  7  8  1  0  0  0  0
  7  9  1  0  0  0  0
 25 26  1  0  0  0  0
 25 27  1  0  0  0  0
 25 28  1  0  0  0  0
 23 24  1  0  0  0  0
 23 25  1  0  0  0  0
M  END
$$$$
default_name
  -OEChem-01062215323D

 28 27  0     1  0  0  0  0  0999 V2000
   -3.2133   -3.5565    1.2809 H   0  0  0  0  0  0  0  0  0  0  0  0
   -3.1873   -2.5755    0.8089 C   0  0  0  0  0  0  0  0  0  0  0  0
   -3.8793   -1.9065    1.3169 H   0  0  0  0  0  0  0  0  0  0  0  0
   -3.4623   -2.6685   -0.2401 H   0  0  0  0  0  0  0  0  0  0  0  0
   -1.7863   -2.0195    0.9119 C   0  0  0  0  0  0  0  0  0  0  0  0
   -0.9073   -2.6615    1.4699 O   0  0  0  0  0  0  0  0  0  0  0  0
   -1.5803   -0.8195    0.3749 N   0  0  0  0  0  0  0  0  0  0  0  0
   -2.3603   -0.3345   -0.0451 H   0  0  0  0  0  0  0  0  0  0  0  0
   -0.2933   -0.1205    0.3719 C   0  0  1  0  0  0  0  0  0  0  0  0
   -0.4104    0.8244   -0.1607 H   0  0  0  0  0  0  0  0  0  0  0  0
    0.1135    0.1890    1.8271 C   0  0  0  0  0  0  0  0  0  0  0  0
    0.0922   -0.7450    2.3911 H   0  0  0  0  0  0  0  0  0  0  0  0
    1.1353    0.5710    1.8417 H   0  0  0  0  0  0  0  0  0  0  0  0
   -0.8002    1.2108    2.5260 C   0  0  0  0  0  0  0  0  0  0  0  0
   -0.7768    2.1586    1.9881 H   0  0  0  0  0  0  0  0  0  0  0  0
   -1.8211    0.8308    2.5346 H   0  0  0  0  0  0  0  0  0  0  0  0
   -0.3794    1.4708    3.9688 C   0  0  0  0  0  0  0  0  0  0  0  0
    0.4902    0.8569    4.5662 O   0  0  0  0  0  0  0  0  0  0  0  0
   -1.0499    2.4522    4.6004 O   0  0  0  0  0  0  0  0  0  0  0  0
   -0.6811    2.4794    5.4850 H   0  0  0  0  0  0  0  0  0  0  0  0
    0.7654   -0.9552   -0.3662 C   0  0  0  0  0  0  0  0  0  0  0  0
    1.8907   -1.0837    0.1121 O   0  0  0  0  0  0  0  0  0  0  0  0
    0.4088   -1.5088   -1.5315 N   0  0  0  0  0  0  0  0  0  0  0  0
   -0.5399   -1.3782   -1.8497 H   0  0  0  0  0  0  0  0  0  0  0  0
    1.3045   -2.3108   -2.3624 C   0  0  0  0  0  0  0  0  0  0  0  0
    1.6870   -3.1546   -1.7853 H   0  0  0  0  0  0  0  0  0  0  0  0
    0.7738   -2.6867   -3.2383 H   0  0  0  0  0  0  0  0  0  0  0  0
    2.1502   -1.7014   -2.6873 H   0  0  0  0  0  0  0  0  0  0  0  0
  5  6  2  0  0  0  0
  5  7  1  0  0  0  0
  2  3  1  0  0  0  0
  2  4  1  0  0  0  0
  2  5  1  0  0  0  0
  1  2  1  0  0  0  0
 21 22  2  0  0  0  0
 21 23  1  0  0  0  0
 19 20  1  0  0  0  0
 17 18  2  0  0  0  0
 17 19  1  0  0  0  0
 14 15  1  0  0  0  0
 14 16  1  0  0  0  0
 14 17  1  0  0  0  0
 11 12  1  0  0  0  0
 11 13  1  0  0  0  0
 11 14  1  0  0  0  0
  9 10  1  0  0  0  0
  9 11  1  0  0  0  0
  9 21  1  0  0  0  0
  7  8  1  0  0  0  0
  7  9  1  0  0  0  0
 25 26  1  0  0  0  0
 25 27  1  0  0  0  0
 25 28  1  0  0  0  0
 23 24  1  0  0  0  0
 23 25  1  0  0  0  0
M  END
$$$$
default_name
  -OEChem-01062215323D

 28 27  0     1  0  0  0  0  0999 V2000
   -3.2133   -3.5565    1.2809 H   0  0  0  0  0  0  0  0  0  0  0  0
   -3.1873   -2.5755    0.8089 C   0  0  0  0  0  0  0  0  0  0  0  0
   -3.8793   -1.9065    1.3169 H   0  0  0  0  0  0  0  0  0  0  0  0
   -3.4623   -2.6685   -0.2401 H   0  0  0  0  0  0  0  0  0  0  0  0
   -1.7863   -2.0195    0.9119 C   0  0  0  0  0  0  0  0  0  0  0  0
   -0.9073   -2.6615    1.4699 O   0  0  0  0  0  0  0  0  0  0  0  0
   -1.5803   -0.8195    0.3749 N   0  0  0  0  0  0  0  0  0  0  0  0
   -2.3603   -0.3345   -0.0451 H   0  0  0  0  0  0  0  0  0  0  0  0
   -0.2933   -0.1205    0.3719 C   0  0  1  0  0  0  0  0  0  0  0  0
   -0.4104    0.8244   -0.1607 H   0  0  0  0  0  0  0  0  0  0  0  0
    0.1135    0.1890    1.8271 C   0  0  0  0  0  0  0  0  0  0  0  0
    0.0922   -0.7450    2.3911 H   0  0  0  0  0  0  0  0  0  0  0  0
    1.1353    0.5710    1.8417 H   0  0  0  0  0  0  0  0  0  0  0  0
   -0.8002    1.2108    2.5260 C   0  0  0  0  0  0  0  0  0  0  0  0
   -0.7768    2.1586    1.9881 H   0  0  0  0  0  0  0  0  0  0  0  0
   -1.8211    0.8308    2.5346 H   0  0  0  0  0  0  0  0  0  0  0  0
   -0.3794    1.4708    3.9688 C   0  0  0  0  0  0  0  0  0  0  0  0
    0.4902    0.8569    4.5662 O   0  0  0  0  0  0  0  0  0  0  0  0
   -1.0499    2.4522    4.6004 O   0  0  0  0  0  0  0  0  0  0  0  0
   -0.6811    2.4794    5.4850 H   0  0  0  0  0  0  0  0  0  0  0  0
    0.7654   -0.9552   -0.3662 C   0  0  0  0  0  0  0  0  0  0  0  0
    1.7836   -1.3159    0.2210 O   0  0  0  0  0  0  0  0  0  0  0  0
    0.5303   -1.2492   -1.6507 N   0  0  0  0  0  0  0  0  0  0  0  0
   -0.3385   -0.9379   -2.0587 H   0  0  0  0  0  0  0  0  0  0  0  0
    1.4467   -2.0140   -2.4941 C   0  0  0  0  0  0  0  0  0  0  0  0
    1.6407   -2.9877   -2.0406 H   0  0  0  0  0  0  0  0  0  0  0  0
    1.0166   -2.1598   -3.4860 H   0  0  0  0  0  0  0  0  0  0  0  0
    2.3945   -1.4801   -2.5870 H   0  0  0  0  0  0  0  0  0  0  0  0
  5  6  2  0  0  0  0
  5  7  1  0  0  0  0
  2  3  1  0  0  0  0
  2  4  1  0  0  0  0
  2  5  1  0  0  0  0
  1  2  1  0  0  0  0
 21 22  2  0  0  0  0
 21 23  1  0  0  0  0
 19 20  1  0  0  0  0
 17 18  2  0  0  0  0
 17 19  1  0  0  0  0
 14 15  1  0  0  0  0
 14 16  1  0  0  0  0
 14 17  1  0  0  0  0
 11 12  1  0  0  0  0
 11 13  1  0  0  0  0
 11 14  1  0  0  0  0
  9 10  1  0  0  0  0
  9 11  1  0  0  0  0
  9 21  1  0  0  0  0
  7  8  1  0  0  0  0
  7  9  1  0  0  0  0
 25 26  1  0  0  0  0
 25 27  1  0  0  0  0
 25 28  1  0  0  0  0
 23 24  1  0  0  0  0
 23 25  1  0  0  0  0
M  END
$$$$
default_name
  -OEChem-01062215323D

 28 27  0     1  0  0  0  0  0999 V2000
   -3.2133   -3.5565    1.2809 H   0  0  0  0  0  0  0  0  0  0  0  0
   -3.1873   -2.5755    0.8089 C   0  0  0  0  0  0  0  0  0  0  0  0
   -3.8793   -1.9065    1.3169 H   0  0  0  0  0  0  0  0  0  0  0  0
   -3.4623   -2.6685   -0.2401 H   0  0  0  0  0  0  0  0  0  0  0  0
   -1.7863   -2.0195    0.9119 C   0  0  0  0  0  0  0  0  0  0  0  0
   -0.9073   -2.6615    1.4699 O   0  0  0  0  0  0  0  0  0  0  0  0
   -1.5803   -0.8195    0.3749 N   0  0  0  0  0  0  0  0  0  0  0  0
   -2.3603   -0.3345   -0.0451 H   0  0  0  0  0  0  0  0  0  0  0  0
   -0.2933   -0.1205    0.3719 C   0  0  1  0  0  0  0  0  0  0  0  0
   -0.4104    0.8244   -0.1607 H   0  0  0  0  0  0  0  0  0  0  0  0
    0.1135    0.1890    1.8271 C   0  0  0  0  0  0  0  0  0  0  0  0
    0.0922   -0.7450    2.3911 H   0  0  0  0  0  0  0  0  0  0  0  0
    1.1353    0.5710    1.8417 H   0  0  0  0  0  0  0  0  0  0  0  0
   -0.8002    1.2108    2.5260 C   0  0  0  0  0  0  0  0  0  0  0  0
   -0.7768    2.1586    1.9881 H   0  0  0  0  0  0  0  0  0  0  0  0
   -1.8211    0.8308    2.5346 H   0  0  0  0  0  0  0  0  0  0  0  0
   -0.3794    1.4708    3.9688 C   0  0  0  0  0  0  0  0  0  0  0  0
    0.4902    0.8569    4.5662 O   0  0  0  0  0  0  0  0  0  0  0  0
   -1.0499    2.4522    4.6004 O   0  0  0  0  0  0  0  0  0  0  0  0
   -0.6811    2.4794    5.4850 H   0  0  0  0  0  0  0  0  0  0  0  0
    0.7654   -0.9552   -0.3662 C   0  0  0  0  0  0  0  0  0  0  0  0
    1.6360   -1.5462    0.2697 O   0  0  0  0  0  0  0  0  0  0  0  0
    0.6968   -0.9924   -1.7024 N   0  0  0  0  0  0  0  0  0  0  0  0
   -0.0598   -0.5004   -2.1538 H   0  0  0  0  0  0  0  0  0  0  0  0
    1.6395   -1.7215   -2.5484 C   0  0  0  0  0  0  0  0  0  0  0  0
    1.6525   -2.7752   -2.2639 H   0  0  0  0  0  0  0  0  0  0  0  0
    1.3514   -1.6369   -3.5972 H   0  0  0  0  0  0  0  0  0  0  0  0
    2.6440   -1.3146   -2.4164 H   0  0  0  0  0  0  0  0  0  0  0  0
  5  6  2  0  0  0  0
  5  7  1  0  0  0  0
  2  3  1  0  0  0  0
  2  4  1  0  0  0  0
  2  5  1  0  0  0  0
  1  2  1  0  0  0  0
 21 22  2  0  0  0  0
 21 23  1  0  0  0  0
 19 20  1  0  0  0  0
 17 18  2  0  0  0  0
 17 19  1  0  0  0  0
 14 15  1  0  0  0  0
 14 16  1  0  0  0  0
 14 17  1  0  0  0  0
 11 12  1  0  0  0  0
 11 13  1  0  0  0  0
 11 14  1  0  0  0  0
  9 10  1  0  0  0  0
  9 11  1  0  0  0  0
  9 21  1  0  0  0  0
  7  8  1  0  0  0  0
  7  9  1  0  0  0  0
 25 26  1  0  0  0  0
 25 27  1  0  0  0  0
 25 28  1  0  0  0  0
 23 24  1  0  0  0  0
 23 25  1  0  0  0  0
M  END
$$$$
default_name
  -OEChem-01062215323D

 28 27  0     1  0  0  0  0  0999 V2000
   -3.2133   -3.5565    1.2809 H   0  0  0  0  0  0  0  0  0  0  0  0
   -3.1873   -2.5755    0.8089 C   0  0  0  0  0  0  0  0  0  0  0  0
   -3.8793   -1.9065    1.3169 H   0  0  0  0  0  0  0  0  0  0  0  0
   -3.4623   -2.6685   -0.2401 H   0  0  0  0  0  0  0  0  0  0  0  0
   -1.7863   -2.0195    0.9119 C   0  0  0  0  0  0  0  0  0  0  0  0
   -0.9073   -2.6615    1.4699 O   0  0  0  0  0  0  0  0  0  0  0  0
   -1.5803   -0.8195    0.3749 N   0  0  0  0  0  0  0  0  0  0  0  0
   -2.3603   -0.3345   -0.0451 H   0  0  0  0  0  0  0  0  0  0  0  0
   -0.2933   -0.1205    0.3719 C   0  0  1  0  0  0  0  0  0  0  0  0
   -0.4104    0.8244   -0.1607 H   0  0  0  0  0  0  0  0  0  0  0  0
    0.1135    0.1890    1.8271 C   0  0  0  0  0  0  0  0  0  0  0  0
    0.0922   -0.7450    2.3911 H   0  0  0  0  0  0  0  0  0  0  0  0
    1.1353    0.5710    1.8417 H   0  0  0  0  0  0  0  0  0  0  0  0
   -0.8002    1.2108    2.5260 C   0  0  0  0  0  0  0  0  0  0  0  0
   -0.7768    2.1586    1.9881 H   0  0  0  0  0  0  0  0  0  0  0  0
   -1.8211    0.8308    2.5346 H   0  0  0  0  0  0  0  0  0  0  0  0
   -0.3794    1.4708    3.9688 C   0  0  0  0  0  0  0  0  0  0  0  0
    0.4902    0.8569    4.5662 O   0  0  0  0  0  0  0  0  0  0  0  0
   -1.0499    2.4522    4.6004 O   0  0  0  0  0  0  0  0  0  0  0  0
   -0.6811    2.4794    5.4850 H   0  0  0  0  0  0  0  0  0  0  0  0
    0.7654   -0.9552   -0.3662 C   0  0  0  0  0  0  0  0  0  0  0  0
    1.4579   -1.7591    0.2550 O   0  0  0  0  0  0  0  0  0  0  0  0
    0.8967   -0.7558   -1.6832 N   0  0  0  0  0  0  0  0  0  0  0  0
    0.2771   -0.0954   -2.1285 H   0  0  0  0  0  0  0  0  0  0  0  0
    1.8697   -1.4533   -2.5216 C   0  0  0  0  0  0  0  0  0  0  0  0
    1.7217   -2.5316   -2.4401 H   0  0  0  0  0  0  0  0  0  0  0  0
    1.7554   -1.1535   -3.5643 H   0  0  0  0  0  0  0  0  0  0  0  0
    2.8815   -1.2162   -2.1871 H   0  0  0  0  0  0  0  0  0  0  0  0
  5  6  2  0  0  0  0
  5  7  1  0  0  0  0
  2  3  1  0  0  0  0
  2  4  1  0  0  0  0
  2  5  1  0  0  0  0
  1  2  1  0  0  0  0
 21 22  2  0  0  0  0
 21 23  1  0  0  0  0
 19 20  1  0  0  0  0
 17 18  2  0  0  0  0
 17 19  1  0  0  0  0
 14 15  1  0  0  0  0
 14 16  1  0  0  0  0
 14 17  1  0  0  0  0
 11 12  1  0  0  0  0
 11 13  1  0  0  0  0
 11 14  1  0  0  0  0
  9 10  1  0  0  0  0
  9 11  1  0  0  0  0
  9 21  1  0  0  0  0
  7  8  1  0  0  0  0
  7  9  1  0  0  0  0
 25 26  1  0  0  0  0
 25 27  1  0  0  0  0
 25 28  1  0  0  0  0
 23 24  1  0  0  0  0
 23 25  1  0  0  0  0
M  END
$$$$
default_name
  -OEChem-01062215323D

 28 27  0     1  0  0  0  0  0999 V2000
   -3.2133   -3.5565    1.2809 H   0  0  0  0  0  0  0  0  0  0  0  0
   -3.1873   -2.5755    0.8089 C   0  0  0  0  0  0  0  0  0  0  0  0
   -3.8793   -1.9065    1.3169 H   0  0  0  0  0  0  0  0  0  0  0  0
   -3.4623   -2.6685   -0.2401 H   0  0  0  0  0  0  0  0  0  0  0  0
   -1.7863   -2.0195    0.9119 C   0  0  0  0  0  0  0  0  0  0  0  0
   -0.9073   -2.6615    1.4699 O   0  0  0  0  0  0  0  0  0  0  0  0
   -1.5803   -0.8195    0.3749 N   0  0  0  0  0  0  0  0  0  0  0  0
   -2.3603   -0.3345   -0.0451 H   0  0  0  0  0  0  0  0  0  0  0  0
   -0.2933   -0.1205    0.3719 C   0  0  1  0  0  0  0  0  0  0  0  0
   -0.4104    0.8244   -0.1607 H   0  0  0  0  0  0  0  0  0  0  0  0
    0.1135    0.1890    1.8271 C   0  0  0  0  0  0  0  0  0  0  0  0
    0.0922   -0.7450    2.3911 H   0  0  0  0  0  0  0  0  0  0  0  0
    1.1353    0.5710    1.8417 H   0  0  0  0  0  0  0  0  0  0  0  0
   -0.8002    1.2108    2.5260 C   0  0  0  0  0  0  0  0  0  0  0  0
   -0.7768    2.1586    1.9881 H   0  0  0  0  0  0  0  0  0  0  0  0
   -1.8211    0.8308    2.5346 H   0  0  0  0  0  0  0  0  0  0  0  0
   -0.3794    1.4708    3.9688 C   0  0  0  0  0  0  0  0  0  0  0  0
    0.4902    0.8569    4.5662 O   0  0  0  0  0  0  0  0  0  0  0  0
   -1.0499    2.4522    4.6004 O   0  0  0  0  0  0  0  0  0  0  0  0
   -0.6811    2.4794    5.4850 H   0  0  0  0  0  0  0  0  0  0  0  0
    0.7654   -0.9552   -0.3662 C   0  0  0  0  0  0  0  0  0  0  0  0
    1.2615   -1.9399    0.1778 O   0  0  0  0  0  0  0  0  0  0  0  0
    1.1166   -0.5555   -1.5944 N   0  0  0  0  0  0  0  0  0  0  0  0
    0.6494    0.2493   -1.9845 H   0  0  0  0  0  0  0  0  0  0  0  0
    2.1216   -1.2275   -2.4155 C   0  0  0  0  0  0  0  0  0  0  0  0
    1.8436   -2.2735   -2.5571 H   0  0  0  0  0  0  0  0  0  0  0  0
    2.2011   -0.7427   -3.3896 H   0  0  0  0  0  0  0  0  0  0  0  0
    3.0910   -1.1915   -1.9146 H   0  0  0  0  0  0  0  0  0  0  0  0
  5  6  2  0  0  0  0
  5  7  1  0  0  0  0
  2  3  1  0  0  0  0
  2  4  1  0  0  0  0
  2  5  1  0  0  0  0
  1  2  1  0  0  0  0
 21 22  2  0  0  0  0
 21 23  1  0  0  0  0
 19 20  1  0  0  0  0
 17 18  2  0  0  0  0
 17 19  1  0  0  0  0
 14 15  1  0  0  0  0
 14 16  1  0  0  0  0
 14 17  1  0  0  0  0
 11 12  1  0  0  0  0
 11 13  1  0  0  0  0
 11 14  1  0  0  0  0
  9 10  1  0  0  0  0
  9 11  1  0  0  0  0
  9 21  1  0  0  0  0
  7  8  1  0  0  0  0
  7  9  1  0  0  0  0
 25 26  1  0  0  0  0
 25 27  1  0  0  0  0
 25 28  1  0  0  0  0
 23 24  1  0  0  0  0
 23 25  1  0  0  0  0
M  END
$$$$
default_name
  -OEChem-01062215323D

 28 27  0     1  0  0  0  0  0999 V2000
   -3.2133   -3.5565    1.2809 H   0  0  0  0  0  0  0  0  0  0  0  0
   -3.1873   -2.5755    0.8089 C   0  0  0  0  0  0  0  0  0  0  0  0
   -3.8793   -1.9065    1.3169 H   0  0  0  0  0  0  0  0  0  0  0  0
   -3.4623   -2.6685   -0.2401 H   0  0  0  0  0  0  0  0  0  0  0  0
   -1.7863   -2.0195    0.9119 C   0  0  0  0  0  0  0  0  0  0  0  0
   -0.9073   -2.6615    1.4699 O   0  0  0  0  0  0  0  0  0  0  0  0
   -1.5803   -0.8195    0.3749 N   0  0  0  0  0  0  0  0  0  0  0  0
   -2.3603   -0.3345   -0.0451 H   0  0  0  0  0  0  0  0  0  0  0  0
   -0.2933   -0.1205    0.3719 C   0  0  1  0  0  0  0  0  0  0  0  0
   -0.4104    0.8244   -0.1607 H   0  0  0  0  0  0  0  0  0  0  0  0
    0.1135    0.1890    1.8271 C   0  0  0  0  0  0  0  0  0  0  0  0
    0.0922   -0.7450    2.3911 H   0  0  0  0  0  0  0  0  0  0  0  0
    1.1353    0.5710    1.8417 H   0  0  0  0  0  0  0  0  0  0  0  0
   -0.8002    1.2108    2.5260 C   0  0  0  0  0  0  0  0  0  0  0  0
   -0.7768    2.1586    1.9881 H   0  0  0  0  0  0  0  0  0  0  0  0
   -1.8211    0.8308    2.5346 H   0  0  0  0  0  0  0  0  0  0  0  0
   -0.3794    1.4708    3.9688 C   0  0  0  0  0  0  0  0  0  0  0  0
    0.4902    0.8569    4.5662 O   0  0  0  0  0  0  0  0  0  0  0  0
   -1.0499    2.4522    4.6004 O   0  0  0  0  0  0  0  0  0  0  0  0
   -0.6811    2.4794    5.4850 H   0  0  0  0  0  0  0  0  0  0  0  0
    0.7654   -0.9552   -0.3662 C   0  0  0  0  0  0  0  0  0  0  0  0
    1.0602   -2.0764    0.0434 O   0  0  0  0  0  0  0  0  0  0  0  0
    1.3414   -0.4052   -1.4420 N   0  0  0  0  0  0  0  0  0  0  0  0
    1.0315    0.5104   -1.7317 H   0  0  0  0  0  0  0  0  0  0  0  0
    2.3781   -1.0597   -2.2374 C   0  0  0  0  0  0  0  0  0  0  0  0
    2.0099   -2.0185   -2.6070 H   0  0  0  0  0  0  0  0  0  0  0  0
    2.6582   -0.4325   -3.0849 H   0  0  0  0  0  0  0  0  0  0  0  0
    3.2581   -1.2423   -1.6175 H   0  0  0  0  0  0  0  0  0  0  0  0
  5  6  2  0  0  0  0
  5  7  1  0  0  0  0
  2  3  1  0  0  0  0
  2  4  1  0  0  0  0
  2  5  1  0  0  0  0
  1  2  1  0  0  0  0
 21 22  2  0  0  0  0
 21 23  1  0  0  0  0
 19 20  1  0  0  0  0
 17 18  2  0  0  0  0
 17 19  1  0  0  0  0
 14 15  1  0  0  0  0
 14 16  1  0  0  0  0
 14 17  1  0  0  0  0
 11 12  1  0  0  0  0
 11 13  1  0  0  0  0
 11 14  1  0  0  0  0
  9 10  1  0  0  0  0
  9 11  1  0  0  0  0
  9 21  1  0  0  0  0
  7  8  1  0  0  0  0
  7  9  1  0  0  0  0
 25 26  1  0  0  0  0
 25 27  1  0  0  0  0
 25 28  1  0  0  0  0
 23 24  1  0  0  0  0
 23 25  1  0  0  0  0
M  END
$$$$
default_name
  -OEChem-01062215323D

 28 27  0     1  0  0  0  0  0999 V2000
   -3.2133   -3.5565    1.2809 H   0  0  0  0  0  0  0  0  0  0  0  0
   -3.1873   -2.5755    0.8089 C   0  0  0  0  0  0  0  0  0  0  0  0
   -3.8793   -1.9065    1.3169 H   0  0  0  0  0  0  0  0  0  0  0  0
   -3.4623   -2.6685   -0.2401 H   0  0  0  0  0  0  0  0  0  0  0  0
   -1.7863   -2.0195    0.9119 C   0  0  0  0  0  0  0  0  0  0  0  0
   -0.9073   -2.6615    1.4699 O   0  0  0  0  0  0  0  0  0  0  0  0
   -1.5803   -0.8195    0.3749 N   0  0  0  0  0  0  0  0  0  0  0  0
   -2.3603   -0.3345   -0.0451 H   0  0  0  0  0  0  0  0  0  0  0  0
   -0.2933   -0.1205    0.3719 C   0  0  1  0  0  0  0  0  0  0  0  0
   -0.4104    0.8244   -0.1607 H   0  0  0  0  0  0  0  0  0  0  0  0
    0.1135    0.1890    1.8271 C   0  0  0  0  0  0  0  0  0  0  0  0
    0.0922   -0.7450    2.3911 H   0  0  0  0  0  0  0  0  0  0  0  0
    1.1353    0.5710    1.8417 H   0  0  0  0  0  0  0  0  0  0  0  0
   -0.8002    1.2108    2.5260 C   0  0  0  0  0  0  0  0  0  0  0  0
   -0.7768    2.1586    1.9881 H   0  0  0  0  0  0  0  0  0  0  0  0
   -1.8211    0.8308    2.5346 H   0  0  0  0  0  0  0  0  0  0  0  0
   -0.3794    1.4708    3.9688 C   0  0  0  0  0  0  0  0  0  0  0  0
    0.4902    0.8569    4.5662 O   0  0  0  0  0  0  0  0  0  0  0  0
   -1.0499    2.4522    4.6004 O   0  0  0  0  0  0  0  0  0  0  0  0
   -0.6811    2.4794    5.4850 H   0  0  0  0  0  0  0  0  0  0  0  0
    0.7654   -0.9552   -0.3662 C   0  0  0  0  0  0  0  0  0  0  0  0
    0.8676   -2.1592   -0.1390 O   0  0  0  0  0  0  0  0  0  0  0  0
    1.5558   -0.3151   -1.2364 N   0  0  0  0  0  0  0  0  0  0  0  0
    1.3976    0.6700   -1.3872 H   0  0  0  0  0  0  0  0  0  0  0  0
    2.6217   -0.9613   -1.9994 C   0  0  0  0  0  0  0  0  0  0  0  0
    2.2092   -1.7840   -2.5864 H   0  0  0  0  0  0  0  0  0  0  0  0
    3.0954   -0.2440   -2.6711 H   0  0  0  0  0  0  0  0  0  0  0  0
    3.3714   -1.3650   -1.3162 H   0  0  0  0  0  0  0  0  0  0  0  0
  5  6  2  0  0  0  0
  5  7  1  0  0  0  0
  2  3  1  0  0  0  0
  2  4  1  0  0  0  0
  2  5  1  0  0  0  0
  1  2  1  0  0  0  0
 21 22  2  0  0  0  0
 21 23  1  0  0  0  0
 19 20  1  0  0  0  0
 17 18  2  0  0  0  0
 17 19  1  0  0  0  0
 14 15  1  0  0  0  0
 14 16  1  0  0  0  0
 14 17  1  0  0  0  0
 11 12  1  0  0  0  0
 11 13  1  0  0  0  0
 11 14  1  0  0  0  0
  9 10  1  0  0  0  0
  9 11  1  0  0  0  0
  9 21  1  0  0  0  0
  7  8  1  0  0  0  0
  7  9  1  0  0  0  0
 25 26  1  0  0  0  0
 25 27  1  0  0  0  0
 25 28  1  0  0  0  0
 23 24  1  0  0  0  0
 23 25  1  0  0  0  0
M  END
$$$$
default_name
  -OEChem-01062215323D

 28 27  0     1  0  0  0  0  0999 V2000
   -3.2133   -3.5565    1.2809 H   0  0  0  0  0  0  0  0  0  0  0  0
   -3.1873   -2.5755    0.8089 C   0  0  0  0  0  0  0  0  0  0  0  0
   -3.8793   -1.9065    1.3169 H   0  0  0  0  0  0  0  0  0  0  0  0
   -3.4623   -2.6685   -0.2401 H   0  0  0  0  0  0  0  0  0  0  0  0
   -1.7863   -2.0195    0.9119 C   0  0  0  0  0  0  0  0  0  0  0  0
   -0.9073   -2.6615    1.4699 O   0  0  0  0  0  0  0  0  0  0  0  0
   -1.5803   -0.8195    0.3749 N   0  0  0  0  0  0  0  0  0  0  0  0
   -2.3603   -0.3345   -0.0451 H   0  0  0  0  0  0  0  0  0  0  0  0
   -0.2933   -0.1205    0.3719 C   0  0  1  0  0  0  0  0  0  0  0  0
   -0.4104    0.8244   -0.1607 H   0  0  0  0  0  0  0  0  0  0  0  0
    0.1135    0.1890    1.8271 C   0  0  0  0  0  0  0  0  0  0  0  0
    0.0922   -0.7450    2.3911 H   0  0  0  0  0  0  0  0  0  0  0  0
    1.1353    0.5710    1.8417 H   0  0  0  0  0  0  0  0  0  0  0  0
   -0.8002    1.2108    2.5260 C   0  0  0  0  0  0  0  0  0  0  0  0
   -0.7768    2.1586    1.9881 H   0  0  0  0  0  0  0  0  0  0  0  0
   -1.8211    0.8308    2.5346 H   0  0  0  0  0  0  0  0  0  0  0  0
   -0.3794    1.4708    3.9688 C   0  0  0  0  0  0  0  0  0  0  0  0
    0.4902    0.8569    4.5662 O   0  0  0  0  0  0  0  0  0  0  0  0
   -1.0499    2.4522    4.6004 O   0  0  0  0  0  0  0  0  0  0  0  0
   -0.6811    2.4794    5.4850 H   0  0  0  0  0  0  0  0  0  0  0  0
    0.7654   -0.9552   -0.3662 C   0  0  0  0  0  0  0  0  0  0  0  0
    0.6970   -2.1828   -0.3571 O   0  0  0  0  0  0  0  0  0  0  0  0
    1.7451   -0.2914   -0.9916 N   0  0  0  0  0  0  0  0  0  0  0  0
    1.7225    0.7172   -0.9745 H   0  0  0  0  0  0  0  0  0  0  0  0
    2.8357   -0.9389   -1.7178 C   0  0  0  0  0  0  0  0  0  0  0  0
    2.4280   -1.5859   -2.4966 H   0  0  0  0  0  0  0  0  0  0  0  0
    3.4829   -0.1899   -2.1763 H   0  0  0  0  0  0  0  0  0  0  0  0
    3.4233   -1.5514   -1.0310 H   0  0  0  0  0  0  0  0  0  0  0  0
  5  6  2  0  0  0  0
  5  7  1  0  0  0  0
  2  3  1  0  0  0  0
  2  4  1  0  0  0  0
  2  5  1  0  0  0  0
  1  2  1  0  0  0  0
 21 22  2  0  0  0  0
 21 23  1  0  0  0  0
 19 20  1  0  0  0  0
 17 18  2  0  0  0  0
 17 19  1  0  0  0  0
 14 15  1  0  0  0  0
 14 16  1  0  0  0  0
 14 17  1  0  0  0  0
 11 12  1  0  0  0  0
 11 13  1  0  0  0  0
 11 14  1  0  0  0  0
  9 10  1  0  0  0  0
  9 11  1  0  0  0  0
  9 21  1  0  0  0  0
  7  8  1  0  0  0  0
  7  9  1  0  0  0  0
 25 26  1  0  0  0  0
 25 27  1  0  0  0  0
 25 28  1  0  0  0  0
 23 24  1  0  0  0  0
 23 25  1  0  0  0  0
M  END
$$$$
default_name
  -OEChem-01062215323D

 28 27  0     1  0  0  0  0  0999 V2000
   -3.2133   -3.5565    1.2809 H   0  0  0  0  0  0  0  0  0  0  0  0
   -3.1873   -2.5755    0.8089 C   0  0  0  0  0  0  0  0  0  0  0  0
   -3.8793   -1.9065    1.3169 H   0  0  0  0  0  0  0  0  0  0  0  0
   -3.4623   -2.6685   -0.2401 H   0  0  0  0  0  0  0  0  0  0  0  0
   -1.7863   -2.0195    0.9119 C   0  0  0  0  0  0  0  0  0  0  0  0
   -0.9073   -2.6615    1.4699 O   0  0  0  0  0  0  0  0  0  0  0  0
   -1.5803   -0.8195    0.3749 N   0  0  0  0  0  0  0  0  0  0  0  0
   -2.3603   -0.3345   -0.0451 H   0  0  0  0  0  0  0  0  0  0  0  0
   -0.2933   -0.1205    0.3719 C   0  0  1  0  0  0  0  0  0  0  0  0
   -0.4104    0.8244   -0.1607 H   0  0  0  0  0  0  0  0  0  0  0  0
    0.1135    0.1890    1.8271 C   0  0  0  0  0  0  0  0  0  0  0  0
    0.0922   -0.7450    2.3911 H   0  0  0  0  0  0  0  0  0  0  0  0
    1.1353    0.5710    1.8417 H   0  0  0  0  0  0  0  0  0  0  0  0
   -0.8002    1.2108    2.5260 C   0  0  0  0  0  0  0  0  0  0  0  0
   -0.7768    2.1586    1.9881 H   0  0  0  0  0  0  0  0  0  0  0  0
   -1.8211    0.8308    2.5346 H   0  0  0  0  0  0  0  0  0  0  0  0
   -0.3794    1.4708    3.9688 C   0  0  0  0  0  0  0  0  0  0  0  0
    0.4902    0.8569    4.5662 O   0  0  0  0  0  0  0  0  0  0  0  0
   -1.0499    2.4522    4.6004 O   0  0  0  0  0  0  0  0  0  0  0  0
   -0.6811    2.4794    5.4850 H   0  0  0  0  0  0  0  0  0  0  0  0
    0.7654   -0.9552   -0.3662 C   0  0  0  0  0  0  0  0  0  0  0  0
    0.5599   -2.1455   -0.5959 O   0  0  0  0  0  0  0  0  0  0  0  0
    1.8966   -0.3357   -0.7243 N   0  0  0  0  0  0  0  0  0  0  0  0
    1.9843    0.6489   -0.5218 H   0  0  0  0  0  0  0  0  0  0  0  0
    3.0057   -0.9941   -1.4116 C   0  0  0  0  0  0  0  0  0  0  0  0
    2.6513   -1.4377   -2.3438 H   0  0  0  0  0  0  0  0  0  0  0  0
    3.7945   -0.2742   -1.6343 H   0  0  0  0  0  0  0  0  0  0  0  0
    3.4101   -1.7887   -0.7815 H   0  0  0  0  0  0  0  0  0  0  0  0
  5  6  2  0  0  0  0
  5  7  1  0  0  0  0
  2  3  1  0  0  0  0
  2  4  1  0  0  0  0
  2  5  1  0  0  0  0
  1  2  1  0  0  0  0
 21 22  2  0  0  0  0
 21 23  1  0  0  0  0
 19 20  1  0  0  0  0
 17 18  2  0  0  0  0
 17 19  1  0  0  0  0
 14 15  1  0  0  0  0
 14 16  1  0  0  0  0
 14 17  1  0  0  0  0
 11 12  1  0  0  0  0
 11 13  1  0  0  0  0
 11 14  1  0  0  0  0
  9 10  1  0  0  0  0
  9 11  1  0  0  0  0
  9 21  1  0  0  0  0
  7  8  1  0  0  0  0
  7  9  1  0  0  0  0
 25 26  1  0  0  0  0
 25 27  1  0  0  0  0
 25 28  1  0  0  0  0
 23 24  1  0  0  0  0
 23 25  1  0  0  0  0
M  END
$$$$
default_name
  -OEChem-01062215323D

 28 27  0     1  0  0  0  0  0999 V2000
   -3.2133   -3.5565    1.2809 H   0  0  0  0  0  0  0  0  0  0  0  0
   -3.1873   -2.5755    0.8089 C   0  0  0  0  0  0  0  0  0  0  0  0
   -3.8793   -1.9065    1.3169 H   0  0  0  0  0  0  0  0  0  0  0  0
   -3.4623   -2.6685   -0.2401 H   0  0  0  0  0  0  0  0  0  0  0  0
   -1.7863   -2.0195    0.9119 C   0  0  0  0  0  0  0  0  0  0  0  0
   -0.9073   -2.6615    1.4699 O   0  0  0  0  0  0  0  0  0  0  0  0
   -1.5803   -0.8195    0.3749 N   0  0  0  0  0  0  0  0  0  0  0  0
   -2.3603   -0.3345   -0.0451 H   0  0  0  0  0  0  0  0  0  0  0  0
   -0.2933   -0.1205    0.3719 C   0  0  1  0  0  0  0  0  0  0  0  0
   -0.4612    0.9190    0.0868 H   0  0  0  0  0  0  0  0  0  0  0  0
    0.2946   -0.1445    1.7976 C   0  0  0  0  0  0  0  0  0  0  0  0
    0.3293   -1.1826    2.1326 H   0  0  0  0  0  0  0  0  0  0  0  0
    1.3159    0.2381    1.7723 H   0  0  0  0  0  0  0  0  0  0  0  0
   -0.5105    0.6788    2.8179 C   0  0  0  0  0  0  0  0  0  0  0  0
   -0.5397    1.7244    2.5110 H   0  0  0  0  0  0  0  0  0  0  0  0
   -1.5281    0.2928    2.8660 H   0  0  0  0  0  0  0  0  0  0  0  0
    0.0890    0.6095    4.2187 C   0  0  0  0  0  0  0  0  0  0  0  0
    1.0164   -0.1121    4.5487 O   0  0  0  0  0  0  0  0  0  0  0  0
   -0.4838    1.4123    5.1349 O   0  0  0  0  0  0  0  0  0  0  0  0
   -0.0082    1.2426    5.9499 H   0  0  0  0  0  0  0  0  0  0  0  0
    0.6537   -0.7508   -0.6617 C   0  0  0  0  0  0  0  0  0  0  0  0
    0.2817   -1.7131   -1.3305 O   0  0  0  0  0  0  0  0  0  0  0  0
    1.8754   -0.2173   -0.7818 N   0  0  0  0  0  0  0  0  0  0  0  0
    2.1014    0.5862   -0.2148 H   0  0  0  0  0  0  0  0  0  0  0  0
    2.8966   -0.7145   -1.7014 C   0  0  0  0  0  0  0  0  0  0  0  0
    2.5113   -0.7028   -2.7226 H   0  0  0  0  0  0  0  0  0  0  0  0
    3.7903   -0.0912   -1.6483 H   0  0  0  0  0  0  0  0  0  0  0  0
    3.1578   -1.7422   -1.4415 H   0  0  0  0  0  0  0  0  0  0  0  0
  5  6  2  0  0  0  0
  5  7  1  0  0  0  0
  2  3  1  0  0  0  0
  2  4  1  0  0  0  0
  2  5  1  0  0  0  0
  1  2  1  0  0  0  0
 21 22  2  0  0  0  0
 21 23  1  0  0  0  0
 19 20  1  0  0  0  0
 17 18  2  0  0  0  0
 17 19  1  0  0  0  0
 14 15  1  0  0  0  0
 14 16  1  0  0  0  0
 14 17  1  0  0  0  0
 11 12  1  0  0  0  0
 11 13  1  0  0  0  0
 11 14  1  0  0  0  0
  9 10  1  0  0  0  0
  9 11  1  0  0  0  0
  9 21  1  0  0  0  0
  7  8  1  0  0  0  0
  7  9  1  0  0  0  0
 25 26  1  0  0  0  0
 25 27  1  0  0  0  0
 25 28  1  0  0  0  0
 23 24  1  0  0  0  0
 23 25  1  0  0  0  0
M  END
$$$$
default_name
  -OEChem-01062215323D

 28 27  0     1  0  0  0  0  0999 V2000
   -3.2133   -3.5565    1.2809 H   0  0  0  0  0  0  0  0  0  0  0  0
   -3.1873   -2.5755    0.8089 C   0  0  0  0  0  0  0  0  0  0  0  0
   -3.8793   -1.9065    1.3169 H   0  0  0  0  0  0  0  0  0  0  0  0
   -3.4623   -2.6685   -0.2401 H   0  0  0  0  0  0  0  0  0  0  0  0
   -1.7863   -2.0195    0.9119 C   0  0  0  0  0  0  0  0  0  0  0  0
   -0.9073   -2.6615    1.4699 O   0  0  0  0  0  0  0  0  0  0  0  0
   -1.5803   -0.8195    0.3749 N   0  0  0  0  0  0  0  0  0  0  0  0
   -2.3603   -0.3345   -0.0451 H   0  0  0  0  0  0  0  0  0  0  0  0
   -0.2933   -0.1205    0.3719 C   0  0  1  0  0  0  0  0  0  0  0  0
   -0.4612    0.9190    0.0868 H   0  0  0  0  0  0  0  0  0  0  0  0
    0.2946   -0.1445    1.7976 C   0  0  0  0  0  0  0  0  0  0  0  0
    0.3293   -1.1826    2.1326 H   0  0  0  0  0  0  0  0  0  0  0  0
    1.3159    0.2381    1.7723 H   0  0  0  0  0  0  0  0  0  0  0  0
   -0.5105    0.6788    2.8179 C   0  0  0  0  0  0  0  0  0  0  0  0
   -0.5397    1.7244    2.5110 H   0  0  0  0  0  0  0  0  0  0  0  0
   -1.5281    0.2928    2.8660 H   0  0  0  0  0  0  0  0  0  0  0  0
    0.0890    0.6095    4.2187 C   0  0  0  0  0  0  0  0  0  0  0  0
    1.0164   -0.1121    4.5487 O   0  0  0  0  0  0  0  0  0  0  0  0
   -0.4838    1.4123    5.1349 O   0  0  0  0  0  0  0  0  0  0  0  0
   -0.0082    1.2426    5.9499 H   0  0  0  0  0  0  0  0  0  0  0  0
    0.6537   -0.7508   -0.6617 C   0  0  0  0  0  0  0  0  0  0  0  0
    0.2107   -1.5175   -1.5148 O   0  0  0  0  0  0  0  0  0  0  0  0
    1.9522   -0.4376   -0.5770 N   0  0  0  0  0  0  0  0  0  0  0  0
    2.2383    0.2168    0.1358 H   0  0  0  0  0  0  0  0  0  0  0  0
    2.9802   -0.9692   -1.4695 C   0  0  0  0  0  0  0  0  0  0  0  0
    2.7278   -0.7342   -2.5051 H   0  0  0  0  0  0  0  0  0  0  0  0
    3.9518   -0.5348   -1.2299 H   0  0  0  0  0  0  0  0  0  0  0  0
    3.0346   -2.0545   -1.3639 H   0  0  0  0  0  0  0  0  0  0  0  0
  5  6  2  0  0  0  0
  5  7  1  0  0  0  0
  2  3  1  0  0  0  0
  2  4  1  0  0  0  0
  2  5  1  0  0  0  0
  1  2  1  0  0  0  0
 21 22  2  0  0  0  0
 21 23  1  0  0  0  0
 19 20  1  0  0  0  0
 17 18  2  0  0  0  0
 17 19  1  0  0  0  0
 14 15  1  0  0  0  0
 14 16  1  0  0  0  0
 14 17  1  0  0  0  0
 11 12  1  0  0  0  0
 11 13  1  0  0  0  0
 11 14  1  0  0  0  0
  9 10  1  0  0  0  0
  9 11  1  0  0  0  0
  9 21  1  0  0  0  0
  7  8  1  0  0  0  0
  7  9  1  0  0  0  0
 25 26  1  0  0  0  0
 25 27  1  0  0  0  0
 25 28  1  0  0  0  0
 23 24  1  0  0  0  0
 23 25  1  0  0  0  0
M  END
$$$$
default_name
  -OEChem-01062215323D

 28 27  0     1  0  0  0  0  0999 V2000
   -3.2133   -3.5565    1.2809 H   0  0  0  0  0  0  0  0  0  0  0  0
   -3.1873   -2.5755    0.8089 C   0  0  0  0  0  0  0  0  0  0  0  0
   -3.8793   -1.9065    1.3169 H   0  0  0  0  0  0  0  0  0  0  0  0
   -3.4623   -2.6685   -0.2401 H   0  0  0  0  0  0  0  0  0  0  0  0
   -1.7863   -2.0195    0.9119 C   0  0  0  0  0  0  0  0  0  0  0  0
   -0.9073   -2.6615    1.4699 O   0  0  0  0  0  0  0  0  0  0  0  0
   -1.5803   -0.8195    0.3749 N   0  0  0  0  0  0  0  0  0  0  0  0
   -2.3603   -0.3345   -0.0451 H   0  0  0  0  0  0  0  0  0  0  0  0
   -0.2933   -0.1205    0.3719 C   0  0  1  0  0  0  0  0  0  0  0  0
   -0.4612    0.9190    0.0868 H   0  0  0  0  0  0  0  0  0  0  0  0
    0.2946   -0.1445    1.7976 C   0  0  0  0  0  0  0  0  0  0  0  0
    0.3293   -1.1826    2.1326 H   0  0  0  0  0  0  0  0  0  0  0  0
    1.3159    0.2381    1.7723 H   0  0  0  0  0  0  0  0  0  0  0  0
   -0.5105    0.6788    2.8179 C   0  0  0  0  0  0  0  0  0  0  0  0
   -0.5397    1.7244    2.5110 H   0  0  0  0  0  0  0  0  0  0  0  0
   -1.5281    0.2928    2.8660 H   0  0  0  0  0  0  0  0  0  0  0  0
    0.0890    0.6095    4.2187 C   0  0  0  0  0  0  0  0  0  0  0  0
    1.0164   -0.1121    4.5487 O   0  0  0  0  0  0  0  0  0  0  0  0
   -0.4838    1.4123    5.1349 O   0  0  0  0  0  0  0  0  0  0  0  0
   -0.0082    1.2426    5.9499 H   0  0  0  0  0  0  0  0  0  0  0  0
    0.6537   -0.7508   -0.6617 C   0  0  0  0  0  0  0  0  0  0  0  0
    0.1958   -1.2869   -1.6691 O   0  0  0  0  0  0  0  0  0  0  0  0
    1.9664   -0.6964   -0.4062 N   0  0  0  0  0  0  0  0  0  0  0  0
    2.2689   -0.2197    0.4301 H   0  0  0  0  0  0  0  0  0  0  0  0
    2.9920   -1.2668   -1.2773 C   0  0  0  0  0  0  0  0  0  0  0  0
    2.9084   -0.8370   -2.2771 H   0  0  0  0  0  0  0  0  0  0  0  0
    3.9861   -1.0581   -0.8793 H   0  0  0  0  0  0  0  0  0  0  0  0
    2.8530   -2.3471   -1.3519 H   0  0  0  0  0  0  0  0  0  0  0  0
  5  6  2  0  0  0  0
  5  7  1  0  0  0  0
  2  3  1  0  0  0  0
  2  4  1  0  0  0  0
  2  5  1  0  0  0  0
  1  2  1  0  0  0  0
 21 22  2  0  0  0  0
 21 23  1  0  0  0  0
 19 20  1  0  0  0  0
 17 18  2  0  0  0  0
 17 19  1  0  0  0  0
 14 15  1  0  0  0  0
 14 16  1  0  0  0  0
 14 17  1  0  0  0  0
 11 12  1  0  0  0  0
 11 13  1  0  0  0  0
 11 14  1  0  0  0  0
  9 10  1  0  0  0  0
  9 11  1  0  0  0  0
  9 21  1  0  0  0  0
  7  8  1  0  0  0  0
  7  9  1  0  0  0  0
 25 26  1  0  0  0  0
 25 27  1  0  0  0  0
 25 28  1  0  0  0  0
 23 24  1  0  0  0  0
 23 25  1  0  0  0  0
M  END
$$$$
default_name
  -OEChem-01062215323D

 28 27  0     1  0  0  0  0  0999 V2000
   -3.2133   -3.5565    1.2809 H   0  0  0  0  0  0  0  0  0  0  0  0
   -3.1873   -2.5755    0.8089 C   0  0  0  0  0  0  0  0  0  0  0  0
   -3.8793   -1.9065    1.3169 H   0  0  0  0  0  0  0  0  0  0  0  0
   -3.4623   -2.6685   -0.2401 H   0  0  0  0  0  0  0  0  0  0  0  0
   -1.7863   -2.0195    0.9119 C   0  0  0  0  0  0  0  0  0  0  0  0
   -0.9073   -2.6615    1.4699 O   0  0  0  0  0  0  0  0  0  0  0  0
   -1.5803   -0.8195    0.3749 N   0  0  0  0  0  0  0  0  0  0  0  0
   -2.3603   -0.3345   -0.0451 H   0  0  0  0  0  0  0  0  0  0  0  0
   -0.2933   -0.1205    0.3719 C   0  0  1  0  0  0  0  0  0  0  0  0
   -0.4612    0.9190    0.0868 H   0  0  0  0  0  0  0  0  0  0  0  0
    0.2946   -0.1445    1.7976 C   0  0  0  0  0  0  0  0  0  0  0  0
    0.3293   -1.1826    2.1326 H   0  0  0  0  0  0  0  0  0  0  0  0
    1.3159    0.2381    1.7723 H   0  0  0  0  0  0  0  0  0  0  0  0
   -0.5105    0.6788    2.8179 C   0  0  0  0  0  0  0  0  0  0  0  0
   -0.5397    1.7244    2.5110 H   0  0  0  0  0  0  0  0  0  0  0  0
   -1.5281    0.2928    2.8660 H   0  0  0  0  0  0  0  0  0  0  0  0
    0.0890    0.6095    4.2187 C   0  0  0  0  0  0  0  0  0  0  0  0
    1.0164   -0.1121    4.5487 O   0  0  0  0  0  0  0  0  0  0  0  0
   -0.4838    1.4123    5.1349 O   0  0  0  0  0  0  0  0  0  0  0  0
   -0.0082    1.2426    5.9499 H   0  0  0  0  0  0  0  0  0  0  0  0
    0.6537   -0.7508   -0.6617 C   0  0  0  0  0  0  0  0  0  0  0  0
    0.2379   -1.0369   -1.7829 O   0  0  0  0  0  0  0  0  0  0  0  0
    1.9169   -0.9760   -0.2810 N   0  0  0  0  0  0  0  0  0  0  0  0
    2.1914   -0.6937    0.6480 H   0  0  0  0  0  0  0  0  0  0  0  0
    2.9312   -1.5870   -1.1377 C   0  0  0  0  0  0  0  0  0  0  0  0
    3.0407   -1.0040   -2.0540 H   0  0  0  0  0  0  0  0  0  0  0  0
    3.8910   -1.6255   -0.6205 H   0  0  0  0  0  0  0  0  0  0  0  0
    2.6254   -2.6001   -1.4062 H   0  0  0  0  0  0  0  0  0  0  0  0
  5  6  2  0  0  0  0
  5  7  1  0  0  0  0
  2  3  1  0  0  0  0
  2  4  1  0  0  0  0
  2  5  1  0  0  0  0
  1  2  1  0  0  0  0
 21 22  2  0  0  0  0
 21 23  1  0  0  0  0
 19 20  1  0  0  0  0
 17 18  2  0  0  0  0
 17 19  1  0  0  0  0
 14 15  1  0  0  0  0
 14 16  1  0  0  0  0
 14 17  1  0  0  0  0
 11 12  1  0  0  0  0
 11 13  1  0  0  0  0
 11 14  1  0  0  0  0
  9 10  1  0  0  0  0
  9 11  1  0  0  0  0
  9 21  1  0  0  0  0
  7  8  1  0  0  0  0
  7  9  1  0  0  0  0
 25 26  1  0  0  0  0
 25 27  1  0  0  0  0
 25 28  1  0  0  0  0
 23 24  1  0  0  0  0
 23 25  1  0  0  0  0
M  END
$$$$
default_name
  -OEChem-01062215323D

 28 27  0     1  0  0  0  0  0999 V2000
   -3.2133   -3.5565    1.2809 H   0  0  0  0  0  0  0  0  0  0  0  0
   -3.1873   -2.5755    0.8089 C   0  0  0  0  0  0  0  0  0  0  0  0
   -3.8793   -1.9065    1.3169 H   0  0  0  0  0  0  0  0  0  0  0  0
   -3.4623   -2.6685   -0.2401 H   0  0  0  0  0  0  0  0  0  0  0  0
   -1.7863   -2.0195    0.9119 C   0  0  0  0  0  0  0  0  0  0  0  0
   -0.9073   -2.6615    1.4699 O   0  0  0  0  0  0  0  0  0  0  0  0
   -1.5803   -0.8195    0.3749 N   0  0  0  0  0  0  0  0  0  0  0  0
   -2.3603   -0.3345   -0.0451 H   0  0  0  0  0  0  0  0  0  0  0  0
   -0.2933   -0.1205    0.3719 C   0  0  1  0  0  0  0  0  0  0  0  0
   -0.4612    0.9190    0.0868 H   0  0  0  0  0  0  0  0  0  0  0  0
    0.2946   -0.1445    1.7976 C   0  0  0  0  0  0  0  0  0  0  0  0
    0.3293   -1.1826    2.1326 H   0  0  0  0  0  0  0  0  0  0  0  0
    1.3159    0.2381    1.7723 H   0  0  0  0  0  0  0  0  0  0  0  0
   -0.5105    0.6788    2.8179 C   0  0  0  0  0  0  0  0  0  0  0  0
   -0.5397    1.7244    2.5110 H   0  0  0  0  0  0  0  0  0  0  0  0
   -1.5281    0.2928    2.8660 H   0  0  0  0  0  0  0  0  0  0  0  0
    0.0890    0.6095    4.2187 C   0  0  0  0  0  0  0  0  0  0  0  0
    1.0164   -0.1121    4.5487 O   0  0  0  0  0  0  0  0  0  0  0  0
   -0.4838    1.4123    5.1349 O   0  0  0  0  0  0  0  0  0  0  0  0
   -0.0082    1.2426    5.9499 H   0  0  0  0  0  0  0  0  0  0  0  0
    0.6537   -0.7508   -0.6617 C   0  0  0  0  0  0  0  0  0  0  0  0
    0.3342   -0.7846   -1.8486 O   0  0  0  0  0  0  0  0  0  0  0  0
    1.8072   -1.2575   -0.2099 N   0  0  0  0  0  0  0  0  0  0  0  0
    2.0108   -1.1727    0.7747 H   0  0  0  0  0  0  0  0  0  0  0  0
    2.8020   -1.9079   -1.0605 C   0  0  0  0  0  0  0  0  0  0  0  0
    3.1158   -1.2239   -1.8511 H   0  0  0  0  0  0  0  0  0  0  0  0
    3.6729   -2.1982   -0.4711 H   0  0  0  0  0  0  0  0  0  0  0  0
    2.3672   -2.7961   -1.5231 H   0  0  0  0  0  0  0  0  0  0  0  0
  5  6  2  0  0  0  0
  5  7  1  0  0  0  0
  2  3  1  0  0  0  0
  2  4  1  0  0  0  0
  2  5  1  0  0  0  0
  1  2  1  0  0  0  0
 21 22  2  0  0  0  0
 21 23  1  0  0  0  0
 19 20  1  0  0  0  0
 17 18  2  0  0  0  0
 17 19  1  0  0  0  0
 14 15  1  0  0  0  0
 14 16  1  0  0  0  0
 14 17  1  0  0  0  0
 11 12  1  0  0  0  0
 11 13  1  0  0  0  0
 11 14  1  0  0  0  0
  9 10  1  0  0  0  0
  9 11  1  0  0  0  0
  9 21  1  0  0  0  0
  7  8  1  0  0  0  0
  7  9  1  0  0  0  0
 25 26  1  0  0  0  0
 25 27  1  0  0  0  0
 25 28  1  0  0  0  0
 23 24  1  0  0  0  0
 23 25  1  0  0  0  0
M  END
$$$$
default_name
  -OEChem-01062215323D

 28 27  0     1  0  0  0  0  0999 V2000
   -3.2133   -3.5565    1.2809 H   0  0  0  0  0  0  0  0  0  0  0  0
   -3.1873   -2.5755    0.8089 C   0  0  0  0  0  0  0  0  0  0  0  0
   -3.8793   -1.9065    1.3169 H   0  0  0  0  0  0  0  0  0  0  0  0
   -3.4623   -2.6685   -0.2401 H   0  0  0  0  0  0  0  0  0  0  0  0
   -1.7863   -2.0195    0.9119 C   0  0  0  0  0  0  0  0  0  0  0  0
   -0.9073   -2.6615    1.4699 O   0  0  0  0  0  0  0  0  0  0  0  0
   -1.5803   -0.8195    0.3749 N   0  0  0  0  0  0  0  0  0  0  0  0
   -2.3603   -0.3345   -0.0451 H   0  0  0  0  0  0  0  0  0  0  0  0
   -0.2933   -0.1205    0.3719 C   0  0  1  0  0  0  0  0  0  0  0  0
   -0.4612    0.9190    0.0868 H   0  0  0  0  0  0  0  0  0  0  0  0
    0.2946   -0.1445    1.7976 C   0  0  0  0  0  0  0  0  0  0  0  0
    0.3293   -1.1826    2.1326 H   0  0  0  0  0  0  0  0  0  0  0  0
    1.3159    0.2381    1.7723 H   0  0  0  0  0  0  0  0  0  0  0  0
   -0.5105    0.6788    2.8179 C   0  0  0  0  0  0  0  0  0  0  0  0
   -0.5397    1.7244    2.5110 H   0  0  0  0  0  0  0  0  0  0  0  0
   -1.5281    0.2928    2.8660 H   0  0  0  0  0  0  0  0  0  0  0  0
    0.0890    0.6095    4.2187 C   0  0  0  0  0  0  0  0  0  0  0  0
    1.0164   -0.1121    4.5487 O   0  0  0  0  0  0  0  0  0  0  0  0
   -0.4838    1.4123    5.1349 O   0  0  0  0  0  0  0  0  0  0  0  0
   -0.0082    1.2426    5.9499 H   0  0  0  0  0  0  0  0  0  0  0  0
    0.6537   -0.7508   -0.6617 C   0  0  0  0  0  0  0  0  0  0  0  0
    0.4781   -0.5472   -1.8615 O   0  0  0  0  0  0  0  0  0  0  0  0
    1.6446   -1.5217   -0.1978 N   0  0  0  0  0  0  0  0  0  0  0  0
    1.7395   -1.6242    0.8016 H   0  0  0  0  0  0  0  0  0  0  0  0
    2.6131   -2.2077   -1.0507 C   0  0  0  0  0  0  0  0  0  0  0  0
    3.1285   -1.4818   -1.6823 H   0  0  0  0  0  0  0  0  0  0  0  0
    3.3466   -2.7373   -0.4412 H   0  0  0  0  0  0  0  0  0  0  0  0
    2.0962   -2.9219   -1.6947 H   0  0  0  0  0  0  0  0  0  0  0  0
  5  6  2  0  0  0  0
  5  7  1  0  0  0  0
  2  3  1  0  0  0  0
  2  4  1  0  0  0  0
  2  5  1  0  0  0  0
  1  2  1  0  0  0  0
 21 22  2  0  0  0  0
 21 23  1  0  0  0  0
 19 20  1  0  0  0  0
 17 18  2  0  0  0  0
 17 19  1  0  0  0  0
 14 15  1  0  0  0  0
 14 16  1  0  0  0  0
 14 17  1  0  0  0  0
 11 12  1  0  0  0  0
 11 13  1  0  0  0  0
 11 14  1  0  0  0  0
  9 10  1  0  0  0  0
  9 11  1  0  0  0  0
  9 21  1  0  0  0  0
  7  8  1  0  0  0  0
  7  9  1  0  0  0  0
 25 26  1  0  0  0  0
 25 27  1  0  0  0  0
 25 28  1  0  0  0  0
 23 24  1  0  0  0  0
 23 25  1  0  0  0  0
M  END
$$$$
default_name
  -OEChem-01062215323D

 28 27  0     1  0  0  0  0  0999 V2000
   -3.2133   -3.5565    1.2809 H   0  0  0  0  0  0  0  0  0  0  0  0
   -3.1873   -2.5755    0.8089 C   0  0  0  0  0  0  0  0  0  0  0  0
   -3.8793   -1.9065    1.3169 H   0  0  0  0  0  0  0  0  0  0  0  0
   -3.4623   -2.6685   -0.2401 H   0  0  0  0  0  0  0  0  0  0  0  0
   -1.7863   -2.0195    0.9119 C   0  0  0  0  0  0  0  0  0  0  0  0
   -0.9073   -2.6615    1.4699 O   0  0  0  0  0  0  0  0  0  0  0  0
   -1.5803   -0.8195    0.3749 N   0  0  0  0  0  0  0  0  0  0  0  0
   -2.3603   -0.3345   -0.0451 H   0  0  0  0  0  0  0  0  0  0  0  0
   -0.2933   -0.1205    0.3719 C   0  0  1  0  0  0  0  0  0  0  0  0
   -0.4612    0.9190    0.0868 H   0  0  0  0  0  0  0  0  0  0  0  0
    0.2946   -0.1445    1.7976 C   0  0  0  0  0  0  0  0  0  0  0  0
    0.3293   -1.1826    2.1326 H   0  0  0  0  0  0  0  0  0  0  0  0
    1.3159    0.2381    1.7723 H   0  0  0  0  0  0  0  0  0  0  0  0
   -0.5105    0.6788    2.8179 C   0  0  0  0  0  0  0  0  0  0  0  0
   -0.5397    1.7244    2.5110 H   0  0  0  0  0  0  0  0  0  0  0  0
   -1.5281    0.2928    2.8660 H   0  0  0  0  0  0  0  0  0  0  0  0
    0.0890    0.6095    4.2187 C   0  0  0  0  0  0  0  0  0  0  0  0
    1.0164   -0.1121    4.5487 O   0  0  0  0  0  0  0  0  0  0  0  0
   -0.4838    1.4123    5.1349 O   0  0  0  0  0  0  0  0  0  0  0  0
   -0.0082    1.2426    5.9499 H   0  0  0  0  0  0  0  0  0  0  0  0
    0.6537   -0.7508   -0.6617 C   0  0  0  0  0  0  0  0  0  0  0  0
    0.6598   -0.3409   -1.8209 O   0  0  0  0  0  0  0  0  0  0  0  0
    1.4403   -1.7505   -0.2454 N   0  0  0  0  0  0  0  0  0  0  0  0
    1.3961   -2.0174    0.7267 H   0  0  0  0  0  0  0  0  0  0  0  0
    2.3774   -2.4659   -1.1092 C   0  0  0  0  0  0  0  0  0  0  0  0
    3.0779   -1.7600   -1.5589 H   0  0  0  0  0  0  0  0  0  0  0  0
    2.9345   -3.2060   -0.5330 H   0  0  0  0  0  0  0  0  0  0  0  0
    1.8307   -2.9688   -1.9093 H   0  0  0  0  0  0  0  0  0  0  0  0
  5  6  2  0  0  0  0
  5  7  1  0  0  0  0
  2  3  1  0  0  0  0
  2  4  1  0  0  0  0
  2  5  1  0  0  0  0
  1  2  1  0  0  0  0
 21 22  2  0  0  0  0
 21 23  1  0  0  0  0
 19 20  1  0  0  0  0
 17 18  2  0  0  0  0
 17 19  1  0  0  0  0
 14 15  1  0  0  0  0
 14 16  1  0  0  0  0
 14 17  1  0  0  0  0
 11 12  1  0  0  0  0
 11 13  1  0  0  0  0
 11 14  1  0  0  0  0
  9 10  1  0  0  0  0
  9 11  1  0  0  0  0
  9 21  1  0  0  0  0
  7  8  1  0  0  0  0
  7  9  1  0  0  0  0
 25 26  1  0  0  0  0
 25 27  1  0  0  0  0
 25 28  1  0  0  0  0
 23 24  1  0  0  0  0
 23 25  1  0  0  0  0
M  END
$$$$
default_name
  -OEChem-01062215323D

 28 27  0     1  0  0  0  0  0999 V2000
   -3.2133   -3.5565    1.2809 H   0  0  0  0  0  0  0  0  0  0  0  0
   -3.1873   -2.5755    0.8089 C   0  0  0  0  0  0  0  0  0  0  0  0
   -3.8793   -1.9065    1.3169 H   0  0  0  0  0  0  0  0  0  0  0  0
   -3.4623   -2.6685   -0.2401 H   0  0  0  0  0  0  0  0  0  0  0  0
   -1.7863   -2.0195    0.9119 C   0  0  0  0  0  0  0  0  0  0  0  0
   -0.9073   -2.6615    1.4699 O   0  0  0  0  0  0  0  0  0  0  0  0
   -1.5803   -0.8195    0.3749 N   0  0  0  0  0  0  0  0  0  0  0  0
   -2.3603   -0.3345   -0.0451 H   0  0  0  0  0  0  0  0  0  0  0  0
   -0.2933   -0.1205    0.3719 C   0  0  1  0  0  0  0  0  0  0  0  0
   -0.4612    0.9190    0.0868 H   0  0  0  0  0  0  0  0  0  0  0  0
    0.2946   -0.1445    1.7976 C   0  0  0  0  0  0  0  0  0  0  0  0
    0.3293   -1.1826    2.1326 H   0  0  0  0  0  0  0  0  0  0  0  0
    1.3159    0.2381    1.7723 H   0  0  0  0  0  0  0  0  0  0  0  0
   -0.5105    0.6788    2.8179 C   0  0  0  0  0  0  0  0  0  0  0  0
   -0.5397    1.7244    2.5110 H   0  0  0  0  0  0  0  0  0  0  0  0
   -1.5281    0.2928    2.8660 H   0  0  0  0  0  0  0  0  0  0  0  0
    0.0890    0.6095    4.2187 C   0  0  0  0  0  0  0  0  0  0  0  0
    1.0164   -0.1121    4.5487 O   0  0  0  0  0  0  0  0  0  0  0  0
   -0.4838    1.4123    5.1349 O   0  0  0  0  0  0  0  0  0  0  0  0
   -0.0082    1.2426    5.9499 H   0  0  0  0  0  0  0  0  0  0  0  0
    0.6537   -0.7508   -0.6617 C   0  0  0  0  0  0  0  0  0  0  0  0
    0.8669   -0.1796   -1.7295 O   0  0  0  0  0  0  0  0  0  0  0  0
    1.2082   -1.9283   -0.3496 N   0  0  0  0  0  0  0  0  0  0  0  0
    1.0039   -2.3255    0.5552 H   0  0  0  0  0  0  0  0  0  0  0  0
    2.1110   -2.6650   -1.2318 C   0  0  0  0  0  0  0  0  0  0  0  0
    2.9676   -2.0396   -1.4895 H   0  0  0  0  0  0  0  0  0  0  0  0
    2.4646   -3.5724   -0.7401 H   0  0  0  0  0  0  0  0  0  0  0  0
    1.5889   -2.9338   -2.1522 H   0  0  0  0  0  0  0  0  0  0  0  0
  5  6  2  0  0  0  0
  5  7  1  0  0  0  0
  2  3  1  0  0  0  0
  2  4  1  0  0  0  0
  2  5  1  0  0  0  0
  1  2  1  0  0  0  0
 21 22  2  0  0  0  0
 21 23  1  0  0  0  0
 19 20  1  0  0  0  0
 17 18  2  0  0  0  0
 17 19  1  0  0  0  0
 14 15  1  0  0  0  0
 14 16  1  0  0  0  0
 14 17  1  0  0  0  0
 11 12  1  0  0  0  0
 11 13  1  0  0  0  0
 11 14  1  0  0  0  0
  9 10  1  0  0  0  0
  9 11  1  0  0  0  0
  9 21  1  0  0  0  0
  7  8  1  0  0  0  0
  7  9  1  0  0  0  0
 25 26  1  0  0  0  0
 25 27  1  0  0  0  0
 25 28  1  0  0  0  0
 23 24  1  0  0  0  0
 23 25  1  0  0  0  0
M  END
$$$$
default_name
  -OEChem-01062215323D

 28 27  0     1  0  0  0  0  0999 V2000
   -3.2133   -3.5565    1.2809 H   0  0  0  0  0  0  0  0  0  0  0  0
   -3.1873   -2.5755    0.8089 C   0  0  0  0  0  0  0  0  0  0  0  0
   -3.8793   -1.9065    1.3169 H   0  0  0  0  0  0  0  0  0  0  0  0
   -3.4623   -2.6685   -0.2401 H   0  0  0  0  0  0  0  0  0  0  0  0
   -1.7863   -2.0195    0.9119 C   0  0  0  0  0  0  0  0  0  0  0  0
   -0.9073   -2.6615    1.4699 O   0  0  0  0  0  0  0  0  0  0  0  0
   -1.5803   -0.8195    0.3749 N   0  0  0  0  0  0  0  0  0  0  0  0
   -2.3603   -0.3345   -0.0451 H   0  0  0  0  0  0  0  0  0  0  0  0
   -0.2933   -0.1205    0.3719 C   0  0  1  0  0  0  0  0  0  0  0  0
   -0.4612    0.9190    0.0868 H   0  0  0  0  0  0  0  0  0  0  0  0
    0.2946   -0.1445    1.7976 C   0  0  0  0  0  0  0  0  0  0  0  0
    0.3293   -1.1826    2.1326 H   0  0  0  0  0  0  0  0  0  0  0  0
    1.3159    0.2381    1.7723 H   0  0  0  0  0  0  0  0  0  0  0  0
   -0.5105    0.6788    2.8179 C   0  0  0  0  0  0  0  0  0  0  0  0
   -0.5397    1.7244    2.5110 H   0  0  0  0  0  0  0  0  0  0  0  0
   -1.5281    0.2928    2.8660 H   0  0  0  0  0  0  0  0  0  0  0  0
    0.0890    0.6095    4.2187 C   0  0  0  0  0  0  0  0  0  0  0  0
    1.0164   -0.1121    4.5487 O   0  0  0  0  0  0  0  0  0  0  0  0
   -0.4838    1.4123    5.1349 O   0  0  0  0  0  0  0  0  0  0  0  0
   -0.0082    1.2426    5.9499 H   0  0  0  0  0  0  0  0  0  0  0  0
    0.6537   -0.7508   -0.6617 C   0  0  0  0  0  0  0  0  0  0  0  0
    1.0852   -0.0746   -1.5935 O   0  0  0  0  0  0  0  0  0  0  0  0
    0.9642   -2.0431   -0.5032 N   0  0  0  0  0  0  0  0  0  0  0  0
    0.5896   -2.5274    0.2988 H   0  0  0  0  0  0  0  0  0  0  0  0
    1.8320   -2.7914   -1.4103 C   0  0  0  0  0  0  0  0  0  0  0  0
    2.8050   -2.3015   -1.4788 H   0  0  0  0  0  0  0  0  0  0  0  0
    1.9689   -3.8114   -1.0484 H   0  0  0  0  0  0  0  0  0  0  0  0
    1.3871   -2.8191   -2.4070 H   0  0  0  0  0  0  0  0  0  0  0  0
  5  6  2  0  0  0  0
  5  7  1  0  0  0  0
  2  3  1  0  0  0  0
  2  4  1  0  0  0  0
  2  5  1  0  0  0  0
  1  2  1  0  0  0  0
 21 22  2  0  0  0  0
 21 23  1  0  0  0  0
 19 20  1  0  0  0  0
 17 18  2  0  0  0  0
 17 19  1  0  0  0  0
 14 15  1  0  0  0  0
 14 16  1  0  0  0  0
 14 17  1  0  0  0  0
 11 12  1  0  0  0  0
 11 13  1  0  0  0  0
 11 14  1  0  0  0  0
  9 10  1  0  0  0  0
  9 11  1  0  0  0  0
  9 21  1  0  0  0  0
  7  8  1  0  0  0  0
  7  9  1  0  0  0  0
 25 26  1  0  0  0  0
 25 27  1  0  0  0  0
 25 28  1  0  0  0  0
 23 24  1  0  0  0  0
 23 25  1  0  0  0  0
M  END
$$$$
default_name
  -OEChem-01062215323D

 28 27  0     1  0  0  0  0  0999 V2000
   -3.2133   -3.5565    1.2809 H   0  0  0  0  0  0  0  0  0  0  0  0
   -3.1873   -2.5755    0.8089 C   0  0  0  0  0  0  0  0  0  0  0  0
   -3.8793   -1.9065    1.3169 H   0  0  0  0  0  0  0  0  0  0  0  0
   -3.4623   -2.6685   -0.2401 H   0  0  0  0  0  0  0  0  0  0  0  0
   -1.7863   -2.0195    0.9119 C   0  0  0  0  0  0  0  0  0  0  0  0
   -0.9073   -2.6615    1.4699 O   0  0  0  0  0  0  0  0  0  0  0  0
   -1.5803   -0.8195    0.3749 N   0  0  0  0  0  0  0  0  0  0  0  0
   -2.3603   -0.3345   -0.0451 H   0  0  0  0  0  0  0  0  0  0  0  0
   -0.2933   -0.1205    0.3719 C   0  0  1  0  0  0  0  0  0  0  0  0
   -0.4612    0.9190    0.0868 H   0  0  0  0  0  0  0  0  0  0  0  0
    0.2946   -0.1445    1.7976 C   0  0  0  0  0  0  0  0  0  0  0  0
    0.3293   -1.1826    2.1326 H   0  0  0  0  0  0  0  0  0  0  0  0
    1.3159    0.2381    1.7723 H   0  0  0  0  0  0  0  0  0  0  0  0
   -0.5105    0.6788    2.8179 C   0  0  0  0  0  0  0  0  0  0  0  0
   -0.5397    1.7244    2.5110 H   0  0  0  0  0  0  0  0  0  0  0  0
   -1.5281    0.2928    2.8660 H   0  0  0  0  0  0  0  0  0  0  0  0
    0.0890    0.6095    4.2187 C   0  0  0  0  0  0  0  0  0  0  0  0
    1.0164   -0.1121    4.5487 O   0  0  0  0  0  0  0  0  0  0  0  0
   -0.4838    1.4123    5.1349 O   0  0  0  0  0  0  0  0  0  0  0  0
   -0.0082    1.2426    5.9499 H   0  0  0  0  0  0  0  0  0  0  0  0
    0.6537   -0.7508   -0.6617 C   0  0  0  0  0  0  0  0  0  0  0  0
    1.3000   -0.0327   -1.4222 O   0  0  0  0  0  0  0  0  0  0  0  0
    0.7247   -2.0869   -0.6958 N   0  0  0  0  0  0  0  0  0  0  0  0
    0.1815   -2.6095   -0.0250 H   0  0  0  0  0  0  0  0  0  0  0  0
    1.5595   -2.8365   -1.6325 C   0  0  0  0  0  0  0  0  0  0  0  0
    2.6012   -2.5279   -1.5274 H   0  0  0  0  0  0  0  0  0  0  0  0
    1.4812   -3.9069   -1.4370 H   0  0  0  0  0  0  0  0  0  0  0  0
    1.2393   -2.6325   -2.6561 H   0  0  0  0  0  0  0  0  0  0  0  0
  5  6  2  0  0  0  0
  5  7  1  0  0  0  0
  2  3  1  0  0  0  0
  2  4  1  0  0  0  0
  2  5  1  0  0  0  0
  1  2  1  0  0  0  0
 21 22  2  0  0  0  0
 21 23  1  0  0  0  0
 19 20  1  0  0  0  0
 17 18  2  0  0  0  0
 17 19  1  0  0  0  0
 14 15  1  0  0  0  0
 14 16  1  0  0  0  0
 14 17  1  0  0  0  0
 11 12  1  0  0  0  0
 11 13  1  0  0  0  0
 11 14  1  0  0  0  0
  9 10  1  0  0  0  0
  9 11  1  0  0  0  0
  9 21  1  0  0  0  0
  7  8  1  0  0  0  0
  7  9  1  0  0  0  0
 25 26  1  0  0  0  0
 25 27  1  0  0  0  0
 25 28  1  0  0  0  0
 23 24  1  0  0  0  0
 23 25  1  0  0  0  0
M  END
$$$$
default_name
  -OEChem-01062215323D

 28 27  0     1  0  0  0  0  0999 V2000
   -3.2133   -3.5565    1.2809 H   0  0  0  0  0  0  0  0  0  0  0  0
   -3.1873   -2.5755    0.8089 C   0  0  0  0  0  0  0  0  0  0  0  0
   -3.8793   -1.9065    1.3169 H   0  0  0  0  0  0  0  0  0  0  0  0
   -3.4623   -2.6685   -0.2401 H   0  0  0  0  0  0  0  0  0  0  0  0
   -1.7863   -2.0195    0.9119 C   0  0  0  0  0  0  0  0  0  0  0  0
   -0.9073   -2.6615    1.4699 O   0  0  0  0  0  0  0  0  0  0  0  0
   -1.5803   -0.8195    0.3749 N   0  0  0  0  0  0  0  0  0  0  0  0
   -2.3603   -0.3345   -0.0451 H   0  0  0  0  0  0  0  0  0  0  0  0
   -0.2933   -0.1205    0.3719 C   0  0  1  0  0  0  0  0  0  0  0  0
   -0.4612    0.9190    0.0868 H   0  0  0  0  0  0  0  0  0  0  0  0
    0.2946   -0.1445    1.7976 C   0  0  0  0  0  0  0  0  0  0  0  0
    0.3293   -1.1826    2.1326 H   0  0  0  0  0  0  0  0  0  0  0  0
    1.3159    0.2381    1.7723 H   0  0  0  0  0  0  0  0  0  0  0  0
   -0.5105    0.6788    2.8179 C   0  0  0  0  0  0  0  0  0  0  0  0
   -0.5397    1.7244    2.5110 H   0  0  0  0  0  0  0  0  0  0  0  0
   -1.5281    0.2928    2.8660 H   0  0  0  0  0  0  0  0  0  0  0  0
    0.0890    0.6095    4.2187 C   0  0  0  0  0  0  0  0  0  0  0  0
    1.0164   -0.1121    4.5487 O   0  0  0  0  0  0  0  0  0  0  0  0
   -0.4838    1.4123    5.1349 O   0  0  0  0  0  0  0  0  0  0  0  0
   -0.0082    1.2426    5.9499 H   0  0  0  0  0  0  0  0  0  0  0  0
    0.6537   -0.7508   -0.6617 C   0  0  0  0  0  0  0  0  0  0  0  0
    1.4966   -0.0570   -1.2273 O   0  0  0  0  0  0  0  0  0  0  0  0
    0.5063   -2.0569   -0.9143 N   0  0  0  0  0  0  0  0  0  0  0  0
   -0.1926   -2.5661   -0.3942 H   0  0  0  0  0  0  0  0  0  0  0  0
    1.3120   -2.7972   -1.8832 C   0  0  0  0  0  0  0  0  0  0  0  0
    2.3701   -2.7034   -1.6321 H   0  0  0  0  0  0  0  0  0  0  0  0
    1.0347   -3.8523   -1.8793 H   0  0  0  0  0  0  0  0  0  0  0  0
    1.1554   -2.3869   -2.8828 H   0  0  0  0  0  0  0  0  0  0  0  0
  5  6  2  0  0  0  0
  5  7  1  0  0  0  0
  2  3  1  0  0  0  0
  2  4  1  0  0  0  0
  2  5  1  0  0  0  0
  1  2  1  0  0  0  0
 21 22  2  0  0  0  0
 21 23  1  0  0  0  0
 19 20  1  0  0  0  0
 17 18  2  0  0  0  0
 17 19  1  0  0  0  0
 14 15  1  0  0  0  0
 14 16  1  0  0  0  0
 14 17  1  0  0  0  0
 11 12  1  0  0  0  0
 11 13  1  0  0  0  0
 11 14  1  0  0  0  0
  9 10  1  0  0  0  0
  9 11  1  0  0  0  0
  9 21  1  0  0  0  0
  7  8  1  0  0  0  0
  7  9  1  0  0  0  0
 25 26  1  0  0  0  0
 25 27  1  0  0  0  0
 25 28  1  0  0  0  0
 23 24  1  0  0  0  0
 23 25  1  0  0  0  0
M  END
$$$$
default_name
  -OEChem-01062215323D

 28 27  0     1  0  0  0  0  0999 V2000
   -3.2133   -3.5565    1.2809 H   0  0  0  0  0  0  0  0  0  0  0  0
   -3.1873   -2.5755    0.8089 C   0  0  0  0  0  0  0  0  0  0  0  0
   -3.8793   -1.9065    1.3169 H   0  0  0  0  0  0  0  0  0  0  0  0
   -3.4623   -2.6685   -0.2401 H   0  0  0  0  0  0  0  0  0  0  0  0
   -1.7863   -2.0195    0.9119 C   0  0  0  0  0  0  0  0  0  0  0  0
   -0.9073   -2.6615    1.4699 O   0  0  0  0  0  0  0  0  0  0  0  0
   -1.5803   -0.8195    0.3749 N   0  0  0  0  0  0  0  0  0  0  0  0
   -2.3603   -0.3345   -0.0451 H   0  0  0  0  0  0  0  0  0  0  0  0
   -0.2933   -0.1205    0.3719 C   0  0  1  0  0  0  0  0  0  0  0  0
   -0.4612    0.9190    0.0868 H   0  0  0  0  0  0  0  0  0  0  0  0
    0.2946   -0.1445    1.7976 C   0  0  0  0  0  0  0  0  0  0  0  0
    0.3293   -1.1826    2.1326 H   0  0  0  0  0  0  0  0  0  0  0  0
    1.3159    0.2381    1.7723 H   0  0  0  0  0  0  0  0  0  0  0  0
   -0.5105    0.6788    2.8179 C   0  0  0  0  0  0  0  0  0  0  0  0
   -0.5397    1.7244    2.5110 H   0  0  0  0  0  0  0  0  0  0  0  0
   -1.5281    0.2928    2.8660 H   0  0  0  0  0  0  0  0  0  0  0  0
    0.0890    0.6095    4.2187 C   0  0  0  0  0  0  0  0  0  0  0  0
    1.0164   -0.1121    4.5487 O   0  0  0  0  0  0  0  0  0  0  0  0
   -0.4838    1.4123    5.1349 O   0  0  0  0  0  0  0  0  0  0  0  0
   -0.0082    1.2426    5.9499 H   0  0  0  0  0  0  0  0  0  0  0  0
    0.6537   -0.7508   -0.6617 C   0  0  0  0  0  0  0  0  0  0  0  0
    1.6616   -0.1458   -1.0220 O   0  0  0  0  0  0  0  0  0  0  0  0
    0.3236   -1.9551   -1.1437 N   0  0  0  0  0  0  0  0  0  0  0  0
   -0.5073   -2.4002   -0.7836 H   0  0  0  0  0  0  0  0  0  0  0  0
    1.1064   -2.6761   -2.1454 C   0  0  0  0  0  0  0  0  0  0  0  0
    2.1274   -2.8160   -1.7858 H   0  0  0  0  0  0  0  0  0  0  0  0
    0.6600   -3.6513   -2.3452 H   0  0  0  0  0  0  0  0  0  0  0  0
    1.1412   -2.0989   -3.0714 H   0  0  0  0  0  0  0  0  0  0  0  0
  5  6  2  0  0  0  0
  5  7  1  0  0  0  0
  2  3  1  0  0  0  0
  2  4  1  0  0  0  0
  2  5  1  0  0  0  0
  1  2  1  0  0  0  0
 21 22  2  0  0  0  0
 21 23  1  0  0  0  0
 19 20  1  0  0  0  0
 17 18  2  0  0  0  0
 17 19  1  0  0  0  0
 14 15  1  0  0  0  0
 14 16  1  0  0  0  0
 14 17  1  0  0  0  0
 11 12  1  0  0  0  0
 11 13  1  0  0  0  0
 11 14  1  0  0  0  0
  9 10  1  0  0  0  0
  9 11  1  0  0  0  0
  9 21  1  0  0  0  0
  7  8  1  0  0  0  0
  7  9  1  0  0  0  0
 25 26  1  0  0  0  0
 25 27  1  0  0  0  0
 25 28  1  0  0  0  0
 23 24  1  0  0  0  0
 23 25  1  0  0  0  0
M  END
$$$$
default_name
  -OEChem-01062215323D

 28 27  0     1  0  0  0  0  0999 V2000
   -3.2133   -3.5565    1.2809 H   0  0  0  0  0  0  0  0  0  0  0  0
   -3.1873   -2.5755    0.8089 C   0  0  0  0  0  0  0  0  0  0  0  0
   -3.8793   -1.9065    1.3169 H   0  0  0  0  0  0  0  0  0  0  0  0
   -3.4623   -2.6685   -0.2401 H   0  0  0  0  0  0  0  0  0  0  0  0
   -1.7863   -2.0195    0.9119 C   0  0  0  0  0  0  0  0  0  0  0  0
   -0.9073   -2.6615    1.4699 O   0  0  0  0  0  0  0  0  0  0  0  0
   -1.5803   -0.8195    0.3749 N   0  0  0  0  0  0  0  0  0  0  0  0
   -2.3603   -0.3345   -0.0451 H   0  0  0  0  0  0  0  0  0  0  0  0
   -0.2933   -0.1205    0.3719 C   0  0  1  0  0  0  0  0  0  0  0  0
   -0.4612    0.9190    0.0868 H   0  0  0  0  0  0  0  0  0  0  0  0
    0.2946   -0.1445    1.7976 C   0  0  0  0  0  0  0  0  0  0  0  0
    0.3293   -1.1826    2.1326 H   0  0  0  0  0  0  0  0  0  0  0  0
    1.3159    0.2381    1.7723 H   0  0  0  0  0  0  0  0  0  0  0  0
   -0.5105    0.6788    2.8179 C   0  0  0  0  0  0  0  0  0  0  0  0
   -0.5397    1.7244    2.5110 H   0  0  0  0  0  0  0  0  0  0  0  0
   -1.5281    0.2928    2.8660 H   0  0  0  0  0  0  0  0  0  0  0  0
    0.0890    0.6095    4.2187 C   0  0  0  0  0  0  0  0  0  0  0  0
    1.0164   -0.1121    4.5487 O   0  0  0  0  0  0  0  0  0  0  0  0
   -0.4838    1.4123    5.1349 O   0  0  0  0  0  0  0  0  0  0  0  0
   -0.0082    1.2426    5.9499 H   0  0  0  0  0  0  0  0  0  0  0  0
    0.6537   -0.7508   -0.6617 C   0  0  0  0  0  0  0  0  0  0  0  0
    1.7837   -0.2930   -0.8204 O   0  0  0  0  0  0  0  0  0  0  0  0
    0.1893   -1.7883   -1.3684 N   0  0  0  0  0  0  0  0  0  0  0  0
   -0.7410   -2.1231   -1.1666 H   0  0  0  0  0  0  0  0  0  0  0  0
    0.9566   -2.4816   -2.4011 C   0  0  0  0  0  0  0  0  0  0  0  0
    1.8897   -2.8580   -1.9779 H   0  0  0  0  0  0  0  0  0  0  0  0
    0.3824   -3.3176   -2.8030 H   0  0  0  0  0  0  0  0  0  0  0  0
    1.1976   -1.7882   -3.2092 H   0  0  0  0  0  0  0  0  0  0  0  0
  5  6  2  0  0  0  0
  5  7  1  0  0  0  0
  2  3  1  0  0  0  0
  2  4  1  0  0  0  0
  2  5  1  0  0  0  0
  1  2  1  0  0  0  0
 21 22  2  0  0  0  0
 21 23  1  0  0  0  0
 19 20  1  0  0  0  0
 17 18  2  0  0  0  0
 17 19  1  0  0  0  0
 14 15  1  0  0  0  0
 14 16  1  0  0  0  0
 14 17  1  0  0  0  0
 11 12  1  0  0  0  0
 11 13  1  0  0  0  0
 11 14  1  0  0  0  0
  9 10  1  0  0  0  0
  9 11  1  0  0  0  0
  9 21  1  0  0  0  0
  7  8  1  0  0  0  0
  7  9  1  0  0  0  0
 25 26  1  0  0  0  0
 25 27  1  0  0  0  0
 25 28  1  0  0  0  0
 23 24  1  0  0  0  0
 23 25  1  0  0  0  0
M  END
$$$$
default_name
  -OEChem-01062215323D

 28 27  0     1  0  0  0  0  0999 V2000
   -3.2133   -3.5565    1.2809 H   0  0  0  0  0  0  0  0  0  0  0  0
   -3.1873   -2.5755    0.8089 C   0  0  0  0  0  0  0  0  0  0  0  0
   -3.8793   -1.9065    1.3169 H   0  0  0  0  0  0  0  0  0  0  0  0
   -3.4623   -2.6685   -0.2401 H   0  0  0  0  0  0  0  0  0  0  0  0
   -1.7863   -2.0195    0.9119 C   0  0  0  0  0  0  0  0  0  0  0  0
   -0.9073   -2.6615    1.4699 O   0  0  0  0  0  0  0  0  0  0  0  0
   -1.5803   -0.8195    0.3749 N   0  0  0  0  0  0  0  0  0  0  0  0
   -2.3603   -0.3345   -0.0451 H   0  0  0  0  0  0  0  0  0  0  0  0
   -0.2933   -0.1205    0.3719 C   0  0  1  0  0  0  0  0  0  0  0  0
   -0.4612    0.9190    0.0868 H   0  0  0  0  0  0  0  0  0  0  0  0
    0.2946   -0.1445    1.7976 C   0  0  0  0  0  0  0  0  0  0  0  0
    0.3293   -1.1826    2.1326 H   0  0  0  0  0  0  0  0  0  0  0  0
    1.3159    0.2381    1.7723 H   0  0  0  0  0  0  0  0  0  0  0  0
   -0.5105    0.6788    2.8179 C   0  0  0  0  0  0  0  0  0  0  0  0
   -0.5397    1.7244    2.5110 H   0  0  0  0  0  0  0  0  0  0  0  0
   -1.5281    0.2928    2.8660 H   0  0  0  0  0  0  0  0  0  0  0  0
    0.0890    0.6095    4.2187 C   0  0  0  0  0  0  0  0  0  0  0  0
    1.0164   -0.1121    4.5487 O   0  0  0  0  0  0  0  0  0  0  0  0
   -0.4838    1.4123    5.1349 O   0  0  0  0  0  0  0  0  0  0  0  0
   -0.0082    1.2426    5.9499 H   0  0  0  0  0  0  0  0  0  0  0  0
    0.6537   -0.7508   -0.6617 C   0  0  0  0  0  0  0  0  0  0  0  0
    1.8546   -0.4886   -0.6362 O   0  0  0  0  0  0  0  0  0  0  0  0
    0.1124   -1.5681   -1.5731 N   0  0  0  0  0  0  0  0  0  0  0  0
   -0.8778   -1.7537   -1.5173 H   0  0  0  0  0  0  0  0  0  0  0  0
    0.8730   -2.2269   -2.6330 C   0  0  0  0  0  0  0  0  0  0  0  0
    1.6732   -2.8265   -2.1954 H   0  0  0  0  0  0  0  0  0  0  0  0
    0.2209   -2.8740   -3.2214 H   0  0  0  0  0  0  0  0  0  0  0  0
    1.3208   -1.4759   -3.2868 H   0  0  0  0  0  0  0  0  0  0  0  0
  5  6  2  0  0  0  0
  5  7  1  0  0  0  0
  2  3  1  0  0  0  0
  2  4  1  0  0  0  0
  2  5  1  0  0  0  0
  1  2  1  0  0  0  0
 21 22  2  0  0  0  0
 21 23  1  0  0  0  0
 19 20  1  0  0  0  0
 17 18  2  0  0  0  0
 17 19  1  0  0  0  0
 14 15  1  0  0  0  0
 14 16  1  0  0  0  0
 14 17  1  0  0  0  0
 11 12  1  0  0  0  0
 11 13  1  0  0  0  0
 11 14  1  0  0  0  0
  9 10  1  0  0  0  0
  9 11  1  0  0  0  0
  9 21  1  0  0  0  0
  7  8  1  0  0  0  0
  7  9  1  0  0  0  0
 25 26  1  0  0  0  0
 25 27  1  0  0  0  0
 25 28  1  0  0  0  0
 23 24  1  0  0  0  0
 23 25  1  0  0  0  0
M  END
$$$$
default_name
  -OEChem-01062215323D

 28 27  0     1  0  0  0  0  0999 V2000
   -3.2133   -3.5565    1.2809 H   0  0  0  0  0  0  0  0  0  0  0  0
   -3.1873   -2.5755    0.8089 C   0  0  0  0  0  0  0  0  0  0  0  0
   -3.8793   -1.9065    1.3169 H   0  0  0  0  0  0  0  0  0  0  0  0
   -3.4623   -2.6685   -0.2401 H   0  0  0  0  0  0  0  0  0  0  0  0
   -1.7863   -2.0195    0.9119 C   0  0  0  0  0  0  0  0  0  0  0  0
   -0.9073   -2.6615    1.4699 O   0  0  0  0  0  0  0  0  0  0  0  0
   -1.5803   -0.8195    0.3749 N   0  0  0  0  0  0  0  0  0  0  0  0
   -2.3603   -0.3345   -0.0451 H   0  0  0  0  0  0  0  0  0  0  0  0
   -0.2933   -0.1205    0.3719 C   0  0  1  0  0  0  0  0  0  0  0  0
   -0.4612    0.9190    0.0868 H   0  0  0  0  0  0  0  0  0  0  0  0
    0.2946   -0.1445    1.7976 C   0  0  0  0  0  0  0  0  0  0  0  0
    0.3293   -1.1826    2.1326 H   0  0  0  0  0  0  0  0  0  0  0  0
    1.3159    0.2381    1.7723 H   0  0  0  0  0  0  0  0  0  0  0  0
   -0.5105    0.6788    2.8179 C   0  0  0  0  0  0  0  0  0  0  0  0
   -0.5397    1.7244    2.5110 H   0  0  0  0  0  0  0  0  0  0  0  0
   -1.5281    0.2928    2.8660 H   0  0  0  0  0  0  0  0  0  0  0  0
    0.0890    0.6095    4.2187 C   0  0  0  0  0  0  0  0  0  0  0  0
    1.0164   -0.1121    4.5487 O   0  0  0  0  0  0  0  0  0  0  0  0
   -0.4838    1.4123    5.1349 O   0  0  0  0  0  0  0  0  0  0  0  0
   -0.0082    1.2426    5.9499 H   0  0  0  0  0  0  0  0  0  0  0  0
    0.6537   -0.7508   -0.6617 C   0  0  0  0  0  0  0  0  0  0  0  0
    1.8695   -0.7192   -0.4819 O   0  0  0  0  0  0  0  0  0  0  0  0
    0.0983   -1.3093   -1.7439 N   0  0  0  0  0  0  0  0  0  0  0  0
   -0.9085   -1.3171   -1.8116 H   0  0  0  0  0  0  0  0  0  0  0  0
    0.8612   -1.9293   -2.8253 C   0  0  0  0  0  0  0  0  0  0  0  0
    1.4927   -2.7238   -2.4235 H   0  0  0  0  0  0  0  0  0  0  0  0
    0.1866   -2.3507   -3.5719 H   0  0  0  0  0  0  0  0  0  0  0  0
    1.5024   -1.1833   -3.2988 H   0  0  0  0  0  0  0  0  0  0  0  0
  5  6  2  0  0  0  0
  5  7  1  0  0  0  0
  2  3  1  0  0  0  0
  2  4  1  0  0  0  0
  2  5  1  0  0  0  0
  1  2  1  0  0  0  0
 21 22  2  0  0  0  0
 21 23  1  0  0  0  0
 19 20  1  0  0  0  0
 17 18  2  0  0  0  0
 17 19  1  0  0  0  0
 14 15  1  0  0  0  0
 14 16  1  0  0  0  0
 14 17  1  0  0  0  0
 11 12  1  0  0  0  0
 11 13  1  0  0  0  0
 11 14  1  0  0  0  0
  9 10  1  0  0  0  0
  9 11  1  0  0  0  0
  9 21  1  0  0  0  0
  7  8  1  0  0  0  0
  7  9  1  0  0  0  0
 25 26  1  0  0  0  0
 25 27  1  0  0  0  0
 25 28  1  0  0  0  0
 23 24  1  0  0  0  0
 23 25  1  0  0  0  0
M  END
$$$$
default_name
  -OEChem-01062215323D

 28 27  0     1  0  0  0  0  0999 V2000
   -3.2133   -3.5565    1.2809 H   0  0  0  0  0  0  0  0  0  0  0  0
   -3.1873   -2.5755    0.8089 C   0  0  0  0  0  0  0  0  0  0  0  0
   -3.8793   -1.9065    1.3169 H   0  0  0  0  0  0  0  0  0  0  0  0
   -3.4623   -2.6685   -0.2401 H   0  0  0  0  0  0  0  0  0  0  0  0
   -1.7863   -2.0195    0.9119 C   0  0  0  0  0  0  0  0  0  0  0  0
   -0.9073   -2.6615    1.4699 O   0  0  0  0  0  0  0  0  0  0  0  0
   -1.5803   -0.8195    0.3749 N   0  0  0  0  0  0  0  0  0  0  0  0
   -2.3603   -0.3345   -0.0451 H   0  0  0  0  0  0  0  0  0  0  0  0
   -0.2933   -0.1205    0.3719 C   0  0  1  0  0  0  0  0  0  0  0  0
   -0.4612    0.9190    0.0868 H   0  0  0  0  0  0  0  0  0  0  0  0
    0.2946   -0.1445    1.7976 C   0  0  0  0  0  0  0  0  0  0  0  0
    0.3293   -1.1826    2.1326 H   0  0  0  0  0  0  0  0  0  0  0  0
    1.3159    0.2381    1.7723 H   0  0  0  0  0  0  0  0  0  0  0  0
   -0.5105    0.6788    2.8179 C   0  0  0  0  0  0  0  0  0  0  0  0
   -0.5397    1.7244    2.5110 H   0  0  0  0  0  0  0  0  0  0  0  0
   -1.5281    0.2928    2.8660 H   0  0  0  0  0  0  0  0  0  0  0  0
    0.0890    0.6095    4.2187 C   0  0  0  0  0  0  0  0  0  0  0  0
    1.0164   -0.1121    4.5487 O   0  0  0  0  0  0  0  0  0  0  0  0
   -0.4838    1.4123    5.1349 O   0  0  0  0  0  0  0  0  0  0  0  0
   -0.0082    1.2426    5.9499 H   0  0  0  0  0  0  0  0  0  0  0  0
    0.6537   -0.7508   -0.6617 C   0  0  0  0  0  0  0  0  0  0  0  0
    1.8274   -0.9692   -0.3680 O   0  0  0  0  0  0  0  0  0  0  0  0
    0.1477   -1.0296   -1.8691 N   0  0  0  0  0  0  0  0  0  0  0  0
   -0.8309   -0.8432   -2.0295 H   0  0  0  0  0  0  0  0  0  0  0  0
    0.9220   -1.6092   -2.9648 C   0  0  0  0  0  0  0  0  0  0  0  0
    1.3604   -2.5568   -2.6465 H   0  0  0  0  0  0  0  0  0  0  0  0
    0.2817   -1.7833   -3.8307 H   0  0  0  0  0  0  0  0  0  0  0  0
    1.7301   -0.9303   -3.2445 H   0  0  0  0  0  0  0  0  0  0  0  0
  5  6  2  0  0  0  0
  5  7  1  0  0  0  0
  2  3  1  0  0  0  0
  2  4  1  0  0  0  0
  2  5  1  0  0  0  0
  1  2  1  0  0  0  0
 21 22  2  0  0  0  0
 21 23  1  0  0  0  0
 19 20  1  0  0  0  0
 17 18  2  0  0  0  0
 17 19  1  0  0  0  0
 14 15  1  0  0  0  0
 14 16  1  0  0  0  0
 14 17  1  0  0  0  0
 11 12  1  0  0  0  0
 11 13  1  0  0  0  0
 11 14  1  0  0  0  0
  9 10  1  0  0  0  0
  9 11  1  0  0  0  0
  9 21  1  0  0  0  0
  7  8  1  0  0  0  0
  7  9  1  0  0  0  0
 25 26  1  0  0  0  0
 25 27  1  0  0  0  0
 25 28  1  0  0  0  0
 23 24  1  0  0  0  0
 23 25  1  0  0  0  0
M  END
$$$$
default_name
  -OEChem-01062215323D

 28 27  0     1  0  0  0  0  0999 V2000
   -3.2133   -3.5565    1.2809 H   0  0  0  0  0  0  0  0  0  0  0  0
   -3.1873   -2.5755    0.8089 C   0  0  0  0  0  0  0  0  0  0  0  0
   -3.8793   -1.9065    1.3169 H   0  0  0  0  0  0  0  0  0  0  0  0
   -3.4623   -2.6685   -0.2401 H   0  0  0  0  0  0  0  0  0  0  0  0
   -1.7863   -2.0195    0.9119 C   0  0  0  0  0  0  0  0  0  0  0  0
   -0.9073   -2.6615    1.4699 O   0  0  0  0  0  0  0  0  0  0  0  0
   -1.5803   -0.8195    0.3749 N   0  0  0  0  0  0  0  0  0  0  0  0
   -2.3603   -0.3345   -0.0451 H   0  0  0  0  0  0  0  0  0  0  0  0
   -0.2933   -0.1205    0.3719 C   0  0  1  0  0  0  0  0  0  0  0  0
   -0.4612    0.9190    0.0868 H   0  0  0  0  0  0  0  0  0  0  0  0
    0.2946   -0.1445    1.7976 C   0  0  0  0  0  0  0  0  0  0  0  0
    0.3293   -1.1826    2.1326 H   0  0  0  0  0  0  0  0  0  0  0  0
    1.3159    0.2381    1.7723 H   0  0  0  0  0  0  0  0  0  0  0  0
   -0.5105    0.6788    2.8179 C   0  0  0  0  0  0  0  0  0  0  0  0
   -0.5397    1.7244    2.5110 H   0  0  0  0  0  0  0  0  0  0  0  0
   -1.5281    0.2928    2.8660 H   0  0  0  0  0  0  0  0  0  0  0  0
    0.0890    0.6095    4.2187 C   0  0  0  0  0  0  0  0  0  0  0  0
    1.0164   -0.1121    4.5487 O   0  0  0  0  0  0  0  0  0  0  0  0
   -0.4838    1.4123    5.1349 O   0  0  0  0  0  0  0  0  0  0  0  0
   -0.0082    1.2426    5.9499 H   0  0  0  0  0  0  0  0  0  0  0  0
    0.6537   -0.7508   -0.6617 C   0  0  0  0  0  0  0  0  0  0  0  0
    1.7312   -1.2215   -0.3024 O   0  0  0  0  0  0  0  0  0  0  0  0
    0.2575   -0.7481   -1.9403 N   0  0  0  0  0  0  0  0  0  0  0  0
   -0.6503   -0.3641   -2.1562 H   0  0  0  0  0  0  0  0  0  0  0  0
    1.0513   -1.2883   -3.0421 C   0  0  0  0  0  0  0  0  0  0  0  0
    1.2853   -2.3369   -2.8494 H   0  0  0  0  0  0  0  0  0  0  0  0
    0.4998   -1.2106   -3.9802 H   0  0  0  0  0  0  0  0  0  0  0  0
    1.9882   -0.7343   -3.1276 H   0  0  0  0  0  0  0  0  0  0  0  0
  5  6  2  0  0  0  0
  5  7  1  0  0  0  0
  2  3  1  0  0  0  0
  2  4  1  0  0  0  0
  2  5  1  0  0  0  0
  1  2  1  0  0  0  0
 21 22  2  0  0  0  0
 21 23  1  0  0  0  0
 19 20  1  0  0  0  0
 17 18  2  0  0  0  0
 17 19  1  0  0  0  0
 14 15  1  0  0  0  0
 14 16  1  0  0  0  0
 14 17  1  0  0  0  0
 11 12  1  0  0  0  0
 11 13  1  0  0  0  0
 11 14  1  0  0  0  0
  9 10  1  0  0  0  0
  9 11  1  0  0  0  0
  9 21  1  0  0  0  0
  7  8  1  0  0  0  0
  7  9  1  0  0  0  0
 25 26  1  0  0  0  0
 25 27  1  0  0  0  0
 25 28  1  0  0  0  0
 23 24  1  0  0  0  0
 23 25  1  0  0  0  0
M  END
$$$$
default_name
  -OEChem-01062215323D

 28 27  0     1  0  0  0  0  0999 V2000
   -3.2133   -3.5565    1.2809 H   0  0  0  0  0  0  0  0  0  0  0  0
   -3.1873   -2.5755    0.8089 C   0  0  0  0  0  0  0  0  0  0  0  0
   -3.8793   -1.9065    1.3169 H   0  0  0  0  0  0  0  0  0  0  0  0
   -3.4623   -2.6685   -0.2401 H   0  0  0  0  0  0  0  0  0  0  0  0
   -1.7863   -2.0195    0.9119 C   0  0  0  0  0  0  0  0  0  0  0  0
   -0.9073   -2.6615    1.4699 O   0  0  0  0  0  0  0  0  0  0  0  0
   -1.5803   -0.8195    0.3749 N   0  0  0  0  0  0  0  0  0  0  0  0
   -2.3603   -0.3345   -0.0451 H   0  0  0  0  0  0  0  0  0  0  0  0
   -0.2933   -0.1205    0.3719 C   0  0  1  0  0  0  0  0  0  0  0  0
   -0.4612    0.9190    0.0868 H   0  0  0  0  0  0  0  0  0  0  0  0
    0.2946   -0.1445    1.7976 C   0  0  0  0  0  0  0  0  0  0  0  0
    0.3293   -1.1826    2.1326 H   0  0  0  0  0  0  0  0  0  0  0  0
    1.3159    0.2381    1.7723 H   0  0  0  0  0  0  0  0  0  0  0  0
   -0.5105    0.6788    2.8179 C   0  0  0  0  0  0  0  0  0  0  0  0
   -0.5397    1.7244    2.5110 H   0  0  0  0  0  0  0  0  0  0  0  0
   -1.5281    0.2928    2.8660 H   0  0  0  0  0  0  0  0  0  0  0  0
    0.0890    0.6095    4.2187 C   0  0  0  0  0  0  0  0  0  0  0  0
    1.0164   -0.1121    4.5487 O   0  0  0  0  0  0  0  0  0  0  0  0
   -0.4838    1.4123    5.1349 O   0  0  0  0  0  0  0  0  0  0  0  0
   -0.0082    1.2426    5.9499 H   0  0  0  0  0  0  0  0  0  0  0  0
    0.6537   -0.7508   -0.6617 C   0  0  0  0  0  0  0  0  0  0  0  0
    1.5873   -1.4589   -0.2894 O   0  0  0  0  0  0  0  0  0  0  0  0
    0.4200   -0.4840   -1.9524 N   0  0  0  0  0  0  0  0  0  0  0  0
   -0.3791    0.0873   -2.1830 H   0  0  0  0  0  0  0  0  0  0  0  0
    1.2402   -0.9885   -3.0518 C   0  0  0  0  0  0  0  0  0  0  0  0
    1.2726   -2.0790   -3.0183 H   0  0  0  0  0  0  0  0  0  0  0  0
    0.8261   -0.6715   -4.0100 H   0  0  0  0  0  0  0  0  0  0  0  0
    2.2592   -0.6085   -2.9560 H   0  0  0  0  0  0  0  0  0  0  0  0
  5  6  2  0  0  0  0
  5  7  1  0  0  0  0
  2  3  1  0  0  0  0
  2  4  1  0  0  0  0
  2  5  1  0  0  0  0
  1  2  1  0  0  0  0
 21 22  2  0  0  0  0
 21 23  1  0  0  0  0
 19 20  1  0  0  0  0
 17 18  2  0  0  0  0
 17 19  1  0  0  0  0
 14 15  1  0  0  0  0
 14 16  1  0  0  0  0
 14 17  1  0  0  0  0
 11 12  1  0  0  0  0
 11 13  1  0  0  0  0
 11 14  1  0  0  0  0
  9 10  1  0  0  0  0
  9 11  1  0  0  0  0
  9 21  1  0  0  0  0
  7  8  1  0  0  0  0
  7  9  1  0  0  0  0
 25 26  1  0  0  0  0
 25 27  1  0  0  0  0
 25 28  1  0  0  0  0
 23 24  1  0  0  0  0
 23 25  1  0  0  0  0
M  END
$$$$
default_name
  -OEChem-01062215323D

 28 27  0     1  0  0  0  0  0999 V2000
   -3.2133   -3.5565    1.2809 H   0  0  0  0  0  0  0  0  0  0  0  0
   -3.1873   -2.5755    0.8089 C   0  0  0  0  0  0  0  0  0  0  0  0
   -3.8793   -1.9065    1.3169 H   0  0  0  0  0  0  0  0  0  0  0  0
   -3.4623   -2.6685   -0.2401 H   0  0  0  0  0  0  0  0  0  0  0  0
   -1.7863   -2.0195    0.9119 C   0  0  0  0  0  0  0  0  0  0  0  0
   -0.9073   -2.6615    1.4699 O   0  0  0  0  0  0  0  0  0  0  0  0
   -1.5803   -0.8195    0.3749 N   0  0  0  0  0  0  0  0  0  0  0  0
   -2.3603   -0.3345   -0.0451 H   0  0  0  0  0  0  0  0  0  0  0  0
   -0.2933   -0.1205    0.3719 C   0  0  1  0  0  0  0  0  0  0  0  0
   -0.4612    0.9190    0.0868 H   0  0  0  0  0  0  0  0  0  0  0  0
    0.2946   -0.1445    1.7976 C   0  0  0  0  0  0  0  0  0  0  0  0
    0.3293   -1.1826    2.1326 H   0  0  0  0  0  0  0  0  0  0  0  0
    1.3159    0.2381    1.7723 H   0  0  0  0  0  0  0  0  0  0  0  0
   -0.5105    0.6788    2.8179 C   0  0  0  0  0  0  0  0  0  0  0  0
   -0.5397    1.7244    2.5110 H   0  0  0  0  0  0  0  0  0  0  0  0
   -1.5281    0.2928    2.8660 H   0  0  0  0  0  0  0  0  0  0  0  0
    0.0890    0.6095    4.2187 C   0  0  0  0  0  0  0  0  0  0  0  0
    1.0164   -0.1121    4.5487 O   0  0  0  0  0  0  0  0  0  0  0  0
   -0.4838    1.4123    5.1349 O   0  0  0  0  0  0  0  0  0  0  0  0
   -0.0082    1.2426    5.9499 H   0  0  0  0  0  0  0  0  0  0  0  0
    0.6537   -0.7508   -0.6617 C   0  0  0  0  0  0  0  0  0  0  0  0
    1.4056   -1.6653   -0.3301 O   0  0  0  0  0  0  0  0  0  0  0  0
    0.6243   -0.2552   -1.9048 N   0  0  0  0  0  0  0  0  0  0  0  0
   -0.0356    0.4805   -2.1081 H   0  0  0  0  0  0  0  0  0  0  0  0
    1.4759   -0.7302   -2.9934 C   0  0  0  0  0  0  0  0  0  0  0  0
    1.3231   -1.8008   -3.1416 H   0  0  0  0  0  0  0  0  0  0  0  0
    1.2382   -0.2028   -3.9183 H   0  0  0  0  0  0  0  0  0  0  0  0
    2.5247   -0.5616   -2.7414 H   0  0  0  0  0  0  0  0  0  0  0  0
  5  6  2  0  0  0  0
  5  7  1  0  0  0  0
  2  3  1  0  0  0  0
  2  4  1  0  0  0  0
  2  5  1  0  0  0  0
  1  2  1  0  0  0  0
 21 22  2  0  0  0  0
 21 23  1  0  0  0  0
 19 20  1  0  0  0  0
 17 18  2  0  0  0  0
 17 19  1  0  0  0  0
 14 15  1  0  0  0  0
 14 16  1  0  0  0  0
 14 17  1  0  0  0  0
 11 12  1  0  0  0  0
 11 13  1  0  0  0  0
 11 14  1  0  0  0  0
  9 10  1  0  0  0  0
  9 11  1  0  0  0  0
  9 21  1  0  0  0  0
  7  8  1  0  0  0  0
  7  9  1  0  0  0  0
 25 26  1  0  0  0  0
 25 27  1  0  0  0  0
 25 28  1  0  0  0  0
 23 24  1  0  0  0  0
 23 25  1  0  0  0  0
M  END
$$$$
default_name
  -OEChem-01062215323D

 28 27  0     1  0  0  0  0  0999 V2000
   -3.2133   -3.5565    1.2809 H   0  0  0  0  0  0  0  0  0  0  0  0
   -3.1873   -2.5755    0.8089 C   0  0  0  0  0  0  0  0  0  0  0  0
   -3.8793   -1.9065    1.3169 H   0  0  0  0  0  0  0  0  0  0  0  0
   -3.4623   -2.6685   -0.2401 H   0  0  0  0  0  0  0  0  0  0  0  0
   -1.7863   -2.0195    0.9119 C   0  0  0  0  0  0  0  0  0  0  0  0
   -0.9073   -2.6615    1.4699 O   0  0  0  0  0  0  0  0  0  0  0  0
   -1.5803   -0.8195    0.3749 N   0  0  0  0  0  0  0  0  0  0  0  0
   -2.3603   -0.3345   -0.0451 H   0  0  0  0  0  0  0  0  0  0  0  0
   -0.2933   -0.1205    0.3719 C   0  0  1  0  0  0  0  0  0  0  0  0
   -0.4612    0.9190    0.0868 H   0  0  0  0  0  0  0  0  0  0  0  0
    0.2946   -0.1445    1.7976 C   0  0  0  0  0  0  0  0  0  0  0  0
    0.3293   -1.1826    2.1326 H   0  0  0  0  0  0  0  0  0  0  0  0
    1.3159    0.2381    1.7723 H   0  0  0  0  0  0  0  0  0  0  0  0
   -0.5105    0.6788    2.8179 C   0  0  0  0  0  0  0  0  0  0  0  0
   -0.5397    1.7244    2.5110 H   0  0  0  0  0  0  0  0  0  0  0  0
   -1.5281    0.2928    2.8660 H   0  0  0  0  0  0  0  0  0  0  0  0
    0.0890    0.6095    4.2187 C   0  0  0  0  0  0  0  0  0  0  0  0
    1.0164   -0.1121    4.5487 O   0  0  0  0  0  0  0  0  0  0  0  0
   -0.4838    1.4123    5.1349 O   0  0  0  0  0  0  0  0  0  0  0  0
   -0.0082    1.2426    5.9499 H   0  0  0  0  0  0  0  0  0  0  0  0
    0.6537   -0.7508   -0.6617 C   0  0  0  0  0  0  0  0  0  0  0  0
    1.1985   -1.8265   -0.4215 O   0  0  0  0  0  0  0  0  0  0  0  0
    0.8564   -0.0773   -1.8006 N   0  0  0  0  0  0  0  0  0  0  0  0
    0.3566    0.7886   -1.9367 H   0  0  0  0  0  0  0  0  0  0  0  0
    1.7423   -0.5311   -2.8708 C   0  0  0  0  0  0  0  0  0  0  0  0
    1.4335   -1.5212   -3.2110 H   0  0  0  0  0  0  0  0  0  0  0  0
    1.7081    0.1636   -3.7112 H   0  0  0  0  0  0  0  0  0  0  0  0
    2.7665   -0.5966   -2.4985 H   0  0  0  0  0  0  0  0  0  0  0  0
  5  6  2  0  0  0  0
  5  7  1  0  0  0  0
  2  3  1  0  0  0  0
  2  4  1  0  0  0  0
  2  5  1  0  0  0  0
  1  2  1  0  0  0  0
 21 22  2  0  0  0  0
 21 23  1  0  0  0  0
 19 20  1  0  0  0  0
 17 18  2  0  0  0  0
 17 19  1  0  0  0  0
 14 15  1  0  0  0  0
 14 16  1  0  0  0  0
 14 17  1  0  0  0  0
 11 12  1  0  0  0  0
 11 13  1  0  0  0  0
 11 14  1  0  0  0  0
  9 10  1  0  0  0  0
  9 11  1  0  0  0  0
  9 21  1  0  0  0  0
  7  8  1  0  0  0  0
  7  9  1  0  0  0  0
 25 26  1  0  0  0  0
 25 27  1  0  0  0  0
 25 28  1  0  0  0  0
 23 24  1  0  0  0  0
 23 25  1  0  0  0  0
M  END
$$$$
default_name
  -OEChem-01062215323D

 28 27  0     1  0  0  0  0  0999 V2000
   -3.2133   -3.5565    1.2809 H   0  0  0  0  0  0  0  0  0  0  0  0
   -3.1873   -2.5755    0.8089 C   0  0  0  0  0  0  0  0  0  0  0  0
   -3.8793   -1.9065    1.3169 H   0  0  0  0  0  0  0  0  0  0  0  0
   -3.4623   -2.6685   -0.2401 H   0  0  0  0  0  0  0  0  0  0  0  0
   -1.7863   -2.0195    0.9119 C   0  0  0  0  0  0  0  0  0  0  0  0
   -0.9073   -2.6615    1.4699 O   0  0  0  0  0  0  0  0  0  0  0  0
   -1.5803   -0.8195    0.3749 N   0  0  0  0  0  0  0  0  0  0  0  0
   -2.3603   -0.3345   -0.0451 H   0  0  0  0  0  0  0  0  0  0  0  0
   -0.2933   -0.1205    0.3719 C   0  0  1  0  0  0  0  0  0  0  0  0
   -0.4612    0.9190    0.0868 H   0  0  0  0  0  0  0  0  0  0  0  0
    0.2946   -0.1445    1.7976 C   0  0  0  0  0  0  0  0  0  0  0  0
    0.3293   -1.1826    2.1326 H   0  0  0  0  0  0  0  0  0  0  0  0
    1.3159    0.2381    1.7723 H   0  0  0  0  0  0  0  0  0  0  0  0
   -0.5105    0.6788    2.8179 C   0  0  0  0  0  0  0  0  0  0  0  0
   -0.5397    1.7244    2.5110 H   0  0  0  0  0  0  0  0  0  0  0  0
   -1.5281    0.2928    2.8660 H   0  0  0  0  0  0  0  0  0  0  0  0
    0.0890    0.6095    4.2187 C   0  0  0  0  0  0  0  0  0  0  0  0
    1.0164   -0.1121    4.5487 O   0  0  0  0  0  0  0  0  0  0  0  0
   -0.4838    1.4123    5.1349 O   0  0  0  0  0  0  0  0  0  0  0  0
   -0.0082    1.2426    5.9499 H   0  0  0  0  0  0  0  0  0  0  0  0
    0.6537   -0.7508   -0.6617 C   0  0  0  0  0  0  0  0  0  0  0  0
    0.9801   -1.9316   -0.5574 O   0  0  0  0  0  0  0  0  0  0  0  0
    1.1005    0.0374   -1.6469 N   0  0  0  0  0  0  0  0  0  0  0  0
    0.7709    0.9905   -1.6803 H   0  0  0  0  0  0  0  0  0  0  0  0
    2.0213   -0.4047   -2.6923 C   0  0  0  0  0  0  0  0  0  0  0  0
    1.5961   -1.2593   -3.2218 H   0  0  0  0  0  0  0  0  0  0  0  0
    2.2038    0.4027   -3.4028 H   0  0  0  0  0  0  0  0  0  0  0  0
    2.9683   -0.7113   -2.2437 H   0  0  0  0  0  0  0  0  0  0  0  0
  5  6  2  0  0  0  0
  5  7  1  0  0  0  0
  2  3  1  0  0  0  0
  2  4  1  0  0  0  0
  2  5  1  0  0  0  0
  1  2  1  0  0  0  0
 21 22  2  0  0  0  0
 21 23  1  0  0  0  0
 19 20  1  0  0  0  0
 17 18  2  0  0  0  0
 17 19  1  0  0  0  0
 14 15  1  0  0  0  0
 14 16  1  0  0  0  0
 14 17  1  0  0  0  0
 11 12  1  0  0  0  0
 11 13  1  0  0  0  0
 11 14  1  0  0  0  0
  9 10  1  0  0  0  0
  9 11  1  0  0  0  0
  9 21  1  0  0  0  0
  7  8  1  0  0  0  0
  7  9  1  0  0  0  0
 25 26  1  0  0  0  0
 25 27  1  0  0  0  0
 25 28  1  0  0  0  0
 23 24  1  0  0  0  0
 23 25  1  0  0  0  0
M  END
$$$$
default_name
  -OEChem-01062215323D

 28 27  0     1  0  0  0  0  0999 V2000
   -3.2133   -3.5565    1.2809 H   0  0  0  0  0  0  0  0  0  0  0  0
   -3.1873   -2.5755    0.8089 C   0  0  0  0  0  0  0  0  0  0  0  0
   -3.8793   -1.9065    1.3169 H   0  0  0  0  0  0  0  0  0  0  0  0
   -3.4623   -2.6685   -0.2401 H   0  0  0  0  0  0  0  0  0  0  0  0
   -1.7863   -2.0195    0.9119 C   0  0  0  0  0  0  0  0  0  0  0  0
   -0.9073   -2.6615    1.4699 O   0  0  0  0  0  0  0  0  0  0  0  0
   -1.5803   -0.8195    0.3749 N   0  0  0  0  0  0  0  0  0  0  0  0
   -2.3603   -0.3345   -0.0451 H   0  0  0  0  0  0  0  0  0  0  0  0
   -0.2933   -0.1205    0.3719 C   0  0  1  0  0  0  0  0  0  0  0  0
   -0.4612    0.9190    0.0868 H   0  0  0  0  0  0  0  0  0  0  0  0
    0.2946   -0.1445    1.7976 C   0  0  0  0  0  0  0  0  0  0  0  0
    0.3293   -1.1826    2.1326 H   0  0  0  0  0  0  0  0  0  0  0  0
    1.3159    0.2381    1.7723 H   0  0  0  0  0  0  0  0  0  0  0  0
   -0.5105    0.6788    2.8179 C   0  0  0  0  0  0  0  0  0  0  0  0
   -0.5397    1.7244    2.5110 H   0  0  0  0  0  0  0  0  0  0  0  0
   -1.5281    0.2928    2.8660 H   0  0  0  0  0  0  0  0  0  0  0  0
    0.0890    0.6095    4.2187 C   0  0  0  0  0  0  0  0  0  0  0  0
    1.0164   -0.1121    4.5487 O   0  0  0  0  0  0  0  0  0  0  0  0
   -0.4838    1.4123    5.1349 O   0  0  0  0  0  0  0  0  0  0  0  0
   -0.0082    1.2426    5.9499 H   0  0  0  0  0  0  0  0  0  0  0  0
    0.6537   -0.7508   -0.6617 C   0  0  0  0  0  0  0  0  0  0  0  0
    0.7653   -1.9734   -0.7287 O   0  0  0  0  0  0  0  0  0  0  0  0
    1.3399    0.0813   -1.4544 N   0  0  0  0  0  0  0  0  0  0  0  0
    1.1790    1.0726   -1.3565 H   0  0  0  0  0  0  0  0  0  0  0  0
    2.2938   -0.3596   -2.4701 C   0  0  0  0  0  0  0  0  0  0  0  0
    1.7999   -1.0328   -3.1731 H   0  0  0  0  0  0  0  0  0  0  0  0
    2.6915    0.4981   -3.0143 H   0  0  0  0  0  0  0  0  0  0  0  0
    3.1161   -0.8979   -1.9946 H   0  0  0  0  0  0  0  0  0  0  0  0
  5  6  2  0  0  0  0
  5  7  1  0  0  0  0
  2  3  1  0  0  0  0
  2  4  1  0  0  0  0
  2  5  1  0  0  0  0
  1  2  1  0  0  0  0
 21 22  2  0  0  0  0
 21 23  1  0  0  0  0
 19 20  1  0  0  0  0
 17 18  2  0  0  0  0
 17 19  1  0  0  0  0
 14 15  1  0  0  0  0
 14 16  1  0  0  0  0
 14 17  1  0  0  0  0
 11 12  1  0  0  0  0
 11 13  1  0  0  0  0
 11 14  1  0  0  0  0
  9 10  1  0  0  0  0
  9 11  1  0  0  0  0
  9 21  1  0  0  0  0
  7  8  1  0  0  0  0
  7  9  1  0  0  0  0
 25 26  1  0  0  0  0
 25 27  1  0  0  0  0
 25 28  1  0  0  0  0
 23 24  1  0  0  0  0
 23 25  1  0  0  0  0
M  END
$$$$
default_name
  -OEChem-01062215323D

 28 27  0     1  0  0  0  0  0999 V2000
   -3.2133   -3.5565    1.2809 H   0  0  0  0  0  0  0  0  0  0  0  0
   -3.1873   -2.5755    0.8089 C   0  0  0  0  0  0  0  0  0  0  0  0
   -3.8793   -1.9065    1.3169 H   0  0  0  0  0  0  0  0  0  0  0  0
   -3.4623   -2.6685   -0.2401 H   0  0  0  0  0  0  0  0  0  0  0  0
   -1.7863   -2.0195    0.9119 C   0  0  0  0  0  0  0  0  0  0  0  0
   -0.9073   -2.6615    1.4699 O   0  0  0  0  0  0  0  0  0  0  0  0
   -1.5803   -0.8195    0.3749 N   0  0  0  0  0  0  0  0  0  0  0  0
   -2.3603   -0.3345   -0.0451 H   0  0  0  0  0  0  0  0  0  0  0  0
   -0.2933   -0.1205    0.3719 C   0  0  1  0  0  0  0  0  0  0  0  0
   -0.4612    0.9190    0.0868 H   0  0  0  0  0  0  0  0  0  0  0  0
    0.2946   -0.1445    1.7976 C   0  0  0  0  0  0  0  0  0  0  0  0
    0.3293   -1.1826    2.1326 H   0  0  0  0  0  0  0  0  0  0  0  0
    1.3159    0.2381    1.7723 H   0  0  0  0  0  0  0  0  0  0  0  0
   -0.5105    0.6788    2.8179 C   0  0  0  0  0  0  0  0  0  0  0  0
   -0.5397    1.7244    2.5110 H   0  0  0  0  0  0  0  0  0  0  0  0
   -1.5281    0.2928    2.8660 H   0  0  0  0  0  0  0  0  0  0  0  0
    0.0890    0.6095    4.2187 C   0  0  0  0  0  0  0  0  0  0  0  0
    1.0164   -0.1121    4.5487 O   0  0  0  0  0  0  0  0  0  0  0  0
   -0.4838    1.4123    5.1349 O   0  0  0  0  0  0  0  0  0  0  0  0
   -0.0082    1.2426    5.9499 H   0  0  0  0  0  0  0  0  0  0  0  0
    0.6537   -0.7508   -0.6617 C   0  0  0  0  0  0  0  0  0  0  0  0
    0.5687   -1.9491   -0.9236 O   0  0  0  0  0  0  0  0  0  0  0  0
    1.5584    0.0513   -1.2359 N   0  0  0  0  0  0  0  0  0  0  0  0
    1.5531    1.0292   -0.9873 H   0  0  0  0  0  0  0  0  0  0  0  0
    2.5413   -0.3990   -2.2194 C   0  0  0  0  0  0  0  0  0  0  0  0
    2.0310   -0.8574   -3.0684 H   0  0  0  0  0  0  0  0  0  0  0  0
    3.1380    0.4435   -2.5720 H   0  0  0  0  0  0  0  0  0  0  0  0
    3.2000   -1.1435   -1.7679 H   0  0  0  0  0  0  0  0  0  0  0  0
  5  6  2  0  0  0  0
  5  7  1  0  0  0  0
  2  3  1  0  0  0  0
  2  4  1  0  0  0  0
  2  5  1  0  0  0  0
  1  2  1  0  0  0  0
 21 22  2  0  0  0  0
 21 23  1  0  0  0  0
 19 20  1  0  0  0  0
 17 18  2  0  0  0  0
 17 19  1  0  0  0  0
 14 15  1  0  0  0  0
 14 16  1  0  0  0  0
 14 17  1  0  0  0  0
 11 12  1  0  0  0  0
 11 13  1  0  0  0  0
 11 14  1  0  0  0  0
  9 10  1  0  0  0  0
  9 11  1  0  0  0  0
  9 21  1  0  0  0  0
  7  8  1  0  0  0  0
  7  9  1  0  0  0  0
 25 26  1  0  0  0  0
 25 27  1  0  0  0  0
 25 28  1  0  0  0  0
 23 24  1  0  0  0  0
 23 25  1  0  0  0  0
M  END
$$$$
default_name
  -OEChem-01062215323D

 28 27  0     1  0  0  0  0  0999 V2000
   -3.2133   -3.5565    1.2809 H   0  0  0  0  0  0  0  0  0  0  0  0
   -3.1873   -2.5755    0.8089 C   0  0  0  0  0  0  0  0  0  0  0  0
   -3.8793   -1.9065    1.3169 H   0  0  0  0  0  0  0  0  0  0  0  0
   -3.4623   -2.6685   -0.2401 H   0  0  0  0  0  0  0  0  0  0  0  0
   -1.7863   -2.0195    0.9119 C   0  0  0  0  0  0  0  0  0  0  0  0
   -0.9073   -2.6615    1.4699 O   0  0  0  0  0  0  0  0  0  0  0  0
   -1.5803   -0.8195    0.3749 N   0  0  0  0  0  0  0  0  0  0  0  0
   -2.3603   -0.3345   -0.0451 H   0  0  0  0  0  0  0  0  0  0  0  0
   -0.2933   -0.1205    0.3719 C   0  0  1  0  0  0  0  0  0  0  0  0
   -0.4612    0.9190    0.0868 H   0  0  0  0  0  0  0  0  0  0  0  0
    0.2946   -0.1445    1.7976 C   0  0  0  0  0  0  0  0  0  0  0  0
    0.3293   -1.1826    2.1326 H   0  0  0  0  0  0  0  0  0  0  0  0
    1.3159    0.2381    1.7723 H   0  0  0  0  0  0  0  0  0  0  0  0
   -0.5105    0.6788    2.8179 C   0  0  0  0  0  0  0  0  0  0  0  0
   -0.5397    1.7244    2.5110 H   0  0  0  0  0  0  0  0  0  0  0  0
   -1.5281    0.2928    2.8660 H   0  0  0  0  0  0  0  0  0  0  0  0
    0.0890    0.6095    4.2187 C   0  0  0  0  0  0  0  0  0  0  0  0
    1.0164   -0.1121    4.5487 O   0  0  0  0  0  0  0  0  0  0  0  0
   -0.4838    1.4123    5.1349 O   0  0  0  0  0  0  0  0  0  0  0  0
   -0.0082    1.2426    5.9499 H   0  0  0  0  0  0  0  0  0  0  0  0
    0.6537   -0.7508   -0.6617 C   0  0  0  0  0  0  0  0  0  0  0  0
    0.4038   -1.8603   -1.1289 O   0  0  0  0  0  0  0  0  0  0  0  0
    1.7410   -0.0505   -1.0065 N   0  0  0  0  0  0  0  0  0  0  0  0
    1.8677    0.8633   -0.5979 H   0  0  0  0  0  0  0  0  0  0  0  0
    2.7469   -0.5200   -1.9572 C   0  0  0  0  0  0  0  0  0  0  0  0
    2.2736   -0.7448   -2.9148 H   0  0  0  0  0  0  0  0  0  0  0  0
    3.5127    0.2425   -2.1061 H   0  0  0  0  0  0  0  0  0  0  0  0
    3.2142   -1.4315   -1.5793 H   0  0  0  0  0  0  0  0  0  0  0  0
  5  6  2  0  0  0  0
  5  7  1  0  0  0  0
  2  3  1  0  0  0  0
  2  4  1  0  0  0  0
  2  5  1  0  0  0  0
  1  2  1  0  0  0  0
 21 22  2  0  0  0  0
 21 23  1  0  0  0  0
 19 20  1  0  0  0  0
 17 18  2  0  0  0  0
 17 19  1  0  0  0  0
 14 15  1  0  0  0  0
 14 16  1  0  0  0  0
 14 17  1  0  0  0  0
 11 12  1  0  0  0  0
 11 13  1  0  0  0  0
 11 14  1  0  0  0  0
  9 10  1  0  0  0  0
  9 11  1  0  0  0  0
  9 21  1  0  0  0  0
  7  8  1  0  0  0  0
  7  9  1  0  0  0  0
 25 26  1  0  0  0  0
 25 27  1  0  0  0  0
 25 28  1  0  0  0  0
 23 24  1  0  0  0  0
 23 25  1  0  0  0  0
M  END
$$$$
default_name
  -OEChem-01062215323D

 28 27  0     1  0  0  0  0  0999 V2000
   -3.2133   -3.5565    1.2809 H   0  0  0  0  0  0  0  0  0  0  0  0
   -3.1873   -2.5755    0.8089 C   0  0  0  0  0  0  0  0  0  0  0  0
   -3.8793   -1.9065    1.3169 H   0  0  0  0  0  0  0  0  0  0  0  0
   -3.4623   -2.6685   -0.2401 H   0  0  0  0  0  0  0  0  0  0  0  0
   -1.7863   -2.0195    0.9119 C   0  0  0  0  0  0  0  0  0  0  0  0
   -0.9073   -2.6615    1.4699 O   0  0  0  0  0  0  0  0  0  0  0  0
   -1.5803   -0.8195    0.3749 N   0  0  0  0  0  0  0  0  0  0  0  0
   -2.3603   -0.3345   -0.0451 H   0  0  0  0  0  0  0  0  0  0  0  0
   -0.2933   -0.1205    0.3719 C   0  0  1  0  0  0  0  0  0  0  0  0
   -0.4797    0.9542    0.3537 H   0  0  0  0  0  0  0  0  0  0  0  0
    0.4657   -0.4601    1.6709 C   0  0  0  0  0  0  0  0  0  0  0  0
    0.5261   -1.5466    1.7542 H   0  0  0  0  0  0  0  0  0  0  0  0
    1.4816   -0.0677    1.6073 H   0  0  0  0  0  0  0  0  0  0  0  0
   -0.1950    0.0984    2.9432 C   0  0  0  0  0  0  0  0  0  0  0  0
   -0.2464    1.1858    2.8881 H   0  0  0  0  0  0  0  0  0  0  0  0
   -1.2045   -0.3024    3.0276 H   0  0  0  0  0  0  0  0  0  0  0  0
    0.5718   -0.2794    4.2064 C   0  0  0  0  0  0  0  0  0  0  0  0
    1.5221   -1.0444    4.2465 O   0  0  0  0  0  0  0  0  0  0  0  0
    0.1285    0.2859    5.3447 O   0  0  0  0  0  0  0  0  0  0  0  0
    0.6985   -0.0582    6.0346 H   0  0  0  0  0  0  0  0  0  0  0  0
    0.5093   -0.4860   -0.8869 C   0  0  0  0  0  0  0  0  0  0  0  0
    0.0434   -1.2760   -1.7057 O   0  0  0  0  0  0  0  0  0  0  0  0
    1.7146    0.0775   -1.0325 N   0  0  0  0  0  0  0  0  0  0  0  0
    2.0209    0.7341   -0.3301 H   0  0  0  0  0  0  0  0  0  0  0  0
    2.6071   -0.1834   -2.1601 C   0  0  0  0  0  0  0  0  0  0  0  0
    2.0989    0.0550   -3.0962 H   0  0  0  0  0  0  0  0  0  0  0  0
    3.5096    0.4238   -2.0775 H   0  0  0  0  0  0  0  0  0  0  0  0
    2.8831   -1.2396   -2.1750 H   0  0  0  0  0  0  0  0  0  0  0  0
  5  6  2  0  0  0  0
  5  7  1  0  0  0  0
  2  3  1  0  0  0  0
  2  4  1  0  0  0  0
  2  5  1  0  0  0  0
  1  2  1  0  0  0  0
 21 22  2  0  0  0  0
 21 23  1  0  0  0  0
 19 20  1  0  0  0  0
 17 18  2  0  0  0  0
 17 19  1  0  0  0  0
 14 15  1  0  0  0  0
 14 16  1  0  0  0  0
 14 17  1  0  0  0  0
 11 12  1  0  0  0  0
 11 13  1  0  0  0  0
 11 14  1  0  0  0  0
  9 10  1  0  0  0  0
  9 11  1  0  0  0  0
  9 21  1  0  0  0  0
  7  8  1  0  0  0  0
  7  9  1  0  0  0  0
 25 26  1  0  0  0  0
 25 27  1  0  0  0  0
 25 28  1  0  0  0  0
 23 24  1  0  0  0  0
 23 25  1  0  0  0  0
M  END
$$$$
default_name
  -OEChem-01062215323D

 28 27  0     1  0  0  0  0  0999 V2000
   -3.2133   -3.5565    1.2809 H   0  0  0  0  0  0  0  0  0  0  0  0
   -3.1873   -2.5755    0.8089 C   0  0  0  0  0  0  0  0  0  0  0  0
   -3.8793   -1.9065    1.3169 H   0  0  0  0  0  0  0  0  0  0  0  0
   -3.4623   -2.6685   -0.2401 H   0  0  0  0  0  0  0  0  0  0  0  0
   -1.7863   -2.0195    0.9119 C   0  0  0  0  0  0  0  0  0  0  0  0
   -0.9073   -2.6615    1.4699 O   0  0  0  0  0  0  0  0  0  0  0  0
   -1.5803   -0.8195    0.3749 N   0  0  0  0  0  0  0  0  0  0  0  0
   -2.3603   -0.3345   -0.0451 H   0  0  0  0  0  0  0  0  0  0  0  0
   -0.2933   -0.1205    0.3719 C   0  0  1  0  0  0  0  0  0  0  0  0
   -0.4797    0.9542    0.3537 H   0  0  0  0  0  0  0  0  0  0  0  0
    0.4657   -0.4601    1.6709 C   0  0  0  0  0  0  0  0  0  0  0  0
    0.5261   -1.5466    1.7542 H   0  0  0  0  0  0  0  0  0  0  0  0
    1.4816   -0.0677    1.6073 H   0  0  0  0  0  0  0  0  0  0  0  0
   -0.1950    0.0984    2.9432 C   0  0  0  0  0  0  0  0  0  0  0  0
   -0.2464    1.1858    2.8881 H   0  0  0  0  0  0  0  0  0  0  0  0
   -1.2045   -0.3024    3.0276 H   0  0  0  0  0  0  0  0  0  0  0  0
    0.5718   -0.2794    4.2064 C   0  0  0  0  0  0  0  0  0  0  0  0
    1.5221   -1.0444    4.2465 O   0  0  0  0  0  0  0  0  0  0  0  0
    0.1285    0.2859    5.3447 O   0  0  0  0  0  0  0  0  0  0  0  0
    0.6985   -0.0582    6.0346 H   0  0  0  0  0  0  0  0  0  0  0  0
    0.5093   -0.4860   -0.8869 C   0  0  0  0  0  0  0  0  0  0  0  0
   -0.0468   -1.0446   -1.8305 O   0  0  0  0  0  0  0  0  0  0  0  0
    1.8129   -0.1825   -0.8943 N   0  0  0  0  0  0  0  0  0  0  0  0
    2.1945    0.2965   -0.0923 H   0  0  0  0  0  0  0  0  0  0  0  0
    2.7149   -0.4830   -2.0044 C   0  0  0  0  0  0  0  0  0  0  0  0
    2.3401   -0.0221   -2.9200 H   0  0  0  0  0  0  0  0  0  0  0  0
    3.7149   -0.1011   -1.7942 H   0  0  0  0  0  0  0  0  0  0  0  0
    2.7658   -1.5630   -2.1559 H   0  0  0  0  0  0  0  0  0  0  0  0
  5  6  2  0  0  0  0
  5  7  1  0  0  0  0
  2  3  1  0  0  0  0
  2  4  1  0  0  0  0
  2  5  1  0  0  0  0
  1  2  1  0  0  0  0
 21 22  2  0  0  0  0
 21 23  1  0  0  0  0
 19 20  1  0  0  0  0
 17 18  2  0  0  0  0
 17 19  1  0  0  0  0
 14 15  1  0  0  0  0
 14 16  1  0  0  0  0
 14 17  1  0  0  0  0
 11 12  1  0  0  0  0
 11 13  1  0  0  0  0
 11 14  1  0  0  0  0
  9 10  1  0  0  0  0
  9 11  1  0  0  0  0
  9 21  1  0  0  0  0
  7  8  1  0  0  0  0
  7  9  1  0  0  0  0
 25 26  1  0  0  0  0
 25 27  1  0  0  0  0
 25 28  1  0  0  0  0
 23 24  1  0  0  0  0
 23 25  1  0  0  0  0
M  END
$$$$
default_name
  -OEChem-01062215323D

 28 27  0     1  0  0  0  0  0999 V2000
   -3.2133   -3.5565    1.2809 H   0  0  0  0  0  0  0  0  0  0  0  0
   -3.1873   -2.5755    0.8089 C   0  0  0  0  0  0  0  0  0  0  0  0
   -3.8793   -1.9065    1.3169 H   0  0  0  0  0  0  0  0  0  0  0  0
   -3.4623   -2.6685   -0.2401 H   0  0  0  0  0  0  0  0  0  0  0  0
   -1.7863   -2.0195    0.9119 C   0  0  0  0  0  0  0  0  0  0  0  0
   -0.9073   -2.6615    1.4699 O   0  0  0  0  0  0  0  0  0  0  0  0
   -1.5803   -0.8195    0.3749 N   0  0  0  0  0  0  0  0  0  0  0  0
   -2.3603   -0.3345   -0.0451 H   0  0  0  0  0  0  0  0  0  0  0  0
   -0.2933   -0.1205    0.3719 C   0  0  1  0  0  0  0  0  0  0  0  0
   -0.4797    0.9542    0.3537 H   0  0  0  0  0  0  0  0  0  0  0  0
    0.4657   -0.4601    1.6709 C   0  0  0  0  0  0  0  0  0  0  0  0
    0.5261   -1.5466    1.7542 H   0  0  0  0  0  0  0  0  0  0  0  0
    1.4816   -0.0677    1.6073 H   0  0  0  0  0  0  0  0  0  0  0  0
   -0.1950    0.0984    2.9432 C   0  0  0  0  0  0  0  0  0  0  0  0
   -0.2464    1.1858    2.8881 H   0  0  0  0  0  0  0  0  0  0  0  0
   -1.2045   -0.3024    3.0276 H   0  0  0  0  0  0  0  0  0  0  0  0
    0.5718   -0.2794    4.2064 C   0  0  0  0  0  0  0  0  0  0  0  0
    1.5221   -1.0444    4.2465 O   0  0  0  0  0  0  0  0  0  0  0  0
    0.1285    0.2859    5.3447 O   0  0  0  0  0  0  0  0  0  0  0  0
    0.6985   -0.0582    6.0346 H   0  0  0  0  0  0  0  0  0  0  0  0
    0.5093   -0.4860   -0.8869 C   0  0  0  0  0  0  0  0  0  0  0  0
   -0.0772   -0.7852   -1.9252 O   0  0  0  0  0  0  0  0  0  0  0  0
    1.8443   -0.4731   -0.7900 N   0  0  0  0  0  0  0  0  0  0  0  0
    2.2548   -0.1951    0.0889 H   0  0  0  0  0  0  0  0  0  0  0  0
    2.7459   -0.8163   -1.8878 C   0  0  0  0  0  0  0  0  0  0  0  0
    2.5459   -0.1715   -2.7454 H   0  0  0  0  0  0  0  0  0  0  0  0
    3.7845   -0.6899   -1.5788 H   0  0  0  0  0  0  0  0  0  0  0  0
    2.5827   -1.8531   -2.1883 H   0  0  0  0  0  0  0  0  0  0  0  0
  5  6  2  0  0  0  0
  5  7  1  0  0  0  0
  2  3  1  0  0  0  0
  2  4  1  0  0  0  0
  2  5  1  0  0  0  0
  1  2  1  0  0  0  0
 21 22  2  0  0  0  0
 21 23  1  0  0  0  0
 19 20  1  0  0  0  0
 17 18  2  0  0  0  0
 17 19  1  0  0  0  0
 14 15  1  0  0  0  0
 14 16  1  0  0  0  0
 14 17  1  0  0  0  0
 11 12  1  0  0  0  0
 11 13  1  0  0  0  0
 11 14  1  0  0  0  0
  9 10  1  0  0  0  0
  9 11  1  0  0  0  0
  9 21  1  0  0  0  0
  7  8  1  0  0  0  0
  7  9  1  0  0  0  0
 25 26  1  0  0  0  0
 25 27  1  0  0  0  0
 25 28  1  0  0  0  0
 23 24  1  0  0  0  0
 23 25  1  0  0  0  0
M  END
$$$$
default_name
  -OEChem-01062215323D

 28 27  0     1  0  0  0  0  0999 V2000
   -3.2133   -3.5565    1.2809 H   0  0  0  0  0  0  0  0  0  0  0  0
   -3.1873   -2.5755    0.8089 C   0  0  0  0  0  0  0  0  0  0  0  0
   -3.8793   -1.9065    1.3169 H   0  0  0  0  0  0  0  0  0  0  0  0
   -3.4623   -2.6685   -0.2401 H   0  0  0  0  0  0  0  0  0  0  0  0
   -1.7863   -2.0195    0.9119 C   0  0  0  0  0  0  0  0  0  0  0  0
   -0.9073   -2.6615    1.4699 O   0  0  0  0  0  0  0  0  0  0  0  0
   -1.5803   -0.8195    0.3749 N   0  0  0  0  0  0  0  0  0  0  0  0
   -2.3603   -0.3345   -0.0451 H   0  0  0  0  0  0  0  0  0  0  0  0
   -0.2933   -0.1205    0.3719 C   0  0  1  0  0  0  0  0  0  0  0  0
   -0.4797    0.9542    0.3537 H   0  0  0  0  0  0  0  0  0  0  0  0
    0.4657   -0.4601    1.6709 C   0  0  0  0  0  0  0  0  0  0  0  0
    0.5261   -1.5466    1.7542 H   0  0  0  0  0  0  0  0  0  0  0  0
    1.4816   -0.0677    1.6073 H   0  0  0  0  0  0  0  0  0  0  0  0
   -0.1950    0.0984    2.9432 C   0  0  0  0  0  0  0  0  0  0  0  0
   -0.2464    1.1858    2.8881 H   0  0  0  0  0  0  0  0  0  0  0  0
   -1.2045   -0.3024    3.0276 H   0  0  0  0  0  0  0  0  0  0  0  0
    0.5718   -0.2794    4.2064 C   0  0  0  0  0  0  0  0  0  0  0  0
    1.5221   -1.0444    4.2465 O   0  0  0  0  0  0  0  0  0  0  0  0
    0.1285    0.2859    5.3447 O   0  0  0  0  0  0  0  0  0  0  0  0
    0.6985   -0.0582    6.0346 H   0  0  0  0  0  0  0  0  0  0  0  0
    0.5093   -0.4860   -0.8869 C   0  0  0  0  0  0  0  0  0  0  0  0
   -0.0458   -0.5153   -1.9835 O   0  0  0  0  0  0  0  0  0  0  0  0
    1.8065   -0.7746   -0.7265 N   0  0  0  0  0  0  0  0  0  0  0  0
    2.1977   -0.7072    0.2012 H   0  0  0  0  0  0  0  0  0  0  0  0
    2.6981   -1.1606   -1.8183 C   0  0  0  0  0  0  0  0  0  0  0  0
    2.7022   -0.3830   -2.5843 H   0  0  0  0  0  0  0  0  0  0  0  0
    3.7137   -1.3026   -1.4461 H   0  0  0  0  0  0  0  0  0  0  0  0
    2.3464   -2.0902   -2.2702 H   0  0  0  0  0  0  0  0  0  0  0  0
  5  6  2  0  0  0  0
  5  7  1  0  0  0  0
  2  3  1  0  0  0  0
  2  4  1  0  0  0  0
  2  5  1  0  0  0  0
  1  2  1  0  0  0  0
 21 22  2  0  0  0  0
 21 23  1  0  0  0  0
 19 20  1  0  0  0  0
 17 18  2  0  0  0  0
 17 19  1  0  0  0  0
 14 15  1  0  0  0  0
 14 16  1  0  0  0  0
 14 17  1  0  0  0  0
 11 12  1  0  0  0  0
 11 13  1  0  0  0  0
 11 14  1  0  0  0  0
  9 10  1  0  0  0  0
  9 11  1  0  0  0  0
  9 21  1  0  0  0  0
  7  8  1  0  0  0  0
  7  9  1  0  0  0  0
 25 26  1  0  0  0  0
 25 27  1  0  0  0  0
 25 28  1  0  0  0  0
 23 24  1  0  0  0  0
 23 25  1  0  0  0  0
M  END
$$$$
default_name
  -OEChem-01062215323D

 28 27  0     1  0  0  0  0  0999 V2000
   -3.2133   -3.5565    1.2809 H   0  0  0  0  0  0  0  0  0  0  0  0
   -3.1873   -2.5755    0.8089 C   0  0  0  0  0  0  0  0  0  0  0  0
   -3.8793   -1.9065    1.3169 H   0  0  0  0  0  0  0  0  0  0  0  0
   -3.4623   -2.6685   -0.2401 H   0  0  0  0  0  0  0  0  0  0  0  0
   -1.7863   -2.0195    0.9119 C   0  0  0  0  0  0  0  0  0  0  0  0
   -0.9073   -2.6615    1.4699 O   0  0  0  0  0  0  0  0  0  0  0  0
   -1.5803   -0.8195    0.3749 N   0  0  0  0  0  0  0  0  0  0  0  0
   -2.3603   -0.3345   -0.0451 H   0  0  0  0  0  0  0  0  0  0  0  0
   -0.2933   -0.1205    0.3719 C   0  0  1  0  0  0  0  0  0  0  0  0
   -0.4797    0.9542    0.3537 H   0  0  0  0  0  0  0  0  0  0  0  0
    0.4657   -0.4601    1.6709 C   0  0  0  0  0  0  0  0  0  0  0  0
    0.5261   -1.5466    1.7542 H   0  0  0  0  0  0  0  0  0  0  0  0
    1.4816   -0.0677    1.6073 H   0  0  0  0  0  0  0  0  0  0  0  0
   -0.1950    0.0984    2.9432 C   0  0  0  0  0  0  0  0  0  0  0  0
   -0.2464    1.1858    2.8881 H   0  0  0  0  0  0  0  0  0  0  0  0
   -1.2045   -0.3024    3.0276 H   0  0  0  0  0  0  0  0  0  0  0  0
    0.5718   -0.2794    4.2064 C   0  0  0  0  0  0  0  0  0  0  0  0
    1.5221   -1.0444    4.2465 O   0  0  0  0  0  0  0  0  0  0  0  0
    0.1285    0.2859    5.3447 O   0  0  0  0  0  0  0  0  0  0  0  0
    0.6985   -0.0582    6.0346 H   0  0  0  0  0  0  0  0  0  0  0  0
    0.5093   -0.4860   -0.8869 C   0  0  0  0  0  0  0  0  0  0  0  0
    0.0454   -0.2534   -2.0015 O   0  0  0  0  0  0  0  0  0  0  0  0
    1.7022   -1.0664   -0.7083 N   0  0  0  0  0  0  0  0  0  0  0  0
    2.0270   -1.2050    0.2370 H   0  0  0  0  0  0  0  0  0  0  0  0
    2.5746   -1.4924   -1.8007 C   0  0  0  0  0  0  0  0  0  0  0  0
    2.7985   -0.6423   -2.4476 H   0  0  0  0  0  0  0  0  0  0  0  0
    3.5072   -1.8972   -1.4050 H   0  0  0  0  0  0  0  0  0  0  0  0
    2.0729   -2.2580   -2.3958 H   0  0  0  0  0  0  0  0  0  0  0  0
  5  6  2  0  0  0  0
  5  7  1  0  0  0  0
  2  3  1  0  0  0  0
  2  4  1  0  0  0  0
  2  5  1  0  0  0  0
  1  2  1  0  0  0  0
 21 22  2  0  0  0  0
 21 23  1  0  0  0  0
 19 20  1  0  0  0  0
 17 18  2  0  0  0  0
 17 19  1  0  0  0  0
 14 15  1  0  0  0  0
 14 16  1  0  0  0  0
 14 17  1  0  0  0  0
 11 12  1  0  0  0  0
 11 13  1  0  0  0  0
 11 14  1  0  0  0  0
  9 10  1  0  0  0  0
  9 11  1  0  0  0  0
  9 21  1  0  0  0  0
  7  8  1  0  0  0  0
  7  9  1  0  0  0  0
 25 26  1  0  0  0  0
 25 27  1  0  0  0  0
 25 28  1  0  0  0  0
 23 24  1  0  0  0  0
 23 25  1  0  0  0  0
M  END
$$$$
default_name
  -OEChem-01062215323D

 28 27  0     1  0  0  0  0  0999 V2000
   -3.2133   -3.5565    1.2809 H   0  0  0  0  0  0  0  0  0  0  0  0
   -3.1873   -2.5755    0.8089 C   0  0  0  0  0  0  0  0  0  0  0  0
   -3.8793   -1.9065    1.3169 H   0  0  0  0  0  0  0  0  0  0  0  0
   -3.4623   -2.6685   -0.2401 H   0  0  0  0  0  0  0  0  0  0  0  0
   -1.7863   -2.0195    0.9119 C   0  0  0  0  0  0  0  0  0  0  0  0
   -0.9073   -2.6615    1.4699 O   0  0  0  0  0  0  0  0  0  0  0  0
   -1.5803   -0.8195    0.3749 N   0  0  0  0  0  0  0  0  0  0  0  0
   -2.3603   -0.3345   -0.0451 H   0  0  0  0  0  0  0  0  0  0  0  0
   -0.2933   -0.1205    0.3719 C   0  0  1  0  0  0  0  0  0  0  0  0
   -0.4797    0.9542    0.3537 H   0  0  0  0  0  0  0  0  0  0  0  0
    0.4657   -0.4601    1.6709 C   0  0  0  0  0  0  0  0  0  0  0  0
    0.5261   -1.5466    1.7542 H   0  0  0  0  0  0  0  0  0  0  0  0
    1.4816   -0.0677    1.6073 H   0  0  0  0  0  0  0  0  0  0  0  0
   -0.1950    0.0984    2.9432 C   0  0  0  0  0  0  0  0  0  0  0  0
   -0.2464    1.1858    2.8881 H   0  0  0  0  0  0  0  0  0  0  0  0
   -1.2045   -0.3024    3.0276 H   0  0  0  0  0  0  0  0  0  0  0  0
    0.5718   -0.2794    4.2064 C   0  0  0  0  0  0  0  0  0  0  0  0
    1.5221   -1.0444    4.2465 O   0  0  0  0  0  0  0  0  0  0  0  0
    0.1285    0.2859    5.3447 O   0  0  0  0  0  0  0  0  0  0  0  0
    0.6985   -0.0582    6.0346 H   0  0  0  0  0  0  0  0  0  0  0  0
    0.5093   -0.4860   -0.8869 C   0  0  0  0  0  0  0  0  0  0  0  0
    0.1900   -0.0173   -1.9778 O   0  0  0  0  0  0  0  0  0  0  0  0
    1.5385   -1.3285   -0.7365 N   0  0  0  0  0  0  0  0  0  0  0  0
    1.7545   -1.6544    0.1937 H   0  0  0  0  0  0  0  0  0  0  0  0
    2.3839   -1.7891   -1.8361 C   0  0  0  0  0  0  0  0  0  0  0  0
    2.8281   -0.9316   -2.3447 H   0  0  0  0  0  0  0  0  0  0  0  0
    3.1792   -2.4334   -1.4585 H   0  0  0  0  0  0  0  0  0  0  0  0
    1.7810   -2.3452   -2.5567 H   0  0  0  0  0  0  0  0  0  0  0  0
  5  6  2  0  0  0  0
  5  7  1  0  0  0  0
  2  3  1  0  0  0  0
  2  4  1  0  0  0  0
  2  5  1  0  0  0  0
  1  2  1  0  0  0  0
 21 22  2  0  0  0  0
 21 23  1  0  0  0  0
 19 20  1  0  0  0  0
 17 18  2  0  0  0  0
 17 19  1  0  0  0  0
 14 15  1  0  0  0  0
 14 16  1  0  0  0  0
 14 17  1  0  0  0  0
 11 12  1  0  0  0  0
 11 13  1  0  0  0  0
 11 14  1  0  0  0  0
  9 10  1  0  0  0  0
  9 11  1  0  0  0  0
  9 21  1  0  0  0  0
  7  8  1  0  0  0  0
  7  9  1  0  0  0  0
 25 26  1  0  0  0  0
 25 27  1  0  0  0  0
 25 28  1  0  0  0  0
 23 24  1  0  0  0  0
 23 25  1  0  0  0  0
M  END
$$$$
default_name
  -OEChem-01062215323D

 28 27  0     1  0  0  0  0  0999 V2000
   -3.2133   -3.5565    1.2809 H   0  0  0  0  0  0  0  0  0  0  0  0
   -3.1873   -2.5755    0.8089 C   0  0  0  0  0  0  0  0  0  0  0  0
   -3.8793   -1.9065    1.3169 H   0  0  0  0  0  0  0  0  0  0  0  0
   -3.4623   -2.6685   -0.2401 H   0  0  0  0  0  0  0  0  0  0  0  0
   -1.7863   -2.0195    0.9119 C   0  0  0  0  0  0  0  0  0  0  0  0
   -0.9073   -2.6615    1.4699 O   0  0  0  0  0  0  0  0  0  0  0  0
   -1.5803   -0.8195    0.3749 N   0  0  0  0  0  0  0  0  0  0  0  0
   -2.3603   -0.3345   -0.0451 H   0  0  0  0  0  0  0  0  0  0  0  0
   -0.2933   -0.1205    0.3719 C   0  0  1  0  0  0  0  0  0  0  0  0
   -0.4797    0.9542    0.3537 H   0  0  0  0  0  0  0  0  0  0  0  0
    0.4657   -0.4601    1.6709 C   0  0  0  0  0  0  0  0  0  0  0  0
    0.5261   -1.5466    1.7542 H   0  0  0  0  0  0  0  0  0  0  0  0
    1.4816   -0.0677    1.6073 H   0  0  0  0  0  0  0  0  0  0  0  0
   -0.1950    0.0984    2.9432 C   0  0  0  0  0  0  0  0  0  0  0  0
   -0.2464    1.1858    2.8881 H   0  0  0  0  0  0  0  0  0  0  0  0
   -1.2045   -0.3024    3.0276 H   0  0  0  0  0  0  0  0  0  0  0  0
    0.5718   -0.2794    4.2064 C   0  0  0  0  0  0  0  0  0  0  0  0
    1.5221   -1.0444    4.2465 O   0  0  0  0  0  0  0  0  0  0  0  0
    0.1285    0.2859    5.3447 O   0  0  0  0  0  0  0  0  0  0  0  0
    0.6985   -0.0582    6.0346 H   0  0  0  0  0  0  0  0  0  0  0  0
    0.5093   -0.4860   -0.8869 C   0  0  0  0  0  0  0  0  0  0  0  0
    0.3784    0.1769   -1.9141 O   0  0  0  0  0  0  0  0  0  0  0  0
    1.3265   -1.5433   -0.8093 N   0  0  0  0  0  0  0  0  0  0  0  0
    1.3987   -2.0249    0.0744 H   0  0  0  0  0  0  0  0  0  0  0  0
    2.1390   -2.0306   -1.9221 C   0  0  0  0  0  0  0  0  0  0  0  0
    2.7891   -1.2312   -2.2826 H   0  0  0  0  0  0  0  0  0  0  0  0
    2.7520   -2.8746   -1.6027 H   0  0  0  0  0  0  0  0  0  0  0  0
    1.4903   -2.3458   -2.7418 H   0  0  0  0  0  0  0  0  0  0  0  0
  5  6  2  0  0  0  0
  5  7  1  0  0  0  0
  2  3  1  0  0  0  0
  2  4  1  0  0  0  0
  2  5  1  0  0  0  0
  1  2  1  0  0  0  0
 21 22  2  0  0  0  0
 21 23  1  0  0  0  0
 19 20  1  0  0  0  0
 17 18  2  0  0  0  0
 17 19  1  0  0  0  0
 14 15  1  0  0  0  0
 14 16  1  0  0  0  0
 14 17  1  0  0  0  0
 11 12  1  0  0  0  0
 11 13  1  0  0  0  0
 11 14  1  0  0  0  0
  9 10  1  0  0  0  0
  9 11  1  0  0  0  0
  9 21  1  0  0  0  0
  7  8  1  0  0  0  0
  7  9  1  0  0  0  0
 25 26  1  0  0  0  0
 25 27  1  0  0  0  0
 25 28  1  0  0  0  0
 23 24  1  0  0  0  0
 23 25  1  0  0  0  0
M  END
$$$$
default_name
  -OEChem-01062215323D

 28 27  0     1  0  0  0  0  0999 V2000
   -3.2133   -3.5565    1.2809 H   0  0  0  0  0  0  0  0  0  0  0  0
   -3.1873   -2.5755    0.8089 C   0  0  0  0  0  0  0  0  0  0  0  0
   -3.8793   -1.9065    1.3169 H   0  0  0  0  0  0  0  0  0  0  0  0
   -3.4623   -2.6685   -0.2401 H   0  0  0  0  0  0  0  0  0  0  0  0
   -1.7863   -2.0195    0.9119 C   0  0  0  0  0  0  0  0  0  0  0  0
   -0.9073   -2.6615    1.4699 O   0  0  0  0  0  0  0  0  0  0  0  0
   -1.5803   -0.8195    0.3749 N   0  0  0  0  0  0  0  0  0  0  0  0
   -2.3603   -0.3345   -0.0451 H   0  0  0  0  0  0  0  0  0  0  0  0
   -0.2933   -0.1205    0.3719 C   0  0  1  0  0  0  0  0  0  0  0  0
   -0.4797    0.9542    0.3537 H   0  0  0  0  0  0  0  0  0  0  0  0
    0.4657   -0.4601    1.6709 C   0  0  0  0  0  0  0  0  0  0  0  0
    0.5261   -1.5466    1.7542 H   0  0  0  0  0  0  0  0  0  0  0  0
    1.4816   -0.0677    1.6073 H   0  0  0  0  0  0  0  0  0  0  0  0
   -0.1950    0.0984    2.9432 C   0  0  0  0  0  0  0  0  0  0  0  0
   -0.2464    1.1858    2.8881 H   0  0  0  0  0  0  0  0  0  0  0  0
   -1.2045   -0.3024    3.0276 H   0  0  0  0  0  0  0  0  0  0  0  0
    0.5718   -0.2794    4.2064 C   0  0  0  0  0  0  0  0  0  0  0  0
    1.5221   -1.0444    4.2465 O   0  0  0  0  0  0  0  0  0  0  0  0
    0.1285    0.2859    5.3447 O   0  0  0  0  0  0  0  0  0  0  0  0
    0.6985   -0.0582    6.0346 H   0  0  0  0  0  0  0  0  0  0  0  0
    0.5093   -0.4860   -0.8869 C   0  0  0  0  0  0  0  0  0  0  0  0
    0.5975    0.3159   -1.8147 O   0  0  0  0  0  0  0  0  0  0  0  0
    1.0807   -1.6959   -0.9217 N   0  0  0  0  0  0  0  0  0  0  0  0
    0.9837   -2.2913   -0.1128 H   0  0  0  0  0  0  0  0  0  0  0  0
    1.8566   -2.2002   -2.0529 C   0  0  0  0  0  0  0  0  0  0  0  0
    2.6840   -1.5208   -2.2655 H   0  0  0  0  0  0  0  0  0  0  0  0
    2.2547   -3.1906   -1.8280 H   0  0  0  0  0  0  0  0  0  0  0  0
    1.2209   -2.2597   -2.9386 H   0  0  0  0  0  0  0  0  0  0  0  0
  5  6  2  0  0  0  0
  5  7  1  0  0  0  0
  2  3  1  0  0  0  0
  2  4  1  0  0  0  0
  2  5  1  0  0  0  0
  1  2  1  0  0  0  0
 21 22  2  0  0  0  0
 21 23  1  0  0  0  0
 19 20  1  0  0  0  0
 17 18  2  0  0  0  0
 17 19  1  0  0  0  0
 14 15  1  0  0  0  0
 14 16  1  0  0  0  0
 14 17  1  0  0  0  0
 11 12  1  0  0  0  0
 11 13  1  0  0  0  0
 11 14  1  0  0  0  0
  9 10  1  0  0  0  0
  9 11  1  0  0  0  0
  9 21  1  0  0  0  0
  7  8  1  0  0  0  0
  7  9  1  0  0  0  0
 25 26  1  0  0  0  0
 25 27  1  0  0  0  0
 25 28  1  0  0  0  0
 23 24  1  0  0  0  0
 23 25  1  0  0  0  0
M  END
$$$$
default_name
  -OEChem-01062215323D

 28 27  0     1  0  0  0  0  0999 V2000
   -3.2133   -3.5565    1.2809 H   0  0  0  0  0  0  0  0  0  0  0  0
   -3.1873   -2.5755    0.8089 C   0  0  0  0  0  0  0  0  0  0  0  0
   -3.8793   -1.9065    1.3169 H   0  0  0  0  0  0  0  0  0  0  0  0
   -3.4623   -2.6685   -0.2401 H   0  0  0  0  0  0  0  0  0  0  0  0
   -1.7863   -2.0195    0.9119 C   0  0  0  0  0  0  0  0  0  0  0  0
   -0.9073   -2.6615    1.4699 O   0  0  0  0  0  0  0  0  0  0  0  0
   -1.5803   -0.8195    0.3749 N   0  0  0  0  0  0  0  0  0  0  0  0
   -2.3603   -0.3345   -0.0451 H   0  0  0  0  0  0  0  0  0  0  0  0
   -0.2933   -0.1205    0.3719 C   0  0  1  0  0  0  0  0  0  0  0  0
   -0.4797    0.9542    0.3537 H   0  0  0  0  0  0  0  0  0  0  0  0
    0.4657   -0.4601    1.6709 C   0  0  0  0  0  0  0  0  0  0  0  0
    0.5261   -1.5466    1.7542 H   0  0  0  0  0  0  0  0  0  0  0  0
    1.4816   -0.0677    1.6073 H   0  0  0  0  0  0  0  0  0  0  0  0
   -0.1950    0.0984    2.9432 C   0  0  0  0  0  0  0  0  0  0  0  0
   -0.2464    1.1858    2.8881 H   0  0  0  0  0  0  0  0  0  0  0  0
   -1.2045   -0.3024    3.0276 H   0  0  0  0  0  0  0  0  0  0  0  0
    0.5718   -0.2794    4.2064 C   0  0  0  0  0  0  0  0  0  0  0  0
    1.5221   -1.0444    4.2465 O   0  0  0  0  0  0  0  0  0  0  0  0
    0.1285    0.2859    5.3447 O   0  0  0  0  0  0  0  0  0  0  0  0
    0.6985   -0.0582    6.0346 H   0  0  0  0  0  0  0  0  0  0  0  0
    0.5093   -0.4860   -0.8869 C   0  0  0  0  0  0  0  0  0  0  0  0
    0.8326    0.3903   -1.6865 O   0  0  0  0  0  0  0  0  0  0  0  0
    0.8179   -1.7761   -1.0660 N   0  0  0  0  0  0  0  0  0  0  0  0
    0.5380   -2.4353   -0.3552 H   0  0  0  0  0  0  0  0  0  0  0  0
    1.5559   -2.2865   -2.2196 C   0  0  0  0  0  0  0  0  0  0  0  0
    2.5201   -1.7805   -2.2946 H   0  0  0  0  0  0  0  0  0  0  0  0
    1.7213   -3.3601   -2.1189 H   0  0  0  0  0  0  0  0  0  0  0  0
    0.9910   -2.0928   -3.1336 H   0  0  0  0  0  0  0  0  0  0  0  0
  5  6  2  0  0  0  0
  5  7  1  0  0  0  0
  2  3  1  0  0  0  0
  2  4  1  0  0  0  0
  2  5  1  0  0  0  0
  1  2  1  0  0  0  0
 21 22  2  0  0  0  0
 21 23  1  0  0  0  0
 19 20  1  0  0  0  0
 17 18  2  0  0  0  0
 17 19  1  0  0  0  0
 14 15  1  0  0  0  0
 14 16  1  0  0  0  0
 14 17  1  0  0  0  0
 11 12  1  0  0  0  0
 11 13  1  0  0  0  0
 11 14  1  0  0  0  0
  9 10  1  0  0  0  0
  9 11  1  0  0  0  0
  9 21  1  0  0  0  0
  7  8  1  0  0  0  0
  7  9  1  0  0  0  0
 25 26  1  0  0  0  0
 25 27  1  0  0  0  0
 25 28  1  0  0  0  0
 23 24  1  0  0  0  0
 23 25  1  0  0  0  0
M  END
$$$$
default_name
  -OEChem-01062215323D

 28 27  0     1  0  0  0  0  0999 V2000
   -3.2133   -3.5565    1.2809 H   0  0  0  0  0  0  0  0  0  0  0  0
   -3.1873   -2.5755    0.8089 C   0  0  0  0  0  0  0  0  0  0  0  0
   -3.8793   -1.9065    1.3169 H   0  0  0  0  0  0  0  0  0  0  0  0
   -3.4623   -2.6685   -0.2401 H   0  0  0  0  0  0  0  0  0  0  0  0
   -1.7863   -2.0195    0.9119 C   0  0  0  0  0  0  0  0  0  0  0  0
   -0.9073   -2.6615    1.4699 O   0  0  0  0  0  0  0  0  0  0  0  0
   -1.5803   -0.8195    0.3749 N   0  0  0  0  0  0  0  0  0  0  0  0
   -2.3603   -0.3345   -0.0451 H   0  0  0  0  0  0  0  0  0  0  0  0
   -0.2933   -0.1205    0.3719 C   0  0  1  0  0  0  0  0  0  0  0  0
   -0.4797    0.9542    0.3537 H   0  0  0  0  0  0  0  0  0  0  0  0
    0.4657   -0.4601    1.6709 C   0  0  0  0  0  0  0  0  0  0  0  0
    0.5261   -1.5466    1.7542 H   0  0  0  0  0  0  0  0  0  0  0  0
    1.4816   -0.0677    1.6073 H   0  0  0  0  0  0  0  0  0  0  0  0
   -0.1950    0.0984    2.9432 C   0  0  0  0  0  0  0  0  0  0  0  0
   -0.2464    1.1858    2.8881 H   0  0  0  0  0  0  0  0  0  0  0  0
   -1.2045   -0.3024    3.0276 H   0  0  0  0  0  0  0  0  0  0  0  0
    0.5718   -0.2794    4.2064 C   0  0  0  0  0  0  0  0  0  0  0  0
    1.5221   -1.0444    4.2465 O   0  0  0  0  0  0  0  0  0  0  0  0
    0.1285    0.2859    5.3447 O   0  0  0  0  0  0  0  0  0  0  0  0
    0.6985   -0.0582    6.0346 H   0  0  0  0  0  0  0  0  0  0  0  0
    0.5093   -0.4860   -0.8869 C   0  0  0  0  0  0  0  0  0  0  0  0
    1.0675    0.3950   -1.5381 O   0  0  0  0  0  0  0  0  0  0  0  0
    0.5558   -1.7783   -1.2324 N   0  0  0  0  0  0  0  0  0  0  0  0
    0.0919   -2.4472   -0.6362 H   0  0  0  0  0  0  0  0  0  0  0  0
    1.2574   -2.2836   -2.4108 C   0  0  0  0  0  0  0  0  0  0  0  0
    2.3085   -1.9927   -2.3679 H   0  0  0  0  0  0  0  0  0  0  0  0
    1.1880   -3.3714   -2.4557 H   0  0  0  0  0  0  0  0  0  0  0  0
    0.8163   -1.8566   -3.3136 H   0  0  0  0  0  0  0  0  0  0  0  0
  5  6  2  0  0  0  0
  5  7  1  0  0  0  0
  2  3  1  0  0  0  0
  2  4  1  0  0  0  0
  2  5  1  0  0  0  0
  1  2  1  0  0  0  0
 21 22  2  0  0  0  0
 21 23  1  0  0  0  0
 19 20  1  0  0  0  0
 17 18  2  0  0  0  0
 17 19  1  0  0  0  0
 14 15  1  0  0  0  0
 14 16  1  0  0  0  0
 14 17  1  0  0  0  0
 11 12  1  0  0  0  0
 11 13  1  0  0  0  0
 11 14  1  0  0  0  0
  9 10  1  0  0  0  0
  9 11  1  0  0  0  0
  9 21  1  0  0  0  0
  7  8  1  0  0  0  0
  7  9  1  0  0  0  0
 25 26  1  0  0  0  0
 25 27  1  0  0  0  0
 25 28  1  0  0  0  0
 23 24  1  0  0  0  0
 23 25  1  0  0  0  0
M  END
$$$$
default_name
  -OEChem-01062215323D

 28 27  0     1  0  0  0  0  0999 V2000
   -3.2133   -3.5565    1.2809 H   0  0  0  0  0  0  0  0  0  0  0  0
   -3.1873   -2.5755    0.8089 C   0  0  0  0  0  0  0  0  0  0  0  0
   -3.8793   -1.9065    1.3169 H   0  0  0  0  0  0  0  0  0  0  0  0
   -3.4623   -2.6685   -0.2401 H   0  0  0  0  0  0  0  0  0  0  0  0
   -1.7863   -2.0195    0.9119 C   0  0  0  0  0  0  0  0  0  0  0  0
   -0.9073   -2.6615    1.4699 O   0  0  0  0  0  0  0  0  0  0  0  0
   -1.5803   -0.8195    0.3749 N   0  0  0  0  0  0  0  0  0  0  0  0
   -2.3603   -0.3345   -0.0451 H   0  0  0  0  0  0  0  0  0  0  0  0
   -0.2933   -0.1205    0.3719 C   0  0  1  0  0  0  0  0  0  0  0  0
   -0.4797    0.9542    0.3537 H   0  0  0  0  0  0  0  0  0  0  0  0
    0.4657   -0.4601    1.6709 C   0  0  0  0  0  0  0  0  0  0  0  0
    0.5261   -1.5466    1.7542 H   0  0  0  0  0  0  0  0  0  0  0  0
    1.4816   -0.0677    1.6073 H   0  0  0  0  0  0  0  0  0  0  0  0
   -0.1950    0.0984    2.9432 C   0  0  0  0  0  0  0  0  0  0  0  0
   -0.2464    1.1858    2.8881 H   0  0  0  0  0  0  0  0  0  0  0  0
   -1.2045   -0.3024    3.0276 H   0  0  0  0  0  0  0  0  0  0  0  0
    0.5718   -0.2794    4.2064 C   0  0  0  0  0  0  0  0  0  0  0  0
    1.5221   -1.0444    4.2465 O   0  0  0  0  0  0  0  0  0  0  0  0
    0.1285    0.2859    5.3447 O   0  0  0  0  0  0  0  0  0  0  0  0
    0.6985   -0.0582    6.0346 H   0  0  0  0  0  0  0  0  0  0  0  0
    0.5093   -0.4860   -0.8869 C   0  0  0  0  0  0  0  0  0  0  0  0
    1.2862    0.3297   -1.3796 O   0  0  0  0  0  0  0  0  0  0  0  0
    0.3125   -1.7024   -1.4096 N   0  0  0  0  0  0  0  0  0  0  0  0
   -0.3242   -2.3261   -0.9367 H   0  0  0  0  0  0  0  0  0  0  0  0
    0.9814   -2.1917   -2.6134 C   0  0  0  0  0  0  0  0  0  0  0  0
    2.0637   -2.1429   -2.4804 H   0  0  0  0  0  0  0  0  0  0  0  0
    0.6912   -3.2237   -2.8153 H   0  0  0  0  0  0  0  0  0  0  0  0
    0.7087   -1.5670   -3.4663 H   0  0  0  0  0  0  0  0  0  0  0  0
  5  6  2  0  0  0  0
  5  7  1  0  0  0  0
  2  3  1  0  0  0  0
  2  4  1  0  0  0  0
  2  5  1  0  0  0  0
  1  2  1  0  0  0  0
 21 22  2  0  0  0  0
 21 23  1  0  0  0  0
 19 20  1  0  0  0  0
 17 18  2  0  0  0  0
 17 19  1  0  0  0  0
 14 15  1  0  0  0  0
 14 16  1  0  0  0  0
 14 17  1  0  0  0  0
 11 12  1  0  0  0  0
 11 13  1  0  0  0  0
 11 14  1  0  0  0  0
  9 10  1  0  0  0  0
  9 11  1  0  0  0  0
  9 21  1  0  0  0  0
  7  8  1  0  0  0  0
  7  9  1  0  0  0  0
 25 26  1  0  0  0  0
 25 27  1  0  0  0  0
 25 28  1  0  0  0  0
 23 24  1  0  0  0  0
 23 25  1  0  0  0  0
M  END
$$$$
default_name
  -OEChem-01062215323D

 28 27  0     1  0  0  0  0  0999 V2000
   -3.2133   -3.5565    1.2809 H   0  0  0  0  0  0  0  0  0  0  0  0
   -3.1873   -2.5755    0.8089 C   0  0  0  0  0  0  0  0  0  0  0  0
   -3.8793   -1.9065    1.3169 H   0  0  0  0  0  0  0  0  0  0  0  0
   -3.4623   -2.6685   -0.2401 H   0  0  0  0  0  0  0  0  0  0  0  0
   -1.7863   -2.0195    0.9119 C   0  0  0  0  0  0  0  0  0  0  0  0
   -0.9073   -2.6615    1.4699 O   0  0  0  0  0  0  0  0  0  0  0  0
   -1.5803   -0.8195    0.3749 N   0  0  0  0  0  0  0  0  0  0  0  0
   -2.3603   -0.3345   -0.0451 H   0  0  0  0  0  0  0  0  0  0  0  0
   -0.2933   -0.1205    0.3719 C   0  0  1  0  0  0  0  0  0  0  0  0
   -0.4797    0.9542    0.3537 H   0  0  0  0  0  0  0  0  0  0  0  0
    0.4657   -0.4601    1.6709 C   0  0  0  0  0  0  0  0  0  0  0  0
    0.5261   -1.5466    1.7542 H   0  0  0  0  0  0  0  0  0  0  0  0
    1.4816   -0.0677    1.6073 H   0  0  0  0  0  0  0  0  0  0  0  0
   -0.1950    0.0984    2.9432 C   0  0  0  0  0  0  0  0  0  0  0  0
   -0.2464    1.1858    2.8881 H   0  0  0  0  0  0  0  0  0  0  0  0
   -1.2045   -0.3024    3.0276 H   0  0  0  0  0  0  0  0  0  0  0  0
    0.5718   -0.2794    4.2064 C   0  0  0  0  0  0  0  0  0  0  0  0
    1.5221   -1.0444    4.2465 O   0  0  0  0  0  0  0  0  0  0  0  0
    0.1285    0.2859    5.3447 O   0  0  0  0  0  0  0  0  0  0  0  0
    0.6985   -0.0582    6.0346 H   0  0  0  0  0  0  0  0  0  0  0  0
    0.5093   -0.4860   -0.8869 C   0  0  0  0  0  0  0  0  0  0  0  0
    1.4739    0.1988   -1.2219 O   0  0  0  0  0  0  0  0  0  0  0  0
    0.1045   -1.5536   -1.5855 N   0  0  0  0  0  0  0  0  0  0  0  0
   -0.6821   -2.0803   -1.2362 H   0  0  0  0  0  0  0  0  0  0  0  0
    0.7468   -2.0170   -2.8137 C   0  0  0  0  0  0  0  0  0  0  0  0
    1.8023   -2.2209   -2.6244 H   0  0  0  0  0  0  0  0  0  0  0  0
    0.2648   -2.9272   -3.1733 H   0  0  0  0  0  0  0  0  0  0  0  0
    0.6756   -1.2438   -3.5813 H   0  0  0  0  0  0  0  0  0  0  0  0
  5  6  2  0  0  0  0
  5  7  1  0  0  0  0
  2  3  1  0  0  0  0
  2  4  1  0  0  0  0
  2  5  1  0  0  0  0
  1  2  1  0  0  0  0
 21 22  2  0  0  0  0
 21 23  1  0  0  0  0
 19 20  1  0  0  0  0
 17 18  2  0  0  0  0
 17 19  1  0  0  0  0
 14 15  1  0  0  0  0
 14 16  1  0  0  0  0
 14 17  1  0  0  0  0
 11 12  1  0  0  0  0
 11 13  1  0  0  0  0
 11 14  1  0  0  0  0
  9 10  1  0  0  0  0
  9 11  1  0  0  0  0
  9 21  1  0  0  0  0
  7  8  1  0  0  0  0
  7  9  1  0  0  0  0
 25 26  1  0  0  0  0
 25 27  1  0  0  0  0
 25 28  1  0  0  0  0
 23 24  1  0  0  0  0
 23 25  1  0  0  0  0
M  END
$$$$
default_name
  -OEChem-01062215323D

 28 27  0     1  0  0  0  0  0999 V2000
   -3.2133   -3.5565    1.2809 H   0  0  0  0  0  0  0  0  0  0  0  0
   -3.1873   -2.5755    0.8089 C   0  0  0  0  0  0  0  0  0  0  0  0
   -3.8793   -1.9065    1.3169 H   0  0  0  0  0  0  0  0  0  0  0  0
   -3.4623   -2.6685   -0.2401 H   0  0  0  0  0  0  0  0  0  0  0  0
   -1.7863   -2.0195    0.9119 C   0  0  0  0  0  0  0  0  0  0  0  0
   -0.9073   -2.6615    1.4699 O   0  0  0  0  0  0  0  0  0  0  0  0
   -1.5803   -0.8195    0.3749 N   0  0  0  0  0  0  0  0  0  0  0  0
   -2.3603   -0.3345   -0.0451 H   0  0  0  0  0  0  0  0  0  0  0  0
   -0.2933   -0.1205    0.3719 C   0  0  1  0  0  0  0  0  0  0  0  0
   -0.4797    0.9542    0.3537 H   0  0  0  0  0  0  0  0  0  0  0  0
    0.4657   -0.4601    1.6709 C   0  0  0  0  0  0  0  0  0  0  0  0
    0.5261   -1.5466    1.7542 H   0  0  0  0  0  0  0  0  0  0  0  0
    1.4816   -0.0677    1.6073 H   0  0  0  0  0  0  0  0  0  0  0  0
   -0.1950    0.0984    2.9432 C   0  0  0  0  0  0  0  0  0  0  0  0
   -0.2464    1.1858    2.8881 H   0  0  0  0  0  0  0  0  0  0  0  0
   -1.2045   -0.3024    3.0276 H   0  0  0  0  0  0  0  0  0  0  0  0
    0.5718   -0.2794    4.2064 C   0  0  0  0  0  0  0  0  0  0  0  0
    1.5221   -1.0444    4.2465 O   0  0  0  0  0  0  0  0  0  0  0  0
    0.1285    0.2859    5.3447 O   0  0  0  0  0  0  0  0  0  0  0  0
    0.6985   -0.0582    6.0346 H   0  0  0  0  0  0  0  0  0  0  0  0
    0.5093   -0.4860   -0.8869 C   0  0  0  0  0  0  0  0  0  0  0  0
    1.6178    0.0113   -1.0757 O   0  0  0  0  0  0  0  0  0  0  0  0
   -0.0540   -1.3419   -1.7480 N   0  0  0  0  0  0  0  0  0  0  0  0
   -0.9571   -1.7266   -1.5143 H   0  0  0  0  0  0  0  0  0  0  0  0
    0.5696   -1.7715   -2.9980 C   0  0  0  0  0  0  0  0  0  0  0  0
    1.5421   -2.2214   -2.7901 H   0  0  0  0  0  0  0  0  0  0  0  0
   -0.0622   -2.5020   -3.5053 H   0  0  0  0  0  0  0  0  0  0  0  0
    0.7192   -0.9092   -3.6507 H   0  0  0  0  0  0  0  0  0  0  0  0
  5  6  2  0  0  0  0
  5  7  1  0  0  0  0
  2  3  1  0  0  0  0
  2  4  1  0  0  0  0
  2  5  1  0  0  0  0
  1  2  1  0  0  0  0
 21 22  2  0  0  0  0
 21 23  1  0  0  0  0
 19 20  1  0  0  0  0
 17 18  2  0  0  0  0
 17 19  1  0  0  0  0
 14 15  1  0  0  0  0
 14 16  1  0  0  0  0
 14 17  1  0  0  0  0
 11 12  1  0  0  0  0
 11 13  1  0  0  0  0
 11 14  1  0  0  0  0
  9 10  1  0  0  0  0
  9 11  1  0  0  0  0
  9 21  1  0  0  0  0
  7  8  1  0  0  0  0
  7  9  1  0  0  0  0
 25 26  1  0  0  0  0
 25 27  1  0  0  0  0
 25 28  1  0  0  0  0
 23 24  1  0  0  0  0
 23 25  1  0  0  0  0
M  END
$$$$
default_name
  -OEChem-01062215323D

 28 27  0     1  0  0  0  0  0999 V2000
   -3.2133   -3.5565    1.2809 H   0  0  0  0  0  0  0  0  0  0  0  0
   -3.1873   -2.5755    0.8089 C   0  0  0  0  0  0  0  0  0  0  0  0
   -3.8793   -1.9065    1.3169 H   0  0  0  0  0  0  0  0  0  0  0  0
   -3.4623   -2.6685   -0.2401 H   0  0  0  0  0  0  0  0  0  0  0  0
   -1.7863   -2.0195    0.9119 C   0  0  0  0  0  0  0  0  0  0  0  0
   -0.9073   -2.6615    1.4699 O   0  0  0  0  0  0  0  0  0  0  0  0
   -1.5803   -0.8195    0.3749 N   0  0  0  0  0  0  0  0  0  0  0  0
   -2.3603   -0.3345   -0.0451 H   0  0  0  0  0  0  0  0  0  0  0  0
   -0.2933   -0.1205    0.3719 C   0  0  1  0  0  0  0  0  0  0  0  0
   -0.4797    0.9542    0.3537 H   0  0  0  0  0  0  0  0  0  0  0  0
    0.4657   -0.4601    1.6709 C   0  0  0  0  0  0  0  0  0  0  0  0
    0.5261   -1.5466    1.7542 H   0  0  0  0  0  0  0  0  0  0  0  0
    1.4816   -0.0677    1.6073 H   0  0  0  0  0  0  0  0  0  0  0  0
   -0.1950    0.0984    2.9432 C   0  0  0  0  0  0  0  0  0  0  0  0
   -0.2464    1.1858    2.8881 H   0  0  0  0  0  0  0  0  0  0  0  0
   -1.2045   -0.3024    3.0276 H   0  0  0  0  0  0  0  0  0  0  0  0
    0.5718   -0.2794    4.2064 C   0  0  0  0  0  0  0  0  0  0  0  0
    1.5221   -1.0444    4.2465 O   0  0  0  0  0  0  0  0  0  0  0  0
    0.1285    0.2859    5.3447 O   0  0  0  0  0  0  0  0  0  0  0  0
    0.6985   -0.0582    6.0346 H   0  0  0  0  0  0  0  0  0  0  0  0
    0.5093   -0.4860   -0.8869 C   0  0  0  0  0  0  0  0  0  0  0  0
    1.7080   -0.2200   -0.9510 O   0  0  0  0  0  0  0  0  0  0  0  0
   -0.1523   -1.0820   -1.8862 N   0  0  0  0  0  0  0  0  0  0  0  0
   -1.1307   -1.2890   -1.7521 H   0  0  0  0  0  0  0  0  0  0  0  0
    0.4618   -1.4719   -3.1538 C   0  0  0  0  0  0  0  0  0  0  0  0
    1.3009   -2.1443   -2.9663 H   0  0  0  0  0  0  0  0  0  0  0  0
   -0.2675   -1.9771   -3.7886 H   0  0  0  0  0  0  0  0  0  0  0  0
    0.8365   -0.5857   -3.6698 H   0  0  0  0  0  0  0  0  0  0  0  0
  5  6  2  0  0  0  0
  5  7  1  0  0  0  0
  2  3  1  0  0  0  0
  2  4  1  0  0  0  0
  2  5  1  0  0  0  0
  1  2  1  0  0  0  0
 21 22  2  0  0  0  0
 21 23  1  0  0  0  0
 19 20  1  0  0  0  0
 17 18  2  0  0  0  0
 17 19  1  0  0  0  0
 14 15  1  0  0  0  0
 14 16  1  0  0  0  0
 14 17  1  0  0  0  0
 11 12  1  0  0  0  0
 11 13  1  0  0  0  0
 11 14  1  0  0  0  0
  9 10  1  0  0  0  0
  9 11  1  0  0  0  0
  9 21  1  0  0  0  0
  7  8  1  0  0  0  0
  7  9  1  0  0  0  0
 25 26  1  0  0  0  0
 25 27  1  0  0  0  0
 25 28  1  0  0  0  0
 23 24  1  0  0  0  0
 23 25  1  0  0  0  0
M  END
$$$$
default_name
  -OEChem-01062215323D

 28 27  0     1  0  0  0  0  0999 V2000
   -3.2133   -3.5565    1.2809 H   0  0  0  0  0  0  0  0  0  0  0  0
   -3.1873   -2.5755    0.8089 C   0  0  0  0  0  0  0  0  0  0  0  0
   -3.8793   -1.9065    1.3169 H   0  0  0  0  0  0  0  0  0  0  0  0
   -3.4623   -2.6685   -0.2401 H   0  0  0  0  0  0  0  0  0  0  0  0
   -1.7863   -2.0195    0.9119 C   0  0  0  0  0  0  0  0  0  0  0  0
   -0.9073   -2.6615    1.4699 O   0  0  0  0  0  0  0  0  0  0  0  0
   -1.5803   -0.8195    0.3749 N   0  0  0  0  0  0  0  0  0  0  0  0
   -2.3603   -0.3345   -0.0451 H   0  0  0  0  0  0  0  0  0  0  0  0
   -0.2933   -0.1205    0.3719 C   0  0  1  0  0  0  0  0  0  0  0  0
   -0.4797    0.9542    0.3537 H   0  0  0  0  0  0  0  0  0  0  0  0
    0.4657   -0.4601    1.6709 C   0  0  0  0  0  0  0  0  0  0  0  0
    0.5261   -1.5466    1.7542 H   0  0  0  0  0  0  0  0  0  0  0  0
    1.4816   -0.0677    1.6073 H   0  0  0  0  0  0  0  0  0  0  0  0
   -0.1950    0.0984    2.9432 C   0  0  0  0  0  0  0  0  0  0  0  0
   -0.2464    1.1858    2.8881 H   0  0  0  0  0  0  0  0  0  0  0  0
   -1.2045   -0.3024    3.0276 H   0  0  0  0  0  0  0  0  0  0  0  0
    0.5718   -0.2794    4.2064 C   0  0  0  0  0  0  0  0  0  0  0  0
    1.5221   -1.0444    4.2465 O   0  0  0  0  0  0  0  0  0  0  0  0
    0.1285    0.2859    5.3447 O   0  0  0  0  0  0  0  0  0  0  0  0
    0.6985   -0.0582    6.0346 H   0  0  0  0  0  0  0  0  0  0  0  0
    0.5093   -0.4860   -0.8869 C   0  0  0  0  0  0  0  0  0  0  0  0
    1.7385   -0.4795   -0.8563 O   0  0  0  0  0  0  0  0  0  0  0  0
   -0.1836   -0.7913   -1.9906 N   0  0  0  0  0  0  0  0  0  0  0  0
   -1.1911   -0.7974   -1.9333 H   0  0  0  0  0  0  0  0  0  0  0  0
    0.4307   -1.1386   -3.2704 C   0  0  0  0  0  0  0  0  0  0  0  0
    1.0951   -1.9949   -3.1409 H   0  0  0  0  0  0  0  0  0  0  0  0
   -0.3371   -1.3883   -4.0040 H   0  0  0  0  0  0  0  0  0  0  0  0
    1.0195   -0.2956   -3.6374 H   0  0  0  0  0  0  0  0  0  0  0  0
  5  6  2  0  0  0  0
  5  7  1  0  0  0  0
  2  3  1  0  0  0  0
  2  4  1  0  0  0  0
  2  5  1  0  0  0  0
  1  2  1  0  0  0  0
 21 22  2  0  0  0  0
 21 23  1  0  0  0  0
 19 20  1  0  0  0  0
 17 18  2  0  0  0  0
 17 19  1  0  0  0  0
 14 15  1  0  0  0  0
 14 16  1  0  0  0  0
 14 17  1  0  0  0  0
 11 12  1  0  0  0  0
 11 13  1  0  0  0  0
 11 14  1  0  0  0  0
  9 10  1  0  0  0  0
  9 11  1  0  0  0  0
  9 21  1  0  0  0  0
  7  8  1  0  0  0  0
  7  9  1  0  0  0  0
 25 26  1  0  0  0  0
 25 27  1  0  0  0  0
 25 28  1  0  0  0  0
 23 24  1  0  0  0  0
 23 25  1  0  0  0  0
M  END
$$$$
default_name
  -OEChem-01062215323D

 28 27  0     1  0  0  0  0  0999 V2000
   -3.2133   -3.5565    1.2809 H   0  0  0  0  0  0  0  0  0  0  0  0
   -3.1873   -2.5755    0.8089 C   0  0  0  0  0  0  0  0  0  0  0  0
   -3.8793   -1.9065    1.3169 H   0  0  0  0  0  0  0  0  0  0  0  0
   -3.4623   -2.6685   -0.2401 H   0  0  0  0  0  0  0  0  0  0  0  0
   -1.7863   -2.0195    0.9119 C   0  0  0  0  0  0  0  0  0  0  0  0
   -0.9073   -2.6615    1.4699 O   0  0  0  0  0  0  0  0  0  0  0  0
   -1.5803   -0.8195    0.3749 N   0  0  0  0  0  0  0  0  0  0  0  0
   -2.3603   -0.3345   -0.0451 H   0  0  0  0  0  0  0  0  0  0  0  0
   -0.2933   -0.1205    0.3719 C   0  0  1  0  0  0  0  0  0  0  0  0
   -0.4797    0.9542    0.3537 H   0  0  0  0  0  0  0  0  0  0  0  0
    0.4657   -0.4601    1.6709 C   0  0  0  0  0  0  0  0  0  0  0  0
    0.5261   -1.5466    1.7542 H   0  0  0  0  0  0  0  0  0  0  0  0
    1.4816   -0.0677    1.6073 H   0  0  0  0  0  0  0  0  0  0  0  0
   -0.1950    0.0984    2.9432 C   0  0  0  0  0  0  0  0  0  0  0  0
   -0.2464    1.1858    2.8881 H   0  0  0  0  0  0  0  0  0  0  0  0
   -1.2045   -0.3024    3.0276 H   0  0  0  0  0  0  0  0  0  0  0  0
    0.5718   -0.2794    4.2064 C   0  0  0  0  0  0  0  0  0  0  0  0
    1.5221   -1.0444    4.2465 O   0  0  0  0  0  0  0  0  0  0  0  0
    0.1285    0.2859    5.3447 O   0  0  0  0  0  0  0  0  0  0  0  0
    0.6985   -0.0582    6.0346 H   0  0  0  0  0  0  0  0  0  0  0  0
    0.5093   -0.4860   -0.8869 C   0  0  0  0  0  0  0  0  0  0  0  0
    1.7070   -0.7494   -0.7979 O   0  0  0  0  0  0  0  0  0  0  0  0
   -0.1459   -0.4898   -2.0540 N   0  0  0  0  0  0  0  0  0  0  0  0
   -1.1339   -0.2853   -2.0456 H   0  0  0  0  0  0  0  0  0  0  0  0
    0.4786   -0.7943   -3.3399 C   0  0  0  0  0  0  0  0  0  0  0  0
    0.9387   -1.7833   -3.3021 H   0  0  0  0  0  0  0  0  0  0  0  0
   -0.2663   -0.7756   -4.1367 H   0  0  0  0  0  0  0  0  0  0  0  0
    1.2558   -0.0585   -3.5555 H   0  0  0  0  0  0  0  0  0  0  0  0
  5  6  2  0  0  0  0
  5  7  1  0  0  0  0
  2  3  1  0  0  0  0
  2  4  1  0  0  0  0
  2  5  1  0  0  0  0
  1  2  1  0  0  0  0
 21 22  2  0  0  0  0
 21 23  1  0  0  0  0
 19 20  1  0  0  0  0
 17 18  2  0  0  0  0
 17 19  1  0  0  0  0
 14 15  1  0  0  0  0
 14 16  1  0  0  0  0
 14 17  1  0  0  0  0
 11 12  1  0  0  0  0
 11 13  1  0  0  0  0
 11 14  1  0  0  0  0
  9 10  1  0  0  0  0
  9 11  1  0  0  0  0
  9 21  1  0  0  0  0
  7  8  1  0  0  0  0
  7  9  1  0  0  0  0
 25 26  1  0  0  0  0
 25 27  1  0  0  0  0
 25 28  1  0  0  0  0
 23 24  1  0  0  0  0
 23 25  1  0  0  0  0
M  END
$$$$
default_name
  -OEChem-01062215323D

 28 27  0     1  0  0  0  0  0999 V2000
   -3.2133   -3.5565    1.2809 H   0  0  0  0  0  0  0  0  0  0  0  0
   -3.1873   -2.5755    0.8089 C   0  0  0  0  0  0  0  0  0  0  0  0
   -3.8793   -1.9065    1.3169 H   0  0  0  0  0  0  0  0  0  0  0  0
   -3.4623   -2.6685   -0.2401 H   0  0  0  0  0  0  0  0  0  0  0  0
   -1.7863   -2.0195    0.9119 C   0  0  0  0  0  0  0  0  0  0  0  0
   -0.9073   -2.6615    1.4699 O   0  0  0  0  0  0  0  0  0  0  0  0
   -1.5803   -0.8195    0.3749 N   0  0  0  0  0  0  0  0  0  0  0  0
   -2.3603   -0.3345   -0.0451 H   0  0  0  0  0  0  0  0  0  0  0  0
   -0.2933   -0.1205    0.3719 C   0  0  1  0  0  0  0  0  0  0  0  0
   -0.4797    0.9542    0.3537 H   0  0  0  0  0  0  0  0  0  0  0  0
    0.4657   -0.4601    1.6709 C   0  0  0  0  0  0  0  0  0  0  0  0
    0.5261   -1.5466    1.7542 H   0  0  0  0  0  0  0  0  0  0  0  0
    1.4816   -0.0677    1.6073 H   0  0  0  0  0  0  0  0  0  0  0  0
   -0.1950    0.0984    2.9432 C   0  0  0  0  0  0  0  0  0  0  0  0
   -0.2464    1.1858    2.8881 H   0  0  0  0  0  0  0  0  0  0  0  0
   -1.2045   -0.3024    3.0276 H   0  0  0  0  0  0  0  0  0  0  0  0
    0.5718   -0.2794    4.2064 C   0  0  0  0  0  0  0  0  0  0  0  0
    1.5221   -1.0444    4.2465 O   0  0  0  0  0  0  0  0  0  0  0  0
    0.1285    0.2859    5.3447 O   0  0  0  0  0  0  0  0  0  0  0  0
    0.6985   -0.0582    6.0346 H   0  0  0  0  0  0  0  0  0  0  0  0
    0.5093   -0.4860   -0.8869 C   0  0  0  0  0  0  0  0  0  0  0  0
    1.6159   -1.0113   -0.7800 O   0  0  0  0  0  0  0  0  0  0  0  0
   -0.0416   -0.1981   -2.0723 N   0  0  0  0  0  0  0  0  0  0  0  0
   -0.9633    0.2124   -2.0813 H   0  0  0  0  0  0  0  0  0  0  0  0
    0.6020   -0.4625   -3.3575 C   0  0  0  0  0  0  0  0  0  0  0  0
    0.8425   -1.5241   -3.4388 H   0  0  0  0  0  0  0  0  0  0  0  0
   -0.0598   -0.1810   -4.1778 H   0  0  0  0  0  0  0  0  0  0  0  0
    1.5293    0.1093   -3.4299 H   0  0  0  0  0  0  0  0  0  0  0  0
  5  6  2  0  0  0  0
  5  7  1  0  0  0  0
  2  3  1  0  0  0  0
  2  4  1  0  0  0  0
  2  5  1  0  0  0  0
  1  2  1  0  0  0  0
 21 22  2  0  0  0  0
 21 23  1  0  0  0  0
 19 20  1  0  0  0  0
 17 18  2  0  0  0  0
 17 19  1  0  0  0  0
 14 15  1  0  0  0  0
 14 16  1  0  0  0  0
 14 17  1  0  0  0  0
 11 12  1  0  0  0  0
 11 13  1  0  0  0  0
 11 14  1  0  0  0  0
  9 10  1  0  0  0  0
  9 11  1  0  0  0  0
  9 21  1  0  0  0  0
  7  8  1  0  0  0  0
  7  9  1  0  0  0  0
 25 26  1  0  0  0  0
 25 27  1  0  0  0  0
 25 28  1  0  0  0  0
 23 24  1  0  0  0  0
 23 25  1  0  0  0  0
M  END
$$$$
default_name
  -OEChem-01062215323D

 28 27  0     1  0  0  0  0  0999 V2000
   -3.2133   -3.5565    1.2809 H   0  0  0  0  0  0  0  0  0  0  0  0
   -3.1873   -2.5755    0.8089 C   0  0  0  0  0  0  0  0  0  0  0  0
   -3.8793   -1.9065    1.3169 H   0  0  0  0  0  0  0  0  0  0  0  0
   -3.4623   -2.6685   -0.2401 H   0  0  0  0  0  0  0  0  0  0  0  0
   -1.7863   -2.0195    0.9119 C   0  0  0  0  0  0  0  0  0  0  0  0
   -0.9073   -2.6615    1.4699 O   0  0  0  0  0  0  0  0  0  0  0  0
   -1.5803   -0.8195    0.3749 N   0  0  0  0  0  0  0  0  0  0  0  0
   -2.3603   -0.3345   -0.0451 H   0  0  0  0  0  0  0  0  0  0  0  0
   -0.2933   -0.1205    0.3719 C   0  0  1  0  0  0  0  0  0  0  0  0
   -0.4797    0.9542    0.3537 H   0  0  0  0  0  0  0  0  0  0  0  0
    0.4657   -0.4601    1.6709 C   0  0  0  0  0  0  0  0  0  0  0  0
    0.5261   -1.5466    1.7542 H   0  0  0  0  0  0  0  0  0  0  0  0
    1.4816   -0.0677    1.6073 H   0  0  0  0  0  0  0  0  0  0  0  0
   -0.1950    0.0984    2.9432 C   0  0  0  0  0  0  0  0  0  0  0  0
   -0.2464    1.1858    2.8881 H   0  0  0  0  0  0  0  0  0  0  0  0
   -1.2045   -0.3024    3.0276 H   0  0  0  0  0  0  0  0  0  0  0  0
    0.5718   -0.2794    4.2064 C   0  0  0  0  0  0  0  0  0  0  0  0
    1.5221   -1.0444    4.2465 O   0  0  0  0  0  0  0  0  0  0  0  0
    0.1285    0.2859    5.3447 O   0  0  0  0  0  0  0  0  0  0  0  0
    0.6985   -0.0582    6.0346 H   0  0  0  0  0  0  0  0  0  0  0  0
    0.5093   -0.4860   -0.8869 C   0  0  0  0  0  0  0  0  0  0  0  0
    1.4712   -1.2474   -0.8037 O   0  0  0  0  0  0  0  0  0  0  0  0
    0.1221    0.0641   -2.0440 N   0  0  0  0  0  0  0  0  0  0  0  0
   -0.6908    0.6619   -2.0381 H   0  0  0  0  0  0  0  0  0  0  0  0
    0.7927   -0.1657   -3.3221 C   0  0  0  0  0  0  0  0  0  0  0  0
    0.8128   -1.2347   -3.5417 H   0  0  0  0  0  0  0  0  0  0  0  0
    0.2682    0.3552   -4.1244 H   0  0  0  0  0  0  0  0  0  0  0  0
    1.8213    0.1965   -3.2690 H   0  0  0  0  0  0  0  0  0  0  0  0
  5  6  2  0  0  0  0
  5  7  1  0  0  0  0
  2  3  1  0  0  0  0
  2  4  1  0  0  0  0
  2  5  1  0  0  0  0
  1  2  1  0  0  0  0
 21 22  2  0  0  0  0
 21 23  1  0  0  0  0
 19 20  1  0  0  0  0
 17 18  2  0  0  0  0
 17 19  1  0  0  0  0
 14 15  1  0  0  0  0
 14 16  1  0  0  0  0
 14 17  1  0  0  0  0
 11 12  1  0  0  0  0
 11 13  1  0  0  0  0
 11 14  1  0  0  0  0
  9 10  1  0  0  0  0
  9 11  1  0  0  0  0
  9 21  1  0  0  0  0
  7  8  1  0  0  0  0
  7  9  1  0  0  0  0
 25 26  1  0  0  0  0
 25 27  1  0  0  0  0
 25 28  1  0  0  0  0
 23 24  1  0  0  0  0
 23 25  1  0  0  0  0
M  END
$$$$
default_name
  -OEChem-01062215323D

 28 27  0     1  0  0  0  0  0999 V2000
   -3.2133   -3.5565    1.2809 H   0  0  0  0  0  0  0  0  0  0  0  0
   -3.1873   -2.5755    0.8089 C   0  0  0  0  0  0  0  0  0  0  0  0
   -3.8793   -1.9065    1.3169 H   0  0  0  0  0  0  0  0  0  0  0  0
   -3.4623   -2.6685   -0.2401 H   0  0  0  0  0  0  0  0  0  0  0  0
   -1.7863   -2.0195    0.9119 C   0  0  0  0  0  0  0  0  0  0  0  0
   -0.9073   -2.6615    1.4699 O   0  0  0  0  0  0  0  0  0  0  0  0
   -1.5803   -0.8195    0.3749 N   0  0  0  0  0  0  0  0  0  0  0  0
   -2.3603   -0.3345   -0.0451 H   0  0  0  0  0  0  0  0  0  0  0  0
   -0.2933   -0.1205    0.3719 C   0  0  1  0  0  0  0  0  0  0  0  0
   -0.4797    0.9542    0.3537 H   0  0  0  0  0  0  0  0  0  0  0  0
    0.4657   -0.4601    1.6709 C   0  0  0  0  0  0  0  0  0  0  0  0
    0.5261   -1.5466    1.7542 H   0  0  0  0  0  0  0  0  0  0  0  0
    1.4816   -0.0677    1.6073 H   0  0  0  0  0  0  0  0  0  0  0  0
   -0.1950    0.0984    2.9432 C   0  0  0  0  0  0  0  0  0  0  0  0
   -0.2464    1.1858    2.8881 H   0  0  0  0  0  0  0  0  0  0  0  0
   -1.2045   -0.3024    3.0276 H   0  0  0  0  0  0  0  0  0  0  0  0
    0.5718   -0.2794    4.2064 C   0  0  0  0  0  0  0  0  0  0  0  0
    1.5221   -1.0444    4.2465 O   0  0  0  0  0  0  0  0  0  0  0  0
    0.1285    0.2859    5.3447 O   0  0  0  0  0  0  0  0  0  0  0  0
    0.6985   -0.0582    6.0346 H   0  0  0  0  0  0  0  0  0  0  0  0
    0.5093   -0.4860   -0.8869 C   0  0  0  0  0  0  0  0  0  0  0  0
    1.2829   -1.4415   -0.8674 O   0  0  0  0  0  0  0  0  0  0  0  0
    0.3341    0.2789   -1.9712 N   0  0  0  0  0  0  0  0  0  0  0  0
   -0.3349    1.0324   -1.9188 H   0  0  0  0  0  0  0  0  0  0  0  0
    1.0376    0.0757   -3.2360 C   0  0  0  0  0  0  0  0  0  0  0  0
    0.8519   -0.9351   -3.6038 H   0  0  0  0  0  0  0  0  0  0  0  0
    0.6954    0.7964   -3.9801 H   0  0  0  0  0  0  0  0  0  0  0  0
    2.1119    0.1970   -3.0839 H   0  0  0  0  0  0  0  0  0  0  0  0
  5  6  2  0  0  0  0
  5  7  1  0  0  0  0
  2  3  1  0  0  0  0
  2  4  1  0  0  0  0
  2  5  1  0  0  0  0
  1  2  1  0  0  0  0
 21 22  2  0  0  0  0
 21 23  1  0  0  0  0
 19 20  1  0  0  0  0
 17 18  2  0  0  0  0
 17 19  1  0  0  0  0
 14 15  1  0  0  0  0
 14 16  1  0  0  0  0
 14 17  1  0  0  0  0
 11 12  1  0  0  0  0
 11 13  1  0  0  0  0
 11 14  1  0  0  0  0
  9 10  1  0  0  0  0
  9 11  1  0  0  0  0
  9 21  1  0  0  0  0
  7  8  1  0  0  0  0
  7  9  1  0  0  0  0
 25 26  1  0  0  0  0
 25 27  1  0  0  0  0
 25 28  1  0  0  0  0
 23 24  1  0  0  0  0
 23 25  1  0  0  0  0
M  END
$$$$
default_name
  -OEChem-01062215323D

 28 27  0     1  0  0  0  0  0999 V2000
   -3.2133   -3.5565    1.2809 H   0  0  0  0  0  0  0  0  0  0  0  0
   -3.1873   -2.5755    0.8089 C   0  0  0  0  0  0  0  0  0  0  0  0
   -3.8793   -1.9065    1.3169 H   0  0  0  0  0  0  0  0  0  0  0  0
   -3.4623   -2.6685   -0.2401 H   0  0  0  0  0  0  0  0  0  0  0  0
   -1.7863   -2.0195    0.9119 C   0  0  0  0  0  0  0  0  0  0  0  0
   -0.9073   -2.6615    1.4699 O   0  0  0  0  0  0  0  0  0  0  0  0
   -1.5803   -0.8195    0.3749 N   0  0  0  0  0  0  0  0  0  0  0  0
   -2.3603   -0.3345   -0.0451 H   0  0  0  0  0  0  0  0  0  0  0  0
   -0.2933   -0.1205    0.3719 C   0  0  1  0  0  0  0  0  0  0  0  0
   -0.4797    0.9542    0.3537 H   0  0  0  0  0  0  0  0  0  0  0  0
    0.4657   -0.4601    1.6709 C   0  0  0  0  0  0  0  0  0  0  0  0
    0.5261   -1.5466    1.7542 H   0  0  0  0  0  0  0  0  0  0  0  0
    1.4816   -0.0677    1.6073 H   0  0  0  0  0  0  0  0  0  0  0  0
   -0.1950    0.0984    2.9432 C   0  0  0  0  0  0  0  0  0  0  0  0
   -0.2464    1.1858    2.8881 H   0  0  0  0  0  0  0  0  0  0  0  0
   -1.2045   -0.3024    3.0276 H   0  0  0  0  0  0  0  0  0  0  0  0
    0.5718   -0.2794    4.2064 C   0  0  0  0  0  0  0  0  0  0  0  0
    1.5221   -1.0444    4.2465 O   0  0  0  0  0  0  0  0  0  0  0  0
    0.1285    0.2859    5.3447 O   0  0  0  0  0  0  0  0  0  0  0  0
    0.6985   -0.0582    6.0346 H   0  0  0  0  0  0  0  0  0  0  0  0
    0.5093   -0.4860   -0.8869 C   0  0  0  0  0  0  0  0  0  0  0  0
    1.0637   -1.5806   -0.9668 O   0  0  0  0  0  0  0  0  0  0  0  0
    0.5799    0.4315   -1.8588 N   0  0  0  0  0  0  0  0  0  0  0  0
    0.0800    1.2987   -1.7316 H   0  0  0  0  0  0  0  0  0  0  0  0
    1.3200    0.2453   -3.1052 C   0  0  0  0  0  0  0  0  0  0  0  0
    0.9569   -0.6456   -3.6209 H   0  0  0  0  0  0  0  0  0  0  0  0
    1.1927    1.1124   -3.7548 H   0  0  0  0  0  0  0  0  0  0  0  0
    2.3813    0.1109   -2.8871 H   0  0  0  0  0  0  0  0  0  0  0  0
  5  6  2  0  0  0  0
  5  7  1  0  0  0  0
  2  3  1  0  0  0  0
  2  4  1  0  0  0  0
  2  5  1  0  0  0  0
  1  2  1  0  0  0  0
 21 22  2  0  0  0  0
 21 23  1  0  0  0  0
 19 20  1  0  0  0  0
 17 18  2  0  0  0  0
 17 19  1  0  0  0  0
 14 15  1  0  0  0  0
 14 16  1  0  0  0  0
 14 17  1  0  0  0  0
 11 12  1  0  0  0  0
 11 13  1  0  0  0  0
 11 14  1  0  0  0  0
  9 10  1  0  0  0  0
  9 11  1  0  0  0  0
  9 21  1  0  0  0  0
  7  8  1  0  0  0  0
  7  9  1  0  0  0  0
 25 26  1  0  0  0  0
 25 27  1  0  0  0  0
 25 28  1  0  0  0  0
 23 24  1  0  0  0  0
 23 25  1  0  0  0  0
M  END
$$$$
default_name
  -OEChem-01062215323D

 28 27  0     1  0  0  0  0  0999 V2000
   -3.2133   -3.5565    1.2809 H   0  0  0  0  0  0  0  0  0  0  0  0
   -3.1873   -2.5755    0.8089 C   0  0  0  0  0  0  0  0  0  0  0  0
   -3.8793   -1.9065    1.3169 H   0  0  0  0  0  0  0  0  0  0  0  0
   -3.4623   -2.6685   -0.2401 H   0  0  0  0  0  0  0  0  0  0  0  0
   -1.7863   -2.0195    0.9119 C   0  0  0  0  0  0  0  0  0  0  0  0
   -0.9073   -2.6615    1.4699 O   0  0  0  0  0  0  0  0  0  0  0  0
   -1.5803   -0.8195    0.3749 N   0  0  0  0  0  0  0  0  0  0  0  0
   -2.3603   -0.3345   -0.0451 H   0  0  0  0  0  0  0  0  0  0  0  0
   -0.2933   -0.1205    0.3719 C   0  0  1  0  0  0  0  0  0  0  0  0
   -0.4797    0.9542    0.3537 H   0  0  0  0  0  0  0  0  0  0  0  0
    0.4657   -0.4601    1.6709 C   0  0  0  0  0  0  0  0  0  0  0  0
    0.5261   -1.5466    1.7542 H   0  0  0  0  0  0  0  0  0  0  0  0
    1.4816   -0.0677    1.6073 H   0  0  0  0  0  0  0  0  0  0  0  0
   -0.1950    0.0984    2.9432 C   0  0  0  0  0  0  0  0  0  0  0  0
   -0.2464    1.1858    2.8881 H   0  0  0  0  0  0  0  0  0  0  0  0
   -1.2045   -0.3024    3.0276 H   0  0  0  0  0  0  0  0  0  0  0  0
    0.5718   -0.2794    4.2064 C   0  0  0  0  0  0  0  0  0  0  0  0
    1.5221   -1.0444    4.2465 O   0  0  0  0  0  0  0  0  0  0  0  0
    0.1285    0.2859    5.3447 O   0  0  0  0  0  0  0  0  0  0  0  0
    0.6985   -0.0582    6.0346 H   0  0  0  0  0  0  0  0  0  0  0  0
    0.5093   -0.4860   -0.8869 C   0  0  0  0  0  0  0  0  0  0  0  0
    0.8287   -1.6550   -1.0950 O   0  0  0  0  0  0  0  0  0  0  0  0
    0.8428    0.5117   -1.7145 N   0  0  0  0  0  0  0  0  0  0  0  0
    0.5257    1.4428   -1.4892 H   0  0  0  0  0  0  0  0  0  0  0  0
    1.6208    0.3316   -2.9385 C   0  0  0  0  0  0  0  0  0  0  0  0
    1.1208   -0.3858   -3.5918 H   0  0  0  0  0  0  0  0  0  0  0  0
    1.7261    1.2819   -3.4639 H   0  0  0  0  0  0  0  0  0  0  0  0
    2.6112   -0.0559   -2.6921 H   0  0  0  0  0  0  0  0  0  0  0  0
  5  6  2  0  0  0  0
  5  7  1  0  0  0  0
  2  3  1  0  0  0  0
  2  4  1  0  0  0  0
  2  5  1  0  0  0  0
  1  2  1  0  0  0  0
 21 22  2  0  0  0  0
 21 23  1  0  0  0  0
 19 20  1  0  0  0  0
 17 18  2  0  0  0  0
 17 19  1  0  0  0  0
 14 15  1  0  0  0  0
 14 16  1  0  0  0  0
 14 17  1  0  0  0  0
 11 12  1  0  0  0  0
 11 13  1  0  0  0  0
 11 14  1  0  0  0  0
  9 10  1  0  0  0  0
  9 11  1  0  0  0  0
  9 21  1  0  0  0  0
  7  8  1  0  0  0  0
  7  9  1  0  0  0  0
 25 26  1  0  0  0  0
 25 27  1  0  0  0  0
 25 28  1  0  0  0  0
 23 24  1  0  0  0  0
 23 25  1  0  0  0  0
M  END
$$$$
default_name
  -OEChem-01062215323D

 28 27  0     1  0  0  0  0  0999 V2000
   -3.2133   -3.5565    1.2809 H   0  0  0  0  0  0  0  0  0  0  0  0
   -3.1873   -2.5755    0.8089 C   0  0  0  0  0  0  0  0  0  0  0  0
   -3.8793   -1.9065    1.3169 H   0  0  0  0  0  0  0  0  0  0  0  0
   -3.4623   -2.6685   -0.2401 H   0  0  0  0  0  0  0  0  0  0  0  0
   -1.7863   -2.0195    0.9119 C   0  0  0  0  0  0  0  0  0  0  0  0
   -0.9073   -2.6615    1.4699 O   0  0  0  0  0  0  0  0  0  0  0  0
   -1.5803   -0.8195    0.3749 N   0  0  0  0  0  0  0  0  0  0  0  0
   -2.3603   -0.3345   -0.0451 H   0  0  0  0  0  0  0  0  0  0  0  0
   -0.2933   -0.1205    0.3719 C   0  0  1  0  0  0  0  0  0  0  0  0
   -0.4797    0.9542    0.3537 H   0  0  0  0  0  0  0  0  0  0  0  0
    0.4657   -0.4601    1.6709 C   0  0  0  0  0  0  0  0  0  0  0  0
    0.5261   -1.5466    1.7542 H   0  0  0  0  0  0  0  0  0  0  0  0
    1.4816   -0.0677    1.6073 H   0  0  0  0  0  0  0  0  0  0  0  0
   -0.1950    0.0984    2.9432 C   0  0  0  0  0  0  0  0  0  0  0  0
   -0.2464    1.1858    2.8881 H   0  0  0  0  0  0  0  0  0  0  0  0
   -1.2045   -0.3024    3.0276 H   0  0  0  0  0  0  0  0  0  0  0  0
    0.5718   -0.2794    4.2064 C   0  0  0  0  0  0  0  0  0  0  0  0
    1.5221   -1.0444    4.2465 O   0  0  0  0  0  0  0  0  0  0  0  0
    0.1285    0.2859    5.3447 O   0  0  0  0  0  0  0  0  0  0  0  0
    0.6985   -0.0582    6.0346 H   0  0  0  0  0  0  0  0  0  0  0  0
    0.5093   -0.4860   -0.8869 C   0  0  0  0  0  0  0  0  0  0  0  0
    0.5938   -1.6597   -1.2434 O   0  0  0  0  0  0  0  0  0  0  0  0
    1.1048    0.5139   -1.5481 N   0  0  0  0  0  0  0  0  0  0  0  0
    0.9718    1.4546   -1.2082 H   0  0  0  0  0  0  0  0  0  0  0  0
    1.9193    0.3287   -2.7474 C   0  0  0  0  0  0  0  0  0  0  0  0
    1.3324   -0.1736   -3.5185 H   0  0  0  0  0  0  0  0  0  0  0  0
    2.2594    1.2932   -3.1271 H   0  0  0  0  0  0  0  0  0  0  0  0
    2.7859   -0.2922   -2.5121 H   0  0  0  0  0  0  0  0  0  0  0  0
  5  6  2  0  0  0  0
  5  7  1  0  0  0  0
  2  3  1  0  0  0  0
  2  4  1  0  0  0  0
  2  5  1  0  0  0  0
  1  2  1  0  0  0  0
 21 22  2  0  0  0  0
 21 23  1  0  0  0  0
 19 20  1  0  0  0  0
 17 18  2  0  0  0  0
 17 19  1  0  0  0  0
 14 15  1  0  0  0  0
 14 16  1  0  0  0  0
 14 17  1  0  0  0  0
 11 12  1  0  0  0  0
 11 13  1  0  0  0  0
 11 14  1  0  0  0  0
  9 10  1  0  0  0  0
  9 11  1  0  0  0  0
  9 21  1  0  0  0  0
  7  8  1  0  0  0  0
  7  9  1  0  0  0  0
 25 26  1  0  0  0  0
 25 27  1  0  0  0  0
 25 28  1  0  0  0  0
 23 24  1  0  0  0  0
 23 25  1  0  0  0  0
M  END
$$$$
default_name
  -OEChem-01062215323D

 28 27  0     1  0  0  0  0  0999 V2000
   -3.2133   -3.5565    1.2809 H   0  0  0  0  0  0  0  0  0  0  0  0
   -3.1873   -2.5755    0.8089 C   0  0  0  0  0  0  0  0  0  0  0  0
   -3.8793   -1.9065    1.3169 H   0  0  0  0  0  0  0  0  0  0  0  0
   -3.4623   -2.6685   -0.2401 H   0  0  0  0  0  0  0  0  0  0  0  0
   -1.7863   -2.0195    0.9119 C   0  0  0  0  0  0  0  0  0  0  0  0
   -0.9073   -2.6615    1.4699 O   0  0  0  0  0  0  0  0  0  0  0  0
   -1.5803   -0.8195    0.3749 N   0  0  0  0  0  0  0  0  0  0  0  0
   -2.3603   -0.3345   -0.0451 H   0  0  0  0  0  0  0  0  0  0  0  0
   -0.2933   -0.1205    0.3719 C   0  0  1  0  0  0  0  0  0  0  0  0
   -0.4797    0.9542    0.3537 H   0  0  0  0  0  0  0  0  0  0  0  0
    0.4657   -0.4601    1.6709 C   0  0  0  0  0  0  0  0  0  0  0  0
    0.5261   -1.5466    1.7542 H   0  0  0  0  0  0  0  0  0  0  0  0
    1.4816   -0.0677    1.6073 H   0  0  0  0  0  0  0  0  0  0  0  0
   -0.1950    0.0984    2.9432 C   0  0  0  0  0  0  0  0  0  0  0  0
   -0.2464    1.1858    2.8881 H   0  0  0  0  0  0  0  0  0  0  0  0
   -1.2045   -0.3024    3.0276 H   0  0  0  0  0  0  0  0  0  0  0  0
    0.5718   -0.2794    4.2064 C   0  0  0  0  0  0  0  0  0  0  0  0
    1.5221   -1.0444    4.2465 O   0  0  0  0  0  0  0  0  0  0  0  0
    0.1285    0.2859    5.3447 O   0  0  0  0  0  0  0  0  0  0  0  0
    0.6985   -0.0582    6.0346 H   0  0  0  0  0  0  0  0  0  0  0  0
    0.5093   -0.4860   -0.8869 C   0  0  0  0  0  0  0  0  0  0  0  0
    0.3750   -1.5944   -1.4019 O   0  0  0  0  0  0  0  0  0  0  0  0
    1.3481    0.4380   -1.3709 N   0  0  0  0  0  0  0  0  0  0  0  0
    1.3880    1.3336   -0.9077 H   0  0  0  0  0  0  0  0  0  0  0  0
    2.1952    0.2368   -2.5447 C   0  0  0  0  0  0  0  0  0  0  0  0
    1.5773   -0.0234   -3.4060 H   0  0  0  0  0  0  0  0  0  0  0  0
    2.7562    1.1455   -2.7675 H   0  0  0  0  0  0  0  0  0  0  0  0
    2.8935   -0.5817   -2.3594 H   0  0  0  0  0  0  0  0  0  0  0  0
  5  6  2  0  0  0  0
  5  7  1  0  0  0  0
  2  3  1  0  0  0  0
  2  4  1  0  0  0  0
  2  5  1  0  0  0  0
  1  2  1  0  0  0  0
 21 22  2  0  0  0  0
 21 23  1  0  0  0  0
 19 20  1  0  0  0  0
 17 18  2  0  0  0  0
 17 19  1  0  0  0  0
 14 15  1  0  0  0  0
 14 16  1  0  0  0  0
 14 17  1  0  0  0  0
 11 12  1  0  0  0  0
 11 13  1  0  0  0  0
 11 14  1  0  0  0  0
  9 10  1  0  0  0  0
  9 11  1  0  0  0  0
  9 21  1  0  0  0  0
  7  8  1  0  0  0  0
  7  9  1  0  0  0  0
 25 26  1  0  0  0  0
 25 27  1  0  0  0  0
 25 28  1  0  0  0  0
 23 24  1  0  0  0  0
 23 25  1  0  0  0  0
M  END
$$$$
default_name
  -OEChem-01062215323D

 28 27  0     1  0  0  0  0  0999 V2000
   -3.2133   -3.5565    1.2809 H   0  0  0  0  0  0  0  0  0  0  0  0
   -3.1873   -2.5755    0.8089 C   0  0  0  0  0  0  0  0  0  0  0  0
   -3.8793   -1.9065    1.3169 H   0  0  0  0  0  0  0  0  0  0  0  0
   -3.4623   -2.6685   -0.2401 H   0  0  0  0  0  0  0  0  0  0  0  0
   -1.7863   -2.0195    0.9119 C   0  0  0  0  0  0  0  0  0  0  0  0
   -0.9073   -2.6615    1.4699 O   0  0  0  0  0  0  0  0  0  0  0  0
   -1.5803   -0.8195    0.3749 N   0  0  0  0  0  0  0  0  0  0  0  0
   -2.3603   -0.3345   -0.0451 H   0  0  0  0  0  0  0  0  0  0  0  0
   -0.2933   -0.1205    0.3719 C   0  0  1  0  0  0  0  0  0  0  0  0
   -0.4797    0.9542    0.3537 H   0  0  0  0  0  0  0  0  0  0  0  0
    0.4657   -0.4601    1.6709 C   0  0  0  0  0  0  0  0  0  0  0  0
    0.5261   -1.5466    1.7542 H   0  0  0  0  0  0  0  0  0  0  0  0
    1.4816   -0.0677    1.6073 H   0  0  0  0  0  0  0  0  0  0  0  0
   -0.1950    0.0984    2.9432 C   0  0  0  0  0  0  0  0  0  0  0  0
   -0.2464    1.1858    2.8881 H   0  0  0  0  0  0  0  0  0  0  0  0
   -1.2045   -0.3024    3.0276 H   0  0  0  0  0  0  0  0  0  0  0  0
    0.5718   -0.2794    4.2064 C   0  0  0  0  0  0  0  0  0  0  0  0
    1.5221   -1.0444    4.2465 O   0  0  0  0  0  0  0  0  0  0  0  0
    0.1285    0.2859    5.3447 O   0  0  0  0  0  0  0  0  0  0  0  0
    0.6985   -0.0582    6.0346 H   0  0  0  0  0  0  0  0  0  0  0  0
    0.5093   -0.4860   -0.8869 C   0  0  0  0  0  0  0  0  0  0  0  0
    0.1873   -1.4635   -1.5596 O   0  0  0  0  0  0  0  0  0  0  0  0
    1.5561    0.2892   -1.1951 N   0  0  0  0  0  0  0  0  0  0  0  0
    1.7458    1.0878   -0.6082 H   0  0  0  0  0  0  0  0  0  0  0  0
    2.4298    0.0621   -2.3444 C   0  0  0  0  0  0  0  0  0  0  0  0
    1.8387    0.0546   -3.2620 H   0  0  0  0  0  0  0  0  0  0  0  0
    3.1826    0.8490   -2.4095 H   0  0  0  0  0  0  0  0  0  0  0  0
    2.9266   -0.9049   -2.2444 H   0  0  0  0  0  0  0  0  0  0  0  0
  5  6  2  0  0  0  0
  5  7  1  0  0  0  0
  2  3  1  0  0  0  0
  2  4  1  0  0  0  0
  2  5  1  0  0  0  0
  1  2  1  0  0  0  0
 21 22  2  0  0  0  0
 21 23  1  0  0  0  0
 19 20  1  0  0  0  0
 17 18  2  0  0  0  0
 17 19  1  0  0  0  0
 14 15  1  0  0  0  0
 14 16  1  0  0  0  0
 14 17  1  0  0  0  0
 11 12  1  0  0  0  0
 11 13  1  0  0  0  0
 11 14  1  0  0  0  0
  9 10  1  0  0  0  0
  9 11  1  0  0  0  0
  9 21  1  0  0  0  0
  7  8  1  0  0  0  0
  7  9  1  0  0  0  0
 25 26  1  0  0  0  0
 25 27  1  0  0  0  0
 25 28  1  0  0  0  0
 23 24  1  0  0  0  0
 23 25  1  0  0  0  0
M  END
$$$$
default_name
  -OEChem-01062215323D

 28 27  0     1  0  0  0  0  0999 V2000
   -3.2133   -3.5565    1.2809 H   0  0  0  0  0  0  0  0  0  0  0  0
   -3.1873   -2.5755    0.8089 C   0  0  0  0  0  0  0  0  0  0  0  0
   -3.8793   -1.9065    1.3169 H   0  0  0  0  0  0  0  0  0  0  0  0
   -3.4623   -2.6685   -0.2401 H   0  0  0  0  0  0  0  0  0  0  0  0
   -1.7863   -2.0195    0.9119 C   0  0  0  0  0  0  0  0  0  0  0  0
   -0.9073   -2.6615    1.4699 O   0  0  0  0  0  0  0  0  0  0  0  0
   -1.5803   -0.8195    0.3749 N   0  0  0  0  0  0  0  0  0  0  0  0
   -2.3603   -0.3345   -0.0451 H   0  0  0  0  0  0  0  0  0  0  0  0
   -0.2933   -0.1205    0.3719 C   0  0  1  0  0  0  0  0  0  0  0  0
   -0.4646    0.9275    0.6217 H   0  0  0  0  0  0  0  0  0  0  0  0
    0.6151   -0.7362    1.4557 C   0  0  0  0  0  0  0  0  0  0  0  0
    0.6692   -1.8122    1.2815 H   0  0  0  0  0  0  0  0  0  0  0  0
    1.6212   -0.3257    1.3578 H   0  0  0  0  0  0  0  0  0  0  0  0
    0.1249   -0.4909    2.8932 C   0  0  0  0  0  0  0  0  0  0  0  0
    0.0833    0.5797    3.0937 H   0  0  0  0  0  0  0  0  0  0  0  0
   -0.8722   -0.9143    3.0084 H   0  0  0  0  0  0  0  0  0  0  0  0
    1.0361   -1.1356    3.9327 C   0  0  0  0  0  0  0  0  0  0  0  0
    1.9727   -1.8764    3.6800 O   0  0  0  0  0  0  0  0  0  0  0  0
    0.7452   -0.8502    5.2155 O   0  0  0  0  0  0  0  0  0  0  0  0
    1.3908   -1.3343    5.7332 H   0  0  0  0  0  0  0  0  0  0  0  0
    0.3423   -0.1790   -1.0263 C   0  0  0  0  0  0  0  0  0  0  0  0
   -0.2329   -0.7684   -1.9393 O   0  0  0  0  0  0  0  0  0  0  0  0
    1.5286    0.4194   -1.1878 N   0  0  0  0  0  0  0  0  0  0  0  0
    1.9289    0.9031   -0.3978 H   0  0  0  0  0  0  0  0  0  0  0  0
    2.2710    0.4342   -2.4466 C   0  0  0  0  0  0  0  0  0  0  0  0
    1.6547    0.8723   -3.2338 H   0  0  0  0  0  0  0  0  0  0  0  0
    3.1858    1.0190   -2.3403 H   0  0  0  0  0  0  0  0  0  0  0  0
    2.5274   -0.5871   -2.7353 H   0  0  0  0  0  0  0  0  0  0  0  0
  5  6  2  0  0  0  0
  5  7  1  0  0  0  0
  2  3  1  0  0  0  0
  2  4  1  0  0  0  0
  2  5  1  0  0  0  0
  1  2  1  0  0  0  0
 21 22  2  0  0  0  0
 21 23  1  0  0  0  0
 19 20  1  0  0  0  0
 17 18  2  0  0  0  0
 17 19  1  0  0  0  0
 14 15  1  0  0  0  0
 14 16  1  0  0  0  0
 14 17  1  0  0  0  0
 11 12  1  0  0  0  0
 11 13  1  0  0  0  0
 11 14  1  0  0  0  0
  9 10  1  0  0  0  0
  9 11  1  0  0  0  0
  9 21  1  0  0  0  0
  7  8  1  0  0  0  0
  7  9  1  0  0  0  0
 25 26  1  0  0  0  0
 25 27  1  0  0  0  0
 25 28  1  0  0  0  0
 23 24  1  0  0  0  0
 23 25  1  0  0  0  0
M  END
$$$$
default_name
  -OEChem-01062215323D

 28 27  0     1  0  0  0  0  0999 V2000
   -3.2133   -3.5565    1.2809 H   0  0  0  0  0  0  0  0  0  0  0  0
   -3.1873   -2.5755    0.8089 C   0  0  0  0  0  0  0  0  0  0  0  0
   -3.8793   -1.9065    1.3169 H   0  0  0  0  0  0  0  0  0  0  0  0
   -3.4623   -2.6685   -0.2401 H   0  0  0  0  0  0  0  0  0  0  0  0
   -1.7863   -2.0195    0.9119 C   0  0  0  0  0  0  0  0  0  0  0  0
   -0.9073   -2.6615    1.4699 O   0  0  0  0  0  0  0  0  0  0  0  0
   -1.5803   -0.8195    0.3749 N   0  0  0  0  0  0  0  0  0  0  0  0
   -2.3603   -0.3345   -0.0451 H   0  0  0  0  0  0  0  0  0  0  0  0
   -0.2933   -0.1205    0.3719 C   0  0  1  0  0  0  0  0  0  0  0  0
   -0.4646    0.9275    0.6217 H   0  0  0  0  0  0  0  0  0  0  0  0
    0.6151   -0.7362    1.4557 C   0  0  0  0  0  0  0  0  0  0  0  0
    0.6692   -1.8122    1.2815 H   0  0  0  0  0  0  0  0  0  0  0  0
    1.6212   -0.3257    1.3578 H   0  0  0  0  0  0  0  0  0  0  0  0
    0.1249   -0.4909    2.8932 C   0  0  0  0  0  0  0  0  0  0  0  0
    0.0833    0.5797    3.0937 H   0  0  0  0  0  0  0  0  0  0  0  0
   -0.8722   -0.9143    3.0084 H   0  0  0  0  0  0  0  0  0  0  0  0
    1.0361   -1.1356    3.9327 C   0  0  0  0  0  0  0  0  0  0  0  0
    1.9727   -1.8764    3.6800 O   0  0  0  0  0  0  0  0  0  0  0  0
    0.7452   -0.8502    5.2155 O   0  0  0  0  0  0  0  0  0  0  0  0
    1.3908   -1.3343    5.7332 H   0  0  0  0  0  0  0  0  0  0  0  0
    0.3423   -0.1790   -1.0263 C   0  0  0  0  0  0  0  0  0  0  0  0
   -0.3343   -0.5160   -1.9960 O   0  0  0  0  0  0  0  0  0  0  0  0
    1.6393    0.1362   -1.1256 N   0  0  0  0  0  0  0  0  0  0  0  0
    2.1240    0.4253   -0.2891 H   0  0  0  0  0  0  0  0  0  0  0  0
    2.3928    0.1085   -2.3776 C   0  0  0  0  0  0  0  0  0  0  0  0
    1.9146    0.7604   -3.1109 H   0  0  0  0  0  0  0  0  0  0  0  0
    3.4167    0.4463   -2.2113 H   0  0  0  0  0  0  0  0  0  0  0  0
    2.4085   -0.9079   -2.7759 H   0  0  0  0  0  0  0  0  0  0  0  0
  5  6  2  0  0  0  0
  5  7  1  0  0  0  0
  2  3  1  0  0  0  0
  2  4  1  0  0  0  0
  2  5  1  0  0  0  0
  1  2  1  0  0  0  0
 21 22  2  0  0  0  0
 21 23  1  0  0  0  0
 19 20  1  0  0  0  0
 17 18  2  0  0  0  0
 17 19  1  0  0  0  0
 14 15  1  0  0  0  0
 14 16  1  0  0  0  0
 14 17  1  0  0  0  0
 11 12  1  0  0  0  0
 11 13  1  0  0  0  0
 11 14  1  0  0  0  0
  9 10  1  0  0  0  0
  9 11  1  0  0  0  0
  9 21  1  0  0  0  0
  7  8  1  0  0  0  0
  7  9  1  0  0  0  0
 25 26  1  0  0  0  0
 25 27  1  0  0  0  0
 25 28  1  0  0  0  0
 23 24  1  0  0  0  0
 23 25  1  0  0  0  0
M  END
$$$$
default_name
  -OEChem-01062215323D

 28 27  0     1  0  0  0  0  0999 V2000
   -3.2133   -3.5565    1.2809 H   0  0  0  0  0  0  0  0  0  0  0  0
   -3.1873   -2.5755    0.8089 C   0  0  0  0  0  0  0  0  0  0  0  0
   -3.8793   -1.9065    1.3169 H   0  0  0  0  0  0  0  0  0  0  0  0
   -3.4623   -2.6685   -0.2401 H   0  0  0  0  0  0  0  0  0  0  0  0
   -1.7863   -2.0195    0.9119 C   0  0  0  0  0  0  0  0  0  0  0  0
   -0.9073   -2.6615    1.4699 O   0  0  0  0  0  0  0  0  0  0  0  0
   -1.5803   -0.8195    0.3749 N   0  0  0  0  0  0  0  0  0  0  0  0
   -2.3603   -0.3345   -0.0451 H   0  0  0  0  0  0  0  0  0  0  0  0
   -0.2933   -0.1205    0.3719 C   0  0  1  0  0  0  0  0  0  0  0  0
   -0.4646    0.9275    0.6217 H   0  0  0  0  0  0  0  0  0  0  0  0
    0.6151   -0.7362    1.4557 C   0  0  0  0  0  0  0  0  0  0  0  0
    0.6692   -1.8122    1.2815 H   0  0  0  0  0  0  0  0  0  0  0  0
    1.6212   -0.3257    1.3578 H   0  0  0  0  0  0  0  0  0  0  0  0
    0.1249   -0.4909    2.8932 C   0  0  0  0  0  0  0  0  0  0  0  0
    0.0833    0.5797    3.0937 H   0  0  0  0  0  0  0  0  0  0  0  0
   -0.8722   -0.9143    3.0084 H   0  0  0  0  0  0  0  0  0  0  0  0
    1.0361   -1.1356    3.9327 C   0  0  0  0  0  0  0  0  0  0  0  0
    1.9727   -1.8764    3.6800 O   0  0  0  0  0  0  0  0  0  0  0  0
    0.7452   -0.8502    5.2155 O   0  0  0  0  0  0  0  0  0  0  0  0
    1.3908   -1.3343    5.7332 H   0  0  0  0  0  0  0  0  0  0  0  0
    0.3423   -0.1790   -1.0263 C   0  0  0  0  0  0  0  0  0  0  0  0
   -0.3724   -0.2422   -2.0248 O   0  0  0  0  0  0  0  0  0  0  0  0
    1.6790   -0.1701   -1.0947 N   0  0  0  0  0  0  0  0  0  0  0  0
    2.1989   -0.0937   -0.2333 H   0  0  0  0  0  0  0  0  0  0  0  0
    2.4330   -0.2422   -2.3446 C   0  0  0  0  0  0  0  0  0  0  0  0
    2.1382    0.5780   -3.0017 H   0  0  0  0  0  0  0  0  0  0  0  0
    3.5036   -0.1751   -2.1458 H   0  0  0  0  0  0  0  0  0  0  0  0
    2.2186   -1.1856   -2.8506 H   0  0  0  0  0  0  0  0  0  0  0  0
  5  6  2  0  0  0  0
  5  7  1  0  0  0  0
  2  3  1  0  0  0  0
  2  4  1  0  0  0  0
  2  5  1  0  0  0  0
  1  2  1  0  0  0  0
 21 22  2  0  0  0  0
 21 23  1  0  0  0  0
 19 20  1  0  0  0  0
 17 18  2  0  0  0  0
 17 19  1  0  0  0  0
 14 15  1  0  0  0  0
 14 16  1  0  0  0  0
 14 17  1  0  0  0  0
 11 12  1  0  0  0  0
 11 13  1  0  0  0  0
 11 14  1  0  0  0  0
  9 10  1  0  0  0  0
  9 11  1  0  0  0  0
  9 21  1  0  0  0  0
  7  8  1  0  0  0  0
  7  9  1  0  0  0  0
 25 26  1  0  0  0  0
 25 27  1  0  0  0  0
 25 28  1  0  0  0  0
 23 24  1  0  0  0  0
 23 25  1  0  0  0  0
M  END
$$$$
default_name
  -OEChem-01062215323D

 28 27  0     1  0  0  0  0  0999 V2000
   -3.2133   -3.5565    1.2809 H   0  0  0  0  0  0  0  0  0  0  0  0
   -3.1873   -2.5755    0.8089 C   0  0  0  0  0  0  0  0  0  0  0  0
   -3.8793   -1.9065    1.3169 H   0  0  0  0  0  0  0  0  0  0  0  0
   -3.4623   -2.6685   -0.2401 H   0  0  0  0  0  0  0  0  0  0  0  0
   -1.7863   -2.0195    0.9119 C   0  0  0  0  0  0  0  0  0  0  0  0
   -0.9073   -2.6615    1.4699 O   0  0  0  0  0  0  0  0  0  0  0  0
   -1.5803   -0.8195    0.3749 N   0  0  0  0  0  0  0  0  0  0  0  0
   -2.3603   -0.3345   -0.0451 H   0  0  0  0  0  0  0  0  0  0  0  0
   -0.2933   -0.1205    0.3719 C   0  0  1  0  0  0  0  0  0  0  0  0
   -0.4646    0.9275    0.6217 H   0  0  0  0  0  0  0  0  0  0  0  0
    0.6151   -0.7362    1.4557 C   0  0  0  0  0  0  0  0  0  0  0  0
    0.6692   -1.8122    1.2815 H   0  0  0  0  0  0  0  0  0  0  0  0
    1.6212   -0.3257    1.3578 H   0  0  0  0  0  0  0  0  0  0  0  0
    0.1249   -0.4909    2.8932 C   0  0  0  0  0  0  0  0  0  0  0  0
    0.0833    0.5797    3.0937 H   0  0  0  0  0  0  0  0  0  0  0  0
   -0.8722   -0.9143    3.0084 H   0  0  0  0  0  0  0  0  0  0  0  0
    1.0361   -1.1356    3.9327 C   0  0  0  0  0  0  0  0  0  0  0  0
    1.9727   -1.8764    3.6800 O   0  0  0  0  0  0  0  0  0  0  0  0
    0.7452   -0.8502    5.2155 O   0  0  0  0  0  0  0  0  0  0  0  0
    1.3908   -1.3343    5.7332 H   0  0  0  0  0  0  0  0  0  0  0  0
    0.3423   -0.1790   -1.0263 C   0  0  0  0  0  0  0  0  0  0  0  0
   -0.3444    0.0343   -2.0237 O   0  0  0  0  0  0  0  0  0  0  0  0
    1.6449   -0.4786   -1.0973 N   0  0  0  0  0  0  0  0  0  0  0  0
    2.1486   -0.6187   -0.2343 H   0  0  0  0  0  0  0  0  0  0  0  0
    2.3890   -0.5939   -2.3499 C   0  0  0  0  0  0  0  0  0  0  0  0
    2.3101    0.3376   -2.9135 H   0  0  0  0  0  0  0  0  0  0  0  0
    3.4406   -0.8028   -2.1482 H   0  0  0  0  0  0  0  0  0  0  0  0
    1.9705   -1.4010   -2.9543 H   0  0  0  0  0  0  0  0  0  0  0  0
  5  6  2  0  0  0  0
  5  7  1  0  0  0  0
  2  3  1  0  0  0  0
  2  4  1  0  0  0  0
  2  5  1  0  0  0  0
  1  2  1  0  0  0  0
 21 22  2  0  0  0  0
 21 23  1  0  0  0  0
 19 20  1  0  0  0  0
 17 18  2  0  0  0  0
 17 19  1  0  0  0  0
 14 15  1  0  0  0  0
 14 16  1  0  0  0  0
 14 17  1  0  0  0  0
 11 12  1  0  0  0  0
 11 13  1  0  0  0  0
 11 14  1  0  0  0  0
  9 10  1  0  0  0  0
  9 11  1  0  0  0  0
  9 21  1  0  0  0  0
  7  8  1  0  0  0  0
  7  9  1  0  0  0  0
 25 26  1  0  0  0  0
 25 27  1  0  0  0  0
 25 28  1  0  0  0  0
 23 24  1  0  0  0  0
 23 25  1  0  0  0  0
M  END
$$$$
default_name
  -OEChem-01062215323D

 28 27  0     1  0  0  0  0  0999 V2000
   -3.2133   -3.5565    1.2809 H   0  0  0  0  0  0  0  0  0  0  0  0
   -3.1873   -2.5755    0.8089 C   0  0  0  0  0  0  0  0  0  0  0  0
   -3.8793   -1.9065    1.3169 H   0  0  0  0  0  0  0  0  0  0  0  0
   -3.4623   -2.6685   -0.2401 H   0  0  0  0  0  0  0  0  0  0  0  0
   -1.7863   -2.0195    0.9119 C   0  0  0  0  0  0  0  0  0  0  0  0
   -0.9073   -2.6615    1.4699 O   0  0  0  0  0  0  0  0  0  0  0  0
   -1.5803   -0.8195    0.3749 N   0  0  0  0  0  0  0  0  0  0  0  0
   -2.3603   -0.3345   -0.0451 H   0  0  0  0  0  0  0  0  0  0  0  0
   -0.2933   -0.1205    0.3719 C   0  0  1  0  0  0  0  0  0  0  0  0
   -0.4646    0.9275    0.6217 H   0  0  0  0  0  0  0  0  0  0  0  0
    0.6151   -0.7362    1.4557 C   0  0  0  0  0  0  0  0  0  0  0  0
    0.6692   -1.8122    1.2815 H   0  0  0  0  0  0  0  0  0  0  0  0
    1.6212   -0.3257    1.3578 H   0  0  0  0  0  0  0  0  0  0  0  0
    0.1249   -0.4909    2.8932 C   0  0  0  0  0  0  0  0  0  0  0  0
    0.0833    0.5797    3.0937 H   0  0  0  0  0  0  0  0  0  0  0  0
   -0.8722   -0.9143    3.0084 H   0  0  0  0  0  0  0  0  0  0  0  0
    1.0361   -1.1356    3.9327 C   0  0  0  0  0  0  0  0  0  0  0  0
    1.9727   -1.8764    3.6800 O   0  0  0  0  0  0  0  0  0  0  0  0
    0.7452   -0.8502    5.2155 O   0  0  0  0  0  0  0  0  0  0  0  0
    1.3908   -1.3343    5.7332 H   0  0  0  0  0  0  0  0  0  0  0  0
    0.3423   -0.1790   -1.0263 C   0  0  0  0  0  0  0  0  0  0  0  0
   -0.2523    0.2947   -1.9927 O   0  0  0  0  0  0  0  0  0  0  0  0
    1.5393   -0.7683   -1.1332 N   0  0  0  0  0  0  0  0  0  0  0  0
    1.9763   -1.1138   -0.2918 H   0  0  0  0  0  0  0  0  0  0  0  0
    2.2638   -0.9227   -2.3931 C   0  0  0  0  0  0  0  0  0  0  0  0
    2.4186    0.0553   -2.8523 H   0  0  0  0  0  0  0  0  0  0  0  0
    3.2320   -1.3940   -2.2182 H   0  0  0  0  0  0  0  0  0  0  0  0
    1.6812   -1.5396   -3.0800 H   0  0  0  0  0  0  0  0  0  0  0  0
  5  6  2  0  0  0  0
  5  7  1  0  0  0  0
  2  3  1  0  0  0  0
  2  4  1  0  0  0  0
  2  5  1  0  0  0  0
  1  2  1  0  0  0  0
 21 22  2  0  0  0  0
 21 23  1  0  0  0  0
 19 20  1  0  0  0  0
 17 18  2  0  0  0  0
 17 19  1  0  0  0  0
 14 15  1  0  0  0  0
 14 16  1  0  0  0  0
 14 17  1  0  0  0  0
 11 12  1  0  0  0  0
 11 13  1  0  0  0  0
 11 14  1  0  0  0  0
  9 10  1  0  0  0  0
  9 11  1  0  0  0  0
  9 21  1  0  0  0  0
  7  8  1  0  0  0  0
  7  9  1  0  0  0  0
 25 26  1  0  0  0  0
 25 27  1  0  0  0  0
 25 28  1  0  0  0  0
 23 24  1  0  0  0  0
 23 25  1  0  0  0  0
M  END
$$$$
default_name
  -OEChem-01062215323D

 28 27  0     1  0  0  0  0  0999 V2000
   -3.2133   -3.5565    1.2809 H   0  0  0  0  0  0  0  0  0  0  0  0
   -3.1873   -2.5755    0.8089 C   0  0  0  0  0  0  0  0  0  0  0  0
   -3.8793   -1.9065    1.3169 H   0  0  0  0  0  0  0  0  0  0  0  0
   -3.4623   -2.6685   -0.2401 H   0  0  0  0  0  0  0  0  0  0  0  0
   -1.7863   -2.0195    0.9119 C   0  0  0  0  0  0  0  0  0  0  0  0
   -0.9073   -2.6615    1.4699 O   0  0  0  0  0  0  0  0  0  0  0  0
   -1.5803   -0.8195    0.3749 N   0  0  0  0  0  0  0  0  0  0  0  0
   -2.3603   -0.3345   -0.0451 H   0  0  0  0  0  0  0  0  0  0  0  0
   -0.2933   -0.1205    0.3719 C   0  0  1  0  0  0  0  0  0  0  0  0
   -0.4646    0.9275    0.6217 H   0  0  0  0  0  0  0  0  0  0  0  0
    0.6151   -0.7362    1.4557 C   0  0  0  0  0  0  0  0  0  0  0  0
    0.6692   -1.8122    1.2815 H   0  0  0  0  0  0  0  0  0  0  0  0
    1.6212   -0.3257    1.3578 H   0  0  0  0  0  0  0  0  0  0  0  0
    0.1249   -0.4909    2.8932 C   0  0  0  0  0  0  0  0  0  0  0  0
    0.0833    0.5797    3.0937 H   0  0  0  0  0  0  0  0  0  0  0  0
   -0.8722   -0.9143    3.0084 H   0  0  0  0  0  0  0  0  0  0  0  0
    1.0361   -1.1356    3.9327 C   0  0  0  0  0  0  0  0  0  0  0  0
    1.9727   -1.8764    3.6800 O   0  0  0  0  0  0  0  0  0  0  0  0
    0.7452   -0.8502    5.2155 O   0  0  0  0  0  0  0  0  0  0  0  0
    1.3908   -1.3343    5.7332 H   0  0  0  0  0  0  0  0  0  0  0  0
    0.3423   -0.1790   -1.0263 C   0  0  0  0  0  0  0  0  0  0  0  0
   -0.1023    0.5211   -1.9340 O   0  0  0  0  0  0  0  0  0  0  0  0
    1.3695   -1.0194   -1.1999 N   0  0  0  0  0  0  0  0  0  0  0  0
    1.6939   -1.5453   -0.4021 H   0  0  0  0  0  0  0  0  0  0  0  0
    2.0658   -1.2061   -2.4712 C   0  0  0  0  0  0  0  0  0  0  0  0
    2.4564   -0.2494   -2.8224 H   0  0  0  0  0  0  0  0  0  0  0  0
    2.8920   -1.9084   -2.3512 H   0  0  0  0  0  0  0  0  0  0  0  0
    1.3703   -1.5919   -3.2191 H   0  0  0  0  0  0  0  0  0  0  0  0
  5  6  2  0  0  0  0
  5  7  1  0  0  0  0
  2  3  1  0  0  0  0
  2  4  1  0  0  0  0
  2  5  1  0  0  0  0
  1  2  1  0  0  0  0
 21 22  2  0  0  0  0
 21 23  1  0  0  0  0
 19 20  1  0  0  0  0
 17 18  2  0  0  0  0
 17 19  1  0  0  0  0
 14 15  1  0  0  0  0
 14 16  1  0  0  0  0
 14 17  1  0  0  0  0
 11 12  1  0  0  0  0
 11 13  1  0  0  0  0
 11 14  1  0  0  0  0
  9 10  1  0  0  0  0
  9 11  1  0  0  0  0
  9 21  1  0  0  0  0
  7  8  1  0  0  0  0
  7  9  1  0  0  0  0
 25 26  1  0  0  0  0
 25 27  1  0  0  0  0
 25 28  1  0  0  0  0
 23 24  1  0  0  0  0
 23 25  1  0  0  0  0
M  END
$$$$
default_name
  -OEChem-01062215323D

 28 27  0     1  0  0  0  0  0999 V2000
   -3.2133   -3.5565    1.2809 H   0  0  0  0  0  0  0  0  0  0  0  0
   -3.1873   -2.5755    0.8089 C   0  0  0  0  0  0  0  0  0  0  0  0
   -3.8793   -1.9065    1.3169 H   0  0  0  0  0  0  0  0  0  0  0  0
   -3.4623   -2.6685   -0.2401 H   0  0  0  0  0  0  0  0  0  0  0  0
   -1.7863   -2.0195    0.9119 C   0  0  0  0  0  0  0  0  0  0  0  0
   -0.9073   -2.6615    1.4699 O   0  0  0  0  0  0  0  0  0  0  0  0
   -1.5803   -0.8195    0.3749 N   0  0  0  0  0  0  0  0  0  0  0  0
   -2.3603   -0.3345   -0.0451 H   0  0  0  0  0  0  0  0  0  0  0  0
   -0.2933   -0.1205    0.3719 C   0  0  1  0  0  0  0  0  0  0  0  0
   -0.4646    0.9275    0.6217 H   0  0  0  0  0  0  0  0  0  0  0  0
    0.6151   -0.7362    1.4557 C   0  0  0  0  0  0  0  0  0  0  0  0
    0.6692   -1.8122    1.2815 H   0  0  0  0  0  0  0  0  0  0  0  0
    1.6212   -0.3257    1.3578 H   0  0  0  0  0  0  0  0  0  0  0  0
    0.1249   -0.4909    2.8932 C   0  0  0  0  0  0  0  0  0  0  0  0
    0.0833    0.5797    3.0937 H   0  0  0  0  0  0  0  0  0  0  0  0
   -0.8722   -0.9143    3.0084 H   0  0  0  0  0  0  0  0  0  0  0  0
    1.0361   -1.1356    3.9327 C   0  0  0  0  0  0  0  0  0  0  0  0
    1.9727   -1.8764    3.6800 O   0  0  0  0  0  0  0  0  0  0  0  0
    0.7452   -0.8502    5.2155 O   0  0  0  0  0  0  0  0  0  0  0  0
    1.3908   -1.3343    5.7332 H   0  0  0  0  0  0  0  0  0  0  0  0
    0.3423   -0.1790   -1.0263 C   0  0  0  0  0  0  0  0  0  0  0  0
    0.0953    0.6983   -1.8516 O   0  0  0  0  0  0  0  0  0  0  0  0
    1.1470   -1.2149   -1.2928 N   0  0  0  0  0  0  0  0  0  0  0  0
    1.3206   -1.8839   -0.5576 H   0  0  0  0  0  0  0  0  0  0  0  0
    1.8086   -1.4250   -2.5789 C   0  0  0  0  0  0  0  0  0  0  0  0
    2.4209   -0.5558   -2.8257 H   0  0  0  0  0  0  0  0  0  0  0  0
    2.4437   -2.3110   -2.5381 H   0  0  0  0  0  0  0  0  0  0  0  0
    1.0591   -1.5544   -3.3622 H   0  0  0  0  0  0  0  0  0  0  0  0
  5  6  2  0  0  0  0
  5  7  1  0  0  0  0
  2  3  1  0  0  0  0
  2  4  1  0  0  0  0
  2  5  1  0  0  0  0
  1  2  1  0  0  0  0
 21 22  2  0  0  0  0
 21 23  1  0  0  0  0
 19 20  1  0  0  0  0
 17 18  2  0  0  0  0
 17 19  1  0  0  0  0
 14 15  1  0  0  0  0
 14 16  1  0  0  0  0
 14 17  1  0  0  0  0
 11 12  1  0  0  0  0
 11 13  1  0  0  0  0
 11 14  1  0  0  0  0
  9 10  1  0  0  0  0
  9 11  1  0  0  0  0
  9 21  1  0  0  0  0
  7  8  1  0  0  0  0
  7  9  1  0  0  0  0
 25 26  1  0  0  0  0
 25 27  1  0  0  0  0
 25 28  1  0  0  0  0
 23 24  1  0  0  0  0
 23 25  1  0  0  0  0
M  END
$$$$
default_name
  -OEChem-01062215323D

 28 27  0     1  0  0  0  0  0999 V2000
   -3.2133   -3.5565    1.2809 H   0  0  0  0  0  0  0  0  0  0  0  0
   -3.1873   -2.5755    0.8089 C   0  0  0  0  0  0  0  0  0  0  0  0
   -3.8793   -1.9065    1.3169 H   0  0  0  0  0  0  0  0  0  0  0  0
   -3.4623   -2.6685   -0.2401 H   0  0  0  0  0  0  0  0  0  0  0  0
   -1.7863   -2.0195    0.9119 C   0  0  0  0  0  0  0  0  0  0  0  0
   -0.9073   -2.6615    1.4699 O   0  0  0  0  0  0  0  0  0  0  0  0
   -1.5803   -0.8195    0.3749 N   0  0  0  0  0  0  0  0  0  0  0  0
   -2.3603   -0.3345   -0.0451 H   0  0  0  0  0  0  0  0  0  0  0  0
   -0.2933   -0.1205    0.3719 C   0  0  1  0  0  0  0  0  0  0  0  0
   -0.4646    0.9275    0.6217 H   0  0  0  0  0  0  0  0  0  0  0  0
    0.6151   -0.7362    1.4557 C   0  0  0  0  0  0  0  0  0  0  0  0
    0.6692   -1.8122    1.2815 H   0  0  0  0  0  0  0  0  0  0  0  0
    1.6212   -0.3257    1.3578 H   0  0  0  0  0  0  0  0  0  0  0  0
    0.1249   -0.4909    2.8932 C   0  0  0  0  0  0  0  0  0  0  0  0
    0.0833    0.5797    3.0937 H   0  0  0  0  0  0  0  0  0  0  0  0
   -0.8722   -0.9143    3.0084 H   0  0  0  0  0  0  0  0  0  0  0  0
    1.0361   -1.1356    3.9327 C   0  0  0  0  0  0  0  0  0  0  0  0
    1.9727   -1.8764    3.6800 O   0  0  0  0  0  0  0  0  0  0  0  0
    0.7452   -0.8502    5.2155 O   0  0  0  0  0  0  0  0  0  0  0  0
    1.3908   -1.3343    5.7332 H   0  0  0  0  0  0  0  0  0  0  0  0
    0.3423   -0.1790   -1.0263 C   0  0  0  0  0  0  0  0  0  0  0  0
    0.3271    0.8141   -1.7511 O   0  0  0  0  0  0  0  0  0  0  0  0
    0.8870   -1.3413   -1.4057 N   0  0  0  0  0  0  0  0  0  0  0  0
    0.8818   -2.1063   -0.7478 H   0  0  0  0  0  0  0  0  0  0  0  0
    1.5097   -1.5643   -2.7090 C   0  0  0  0  0  0  0  0  0  0  0  0
    2.3145   -0.8430   -2.8620 H   0  0  0  0  0  0  0  0  0  0  0  0
    1.9178   -2.5744   -2.7661 H   0  0  0  0  0  0  0  0  0  0  0  0
    0.7687   -1.4295   -3.4994 H   0  0  0  0  0  0  0  0  0  0  0  0
  5  6  2  0  0  0  0
  5  7  1  0  0  0  0
  2  3  1  0  0  0  0
  2  4  1  0  0  0  0
  2  5  1  0  0  0  0
  1  2  1  0  0  0  0
 21 22  2  0  0  0  0
 21 23  1  0  0  0  0
 19 20  1  0  0  0  0
 17 18  2  0  0  0  0
 17 19  1  0  0  0  0
 14 15  1  0  0  0  0
 14 16  1  0  0  0  0
 14 17  1  0  0  0  0
 11 12  1  0  0  0  0
 11 13  1  0  0  0  0
 11 14  1  0  0  0  0
  9 10  1  0  0  0  0
  9 11  1  0  0  0  0
  9 21  1  0  0  0  0
  7  8  1  0  0  0  0
  7  9  1  0  0  0  0
 25 26  1  0  0  0  0
 25 27  1  0  0  0  0
 25 28  1  0  0  0  0
 23 24  1  0  0  0  0
 23 25  1  0  0  0  0
M  END
$$$$
default_name
  -OEChem-01062215323D

 28 27  0     1  0  0  0  0  0999 V2000
   -3.2133   -3.5565    1.2809 H   0  0  0  0  0  0  0  0  0  0  0  0
   -3.1873   -2.5755    0.8089 C   0  0  0  0  0  0  0  0  0  0  0  0
   -3.8793   -1.9065    1.3169 H   0  0  0  0  0  0  0  0  0  0  0  0
   -3.4623   -2.6685   -0.2401 H   0  0  0  0  0  0  0  0  0  0  0  0
   -1.7863   -2.0195    0.9119 C   0  0  0  0  0  0  0  0  0  0  0  0
   -0.9073   -2.6615    1.4699 O   0  0  0  0  0  0  0  0  0  0  0  0
   -1.5803   -0.8195    0.3749 N   0  0  0  0  0  0  0  0  0  0  0  0
   -2.3603   -0.3345   -0.0451 H   0  0  0  0  0  0  0  0  0  0  0  0
   -0.2933   -0.1205    0.3719 C   0  0  1  0  0  0  0  0  0  0  0  0
   -0.4646    0.9275    0.6217 H   0  0  0  0  0  0  0  0  0  0  0  0
    0.6151   -0.7362    1.4557 C   0  0  0  0  0  0  0  0  0  0  0  0
    0.6692   -1.8122    1.2815 H   0  0  0  0  0  0  0  0  0  0  0  0
    1.6212   -0.3257    1.3578 H   0  0  0  0  0  0  0  0  0  0  0  0
    0.1249   -0.4909    2.8932 C   0  0  0  0  0  0  0  0  0  0  0  0
    0.0833    0.5797    3.0937 H   0  0  0  0  0  0  0  0  0  0  0  0
   -0.8722   -0.9143    3.0084 H   0  0  0  0  0  0  0  0  0  0  0  0
    1.0361   -1.1356    3.9327 C   0  0  0  0  0  0  0  0  0  0  0  0
    1.9727   -1.8764    3.6800 O   0  0  0  0  0  0  0  0  0  0  0  0
    0.7452   -0.8502    5.2155 O   0  0  0  0  0  0  0  0  0  0  0  0
    1.3908   -1.3343    5.7332 H   0  0  0  0  0  0  0  0  0  0  0  0
    0.3423   -0.1790   -1.0263 C   0  0  0  0  0  0  0  0  0  0  0  0
    0.5772    0.8606   -1.6393 O   0  0  0  0  0  0  0  0  0  0  0  0
    0.6071   -1.3902   -1.5308 N   0  0  0  0  0  0  0  0  0  0  0  0
    0.4075   -2.1976   -0.9595 H   0  0  0  0  0  0  0  0  0  0  0  0
    1.1894   -1.6146   -2.8524 C   0  0  0  0  0  0  0  0  0  0  0  0
    2.1444   -1.0916   -2.9289 H   0  0  0  0  0  0  0  0  0  0  0  0
    1.3501   -2.6805   -3.0198 H   0  0  0  0  0  0  0  0  0  0  0  0
    0.5190   -1.2258   -3.6214 H   0  0  0  0  0  0  0  0  0  0  0  0
  5  6  2  0  0  0  0
  5  7  1  0  0  0  0
  2  3  1  0  0  0  0
  2  4  1  0  0  0  0
  2  5  1  0  0  0  0
  1  2  1  0  0  0  0
 21 22  2  0  0  0  0
 21 23  1  0  0  0  0
 19 20  1  0  0  0  0
 17 18  2  0  0  0  0
 17 19  1  0  0  0  0
 14 15  1  0  0  0  0
 14 16  1  0  0  0  0
 14 17  1  0  0  0  0
 11 12  1  0  0  0  0
 11 13  1  0  0  0  0
 11 14  1  0  0  0  0
  9 10  1  0  0  0  0
  9 11  1  0  0  0  0
  9 21  1  0  0  0  0
  7  8  1  0  0  0  0
  7  9  1  0  0  0  0
 25 26  1  0  0  0  0
 25 27  1  0  0  0  0
 25 28  1  0  0  0  0
 23 24  1  0  0  0  0
 23 25  1  0  0  0  0
M  END
$$$$
default_name
  -OEChem-01062215323D

 28 27  0     1  0  0  0  0  0999 V2000
   -3.2133   -3.5565    1.2809 H   0  0  0  0  0  0  0  0  0  0  0  0
   -3.1873   -2.5755    0.8089 C   0  0  0  0  0  0  0  0  0  0  0  0
   -3.8793   -1.9065    1.3169 H   0  0  0  0  0  0  0  0  0  0  0  0
   -3.4623   -2.6685   -0.2401 H   0  0  0  0  0  0  0  0  0  0  0  0
   -1.7863   -2.0195    0.9119 C   0  0  0  0  0  0  0  0  0  0  0  0
   -0.9073   -2.6615    1.4699 O   0  0  0  0  0  0  0  0  0  0  0  0
   -1.5803   -0.8195    0.3749 N   0  0  0  0  0  0  0  0  0  0  0  0
   -2.3603   -0.3345   -0.0451 H   0  0  0  0  0  0  0  0  0  0  0  0
   -0.2933   -0.1205    0.3719 C   0  0  1  0  0  0  0  0  0  0  0  0
   -0.4646    0.9275    0.6217 H   0  0  0  0  0  0  0  0  0  0  0  0
    0.6151   -0.7362    1.4557 C   0  0  0  0  0  0  0  0  0  0  0  0
    0.6692   -1.8122    1.2815 H   0  0  0  0  0  0  0  0  0  0  0  0
    1.6212   -0.3257    1.3578 H   0  0  0  0  0  0  0  0  0  0  0  0
    0.1249   -0.4909    2.8932 C   0  0  0  0  0  0  0  0  0  0  0  0
    0.0833    0.5797    3.0937 H   0  0  0  0  0  0  0  0  0  0  0  0
   -0.8722   -0.9143    3.0084 H   0  0  0  0  0  0  0  0  0  0  0  0
    1.0361   -1.1356    3.9327 C   0  0  0  0  0  0  0  0  0  0  0  0
    1.9727   -1.8764    3.6800 O   0  0  0  0  0  0  0  0  0  0  0  0
    0.7452   -0.8502    5.2155 O   0  0  0  0  0  0  0  0  0  0  0  0
    1.3908   -1.3343    5.7332 H   0  0  0  0  0  0  0  0  0  0  0  0
    0.3423   -0.1790   -1.0263 C   0  0  0  0  0  0  0  0  0  0  0  0
    0.8287    0.8346   -1.5239 O   0  0  0  0  0  0  0  0  0  0  0  0
    0.3266   -1.3580   -1.6597 N   0  0  0  0  0  0  0  0  0  0  0  0
   -0.0700   -2.1514   -1.1785 H   0  0  0  0  0  0  0  0  0  0  0  0
    0.8697   -1.5724   -2.9995 C   0  0  0  0  0  0  0  0  0  0  0  0
    1.9223   -1.2844   -3.0218 H   0  0  0  0  0  0  0  0  0  0  0  0
    0.7792   -2.6223   -3.2817 H   0  0  0  0  0  0  0  0  0  0  0  0
    0.3269   -0.9572   -3.7200 H   0  0  0  0  0  0  0  0  0  0  0  0
  5  6  2  0  0  0  0
  5  7  1  0  0  0  0
  2  3  1  0  0  0  0
  2  4  1  0  0  0  0
  2  5  1  0  0  0  0
  1  2  1  0  0  0  0
 21 22  2  0  0  0  0
 21 23  1  0  0  0  0
 19 20  1  0  0  0  0
 17 18  2  0  0  0  0
 17 19  1  0  0  0  0
 14 15  1  0  0  0  0
 14 16  1  0  0  0  0
 14 17  1  0  0  0  0
 11 12  1  0  0  0  0
 11 13  1  0  0  0  0
 11 14  1  0  0  0  0
  9 10  1  0  0  0  0
  9 11  1  0  0  0  0
  9 21  1  0  0  0  0
  7  8  1  0  0  0  0
  7  9  1  0  0  0  0
 25 26  1  0  0  0  0
 25 27  1  0  0  0  0
 25 28  1  0  0  0  0
 23 24  1  0  0  0  0
 23 25  1  0  0  0  0
M  END
$$$$
default_name
  -OEChem-01062215323D

 28 27  0     1  0  0  0  0  0999 V2000
   -3.2133   -3.5565    1.2809 H   0  0  0  0  0  0  0  0  0  0  0  0
   -3.1873   -2.5755    0.8089 C   0  0  0  0  0  0  0  0  0  0  0  0
   -3.8793   -1.9065    1.3169 H   0  0  0  0  0  0  0  0  0  0  0  0
   -3.4623   -2.6685   -0.2401 H   0  0  0  0  0  0  0  0  0  0  0  0
   -1.7863   -2.0195    0.9119 C   0  0  0  0  0  0  0  0  0  0  0  0
   -0.9073   -2.6615    1.4699 O   0  0  0  0  0  0  0  0  0  0  0  0
   -1.5803   -0.8195    0.3749 N   0  0  0  0  0  0  0  0  0  0  0  0
   -2.3603   -0.3345   -0.0451 H   0  0  0  0  0  0  0  0  0  0  0  0
   -0.2933   -0.1205    0.3719 C   0  0  1  0  0  0  0  0  0  0  0  0
   -0.4646    0.9275    0.6217 H   0  0  0  0  0  0  0  0  0  0  0  0
    0.6151   -0.7362    1.4557 C   0  0  0  0  0  0  0  0  0  0  0  0
    0.6692   -1.8122    1.2815 H   0  0  0  0  0  0  0  0  0  0  0  0
    1.6212   -0.3257    1.3578 H   0  0  0  0  0  0  0  0  0  0  0  0
    0.1249   -0.4909    2.8932 C   0  0  0  0  0  0  0  0  0  0  0  0
    0.0833    0.5797    3.0937 H   0  0  0  0  0  0  0  0  0  0  0  0
   -0.8722   -0.9143    3.0084 H   0  0  0  0  0  0  0  0  0  0  0  0
    1.0361   -1.1356    3.9327 C   0  0  0  0  0  0  0  0  0  0  0  0
    1.9727   -1.8764    3.6800 O   0  0  0  0  0  0  0  0  0  0  0  0
    0.7452   -0.8502    5.2155 O   0  0  0  0  0  0  0  0  0  0  0  0
    1.3908   -1.3343    5.7332 H   0  0  0  0  0  0  0  0  0  0  0  0
    0.3423   -0.1790   -1.0263 C   0  0  0  0  0  0  0  0  0  0  0  0
    1.0644    0.7380   -1.4128 O   0  0  0  0  0  0  0  0  0  0  0  0
    0.0644   -1.2472   -1.7835 N   0  0  0  0  0  0  0  0  0  0  0  0
   -0.5183   -1.9708   -1.3898 H   0  0  0  0  0  0  0  0  0  0  0  0
    0.5722   -1.4406   -3.1403 C   0  0  0  0  0  0  0  0  0  0  0  0
    1.6633   -1.4085   -3.1344 H   0  0  0  0  0  0  0  0  0  0  0  0
    0.2440   -2.4035   -3.5341 H   0  0  0  0  0  0  0  0  0  0  0  0
    0.2056   -0.6421   -3.7883 H   0  0  0  0  0  0  0  0  0  0  0  0
  5  6  2  0  0  0  0
  5  7  1  0  0  0  0
  2  3  1  0  0  0  0
  2  4  1  0  0  0  0
  2  5  1  0  0  0  0
  1  2  1  0  0  0  0
 21 22  2  0  0  0  0
 21 23  1  0  0  0  0
 19 20  1  0  0  0  0
 17 18  2  0  0  0  0
 17 19  1  0  0  0  0
 14 15  1  0  0  0  0
 14 16  1  0  0  0  0
 14 17  1  0  0  0  0
 11 12  1  0  0  0  0
 11 13  1  0  0  0  0
 11 14  1  0  0  0  0
  9 10  1  0  0  0  0
  9 11  1  0  0  0  0
  9 21  1  0  0  0  0
  7  8  1  0  0  0  0
  7  9  1  0  0  0  0
 25 26  1  0  0  0  0
 25 27  1  0  0  0  0
 25 28  1  0  0  0  0
 23 24  1  0  0  0  0
 23 25  1  0  0  0  0
M  END
$$$$
default_name
  -OEChem-01062215323D

 28 27  0     1  0  0  0  0  0999 V2000
   -3.2133   -3.5565    1.2809 H   0  0  0  0  0  0  0  0  0  0  0  0
   -3.1873   -2.5755    0.8089 C   0  0  0  0  0  0  0  0  0  0  0  0
   -3.8793   -1.9065    1.3169 H   0  0  0  0  0  0  0  0  0  0  0  0
   -3.4623   -2.6685   -0.2401 H   0  0  0  0  0  0  0  0  0  0  0  0
   -1.7863   -2.0195    0.9119 C   0  0  0  0  0  0  0  0  0  0  0  0
   -0.9073   -2.6615    1.4699 O   0  0  0  0  0  0  0  0  0  0  0  0
   -1.5803   -0.8195    0.3749 N   0  0  0  0  0  0  0  0  0  0  0  0
   -2.3603   -0.3345   -0.0451 H   0  0  0  0  0  0  0  0  0  0  0  0
   -0.2933   -0.1205    0.3719 C   0  0  1  0  0  0  0  0  0  0  0  0
   -0.4646    0.9275    0.6217 H   0  0  0  0  0  0  0  0  0  0  0  0
    0.6151   -0.7362    1.4557 C   0  0  0  0  0  0  0  0  0  0  0  0
    0.6692   -1.8122    1.2815 H   0  0  0  0  0  0  0  0  0  0  0  0
    1.6212   -0.3257    1.3578 H   0  0  0  0  0  0  0  0  0  0  0  0
    0.1249   -0.4909    2.8932 C   0  0  0  0  0  0  0  0  0  0  0  0
    0.0833    0.5797    3.0937 H   0  0  0  0  0  0  0  0  0  0  0  0
   -0.8722   -0.9143    3.0084 H   0  0  0  0  0  0  0  0  0  0  0  0
    1.0361   -1.1356    3.9327 C   0  0  0  0  0  0  0  0  0  0  0  0
    1.9727   -1.8764    3.6800 O   0  0  0  0  0  0  0  0  0  0  0  0
    0.7452   -0.8502    5.2155 O   0  0  0  0  0  0  0  0  0  0  0  0
    1.3908   -1.3343    5.7332 H   0  0  0  0  0  0  0  0  0  0  0  0
    0.3423   -0.1790   -1.0263 C   0  0  0  0  0  0  0  0  0  0  0  0
    1.2682    0.5773   -1.3134 O   0  0  0  0  0  0  0  0  0  0  0  0
   -0.1615   -1.0651   -1.8938 N   0  0  0  0  0  0  0  0  0  0  0  0
   -0.9066   -1.6683   -1.5790 H   0  0  0  0  0  0  0  0  0  0  0  0
    0.3173   -1.2282   -3.2650 C   0  0  0  0  0  0  0  0  0  0  0  0
    1.3849   -1.4553   -3.2589 H   0  0  0  0  0  0  0  0  0  0  0  0
   -0.2189   -2.0392   -3.7598 H   0  0  0  0  0  0  0  0  0  0  0  0
    0.1634   -0.3017   -3.8218 H   0  0  0  0  0  0  0  0  0  0  0  0
  5  6  2  0  0  0  0
  5  7  1  0  0  0  0
  2  3  1  0  0  0  0
  2  4  1  0  0  0  0
  2  5  1  0  0  0  0
  1  2  1  0  0  0  0
 21 22  2  0  0  0  0
 21 23  1  0  0  0  0
 19 20  1  0  0  0  0
 17 18  2  0  0  0  0
 17 19  1  0  0  0  0
 14 15  1  0  0  0  0
 14 16  1  0  0  0  0
 14 17  1  0  0  0  0
 11 12  1  0  0  0  0
 11 13  1  0  0  0  0
 11 14  1  0  0  0  0
  9 10  1  0  0  0  0
  9 11  1  0  0  0  0
  9 21  1  0  0  0  0
  7  8  1  0  0  0  0
  7  9  1  0  0  0  0
 25 26  1  0  0  0  0
 25 27  1  0  0  0  0
 25 28  1  0  0  0  0
 23 24  1  0  0  0  0
 23 25  1  0  0  0  0
M  END
$$$$
default_name
  -OEChem-01062215323D

 28 27  0     1  0  0  0  0  0999 V2000
   -3.2133   -3.5565    1.2809 H   0  0  0  0  0  0  0  0  0  0  0  0
   -3.1873   -2.5755    0.8089 C   0  0  0  0  0  0  0  0  0  0  0  0
   -3.8793   -1.9065    1.3169 H   0  0  0  0  0  0  0  0  0  0  0  0
   -3.4623   -2.6685   -0.2401 H   0  0  0  0  0  0  0  0  0  0  0  0
   -1.7863   -2.0195    0.9119 C   0  0  0  0  0  0  0  0  0  0  0  0
   -0.9073   -2.6615    1.4699 O   0  0  0  0  0  0  0  0  0  0  0  0
   -1.5803   -0.8195    0.3749 N   0  0  0  0  0  0  0  0  0  0  0  0
   -2.3603   -0.3345   -0.0451 H   0  0  0  0  0  0  0  0  0  0  0  0
   -0.2933   -0.1205    0.3719 C   0  0  1  0  0  0  0  0  0  0  0  0
   -0.4646    0.9275    0.6217 H   0  0  0  0  0  0  0  0  0  0  0  0
    0.6151   -0.7362    1.4557 C   0  0  0  0  0  0  0  0  0  0  0  0
    0.6692   -1.8122    1.2815 H   0  0  0  0  0  0  0  0  0  0  0  0
    1.6212   -0.3257    1.3578 H   0  0  0  0  0  0  0  0  0  0  0  0
    0.1249   -0.4909    2.8932 C   0  0  0  0  0  0  0  0  0  0  0  0
    0.0833    0.5797    3.0937 H   0  0  0  0  0  0  0  0  0  0  0  0
   -0.8722   -0.9143    3.0084 H   0  0  0  0  0  0  0  0  0  0  0  0
    1.0361   -1.1356    3.9327 C   0  0  0  0  0  0  0  0  0  0  0  0
    1.9727   -1.8764    3.6800 O   0  0  0  0  0  0  0  0  0  0  0  0
    0.7452   -0.8502    5.2155 O   0  0  0  0  0  0  0  0  0  0  0  0
    1.3908   -1.3343    5.7332 H   0  0  0  0  0  0  0  0  0  0  0  0
    0.3423   -0.1790   -1.0263 C   0  0  0  0  0  0  0  0  0  0  0  0
    1.4262    0.3635   -1.2326 O   0  0  0  0  0  0  0  0  0  0  0  0
   -0.3357   -0.8243   -1.9831 N   0  0  0  0  0  0  0  0  0  0  0  0
   -1.2087   -1.2644   -1.7332 H   0  0  0  0  0  0  0  0  0  0  0  0
    0.1223   -0.9496   -3.3653 C   0  0  0  0  0  0  0  0  0  0  0  0
    1.1063   -1.4216   -3.3870 H   0  0  0  0  0  0  0  0  0  0  0  0
   -0.5780   -1.5542   -3.9433 H   0  0  0  0  0  0  0  0  0  0  0  0
    0.2030    0.0406   -3.8181 H   0  0  0  0  0  0  0  0  0  0  0  0
  5  6  2  0  0  0  0
  5  7  1  0  0  0  0
  2  3  1  0  0  0  0
  2  4  1  0  0  0  0
  2  5  1  0  0  0  0
  1  2  1  0  0  0  0
 21 22  2  0  0  0  0
 21 23  1  0  0  0  0
 19 20  1  0  0  0  0
 17 18  2  0  0  0  0
 17 19  1  0  0  0  0
 14 15  1  0  0  0  0
 14 16  1  0  0  0  0
 14 17  1  0  0  0  0
 11 12  1  0  0  0  0
 11 13  1  0  0  0  0
 11 14  1  0  0  0  0
  9 10  1  0  0  0  0
  9 11  1  0  0  0  0
  9 21  1  0  0  0  0
  7  8  1  0  0  0  0
  7  9  1  0  0  0  0
 25 26  1  0  0  0  0
 25 27  1  0  0  0  0
 25 28  1  0  0  0  0
 23 24  1  0  0  0  0
 23 25  1  0  0  0  0
M  END
$$$$
default_name
  -OEChem-01062215323D

 28 27  0     1  0  0  0  0  0999 V2000
   -3.2133   -3.5565    1.2809 H   0  0  0  0  0  0  0  0  0  0  0  0
   -3.1873   -2.5755    0.8089 C   0  0  0  0  0  0  0  0  0  0  0  0
   -3.8793   -1.9065    1.3169 H   0  0  0  0  0  0  0  0  0  0  0  0
   -3.4623   -2.6685   -0.2401 H   0  0  0  0  0  0  0  0  0  0  0  0
   -1.7863   -2.0195    0.9119 C   0  0  0  0  0  0  0  0  0  0  0  0
   -0.9073   -2.6615    1.4699 O   0  0  0  0  0  0  0  0  0  0  0  0
   -1.5803   -0.8195    0.3749 N   0  0  0  0  0  0  0  0  0  0  0  0
   -2.3603   -0.3345   -0.0451 H   0  0  0  0  0  0  0  0  0  0  0  0
   -0.2933   -0.1205    0.3719 C   0  0  1  0  0  0  0  0  0  0  0  0
   -0.4646    0.9275    0.6217 H   0  0  0  0  0  0  0  0  0  0  0  0
    0.6151   -0.7362    1.4557 C   0  0  0  0  0  0  0  0  0  0  0  0
    0.6692   -1.8122    1.2815 H   0  0  0  0  0  0  0  0  0  0  0  0
    1.6212   -0.3257    1.3578 H   0  0  0  0  0  0  0  0  0  0  0  0
    0.1249   -0.4909    2.8932 C   0  0  0  0  0  0  0  0  0  0  0  0
    0.0833    0.5797    3.0937 H   0  0  0  0  0  0  0  0  0  0  0  0
   -0.8722   -0.9143    3.0084 H   0  0  0  0  0  0  0  0  0  0  0  0
    1.0361   -1.1356    3.9327 C   0  0  0  0  0  0  0  0  0  0  0  0
    1.9727   -1.8764    3.6800 O   0  0  0  0  0  0  0  0  0  0  0  0
    0.7452   -0.8502    5.2155 O   0  0  0  0  0  0  0  0  0  0  0  0
    1.3908   -1.3343    5.7332 H   0  0  0  0  0  0  0  0  0  0  0  0
    0.3423   -0.1790   -1.0263 C   0  0  0  0  0  0  0  0  0  0  0  0
    1.5277    0.1111   -1.1759 O   0  0  0  0  0  0  0  0  0  0  0  0
   -0.4465   -0.5411   -2.0453 N   0  0  0  0  0  0  0  0  0  0  0  0
   -1.4038   -0.7867   -1.8419 H   0  0  0  0  0  0  0  0  0  0  0  0
    0.0006   -0.6239   -3.4343 C   0  0  0  0  0  0  0  0  0  0  0  0
    0.8464   -1.3097   -3.5098 H   0  0  0  0  0  0  0  0  0  0  0  0
   -0.8089   -0.9815   -4.0723 H   0  0  0  0  0  0  0  0  0  0  0  0
    0.3218    0.3614   -3.7775 H   0  0  0  0  0  0  0  0  0  0  0  0
  5  6  2  0  0  0  0
  5  7  1  0  0  0  0
  2  3  1  0  0  0  0
  2  4  1  0  0  0  0
  2  5  1  0  0  0  0
  1  2  1  0  0  0  0
 21 22  2  0  0  0  0
 21 23  1  0  0  0  0
 19 20  1  0  0  0  0
 17 18  2  0  0  0  0
 17 19  1  0  0  0  0
 14 15  1  0  0  0  0
 14 16  1  0  0  0  0
 14 17  1  0  0  0  0
 11 12  1  0  0  0  0
 11 13  1  0  0  0  0
 11 14  1  0  0  0  0
  9 10  1  0  0  0  0
  9 11  1  0  0  0  0
  9 21  1  0  0  0  0
  7  8  1  0  0  0  0
  7  9  1  0  0  0  0
 25 26  1  0  0  0  0
 25 27  1  0  0  0  0
 25 28  1  0  0  0  0
 23 24  1  0  0  0  0
 23 25  1  0  0  0  0
M  END
$$$$
default_name
  -OEChem-01062215323D

 28 27  0     1  0  0  0  0  0999 V2000
   -3.2133   -3.5565    1.2809 H   0  0  0  0  0  0  0  0  0  0  0  0
   -3.1873   -2.5755    0.8089 C   0  0  0  0  0  0  0  0  0  0  0  0
   -3.8793   -1.9065    1.3169 H   0  0  0  0  0  0  0  0  0  0  0  0
   -3.4623   -2.6685   -0.2401 H   0  0  0  0  0  0  0  0  0  0  0  0
   -1.7863   -2.0195    0.9119 C   0  0  0  0  0  0  0  0  0  0  0  0
   -0.9073   -2.6615    1.4699 O   0  0  0  0  0  0  0  0  0  0  0  0
   -1.5803   -0.8195    0.3749 N   0  0  0  0  0  0  0  0  0  0  0  0
   -2.3603   -0.3345   -0.0451 H   0  0  0  0  0  0  0  0  0  0  0  0
   -0.2933   -0.1205    0.3719 C   0  0  1  0  0  0  0  0  0  0  0  0
   -0.4646    0.9275    0.6217 H   0  0  0  0  0  0  0  0  0  0  0  0
    0.6151   -0.7362    1.4557 C   0  0  0  0  0  0  0  0  0  0  0  0
    0.6692   -1.8122    1.2815 H   0  0  0  0  0  0  0  0  0  0  0  0
    1.6212   -0.3257    1.3578 H   0  0  0  0  0  0  0  0  0  0  0  0
    0.1249   -0.4909    2.8932 C   0  0  0  0  0  0  0  0  0  0  0  0
    0.0833    0.5797    3.0937 H   0  0  0  0  0  0  0  0  0  0  0  0
   -0.8722   -0.9143    3.0084 H   0  0  0  0  0  0  0  0  0  0  0  0
    1.0361   -1.1356    3.9327 C   0  0  0  0  0  0  0  0  0  0  0  0
    1.9727   -1.8764    3.6800 O   0  0  0  0  0  0  0  0  0  0  0  0
    0.7452   -0.8502    5.2155 O   0  0  0  0  0  0  0  0  0  0  0  0
    1.3908   -1.3343    5.7332 H   0  0  0  0  0  0  0  0  0  0  0  0
    0.3423   -0.1790   -1.0263 C   0  0  0  0  0  0  0  0  0  0  0  0
    1.5657   -0.1627   -1.1472 O   0  0  0  0  0  0  0  0  0  0  0  0
   -0.4861   -0.2348   -2.0762 N   0  0  0  0  0  0  0  0  0  0  0  0
   -1.4787   -0.2676   -1.8977 H   0  0  0  0  0  0  0  0  0  0  0  0
   -0.0397   -0.2733   -3.4673 C   0  0  0  0  0  0  0  0  0  0  0  0
    0.6228   -1.1274   -3.6191 H   0  0  0  0  0  0  0  0  0  0  0  0
   -0.8958   -0.3601   -4.1378 H   0  0  0  0  0  0  0  0  0  0  0  0
    0.5117    0.6391   -3.7028 H   0  0  0  0  0  0  0  0  0  0  0  0
  5  6  2  0  0  0  0
  5  7  1  0  0  0  0
  2  3  1  0  0  0  0
  2  4  1  0  0  0  0
  2  5  1  0  0  0  0
  1  2  1  0  0  0  0
 21 22  2  0  0  0  0
 21 23  1  0  0  0  0
 19 20  1  0  0  0  0
 17 18  2  0  0  0  0
 17 19  1  0  0  0  0
 14 15  1  0  0  0  0
 14 16  1  0  0  0  0
 14 17  1  0  0  0  0
 11 12  1  0  0  0  0
 11 13  1  0  0  0  0
 11 14  1  0  0  0  0
  9 10  1  0  0  0  0
  9 11  1  0  0  0  0
  9 21  1  0  0  0  0
  7  8  1  0  0  0  0
  7  9  1  0  0  0  0
 25 26  1  0  0  0  0
 25 27  1  0  0  0  0
 25 28  1  0  0  0  0
 23 24  1  0  0  0  0
 23 25  1  0  0  0  0
M  END
$$$$
default_name
  -OEChem-01062215323D

 28 27  0     1  0  0  0  0  0999 V2000
   -3.2133   -3.5565    1.2809 H   0  0  0  0  0  0  0  0  0  0  0  0
   -3.1873   -2.5755    0.8089 C   0  0  0  0  0  0  0  0  0  0  0  0
   -3.8793   -1.9065    1.3169 H   0  0  0  0  0  0  0  0  0  0  0  0
   -3.4623   -2.6685   -0.2401 H   0  0  0  0  0  0  0  0  0  0  0  0
   -1.7863   -2.0195    0.9119 C   0  0  0  0  0  0  0  0  0  0  0  0
   -0.9073   -2.6615    1.4699 O   0  0  0  0  0  0  0  0  0  0  0  0
   -1.5803   -0.8195    0.3749 N   0  0  0  0  0  0  0  0  0  0  0  0
   -2.3603   -0.3345   -0.0451 H   0  0  0  0  0  0  0  0  0  0  0  0
   -0.2933   -0.1205    0.3719 C   0  0  1  0  0  0  0  0  0  0  0  0
   -0.4646    0.9275    0.6217 H   0  0  0  0  0  0  0  0  0  0  0  0
    0.6151   -0.7362    1.4557 C   0  0  0  0  0  0  0  0  0  0  0  0
    0.6692   -1.8122    1.2815 H   0  0  0  0  0  0  0  0  0  0  0  0
    1.6212   -0.3257    1.3578 H   0  0  0  0  0  0  0  0  0  0  0  0
    0.1249   -0.4909    2.8932 C   0  0  0  0  0  0  0  0  0  0  0  0
    0.0833    0.5797    3.0937 H   0  0  0  0  0  0  0  0  0  0  0  0
   -0.8722   -0.9143    3.0084 H   0  0  0  0  0  0  0  0  0  0  0  0
    1.0361   -1.1356    3.9327 C   0  0  0  0  0  0  0  0  0  0  0  0
    1.9727   -1.8764    3.6800 O   0  0  0  0  0  0  0  0  0  0  0  0
    0.7452   -0.8502    5.2155 O   0  0  0  0  0  0  0  0  0  0  0  0
    1.3908   -1.3343    5.7332 H   0  0  0  0  0  0  0  0  0  0  0  0
    0.3423   -0.1790   -1.0263 C   0  0  0  0  0  0  0  0  0  0  0  0
    1.5377   -0.4392   -1.1483 O   0  0  0  0  0  0  0  0  0  0  0  0
   -0.4520    0.0737   -2.0736 N   0  0  0  0  0  0  0  0  0  0  0  0
   -1.4283    0.2574   -1.8968 H   0  0  0  0  0  0  0  0  0  0  0  0
    0.0043    0.0784   -3.4620 C   0  0  0  0  0  0  0  0  0  0  0  0
    0.4509   -0.8869   -3.7073 H   0  0  0  0  0  0  0  0  0  0  0  0
   -0.8329    0.2676   -4.1354 H   0  0  0  0  0  0  0  0  0  0  0  0
    0.7598    0.8545   -3.5991 H   0  0  0  0  0  0  0  0  0  0  0  0
  5  6  2  0  0  0  0
  5  7  1  0  0  0  0
  2  3  1  0  0  0  0
  2  4  1  0  0  0  0
  2  5  1  0  0  0  0
  1  2  1  0  0  0  0
 21 22  2  0  0  0  0
 21 23  1  0  0  0  0
 19 20  1  0  0  0  0
 17 18  2  0  0  0  0
 17 19  1  0  0  0  0
 14 15  1  0  0  0  0
 14 16  1  0  0  0  0
 14 17  1  0  0  0  0
 11 12  1  0  0  0  0
 11 13  1  0  0  0  0
 11 14  1  0  0  0  0
  9 10  1  0  0  0  0
  9 11  1  0  0  0  0
  9 21  1  0  0  0  0
  7  8  1  0  0  0  0
  7  9  1  0  0  0  0
 25 26  1  0  0  0  0
 25 27  1  0  0  0  0
 25 28  1  0  0  0  0
 23 24  1  0  0  0  0
 23 25  1  0  0  0  0
M  END
$$$$
default_name
  -OEChem-01062215323D

 28 27  0     1  0  0  0  0  0999 V2000
   -3.2133   -3.5565    1.2809 H   0  0  0  0  0  0  0  0  0  0  0  0
   -3.1873   -2.5755    0.8089 C   0  0  0  0  0  0  0  0  0  0  0  0
   -3.8793   -1.9065    1.3169 H   0  0  0  0  0  0  0  0  0  0  0  0
   -3.4623   -2.6685   -0.2401 H   0  0  0  0  0  0  0  0  0  0  0  0
   -1.7863   -2.0195    0.9119 C   0  0  0  0  0  0  0  0  0  0  0  0
   -0.9073   -2.6615    1.4699 O   0  0  0  0  0  0  0  0  0  0  0  0
   -1.5803   -0.8195    0.3749 N   0  0  0  0  0  0  0  0  0  0  0  0
   -2.3603   -0.3345   -0.0451 H   0  0  0  0  0  0  0  0  0  0  0  0
   -0.2933   -0.1205    0.3719 C   0  0  1  0  0  0  0  0  0  0  0  0
   -0.4646    0.9275    0.6217 H   0  0  0  0  0  0  0  0  0  0  0  0
    0.6151   -0.7362    1.4557 C   0  0  0  0  0  0  0  0  0  0  0  0
    0.6692   -1.8122    1.2815 H   0  0  0  0  0  0  0  0  0  0  0  0
    1.6212   -0.3257    1.3578 H   0  0  0  0  0  0  0  0  0  0  0  0
    0.1249   -0.4909    2.8932 C   0  0  0  0  0  0  0  0  0  0  0  0
    0.0833    0.5797    3.0937 H   0  0  0  0  0  0  0  0  0  0  0  0
   -0.8722   -0.9143    3.0084 H   0  0  0  0  0  0  0  0  0  0  0  0
    1.0361   -1.1356    3.9327 C   0  0  0  0  0  0  0  0  0  0  0  0
    1.9727   -1.8764    3.6800 O   0  0  0  0  0  0  0  0  0  0  0  0
    0.7452   -0.8502    5.2155 O   0  0  0  0  0  0  0  0  0  0  0  0
    1.3908   -1.3343    5.7332 H   0  0  0  0  0  0  0  0  0  0  0  0
    0.3423   -0.1790   -1.0263 C   0  0  0  0  0  0  0  0  0  0  0  0
    1.4456   -0.6996   -1.1793 O   0  0  0  0  0  0  0  0  0  0  0  0
   -0.3464    0.3634   -2.0377 N   0  0  0  0  0  0  0  0  0  0  0  0
   -1.2561    0.7525   -1.8392 H   0  0  0  0  0  0  0  0  0  0  0  0
    0.1295    0.4072   -3.4188 C   0  0  0  0  0  0  0  0  0  0  0  0
    0.3423   -0.6047   -3.7685 H   0  0  0  0  0  0  0  0  0  0  0  0
   -0.6242    0.8588   -4.0654 H   0  0  0  0  0  0  0  0  0  0  0  0
    1.0492    0.9931   -3.4734 H   0  0  0  0  0  0  0  0  0  0  0  0
  5  6  2  0  0  0  0
  5  7  1  0  0  0  0
  2  3  1  0  0  0  0
  2  4  1  0  0  0  0
  2  5  1  0  0  0  0
  1  2  1  0  0  0  0
 21 22  2  0  0  0  0
 21 23  1  0  0  0  0
 19 20  1  0  0  0  0
 17 18  2  0  0  0  0
 17 19  1  0  0  0  0
 14 15  1  0  0  0  0
 14 16  1  0  0  0  0
 14 17  1  0  0  0  0
 11 12  1  0  0  0  0
 11 13  1  0  0  0  0
 11 14  1  0  0  0  0
  9 10  1  0  0  0  0
  9 11  1  0  0  0  0
  9 21  1  0  0  0  0
  7  8  1  0  0  0  0
  7  9  1  0  0  0  0
 25 26  1  0  0  0  0
 25 27  1  0  0  0  0
 25 28  1  0  0  0  0
 23 24  1  0  0  0  0
 23 25  1  0  0  0  0
M  END
$$$$
default_name
  -OEChem-01062215323D

 28 27  0     1  0  0  0  0  0999 V2000
   -3.2133   -3.5565    1.2809 H   0  0  0  0  0  0  0  0  0  0  0  0
   -3.1873   -2.5755    0.8089 C   0  0  0  0  0  0  0  0  0  0  0  0
   -3.8793   -1.9065    1.3169 H   0  0  0  0  0  0  0  0  0  0  0  0
   -3.4623   -2.6685   -0.2401 H   0  0  0  0  0  0  0  0  0  0  0  0
   -1.7863   -2.0195    0.9119 C   0  0  0  0  0  0  0  0  0  0  0  0
   -0.9073   -2.6615    1.4699 O   0  0  0  0  0  0  0  0  0  0  0  0
   -1.5803   -0.8195    0.3749 N   0  0  0  0  0  0  0  0  0  0  0  0
   -2.3603   -0.3345   -0.0451 H   0  0  0  0  0  0  0  0  0  0  0  0
   -0.2933   -0.1205    0.3719 C   0  0  1  0  0  0  0  0  0  0  0  0
   -0.4646    0.9275    0.6217 H   0  0  0  0  0  0  0  0  0  0  0  0
    0.6151   -0.7362    1.4557 C   0  0  0  0  0  0  0  0  0  0  0  0
    0.6692   -1.8122    1.2815 H   0  0  0  0  0  0  0  0  0  0  0  0
    1.6212   -0.3257    1.3578 H   0  0  0  0  0  0  0  0  0  0  0  0
    0.1249   -0.4909    2.8932 C   0  0  0  0  0  0  0  0  0  0  0  0
    0.0833    0.5797    3.0937 H   0  0  0  0  0  0  0  0  0  0  0  0
   -0.8722   -0.9143    3.0084 H   0  0  0  0  0  0  0  0  0  0  0  0
    1.0361   -1.1356    3.9327 C   0  0  0  0  0  0  0  0  0  0  0  0
    1.9727   -1.8764    3.6800 O   0  0  0  0  0  0  0  0  0  0  0  0
    0.7452   -0.8502    5.2155 O   0  0  0  0  0  0  0  0  0  0  0  0
    1.3908   -1.3343    5.7332 H   0  0  0  0  0  0  0  0  0  0  0  0
    0.3423   -0.1790   -1.0263 C   0  0  0  0  0  0  0  0  0  0  0  0
    1.2956   -0.9260   -1.2380 O   0  0  0  0  0  0  0  0  0  0  0  0
   -0.1766    0.6146   -1.9711 N   0  0  0  0  0  0  0  0  0  0  0  0
   -0.9737    1.1840   -1.7289 H   0  0  0  0  0  0  0  0  0  0  0  0
    0.3275    0.6907   -3.3407 C   0  0  0  0  0  0  0  0  0  0  0  0
    0.3045   -0.3000   -3.7984 H   0  0  0  0  0  0  0  0  0  0  0  0
   -0.2842    1.3732   -3.9324 H   0  0  0  0  0  0  0  0  0  0  0  0
    1.3600    1.0454   -3.3342 H   0  0  0  0  0  0  0  0  0  0  0  0
  5  6  2  0  0  0  0
  5  7  1  0  0  0  0
  2  3  1  0  0  0  0
  2  4  1  0  0  0  0
  2  5  1  0  0  0  0
  1  2  1  0  0  0  0
 21 22  2  0  0  0  0
 21 23  1  0  0  0  0
 19 20  1  0  0  0  0
 17 18  2  0  0  0  0
 17 19  1  0  0  0  0
 14 15  1  0  0  0  0
 14 16  1  0  0  0  0
 14 17  1  0  0  0  0
 11 12  1  0  0  0  0
 11 13  1  0  0  0  0
 11 14  1  0  0  0  0
  9 10  1  0  0  0  0
  9 11  1  0  0  0  0
  9 21  1  0  0  0  0
  7  8  1  0  0  0  0
  7  9  1  0  0  0  0
 25 26  1  0  0  0  0
 25 27  1  0  0  0  0
 25 28  1  0  0  0  0
 23 24  1  0  0  0  0
 23 25  1  0  0  0  0
M  END
$$$$
default_name
  -OEChem-01062215323D

 28 27  0     1  0  0  0  0  0999 V2000
   -3.2133   -3.5565    1.2809 H   0  0  0  0  0  0  0  0  0  0  0  0
   -3.1873   -2.5755    0.8089 C   0  0  0  0  0  0  0  0  0  0  0  0
   -3.8793   -1.9065    1.3169 H   0  0  0  0  0  0  0  0  0  0  0  0
   -3.4623   -2.6685   -0.2401 H   0  0  0  0  0  0  0  0  0  0  0  0
   -1.7863   -2.0195    0.9119 C   0  0  0  0  0  0  0  0  0  0  0  0
   -0.9073   -2.6615    1.4699 O   0  0  0  0  0  0  0  0  0  0  0  0
   -1.5803   -0.8195    0.3749 N   0  0  0  0  0  0  0  0  0  0  0  0
   -2.3603   -0.3345   -0.0451 H   0  0  0  0  0  0  0  0  0  0  0  0
   -0.2933   -0.1205    0.3719 C   0  0  1  0  0  0  0  0  0  0  0  0
   -0.4646    0.9275    0.6217 H   0  0  0  0  0  0  0  0  0  0  0  0
    0.6151   -0.7362    1.4557 C   0  0  0  0  0  0  0  0  0  0  0  0
    0.6692   -1.8122    1.2815 H   0  0  0  0  0  0  0  0  0  0  0  0
    1.6212   -0.3257    1.3578 H   0  0  0  0  0  0  0  0  0  0  0  0
    0.1249   -0.4909    2.8932 C   0  0  0  0  0  0  0  0  0  0  0  0
    0.0833    0.5797    3.0937 H   0  0  0  0  0  0  0  0  0  0  0  0
   -0.8722   -0.9143    3.0084 H   0  0  0  0  0  0  0  0  0  0  0  0
    1.0361   -1.1356    3.9327 C   0  0  0  0  0  0  0  0  0  0  0  0
    1.9727   -1.8764    3.6800 O   0  0  0  0  0  0  0  0  0  0  0  0
    0.7452   -0.8502    5.2155 O   0  0  0  0  0  0  0  0  0  0  0  0
    1.3908   -1.3343    5.7332 H   0  0  0  0  0  0  0  0  0  0  0  0
    0.3423   -0.1790   -1.0263 C   0  0  0  0  0  0  0  0  0  0  0  0
    1.0980   -1.1032   -1.3204 O   0  0  0  0  0  0  0  0  0  0  0  0
    0.0459    0.8100   -1.8781 N   0  0  0  0  0  0  0  0  0  0  0  0
   -0.6004    1.5226   -1.5734 H   0  0  0  0  0  0  0  0  0  0  0  0
    0.5847    0.9095   -3.2330 C   0  0  0  0  0  0  0  0  0  0  0  0
    0.3401    0.0064   -3.7951 H   0  0  0  0  0  0  0  0  0  0  0  0
    0.1640    1.7758   -3.7455 H   0  0  0  0  0  0  0  0  0  0  0  0
    1.6713    1.0079   -3.1912 H   0  0  0  0  0  0  0  0  0  0  0  0
  5  6  2  0  0  0  0
  5  7  1  0  0  0  0
  2  3  1  0  0  0  0
  2  4  1  0  0  0  0
  2  5  1  0  0  0  0
  1  2  1  0  0  0  0
 21 22  2  0  0  0  0
 21 23  1  0  0  0  0
 19 20  1  0  0  0  0
 17 18  2  0  0  0  0
 17 19  1  0  0  0  0
 14 15  1  0  0  0  0
 14 16  1  0  0  0  0
 14 17  1  0  0  0  0
 11 12  1  0  0  0  0
 11 13  1  0  0  0  0
 11 14  1  0  0  0  0
  9 10  1  0  0  0  0
  9 11  1  0  0  0  0
  9 21  1  0  0  0  0
  7  8  1  0  0  0  0
  7  9  1  0  0  0  0
 25 26  1  0  0  0  0
 25 27  1  0  0  0  0
 25 28  1  0  0  0  0
 23 24  1  0  0  0  0
 23 25  1  0  0  0  0
M  END
$$$$
default_name
  -OEChem-01062215323D

 28 27  0     1  0  0  0  0  0999 V2000
   -3.2133   -3.5565    1.2809 H   0  0  0  0  0  0  0  0  0  0  0  0
   -3.1873   -2.5755    0.8089 C   0  0  0  0  0  0  0  0  0  0  0  0
   -3.8793   -1.9065    1.3169 H   0  0  0  0  0  0  0  0  0  0  0  0
   -3.4623   -2.6685   -0.2401 H   0  0  0  0  0  0  0  0  0  0  0  0
   -1.7863   -2.0195    0.9119 C   0  0  0  0  0  0  0  0  0  0  0  0
   -0.9073   -2.6615    1.4699 O   0  0  0  0  0  0  0  0  0  0  0  0
   -1.5803   -0.8195    0.3749 N   0  0  0  0  0  0  0  0  0  0  0  0
   -2.3603   -0.3345   -0.0451 H   0  0  0  0  0  0  0  0  0  0  0  0
   -0.2933   -0.1205    0.3719 C   0  0  1  0  0  0  0  0  0  0  0  0
   -0.4646    0.9275    0.6217 H   0  0  0  0  0  0  0  0  0  0  0  0
    0.6151   -0.7362    1.4557 C   0  0  0  0  0  0  0  0  0  0  0  0
    0.6692   -1.8122    1.2815 H   0  0  0  0  0  0  0  0  0  0  0  0
    1.6212   -0.3257    1.3578 H   0  0  0  0  0  0  0  0  0  0  0  0
    0.1249   -0.4909    2.8932 C   0  0  0  0  0  0  0  0  0  0  0  0
    0.0833    0.5797    3.0937 H   0  0  0  0  0  0  0  0  0  0  0  0
   -0.8722   -0.9143    3.0084 H   0  0  0  0  0  0  0  0  0  0  0  0
    1.0361   -1.1356    3.9327 C   0  0  0  0  0  0  0  0  0  0  0  0
    1.9727   -1.8764    3.6800 O   0  0  0  0  0  0  0  0  0  0  0  0
    0.7452   -0.8502    5.2155 O   0  0  0  0  0  0  0  0  0  0  0  0
    1.3908   -1.3343    5.7332 H   0  0  0  0  0  0  0  0  0  0  0  0
    0.3423   -0.1790   -1.0263 C   0  0  0  0  0  0  0  0  0  0  0  0
    0.8662   -1.2190   -1.4209 O   0  0  0  0  0  0  0  0  0  0  0  0
    0.3059    0.9365   -1.7652 N   0  0  0  0  0  0  0  0  0  0  0  0
   -0.1616    1.7450   -1.3833 H   0  0  0  0  0  0  0  0  0  0  0  0
    0.8836    1.0488   -3.1029 C   0  0  0  0  0  0  0  0  0  0  0  0
    0.4465    0.2937   -3.7587 H   0  0  0  0  0  0  0  0  0  0  0  0
    0.6899    2.0392   -3.5175 H   0  0  0  0  0  0  0  0  0  0  0  0
    1.9616    0.8830   -3.0540 H   0  0  0  0  0  0  0  0  0  0  0  0
  5  6  2  0  0  0  0
  5  7  1  0  0  0  0
  2  3  1  0  0  0  0
  2  4  1  0  0  0  0
  2  5  1  0  0  0  0
  1  2  1  0  0  0  0
 21 22  2  0  0  0  0
 21 23  1  0  0  0  0
 19 20  1  0  0  0  0
 17 18  2  0  0  0  0
 17 19  1  0  0  0  0
 14 15  1  0  0  0  0
 14 16  1  0  0  0  0
 14 17  1  0  0  0  0
 11 12  1  0  0  0  0
 11 13  1  0  0  0  0
 11 14  1  0  0  0  0
  9 10  1  0  0  0  0
  9 11  1  0  0  0  0
  9 21  1  0  0  0  0
  7  8  1  0  0  0  0
  7  9  1  0  0  0  0
 25 26  1  0  0  0  0
 25 27  1  0  0  0  0
 25 28  1  0  0  0  0
 23 24  1  0  0  0  0
 23 25  1  0  0  0  0
M  END
$$$$
default_name
  -OEChem-01062215323D

 28 27  0     1  0  0  0  0  0999 V2000
   -3.2133   -3.5565    1.2809 H   0  0  0  0  0  0  0  0  0  0  0  0
   -3.1873   -2.5755    0.8089 C   0  0  0  0  0  0  0  0  0  0  0  0
   -3.8793   -1.9065    1.3169 H   0  0  0  0  0  0  0  0  0  0  0  0
   -3.4623   -2.6685   -0.2401 H   0  0  0  0  0  0  0  0  0  0  0  0
   -1.7863   -2.0195    0.9119 C   0  0  0  0  0  0  0  0  0  0  0  0
   -0.9073   -2.6615    1.4699 O   0  0  0  0  0  0  0  0  0  0  0  0
   -1.5803   -0.8195    0.3749 N   0  0  0  0  0  0  0  0  0  0  0  0
   -2.3603   -0.3345   -0.0451 H   0  0  0  0  0  0  0  0  0  0  0  0
   -0.2933   -0.1205    0.3719 C   0  0  1  0  0  0  0  0  0  0  0  0
   -0.4646    0.9275    0.6217 H   0  0  0  0  0  0  0  0  0  0  0  0
    0.6151   -0.7362    1.4557 C   0  0  0  0  0  0  0  0  0  0  0  0
    0.6692   -1.8122    1.2815 H   0  0  0  0  0  0  0  0  0  0  0  0
    1.6212   -0.3257    1.3578 H   0  0  0  0  0  0  0  0  0  0  0  0
    0.1249   -0.4909    2.8932 C   0  0  0  0  0  0  0  0  0  0  0  0
    0.0833    0.5797    3.0937 H   0  0  0  0  0  0  0  0  0  0  0  0
   -0.8722   -0.9143    3.0084 H   0  0  0  0  0  0  0  0  0  0  0  0
    1.0361   -1.1356    3.9327 C   0  0  0  0  0  0  0  0  0  0  0  0
    1.9727   -1.8764    3.6800 O   0  0  0  0  0  0  0  0  0  0  0  0
    0.7452   -0.8502    5.2155 O   0  0  0  0  0  0  0  0  0  0  0  0
    1.3908   -1.3343    5.7332 H   0  0  0  0  0  0  0  0  0  0  0  0
    0.3423   -0.1790   -1.0263 C   0  0  0  0  0  0  0  0  0  0  0  0
    0.6161   -1.2655   -1.5326 O   0  0  0  0  0  0  0  0  0  0  0  0
    0.5857    0.9853   -1.6401 N   0  0  0  0  0  0  0  0  0  0  0  0
    0.3127    1.8363   -1.1715 H   0  0  0  0  0  0  0  0  0  0  0  0
    1.2039    1.0991   -2.9595 C   0  0  0  0  0  0  0  0  0  0  0  0
    0.6165    0.5422   -3.6918 H   0  0  0  0  0  0  0  0  0  0  0  0
    1.2577    2.1453   -3.2638 H   0  0  0  0  0  0  0  0  0  0  0  0
    2.2114    0.6793   -2.9320 H   0  0  0  0  0  0  0  0  0  0  0  0
  5  6  2  0  0  0  0
  5  7  1  0  0  0  0
  2  3  1  0  0  0  0
  2  4  1  0  0  0  0
  2  5  1  0  0  0  0
  1  2  1  0  0  0  0
 21 22  2  0  0  0  0
 21 23  1  0  0  0  0
 19 20  1  0  0  0  0
 17 18  2  0  0  0  0
 17 19  1  0  0  0  0
 14 15  1  0  0  0  0
 14 16  1  0  0  0  0
 14 17  1  0  0  0  0
 11 12  1  0  0  0  0
 11 13  1  0  0  0  0
 11 14  1  0  0  0  0
  9 10  1  0  0  0  0
  9 11  1  0  0  0  0
  9 21  1  0  0  0  0
  7  8  1  0  0  0  0
  7  9  1  0  0  0  0
 25 26  1  0  0  0  0
 25 27  1  0  0  0  0
 25 28  1  0  0  0  0
 23 24  1  0  0  0  0
 23 25  1  0  0  0  0
M  END
$$$$
default_name
  -OEChem-01062215323D

 28 27  0     1  0  0  0  0  0999 V2000
   -3.2133   -3.5565    1.2809 H   0  0  0  0  0  0  0  0  0  0  0  0
   -3.1873   -2.5755    0.8089 C   0  0  0  0  0  0  0  0  0  0  0  0
   -3.8793   -1.9065    1.3169 H   0  0  0  0  0  0  0  0  0  0  0  0
   -3.4623   -2.6685   -0.2401 H   0  0  0  0  0  0  0  0  0  0  0  0
   -1.7863   -2.0195    0.9119 C   0  0  0  0  0  0  0  0  0  0  0  0
   -0.9073   -2.6615    1.4699 O   0  0  0  0  0  0  0  0  0  0  0  0
   -1.5803   -0.8195    0.3749 N   0  0  0  0  0  0  0  0  0  0  0  0
   -2.3603   -0.3345   -0.0451 H   0  0  0  0  0  0  0  0  0  0  0  0
   -0.2933   -0.1205    0.3719 C   0  0  1  0  0  0  0  0  0  0  0  0
   -0.4646    0.9275    0.6217 H   0  0  0  0  0  0  0  0  0  0  0  0
    0.6151   -0.7362    1.4557 C   0  0  0  0  0  0  0  0  0  0  0  0
    0.6692   -1.8122    1.2815 H   0  0  0  0  0  0  0  0  0  0  0  0
    1.6212   -0.3257    1.3578 H   0  0  0  0  0  0  0  0  0  0  0  0
    0.1249   -0.4909    2.8932 C   0  0  0  0  0  0  0  0  0  0  0  0
    0.0833    0.5797    3.0937 H   0  0  0  0  0  0  0  0  0  0  0  0
   -0.8722   -0.9143    3.0084 H   0  0  0  0  0  0  0  0  0  0  0  0
    1.0361   -1.1356    3.9327 C   0  0  0  0  0  0  0  0  0  0  0  0
    1.9727   -1.8764    3.6800 O   0  0  0  0  0  0  0  0  0  0  0  0
    0.7452   -0.8502    5.2155 O   0  0  0  0  0  0  0  0  0  0  0  0
    1.3908   -1.3343    5.7332 H   0  0  0  0  0  0  0  0  0  0  0  0
    0.3423   -0.1790   -1.0263 C   0  0  0  0  0  0  0  0  0  0  0  0
    0.3646   -1.2395   -1.6480 O   0  0  0  0  0  0  0  0  0  0  0  0
    0.8663    0.9532   -1.5112 N   0  0  0  0  0  0  0  0  0  0  0  0
    0.7902    1.7900   -0.9525 H   0  0  0  0  0  0  0  0  0  0  0  0
    1.5236    1.0569   -2.8124 C   0  0  0  0  0  0  0  0  0  0  0  0
    0.8387    0.7351   -3.5990 H   0  0  0  0  0  0  0  0  0  0  0  0
    1.8286    2.0870   -3.0019 H   0  0  0  0  0  0  0  0  0  0  0  0
    2.4034    0.4107   -2.8334 H   0  0  0  0  0  0  0  0  0  0  0  0
  5  6  2  0  0  0  0
  5  7  1  0  0  0  0
  2  3  1  0  0  0  0
  2  4  1  0  0  0  0
  2  5  1  0  0  0  0
  1  2  1  0  0  0  0
 21 22  2  0  0  0  0
 21 23  1  0  0  0  0
 19 20  1  0  0  0  0
 17 18  2  0  0  0  0
 17 19  1  0  0  0  0
 14 15  1  0  0  0  0
 14 16  1  0  0  0  0
 14 17  1  0  0  0  0
 11 12  1  0  0  0  0
 11 13  1  0  0  0  0
 11 14  1  0  0  0  0
  9 10  1  0  0  0  0
  9 11  1  0  0  0  0
  9 21  1  0  0  0  0
  7  8  1  0  0  0  0
  7  9  1  0  0  0  0
 25 26  1  0  0  0  0
 25 27  1  0  0  0  0
 25 28  1  0  0  0  0
 23 24  1  0  0  0  0
 23 25  1  0  0  0  0
M  END
$$$$
default_name
  -OEChem-01062215323D

 28 27  0     1  0  0  0  0  0999 V2000
   -3.2133   -3.5565    1.2809 H   0  0  0  0  0  0  0  0  0  0  0  0
   -3.1873   -2.5755    0.8089 C   0  0  0  0  0  0  0  0  0  0  0  0
   -3.8793   -1.9065    1.3169 H   0  0  0  0  0  0  0  0  0  0  0  0
   -3.4623   -2.6685   -0.2401 H   0  0  0  0  0  0  0  0  0  0  0  0
   -1.7863   -2.0195    0.9119 C   0  0  0  0  0  0  0  0  0  0  0  0
   -0.9073   -2.6615    1.4699 O   0  0  0  0  0  0  0  0  0  0  0  0
   -1.5803   -0.8195    0.3749 N   0  0  0  0  0  0  0  0  0  0  0  0
   -2.3603   -0.3345   -0.0451 H   0  0  0  0  0  0  0  0  0  0  0  0
   -0.2933   -0.1205    0.3719 C   0  0  1  0  0  0  0  0  0  0  0  0
   -0.4646    0.9275    0.6217 H   0  0  0  0  0  0  0  0  0  0  0  0
    0.6151   -0.7362    1.4557 C   0  0  0  0  0  0  0  0  0  0  0  0
    0.6692   -1.8122    1.2815 H   0  0  0  0  0  0  0  0  0  0  0  0
    1.6212   -0.3257    1.3578 H   0  0  0  0  0  0  0  0  0  0  0  0
    0.1249   -0.4909    2.8932 C   0  0  0  0  0  0  0  0  0  0  0  0
    0.0833    0.5797    3.0937 H   0  0  0  0  0  0  0  0  0  0  0  0
   -0.8722   -0.9143    3.0084 H   0  0  0  0  0  0  0  0  0  0  0  0
    1.0361   -1.1356    3.9327 C   0  0  0  0  0  0  0  0  0  0  0  0
    1.9727   -1.8764    3.6800 O   0  0  0  0  0  0  0  0  0  0  0  0
    0.7452   -0.8502    5.2155 O   0  0  0  0  0  0  0  0  0  0  0  0
    1.3908   -1.3343    5.7332 H   0  0  0  0  0  0  0  0  0  0  0  0
    0.3423   -0.1790   -1.0263 C   0  0  0  0  0  0  0  0  0  0  0  0
    0.1290   -1.1429   -1.7592 O   0  0  0  0  0  0  0  0  0  0  0  0
    1.1284    0.8423   -1.3874 N   0  0  0  0  0  0  0  0  0  0  0  0
    1.2385    1.6095   -0.7412 H   0  0  0  0  0  0  0  0  0  0  0  0
    1.8211    0.9251   -2.6717 C   0  0  0  0  0  0  0  0  0  0  0  0
    1.0977    0.8592   -3.4864 H   0  0  0  0  0  0  0  0  0  0  0  0
    2.3637    1.8683   -2.7495 H   0  0  0  0  0  0  0  0  0  0  0  0
    2.5247    0.0955   -2.7651 H   0  0  0  0  0  0  0  0  0  0  0  0
  5  6  2  0  0  0  0
  5  7  1  0  0  0  0
  2  3  1  0  0  0  0
  2  4  1  0  0  0  0
  2  5  1  0  0  0  0
  1  2  1  0  0  0  0
 21 22  2  0  0  0  0
 21 23  1  0  0  0  0
 19 20  1  0  0  0  0
 17 18  2  0  0  0  0
 17 19  1  0  0  0  0
 14 15  1  0  0  0  0
 14 16  1  0  0  0  0
 14 17  1  0  0  0  0
 11 12  1  0  0  0  0
 11 13  1  0  0  0  0
 11 14  1  0  0  0  0
  9 10  1  0  0  0  0
  9 11  1  0  0  0  0
  9 21  1  0  0  0  0
  7  8  1  0  0  0  0
  7  9  1  0  0  0  0
 25 26  1  0  0  0  0
 25 27  1  0  0  0  0
 25 28  1  0  0  0  0
 23 24  1  0  0  0  0
 23 25  1  0  0  0  0
M  END
$$$$
default_name
  -OEChem-01062215323D

 28 27  0     1  0  0  0  0  0999 V2000
   -3.2133   -3.5565    1.2809 H   0  0  0  0  0  0  0  0  0  0  0  0
   -3.1873   -2.5755    0.8089 C   0  0  0  0  0  0  0  0  0  0  0  0
   -3.8793   -1.9065    1.3169 H   0  0  0  0  0  0  0  0  0  0  0  0
   -3.4623   -2.6685   -0.2401 H   0  0  0  0  0  0  0  0  0  0  0  0
   -1.7863   -2.0195    0.9119 C   0  0  0  0  0  0  0  0  0  0  0  0
   -0.9073   -2.6615    1.4699 O   0  0  0  0  0  0  0  0  0  0  0  0
   -1.5803   -0.8195    0.3749 N   0  0  0  0  0  0  0  0  0  0  0  0
   -2.3603   -0.3345   -0.0451 H   0  0  0  0  0  0  0  0  0  0  0  0
   -0.2933   -0.1205    0.3719 C   0  0  1  0  0  0  0  0  0  0  0  0
   -0.4646    0.9275    0.6217 H   0  0  0  0  0  0  0  0  0  0  0  0
    0.6151   -0.7362    1.4557 C   0  0  0  0  0  0  0  0  0  0  0  0
    0.6692   -1.8122    1.2815 H   0  0  0  0  0  0  0  0  0  0  0  0
    1.6212   -0.3257    1.3578 H   0  0  0  0  0  0  0  0  0  0  0  0
    0.1249   -0.4909    2.8932 C   0  0  0  0  0  0  0  0  0  0  0  0
    0.0833    0.5797    3.0937 H   0  0  0  0  0  0  0  0  0  0  0  0
   -0.8722   -0.9143    3.0084 H   0  0  0  0  0  0  0  0  0  0  0  0
    1.0361   -1.1356    3.9327 C   0  0  0  0  0  0  0  0  0  0  0  0
    1.9727   -1.8764    3.6800 O   0  0  0  0  0  0  0  0  0  0  0  0
    0.7452   -0.8502    5.2155 O   0  0  0  0  0  0  0  0  0  0  0  0
    1.3908   -1.3343    5.7332 H   0  0  0  0  0  0  0  0  0  0  0  0
    0.3423   -0.1790   -1.0263 C   0  0  0  0  0  0  0  0  0  0  0  0
   -0.0748   -0.9822   -1.8586 O   0  0  0  0  0  0  0  0  0  0  0  0
    1.3543    0.6603   -1.2771 N   0  0  0  0  0  0  0  0  0  0  0  0
    1.6268    1.3070   -0.5520 H   0  0  0  0  0  0  0  0  0  0  0  0
    2.0760    0.7127   -2.5469 C   0  0  0  0  0  0  0  0  0  0  0  0
    1.3761    0.9059   -3.3618 H   0  0  0  0  0  0  0  0  0  0  0  0
    2.8266    1.5040   -2.5238 H   0  0  0  0  0  0  0  0  0  0  0  0
    2.5670   -0.2448   -2.7316 H   0  0  0  0  0  0  0  0  0  0  0  0
  5  6  2  0  0  0  0
  5  7  1  0  0  0  0
  2  3  1  0  0  0  0
  2  4  1  0  0  0  0
  2  5  1  0  0  0  0
  1  2  1  0  0  0  0
 21 22  2  0  0  0  0
 21 23  1  0  0  0  0
 19 20  1  0  0  0  0
 17 18  2  0  0  0  0
 17 19  1  0  0  0  0
 14 15  1  0  0  0  0
 14 16  1  0  0  0  0
 14 17  1  0  0  0  0
 11 12  1  0  0  0  0
 11 13  1  0  0  0  0
 11 14  1  0  0  0  0
  9 10  1  0  0  0  0
  9 11  1  0  0  0  0
  9 21  1  0  0  0  0
  7  8  1  0  0  0  0
  7  9  1  0  0  0  0
 25 26  1  0  0  0  0
 25 27  1  0  0  0  0
 25 28  1  0  0  0  0
 23 24  1  0  0  0  0
 23 25  1  0  0  0  0
M  END
$$$$
default_name
  -OEChem-01062215323D

 28 27  0     1  0  0  0  0  0999 V2000
   -3.2133   -3.5565    1.2809 H   0  0  0  0  0  0  0  0  0  0  0  0
   -3.1873   -2.5755    0.8089 C   0  0  0  0  0  0  0  0  0  0  0  0
   -3.8793   -1.9065    1.3169 H   0  0  0  0  0  0  0  0  0  0  0  0
   -3.4623   -2.6685   -0.2401 H   0  0  0  0  0  0  0  0  0  0  0  0
   -1.7863   -2.0195    0.9119 C   0  0  0  0  0  0  0  0  0  0  0  0
   -0.9073   -2.6615    1.4699 O   0  0  0  0  0  0  0  0  0  0  0  0
   -1.5803   -0.8195    0.3749 N   0  0  0  0  0  0  0  0  0  0  0  0
   -2.3603   -0.3345   -0.0451 H   0  0  0  0  0  0  0  0  0  0  0  0
   -0.2933   -0.1205    0.3719 C   0  0  1  0  0  0  0  0  0  0  0  0
   -0.4169    0.8408    0.8727 H   0  0  0  0  0  0  0  0  0  0  0  0
    0.7328   -0.9540    1.1664 C   0  0  0  0  0  0  0  0  0  0  0  0
    0.7490   -1.9614    0.7468 H   0  0  0  0  0  0  0  0  0  0  0  0
    1.7250   -0.5182    1.0409 H   0  0  0  0  0  0  0  0  0  0  0  0
    0.4275   -1.0489    2.6714 C   0  0  0  0  0  0  0  0  0  0  0  0
    0.4268   -0.0526    3.1136 H   0  0  0  0  0  0  0  0  0  0  0  0
   -0.5539   -1.5011    2.8096 H   0  0  0  0  0  0  0  0  0  0  0  0
    1.4504   -1.9006    3.4162 C   0  0  0  0  0  0  0  0  0  0  0  0
    2.3375   -2.5515    2.8879 O   0  0  0  0  0  0  0  0  0  0  0  0
    1.3243   -1.9184    4.7562 O   0  0  0  0  0  0  0  0  0  0  0  0
    2.0217   -2.4987    5.0664 H   0  0  0  0  0  0  0  0  0  0  0  0
    0.1638    0.1493   -1.0705 C   0  0  0  0  0  0  0  0  0  0  0  0
   -0.5283   -0.2247   -2.0154 O   0  0  0  0  0  0  0  0  0  0  0  0
    1.3299    0.7851   -1.2370 N   0  0  0  0  0  0  0  0  0  0  0  0
    1.8318    1.0818   -0.4135 H   0  0  0  0  0  0  0  0  0  0  0  0
    1.9113    1.0960   -2.5413 C   0  0  0  0  0  0  0  0  0  0  0  0
    1.2091    1.6931   -3.1259 H   0  0  0  0  0  0  0  0  0  0  0  0
    2.8408    1.6538   -2.4187 H   0  0  0  0  0  0  0  0  0  0  0  0
    2.1149    0.1708   -3.0841 H   0  0  0  0  0  0  0  0  0  0  0  0
  5  6  2  0  0  0  0
  5  7  1  0  0  0  0
  2  3  1  0  0  0  0
  2  4  1  0  0  0  0
  2  5  1  0  0  0  0
  1  2  1  0  0  0  0
 21 22  2  0  0  0  0
 21 23  1  0  0  0  0
 19 20  1  0  0  0  0
 17 18  2  0  0  0  0
 17 19  1  0  0  0  0
 14 15  1  0  0  0  0
 14 16  1  0  0  0  0
 14 17  1  0  0  0  0
 11 12  1  0  0  0  0
 11 13  1  0  0  0  0
 11 14  1  0  0  0  0
  9 10  1  0  0  0  0
  9 11  1  0  0  0  0
  9 21  1  0  0  0  0
  7  8  1  0  0  0  0
  7  9  1  0  0  0  0
 25 26  1  0  0  0  0
 25 27  1  0  0  0  0
 25 28  1  0  0  0  0
 23 24  1  0  0  0  0
 23 25  1  0  0  0  0
M  END
$$$$
default_name
  -OEChem-01062215323D

 28 27  0     1  0  0  0  0  0999 V2000
   -3.2133   -3.5565    1.2809 H   0  0  0  0  0  0  0  0  0  0  0  0
   -3.1873   -2.5755    0.8089 C   0  0  0  0  0  0  0  0  0  0  0  0
   -3.8793   -1.9065    1.3169 H   0  0  0  0  0  0  0  0  0  0  0  0
   -3.4623   -2.6685   -0.2401 H   0  0  0  0  0  0  0  0  0  0  0  0
   -1.7863   -2.0195    0.9119 C   0  0  0  0  0  0  0  0  0  0  0  0
   -0.9073   -2.6615    1.4699 O   0  0  0  0  0  0  0  0  0  0  0  0
   -1.5803   -0.8195    0.3749 N   0  0  0  0  0  0  0  0  0  0  0  0
   -2.3603   -0.3345   -0.0451 H   0  0  0  0  0  0  0  0  0  0  0  0
   -0.2933   -0.1205    0.3719 C   0  0  1  0  0  0  0  0  0  0  0  0
   -0.4169    0.8408    0.8727 H   0  0  0  0  0  0  0  0  0  0  0  0
    0.7328   -0.9540    1.1664 C   0  0  0  0  0  0  0  0  0  0  0  0
    0.7490   -1.9614    0.7468 H   0  0  0  0  0  0  0  0  0  0  0  0
    1.7250   -0.5182    1.0409 H   0  0  0  0  0  0  0  0  0  0  0  0
    0.4275   -1.0489    2.6714 C   0  0  0  0  0  0  0  0  0  0  0  0
    0.4268   -0.0526    3.1136 H   0  0  0  0  0  0  0  0  0  0  0  0
   -0.5539   -1.5011    2.8096 H   0  0  0  0  0  0  0  0  0  0  0  0
    1.4504   -1.9006    3.4162 C   0  0  0  0  0  0  0  0  0  0  0  0
    2.3375   -2.5515    2.8879 O   0  0  0  0  0  0  0  0  0  0  0  0
    1.3243   -1.9184    4.7562 O   0  0  0  0  0  0  0  0  0  0  0  0
    2.0217   -2.4987    5.0664 H   0  0  0  0  0  0  0  0  0  0  0  0
    0.1638    0.1493   -1.0705 C   0  0  0  0  0  0  0  0  0  0  0  0
   -0.6323    0.0325   -2.0002 O   0  0  0  0  0  0  0  0  0  0  0  0
    1.4432    0.4967   -1.2550 N   0  0  0  0  0  0  0  0  0  0  0  0
    2.0317    0.5946   -0.4412 H   0  0  0  0  0  0  0  0  0  0  0  0
    2.0358    0.7649   -2.5638 C   0  0  0  0  0  0  0  0  0  0  0  0
    1.4805    1.5599   -3.0648 H   0  0  0  0  0  0  0  0  0  0  0  0
    3.0773    1.0700   -2.4529 H   0  0  0  0  0  0  0  0  0  0  0  0
    1.9873   -0.1340   -3.1816 H   0  0  0  0  0  0  0  0  0  0  0  0
  5  6  2  0  0  0  0
  5  7  1  0  0  0  0
  2  3  1  0  0  0  0
  2  4  1  0  0  0  0
  2  5  1  0  0  0  0
  1  2  1  0  0  0  0
 21 22  2  0  0  0  0
 21 23  1  0  0  0  0
 19 20  1  0  0  0  0
 17 18  2  0  0  0  0
 17 19  1  0  0  0  0
 14 15  1  0  0  0  0
 14 16  1  0  0  0  0
 14 17  1  0  0  0  0
 11 12  1  0  0  0  0
 11 13  1  0  0  0  0
 11 14  1  0  0  0  0
  9 10  1  0  0  0  0
  9 11  1  0  0  0  0
  9 21  1  0  0  0  0
  7  8  1  0  0  0  0
  7  9  1  0  0  0  0
 25 26  1  0  0  0  0
 25 27  1  0  0  0  0
 25 28  1  0  0  0  0
 23 24  1  0  0  0  0
 23 25  1  0  0  0  0
M  END
$$$$
default_name
  -OEChem-01062215323D

 28 27  0     1  0  0  0  0  0999 V2000
   -3.2133   -3.5565    1.2809 H   0  0  0  0  0  0  0  0  0  0  0  0
   -3.1873   -2.5755    0.8089 C   0  0  0  0  0  0  0  0  0  0  0  0
   -3.8793   -1.9065    1.3169 H   0  0  0  0  0  0  0  0  0  0  0  0
   -3.4623   -2.6685   -0.2401 H   0  0  0  0  0  0  0  0  0  0  0  0
   -1.7863   -2.0195    0.9119 C   0  0  0  0  0  0  0  0  0  0  0  0
   -0.9073   -2.6615    1.4699 O   0  0  0  0  0  0  0  0  0  0  0  0
   -1.5803   -0.8195    0.3749 N   0  0  0  0  0  0  0  0  0  0  0  0
   -2.3603   -0.3345   -0.0451 H   0  0  0  0  0  0  0  0  0  0  0  0
   -0.2933   -0.1205    0.3719 C   0  0  1  0  0  0  0  0  0  0  0  0
   -0.4169    0.8408    0.8727 H   0  0  0  0  0  0  0  0  0  0  0  0
    0.7328   -0.9540    1.1664 C   0  0  0  0  0  0  0  0  0  0  0  0
    0.7490   -1.9614    0.7468 H   0  0  0  0  0  0  0  0  0  0  0  0
    1.7250   -0.5182    1.0409 H   0  0  0  0  0  0  0  0  0  0  0  0
    0.4275   -1.0489    2.6714 C   0  0  0  0  0  0  0  0  0  0  0  0
    0.4268   -0.0526    3.1136 H   0  0  0  0  0  0  0  0  0  0  0  0
   -0.5539   -1.5011    2.8096 H   0  0  0  0  0  0  0  0  0  0  0  0
    1.4504   -1.9006    3.4162 C   0  0  0  0  0  0  0  0  0  0  0  0
    2.3375   -2.5515    2.8879 O   0  0  0  0  0  0  0  0  0  0  0  0
    1.3243   -1.9184    4.7562 O   0  0  0  0  0  0  0  0  0  0  0  0
    2.0217   -2.4987    5.0664 H   0  0  0  0  0  0  0  0  0  0  0  0
    0.1638    0.1493   -1.0705 C   0  0  0  0  0  0  0  0  0  0  0  0
   -0.6695    0.3051   -1.9610 O   0  0  0  0  0  0  0  0  0  0  0  0
    1.4819    0.1920   -1.2998 N   0  0  0  0  0  0  0  0  0  0  0  0
    2.1053    0.0776   -0.5146 H   0  0  0  0  0  0  0  0  0  0  0  0
    2.0747    0.4165   -2.6167 C   0  0  0  0  0  0  0  0  0  0  0  0
    1.7131    1.3605   -3.0284 H   0  0  0  0  0  0  0  0  0  0  0  0
    3.1624    0.4513   -2.5417 H   0  0  0  0  0  0  0  0  0  0  0  0
    1.7855   -0.3900   -3.2934 H   0  0  0  0  0  0  0  0  0  0  0  0
  5  6  2  0  0  0  0
  5  7  1  0  0  0  0
  2  3  1  0  0  0  0
  2  4  1  0  0  0  0
  2  5  1  0  0  0  0
  1  2  1  0  0  0  0
 21 22  2  0  0  0  0
 21 23  1  0  0  0  0
 19 20  1  0  0  0  0
 17 18  2  0  0  0  0
 17 19  1  0  0  0  0
 14 15  1  0  0  0  0
 14 16  1  0  0  0  0
 14 17  1  0  0  0  0
 11 12  1  0  0  0  0
 11 13  1  0  0  0  0
 11 14  1  0  0  0  0
  9 10  1  0  0  0  0
  9 11  1  0  0  0  0
  9 21  1  0  0  0  0
  7  8  1  0  0  0  0
  7  9  1  0  0  0  0
 25 26  1  0  0  0  0
 25 27  1  0  0  0  0
 25 28  1  0  0  0  0
 23 24  1  0  0  0  0
 23 25  1  0  0  0  0
M  END
$$$$
default_name
  -OEChem-01062215323D

 28 27  0     1  0  0  0  0  0999 V2000
   -3.2133   -3.5565    1.2809 H   0  0  0  0  0  0  0  0  0  0  0  0
   -3.1873   -2.5755    0.8089 C   0  0  0  0  0  0  0  0  0  0  0  0
   -3.8793   -1.9065    1.3169 H   0  0  0  0  0  0  0  0  0  0  0  0
   -3.4623   -2.6685   -0.2401 H   0  0  0  0  0  0  0  0  0  0  0  0
   -1.7863   -2.0195    0.9119 C   0  0  0  0  0  0  0  0  0  0  0  0
   -0.9073   -2.6615    1.4699 O   0  0  0  0  0  0  0  0  0  0  0  0
   -1.5803   -0.8195    0.3749 N   0  0  0  0  0  0  0  0  0  0  0  0
   -2.3603   -0.3345   -0.0451 H   0  0  0  0  0  0  0  0  0  0  0  0
   -0.2933   -0.1205    0.3719 C   0  0  1  0  0  0  0  0  0  0  0  0
   -0.4169    0.8408    0.8727 H   0  0  0  0  0  0  0  0  0  0  0  0
    0.7328   -0.9540    1.1664 C   0  0  0  0  0  0  0  0  0  0  0  0
    0.7490   -1.9614    0.7468 H   0  0  0  0  0  0  0  0  0  0  0  0
    1.7250   -0.5182    1.0409 H   0  0  0  0  0  0  0  0  0  0  0  0
    0.4275   -1.0489    2.6714 C   0  0  0  0  0  0  0  0  0  0  0  0
    0.4268   -0.0526    3.1136 H   0  0  0  0  0  0  0  0  0  0  0  0
   -0.5539   -1.5011    2.8096 H   0  0  0  0  0  0  0  0  0  0  0  0
    1.4504   -1.9006    3.4162 C   0  0  0  0  0  0  0  0  0  0  0  0
    2.3375   -2.5515    2.8879 O   0  0  0  0  0  0  0  0  0  0  0  0
    1.3243   -1.9184    4.7562 O   0  0  0  0  0  0  0  0  0  0  0  0
    2.0217   -2.4987    5.0664 H   0  0  0  0  0  0  0  0  0  0  0  0
    0.1638    0.1493   -1.0705 C   0  0  0  0  0  0  0  0  0  0  0  0
   -0.6375    0.5745   -1.9005 O   0  0  0  0  0  0  0  0  0  0  0  0
    1.4431   -0.1083   -1.3682 N   0  0  0  0  0  0  0  0  0  0  0  0
    2.0474   -0.4341   -0.6287 H   0  0  0  0  0  0  0  0  0  0  0  0
    2.0251    0.0746   -2.6963 C   0  0  0  0  0  0  0  0  0  0  0  0
    1.8910    1.1087   -3.0191 H   0  0  0  0  0  0  0  0  0  0  0  0
    3.0903   -0.1602   -2.6789 H   0  0  0  0  0  0  0  0  0  0  0  0
    1.5233   -0.5796   -3.4120 H   0  0  0  0  0  0  0  0  0  0  0  0
  5  6  2  0  0  0  0
  5  7  1  0  0  0  0
  2  3  1  0  0  0  0
  2  4  1  0  0  0  0
  2  5  1  0  0  0  0
  1  2  1  0  0  0  0
 21 22  2  0  0  0  0
 21 23  1  0  0  0  0
 19 20  1  0  0  0  0
 17 18  2  0  0  0  0
 17 19  1  0  0  0  0
 14 15  1  0  0  0  0
 14 16  1  0  0  0  0
 14 17  1  0  0  0  0
 11 12  1  0  0  0  0
 11 13  1  0  0  0  0
 11 14  1  0  0  0  0
  9 10  1  0  0  0  0
  9 11  1  0  0  0  0
  9 21  1  0  0  0  0
  7  8  1  0  0  0  0
  7  9  1  0  0  0  0
 25 26  1  0  0  0  0
 25 27  1  0  0  0  0
 25 28  1  0  0  0  0
 23 24  1  0  0  0  0
 23 25  1  0  0  0  0
M  END
$$$$
default_name
  -OEChem-01062215323D

 28 27  0     1  0  0  0  0  0999 V2000
   -3.2133   -3.5565    1.2809 H   0  0  0  0  0  0  0  0  0  0  0  0
   -3.1873   -2.5755    0.8089 C   0  0  0  0  0  0  0  0  0  0  0  0
   -3.8793   -1.9065    1.3169 H   0  0  0  0  0  0  0  0  0  0  0  0
   -3.4623   -2.6685   -0.2401 H   0  0  0  0  0  0  0  0  0  0  0  0
   -1.7863   -2.0195    0.9119 C   0  0  0  0  0  0  0  0  0  0  0  0
   -0.9073   -2.6615    1.4699 O   0  0  0  0  0  0  0  0  0  0  0  0
   -1.5803   -0.8195    0.3749 N   0  0  0  0  0  0  0  0  0  0  0  0
   -2.3603   -0.3345   -0.0451 H   0  0  0  0  0  0  0  0  0  0  0  0
   -0.2933   -0.1205    0.3719 C   0  0  1  0  0  0  0  0  0  0  0  0
   -0.4169    0.8408    0.8727 H   0  0  0  0  0  0  0  0  0  0  0  0
    0.7328   -0.9540    1.1664 C   0  0  0  0  0  0  0  0  0  0  0  0
    0.7490   -1.9614    0.7468 H   0  0  0  0  0  0  0  0  0  0  0  0
    1.7250   -0.5182    1.0409 H   0  0  0  0  0  0  0  0  0  0  0  0
    0.4275   -1.0489    2.6714 C   0  0  0  0  0  0  0  0  0  0  0  0
    0.4268   -0.0526    3.1136 H   0  0  0  0  0  0  0  0  0  0  0  0
   -0.5539   -1.5011    2.8096 H   0  0  0  0  0  0  0  0  0  0  0  0
    1.4504   -1.9006    3.4162 C   0  0  0  0  0  0  0  0  0  0  0  0
    2.3375   -2.5515    2.8879 O   0  0  0  0  0  0  0  0  0  0  0  0
    1.3243   -1.9184    4.7562 O   0  0  0  0  0  0  0  0  0  0  0  0
    2.0217   -2.4987    5.0664 H   0  0  0  0  0  0  0  0  0  0  0  0
    0.1638    0.1493   -1.0705 C   0  0  0  0  0  0  0  0  0  0  0  0
   -0.5384    0.8222   -1.8228 O   0  0  0  0  0  0  0  0  0  0  0  0
    1.3297   -0.3837   -1.4557 N   0  0  0  0  0  0  0  0  0  0  0  0
    1.8620   -0.9055   -0.7756 H   0  0  0  0  0  0  0  0  0  0  0  0
    1.8906   -0.2374   -2.7973 C   0  0  0  0  0  0  0  0  0  0  0  0
    2.0021    0.8215   -3.0376 H   0  0  0  0  0  0  0  0  0  0  0  0
    2.8659   -0.7228   -2.8552 H   0  0  0  0  0  0  0  0  0  0  0  0
    1.2186   -0.6899   -3.5291 H   0  0  0  0  0  0  0  0  0  0  0  0
  5  6  2  0  0  0  0
  5  7  1  0  0  0  0
  2  3  1  0  0  0  0
  2  4  1  0  0  0  0
  2  5  1  0  0  0  0
  1  2  1  0  0  0  0
 21 22  2  0  0  0  0
 21 23  1  0  0  0  0
 19 20  1  0  0  0  0
 17 18  2  0  0  0  0
 17 19  1  0  0  0  0
 14 15  1  0  0  0  0
 14 16  1  0  0  0  0
 14 17  1  0  0  0  0
 11 12  1  0  0  0  0
 11 13  1  0  0  0  0
 11 14  1  0  0  0  0
  9 10  1  0  0  0  0
  9 11  1  0  0  0  0
  9 21  1  0  0  0  0
  7  8  1  0  0  0  0
  7  9  1  0  0  0  0
 25 26  1  0  0  0  0
 25 27  1  0  0  0  0
 25 28  1  0  0  0  0
 23 24  1  0  0  0  0
 23 25  1  0  0  0  0
M  END
$$$$
default_name
  -OEChem-01062215323D

 28 27  0     1  0  0  0  0  0999 V2000
   -3.2133   -3.5565    1.2809 H   0  0  0  0  0  0  0  0  0  0  0  0
   -3.1873   -2.5755    0.8089 C   0  0  0  0  0  0  0  0  0  0  0  0
   -3.8793   -1.9065    1.3169 H   0  0  0  0  0  0  0  0  0  0  0  0
   -3.4623   -2.6685   -0.2401 H   0  0  0  0  0  0  0  0  0  0  0  0
   -1.7863   -2.0195    0.9119 C   0  0  0  0  0  0  0  0  0  0  0  0
   -0.9073   -2.6615    1.4699 O   0  0  0  0  0  0  0  0  0  0  0  0
   -1.5803   -0.8195    0.3749 N   0  0  0  0  0  0  0  0  0  0  0  0
   -2.3603   -0.3345   -0.0451 H   0  0  0  0  0  0  0  0  0  0  0  0
   -0.2933   -0.1205    0.3719 C   0  0  1  0  0  0  0  0  0  0  0  0
   -0.4169    0.8408    0.8727 H   0  0  0  0  0  0  0  0  0  0  0  0
    0.7328   -0.9540    1.1664 C   0  0  0  0  0  0  0  0  0  0  0  0
    0.7490   -1.9614    0.7468 H   0  0  0  0  0  0  0  0  0  0  0  0
    1.7250   -0.5182    1.0409 H   0  0  0  0  0  0  0  0  0  0  0  0
    0.4275   -1.0489    2.6714 C   0  0  0  0  0  0  0  0  0  0  0  0
    0.4268   -0.0526    3.1136 H   0  0  0  0  0  0  0  0  0  0  0  0
   -0.5539   -1.5011    2.8096 H   0  0  0  0  0  0  0  0  0  0  0  0
    1.4504   -1.9006    3.4162 C   0  0  0  0  0  0  0  0  0  0  0  0
    2.3375   -2.5515    2.8879 O   0  0  0  0  0  0  0  0  0  0  0  0
    1.3243   -1.9184    4.7562 O   0  0  0  0  0  0  0  0  0  0  0  0
    2.0217   -2.4987    5.0664 H   0  0  0  0  0  0  0  0  0  0  0  0
    0.1638    0.1493   -1.0705 C   0  0  0  0  0  0  0  0  0  0  0  0
   -0.3790    1.0314   -1.7331 O   0  0  0  0  0  0  0  0  0  0  0  0
    1.1492   -0.6153   -1.5562 N   0  0  0  0  0  0  0  0  0  0  0  0
    1.5618   -1.3044   -0.9454 H   0  0  0  0  0  0  0  0  0  0  0  0
    1.6804   -0.4984   -2.9127 C   0  0  0  0  0  0  0  0  0  0  0  0
    2.0388    0.5185   -3.0827 H   0  0  0  0  0  0  0  0  0  0  0  0
    2.5045   -1.1981   -3.0587 H   0  0  0  0  0  0  0  0  0  0  0  0
    0.8922   -0.7135   -3.6370 H   0  0  0  0  0  0  0  0  0  0  0  0
  5  6  2  0  0  0  0
  5  7  1  0  0  0  0
  2  3  1  0  0  0  0
  2  4  1  0  0  0  0
  2  5  1  0  0  0  0
  1  2  1  0  0  0  0
 21 22  2  0  0  0  0
 21 23  1  0  0  0  0
 19 20  1  0  0  0  0
 17 18  2  0  0  0  0
 17 19  1  0  0  0  0
 14 15  1  0  0  0  0
 14 16  1  0  0  0  0
 14 17  1  0  0  0  0
 11 12  1  0  0  0  0
 11 13  1  0  0  0  0
 11 14  1  0  0  0  0
  9 10  1  0  0  0  0
  9 11  1  0  0  0  0
  9 21  1  0  0  0  0
  7  8  1  0  0  0  0
  7  9  1  0  0  0  0
 25 26  1  0  0  0  0
 25 27  1  0  0  0  0
 25 28  1  0  0  0  0
 23 24  1  0  0  0  0
 23 25  1  0  0  0  0
M  END
$$$$
default_name
  -OEChem-01062215323D

 28 27  0     1  0  0  0  0  0999 V2000
   -3.2133   -3.5565    1.2809 H   0  0  0  0  0  0  0  0  0  0  0  0
   -3.1873   -2.5755    0.8089 C   0  0  0  0  0  0  0  0  0  0  0  0
   -3.8793   -1.9065    1.3169 H   0  0  0  0  0  0  0  0  0  0  0  0
   -3.4623   -2.6685   -0.2401 H   0  0  0  0  0  0  0  0  0  0  0  0
   -1.7863   -2.0195    0.9119 C   0  0  0  0  0  0  0  0  0  0  0  0
   -0.9073   -2.6615    1.4699 O   0  0  0  0  0  0  0  0  0  0  0  0
   -1.5803   -0.8195    0.3749 N   0  0  0  0  0  0  0  0  0  0  0  0
   -2.3603   -0.3345   -0.0451 H   0  0  0  0  0  0  0  0  0  0  0  0
   -0.2933   -0.1205    0.3719 C   0  0  1  0  0  0  0  0  0  0  0  0
   -0.4169    0.8408    0.8727 H   0  0  0  0  0  0  0  0  0  0  0  0
    0.7328   -0.9540    1.1664 C   0  0  0  0  0  0  0  0  0  0  0  0
    0.7490   -1.9614    0.7468 H   0  0  0  0  0  0  0  0  0  0  0  0
    1.7250   -0.5182    1.0409 H   0  0  0  0  0  0  0  0  0  0  0  0
    0.4275   -1.0489    2.6714 C   0  0  0  0  0  0  0  0  0  0  0  0
    0.4268   -0.0526    3.1136 H   0  0  0  0  0  0  0  0  0  0  0  0
   -0.5539   -1.5011    2.8096 H   0  0  0  0  0  0  0  0  0  0  0  0
    1.4504   -1.9006    3.4162 C   0  0  0  0  0  0  0  0  0  0  0  0
    2.3375   -2.5515    2.8879 O   0  0  0  0  0  0  0  0  0  0  0  0
    1.3243   -1.9184    4.7562 O   0  0  0  0  0  0  0  0  0  0  0  0
    2.0217   -2.4987    5.0664 H   0  0  0  0  0  0  0  0  0  0  0  0
    0.1638    0.1493   -1.0705 C   0  0  0  0  0  0  0  0  0  0  0  0
   -0.1701    1.1879   -1.6377 O   0  0  0  0  0  0  0  0  0  0  0  0
    0.9141   -0.7876   -1.6630 N   0  0  0  0  0  0  0  0  0  0  0  0
    1.1671   -1.6038   -1.1264 H   0  0  0  0  0  0  0  0  0  0  0  0
    1.4086   -0.6905   -3.0348 C   0  0  0  0  0  0  0  0  0  0  0  0
    1.9986    0.2204   -3.1512 H   0  0  0  0  0  0  0  0  0  0  0  0
    2.0307   -1.5538   -3.2754 H   0  0  0  0  0  0  0  0  0  0  0  0
    0.5663   -0.6486   -3.7282 H   0  0  0  0  0  0  0  0  0  0  0  0
  5  6  2  0  0  0  0
  5  7  1  0  0  0  0
  2  3  1  0  0  0  0
  2  4  1  0  0  0  0
  2  5  1  0  0  0  0
  1  2  1  0  0  0  0
 21 22  2  0  0  0  0
 21 23  1  0  0  0  0
 19 20  1  0  0  0  0
 17 18  2  0  0  0  0
 17 19  1  0  0  0  0
 14 15  1  0  0  0  0
 14 16  1  0  0  0  0
 14 17  1  0  0  0  0
 11 12  1  0  0  0  0
 11 13  1  0  0  0  0
 11 14  1  0  0  0  0
  9 10  1  0  0  0  0
  9 11  1  0  0  0  0
  9 21  1  0  0  0  0
  7  8  1  0  0  0  0
  7  9  1  0  0  0  0
 25 26  1  0  0  0  0
 25 27  1  0  0  0  0
 25 28  1  0  0  0  0
 23 24  1  0  0  0  0
 23 25  1  0  0  0  0
M  END
$$$$
default_name
  -OEChem-01062215323D

 28 27  0     1  0  0  0  0  0999 V2000
   -3.2133   -3.5565    1.2809 H   0  0  0  0  0  0  0  0  0  0  0  0
   -3.1873   -2.5755    0.8089 C   0  0  0  0  0  0  0  0  0  0  0  0
   -3.8793   -1.9065    1.3169 H   0  0  0  0  0  0  0  0  0  0  0  0
   -3.4623   -2.6685   -0.2401 H   0  0  0  0  0  0  0  0  0  0  0  0
   -1.7863   -2.0195    0.9119 C   0  0  0  0  0  0  0  0  0  0  0  0
   -0.9073   -2.6615    1.4699 O   0  0  0  0  0  0  0  0  0  0  0  0
   -1.5803   -0.8195    0.3749 N   0  0  0  0  0  0  0  0  0  0  0  0
   -2.3603   -0.3345   -0.0451 H   0  0  0  0  0  0  0  0  0  0  0  0
   -0.2933   -0.1205    0.3719 C   0  0  1  0  0  0  0  0  0  0  0  0
   -0.4169    0.8408    0.8727 H   0  0  0  0  0  0  0  0  0  0  0  0
    0.7328   -0.9540    1.1664 C   0  0  0  0  0  0  0  0  0  0  0  0
    0.7490   -1.9614    0.7468 H   0  0  0  0  0  0  0  0  0  0  0  0
    1.7250   -0.5182    1.0409 H   0  0  0  0  0  0  0  0  0  0  0  0
    0.4275   -1.0489    2.6714 C   0  0  0  0  0  0  0  0  0  0  0  0
    0.4268   -0.0526    3.1136 H   0  0  0  0  0  0  0  0  0  0  0  0
   -0.5539   -1.5011    2.8096 H   0  0  0  0  0  0  0  0  0  0  0  0
    1.4504   -1.9006    3.4162 C   0  0  0  0  0  0  0  0  0  0  0  0
    2.3375   -2.5515    2.8879 O   0  0  0  0  0  0  0  0  0  0  0  0
    1.3243   -1.9184    4.7562 O   0  0  0  0  0  0  0  0  0  0  0  0
    2.0217   -2.4987    5.0664 H   0  0  0  0  0  0  0  0  0  0  0  0
    0.1638    0.1493   -1.0705 C   0  0  0  0  0  0  0  0  0  0  0  0
    0.0740    1.2809   -1.5429 O   0  0  0  0  0  0  0  0  0  0  0  0
    0.6402   -0.8886   -1.7686 N   0  0  0  0  0  0  0  0  0  0  0  0
    0.7050   -1.7832   -1.3064 H   0  0  0  0  0  0  0  0  0  0  0  0
    1.0939   -0.8007   -3.1551 C   0  0  0  0  0  0  0  0  0  0  0  0
    1.8843   -0.0525   -3.2385 H   0  0  0  0  0  0  0  0  0  0  0  0
    1.4768   -1.7656   -3.4905 H   0  0  0  0  0  0  0  0  0  0  0  0
    0.2631   -0.4998   -3.7964 H   0  0  0  0  0  0  0  0  0  0  0  0
  5  6  2  0  0  0  0
  5  7  1  0  0  0  0
  2  3  1  0  0  0  0
  2  4  1  0  0  0  0
  2  5  1  0  0  0  0
  1  2  1  0  0  0  0
 21 22  2  0  0  0  0
 21 23  1  0  0  0  0
 19 20  1  0  0  0  0
 17 18  2  0  0  0  0
 17 19  1  0  0  0  0
 14 15  1  0  0  0  0
 14 16  1  0  0  0  0
 14 17  1  0  0  0  0
 11 12  1  0  0  0  0
 11 13  1  0  0  0  0
 11 14  1  0  0  0  0
  9 10  1  0  0  0  0
  9 11  1  0  0  0  0
  9 21  1  0  0  0  0
  7  8  1  0  0  0  0
  7  9  1  0  0  0  0
 25 26  1  0  0  0  0
 25 27  1  0  0  0  0
 25 28  1  0  0  0  0
 23 24  1  0  0  0  0
 23 25  1  0  0  0  0
M  END
$$$$
default_name
  -OEChem-01062215323D

 28 27  0     1  0  0  0  0  0999 V2000
   -3.2133   -3.5565    1.2809 H   0  0  0  0  0  0  0  0  0  0  0  0
   -3.1873   -2.5755    0.8089 C   0  0  0  0  0  0  0  0  0  0  0  0
   -3.8793   -1.9065    1.3169 H   0  0  0  0  0  0  0  0  0  0  0  0
   -3.4623   -2.6685   -0.2401 H   0  0  0  0  0  0  0  0  0  0  0  0
   -1.7863   -2.0195    0.9119 C   0  0  0  0  0  0  0  0  0  0  0  0
   -0.9073   -2.6615    1.4699 O   0  0  0  0  0  0  0  0  0  0  0  0
   -1.5803   -0.8195    0.3749 N   0  0  0  0  0  0  0  0  0  0  0  0
   -2.3603   -0.3345   -0.0451 H   0  0  0  0  0  0  0  0  0  0  0  0
   -0.2933   -0.1205    0.3719 C   0  0  1  0  0  0  0  0  0  0  0  0
   -0.4169    0.8408    0.8727 H   0  0  0  0  0  0  0  0  0  0  0  0
    0.7328   -0.9540    1.1664 C   0  0  0  0  0  0  0  0  0  0  0  0
    0.7490   -1.9614    0.7468 H   0  0  0  0  0  0  0  0  0  0  0  0
    1.7250   -0.5182    1.0409 H   0  0  0  0  0  0  0  0  0  0  0  0
    0.4275   -1.0489    2.6714 C   0  0  0  0  0  0  0  0  0  0  0  0
    0.4268   -0.0526    3.1136 H   0  0  0  0  0  0  0  0  0  0  0  0
   -0.5539   -1.5011    2.8096 H   0  0  0  0  0  0  0  0  0  0  0  0
    1.4504   -1.9006    3.4162 C   0  0  0  0  0  0  0  0  0  0  0  0
    2.3375   -2.5515    2.8879 O   0  0  0  0  0  0  0  0  0  0  0  0
    1.3243   -1.9184    4.7562 O   0  0  0  0  0  0  0  0  0  0  0  0
    2.0217   -2.4987    5.0664 H   0  0  0  0  0  0  0  0  0  0  0  0
    0.1638    0.1493   -1.0705 C   0  0  0  0  0  0  0  0  0  0  0  0
    0.3367    1.3042   -1.4553 O   0  0  0  0  0  0  0  0  0  0  0  0
    0.3464   -0.9115   -1.8660 N   0  0  0  0  0  0  0  0  0  0  0  0
    0.2069   -1.8304   -1.4731 H   0  0  0  0  0  0  0  0  0  0  0  0
    0.7577   -0.8214   -3.2656 C   0  0  0  0  0  0  0  0  0  0  0  0
    1.7036   -0.2816   -3.3386 H   0  0  0  0  0  0  0  0  0  0  0  0
    0.8806   -1.8190   -3.6895 H   0  0  0  0  0  0  0  0  0  0  0  0
    0.0033   -0.2772   -3.8371 H   0  0  0  0  0  0  0  0  0  0  0  0
  5  6  2  0  0  0  0
  5  7  1  0  0  0  0
  2  3  1  0  0  0  0
  2  4  1  0  0  0  0
  2  5  1  0  0  0  0
  1  2  1  0  0  0  0
 21 22  2  0  0  0  0
 21 23  1  0  0  0  0
 19 20  1  0  0  0  0
 17 18  2  0  0  0  0
 17 19  1  0  0  0  0
 14 15  1  0  0  0  0
 14 16  1  0  0  0  0
 14 17  1  0  0  0  0
 11 12  1  0  0  0  0
 11 13  1  0  0  0  0
 11 14  1  0  0  0  0
  9 10  1  0  0  0  0
  9 11  1  0  0  0  0
  9 21  1  0  0  0  0
  7  8  1  0  0  0  0
  7  9  1  0  0  0  0
 25 26  1  0  0  0  0
 25 27  1  0  0  0  0
 25 28  1  0  0  0  0
 23 24  1  0  0  0  0
 23 25  1  0  0  0  0
M  END
$$$$
default_name
  -OEChem-01062215323D

 28 27  0     1  0  0  0  0  0999 V2000
   -3.2133   -3.5565    1.2809 H   0  0  0  0  0  0  0  0  0  0  0  0
   -3.1873   -2.5755    0.8089 C   0  0  0  0  0  0  0  0  0  0  0  0
   -3.8793   -1.9065    1.3169 H   0  0  0  0  0  0  0  0  0  0  0  0
   -3.4623   -2.6685   -0.2401 H   0  0  0  0  0  0  0  0  0  0  0  0
   -1.7863   -2.0195    0.9119 C   0  0  0  0  0  0  0  0  0  0  0  0
   -0.9073   -2.6615    1.4699 O   0  0  0  0  0  0  0  0  0  0  0  0
   -1.5803   -0.8195    0.3749 N   0  0  0  0  0  0  0  0  0  0  0  0
   -2.3603   -0.3345   -0.0451 H   0  0  0  0  0  0  0  0  0  0  0  0
   -0.2933   -0.1205    0.3719 C   0  0  1  0  0  0  0  0  0  0  0  0
   -0.4169    0.8408    0.8727 H   0  0  0  0  0  0  0  0  0  0  0  0
    0.7328   -0.9540    1.1664 C   0  0  0  0  0  0  0  0  0  0  0  0
    0.7490   -1.9614    0.7468 H   0  0  0  0  0  0  0  0  0  0  0  0
    1.7250   -0.5182    1.0409 H   0  0  0  0  0  0  0  0  0  0  0  0
    0.4275   -1.0489    2.6714 C   0  0  0  0  0  0  0  0  0  0  0  0
    0.4268   -0.0526    3.1136 H   0  0  0  0  0  0  0  0  0  0  0  0
   -0.5539   -1.5011    2.8096 H   0  0  0  0  0  0  0  0  0  0  0  0
    1.4504   -1.9006    3.4162 C   0  0  0  0  0  0  0  0  0  0  0  0
    2.3375   -2.5515    2.8879 O   0  0  0  0  0  0  0  0  0  0  0  0
    1.3243   -1.9184    4.7562 O   0  0  0  0  0  0  0  0  0  0  0  0
    2.0217   -2.4987    5.0664 H   0  0  0  0  0  0  0  0  0  0  0  0
    0.1638    0.1493   -1.0705 C   0  0  0  0  0  0  0  0  0  0  0  0
    0.6001    1.2562   -1.3808 O   0  0  0  0  0  0  0  0  0  0  0  0
    0.0526   -0.8548   -1.9485 N   0  0  0  0  0  0  0  0  0  0  0  0
   -0.2933   -1.7422   -1.6151 H   0  0  0  0  0  0  0  0  0  0  0  0
    0.4229   -0.7512   -3.3585 C   0  0  0  0  0  0  0  0  0  0  0  0
    1.4688   -0.4513   -3.4447 H   0  0  0  0  0  0  0  0  0  0  0  0
    0.2827   -1.7106   -3.8587 H   0  0  0  0  0  0  0  0  0  0  0  0
   -0.1955    0.0041   -3.8475 H   0  0  0  0  0  0  0  0  0  0  0  0
  5  6  2  0  0  0  0
  5  7  1  0  0  0  0
  2  3  1  0  0  0  0
  2  4  1  0  0  0  0
  2  5  1  0  0  0  0
  1  2  1  0  0  0  0
 21 22  2  0  0  0  0
 21 23  1  0  0  0  0
 19 20  1  0  0  0  0
 17 18  2  0  0  0  0
 17 19  1  0  0  0  0
 14 15  1  0  0  0  0
 14 16  1  0  0  0  0
 14 17  1  0  0  0  0
 11 12  1  0  0  0  0
 11 13  1  0  0  0  0
 11 14  1  0  0  0  0
  9 10  1  0  0  0  0
  9 11  1  0  0  0  0
  9 21  1  0  0  0  0
  7  8  1  0  0  0  0
  7  9  1  0  0  0  0
 25 26  1  0  0  0  0
 25 27  1  0  0  0  0
 25 28  1  0  0  0  0
 23 24  1  0  0  0  0
 23 25  1  0  0  0  0
M  END
$$$$
default_name
  -OEChem-01062215323D

 28 27  0     1  0  0  0  0  0999 V2000
   -3.2133   -3.5565    1.2809 H   0  0  0  0  0  0  0  0  0  0  0  0
   -3.1873   -2.5755    0.8089 C   0  0  0  0  0  0  0  0  0  0  0  0
   -3.8793   -1.9065    1.3169 H   0  0  0  0  0  0  0  0  0  0  0  0
   -3.4623   -2.6685   -0.2401 H   0  0  0  0  0  0  0  0  0  0  0  0
   -1.7863   -2.0195    0.9119 C   0  0  0  0  0  0  0  0  0  0  0  0
   -0.9073   -2.6615    1.4699 O   0  0  0  0  0  0  0  0  0  0  0  0
   -1.5803   -0.8195    0.3749 N   0  0  0  0  0  0  0  0  0  0  0  0
   -2.3603   -0.3345   -0.0451 H   0  0  0  0  0  0  0  0  0  0  0  0
   -0.2933   -0.1205    0.3719 C   0  0  1  0  0  0  0  0  0  0  0  0
   -0.4169    0.8408    0.8727 H   0  0  0  0  0  0  0  0  0  0  0  0
    0.7328   -0.9540    1.1664 C   0  0  0  0  0  0  0  0  0  0  0  0
    0.7490   -1.9614    0.7468 H   0  0  0  0  0  0  0  0  0  0  0  0
    1.7250   -0.5182    1.0409 H   0  0  0  0  0  0  0  0  0  0  0  0
    0.4275   -1.0489    2.6714 C   0  0  0  0  0  0  0  0  0  0  0  0
    0.4268   -0.0526    3.1136 H   0  0  0  0  0  0  0  0  0  0  0  0
   -0.5539   -1.5011    2.8096 H   0  0  0  0  0  0  0  0  0  0  0  0
    1.4504   -1.9006    3.4162 C   0  0  0  0  0  0  0  0  0  0  0  0
    2.3375   -2.5515    2.8879 O   0  0  0  0  0  0  0  0  0  0  0  0
    1.3243   -1.9184    4.7562 O   0  0  0  0  0  0  0  0  0  0  0  0
    2.0217   -2.4987    5.0664 H   0  0  0  0  0  0  0  0  0  0  0  0
    0.1638    0.1493   -1.0705 C   0  0  0  0  0  0  0  0  0  0  0  0
    0.8462    1.1401   -1.3245 O   0  0  0  0  0  0  0  0  0  0  0  0
   -0.2212   -0.7223   -2.0105 N   0  0  0  0  0  0  0  0  0  0  0  0
   -0.7615   -1.5245   -1.7228 H   0  0  0  0  0  0  0  0  0  0  0  0
    0.1123   -0.5950   -3.4277 C   0  0  0  0  0  0  0  0  0  0  0  0
    1.1961   -0.5501   -3.5496 H   0  0  0  0  0  0  0  0  0  0  0  0
   -0.2762   -1.4475   -3.9866 H   0  0  0  0  0  0  0  0  0  0  0  0
   -0.3196    0.3249   -3.8268 H   0  0  0  0  0  0  0  0  0  0  0  0
  5  6  2  0  0  0  0
  5  7  1  0  0  0  0
  2  3  1  0  0  0  0
  2  4  1  0  0  0  0
  2  5  1  0  0  0  0
  1  2  1  0  0  0  0
 21 22  2  0  0  0  0
 21 23  1  0  0  0  0
 19 20  1  0  0  0  0
 17 18  2  0  0  0  0
 17 19  1  0  0  0  0
 14 15  1  0  0  0  0
 14 16  1  0  0  0  0
 14 17  1  0  0  0  0
 11 12  1  0  0  0  0
 11 13  1  0  0  0  0
 11 14  1  0  0  0  0
  9 10  1  0  0  0  0
  9 11  1  0  0  0  0
  9 21  1  0  0  0  0
  7  8  1  0  0  0  0
  7  9  1  0  0  0  0
 25 26  1  0  0  0  0
 25 27  1  0  0  0  0
 25 28  1  0  0  0  0
 23 24  1  0  0  0  0
 23 25  1  0  0  0  0
M  END
$$$$
default_name
  -OEChem-01062215323D

 28 27  0     1  0  0  0  0  0999 V2000
   -3.2133   -3.5565    1.2809 H   0  0  0  0  0  0  0  0  0  0  0  0
   -3.1873   -2.5755    0.8089 C   0  0  0  0  0  0  0  0  0  0  0  0
   -3.8793   -1.9065    1.3169 H   0  0  0  0  0  0  0  0  0  0  0  0
   -3.4623   -2.6685   -0.2401 H   0  0  0  0  0  0  0  0  0  0  0  0
   -1.7863   -2.0195    0.9119 C   0  0  0  0  0  0  0  0  0  0  0  0
   -0.9073   -2.6615    1.4699 O   0  0  0  0  0  0  0  0  0  0  0  0
   -1.5803   -0.8195    0.3749 N   0  0  0  0  0  0  0  0  0  0  0  0
   -2.3603   -0.3345   -0.0451 H   0  0  0  0  0  0  0  0  0  0  0  0
   -0.2933   -0.1205    0.3719 C   0  0  1  0  0  0  0  0  0  0  0  0
   -0.4169    0.8408    0.8727 H   0  0  0  0  0  0  0  0  0  0  0  0
    0.7328   -0.9540    1.1664 C   0  0  0  0  0  0  0  0  0  0  0  0
    0.7490   -1.9614    0.7468 H   0  0  0  0  0  0  0  0  0  0  0  0
    1.7250   -0.5182    1.0409 H   0  0  0  0  0  0  0  0  0  0  0  0
    0.4275   -1.0489    2.6714 C   0  0  0  0  0  0  0  0  0  0  0  0
    0.4268   -0.0526    3.1136 H   0  0  0  0  0  0  0  0  0  0  0  0
   -0.5539   -1.5011    2.8096 H   0  0  0  0  0  0  0  0  0  0  0  0
    1.4504   -1.9006    3.4162 C   0  0  0  0  0  0  0  0  0  0  0  0
    2.3375   -2.5515    2.8879 O   0  0  0  0  0  0  0  0  0  0  0  0
    1.3243   -1.9184    4.7562 O   0  0  0  0  0  0  0  0  0  0  0  0
    2.0217   -2.4987    5.0664 H   0  0  0  0  0  0  0  0  0  0  0  0
    0.1638    0.1493   -1.0705 C   0  0  0  0  0  0  0  0  0  0  0  0
    1.0583    0.9638   -1.2903 O   0  0  0  0  0  0  0  0  0  0  0  0
   -0.4562   -0.5231   -2.0477 N   0  0  0  0  0  0  0  0  0  0  0  0
   -1.1657   -1.1922   -1.7887 H   0  0  0  0  0  0  0  0  0  0  0  0
   -0.1529   -0.3633   -3.4685 C   0  0  0  0  0  0  0  0  0  0  0  0
    0.9038   -0.5711   -3.6462 H   0  0  0  0  0  0  0  0  0  0  0  0
   -0.7580   -1.0479   -4.0645 H   0  0  0  0  0  0  0  0  0  0  0  0
   -0.3606    0.6633   -3.7765 H   0  0  0  0  0  0  0  0  0  0  0  0
  5  6  2  0  0  0  0
  5  7  1  0  0  0  0
  2  3  1  0  0  0  0
  2  4  1  0  0  0  0
  2  5  1  0  0  0  0
  1  2  1  0  0  0  0
 21 22  2  0  0  0  0
 21 23  1  0  0  0  0
 19 20  1  0  0  0  0
 17 18  2  0  0  0  0
 17 19  1  0  0  0  0
 14 15  1  0  0  0  0
 14 16  1  0  0  0  0
 14 17  1  0  0  0  0
 11 12  1  0  0  0  0
 11 13  1  0  0  0  0
 11 14  1  0  0  0  0
  9 10  1  0  0  0  0
  9 11  1  0  0  0  0
  9 21  1  0  0  0  0
  7  8  1  0  0  0  0
  7  9  1  0  0  0  0
 25 26  1  0  0  0  0
 25 27  1  0  0  0  0
 25 28  1  0  0  0  0
 23 24  1  0  0  0  0
 23 25  1  0  0  0  0
M  END
$$$$
default_name
  -OEChem-01062215323D

 28 27  0     1  0  0  0  0  0999 V2000
   -3.2133   -3.5565    1.2809 H   0  0  0  0  0  0  0  0  0  0  0  0
   -3.1873   -2.5755    0.8089 C   0  0  0  0  0  0  0  0  0  0  0  0
   -3.8793   -1.9065    1.3169 H   0  0  0  0  0  0  0  0  0  0  0  0
   -3.4623   -2.6685   -0.2401 H   0  0  0  0  0  0  0  0  0  0  0  0
   -1.7863   -2.0195    0.9119 C   0  0  0  0  0  0  0  0  0  0  0  0
   -0.9073   -2.6615    1.4699 O   0  0  0  0  0  0  0  0  0  0  0  0
   -1.5803   -0.8195    0.3749 N   0  0  0  0  0  0  0  0  0  0  0  0
   -2.3603   -0.3345   -0.0451 H   0  0  0  0  0  0  0  0  0  0  0  0
   -0.2933   -0.1205    0.3719 C   0  0  1  0  0  0  0  0  0  0  0  0
   -0.4169    0.8408    0.8727 H   0  0  0  0  0  0  0  0  0  0  0  0
    0.7328   -0.9540    1.1664 C   0  0  0  0  0  0  0  0  0  0  0  0
    0.7490   -1.9614    0.7468 H   0  0  0  0  0  0  0  0  0  0  0  0
    1.7250   -0.5182    1.0409 H   0  0  0  0  0  0  0  0  0  0  0  0
    0.4275   -1.0489    2.6714 C   0  0  0  0  0  0  0  0  0  0  0  0
    0.4268   -0.0526    3.1136 H   0  0  0  0  0  0  0  0  0  0  0  0
   -0.5539   -1.5011    2.8096 H   0  0  0  0  0  0  0  0  0  0  0  0
    1.4504   -1.9006    3.4162 C   0  0  0  0  0  0  0  0  0  0  0  0
    2.3375   -2.5515    2.8879 O   0  0  0  0  0  0  0  0  0  0  0  0
    1.3243   -1.9184    4.7562 O   0  0  0  0  0  0  0  0  0  0  0  0
    2.0217   -2.4987    5.0664 H   0  0  0  0  0  0  0  0  0  0  0  0
    0.1638    0.1493   -1.0705 C   0  0  0  0  0  0  0  0  0  0  0  0
    1.2219    0.7394   -1.2804 O   0  0  0  0  0  0  0  0  0  0  0  0
   -0.6366   -0.2706   -2.0577 N   0  0  0  0  0  0  0  0  0  0  0  0
   -1.4784   -0.7680   -1.8085 H   0  0  0  0  0  0  0  0  0  0  0  0
   -0.3546   -0.0720   -3.4779 C   0  0  0  0  0  0  0  0  0  0  0  0
    0.6121   -0.5130   -3.7278 H   0  0  0  0  0  0  0  0  0  0  0  0
   -1.1299   -0.5388   -4.0871 H   0  0  0  0  0  0  0  0  0  0  0  0
   -0.3158    0.9963   -3.7000 H   0  0  0  0  0  0  0  0  0  0  0  0
  5  6  2  0  0  0  0
  5  7  1  0  0  0  0
  2  3  1  0  0  0  0
  2  4  1  0  0  0  0
  2  5  1  0  0  0  0
  1  2  1  0  0  0  0
 21 22  2  0  0  0  0
 21 23  1  0  0  0  0
 19 20  1  0  0  0  0
 17 18  2  0  0  0  0
 17 19  1  0  0  0  0
 14 15  1  0  0  0  0
 14 16  1  0  0  0  0
 14 17  1  0  0  0  0
 11 12  1  0  0  0  0
 11 13  1  0  0  0  0
 11 14  1  0  0  0  0
  9 10  1  0  0  0  0
  9 11  1  0  0  0  0
  9 21  1  0  0  0  0
  7  8  1  0  0  0  0
  7  9  1  0  0  0  0
 25 26  1  0  0  0  0
 25 27  1  0  0  0  0
 25 28  1  0  0  0  0
 23 24  1  0  0  0  0
 23 25  1  0  0  0  0
M  END
$$$$
default_name
  -OEChem-01062215323D

 28 27  0     1  0  0  0  0  0999 V2000
   -3.2133   -3.5565    1.2809 H   0  0  0  0  0  0  0  0  0  0  0  0
   -3.1873   -2.5755    0.8089 C   0  0  0  0  0  0  0  0  0  0  0  0
   -3.8793   -1.9065    1.3169 H   0  0  0  0  0  0  0  0  0  0  0  0
   -3.4623   -2.6685   -0.2401 H   0  0  0  0  0  0  0  0  0  0  0  0
   -1.7863   -2.0195    0.9119 C   0  0  0  0  0  0  0  0  0  0  0  0
   -0.9073   -2.6615    1.4699 O   0  0  0  0  0  0  0  0  0  0  0  0
   -1.5803   -0.8195    0.3749 N   0  0  0  0  0  0  0  0  0  0  0  0
   -2.3603   -0.3345   -0.0451 H   0  0  0  0  0  0  0  0  0  0  0  0
   -0.2933   -0.1205    0.3719 C   0  0  1  0  0  0  0  0  0  0  0  0
   -0.4169    0.8408    0.8727 H   0  0  0  0  0  0  0  0  0  0  0  0
    0.7328   -0.9540    1.1664 C   0  0  0  0  0  0  0  0  0  0  0  0
    0.7490   -1.9614    0.7468 H   0  0  0  0  0  0  0  0  0  0  0  0
    1.7250   -0.5182    1.0409 H   0  0  0  0  0  0  0  0  0  0  0  0
    0.4275   -1.0489    2.6714 C   0  0  0  0  0  0  0  0  0  0  0  0
    0.4268   -0.0526    3.1136 H   0  0  0  0  0  0  0  0  0  0  0  0
   -0.5539   -1.5011    2.8096 H   0  0  0  0  0  0  0  0  0  0  0  0
    1.4504   -1.9006    3.4162 C   0  0  0  0  0  0  0  0  0  0  0  0
    2.3375   -2.5515    2.8879 O   0  0  0  0  0  0  0  0  0  0  0  0
    1.3243   -1.9184    4.7562 O   0  0  0  0  0  0  0  0  0  0  0  0
    2.0217   -2.4987    5.0664 H   0  0  0  0  0  0  0  0  0  0  0  0
    0.1638    0.1493   -1.0705 C   0  0  0  0  0  0  0  0  0  0  0  0
    1.3259    0.4821   -1.2956 O   0  0  0  0  0  0  0  0  0  0  0  0
   -0.7500    0.0178   -2.0397 N   0  0  0  0  0  0  0  0  0  0  0  0
   -1.6784   -0.2808   -1.7807 H   0  0  0  0  0  0  0  0  0  0  0  0
   -0.4791    0.2592   -3.4554 C   0  0  0  0  0  0  0  0  0  0  0  0
    0.3406   -0.3798   -3.7889 H   0  0  0  0  0  0  0  0  0  0  0  0
   -1.3664    0.0450   -4.0529 H   0  0  0  0  0  0  0  0  0  0  0  0
   -0.1881    1.3011   -3.6026 H   0  0  0  0  0  0  0  0  0  0  0  0
  5  6  2  0  0  0  0
  5  7  1  0  0  0  0
  2  3  1  0  0  0  0
  2  4  1  0  0  0  0
  2  5  1  0  0  0  0
  1  2  1  0  0  0  0
 21 22  2  0  0  0  0
 21 23  1  0  0  0  0
 19 20  1  0  0  0  0
 17 18  2  0  0  0  0
 17 19  1  0  0  0  0
 14 15  1  0  0  0  0
 14 16  1  0  0  0  0
 14 17  1  0  0  0  0
 11 12  1  0  0  0  0
 11 13  1  0  0  0  0
 11 14  1  0  0  0  0
  9 10  1  0  0  0  0
  9 11  1  0  0  0  0
  9 21  1  0  0  0  0
  7  8  1  0  0  0  0
  7  9  1  0  0  0  0
 25 26  1  0  0  0  0
 25 27  1  0  0  0  0
 25 28  1  0  0  0  0
 23 24  1  0  0  0  0
 23 25  1  0  0  0  0
M  END
$$$$
default_name
  -OEChem-01062215323D

 28 27  0     1  0  0  0  0  0999 V2000
   -3.2133   -3.5565    1.2809 H   0  0  0  0  0  0  0  0  0  0  0  0
   -3.1873   -2.5755    0.8089 C   0  0  0  0  0  0  0  0  0  0  0  0
   -3.8793   -1.9065    1.3169 H   0  0  0  0  0  0  0  0  0  0  0  0
   -3.4623   -2.6685   -0.2401 H   0  0  0  0  0  0  0  0  0  0  0  0
   -1.7863   -2.0195    0.9119 C   0  0  0  0  0  0  0  0  0  0  0  0
   -0.9073   -2.6615    1.4699 O   0  0  0  0  0  0  0  0  0  0  0  0
   -1.5803   -0.8195    0.3749 N   0  0  0  0  0  0  0  0  0  0  0  0
   -2.3603   -0.3345   -0.0451 H   0  0  0  0  0  0  0  0  0  0  0  0
   -0.2933   -0.1205    0.3719 C   0  0  1  0  0  0  0  0  0  0  0  0
   -0.4169    0.8408    0.8727 H   0  0  0  0  0  0  0  0  0  0  0  0
    0.7328   -0.9540    1.1664 C   0  0  0  0  0  0  0  0  0  0  0  0
    0.7490   -1.9614    0.7468 H   0  0  0  0  0  0  0  0  0  0  0  0
    1.7250   -0.5182    1.0409 H   0  0  0  0  0  0  0  0  0  0  0  0
    0.4275   -1.0489    2.6714 C   0  0  0  0  0  0  0  0  0  0  0  0
    0.4268   -0.0526    3.1136 H   0  0  0  0  0  0  0  0  0  0  0  0
   -0.5539   -1.5011    2.8096 H   0  0  0  0  0  0  0  0  0  0  0  0
    1.4504   -1.9006    3.4162 C   0  0  0  0  0  0  0  0  0  0  0  0
    2.3375   -2.5515    2.8879 O   0  0  0  0  0  0  0  0  0  0  0  0
    1.3243   -1.9184    4.7562 O   0  0  0  0  0  0  0  0  0  0  0  0
    2.0217   -2.4987    5.0664 H   0  0  0  0  0  0  0  0  0  0  0  0
    0.1638    0.1493   -1.0705 C   0  0  0  0  0  0  0  0  0  0  0  0
    1.3631    0.2095   -1.3348 O   0  0  0  0  0  0  0  0  0  0  0  0
   -0.7886    0.3225   -1.9949 N   0  0  0  0  0  0  0  0  0  0  0  0
   -1.7519    0.2362   -1.7073 H   0  0  0  0  0  0  0  0  0  0  0  0
   -0.5179    0.6075   -3.4026 C   0  0  0  0  0  0  0  0  0  0  0  0
    0.1080   -0.1804   -3.8253 H   0  0  0  0  0  0  0  0  0  0  0  0
   -1.4515    0.6637   -3.9642 H   0  0  0  0  0  0  0  0  0  0  0  0
    0.0137    1.5571   -3.4907 H   0  0  0  0  0  0  0  0  0  0  0  0
  5  6  2  0  0  0  0
  5  7  1  0  0  0  0
  2  3  1  0  0  0  0
  2  4  1  0  0  0  0
  2  5  1  0  0  0  0
  1  2  1  0  0  0  0
 21 22  2  0  0  0  0
 21 23  1  0  0  0  0
 19 20  1  0  0  0  0
 17 18  2  0  0  0  0
 17 19  1  0  0  0  0
 14 15  1  0  0  0  0
 14 16  1  0  0  0  0
 14 17  1  0  0  0  0
 11 12  1  0  0  0  0
 11 13  1  0  0  0  0
 11 14  1  0  0  0  0
  9 10  1  0  0  0  0
  9 11  1  0  0  0  0
  9 21  1  0  0  0  0
  7  8  1  0  0  0  0
  7  9  1  0  0  0  0
 25 26  1  0  0  0  0
 25 27  1  0  0  0  0
 25 28  1  0  0  0  0
 23 24  1  0  0  0  0
 23 25  1  0  0  0  0
M  END
$$$$
default_name
  -OEChem-01062215323D

 28 27  0     1  0  0  0  0  0999 V2000
   -3.2133   -3.5565    1.2809 H   0  0  0  0  0  0  0  0  0  0  0  0
   -3.1873   -2.5755    0.8089 C   0  0  0  0  0  0  0  0  0  0  0  0
   -3.8793   -1.9065    1.3169 H   0  0  0  0  0  0  0  0  0  0  0  0
   -3.4623   -2.6685   -0.2401 H   0  0  0  0  0  0  0  0  0  0  0  0
   -1.7863   -2.0195    0.9119 C   0  0  0  0  0  0  0  0  0  0  0  0
   -0.9073   -2.6615    1.4699 O   0  0  0  0  0  0  0  0  0  0  0  0
   -1.5803   -0.8195    0.3749 N   0  0  0  0  0  0  0  0  0  0  0  0
   -2.3603   -0.3345   -0.0451 H   0  0  0  0  0  0  0  0  0  0  0  0
   -0.2933   -0.1205    0.3719 C   0  0  1  0  0  0  0  0  0  0  0  0
   -0.4169    0.8408    0.8727 H   0  0  0  0  0  0  0  0  0  0  0  0
    0.7328   -0.9540    1.1664 C   0  0  0  0  0  0  0  0  0  0  0  0
    0.7490   -1.9614    0.7468 H   0  0  0  0  0  0  0  0  0  0  0  0
    1.7250   -0.5182    1.0409 H   0  0  0  0  0  0  0  0  0  0  0  0
    0.4275   -1.0489    2.6714 C   0  0  0  0  0  0  0  0  0  0  0  0
    0.4268   -0.0526    3.1136 H   0  0  0  0  0  0  0  0  0  0  0  0
   -0.5539   -1.5011    2.8096 H   0  0  0  0  0  0  0  0  0  0  0  0
    1.4504   -1.9006    3.4162 C   0  0  0  0  0  0  0  0  0  0  0  0
    2.3375   -2.5515    2.8879 O   0  0  0  0  0  0  0  0  0  0  0  0
    1.3243   -1.9184    4.7562 O   0  0  0  0  0  0  0  0  0  0  0  0
    2.0217   -2.4987    5.0664 H   0  0  0  0  0  0  0  0  0  0  0  0
    0.1638    0.1493   -1.0705 C   0  0  0  0  0  0  0  0  0  0  0  0
    1.3311   -0.0598   -1.3953 O   0  0  0  0  0  0  0  0  0  0  0  0
   -0.7498    0.6227   -1.9265 N   0  0  0  0  0  0  0  0  0  0  0  0
   -1.6940    0.7479   -1.5933 H   0  0  0  0  0  0  0  0  0  0  0  0
   -0.4684    0.9494   -3.3229 C   0  0  0  0  0  0  0  0  0  0  0  0
   -0.0699    0.0714   -3.8346 H   0  0  0  0  0  0  0  0  0  0  0  0
   -1.3794    1.2752   -3.8269 H   0  0  0  0  0  0  0  0  0  0  0  0
    0.2758    1.7467   -3.3722 H   0  0  0  0  0  0  0  0  0  0  0  0
  5  6  2  0  0  0  0
  5  7  1  0  0  0  0
  2  3  1  0  0  0  0
  2  4  1  0  0  0  0
  2  5  1  0  0  0  0
  1  2  1  0  0  0  0
 21 22  2  0  0  0  0
 21 23  1  0  0  0  0
 19 20  1  0  0  0  0
 17 18  2  0  0  0  0
 17 19  1  0  0  0  0
 14 15  1  0  0  0  0
 14 16  1  0  0  0  0
 14 17  1  0  0  0  0
 11 12  1  0  0  0  0
 11 13  1  0  0  0  0
 11 14  1  0  0  0  0
  9 10  1  0  0  0  0
  9 11  1  0  0  0  0
  9 21  1  0  0  0  0
  7  8  1  0  0  0  0
  7  9  1  0  0  0  0
 25 26  1  0  0  0  0
 25 27  1  0  0  0  0
 25 28  1  0  0  0  0
 23 24  1  0  0  0  0
 23 25  1  0  0  0  0
M  END
$$$$
default_name
  -OEChem-01062215323D

 28 27  0     1  0  0  0  0  0999 V2000
   -3.2133   -3.5565    1.2809 H   0  0  0  0  0  0  0  0  0  0  0  0
   -3.1873   -2.5755    0.8089 C   0  0  0  0  0  0  0  0  0  0  0  0
   -3.8793   -1.9065    1.3169 H   0  0  0  0  0  0  0  0  0  0  0  0
   -3.4623   -2.6685   -0.2401 H   0  0  0  0  0  0  0  0  0  0  0  0
   -1.7863   -2.0195    0.9119 C   0  0  0  0  0  0  0  0  0  0  0  0
   -0.9073   -2.6615    1.4699 O   0  0  0  0  0  0  0  0  0  0  0  0
   -1.5803   -0.8195    0.3749 N   0  0  0  0  0  0  0  0  0  0  0  0
   -2.3603   -0.3345   -0.0451 H   0  0  0  0  0  0  0  0  0  0  0  0
   -0.2933   -0.1205    0.3719 C   0  0  1  0  0  0  0  0  0  0  0  0
   -0.4169    0.8408    0.8727 H   0  0  0  0  0  0  0  0  0  0  0  0
    0.7328   -0.9540    1.1664 C   0  0  0  0  0  0  0  0  0  0  0  0
    0.7490   -1.9614    0.7468 H   0  0  0  0  0  0  0  0  0  0  0  0
    1.7250   -0.5182    1.0409 H   0  0  0  0  0  0  0  0  0  0  0  0
    0.4275   -1.0489    2.6714 C   0  0  0  0  0  0  0  0  0  0  0  0
    0.4268   -0.0526    3.1136 H   0  0  0  0  0  0  0  0  0  0  0  0
   -0.5539   -1.5011    2.8096 H   0  0  0  0  0  0  0  0  0  0  0  0
    1.4504   -1.9006    3.4162 C   0  0  0  0  0  0  0  0  0  0  0  0
    2.3375   -2.5515    2.8879 O   0  0  0  0  0  0  0  0  0  0  0  0
    1.3243   -1.9184    4.7562 O   0  0  0  0  0  0  0  0  0  0  0  0
    2.0217   -2.4987    5.0664 H   0  0  0  0  0  0  0  0  0  0  0  0
    0.1638    0.1493   -1.0705 C   0  0  0  0  0  0  0  0  0  0  0  0
    1.2320   -0.3075   -1.4730 O   0  0  0  0  0  0  0  0  0  0  0  0
   -0.6364    0.8981   -1.8390 N   0  0  0  0  0  0  0  0  0  0  0  0
   -1.5087    1.2193   -1.4464 H   0  0  0  0  0  0  0  0  0  0  0  0
   -0.3339    1.2614   -3.2219 C   0  0  0  0  0  0  0  0  0  0  0  0
   -0.1810    0.3586   -3.8160 H   0  0  0  0  0  0  0  0  0  0  0  0
   -1.1550    1.8378   -3.6506 H   0  0  0  0  0  0  0  0  0  0  0  0
    0.5805    1.8570   -3.2550 H   0  0  0  0  0  0  0  0  0  0  0  0
  5  6  2  0  0  0  0
  5  7  1  0  0  0  0
  2  3  1  0  0  0  0
  2  4  1  0  0  0  0
  2  5  1  0  0  0  0
  1  2  1  0  0  0  0
 21 22  2  0  0  0  0
 21 23  1  0  0  0  0
 19 20  1  0  0  0  0
 17 18  2  0  0  0  0
 17 19  1  0  0  0  0
 14 15  1  0  0  0  0
 14 16  1  0  0  0  0
 14 17  1  0  0  0  0
 11 12  1  0  0  0  0
 11 13  1  0  0  0  0
 11 14  1  0  0  0  0
  9 10  1  0  0  0  0
  9 11  1  0  0  0  0
  9 21  1  0  0  0  0
  7  8  1  0  0  0  0
  7  9  1  0  0  0  0
 25 26  1  0  0  0  0
 25 27  1  0  0  0  0
 25 28  1  0  0  0  0
 23 24  1  0  0  0  0
 23 25  1  0  0  0  0
M  END
$$$$
default_name
  -OEChem-01062215323D

 28 27  0     1  0  0  0  0  0999 V2000
   -3.2133   -3.5565    1.2809 H   0  0  0  0  0  0  0  0  0  0  0  0
   -3.1873   -2.5755    0.8089 C   0  0  0  0  0  0  0  0  0  0  0  0
   -3.8793   -1.9065    1.3169 H   0  0  0  0  0  0  0  0  0  0  0  0
   -3.4623   -2.6685   -0.2401 H   0  0  0  0  0  0  0  0  0  0  0  0
   -1.7863   -2.0195    0.9119 C   0  0  0  0  0  0  0  0  0  0  0  0
   -0.9073   -2.6615    1.4699 O   0  0  0  0  0  0  0  0  0  0  0  0
   -1.5803   -0.8195    0.3749 N   0  0  0  0  0  0  0  0  0  0  0  0
   -2.3603   -0.3345   -0.0451 H   0  0  0  0  0  0  0  0  0  0  0  0
   -0.2933   -0.1205    0.3719 C   0  0  1  0  0  0  0  0  0  0  0  0
   -0.4169    0.8408    0.8727 H   0  0  0  0  0  0  0  0  0  0  0  0
    0.7328   -0.9540    1.1664 C   0  0  0  0  0  0  0  0  0  0  0  0
    0.7490   -1.9614    0.7468 H   0  0  0  0  0  0  0  0  0  0  0  0
    1.7250   -0.5182    1.0409 H   0  0  0  0  0  0  0  0  0  0  0  0
    0.4275   -1.0489    2.6714 C   0  0  0  0  0  0  0  0  0  0  0  0
    0.4268   -0.0526    3.1136 H   0  0  0  0  0  0  0  0  0  0  0  0
   -0.5539   -1.5011    2.8096 H   0  0  0  0  0  0  0  0  0  0  0  0
    1.4504   -1.9006    3.4162 C   0  0  0  0  0  0  0  0  0  0  0  0
    2.3375   -2.5515    2.8879 O   0  0  0  0  0  0  0  0  0  0  0  0
    1.3243   -1.9184    4.7562 O   0  0  0  0  0  0  0  0  0  0  0  0
    2.0217   -2.4987    5.0664 H   0  0  0  0  0  0  0  0  0  0  0  0
    0.1638    0.1493   -1.0705 C   0  0  0  0  0  0  0  0  0  0  0  0
    1.0726   -0.5168   -1.5627 O   0  0  0  0  0  0  0  0  0  0  0  0
   -0.4559    1.1298   -1.7385 N   0  0  0  0  0  0  0  0  0  0  0  0
   -1.2084    1.6182   -1.2766 H   0  0  0  0  0  0  0  0  0  0  0  0
   -0.1237    1.5224   -3.1065 C   0  0  0  0  0  0  0  0  0  0  0  0
   -0.2177    0.6616   -3.7710 H   0  0  0  0  0  0  0  0  0  0  0  0
   -0.7936    2.3131   -3.4472 H   0  0  0  0  0  0  0  0  0  0  0  0
    0.9069    1.8806   -3.1472 H   0  0  0  0  0  0  0  0  0  0  0  0
  5  6  2  0  0  0  0
  5  7  1  0  0  0  0
  2  3  1  0  0  0  0
  2  4  1  0  0  0  0
  2  5  1  0  0  0  0
  1  2  1  0  0  0  0
 21 22  2  0  0  0  0
 21 23  1  0  0  0  0
 19 20  1  0  0  0  0
 17 18  2  0  0  0  0
 17 19  1  0  0  0  0
 14 15  1  0  0  0  0
 14 16  1  0  0  0  0
 14 17  1  0  0  0  0
 11 12  1  0  0  0  0
 11 13  1  0  0  0  0
 11 14  1  0  0  0  0
  9 10  1  0  0  0  0
  9 11  1  0  0  0  0
  9 21  1  0  0  0  0
  7  8  1  0  0  0  0
  7  9  1  0  0  0  0
 25 26  1  0  0  0  0
 25 27  1  0  0  0  0
 25 28  1  0  0  0  0
 23 24  1  0  0  0  0
 23 25  1  0  0  0  0
M  END
$$$$
default_name
  -OEChem-01062215323D

 28 27  0     1  0  0  0  0  0999 V2000
   -3.2133   -3.5565    1.2809 H   0  0  0  0  0  0  0  0  0  0  0  0
   -3.1873   -2.5755    0.8089 C   0  0  0  0  0  0  0  0  0  0  0  0
   -3.8793   -1.9065    1.3169 H   0  0  0  0  0  0  0  0  0  0  0  0
   -3.4623   -2.6685   -0.2401 H   0  0  0  0  0  0  0  0  0  0  0  0
   -1.7863   -2.0195    0.9119 C   0  0  0  0  0  0  0  0  0  0  0  0
   -0.9073   -2.6615    1.4699 O   0  0  0  0  0  0  0  0  0  0  0  0
   -1.5803   -0.8195    0.3749 N   0  0  0  0  0  0  0  0  0  0  0  0
   -2.3603   -0.3345   -0.0451 H   0  0  0  0  0  0  0  0  0  0  0  0
   -0.2933   -0.1205    0.3719 C   0  0  1  0  0  0  0  0  0  0  0  0
   -0.4169    0.8408    0.8727 H   0  0  0  0  0  0  0  0  0  0  0  0
    0.7328   -0.9540    1.1664 C   0  0  0  0  0  0  0  0  0  0  0  0
    0.7490   -1.9614    0.7468 H   0  0  0  0  0  0  0  0  0  0  0  0
    1.7250   -0.5182    1.0409 H   0  0  0  0  0  0  0  0  0  0  0  0
    0.4275   -1.0489    2.6714 C   0  0  0  0  0  0  0  0  0  0  0  0
    0.4268   -0.0526    3.1136 H   0  0  0  0  0  0  0  0  0  0  0  0
   -0.5539   -1.5011    2.8096 H   0  0  0  0  0  0  0  0  0  0  0  0
    1.4504   -1.9006    3.4162 C   0  0  0  0  0  0  0  0  0  0  0  0
    2.3375   -2.5515    2.8879 O   0  0  0  0  0  0  0  0  0  0  0  0
    1.3243   -1.9184    4.7562 O   0  0  0  0  0  0  0  0  0  0  0  0
    2.0217   -2.4987    5.0664 H   0  0  0  0  0  0  0  0  0  0  0  0
    0.1638    0.1493   -1.0705 C   0  0  0  0  0  0  0  0  0  0  0  0
    0.8637   -0.6732   -1.6581 O   0  0  0  0  0  0  0  0  0  0  0  0
   -0.2208    1.3020   -1.6318 N   0  0  0  0  0  0  0  0  0  0  0  0
   -0.8138    1.9176   -1.0956 H   0  0  0  0  0  0  0  0  0  0  0  0
    0.1481    1.7145   -2.9844 C   0  0  0  0  0  0  0  0  0  0  0  0
   -0.1775    0.9597   -3.7025 H   0  0  0  0  0  0  0  0  0  0  0  0
   -0.3198    2.6688   -3.2305 H   0  0  0  0  0  0  0  0  0  0  0  0
    1.2328    1.8157   -3.0560 H   0  0  0  0  0  0  0  0  0  0  0  0
  5  6  2  0  0  0  0
  5  7  1  0  0  0  0
  2  3  1  0  0  0  0
  2  4  1  0  0  0  0
  2  5  1  0  0  0  0
  1  2  1  0  0  0  0
 21 22  2  0  0  0  0
 21 23  1  0  0  0  0
 19 20  1  0  0  0  0
 17 18  2  0  0  0  0
 17 19  1  0  0  0  0
 14 15  1  0  0  0  0
 14 16  1  0  0  0  0
 14 17  1  0  0  0  0
 11 12  1  0  0  0  0
 11 13  1  0  0  0  0
 11 14  1  0  0  0  0
  9 10  1  0  0  0  0
  9 11  1  0  0  0  0
  9 21  1  0  0  0  0
  7  8  1  0  0  0  0
  7  9  1  0  0  0  0
 25 26  1  0  0  0  0
 25 27  1  0  0  0  0
 25 28  1  0  0  0  0
 23 24  1  0  0  0  0
 23 25  1  0  0  0  0
M  END
$$$$
default_name
  -OEChem-01062215323D

 28 27  0     1  0  0  0  0  0999 V2000
   -3.2133   -3.5565    1.2809 H   0  0  0  0  0  0  0  0  0  0  0  0
   -3.1873   -2.5755    0.8089 C   0  0  0  0  0  0  0  0  0  0  0  0
   -3.8793   -1.9065    1.3169 H   0  0  0  0  0  0  0  0  0  0  0  0
   -3.4623   -2.6685   -0.2401 H   0  0  0  0  0  0  0  0  0  0  0  0
   -1.7863   -2.0195    0.9119 C   0  0  0  0  0  0  0  0  0  0  0  0
   -0.9073   -2.6615    1.4699 O   0  0  0  0  0  0  0  0  0  0  0  0
   -1.5803   -0.8195    0.3749 N   0  0  0  0  0  0  0  0  0  0  0  0
   -2.3603   -0.3345   -0.0451 H   0  0  0  0  0  0  0  0  0  0  0  0
   -0.2933   -0.1205    0.3719 C   0  0  1  0  0  0  0  0  0  0  0  0
   -0.4169    0.8408    0.8727 H   0  0  0  0  0  0  0  0  0  0  0  0
    0.7328   -0.9540    1.1664 C   0  0  0  0  0  0  0  0  0  0  0  0
    0.7490   -1.9614    0.7468 H   0  0  0  0  0  0  0  0  0  0  0  0
    1.7250   -0.5182    1.0409 H   0  0  0  0  0  0  0  0  0  0  0  0
    0.4275   -1.0489    2.6714 C   0  0  0  0  0  0  0  0  0  0  0  0
    0.4268   -0.0526    3.1136 H   0  0  0  0  0  0  0  0  0  0  0  0
   -0.5539   -1.5011    2.8096 H   0  0  0  0  0  0  0  0  0  0  0  0
    1.4504   -1.9006    3.4162 C   0  0  0  0  0  0  0  0  0  0  0  0
    2.3375   -2.5515    2.8879 O   0  0  0  0  0  0  0  0  0  0  0  0
    1.3243   -1.9184    4.7562 O   0  0  0  0  0  0  0  0  0  0  0  0
    2.0217   -2.4987    5.0664 H   0  0  0  0  0  0  0  0  0  0  0  0
    0.1638    0.1493   -1.0705 C   0  0  0  0  0  0  0  0  0  0  0  0
    0.6196   -0.7663   -1.7529 O   0  0  0  0  0  0  0  0  0  0  0  0
    0.0530    1.4030   -1.5261 N   0  0  0  0  0  0  0  0  0  0  0  0
   -0.3517    2.0970   -0.9156 H   0  0  0  0  0  0  0  0  0  0  0  0
    0.4628    1.8247   -2.8641 C   0  0  0  0  0  0  0  0  0  0  0  0
   -0.0631    1.2326   -3.6152 H   0  0  0  0  0  0  0  0  0  0  0  0
    0.2341    2.8806   -3.0153 H   0  0  0  0  0  0  0  0  0  0  0  0
    1.5360    1.6669   -2.9877 H   0  0  0  0  0  0  0  0  0  0  0  0
  5  6  2  0  0  0  0
  5  7  1  0  0  0  0
  2  3  1  0  0  0  0
  2  4  1  0  0  0  0
  2  5  1  0  0  0  0
  1  2  1  0  0  0  0
 21 22  2  0  0  0  0
 21 23  1  0  0  0  0
 19 20  1  0  0  0  0
 17 18  2  0  0  0  0
 17 19  1  0  0  0  0
 14 15  1  0  0  0  0
 14 16  1  0  0  0  0
 14 17  1  0  0  0  0
 11 12  1  0  0  0  0
 11 13  1  0  0  0  0
 11 14  1  0  0  0  0
  9 10  1  0  0  0  0
  9 11  1  0  0  0  0
  9 21  1  0  0  0  0
  7  8  1  0  0  0  0
  7  9  1  0  0  0  0
 25 26  1  0  0  0  0
 25 27  1  0  0  0  0
 25 28  1  0  0  0  0
 23 24  1  0  0  0  0
 23 25  1  0  0  0  0
M  END
$$$$
default_name
  -OEChem-01062215323D

 28 27  0     1  0  0  0  0  0999 V2000
   -3.2133   -3.5565    1.2809 H   0  0  0  0  0  0  0  0  0  0  0  0
   -3.1873   -2.5755    0.8089 C   0  0  0  0  0  0  0  0  0  0  0  0
   -3.8793   -1.9065    1.3169 H   0  0  0  0  0  0  0  0  0  0  0  0
   -3.4623   -2.6685   -0.2401 H   0  0  0  0  0  0  0  0  0  0  0  0
   -1.7863   -2.0195    0.9119 C   0  0  0  0  0  0  0  0  0  0  0  0
   -0.9073   -2.6615    1.4699 O   0  0  0  0  0  0  0  0  0  0  0  0
   -1.5803   -0.8195    0.3749 N   0  0  0  0  0  0  0  0  0  0  0  0
   -2.3603   -0.3345   -0.0451 H   0  0  0  0  0  0  0  0  0  0  0  0
   -0.2933   -0.1205    0.3719 C   0  0  1  0  0  0  0  0  0  0  0  0
   -0.4169    0.8408    0.8727 H   0  0  0  0  0  0  0  0  0  0  0  0
    0.7328   -0.9540    1.1664 C   0  0  0  0  0  0  0  0  0  0  0  0
    0.7490   -1.9614    0.7468 H   0  0  0  0  0  0  0  0  0  0  0  0
    1.7250   -0.5182    1.0409 H   0  0  0  0  0  0  0  0  0  0  0  0
    0.4275   -1.0489    2.6714 C   0  0  0  0  0  0  0  0  0  0  0  0
    0.4268   -0.0526    3.1136 H   0  0  0  0  0  0  0  0  0  0  0  0
   -0.5539   -1.5011    2.8096 H   0  0  0  0  0  0  0  0  0  0  0  0
    1.4504   -1.9006    3.4162 C   0  0  0  0  0  0  0  0  0  0  0  0
    2.3375   -2.5515    2.8879 O   0  0  0  0  0  0  0  0  0  0  0  0
    1.3243   -1.9184    4.7562 O   0  0  0  0  0  0  0  0  0  0  0  0
    2.0217   -2.4987    5.0664 H   0  0  0  0  0  0  0  0  0  0  0  0
    0.1638    0.1493   -1.0705 C   0  0  0  0  0  0  0  0  0  0  0  0
    0.3569   -0.7896   -1.8405 O   0  0  0  0  0  0  0  0  0  0  0  0
    0.3469    1.4260   -1.4287 N   0  0  0  0  0  0  0  0  0  0  0  0
    0.1464    2.1442   -0.7489 H   0  0  0  0  0  0  0  0  0  0  0  0
    0.7990    1.8454   -2.7537 C   0  0  0  0  0  0  0  0  0  0  0  0
    0.1176    1.4617   -3.5151 H   0  0  0  0  0  0  0  0  0  0  0  0
    0.8303    2.9341   -2.8164 H   0  0  0  0  0  0  0  0  0  0  0  0
    1.7959    1.4443   -2.9470 H   0  0  0  0  0  0  0  0  0  0  0  0
  5  6  2  0  0  0  0
  5  7  1  0  0  0  0
  2  3  1  0  0  0  0
  2  4  1  0  0  0  0
  2  5  1  0  0  0  0
  1  2  1  0  0  0  0
 21 22  2  0  0  0  0
 21 23  1  0  0  0  0
 19 20  1  0  0  0  0
 17 18  2  0  0  0  0
 17 19  1  0  0  0  0
 14 15  1  0  0  0  0
 14 16  1  0  0  0  0
 14 17  1  0  0  0  0
 11 12  1  0  0  0  0
 11 13  1  0  0  0  0
 11 14  1  0  0  0  0
  9 10  1  0  0  0  0
  9 11  1  0  0  0  0
  9 21  1  0  0  0  0
  7  8  1  0  0  0  0
  7  9  1  0  0  0  0
 25 26  1  0  0  0  0
 25 27  1  0  0  0  0
 25 28  1  0  0  0  0
 23 24  1  0  0  0  0
 23 25  1  0  0  0  0
M  END
$$$$
default_name
  -OEChem-01062215323D

 28 27  0     1  0  0  0  0  0999 V2000
   -3.2133   -3.5565    1.2809 H   0  0  0  0  0  0  0  0  0  0  0  0
   -3.1873   -2.5755    0.8089 C   0  0  0  0  0  0  0  0  0  0  0  0
   -3.8793   -1.9065    1.3169 H   0  0  0  0  0  0  0  0  0  0  0  0
   -3.4623   -2.6685   -0.2401 H   0  0  0  0  0  0  0  0  0  0  0  0
   -1.7863   -2.0195    0.9119 C   0  0  0  0  0  0  0  0  0  0  0  0
   -0.9073   -2.6615    1.4699 O   0  0  0  0  0  0  0  0  0  0  0  0
   -1.5803   -0.8195    0.3749 N   0  0  0  0  0  0  0  0  0  0  0  0
   -2.3603   -0.3345   -0.0451 H   0  0  0  0  0  0  0  0  0  0  0  0
   -0.2933   -0.1205    0.3719 C   0  0  1  0  0  0  0  0  0  0  0  0
   -0.4169    0.8408    0.8727 H   0  0  0  0  0  0  0  0  0  0  0  0
    0.7328   -0.9540    1.1664 C   0  0  0  0  0  0  0  0  0  0  0  0
    0.7490   -1.9614    0.7468 H   0  0  0  0  0  0  0  0  0  0  0  0
    1.7250   -0.5182    1.0409 H   0  0  0  0  0  0  0  0  0  0  0  0
    0.4275   -1.0489    2.6714 C   0  0  0  0  0  0  0  0  0  0  0  0
    0.4268   -0.0526    3.1136 H   0  0  0  0  0  0  0  0  0  0  0  0
   -0.5539   -1.5011    2.8096 H   0  0  0  0  0  0  0  0  0  0  0  0
    1.4504   -1.9006    3.4162 C   0  0  0  0  0  0  0  0  0  0  0  0
    2.3375   -2.5515    2.8879 O   0  0  0  0  0  0  0  0  0  0  0  0
    1.3243   -1.9184    4.7562 O   0  0  0  0  0  0  0  0  0  0  0  0
    2.0217   -2.4987    5.0664 H   0  0  0  0  0  0  0  0  0  0  0  0
    0.1638    0.1493   -1.0705 C   0  0  0  0  0  0  0  0  0  0  0  0
    0.0935   -0.7416   -1.9150 O   0  0  0  0  0  0  0  0  0  0  0  0
    0.6407    1.3693   -1.3462 N   0  0  0  0  0  0  0  0  0  0  0  0
    0.6466    2.0560   -0.6069 H   0  0  0  0  0  0  0  0  0  0  0  0
    1.1338    1.7753   -2.6607 C   0  0  0  0  0  0  0  0  0  0  0  0
    0.3523    1.6314   -3.4090 H   0  0  0  0  0  0  0  0  0  0  0  0
    1.4283    2.8256   -2.6472 H   0  0  0  0  0  0  0  0  0  0  0  0
    1.9946    1.1630   -2.9367 H   0  0  0  0  0  0  0  0  0  0  0  0
  5  6  2  0  0  0  0
  5  7  1  0  0  0  0
  2  3  1  0  0  0  0
  2  4  1  0  0  0  0
  2  5  1  0  0  0  0
  1  2  1  0  0  0  0
 21 22  2  0  0  0  0
 21 23  1  0  0  0  0
 19 20  1  0  0  0  0
 17 18  2  0  0  0  0
 17 19  1  0  0  0  0
 14 15  1  0  0  0  0
 14 16  1  0  0  0  0
 14 17  1  0  0  0  0
 11 12  1  0  0  0  0
 11 13  1  0  0  0  0
 11 14  1  0  0  0  0
  9 10  1  0  0  0  0
  9 11  1  0  0  0  0
  9 21  1  0  0  0  0
  7  8  1  0  0  0  0
  7  9  1  0  0  0  0
 25 26  1  0  0  0  0
 25 27  1  0  0  0  0
 25 28  1  0  0  0  0
 23 24  1  0  0  0  0
 23 25  1  0  0  0  0
M  END
$$$$
default_name
  -OEChem-01062215323D

 28 27  0     1  0  0  0  0  0999 V2000
   -3.2133   -3.5565    1.2809 H   0  0  0  0  0  0  0  0  0  0  0  0
   -3.1873   -2.5755    0.8089 C   0  0  0  0  0  0  0  0  0  0  0  0
   -3.8793   -1.9065    1.3169 H   0  0  0  0  0  0  0  0  0  0  0  0
   -3.4623   -2.6685   -0.2401 H   0  0  0  0  0  0  0  0  0  0  0  0
   -1.7863   -2.0195    0.9119 C   0  0  0  0  0  0  0  0  0  0  0  0
   -0.9073   -2.6615    1.4699 O   0  0  0  0  0  0  0  0  0  0  0  0
   -1.5803   -0.8195    0.3749 N   0  0  0  0  0  0  0  0  0  0  0  0
   -2.3603   -0.3345   -0.0451 H   0  0  0  0  0  0  0  0  0  0  0  0
   -0.2933   -0.1205    0.3719 C   0  0  1  0  0  0  0  0  0  0  0  0
   -0.4169    0.8408    0.8727 H   0  0  0  0  0  0  0  0  0  0  0  0
    0.7328   -0.9540    1.1664 C   0  0  0  0  0  0  0  0  0  0  0  0
    0.7490   -1.9614    0.7468 H   0  0  0  0  0  0  0  0  0  0  0  0
    1.7250   -0.5182    1.0409 H   0  0  0  0  0  0  0  0  0  0  0  0
    0.4275   -1.0489    2.6714 C   0  0  0  0  0  0  0  0  0  0  0  0
    0.4268   -0.0526    3.1136 H   0  0  0  0  0  0  0  0  0  0  0  0
   -0.5539   -1.5011    2.8096 H   0  0  0  0  0  0  0  0  0  0  0  0
    1.4504   -1.9006    3.4162 C   0  0  0  0  0  0  0  0  0  0  0  0
    2.3375   -2.5515    2.8879 O   0  0  0  0  0  0  0  0  0  0  0  0
    1.3243   -1.9184    4.7562 O   0  0  0  0  0  0  0  0  0  0  0  0
    2.0217   -2.4987    5.0664 H   0  0  0  0  0  0  0  0  0  0  0  0
    0.1638    0.1493   -1.0705 C   0  0  0  0  0  0  0  0  0  0  0  0
   -0.1526   -0.6254   -1.9713 O   0  0  0  0  0  0  0  0  0  0  0  0
    0.9144    1.2368   -1.2842 N   0  0  0  0  0  0  0  0  0  0  0  0
    1.1148    1.8383   -0.4992 H   0  0  0  0  0  0  0  0  0  0  0  0
    1.4444    1.6190   -2.5915 C   0  0  0  0  0  0  0  0  0  0  0  0
    0.6251    1.7302   -3.3041 H   0  0  0  0  0  0  0  0  0  0  0  0
    1.9872    2.5626   -2.5193 H   0  0  0  0  0  0  0  0  0  0  0  0
    2.1187    0.8422   -2.9573 H   0  0  0  0  0  0  0  0  0  0  0  0
  5  6  2  0  0  0  0
  5  7  1  0  0  0  0
  2  3  1  0  0  0  0
  2  4  1  0  0  0  0
  2  5  1  0  0  0  0
  1  2  1  0  0  0  0
 21 22  2  0  0  0  0
 21 23  1  0  0  0  0
 19 20  1  0  0  0  0
 17 18  2  0  0  0  0
 17 19  1  0  0  0  0
 14 15  1  0  0  0  0
 14 16  1  0  0  0  0
 14 17  1  0  0  0  0
 11 12  1  0  0  0  0
 11 13  1  0  0  0  0
 11 14  1  0  0  0  0
  9 10  1  0  0  0  0
  9 11  1  0  0  0  0
  9 21  1  0  0  0  0
  7  8  1  0  0  0  0
  7  9  1  0  0  0  0
 25 26  1  0  0  0  0
 25 27  1  0  0  0  0
 25 28  1  0  0  0  0
 23 24  1  0  0  0  0
 23 25  1  0  0  0  0
M  END
$$$$
default_name
  -OEChem-01062215323D

 28 27  0     1  0  0  0  0  0999 V2000
   -3.2133   -3.5565    1.2809 H   0  0  0  0  0  0  0  0  0  0  0  0
   -3.1873   -2.5755    0.8089 C   0  0  0  0  0  0  0  0  0  0  0  0
   -3.8793   -1.9065    1.3169 H   0  0  0  0  0  0  0  0  0  0  0  0
   -3.4623   -2.6685   -0.2401 H   0  0  0  0  0  0  0  0  0  0  0  0
   -1.7863   -2.0195    0.9119 C   0  0  0  0  0  0  0  0  0  0  0  0
   -0.9073   -2.6615    1.4699 O   0  0  0  0  0  0  0  0  0  0  0  0
   -1.5803   -0.8195    0.3749 N   0  0  0  0  0  0  0  0  0  0  0  0
   -2.3603   -0.3345   -0.0451 H   0  0  0  0  0  0  0  0  0  0  0  0
   -0.2933   -0.1205    0.3719 C   0  0  1  0  0  0  0  0  0  0  0  0
   -0.4169    0.8408    0.8727 H   0  0  0  0  0  0  0  0  0  0  0  0
    0.7328   -0.9540    1.1664 C   0  0  0  0  0  0  0  0  0  0  0  0
    0.7490   -1.9614    0.7468 H   0  0  0  0  0  0  0  0  0  0  0  0
    1.7250   -0.5182    1.0409 H   0  0  0  0  0  0  0  0  0  0  0  0
    0.4275   -1.0489    2.6714 C   0  0  0  0  0  0  0  0  0  0  0  0
    0.4268   -0.0526    3.1136 H   0  0  0  0  0  0  0  0  0  0  0  0
   -0.5539   -1.5011    2.8096 H   0  0  0  0  0  0  0  0  0  0  0  0
    1.4504   -1.9006    3.4162 C   0  0  0  0  0  0  0  0  0  0  0  0
    2.3375   -2.5515    2.8879 O   0  0  0  0  0  0  0  0  0  0  0  0
    1.3243   -1.9184    4.7562 O   0  0  0  0  0  0  0  0  0  0  0  0
    2.0217   -2.4987    5.0664 H   0  0  0  0  0  0  0  0  0  0  0  0
    0.1638    0.1493   -1.0705 C   0  0  0  0  0  0  0  0  0  0  0  0
   -0.3647   -0.4492   -2.0055 O   0  0  0  0  0  0  0  0  0  0  0  0
    1.1495    1.0375   -1.2470 N   0  0  0  0  0  0  0  0  0  0  0  0
    1.5190    1.5060   -0.4333 H   0  0  0  0  0  0  0  0  0  0  0  0
    1.7096    1.3873   -2.5508 C   0  0  0  0  0  0  0  0  0  0  0  0
    0.9173    1.7512   -3.2075 H   0  0  0  0  0  0  0  0  0  0  0  0
    2.4689    2.1629   -2.4413 H   0  0  0  0  0  0  0  0  0  0  0  0
    2.1598    0.5038   -3.0076 H   0  0  0  0  0  0  0  0  0  0  0  0
  5  6  2  0  0  0  0
  5  7  1  0  0  0  0
  2  3  1  0  0  0  0
  2  4  1  0  0  0  0
  2  5  1  0  0  0  0
  1  2  1  0  0  0  0
 21 22  2  0  0  0  0
 21 23  1  0  0  0  0
 19 20  1  0  0  0  0
 17 18  2  0  0  0  0
 17 19  1  0  0  0  0
 14 15  1  0  0  0  0
 14 16  1  0  0  0  0
 14 17  1  0  0  0  0
 11 12  1  0  0  0  0
 11 13  1  0  0  0  0
 11 14  1  0  0  0  0
  9 10  1  0  0  0  0
  9 11  1  0  0  0  0
  9 21  1  0  0  0  0
  7  8  1  0  0  0  0
  7  9  1  0  0  0  0
 25 26  1  0  0  0  0
 25 27  1  0  0  0  0
 25 28  1  0  0  0  0
 23 24  1  0  0  0  0
 23 25  1  0  0  0  0
M  END
$$$$
default_name
  -OEChem-01062215323D

 28 27  0     1  0  0  0  0  0999 V2000
   -3.2133   -3.5565    1.2809 H   0  0  0  0  0  0  0  0  0  0  0  0
   -3.1873   -2.5755    0.8089 C   0  0  0  0  0  0  0  0  0  0  0  0
   -3.8793   -1.9065    1.3169 H   0  0  0  0  0  0  0  0  0  0  0  0
   -3.4623   -2.6685   -0.2401 H   0  0  0  0  0  0  0  0  0  0  0  0
   -1.7863   -2.0195    0.9119 C   0  0  0  0  0  0  0  0  0  0  0  0
   -0.9073   -2.6615    1.4699 O   0  0  0  0  0  0  0  0  0  0  0  0
   -1.5803   -0.8195    0.3749 N   0  0  0  0  0  0  0  0  0  0  0  0
   -2.3603   -0.3345   -0.0451 H   0  0  0  0  0  0  0  0  0  0  0  0
   -0.2933   -0.1205    0.3719 C   0  0  1  0  0  0  0  0  0  0  0  0
   -0.3399    0.6999    1.0895 H   0  0  0  0  0  0  0  0  0  0  0  0
    0.8105   -1.0987    0.8230 C   0  0  0  0  0  0  0  0  0  0  0  0
    0.7599   -1.9839    0.1866 H   0  0  0  0  0  0  0  0  0  0  0  0
    1.7860   -0.6321    0.6783 H   0  0  0  0  0  0  0  0  0  0  0  0
    0.6920   -1.5376    2.2928 C   0  0  0  0  0  0  0  0  0  0  0  0
    0.7607   -0.6681    2.9466 H   0  0  0  0  0  0  0  0  0  0  0  0
   -0.2714   -2.0228    2.4448 H   0  0  0  0  0  0  0  0  0  0  0  0
    1.7863   -2.5222    2.6922 C   0  0  0  0  0  0  0  0  0  0  0  0
    2.5917   -3.0237    1.9242 O   0  0  0  0  0  0  0  0  0  0  0  0
    1.8264   -2.8462    3.9980 O   0  0  0  0  0  0  0  0  0  0  0  0
    2.5481   -3.4721    4.0795 H   0  0  0  0  0  0  0  0  0  0  0  0
   -0.0138    0.4766   -1.0165 C   0  0  0  0  0  0  0  0  0  0  0  0
   -0.8228    0.3178   -1.9287 O   0  0  0  0  0  0  0  0  0  0  0  0
    1.1321    1.1496   -1.1769 N   0  0  0  0  0  0  0  0  0  0  0  0
    1.7361    1.2581   -0.3759 H   0  0  0  0  0  0  0  0  0  0  0  0
    1.5525    1.7570   -2.4379 C   0  0  0  0  0  0  0  0  0  0  0  0
    0.7924    2.4617   -2.7800 H   0  0  0  0  0  0  0  0  0  0  0  0
    2.4982    2.2850   -2.3075 H   0  0  0  0  0  0  0  0  0  0  0  0
    1.6738    0.9825   -3.1977 H   0  0  0  0  0  0  0  0  0  0  0  0
  5  6  2  0  0  0  0
  5  7  1  0  0  0  0
  2  3  1  0  0  0  0
  2  4  1  0  0  0  0
  2  5  1  0  0  0  0
  1  2  1  0  0  0  0
 21 22  2  0  0  0  0
 21 23  1  0  0  0  0
 19 20  1  0  0  0  0
 17 18  2  0  0  0  0
 17 19  1  0  0  0  0
 14 15  1  0  0  0  0
 14 16  1  0  0  0  0
 14 17  1  0  0  0  0
 11 12  1  0  0  0  0
 11 13  1  0  0  0  0
 11 14  1  0  0  0  0
  9 10  1  0  0  0  0
  9 11  1  0  0  0  0
  9 21  1  0  0  0  0
  7  8  1  0  0  0  0
  7  9  1  0  0  0  0
 25 26  1  0  0  0  0
 25 27  1  0  0  0  0
 25 28  1  0  0  0  0
 23 24  1  0  0  0  0
 23 25  1  0  0  0  0
M  END
$$$$
default_name
  -OEChem-01062215323D

 28 27  0     1  0  0  0  0  0999 V2000
   -3.2133   -3.5565    1.2809 H   0  0  0  0  0  0  0  0  0  0  0  0
   -3.1873   -2.5755    0.8089 C   0  0  0  0  0  0  0  0  0  0  0  0
   -3.8793   -1.9065    1.3169 H   0  0  0  0  0  0  0  0  0  0  0  0
   -3.4623   -2.6685   -0.2401 H   0  0  0  0  0  0  0  0  0  0  0  0
   -1.7863   -2.0195    0.9119 C   0  0  0  0  0  0  0  0  0  0  0  0
   -0.9073   -2.6615    1.4699 O   0  0  0  0  0  0  0  0  0  0  0  0
   -1.5803   -0.8195    0.3749 N   0  0  0  0  0  0  0  0  0  0  0  0
   -2.3603   -0.3345   -0.0451 H   0  0  0  0  0  0  0  0  0  0  0  0
   -0.2933   -0.1205    0.3719 C   0  0  1  0  0  0  0  0  0  0  0  0
   -0.3399    0.6999    1.0895 H   0  0  0  0  0  0  0  0  0  0  0  0
    0.8105   -1.0987    0.8230 C   0  0  0  0  0  0  0  0  0  0  0  0
    0.7599   -1.9839    0.1866 H   0  0  0  0  0  0  0  0  0  0  0  0
    1.7860   -0.6321    0.6783 H   0  0  0  0  0  0  0  0  0  0  0  0
    0.6920   -1.5376    2.2928 C   0  0  0  0  0  0  0  0  0  0  0  0
    0.7607   -0.6681    2.9466 H   0  0  0  0  0  0  0  0  0  0  0  0
   -0.2714   -2.0228    2.4448 H   0  0  0  0  0  0  0  0  0  0  0  0
    1.7863   -2.5222    2.6922 C   0  0  0  0  0  0  0  0  0  0  0  0
    2.5917   -3.0237    1.9242 O   0  0  0  0  0  0  0  0  0  0  0  0
    1.8264   -2.8462    3.9980 O   0  0  0  0  0  0  0  0  0  0  0  0
    2.5481   -3.4721    4.0795 H   0  0  0  0  0  0  0  0  0  0  0  0
   -0.0138    0.4766   -1.0165 C   0  0  0  0  0  0  0  0  0  0  0  0
   -0.9202    0.5634   -1.8427 O   0  0  0  0  0  0  0  0  0  0  0  0
    1.2380    0.8744   -1.2739 N   0  0  0  0  0  0  0  0  0  0  0  0
    1.9239    0.7928   -0.5383 H   0  0  0  0  0  0  0  0  0  0  0  0
    1.6684    1.4414   -2.5503 C   0  0  0  0  0  0  0  0  0  0  0  0
    1.0673    2.3218   -2.7848 H   0  0  0  0  0  0  0  0  0  0  0  0
    2.7200    1.7276   -2.5025 H   0  0  0  0  0  0  0  0  0  0  0  0
    1.5306    0.7060   -3.3454 H   0  0  0  0  0  0  0  0  0  0  0  0
  5  6  2  0  0  0  0
  5  7  1  0  0  0  0
  2  3  1  0  0  0  0
  2  4  1  0  0  0  0
  2  5  1  0  0  0  0
  1  2  1  0  0  0  0
 21 22  2  0  0  0  0
 21 23  1  0  0  0  0
 19 20  1  0  0  0  0
 17 18  2  0  0  0  0
 17 19  1  0  0  0  0
 14 15  1  0  0  0  0
 14 16  1  0  0  0  0
 14 17  1  0  0  0  0
 11 12  1  0  0  0  0
 11 13  1  0  0  0  0
 11 14  1  0  0  0  0
  9 10  1  0  0  0  0
  9 11  1  0  0  0  0
  9 21  1  0  0  0  0
  7  8  1  0  0  0  0
  7  9  1  0  0  0  0
 25 26  1  0  0  0  0
 25 27  1  0  0  0  0
 25 28  1  0  0  0  0
 23 24  1  0  0  0  0
 23 25  1  0  0  0  0
M  END
$$$$
default_name
  -OEChem-01062215323D

 28 27  0     1  0  0  0  0  0999 V2000
   -3.2133   -3.5565    1.2809 H   0  0  0  0  0  0  0  0  0  0  0  0
   -3.1873   -2.5755    0.8089 C   0  0  0  0  0  0  0  0  0  0  0  0
   -3.8793   -1.9065    1.3169 H   0  0  0  0  0  0  0  0  0  0  0  0
   -3.4623   -2.6685   -0.2401 H   0  0  0  0  0  0  0  0  0  0  0  0
   -1.7863   -2.0195    0.9119 C   0  0  0  0  0  0  0  0  0  0  0  0
   -0.9073   -2.6615    1.4699 O   0  0  0  0  0  0  0  0  0  0  0  0
   -1.5803   -0.8195    0.3749 N   0  0  0  0  0  0  0  0  0  0  0  0
   -2.3603   -0.3345   -0.0451 H   0  0  0  0  0  0  0  0  0  0  0  0
   -0.2933   -0.1205    0.3719 C   0  0  1  0  0  0  0  0  0  0  0  0
   -0.3399    0.6999    1.0895 H   0  0  0  0  0  0  0  0  0  0  0  0
    0.8105   -1.0987    0.8230 C   0  0  0  0  0  0  0  0  0  0  0  0
    0.7599   -1.9839    0.1866 H   0  0  0  0  0  0  0  0  0  0  0  0
    1.7860   -0.6321    0.6783 H   0  0  0  0  0  0  0  0  0  0  0  0
    0.6920   -1.5376    2.2928 C   0  0  0  0  0  0  0  0  0  0  0  0
    0.7607   -0.6681    2.9466 H   0  0  0  0  0  0  0  0  0  0  0  0
   -0.2714   -2.0228    2.4448 H   0  0  0  0  0  0  0  0  0  0  0  0
    1.7863   -2.5222    2.6922 C   0  0  0  0  0  0  0  0  0  0  0  0
    2.5917   -3.0237    1.9242 O   0  0  0  0  0  0  0  0  0  0  0  0
    1.8264   -2.8462    3.9980 O   0  0  0  0  0  0  0  0  0  0  0  0
    2.5481   -3.4721    4.0795 H   0  0  0  0  0  0  0  0  0  0  0  0
   -0.0138    0.4766   -1.0165 C   0  0  0  0  0  0  0  0  0  0  0  0
   -0.9483    0.8194   -1.7383 O   0  0  0  0  0  0  0  0  0  0  0  0
    1.2663    0.5884   -1.3912 N   0  0  0  0  0  0  0  0  0  0  0  0
    1.9801    0.3070   -0.7358 H   0  0  0  0  0  0  0  0  0  0  0  0
    1.6952    1.1148   -2.6854 C   0  0  0  0  0  0  0  0  0  0  0  0
    1.2997    2.1226   -2.8237 H   0  0  0  0  0  0  0  0  0  0  0  0
    2.7844    1.1466   -2.7395 H   0  0  0  0  0  0  0  0  0  0  0  0
    1.3128    0.4795   -3.4867 H   0  0  0  0  0  0  0  0  0  0  0  0
  5  6  2  0  0  0  0
  5  7  1  0  0  0  0
  2  3  1  0  0  0  0
  2  4  1  0  0  0  0
  2  5  1  0  0  0  0
  1  2  1  0  0  0  0
 21 22  2  0  0  0  0
 21 23  1  0  0  0  0
 19 20  1  0  0  0  0
 17 18  2  0  0  0  0
 17 19  1  0  0  0  0
 14 15  1  0  0  0  0
 14 16  1  0  0  0  0
 14 17  1  0  0  0  0
 11 12  1  0  0  0  0
 11 13  1  0  0  0  0
 11 14  1  0  0  0  0
  9 10  1  0  0  0  0
  9 11  1  0  0  0  0
  9 21  1  0  0  0  0
  7  8  1  0  0  0  0
  7  9  1  0  0  0  0
 25 26  1  0  0  0  0
 25 27  1  0  0  0  0
 25 28  1  0  0  0  0
 23 24  1  0  0  0  0
 23 25  1  0  0  0  0
M  END
$$$$
default_name
  -OEChem-01062215323D

 28 27  0     1  0  0  0  0  0999 V2000
   -3.2133   -3.5565    1.2809 H   0  0  0  0  0  0  0  0  0  0  0  0
   -3.1873   -2.5755    0.8089 C   0  0  0  0  0  0  0  0  0  0  0  0
   -3.8793   -1.9065    1.3169 H   0  0  0  0  0  0  0  0  0  0  0  0
   -3.4623   -2.6685   -0.2401 H   0  0  0  0  0  0  0  0  0  0  0  0
   -1.7863   -2.0195    0.9119 C   0  0  0  0  0  0  0  0  0  0  0  0
   -0.9073   -2.6615    1.4699 O   0  0  0  0  0  0  0  0  0  0  0  0
   -1.5803   -0.8195    0.3749 N   0  0  0  0  0  0  0  0  0  0  0  0
   -2.3603   -0.3345   -0.0451 H   0  0  0  0  0  0  0  0  0  0  0  0
   -0.2933   -0.1205    0.3719 C   0  0  1  0  0  0  0  0  0  0  0  0
   -0.3399    0.6999    1.0895 H   0  0  0  0  0  0  0  0  0  0  0  0
    0.8105   -1.0987    0.8230 C   0  0  0  0  0  0  0  0  0  0  0  0
    0.7599   -1.9839    0.1866 H   0  0  0  0  0  0  0  0  0  0  0  0
    1.7860   -0.6321    0.6783 H   0  0  0  0  0  0  0  0  0  0  0  0
    0.6920   -1.5376    2.2928 C   0  0  0  0  0  0  0  0  0  0  0  0
    0.7607   -0.6681    2.9466 H   0  0  0  0  0  0  0  0  0  0  0  0
   -0.2714   -2.0228    2.4448 H   0  0  0  0  0  0  0  0  0  0  0  0
    1.7863   -2.5222    2.6922 C   0  0  0  0  0  0  0  0  0  0  0  0
    2.5917   -3.0237    1.9242 O   0  0  0  0  0  0  0  0  0  0  0  0
    1.8264   -2.8462    3.9980 O   0  0  0  0  0  0  0  0  0  0  0  0
    2.5481   -3.4721    4.0795 H   0  0  0  0  0  0  0  0  0  0  0  0
   -0.0138    0.4766   -1.0165 C   0  0  0  0  0  0  0  0  0  0  0  0
   -0.9051    1.0683   -1.6225 O   0  0  0  0  0  0  0  0  0  0  0  0
    1.2150    0.3111   -1.5208 N   0  0  0  0  0  0  0  0  0  0  0  0
    1.9010   -0.1660   -0.9552 H   0  0  0  0  0  0  0  0  0  0  0  0
    1.6312    0.7993   -2.8339 C   0  0  0  0  0  0  0  0  0  0  0  0
    1.4736    1.8777   -2.8940 H   0  0  0  0  0  0  0  0  0  0  0  0
    2.6868    0.5814   -3.0022 H   0  0  0  0  0  0  0  0  0  0  0  0
    1.0352    0.3182   -3.6119 H   0  0  0  0  0  0  0  0  0  0  0  0
  5  6  2  0  0  0  0
  5  7  1  0  0  0  0
  2  3  1  0  0  0  0
  2  4  1  0  0  0  0
  2  5  1  0  0  0  0
  1  2  1  0  0  0  0
 21 22  2  0  0  0  0
 21 23  1  0  0  0  0
 19 20  1  0  0  0  0
 17 18  2  0  0  0  0
 17 19  1  0  0  0  0
 14 15  1  0  0  0  0
 14 16  1  0  0  0  0
 14 17  1  0  0  0  0
 11 12  1  0  0  0  0
 11 13  1  0  0  0  0
 11 14  1  0  0  0  0
  9 10  1  0  0  0  0
  9 11  1  0  0  0  0
  9 21  1  0  0  0  0
  7  8  1  0  0  0  0
  7  9  1  0  0  0  0
 25 26  1  0  0  0  0
 25 27  1  0  0  0  0
 25 28  1  0  0  0  0
 23 24  1  0  0  0  0
 23 25  1  0  0  0  0
M  END
$$$$
default_name
  -OEChem-01062215323D

 28 27  0     1  0  0  0  0  0999 V2000
   -3.2133   -3.5565    1.2809 H   0  0  0  0  0  0  0  0  0  0  0  0
   -3.1873   -2.5755    0.8089 C   0  0  0  0  0  0  0  0  0  0  0  0
   -3.8793   -1.9065    1.3169 H   0  0  0  0  0  0  0  0  0  0  0  0
   -3.4623   -2.6685   -0.2401 H   0  0  0  0  0  0  0  0  0  0  0  0
   -1.7863   -2.0195    0.9119 C   0  0  0  0  0  0  0  0  0  0  0  0
   -0.9073   -2.6615    1.4699 O   0  0  0  0  0  0  0  0  0  0  0  0
   -1.5803   -0.8195    0.3749 N   0  0  0  0  0  0  0  0  0  0  0  0
   -2.3603   -0.3345   -0.0451 H   0  0  0  0  0  0  0  0  0  0  0  0
   -0.2933   -0.1205    0.3719 C   0  0  1  0  0  0  0  0  0  0  0  0
   -0.3399    0.6999    1.0895 H   0  0  0  0  0  0  0  0  0  0  0  0
    0.8105   -1.0987    0.8230 C   0  0  0  0  0  0  0  0  0  0  0  0
    0.7599   -1.9839    0.1866 H   0  0  0  0  0  0  0  0  0  0  0  0
    1.7860   -0.6321    0.6783 H   0  0  0  0  0  0  0  0  0  0  0  0
    0.6920   -1.5376    2.2928 C   0  0  0  0  0  0  0  0  0  0  0  0
    0.7607   -0.6681    2.9466 H   0  0  0  0  0  0  0  0  0  0  0  0
   -0.2714   -2.0228    2.4448 H   0  0  0  0  0  0  0  0  0  0  0  0
    1.7863   -2.5222    2.6922 C   0  0  0  0  0  0  0  0  0  0  0  0
    2.5917   -3.0237    1.9242 O   0  0  0  0  0  0  0  0  0  0  0  0
    1.8264   -2.8462    3.9980 O   0  0  0  0  0  0  0  0  0  0  0  0
    2.5481   -3.4721    4.0795 H   0  0  0  0  0  0  0  0  0  0  0  0
   -0.0138    0.4766   -1.0165 C   0  0  0  0  0  0  0  0  0  0  0  0
   -0.7935    1.2932   -1.5033 O   0  0  0  0  0  0  0  0  0  0  0  0
    1.0875    0.0613   -1.6539 N   0  0  0  0  0  0  0  0  0  0  0  0
    1.6919   -0.5941   -1.1814 H   0  0  0  0  0  0  0  0  0  0  0  0
    1.4807    0.5166   -2.9858 C   0  0  0  0  0  0  0  0  0  0  0  0
    1.5773    1.6038   -2.9910 H   0  0  0  0  0  0  0  0  0  0  0  0
    2.4340    0.0707   -3.2727 H   0  0  0  0  0  0  0  0  0  0  0  0
    0.7168    0.2333   -3.7126 H   0  0  0  0  0  0  0  0  0  0  0  0
  5  6  2  0  0  0  0
  5  7  1  0  0  0  0
  2  3  1  0  0  0  0
  2  4  1  0  0  0  0
  2  5  1  0  0  0  0
  1  2  1  0  0  0  0
 21 22  2  0  0  0  0
 21 23  1  0  0  0  0
 19 20  1  0  0  0  0
 17 18  2  0  0  0  0
 17 19  1  0  0  0  0
 14 15  1  0  0  0  0
 14 16  1  0  0  0  0
 14 17  1  0  0  0  0
 11 12  1  0  0  0  0
 11 13  1  0  0  0  0
 11 14  1  0  0  0  0
  9 10  1  0  0  0  0
  9 11  1  0  0  0  0
  9 21  1  0  0  0  0
  7  8  1  0  0  0  0
  7  9  1  0  0  0  0
 25 26  1  0  0  0  0
 25 27  1  0  0  0  0
 25 28  1  0  0  0  0
 23 24  1  0  0  0  0
 23 25  1  0  0  0  0
M  END
$$$$
default_name
  -OEChem-01062215323D

 28 27  0     1  0  0  0  0  0999 V2000
   -3.2133   -3.5565    1.2809 H   0  0  0  0  0  0  0  0  0  0  0  0
   -3.1873   -2.5755    0.8089 C   0  0  0  0  0  0  0  0  0  0  0  0
   -3.8793   -1.9065    1.3169 H   0  0  0  0  0  0  0  0  0  0  0  0
   -3.4623   -2.6685   -0.2401 H   0  0  0  0  0  0  0  0  0  0  0  0
   -1.7863   -2.0195    0.9119 C   0  0  0  0  0  0  0  0  0  0  0  0
   -0.9073   -2.6615    1.4699 O   0  0  0  0  0  0  0  0  0  0  0  0
   -1.5803   -0.8195    0.3749 N   0  0  0  0  0  0  0  0  0  0  0  0
   -2.3603   -0.3345   -0.0451 H   0  0  0  0  0  0  0  0  0  0  0  0
   -0.2933   -0.1205    0.3719 C   0  0  1  0  0  0  0  0  0  0  0  0
   -0.3399    0.6999    1.0895 H   0  0  0  0  0  0  0  0  0  0  0  0
    0.8105   -1.0987    0.8230 C   0  0  0  0  0  0  0  0  0  0  0  0
    0.7599   -1.9839    0.1866 H   0  0  0  0  0  0  0  0  0  0  0  0
    1.7860   -0.6321    0.6783 H   0  0  0  0  0  0  0  0  0  0  0  0
    0.6920   -1.5376    2.2928 C   0  0  0  0  0  0  0  0  0  0  0  0
    0.7607   -0.6681    2.9466 H   0  0  0  0  0  0  0  0  0  0  0  0
   -0.2714   -2.0228    2.4448 H   0  0  0  0  0  0  0  0  0  0  0  0
    1.7863   -2.5222    2.6922 C   0  0  0  0  0  0  0  0  0  0  0  0
    2.5917   -3.0237    1.9242 O   0  0  0  0  0  0  0  0  0  0  0  0
    1.8264   -2.8462    3.9980 O   0  0  0  0  0  0  0  0  0  0  0  0
    2.5481   -3.4721    4.0795 H   0  0  0  0  0  0  0  0  0  0  0  0
   -0.0138    0.4766   -1.0165 C   0  0  0  0  0  0  0  0  0  0  0  0
   -0.6211    1.4788   -1.3889 O   0  0  0  0  0  0  0  0  0  0  0  0
    0.8926   -0.1439   -1.7813 N   0  0  0  0  0  0  0  0  0  0  0  0
    1.3672   -0.9481   -1.3990 H   0  0  0  0  0  0  0  0  0  0  0  0
    1.2539    0.2859   -3.1307 C   0  0  0  0  0  0  0  0  0  0  0  0
    1.6036    1.3196   -3.1079 H   0  0  0  0  0  0  0  0  0  0  0  0
    2.0433   -0.3509   -3.5326 H   0  0  0  0  0  0  0  0  0  0  0  0
    0.3793    0.2304   -3.7818 H   0  0  0  0  0  0  0  0  0  0  0  0
  5  6  2  0  0  0  0
  5  7  1  0  0  0  0
  2  3  1  0  0  0  0
  2  4  1  0  0  0  0
  2  5  1  0  0  0  0
  1  2  1  0  0  0  0
 21 22  2  0  0  0  0
 21 23  1  0  0  0  0
 19 20  1  0  0  0  0
 17 18  2  0  0  0  0
 17 19  1  0  0  0  0
 14 15  1  0  0  0  0
 14 16  1  0  0  0  0
 14 17  1  0  0  0  0
 11 12  1  0  0  0  0
 11 13  1  0  0  0  0
 11 14  1  0  0  0  0
  9 10  1  0  0  0  0
  9 11  1  0  0  0  0
  9 21  1  0  0  0  0
  7  8  1  0  0  0  0
  7  9  1  0  0  0  0
 25 26  1  0  0  0  0
 25 27  1  0  0  0  0
 25 28  1  0  0  0  0
 23 24  1  0  0  0  0
 23 25  1  0  0  0  0
M  END
$$$$
default_name
  -OEChem-01062215323D

 28 27  0     1  0  0  0  0  0999 V2000
   -3.2133   -3.5565    1.2809 H   0  0  0  0  0  0  0  0  0  0  0  0
   -3.1873   -2.5755    0.8089 C   0  0  0  0  0  0  0  0  0  0  0  0
   -3.8793   -1.9065    1.3169 H   0  0  0  0  0  0  0  0  0  0  0  0
   -3.4623   -2.6685   -0.2401 H   0  0  0  0  0  0  0  0  0  0  0  0
   -1.7863   -2.0195    0.9119 C   0  0  0  0  0  0  0  0  0  0  0  0
   -0.9073   -2.6615    1.4699 O   0  0  0  0  0  0  0  0  0  0  0  0
   -1.5803   -0.8195    0.3749 N   0  0  0  0  0  0  0  0  0  0  0  0
   -2.3603   -0.3345   -0.0451 H   0  0  0  0  0  0  0  0  0  0  0  0
   -0.2933   -0.1205    0.3719 C   0  0  1  0  0  0  0  0  0  0  0  0
   -0.3399    0.6999    1.0895 H   0  0  0  0  0  0  0  0  0  0  0  0
    0.8105   -1.0987    0.8230 C   0  0  0  0  0  0  0  0  0  0  0  0
    0.7599   -1.9839    0.1866 H   0  0  0  0  0  0  0  0  0  0  0  0
    1.7860   -0.6321    0.6783 H   0  0  0  0  0  0  0  0  0  0  0  0
    0.6920   -1.5376    2.2928 C   0  0  0  0  0  0  0  0  0  0  0  0
    0.7607   -0.6681    2.9466 H   0  0  0  0  0  0  0  0  0  0  0  0
   -0.2714   -2.0228    2.4448 H   0  0  0  0  0  0  0  0  0  0  0  0
    1.7863   -2.5222    2.6922 C   0  0  0  0  0  0  0  0  0  0  0  0
    2.5917   -3.0237    1.9242 O   0  0  0  0  0  0  0  0  0  0  0  0
    1.8264   -2.8462    3.9980 O   0  0  0  0  0  0  0  0  0  0  0  0
    2.5481   -3.4721    4.0795 H   0  0  0  0  0  0  0  0  0  0  0  0
   -0.0138    0.4766   -1.0165 C   0  0  0  0  0  0  0  0  0  0  0  0
   -0.3998    1.6123   -1.2869 O   0  0  0  0  0  0  0  0  0  0  0  0
    0.6436   -0.2905   -1.8945 N   0  0  0  0  0  0  0  0  0  0  0  0
    0.9488   -1.2039   -1.5932 H   0  0  0  0  0  0  0  0  0  0  0  0
    0.9663    0.1228   -3.2587 C   0  0  0  0  0  0  0  0  0  0  0  0
    1.5509    1.0444   -3.2369 H   0  0  0  0  0  0  0  0  0  0  0  0
    1.5411   -0.6544   -3.7642 H   0  0  0  0  0  0  0  0  0  0  0  0
    0.0456    0.3097   -3.8148 H   0  0  0  0  0  0  0  0  0  0  0  0
  5  6  2  0  0  0  0
  5  7  1  0  0  0  0
  2  3  1  0  0  0  0
  2  4  1  0  0  0  0
  2  5  1  0  0  0  0
  1  2  1  0  0  0  0
 21 22  2  0  0  0  0
 21 23  1  0  0  0  0
 19 20  1  0  0  0  0
 17 18  2  0  0  0  0
 17 19  1  0  0  0  0
 14 15  1  0  0  0  0
 14 16  1  0  0  0  0
 14 17  1  0  0  0  0
 11 12  1  0  0  0  0
 11 13  1  0  0  0  0
 11 14  1  0  0  0  0
  9 10  1  0  0  0  0
  9 11  1  0  0  0  0
  9 21  1  0  0  0  0
  7  8  1  0  0  0  0
  7  9  1  0  0  0  0
 25 26  1  0  0  0  0
 25 27  1  0  0  0  0
 25 28  1  0  0  0  0
 23 24  1  0  0  0  0
 23 25  1  0  0  0  0
M  END
$$$$
default_name
  -OEChem-01062215323D

 28 27  0     1  0  0  0  0  0999 V2000
   -3.2133   -3.5565    1.2809 H   0  0  0  0  0  0  0  0  0  0  0  0
   -3.1873   -2.5755    0.8089 C   0  0  0  0  0  0  0  0  0  0  0  0
   -3.8793   -1.9065    1.3169 H   0  0  0  0  0  0  0  0  0  0  0  0
   -3.4623   -2.6685   -0.2401 H   0  0  0  0  0  0  0  0  0  0  0  0
   -1.7863   -2.0195    0.9119 C   0  0  0  0  0  0  0  0  0  0  0  0
   -0.9073   -2.6615    1.4699 O   0  0  0  0  0  0  0  0  0  0  0  0
   -1.5803   -0.8195    0.3749 N   0  0  0  0  0  0  0  0  0  0  0  0
   -2.3603   -0.3345   -0.0451 H   0  0  0  0  0  0  0  0  0  0  0  0
   -0.2933   -0.1205    0.3719 C   0  0  1  0  0  0  0  0  0  0  0  0
   -0.3399    0.6999    1.0895 H   0  0  0  0  0  0  0  0  0  0  0  0
    0.8105   -1.0987    0.8230 C   0  0  0  0  0  0  0  0  0  0  0  0
    0.7599   -1.9839    0.1866 H   0  0  0  0  0  0  0  0  0  0  0  0
    1.7860   -0.6321    0.6783 H   0  0  0  0  0  0  0  0  0  0  0  0
    0.6920   -1.5376    2.2928 C   0  0  0  0  0  0  0  0  0  0  0  0
    0.7607   -0.6681    2.9466 H   0  0  0  0  0  0  0  0  0  0  0  0
   -0.2714   -2.0228    2.4448 H   0  0  0  0  0  0  0  0  0  0  0  0
    1.7863   -2.5222    2.6922 C   0  0  0  0  0  0  0  0  0  0  0  0
    2.5917   -3.0237    1.9242 O   0  0  0  0  0  0  0  0  0  0  0  0
    1.8264   -2.8462    3.9980 O   0  0  0  0  0  0  0  0  0  0  0  0
    2.5481   -3.4721    4.0795 H   0  0  0  0  0  0  0  0  0  0  0  0
   -0.0138    0.4766   -1.0165 C   0  0  0  0  0  0  0  0  0  0  0  0
   -0.1445    1.6847   -1.2044 O   0  0  0  0  0  0  0  0  0  0  0  0
    0.3573   -0.3686   -1.9857 N   0  0  0  0  0  0  0  0  0  0  0  0
    0.4654   -1.3440   -1.7507 H   0  0  0  0  0  0  0  0  0  0  0  0
    0.6376    0.0386   -3.3611 C   0  0  0  0  0  0  0  0  0  0  0  0
    1.4226    0.7969   -3.3691 H   0  0  0  0  0  0  0  0  0  0  0  0
    0.9618   -0.8193   -3.9518 H   0  0  0  0  0  0  0  0  0  0  0  0
   -0.2615    0.4660   -3.8094 H   0  0  0  0  0  0  0  0  0  0  0  0
  5  6  2  0  0  0  0
  5  7  1  0  0  0  0
  2  3  1  0  0  0  0
  2  4  1  0  0  0  0
  2  5  1  0  0  0  0
  1  2  1  0  0  0  0
 21 22  2  0  0  0  0
 21 23  1  0  0  0  0
 19 20  1  0  0  0  0
 17 18  2  0  0  0  0
 17 19  1  0  0  0  0
 14 15  1  0  0  0  0
 14 16  1  0  0  0  0
 14 17  1  0  0  0  0
 11 12  1  0  0  0  0
 11 13  1  0  0  0  0
 11 14  1  0  0  0  0
  9 10  1  0  0  0  0
  9 11  1  0  0  0  0
  9 21  1  0  0  0  0
  7  8  1  0  0  0  0
  7  9  1  0  0  0  0
 25 26  1  0  0  0  0
 25 27  1  0  0  0  0
 25 28  1  0  0  0  0
 23 24  1  0  0  0  0
 23 25  1  0  0  0  0
M  END
$$$$
default_name
  -OEChem-01062215323D

 28 27  0     1  0  0  0  0  0999 V2000
   -3.2133   -3.5565    1.2809 H   0  0  0  0  0  0  0  0  0  0  0  0
   -3.1873   -2.5755    0.8089 C   0  0  0  0  0  0  0  0  0  0  0  0
   -3.8793   -1.9065    1.3169 H   0  0  0  0  0  0  0  0  0  0  0  0
   -3.4623   -2.6685   -0.2401 H   0  0  0  0  0  0  0  0  0  0  0  0
   -1.7863   -2.0195    0.9119 C   0  0  0  0  0  0  0  0  0  0  0  0
   -0.9073   -2.6615    1.4699 O   0  0  0  0  0  0  0  0  0  0  0  0
   -1.5803   -0.8195    0.3749 N   0  0  0  0  0  0  0  0  0  0  0  0
   -2.3603   -0.3345   -0.0451 H   0  0  0  0  0  0  0  0  0  0  0  0
   -0.2933   -0.1205    0.3719 C   0  0  1  0  0  0  0  0  0  0  0  0
   -0.3399    0.6999    1.0895 H   0  0  0  0  0  0  0  0  0  0  0  0
    0.8105   -1.0987    0.8230 C   0  0  0  0  0  0  0  0  0  0  0  0
    0.7599   -1.9839    0.1866 H   0  0  0  0  0  0  0  0  0  0  0  0
    1.7860   -0.6321    0.6783 H   0  0  0  0  0  0  0  0  0  0  0  0
    0.6920   -1.5376    2.2928 C   0  0  0  0  0  0  0  0  0  0  0  0
    0.7607   -0.6681    2.9466 H   0  0  0  0  0  0  0  0  0  0  0  0
   -0.2714   -2.0228    2.4448 H   0  0  0  0  0  0  0  0  0  0  0  0
    1.7863   -2.5222    2.6922 C   0  0  0  0  0  0  0  0  0  0  0  0
    2.5917   -3.0237    1.9242 O   0  0  0  0  0  0  0  0  0  0  0  0
    1.8264   -2.8462    3.9980 O   0  0  0  0  0  0  0  0  0  0  0  0
    2.5481   -3.4721    4.0795 H   0  0  0  0  0  0  0  0  0  0  0  0
   -0.0138    0.4766   -1.0165 C   0  0  0  0  0  0  0  0  0  0  0  0
    0.1273    1.6911   -1.1469 O   0  0  0  0  0  0  0  0  0  0  0  0
    0.0534   -0.3728   -2.0487 N   0  0  0  0  0  0  0  0  0  0  0  0
   -0.0501   -1.3588   -1.8609 H   0  0  0  0  0  0  0  0  0  0  0  0
    0.2900    0.0389   -3.4309 C   0  0  0  0  0  0  0  0  0  0  0  0
    1.2276    0.5941   -3.4956 H   0  0  0  0  0  0  0  0  0  0  0  0
    0.3449   -0.8344   -4.0824 H   0  0  0  0  0  0  0  0  0  0  0  0
   -0.5210    0.6884   -3.7660 H   0  0  0  0  0  0  0  0  0  0  0  0
  5  6  2  0  0  0  0
  5  7  1  0  0  0  0
  2  3  1  0  0  0  0
  2  4  1  0  0  0  0
  2  5  1  0  0  0  0
  1  2  1  0  0  0  0
 21 22  2  0  0  0  0
 21 23  1  0  0  0  0
 19 20  1  0  0  0  0
 17 18  2  0  0  0  0
 17 19  1  0  0  0  0
 14 15  1  0  0  0  0
 14 16  1  0  0  0  0
 14 17  1  0  0  0  0
 11 12  1  0  0  0  0
 11 13  1  0  0  0  0
 11 14  1  0  0  0  0
  9 10  1  0  0  0  0
  9 11  1  0  0  0  0
  9 21  1  0  0  0  0
  7  8  1  0  0  0  0
  7  9  1  0  0  0  0
 25 26  1  0  0  0  0
 25 27  1  0  0  0  0
 25 28  1  0  0  0  0
 23 24  1  0  0  0  0
 23 25  1  0  0  0  0
M  END
$$$$
default_name
  -OEChem-01062215323D

 28 27  0     1  0  0  0  0  0999 V2000
   -3.2133   -3.5565    1.2809 H   0  0  0  0  0  0  0  0  0  0  0  0
   -3.1873   -2.5755    0.8089 C   0  0  0  0  0  0  0  0  0  0  0  0
   -3.8793   -1.9065    1.3169 H   0  0  0  0  0  0  0  0  0  0  0  0
   -3.4623   -2.6685   -0.2401 H   0  0  0  0  0  0  0  0  0  0  0  0
   -1.7863   -2.0195    0.9119 C   0  0  0  0  0  0  0  0  0  0  0  0
   -0.9073   -2.6615    1.4699 O   0  0  0  0  0  0  0  0  0  0  0  0
   -1.5803   -0.8195    0.3749 N   0  0  0  0  0  0  0  0  0  0  0  0
   -2.3603   -0.3345   -0.0451 H   0  0  0  0  0  0  0  0  0  0  0  0
   -0.2933   -0.1205    0.3719 C   0  0  1  0  0  0  0  0  0  0  0  0
   -0.3399    0.6999    1.0895 H   0  0  0  0  0  0  0  0  0  0  0  0
    0.8105   -1.0987    0.8230 C   0  0  0  0  0  0  0  0  0  0  0  0
    0.7599   -1.9839    0.1866 H   0  0  0  0  0  0  0  0  0  0  0  0
    1.7860   -0.6321    0.6783 H   0  0  0  0  0  0  0  0  0  0  0  0
    0.6920   -1.5376    2.2928 C   0  0  0  0  0  0  0  0  0  0  0  0
    0.7607   -0.6681    2.9466 H   0  0  0  0  0  0  0  0  0  0  0  0
   -0.2714   -2.0228    2.4448 H   0  0  0  0  0  0  0  0  0  0  0  0
    1.7863   -2.5222    2.6922 C   0  0  0  0  0  0  0  0  0  0  0  0
    2.5917   -3.0237    1.9242 O   0  0  0  0  0  0  0  0  0  0  0  0
    1.8264   -2.8462    3.9980 O   0  0  0  0  0  0  0  0  0  0  0  0
    2.5481   -3.4721    4.0795 H   0  0  0  0  0  0  0  0  0  0  0  0
   -0.0138    0.4766   -1.0165 C   0  0  0  0  0  0  0  0  0  0  0  0
    0.3972    1.6310   -1.1184 O   0  0  0  0  0  0  0  0  0  0  0  0
   -0.2475   -0.3029   -2.0792 N   0  0  0  0  0  0  0  0  0  0  0  0
   -0.5627   -1.2475   -1.9162 H   0  0  0  0  0  0  0  0  0  0  0  0
   -0.0526    0.1238   -3.4634 C   0  0  0  0  0  0  0  0  0  0  0  0
    0.9790    0.4498   -3.6077 H   0  0  0  0  0  0  0  0  0  0  0  0
   -0.2677   -0.6985   -4.1473 H   0  0  0  0  0  0  0  0  0  0  0  0
   -0.7154    0.9620   -3.6875 H   0  0  0  0  0  0  0  0  0  0  0  0
  5  6  2  0  0  0  0
  5  7  1  0  0  0  0
  2  3  1  0  0  0  0
  2  4  1  0  0  0  0
  2  5  1  0  0  0  0
  1  2  1  0  0  0  0
 21 22  2  0  0  0  0
 21 23  1  0  0  0  0
 19 20  1  0  0  0  0
 17 18  2  0  0  0  0
 17 19  1  0  0  0  0
 14 15  1  0  0  0  0
 14 16  1  0  0  0  0
 14 17  1  0  0  0  0
 11 12  1  0  0  0  0
 11 13  1  0  0  0  0
 11 14  1  0  0  0  0
  9 10  1  0  0  0  0
  9 11  1  0  0  0  0
  9 21  1  0  0  0  0
  7  8  1  0  0  0  0
  7  9  1  0  0  0  0
 25 26  1  0  0  0  0
 25 27  1  0  0  0  0
 25 28  1  0  0  0  0
 23 24  1  0  0  0  0
 23 25  1  0  0  0  0
M  END
$$$$
default_name
  -OEChem-01062215323D

 28 27  0     1  0  0  0  0  0999 V2000
   -3.2133   -3.5565    1.2809 H   0  0  0  0  0  0  0  0  0  0  0  0
   -3.1873   -2.5755    0.8089 C   0  0  0  0  0  0  0  0  0  0  0  0
   -3.8793   -1.9065    1.3169 H   0  0  0  0  0  0  0  0  0  0  0  0
   -3.4623   -2.6685   -0.2401 H   0  0  0  0  0  0  0  0  0  0  0  0
   -1.7863   -2.0195    0.9119 C   0  0  0  0  0  0  0  0  0  0  0  0
   -0.9073   -2.6615    1.4699 O   0  0  0  0  0  0  0  0  0  0  0  0
   -1.5803   -0.8195    0.3749 N   0  0  0  0  0  0  0  0  0  0  0  0
   -2.3603   -0.3345   -0.0451 H   0  0  0  0  0  0  0  0  0  0  0  0
   -0.2933   -0.1205    0.3719 C   0  0  1  0  0  0  0  0  0  0  0  0
   -0.3399    0.6999    1.0895 H   0  0  0  0  0  0  0  0  0  0  0  0
    0.8105   -1.0987    0.8230 C   0  0  0  0  0  0  0  0  0  0  0  0
    0.7599   -1.9839    0.1866 H   0  0  0  0  0  0  0  0  0  0  0  0
    1.7860   -0.6321    0.6783 H   0  0  0  0  0  0  0  0  0  0  0  0
    0.6920   -1.5376    2.2928 C   0  0  0  0  0  0  0  0  0  0  0  0
    0.7607   -0.6681    2.9466 H   0  0  0  0  0  0  0  0  0  0  0  0
   -0.2714   -2.0228    2.4448 H   0  0  0  0  0  0  0  0  0  0  0  0
    1.7863   -2.5222    2.6922 C   0  0  0  0  0  0  0  0  0  0  0  0
    2.5917   -3.0237    1.9242 O   0  0  0  0  0  0  0  0  0  0  0  0
    1.8264   -2.8462    3.9980 O   0  0  0  0  0  0  0  0  0  0  0  0
    2.5481   -3.4721    4.0795 H   0  0  0  0  0  0  0  0  0  0  0  0
   -0.0138    0.4766   -1.0165 C   0  0  0  0  0  0  0  0  0  0  0  0
    0.6466    1.5085   -1.1209 O   0  0  0  0  0  0  0  0  0  0  0  0
   -0.5248   -0.1636   -2.0751 N   0  0  0  0  0  0  0  0  0  0  0  0
   -1.0373   -1.0175   -1.9128 H   0  0  0  0  0  0  0  0  0  0  0  0
   -0.3670    0.2874   -3.4563 C   0  0  0  0  0  0  0  0  0  0  0  0
    0.6940    0.3738   -3.6978 H   0  0  0  0  0  0  0  0  0  0  0  0
   -0.8342   -0.4209   -4.1420 H   0  0  0  0  0  0  0  0  0  0  0  0
   -0.8312    1.2679   -3.5792 H   0  0  0  0  0  0  0  0  0  0  0  0
  5  6  2  0  0  0  0
  5  7  1  0  0  0  0
  2  3  1  0  0  0  0
  2  4  1  0  0  0  0
  2  5  1  0  0  0  0
  1  2  1  0  0  0  0
 21 22  2  0  0  0  0
 21 23  1  0  0  0  0
 19 20  1  0  0  0  0
 17 18  2  0  0  0  0
 17 19  1  0  0  0  0
 14 15  1  0  0  0  0
 14 16  1  0  0  0  0
 14 17  1  0  0  0  0
 11 12  1  0  0  0  0
 11 13  1  0  0  0  0
 11 14  1  0  0  0  0
  9 10  1  0  0  0  0
  9 11  1  0  0  0  0
  9 21  1  0  0  0  0
  7  8  1  0  0  0  0
  7  9  1  0  0  0  0
 25 26  1  0  0  0  0
 25 27  1  0  0  0  0
 25 28  1  0  0  0  0
 23 24  1  0  0  0  0
 23 25  1  0  0  0  0
M  END
$$$$
default_name
  -OEChem-01062215323D

 28 27  0     1  0  0  0  0  0999 V2000
   -3.2133   -3.5565    1.2809 H   0  0  0  0  0  0  0  0  0  0  0  0
   -3.1873   -2.5755    0.8089 C   0  0  0  0  0  0  0  0  0  0  0  0
   -3.8793   -1.9065    1.3169 H   0  0  0  0  0  0  0  0  0  0  0  0
   -3.4623   -2.6685   -0.2401 H   0  0  0  0  0  0  0  0  0  0  0  0
   -1.7863   -2.0195    0.9119 C   0  0  0  0  0  0  0  0  0  0  0  0
   -0.9073   -2.6615    1.4699 O   0  0  0  0  0  0  0  0  0  0  0  0
   -1.5803   -0.8195    0.3749 N   0  0  0  0  0  0  0  0  0  0  0  0
   -2.3603   -0.3345   -0.0451 H   0  0  0  0  0  0  0  0  0  0  0  0
   -0.2933   -0.1205    0.3719 C   0  0  1  0  0  0  0  0  0  0  0  0
   -0.3399    0.6999    1.0895 H   0  0  0  0  0  0  0  0  0  0  0  0
    0.8105   -1.0987    0.8230 C   0  0  0  0  0  0  0  0  0  0  0  0
    0.7599   -1.9839    0.1866 H   0  0  0  0  0  0  0  0  0  0  0  0
    1.7860   -0.6321    0.6783 H   0  0  0  0  0  0  0  0  0  0  0  0
    0.6920   -1.5376    2.2928 C   0  0  0  0  0  0  0  0  0  0  0  0
    0.7607   -0.6681    2.9466 H   0  0  0  0  0  0  0  0  0  0  0  0
   -0.2714   -2.0228    2.4448 H   0  0  0  0  0  0  0  0  0  0  0  0
    1.7863   -2.5222    2.6922 C   0  0  0  0  0  0  0  0  0  0  0  0
    2.5917   -3.0237    1.9242 O   0  0  0  0  0  0  0  0  0  0  0  0
    1.8264   -2.8462    3.9980 O   0  0  0  0  0  0  0  0  0  0  0  0
    2.5481   -3.4721    4.0795 H   0  0  0  0  0  0  0  0  0  0  0  0
   -0.0138    0.4766   -1.0165 C   0  0  0  0  0  0  0  0  0  0  0  0
    0.8587    1.3320   -1.1541 O   0  0  0  0  0  0  0  0  0  0  0  0
   -0.7597    0.0357   -2.0367 N   0  0  0  0  0  0  0  0  0  0  0  0
   -1.4416   -0.6846   -1.8510 H   0  0  0  0  0  0  0  0  0  0  0  0
   -0.6317    0.5186   -3.4102 C   0  0  0  0  0  0  0  0  0  0  0  0
    0.3918    0.3712   -3.7597 H   0  0  0  0  0  0  0  0  0  0  0  0
   -1.3159   -0.0207   -4.0668 H   0  0  0  0  0  0  0  0  0  0  0  0
   -0.8607    1.5854   -3.4486 H   0  0  0  0  0  0  0  0  0  0  0  0
  5  6  2  0  0  0  0
  5  7  1  0  0  0  0
  2  3  1  0  0  0  0
  2  4  1  0  0  0  0
  2  5  1  0  0  0  0
  1  2  1  0  0  0  0
 21 22  2  0  0  0  0
 21 23  1  0  0  0  0
 19 20  1  0  0  0  0
 17 18  2  0  0  0  0
 17 19  1  0  0  0  0
 14 15  1  0  0  0  0
 14 16  1  0  0  0  0
 14 17  1  0  0  0  0
 11 12  1  0  0  0  0
 11 13  1  0  0  0  0
 11 14  1  0  0  0  0
  9 10  1  0  0  0  0
  9 11  1  0  0  0  0
  9 21  1  0  0  0  0
  7  8  1  0  0  0  0
  7  9  1  0  0  0  0
 25 26  1  0  0  0  0
 25 27  1  0  0  0  0
 25 28  1  0  0  0  0
 23 24  1  0  0  0  0
 23 25  1  0  0  0  0
M  END
$$$$
default_name
  -OEChem-01062215323D

 28 27  0     1  0  0  0  0  0999 V2000
   -3.2133   -3.5565    1.2809 H   0  0  0  0  0  0  0  0  0  0  0  0
   -3.1873   -2.5755    0.8089 C   0  0  0  0  0  0  0  0  0  0  0  0
   -3.8793   -1.9065    1.3169 H   0  0  0  0  0  0  0  0  0  0  0  0
   -3.4623   -2.6685   -0.2401 H   0  0  0  0  0  0  0  0  0  0  0  0
   -1.7863   -2.0195    0.9119 C   0  0  0  0  0  0  0  0  0  0  0  0
   -0.9073   -2.6615    1.4699 O   0  0  0  0  0  0  0  0  0  0  0  0
   -1.5803   -0.8195    0.3749 N   0  0  0  0  0  0  0  0  0  0  0  0
   -2.3603   -0.3345   -0.0451 H   0  0  0  0  0  0  0  0  0  0  0  0
   -0.2933   -0.1205    0.3719 C   0  0  1  0  0  0  0  0  0  0  0  0
   -0.3399    0.6999    1.0895 H   0  0  0  0  0  0  0  0  0  0  0  0
    0.8105   -1.0987    0.8230 C   0  0  0  0  0  0  0  0  0  0  0  0
    0.7599   -1.9839    0.1866 H   0  0  0  0  0  0  0  0  0  0  0  0
    1.7860   -0.6321    0.6783 H   0  0  0  0  0  0  0  0  0  0  0  0
    0.6920   -1.5376    2.2928 C   0  0  0  0  0  0  0  0  0  0  0  0
    0.7607   -0.6681    2.9466 H   0  0  0  0  0  0  0  0  0  0  0  0
   -0.2714   -2.0228    2.4448 H   0  0  0  0  0  0  0  0  0  0  0  0
    1.7863   -2.5222    2.6922 C   0  0  0  0  0  0  0  0  0  0  0  0
    2.5917   -3.0237    1.9242 O   0  0  0  0  0  0  0  0  0  0  0  0
    1.8264   -2.8462    3.9980 O   0  0  0  0  0  0  0  0  0  0  0  0
    2.5481   -3.4721    4.0795 H   0  0  0  0  0  0  0  0  0  0  0  0
   -0.0138    0.4766   -1.0165 C   0  0  0  0  0  0  0  0  0  0  0  0
    1.0189    1.1135   -1.2158 O   0  0  0  0  0  0  0  0  0  0  0  0
   -0.9361    0.2812   -1.9666 N   0  0  0  0  0  0  0  0  0  0  0  0
   -1.7480   -0.2713   -1.7350 H   0  0  0  0  0  0  0  0  0  0  0  0
   -0.8287    0.8016   -3.3281 C   0  0  0  0  0  0  0  0  0  0  0  0
    0.0930    0.4423   -3.7892 H   0  0  0  0  0  0  0  0  0  0  0  0
   -1.6801    0.4750   -3.9269 H   0  0  0  0  0  0  0  0  0  0  0  0
   -0.8018    1.8928   -3.3046 H   0  0  0  0  0  0  0  0  0  0  0  0
  5  6  2  0  0  0  0
  5  7  1  0  0  0  0
  2  3  1  0  0  0  0
  2  4  1  0  0  0  0
  2  5  1  0  0  0  0
  1  2  1  0  0  0  0
 21 22  2  0  0  0  0
 21 23  1  0  0  0  0
 19 20  1  0  0  0  0
 17 18  2  0  0  0  0
 17 19  1  0  0  0  0
 14 15  1  0  0  0  0
 14 16  1  0  0  0  0
 14 17  1  0  0  0  0
 11 12  1  0  0  0  0
 11 13  1  0  0  0  0
 11 14  1  0  0  0  0
  9 10  1  0  0  0  0
  9 11  1  0  0  0  0
  9 21  1  0  0  0  0
  7  8  1  0  0  0  0
  7  9  1  0  0  0  0
 25 26  1  0  0  0  0
 25 27  1  0  0  0  0
 25 28  1  0  0  0  0
 23 24  1  0  0  0  0
 23 25  1  0  0  0  0
M  END
$$$$
default_name
  -OEChem-01062215323D

 28 27  0     1  0  0  0  0  0999 V2000
   -3.2133   -3.5565    1.2809 H   0  0  0  0  0  0  0  0  0  0  0  0
   -3.1873   -2.5755    0.8089 C   0  0  0  0  0  0  0  0  0  0  0  0
   -3.8793   -1.9065    1.3169 H   0  0  0  0  0  0  0  0  0  0  0  0
   -3.4623   -2.6685   -0.2401 H   0  0  0  0  0  0  0  0  0  0  0  0
   -1.7863   -2.0195    0.9119 C   0  0  0  0  0  0  0  0  0  0  0  0
   -0.9073   -2.6615    1.4699 O   0  0  0  0  0  0  0  0  0  0  0  0
   -1.5803   -0.8195    0.3749 N   0  0  0  0  0  0  0  0  0  0  0  0
   -2.3603   -0.3345   -0.0451 H   0  0  0  0  0  0  0  0  0  0  0  0
   -0.2933   -0.1205    0.3719 C   0  0  1  0  0  0  0  0  0  0  0  0
   -0.3399    0.6999    1.0895 H   0  0  0  0  0  0  0  0  0  0  0  0
    0.8105   -1.0987    0.8230 C   0  0  0  0  0  0  0  0  0  0  0  0
    0.7599   -1.9839    0.1866 H   0  0  0  0  0  0  0  0  0  0  0  0
    1.7860   -0.6321    0.6783 H   0  0  0  0  0  0  0  0  0  0  0  0
    0.6920   -1.5376    2.2928 C   0  0  0  0  0  0  0  0  0  0  0  0
    0.7607   -0.6681    2.9466 H   0  0  0  0  0  0  0  0  0  0  0  0
   -0.2714   -2.0228    2.4448 H   0  0  0  0  0  0  0  0  0  0  0  0
    1.7863   -2.5222    2.6922 C   0  0  0  0  0  0  0  0  0  0  0  0
    2.5917   -3.0237    1.9242 O   0  0  0  0  0  0  0  0  0  0  0  0
    1.8264   -2.8462    3.9980 O   0  0  0  0  0  0  0  0  0  0  0  0
    2.5481   -3.4721    4.0795 H   0  0  0  0  0  0  0  0  0  0  0  0
   -0.0138    0.4766   -1.0165 C   0  0  0  0  0  0  0  0  0  0  0  0
    1.1164    0.8678   -1.3018 O   0  0  0  0  0  0  0  0  0  0  0  0
   -1.0421    0.5564   -1.8696 N   0  0  0  0  0  0  0  0  0  0  0  0
   -1.9358    0.1940   -1.5727 H   0  0  0  0  0  0  0  0  0  0  0  0
   -0.9446    1.1172   -3.2157 C   0  0  0  0  0  0  0  0  0  0  0  0
   -0.1819    0.5822   -3.7844 H   0  0  0  0  0  0  0  0  0  0  0  0
   -1.9019    1.0324   -3.7319 H   0  0  0  0  0  0  0  0  0  0  0  0
   -0.6586    2.1692   -3.1569 H   0  0  0  0  0  0  0  0  0  0  0  0
  5  6  2  0  0  0  0
  5  7  1  0  0  0  0
  2  3  1  0  0  0  0
  2  4  1  0  0  0  0
  2  5  1  0  0  0  0
  1  2  1  0  0  0  0
 21 22  2  0  0  0  0
 21 23  1  0  0  0  0
 19 20  1  0  0  0  0
 17 18  2  0  0  0  0
 17 19  1  0  0  0  0
 14 15  1  0  0  0  0
 14 16  1  0  0  0  0
 14 17  1  0  0  0  0
 11 12  1  0  0  0  0
 11 13  1  0  0  0  0
 11 14  1  0  0  0  0
  9 10  1  0  0  0  0
  9 11  1  0  0  0  0
  9 21  1  0  0  0  0
  7  8  1  0  0  0  0
  7  9  1  0  0  0  0
 25 26  1  0  0  0  0
 25 27  1  0  0  0  0
 25 28  1  0  0  0  0
 23 24  1  0  0  0  0
 23 25  1  0  0  0  0
M  END
$$$$
default_name
  -OEChem-01062215323D

 28 27  0     1  0  0  0  0  0999 V2000
   -3.2133   -3.5565    1.2809 H   0  0  0  0  0  0  0  0  0  0  0  0
   -3.1873   -2.5755    0.8089 C   0  0  0  0  0  0  0  0  0  0  0  0
   -3.8793   -1.9065    1.3169 H   0  0  0  0  0  0  0  0  0  0  0  0
   -3.4623   -2.6685   -0.2401 H   0  0  0  0  0  0  0  0  0  0  0  0
   -1.7863   -2.0195    0.9119 C   0  0  0  0  0  0  0  0  0  0  0  0
   -0.9073   -2.6615    1.4699 O   0  0  0  0  0  0  0  0  0  0  0  0
   -1.5803   -0.8195    0.3749 N   0  0  0  0  0  0  0  0  0  0  0  0
   -2.3603   -0.3345   -0.0451 H   0  0  0  0  0  0  0  0  0  0  0  0
   -0.2933   -0.1205    0.3719 C   0  0  1  0  0  0  0  0  0  0  0  0
   -0.3399    0.6999    1.0895 H   0  0  0  0  0  0  0  0  0  0  0  0
    0.8105   -1.0987    0.8230 C   0  0  0  0  0  0  0  0  0  0  0  0
    0.7599   -1.9839    0.1866 H   0  0  0  0  0  0  0  0  0  0  0  0
    1.7860   -0.6321    0.6783 H   0  0  0  0  0  0  0  0  0  0  0  0
    0.6920   -1.5376    2.2928 C   0  0  0  0  0  0  0  0  0  0  0  0
    0.7607   -0.6681    2.9466 H   0  0  0  0  0  0  0  0  0  0  0  0
   -0.2714   -2.0228    2.4448 H   0  0  0  0  0  0  0  0  0  0  0  0
    1.7863   -2.5222    2.6922 C   0  0  0  0  0  0  0  0  0  0  0  0
    2.5917   -3.0237    1.9242 O   0  0  0  0  0  0  0  0  0  0  0  0
    1.8264   -2.8462    3.9980 O   0  0  0  0  0  0  0  0  0  0  0  0
    2.5481   -3.4721    4.0795 H   0  0  0  0  0  0  0  0  0  0  0  0
   -0.0138    0.4766   -1.0165 C   0  0  0  0  0  0  0  0  0  0  0  0
    1.1444    0.6119   -1.4063 O   0  0  0  0  0  0  0  0  0  0  0  0
   -1.0704    0.8424   -1.7523 N   0  0  0  0  0  0  0  0  0  0  0  0
   -1.9920    0.6797   -1.3751 H   0  0  0  0  0  0  0  0  0  0  0  0
   -0.9714    1.4439   -3.0806 C   0  0  0  0  0  0  0  0  0  0  0  0
   -0.4142    0.7814   -3.7455 H   0  0  0  0  0  0  0  0  0  0  0  0
   -1.9663    1.6135   -3.4949 H   0  0  0  0  0  0  0  0  0  0  0  0
   -0.4408    2.3958   -3.0156 H   0  0  0  0  0  0  0  0  0  0  0  0
  5  6  2  0  0  0  0
  5  7  1  0  0  0  0
  2  3  1  0  0  0  0
  2  4  1  0  0  0  0
  2  5  1  0  0  0  0
  1  2  1  0  0  0  0
 21 22  2  0  0  0  0
 21 23  1  0  0  0  0
 19 20  1  0  0  0  0
 17 18  2  0  0  0  0
 17 19  1  0  0  0  0
 14 15  1  0  0  0  0
 14 16  1  0  0  0  0
 14 17  1  0  0  0  0
 11 12  1  0  0  0  0
 11 13  1  0  0  0  0
 11 14  1  0  0  0  0
  9 10  1  0  0  0  0
  9 11  1  0  0  0  0
  9 21  1  0  0  0  0
  7  8  1  0  0  0  0
  7  9  1  0  0  0  0
 25 26  1  0  0  0  0
 25 27  1  0  0  0  0
 25 28  1  0  0  0  0
 23 24  1  0  0  0  0
 23 25  1  0  0  0  0
M  END
$$$$
default_name
  -OEChem-01062215323D

 28 27  0     1  0  0  0  0  0999 V2000
   -3.2133   -3.5565    1.2809 H   0  0  0  0  0  0  0  0  0  0  0  0
   -3.1873   -2.5755    0.8089 C   0  0  0  0  0  0  0  0  0  0  0  0
   -3.8793   -1.9065    1.3169 H   0  0  0  0  0  0  0  0  0  0  0  0
   -3.4623   -2.6685   -0.2401 H   0  0  0  0  0  0  0  0  0  0  0  0
   -1.7863   -2.0195    0.9119 C   0  0  0  0  0  0  0  0  0  0  0  0
   -0.9073   -2.6615    1.4699 O   0  0  0  0  0  0  0  0  0  0  0  0
   -1.5803   -0.8195    0.3749 N   0  0  0  0  0  0  0  0  0  0  0  0
   -2.3603   -0.3345   -0.0451 H   0  0  0  0  0  0  0  0  0  0  0  0
   -0.2933   -0.1205    0.3719 C   0  0  1  0  0  0  0  0  0  0  0  0
   -0.3399    0.6999    1.0895 H   0  0  0  0  0  0  0  0  0  0  0  0
    0.8105   -1.0987    0.8230 C   0  0  0  0  0  0  0  0  0  0  0  0
    0.7599   -1.9839    0.1866 H   0  0  0  0  0  0  0  0  0  0  0  0
    1.7860   -0.6321    0.6783 H   0  0  0  0  0  0  0  0  0  0  0  0
    0.6920   -1.5376    2.2928 C   0  0  0  0  0  0  0  0  0  0  0  0
    0.7607   -0.6681    2.9466 H   0  0  0  0  0  0  0  0  0  0  0  0
   -0.2714   -2.0228    2.4448 H   0  0  0  0  0  0  0  0  0  0  0  0
    1.7863   -2.5222    2.6922 C   0  0  0  0  0  0  0  0  0  0  0  0
    2.5917   -3.0237    1.9242 O   0  0  0  0  0  0  0  0  0  0  0  0
    1.8264   -2.8462    3.9980 O   0  0  0  0  0  0  0  0  0  0  0  0
    2.5481   -3.4721    4.0795 H   0  0  0  0  0  0  0  0  0  0  0  0
   -0.0138    0.4766   -1.0165 C   0  0  0  0  0  0  0  0  0  0  0  0
    1.1012    0.3629   -1.5220 O   0  0  0  0  0  0  0  0  0  0  0  0
   -1.0191    1.1197   -1.6227 N   0  0  0  0  0  0  0  0  0  0  0  0
   -1.9129    1.1528   -1.1558 H   0  0  0  0  0  0  0  0  0  0  0  0
   -0.9074    1.7593   -2.9321 C   0  0  0  0  0  0  0  0  0  0  0  0
   -0.5881    1.0263   -3.6752 H   0  0  0  0  0  0  0  0  0  0  0  0
   -1.8687    2.1787   -3.2322 H   0  0  0  0  0  0  0  0  0  0  0  0
   -0.1632    2.5570   -2.8904 H   0  0  0  0  0  0  0  0  0  0  0  0
  5  6  2  0  0  0  0
  5  7  1  0  0  0  0
  2  3  1  0  0  0  0
  2  4  1  0  0  0  0
  2  5  1  0  0  0  0
  1  2  1  0  0  0  0
 21 22  2  0  0  0  0
 21 23  1  0  0  0  0
 19 20  1  0  0  0  0
 17 18  2  0  0  0  0
 17 19  1  0  0  0  0
 14 15  1  0  0  0  0
 14 16  1  0  0  0  0
 14 17  1  0  0  0  0
 11 12  1  0  0  0  0
 11 13  1  0  0  0  0
 11 14  1  0  0  0  0
  9 10  1  0  0  0  0
  9 11  1  0  0  0  0
  9 21  1  0  0  0  0
  7  8  1  0  0  0  0
  7  9  1  0  0  0  0
 25 26  1  0  0  0  0
 25 27  1  0  0  0  0
 25 28  1  0  0  0  0
 23 24  1  0  0  0  0
 23 25  1  0  0  0  0
M  END
$$$$
default_name
  -OEChem-01062215323D

 28 27  0     1  0  0  0  0  0999 V2000
   -3.2133   -3.5565    1.2809 H   0  0  0  0  0  0  0  0  0  0  0  0
   -3.1873   -2.5755    0.8089 C   0  0  0  0  0  0  0  0  0  0  0  0
   -3.8793   -1.9065    1.3169 H   0  0  0  0  0  0  0  0  0  0  0  0
   -3.4623   -2.6685   -0.2401 H   0  0  0  0  0  0  0  0  0  0  0  0
   -1.7863   -2.0195    0.9119 C   0  0  0  0  0  0  0  0  0  0  0  0
   -0.9073   -2.6615    1.4699 O   0  0  0  0  0  0  0  0  0  0  0  0
   -1.5803   -0.8195    0.3749 N   0  0  0  0  0  0  0  0  0  0  0  0
   -2.3603   -0.3345   -0.0451 H   0  0  0  0  0  0  0  0  0  0  0  0
   -0.2933   -0.1205    0.3719 C   0  0  1  0  0  0  0  0  0  0  0  0
   -0.3399    0.6999    1.0895 H   0  0  0  0  0  0  0  0  0  0  0  0
    0.8105   -1.0987    0.8230 C   0  0  0  0  0  0  0  0  0  0  0  0
    0.7599   -1.9839    0.1866 H   0  0  0  0  0  0  0  0  0  0  0  0
    1.7860   -0.6321    0.6783 H   0  0  0  0  0  0  0  0  0  0  0  0
    0.6920   -1.5376    2.2928 C   0  0  0  0  0  0  0  0  0  0  0  0
    0.7607   -0.6681    2.9466 H   0  0  0  0  0  0  0  0  0  0  0  0
   -0.2714   -2.0228    2.4448 H   0  0  0  0  0  0  0  0  0  0  0  0
    1.7863   -2.5222    2.6922 C   0  0  0  0  0  0  0  0  0  0  0  0
    2.5917   -3.0237    1.9242 O   0  0  0  0  0  0  0  0  0  0  0  0
    1.8264   -2.8462    3.9980 O   0  0  0  0  0  0  0  0  0  0  0  0
    2.5481   -3.4721    4.0795 H   0  0  0  0  0  0  0  0  0  0  0  0
   -0.0138    0.4766   -1.0165 C   0  0  0  0  0  0  0  0  0  0  0  0
    0.9896    0.1380   -1.6412 O   0  0  0  0  0  0  0  0  0  0  0  0
   -0.8916    1.3695   -1.4897 N   0  0  0  0  0  0  0  0  0  0  0  0
   -1.7039    1.5809   -0.9296 H   0  0  0  0  0  0  0  0  0  0  0  0
   -0.7569    2.0420   -2.7802 C   0  0  0  0  0  0  0  0  0  0  0  0
   -0.6918    1.3002   -3.5783 H   0  0  0  0  0  0  0  0  0  0  0  0
   -1.6160    2.6894   -2.9617 H   0  0  0  0  0  0  0  0  0  0  0  0
    0.1552    2.6420   -2.7897 H   0  0  0  0  0  0  0  0  0  0  0  0
  5  6  2  0  0  0  0
  5  7  1  0  0  0  0
  2  3  1  0  0  0  0
  2  4  1  0  0  0  0
  2  5  1  0  0  0  0
  1  2  1  0  0  0  0
 21 22  2  0  0  0  0
 21 23  1  0  0  0  0
 19 20  1  0  0  0  0
 17 18  2  0  0  0  0
 17 19  1  0  0  0  0
 14 15  1  0  0  0  0
 14 16  1  0  0  0  0
 14 17  1  0  0  0  0
 11 12  1  0  0  0  0
 11 13  1  0  0  0  0
 11 14  1  0  0  0  0
  9 10  1  0  0  0  0
  9 11  1  0  0  0  0
  9 21  1  0  0  0  0
  7  8  1  0  0  0  0
  7  9  1  0  0  0  0
 25 26  1  0  0  0  0
 25 27  1  0  0  0  0
 25 28  1  0  0  0  0
 23 24  1  0  0  0  0
 23 25  1  0  0  0  0
M  END
$$$$
default_name
  -OEChem-01062215323D

 28 27  0     1  0  0  0  0  0999 V2000
   -3.2133   -3.5565    1.2809 H   0  0  0  0  0  0  0  0  0  0  0  0
   -3.1873   -2.5755    0.8089 C   0  0  0  0  0  0  0  0  0  0  0  0
   -3.8793   -1.9065    1.3169 H   0  0  0  0  0  0  0  0  0  0  0  0
   -3.4623   -2.6685   -0.2401 H   0  0  0  0  0  0  0  0  0  0  0  0
   -1.7863   -2.0195    0.9119 C   0  0  0  0  0  0  0  0  0  0  0  0
   -0.9073   -2.6615    1.4699 O   0  0  0  0  0  0  0  0  0  0  0  0
   -1.5803   -0.8195    0.3749 N   0  0  0  0  0  0  0  0  0  0  0  0
   -2.3603   -0.3345   -0.0451 H   0  0  0  0  0  0  0  0  0  0  0  0
   -0.2933   -0.1205    0.3719 C   0  0  1  0  0  0  0  0  0  0  0  0
   -0.3399    0.6999    1.0895 H   0  0  0  0  0  0  0  0  0  0  0  0
    0.8105   -1.0987    0.8230 C   0  0  0  0  0  0  0  0  0  0  0  0
    0.7599   -1.9839    0.1866 H   0  0  0  0  0  0  0  0  0  0  0  0
    1.7860   -0.6321    0.6783 H   0  0  0  0  0  0  0  0  0  0  0  0
    0.6920   -1.5376    2.2928 C   0  0  0  0  0  0  0  0  0  0  0  0
    0.7607   -0.6681    2.9466 H   0  0  0  0  0  0  0  0  0  0  0  0
   -0.2714   -2.0228    2.4448 H   0  0  0  0  0  0  0  0  0  0  0  0
    1.7863   -2.5222    2.6922 C   0  0  0  0  0  0  0  0  0  0  0  0
    2.5917   -3.0237    1.9242 O   0  0  0  0  0  0  0  0  0  0  0  0
    1.8264   -2.8462    3.9980 O   0  0  0  0  0  0  0  0  0  0  0  0
    2.5481   -3.4721    4.0795 H   0  0  0  0  0  0  0  0  0  0  0  0
   -0.0138    0.4766   -1.0165 C   0  0  0  0  0  0  0  0  0  0  0  0
    0.8173   -0.0475   -1.7557 O   0  0  0  0  0  0  0  0  0  0  0  0
   -0.6967    1.5747   -1.3622 N   0  0  0  0  0  0  0  0  0  0  0  0
   -1.3791    1.9349   -0.7120 H   0  0  0  0  0  0  0  0  0  0  0  0
   -0.5301    2.2728   -2.6353 C   0  0  0  0  0  0  0  0  0  0  0  0
   -0.7182    1.5845   -3.4613 H   0  0  0  0  0  0  0  0  0  0  0  0
   -1.2252    3.1109   -2.7018 H   0  0  0  0  0  0  0  0  0  0  0  0
    0.4928    2.6449   -2.7205 H   0  0  0  0  0  0  0  0  0  0  0  0
  5  6  2  0  0  0  0
  5  7  1  0  0  0  0
  2  3  1  0  0  0  0
  2  4  1  0  0  0  0
  2  5  1  0  0  0  0
  1  2  1  0  0  0  0
 21 22  2  0  0  0  0
 21 23  1  0  0  0  0
 19 20  1  0  0  0  0
 17 18  2  0  0  0  0
 17 19  1  0  0  0  0
 14 15  1  0  0  0  0
 14 16  1  0  0  0  0
 14 17  1  0  0  0  0
 11 12  1  0  0  0  0
 11 13  1  0  0  0  0
 11 14  1  0  0  0  0
  9 10  1  0  0  0  0
  9 11  1  0  0  0  0
  9 21  1  0  0  0  0
  7  8  1  0  0  0  0
  7  9  1  0  0  0  0
 25 26  1  0  0  0  0
 25 27  1  0  0  0  0
 25 28  1  0  0  0  0
 23 24  1  0  0  0  0
 23 25  1  0  0  0  0
M  END
$$$$
default_name
  -OEChem-01062215323D

 28 27  0     1  0  0  0  0  0999 V2000
   -3.2133   -3.5565    1.2809 H   0  0  0  0  0  0  0  0  0  0  0  0
   -3.1873   -2.5755    0.8089 C   0  0  0  0  0  0  0  0  0  0  0  0
   -3.8793   -1.9065    1.3169 H   0  0  0  0  0  0  0  0  0  0  0  0
   -3.4623   -2.6685   -0.2401 H   0  0  0  0  0  0  0  0  0  0  0  0
   -1.7863   -2.0195    0.9119 C   0  0  0  0  0  0  0  0  0  0  0  0
   -0.9073   -2.6615    1.4699 O   0  0  0  0  0  0  0  0  0  0  0  0
   -1.5803   -0.8195    0.3749 N   0  0  0  0  0  0  0  0  0  0  0  0
   -2.3603   -0.3345   -0.0451 H   0  0  0  0  0  0  0  0  0  0  0  0
   -0.2933   -0.1205    0.3719 C   0  0  1  0  0  0  0  0  0  0  0  0
   -0.3399    0.6999    1.0895 H   0  0  0  0  0  0  0  0  0  0  0  0
    0.8105   -1.0987    0.8230 C   0  0  0  0  0  0  0  0  0  0  0  0
    0.7599   -1.9839    0.1866 H   0  0  0  0  0  0  0  0  0  0  0  0
    1.7860   -0.6321    0.6783 H   0  0  0  0  0  0  0  0  0  0  0  0
    0.6920   -1.5376    2.2928 C   0  0  0  0  0  0  0  0  0  0  0  0
    0.7607   -0.6681    2.9466 H   0  0  0  0  0  0  0  0  0  0  0  0
   -0.2714   -2.0228    2.4448 H   0  0  0  0  0  0  0  0  0  0  0  0
    1.7863   -2.5222    2.6922 C   0  0  0  0  0  0  0  0  0  0  0  0
    2.5917   -3.0237    1.9242 O   0  0  0  0  0  0  0  0  0  0  0  0
    1.8264   -2.8462    3.9980 O   0  0  0  0  0  0  0  0  0  0  0  0
    2.5481   -3.4721    4.0795 H   0  0  0  0  0  0  0  0  0  0  0  0
   -0.0138    0.4766   -1.0165 C   0  0  0  0  0  0  0  0  0  0  0  0
    0.5959   -0.1810   -1.8577 O   0  0  0  0  0  0  0  0  0  0  0  0
   -0.4476    1.7214   -1.2490 N   0  0  0  0  0  0  0  0  0  0  0  0
   -0.9607    2.1906   -0.5178 H   0  0  0  0  0  0  0  0  0  0  0  0
   -0.2425    2.4358   -2.5073 C   0  0  0  0  0  0  0  0  0  0  0  0
   -0.6654    1.8597   -3.3324 H   0  0  0  0  0  0  0  0  0  0  0  0
   -0.7230    3.4145   -2.4702 H   0  0  0  0  0  0  0  0  0  0  0  0
    0.8264    2.5655   -2.6875 H   0  0  0  0  0  0  0  0  0  0  0  0
  5  6  2  0  0  0  0
  5  7  1  0  0  0  0
  2  3  1  0  0  0  0
  2  4  1  0  0  0  0
  2  5  1  0  0  0  0
  1  2  1  0  0  0  0
 21 22  2  0  0  0  0
 21 23  1  0  0  0  0
 19 20  1  0  0  0  0
 17 18  2  0  0  0  0
 17 19  1  0  0  0  0
 14 15  1  0  0  0  0
 14 16  1  0  0  0  0
 14 17  1  0  0  0  0
 11 12  1  0  0  0  0
 11 13  1  0  0  0  0
 11 14  1  0  0  0  0
  9 10  1  0  0  0  0
  9 11  1  0  0  0  0
  9 21  1  0  0  0  0
  7  8  1  0  0  0  0
  7  9  1  0  0  0  0
 25 26  1  0  0  0  0
 25 27  1  0  0  0  0
 25 28  1  0  0  0  0
 23 24  1  0  0  0  0
 23 25  1  0  0  0  0
M  END
$$$$
default_name
  -OEChem-01062215323D

 28 27  0     1  0  0  0  0  0999 V2000
   -3.2133   -3.5565    1.2809 H   0  0  0  0  0  0  0  0  0  0  0  0
   -3.1873   -2.5755    0.8089 C   0  0  0  0  0  0  0  0  0  0  0  0
   -3.8793   -1.9065    1.3169 H   0  0  0  0  0  0  0  0  0  0  0  0
   -3.4623   -2.6685   -0.2401 H   0  0  0  0  0  0  0  0  0  0  0  0
   -1.7863   -2.0195    0.9119 C   0  0  0  0  0  0  0  0  0  0  0  0
   -0.9073   -2.6615    1.4699 O   0  0  0  0  0  0  0  0  0  0  0  0
   -1.5803   -0.8195    0.3749 N   0  0  0  0  0  0  0  0  0  0  0  0
   -2.3603   -0.3345   -0.0451 H   0  0  0  0  0  0  0  0  0  0  0  0
   -0.2933   -0.1205    0.3719 C   0  0  1  0  0  0  0  0  0  0  0  0
   -0.3399    0.6999    1.0895 H   0  0  0  0  0  0  0  0  0  0  0  0
    0.8105   -1.0987    0.8230 C   0  0  0  0  0  0  0  0  0  0  0  0
    0.7599   -1.9839    0.1866 H   0  0  0  0  0  0  0  0  0  0  0  0
    1.7860   -0.6321    0.6783 H   0  0  0  0  0  0  0  0  0  0  0  0
    0.6920   -1.5376    2.2928 C   0  0  0  0  0  0  0  0  0  0  0  0
    0.7607   -0.6681    2.9466 H   0  0  0  0  0  0  0  0  0  0  0  0
   -0.2714   -2.0228    2.4448 H   0  0  0  0  0  0  0  0  0  0  0  0
    1.7863   -2.5222    2.6922 C   0  0  0  0  0  0  0  0  0  0  0  0
    2.5917   -3.0237    1.9242 O   0  0  0  0  0  0  0  0  0  0  0  0
    1.8264   -2.8462    3.9980 O   0  0  0  0  0  0  0  0  0  0  0  0
    2.5481   -3.4721    4.0795 H   0  0  0  0  0  0  0  0  0  0  0  0
   -0.0138    0.4766   -1.0165 C   0  0  0  0  0  0  0  0  0  0  0  0
    0.3406   -0.2534   -1.9402 O   0  0  0  0  0  0  0  0  0  0  0  0
   -0.1614    1.7995   -1.1578 N   0  0  0  0  0  0  0  0  0  0  0  0
   -0.4773    2.3307   -0.3602 H   0  0  0  0  0  0  0  0  0  0  0  0
    0.0862    2.5200   -2.4049 C   0  0  0  0  0  0  0  0  0  0  0  0
   -0.5371    2.1071   -3.2001 H   0  0  0  0  0  0  0  0  0  0  0  0
   -0.1438    3.5794   -2.2826 H   0  0  0  0  0  0  0  0  0  0  0  0
    1.1335    2.4093   -2.6929 H   0  0  0  0  0  0  0  0  0  0  0  0
  5  6  2  0  0  0  0
  5  7  1  0  0  0  0
  2  3  1  0  0  0  0
  2  4  1  0  0  0  0
  2  5  1  0  0  0  0
  1  2  1  0  0  0  0
 21 22  2  0  0  0  0
 21 23  1  0  0  0  0
 19 20  1  0  0  0  0
 17 18  2  0  0  0  0
 17 19  1  0  0  0  0
 14 15  1  0  0  0  0
 14 16  1  0  0  0  0
 14 17  1  0  0  0  0
 11 12  1  0  0  0  0
 11 13  1  0  0  0  0
 11 14  1  0  0  0  0
  9 10  1  0  0  0  0
  9 11  1  0  0  0  0
  9 21  1  0  0  0  0
  7  8  1  0  0  0  0
  7  9  1  0  0  0  0
 25 26  1  0  0  0  0
 25 27  1  0  0  0  0
 25 28  1  0  0  0  0
 23 24  1  0  0  0  0
 23 25  1  0  0  0  0
M  END
$$$$
default_name
  -OEChem-01062215323D

 28 27  0     1  0  0  0  0  0999 V2000
   -3.2133   -3.5565    1.2809 H   0  0  0  0  0  0  0  0  0  0  0  0
   -3.1873   -2.5755    0.8089 C   0  0  0  0  0  0  0  0  0  0  0  0
   -3.8793   -1.9065    1.3169 H   0  0  0  0  0  0  0  0  0  0  0  0
   -3.4623   -2.6685   -0.2401 H   0  0  0  0  0  0  0  0  0  0  0  0
   -1.7863   -2.0195    0.9119 C   0  0  0  0  0  0  0  0  0  0  0  0
   -0.9073   -2.6615    1.4699 O   0  0  0  0  0  0  0  0  0  0  0  0
   -1.5803   -0.8195    0.3749 N   0  0  0  0  0  0  0  0  0  0  0  0
   -2.3603   -0.3345   -0.0451 H   0  0  0  0  0  0  0  0  0  0  0  0
   -0.2933   -0.1205    0.3719 C   0  0  1  0  0  0  0  0  0  0  0  0
   -0.3399    0.6999    1.0895 H   0  0  0  0  0  0  0  0  0  0  0  0
    0.8105   -1.0987    0.8230 C   0  0  0  0  0  0  0  0  0  0  0  0
    0.7599   -1.9839    0.1866 H   0  0  0  0  0  0  0  0  0  0  0  0
    1.7860   -0.6321    0.6783 H   0  0  0  0  0  0  0  0  0  0  0  0
    0.6920   -1.5376    2.2928 C   0  0  0  0  0  0  0  0  0  0  0  0
    0.7607   -0.6681    2.9466 H   0  0  0  0  0  0  0  0  0  0  0  0
   -0.2714   -2.0228    2.4448 H   0  0  0  0  0  0  0  0  0  0  0  0
    1.7863   -2.5222    2.6922 C   0  0  0  0  0  0  0  0  0  0  0  0
    2.5917   -3.0237    1.9242 O   0  0  0  0  0  0  0  0  0  0  0  0
    1.8264   -2.8462    3.9980 O   0  0  0  0  0  0  0  0  0  0  0  0
    2.5481   -3.4721    4.0795 H   0  0  0  0  0  0  0  0  0  0  0  0
   -0.0138    0.4766   -1.0165 C   0  0  0  0  0  0  0  0  0  0  0  0
    0.0688   -0.2598   -1.9976 O   0  0  0  0  0  0  0  0  0  0  0  0
    0.1425    1.8037   -1.0948 N   0  0  0  0  0  0  0  0  0  0  0  0
    0.0382    2.3456   -0.2500 H   0  0  0  0  0  0  0  0  0  0  0  0
    0.4338    2.5197   -2.3351 C   0  0  0  0  0  0  0  0  0  0  0  0
   -0.3421    2.3099   -3.0737 H   0  0  0  0  0  0  0  0  0  0  0  0
    0.4732    3.5944   -2.1520 H   0  0  0  0  0  0  0  0  0  0  0  0
    1.3930    2.1868   -2.7363 H   0  0  0  0  0  0  0  0  0  0  0  0
  5  6  2  0  0  0  0
  5  7  1  0  0  0  0
  2  3  1  0  0  0  0
  2  4  1  0  0  0  0
  2  5  1  0  0  0  0
  1  2  1  0  0  0  0
 21 22  2  0  0  0  0
 21 23  1  0  0  0  0
 19 20  1  0  0  0  0
 17 18  2  0  0  0  0
 17 19  1  0  0  0  0
 14 15  1  0  0  0  0
 14 16  1  0  0  0  0
 14 17  1  0  0  0  0
 11 12  1  0  0  0  0
 11 13  1  0  0  0  0
 11 14  1  0  0  0  0
  9 10  1  0  0  0  0
  9 11  1  0  0  0  0
  9 21  1  0  0  0  0
  7  8  1  0  0  0  0
  7  9  1  0  0  0  0
 25 26  1  0  0  0  0
 25 27  1  0  0  0  0
 25 28  1  0  0  0  0
 23 24  1  0  0  0  0
 23 25  1  0  0  0  0
M  END
$$$$
default_name
  -OEChem-01062215323D

 28 27  0     1  0  0  0  0  0999 V2000
   -3.2133   -3.5565    1.2809 H   0  0  0  0  0  0  0  0  0  0  0  0
   -3.1873   -2.5755    0.8089 C   0  0  0  0  0  0  0  0  0  0  0  0
   -3.8793   -1.9065    1.3169 H   0  0  0  0  0  0  0  0  0  0  0  0
   -3.4623   -2.6685   -0.2401 H   0  0  0  0  0  0  0  0  0  0  0  0
   -1.7863   -2.0195    0.9119 C   0  0  0  0  0  0  0  0  0  0  0  0
   -0.9073   -2.6615    1.4699 O   0  0  0  0  0  0  0  0  0  0  0  0
   -1.5803   -0.8195    0.3749 N   0  0  0  0  0  0  0  0  0  0  0  0
   -2.3603   -0.3345   -0.0451 H   0  0  0  0  0  0  0  0  0  0  0  0
   -0.2933   -0.1205    0.3719 C   0  0  1  0  0  0  0  0  0  0  0  0
   -0.3399    0.6999    1.0895 H   0  0  0  0  0  0  0  0  0  0  0  0
    0.8105   -1.0987    0.8230 C   0  0  0  0  0  0  0  0  0  0  0  0
    0.7599   -1.9839    0.1866 H   0  0  0  0  0  0  0  0  0  0  0  0
    1.7860   -0.6321    0.6783 H   0  0  0  0  0  0  0  0  0  0  0  0
    0.6920   -1.5376    2.2928 C   0  0  0  0  0  0  0  0  0  0  0  0
    0.7607   -0.6681    2.9466 H   0  0  0  0  0  0  0  0  0  0  0  0
   -0.2714   -2.0228    2.4448 H   0  0  0  0  0  0  0  0  0  0  0  0
    1.7863   -2.5222    2.6922 C   0  0  0  0  0  0  0  0  0  0  0  0
    2.5917   -3.0237    1.9242 O   0  0  0  0  0  0  0  0  0  0  0  0
    1.8264   -2.8462    3.9980 O   0  0  0  0  0  0  0  0  0  0  0  0
    2.5481   -3.4721    4.0795 H   0  0  0  0  0  0  0  0  0  0  0  0
   -0.0138    0.4766   -1.0165 C   0  0  0  0  0  0  0  0  0  0  0  0
   -0.2010   -0.1997   -2.0261 O   0  0  0  0  0  0  0  0  0  0  0  0
    0.4434    1.7337   -1.0643 N   0  0  0  0  0  0  0  0  0  0  0  0
    0.5507    2.2343   -0.1947 H   0  0  0  0  0  0  0  0  0  0  0  0
    0.7764    2.4349   -2.3026 C   0  0  0  0  0  0  0  0  0  0  0  0
   -0.0936    2.4543   -2.9616 H   0  0  0  0  0  0  0  0  0  0  0  0
    1.0858    3.4585   -2.0871 H   0  0  0  0  0  0  0  0  0  0  0  0
    1.5874    1.9133   -2.8148 H   0  0  0  0  0  0  0  0  0  0  0  0
  5  6  2  0  0  0  0
  5  7  1  0  0  0  0
  2  3  1  0  0  0  0
  2  4  1  0  0  0  0
  2  5  1  0  0  0  0
  1  2  1  0  0  0  0
 21 22  2  0  0  0  0
 21 23  1  0  0  0  0
 19 20  1  0  0  0  0
 17 18  2  0  0  0  0
 17 19  1  0  0  0  0
 14 15  1  0  0  0  0
 14 16  1  0  0  0  0
 14 17  1  0  0  0  0
 11 12  1  0  0  0  0
 11 13  1  0  0  0  0
 11 14  1  0  0  0  0
  9 10  1  0  0  0  0
  9 11  1  0  0  0  0
  9 21  1  0  0  0  0
  7  8  1  0  0  0  0
  7  9  1  0  0  0  0
 25 26  1  0  0  0  0
 25 27  1  0  0  0  0
 25 28  1  0  0  0  0
 23 24  1  0  0  0  0
 23 25  1  0  0  0  0
M  END
$$$$
default_name
  -OEChem-01062215323D

 28 27  0     1  0  0  0  0  0999 V2000
   -3.2133   -3.5565    1.2809 H   0  0  0  0  0  0  0  0  0  0  0  0
   -3.1873   -2.5755    0.8089 C   0  0  0  0  0  0  0  0  0  0  0  0
   -3.8793   -1.9065    1.3169 H   0  0  0  0  0  0  0  0  0  0  0  0
   -3.4623   -2.6685   -0.2401 H   0  0  0  0  0  0  0  0  0  0  0  0
   -1.7863   -2.0195    0.9119 C   0  0  0  0  0  0  0  0  0  0  0  0
   -0.9073   -2.6615    1.4699 O   0  0  0  0  0  0  0  0  0  0  0  0
   -1.5803   -0.8195    0.3749 N   0  0  0  0  0  0  0  0  0  0  0  0
   -2.3603   -0.3345   -0.0451 H   0  0  0  0  0  0  0  0  0  0  0  0
   -0.2933   -0.1205    0.3719 C   0  0  1  0  0  0  0  0  0  0  0  0
   -0.3399    0.6999    1.0895 H   0  0  0  0  0  0  0  0  0  0  0  0
    0.8105   -1.0987    0.8230 C   0  0  0  0  0  0  0  0  0  0  0  0
    0.7599   -1.9839    0.1866 H   0  0  0  0  0  0  0  0  0  0  0  0
    1.7860   -0.6321    0.6783 H   0  0  0  0  0  0  0  0  0  0  0  0
    0.6920   -1.5376    2.2928 C   0  0  0  0  0  0  0  0  0  0  0  0
    0.7607   -0.6681    2.9466 H   0  0  0  0  0  0  0  0  0  0  0  0
   -0.2714   -2.0228    2.4448 H   0  0  0  0  0  0  0  0  0  0  0  0
    1.7863   -2.5222    2.6922 C   0  0  0  0  0  0  0  0  0  0  0  0
    2.5917   -3.0237    1.9242 O   0  0  0  0  0  0  0  0  0  0  0  0
    1.8264   -2.8462    3.9980 O   0  0  0  0  0  0  0  0  0  0  0  0
    2.5481   -3.4721    4.0795 H   0  0  0  0  0  0  0  0  0  0  0  0
   -0.0138    0.4766   -1.0165 C   0  0  0  0  0  0  0  0  0  0  0  0
   -0.4505   -0.0772   -2.0237 O   0  0  0  0  0  0  0  0  0  0  0  0
    0.7207    1.5944   -1.0684 N   0  0  0  0  0  0  0  0  0  0  0  0
    1.0253    2.0043   -0.1981 H   0  0  0  0  0  0  0  0  0  0  0  0
    1.0908    2.2713   -2.3097 C   0  0  0  0  0  0  0  0  0  0  0  0
    0.1915    2.5303   -2.8715 H   0  0  0  0  0  0  0  0  0  0  0  0
    1.6523    3.1810   -2.0924 H   0  0  0  0  0  0  0  0  0  0  0  0
    1.7032    1.6074   -2.9231 H   0  0  0  0  0  0  0  0  0  0  0  0
  5  6  2  0  0  0  0
  5  7  1  0  0  0  0
  2  3  1  0  0  0  0
  2  4  1  0  0  0  0
  2  5  1  0  0  0  0
  1  2  1  0  0  0  0
 21 22  2  0  0  0  0
 21 23  1  0  0  0  0
 19 20  1  0  0  0  0
 17 18  2  0  0  0  0
 17 19  1  0  0  0  0
 14 15  1  0  0  0  0
 14 16  1  0  0  0  0
 14 17  1  0  0  0  0
 11 12  1  0  0  0  0
 11 13  1  0  0  0  0
 11 14  1  0  0  0  0
  9 10  1  0  0  0  0
  9 11  1  0  0  0  0
  9 21  1  0  0  0  0
  7  8  1  0  0  0  0
  7  9  1  0  0  0  0
 25 26  1  0  0  0  0
 25 27  1  0  0  0  0
 25 28  1  0  0  0  0
 23 24  1  0  0  0  0
 23 25  1  0  0  0  0
M  END
$$$$
default_name
  -OEChem-01062215323D

 28 27  0     1  0  0  0  0  0999 V2000
   -3.2133   -3.5565    1.2809 H   0  0  0  0  0  0  0  0  0  0  0  0
   -3.1873   -2.5755    0.8089 C   0  0  0  0  0  0  0  0  0  0  0  0
   -3.8793   -1.9065    1.3169 H   0  0  0  0  0  0  0  0  0  0  0  0
   -3.4623   -2.6685   -0.2401 H   0  0  0  0  0  0  0  0  0  0  0  0
   -1.7863   -2.0195    0.9119 C   0  0  0  0  0  0  0  0  0  0  0  0
   -0.9073   -2.6615    1.4699 O   0  0  0  0  0  0  0  0  0  0  0  0
   -1.5803   -0.8195    0.3749 N   0  0  0  0  0  0  0  0  0  0  0  0
   -2.3603   -0.3345   -0.0451 H   0  0  0  0  0  0  0  0  0  0  0  0
   -0.2933   -0.1205    0.3719 C   0  0  1  0  0  0  0  0  0  0  0  0
   -0.3399    0.6999    1.0895 H   0  0  0  0  0  0  0  0  0  0  0  0
    0.8105   -1.0987    0.8230 C   0  0  0  0  0  0  0  0  0  0  0  0
    0.7599   -1.9839    0.1866 H   0  0  0  0  0  0  0  0  0  0  0  0
    1.7860   -0.6321    0.6783 H   0  0  0  0  0  0  0  0  0  0  0  0
    0.6920   -1.5376    2.2928 C   0  0  0  0  0  0  0  0  0  0  0  0
    0.7607   -0.6681    2.9466 H   0  0  0  0  0  0  0  0  0  0  0  0
   -0.2714   -2.0228    2.4448 H   0  0  0  0  0  0  0  0  0  0  0  0
    1.7863   -2.5222    2.6922 C   0  0  0  0  0  0  0  0  0  0  0  0
    2.5917   -3.0237    1.9242 O   0  0  0  0  0  0  0  0  0  0  0  0
    1.8264   -2.8462    3.9980 O   0  0  0  0  0  0  0  0  0  0  0  0
    2.5481   -3.4721    4.0795 H   0  0  0  0  0  0  0  0  0  0  0  0
   -0.0138    0.4766   -1.0165 C   0  0  0  0  0  0  0  0  0  0  0  0
   -0.6625    0.0993   -1.9904 O   0  0  0  0  0  0  0  0  0  0  0  0
    0.9556    1.3951   -1.1068 N   0  0  0  0  0  0  0  0  0  0  0  0
    1.4296    1.6713   -0.2599 H   0  0  0  0  0  0  0  0  0  0  0  0
    1.3555    2.0401   -2.3558 C   0  0  0  0  0  0  0  0  0  0  0  0
    0.4937    2.5329   -2.8095 H   0  0  0  0  0  0  0  0  0  0  0  0
    2.1340    2.7808   -2.1676 H   0  0  0  0  0  0  0  0  0  0  0  0
    1.7327    1.2899   -3.0537 H   0  0  0  0  0  0  0  0  0  0  0  0
  5  6  2  0  0  0  0
  5  7  1  0  0  0  0
  2  3  1  0  0  0  0
  2  4  1  0  0  0  0
  2  5  1  0  0  0  0
  1  2  1  0  0  0  0
 21 22  2  0  0  0  0
 21 23  1  0  0  0  0
 19 20  1  0  0  0  0
 17 18  2  0  0  0  0
 17 19  1  0  0  0  0
 14 15  1  0  0  0  0
 14 16  1  0  0  0  0
 14 17  1  0  0  0  0
 11 12  1  0  0  0  0
 11 13  1  0  0  0  0
 11 14  1  0  0  0  0
  9 10  1  0  0  0  0
  9 11  1  0  0  0  0
  9 21  1  0  0  0  0
  7  8  1  0  0  0  0
  7  9  1  0  0  0  0
 25 26  1  0  0  0  0
 25 27  1  0  0  0  0
 25 28  1  0  0  0  0
 23 24  1  0  0  0  0
 23 25  1  0  0  0  0
M  END
$$$$
default_name
  -OEChem-01062215323D

 28 27  0     1  0  0  0  0  0999 V2000
   -3.2133   -3.5565    1.2809 H   0  0  0  0  0  0  0  0  0  0  0  0
   -3.1873   -2.5755    0.8089 C   0  0  0  0  0  0  0  0  0  0  0  0
   -3.8793   -1.9065    1.3169 H   0  0  0  0  0  0  0  0  0  0  0  0
   -3.4623   -2.6685   -0.2401 H   0  0  0  0  0  0  0  0  0  0  0  0
   -1.7863   -2.0195    0.9119 C   0  0  0  0  0  0  0  0  0  0  0  0
   -0.9073   -2.6615    1.4699 O   0  0  0  0  0  0  0  0  0  0  0  0
   -1.5803   -0.8195    0.3749 N   0  0  0  0  0  0  0  0  0  0  0  0
   -2.3603   -0.3345   -0.0451 H   0  0  0  0  0  0  0  0  0  0  0  0
   -0.2933   -0.1205    0.3719 C   0  0  1  0  0  0  0  0  0  0  0  0
   -0.2387    0.5144    1.2574 H   0  0  0  0  0  0  0  0  0  0  0  0
    0.8432   -1.1604    0.4487 C   0  0  0  0  0  0  0  0  0  0  0  0
    0.7012   -1.8782   -0.3610 H   0  0  0  0  0  0  0  0  0  0  0  0
    1.8001   -0.6597    0.2945 H   0  0  0  0  0  0  0  0  0  0  0  0
    0.9005   -1.9237    1.7833 C   0  0  0  0  0  0  0  0  0  0  0  0
    1.0623   -1.2249    2.6041 H   0  0  0  0  0  0  0  0  0  0  0  0
   -0.0439   -2.4440    1.9388 H   0  0  0  0  0  0  0  0  0  0  0  0
    2.0211   -2.9582    1.8100 C   0  0  0  0  0  0  0  0  0  0  0  0
    2.7179   -3.2607    0.8546 O   0  0  0  0  0  0  0  0  0  0  0  0
    2.2173   -3.5701    2.9926 O   0  0  0  0  0  0  0  0  0  0  0  0
    2.9341   -4.1882    2.8398 H   0  0  0  0  0  0  0  0  0  0  0  0
   -0.1786    0.7806   -0.8680 C   0  0  0  0  0  0  0  0  0  0  0  0
   -1.0962    0.8223   -1.6852 O   0  0  0  0  0  0  0  0  0  0  0  0
    0.9486    1.4881   -1.0115 N   0  0  0  0  0  0  0  0  0  0  0  0
    1.6485    1.4199   -0.2878 H   0  0  0  0  0  0  0  0  0  0  0  0
    1.2191    2.3722   -2.1433 C   0  0  0  0  0  0  0  0  0  0  0  0
    0.4331    3.1257   -2.2196 H   0  0  0  0  0  0  0  0  0  0  0  0
    2.1814    2.8696   -2.0142 H   0  0  0  0  0  0  0  0  0  0  0  0
    1.2342    1.7925   -3.0684 H   0  0  0  0  0  0  0  0  0  0  0  0
  5  6  2  0  0  0  0
  5  7  1  0  0  0  0
  2  3  1  0  0  0  0
  2  4  1  0  0  0  0
  2  5  1  0  0  0  0
  1  2  1  0  0  0  0
 21 22  2  0  0  0  0
 21 23  1  0  0  0  0
 19 20  1  0  0  0  0
 17 18  2  0  0  0  0
 17 19  1  0  0  0  0
 14 15  1  0  0  0  0
 14 16  1  0  0  0  0
 14 17  1  0  0  0  0
 11 12  1  0  0  0  0
 11 13  1  0  0  0  0
 11 14  1  0  0  0  0
  9 10  1  0  0  0  0
  9 11  1  0  0  0  0
  9 21  1  0  0  0  0
  7  8  1  0  0  0  0
  7  9  1  0  0  0  0
 25 26  1  0  0  0  0
 25 27  1  0  0  0  0
 25 28  1  0  0  0  0
 23 24  1  0  0  0  0
 23 25  1  0  0  0  0
M  END
$$$$
default_name
  -OEChem-01062215323D

 28 27  0     1  0  0  0  0  0999 V2000
   -3.2133   -3.5565    1.2809 H   0  0  0  0  0  0  0  0  0  0  0  0
   -3.1873   -2.5755    0.8089 C   0  0  0  0  0  0  0  0  0  0  0  0
   -3.8793   -1.9065    1.3169 H   0  0  0  0  0  0  0  0  0  0  0  0
   -3.4623   -2.6685   -0.2401 H   0  0  0  0  0  0  0  0  0  0  0  0
   -1.7863   -2.0195    0.9119 C   0  0  0  0  0  0  0  0  0  0  0  0
   -0.9073   -2.6615    1.4699 O   0  0  0  0  0  0  0  0  0  0  0  0
   -1.5803   -0.8195    0.3749 N   0  0  0  0  0  0  0  0  0  0  0  0
   -2.3603   -0.3345   -0.0451 H   0  0  0  0  0  0  0  0  0  0  0  0
   -0.2933   -0.1205    0.3719 C   0  0  1  0  0  0  0  0  0  0  0  0
   -0.2387    0.5144    1.2574 H   0  0  0  0  0  0  0  0  0  0  0  0
    0.8432   -1.1604    0.4487 C   0  0  0  0  0  0  0  0  0  0  0  0
    0.7012   -1.8782   -0.3610 H   0  0  0  0  0  0  0  0  0  0  0  0
    1.8001   -0.6597    0.2945 H   0  0  0  0  0  0  0  0  0  0  0  0
    0.9005   -1.9237    1.7833 C   0  0  0  0  0  0  0  0  0  0  0  0
    1.0623   -1.2249    2.6041 H   0  0  0  0  0  0  0  0  0  0  0  0
   -0.0439   -2.4440    1.9388 H   0  0  0  0  0  0  0  0  0  0  0  0
    2.0211   -2.9582    1.8100 C   0  0  0  0  0  0  0  0  0  0  0  0
    2.7179   -3.2607    0.8546 O   0  0  0  0  0  0  0  0  0  0  0  0
    2.2173   -3.5701    2.9926 O   0  0  0  0  0  0  0  0  0  0  0  0
    2.9341   -4.1882    2.8398 H   0  0  0  0  0  0  0  0  0  0  0  0
   -0.1786    0.7806   -0.8680 C   0  0  0  0  0  0  0  0  0  0  0  0
   -1.1787    1.0406   -1.5342 O   0  0  0  0  0  0  0  0  0  0  0  0
    1.0377    1.2437   -1.1808 N   0  0  0  0  0  0  0  0  0  0  0  0
    1.8078    1.0063   -0.5736 H   0  0  0  0  0  0  0  0  0  0  0  0
    1.3155    2.0920   -2.3380 C   0  0  0  0  0  0  0  0  0  0  0  0
    0.7032    2.9944   -2.2900 H   0  0  0  0  0  0  0  0  0  0  0  0
    2.3691    2.3743   -2.3567 H   0  0  0  0  0  0  0  0  0  0  0  0
    1.0697    1.5550   -3.2562 H   0  0  0  0  0  0  0  0  0  0  0  0
  5  6  2  0  0  0  0
  5  7  1  0  0  0  0
  2  3  1  0  0  0  0
  2  4  1  0  0  0  0
  2  5  1  0  0  0  0
  1  2  1  0  0  0  0
 21 22  2  0  0  0  0
 21 23  1  0  0  0  0
 19 20  1  0  0  0  0
 17 18  2  0  0  0  0
 17 19  1  0  0  0  0
 14 15  1  0  0  0  0
 14 16  1  0  0  0  0
 14 17  1  0  0  0  0
 11 12  1  0  0  0  0
 11 13  1  0  0  0  0
 11 14  1  0  0  0  0
  9 10  1  0  0  0  0
  9 11  1  0  0  0  0
  9 21  1  0  0  0  0
  7  8  1  0  0  0  0
  7  9  1  0  0  0  0
 25 26  1  0  0  0  0
 25 27  1  0  0  0  0
 25 28  1  0  0  0  0
 23 24  1  0  0  0  0
 23 25  1  0  0  0  0
M  END
$$$$
default_name
  -OEChem-01062215323D

 28 27  0     1  0  0  0  0  0999 V2000
   -3.2133   -3.5565    1.2809 H   0  0  0  0  0  0  0  0  0  0  0  0
   -3.1873   -2.5755    0.8089 C   0  0  0  0  0  0  0  0  0  0  0  0
   -3.8793   -1.9065    1.3169 H   0  0  0  0  0  0  0  0  0  0  0  0
   -3.4623   -2.6685   -0.2401 H   0  0  0  0  0  0  0  0  0  0  0  0
   -1.7863   -2.0195    0.9119 C   0  0  0  0  0  0  0  0  0  0  0  0
   -0.9073   -2.6615    1.4699 O   0  0  0  0  0  0  0  0  0  0  0  0
   -1.5803   -0.8195    0.3749 N   0  0  0  0  0  0  0  0  0  0  0  0
   -2.3603   -0.3345   -0.0451 H   0  0  0  0  0  0  0  0  0  0  0  0
   -0.2933   -0.1205    0.3719 C   0  0  1  0  0  0  0  0  0  0  0  0
   -0.2387    0.5144    1.2574 H   0  0  0  0  0  0  0  0  0  0  0  0
    0.8432   -1.1604    0.4487 C   0  0  0  0  0  0  0  0  0  0  0  0
    0.7012   -1.8782   -0.3610 H   0  0  0  0  0  0  0  0  0  0  0  0
    1.8001   -0.6597    0.2945 H   0  0  0  0  0  0  0  0  0  0  0  0
    0.9005   -1.9237    1.7833 C   0  0  0  0  0  0  0  0  0  0  0  0
    1.0623   -1.2249    2.6041 H   0  0  0  0  0  0  0  0  0  0  0  0
   -0.0439   -2.4440    1.9388 H   0  0  0  0  0  0  0  0  0  0  0  0
    2.0211   -2.9582    1.8100 C   0  0  0  0  0  0  0  0  0  0  0  0
    2.7179   -3.2607    0.8546 O   0  0  0  0  0  0  0  0  0  0  0  0
    2.2173   -3.5701    2.9926 O   0  0  0  0  0  0  0  0  0  0  0  0
    2.9341   -4.1882    2.8398 H   0  0  0  0  0  0  0  0  0  0  0  0
   -0.1786    0.7806   -0.8680 C   0  0  0  0  0  0  0  0  0  0  0  0
   -1.1898    1.2657   -1.3717 O   0  0  0  0  0  0  0  0  0  0  0  0
    1.0470    0.9923   -1.3626 N   0  0  0  0  0  0  0  0  0  0  0  0
    1.8320    0.5790   -0.8818 H   0  0  0  0  0  0  0  0  0  0  0  0
    1.3206    1.8051   -2.5461 C   0  0  0  0  0  0  0  0  0  0  0  0
    0.9260    2.8125   -2.4016 H   0  0  0  0  0  0  0  0  0  0  0  0
    2.3951    1.8633   -2.7257 H   0  0  0  0  0  0  0  0  0  0  0  0
    0.8328    1.3635   -3.4173 H   0  0  0  0  0  0  0  0  0  0  0  0
  5  6  2  0  0  0  0
  5  7  1  0  0  0  0
  2  3  1  0  0  0  0
  2  4  1  0  0  0  0
  2  5  1  0  0  0  0
  1  2  1  0  0  0  0
 21 22  2  0  0  0  0
 21 23  1  0  0  0  0
 19 20  1  0  0  0  0
 17 18  2  0  0  0  0
 17 19  1  0  0  0  0
 14 15  1  0  0  0  0
 14 16  1  0  0  0  0
 14 17  1  0  0  0  0
 11 12  1  0  0  0  0
 11 13  1  0  0  0  0
 11 14  1  0  0  0  0
  9 10  1  0  0  0  0
  9 11  1  0  0  0  0
  9 21  1  0  0  0  0
  7  8  1  0  0  0  0
  7  9  1  0  0  0  0
 25 26  1  0  0  0  0
 25 27  1  0  0  0  0
 25 28  1  0  0  0  0
 23 24  1  0  0  0  0
 23 25  1  0  0  0  0
M  END
$$$$
default_name
  -OEChem-01062215323D

 28 27  0     1  0  0  0  0  0999 V2000
   -3.2133   -3.5565    1.2809 H   0  0  0  0  0  0  0  0  0  0  0  0
   -3.1873   -2.5755    0.8089 C   0  0  0  0  0  0  0  0  0  0  0  0
   -3.8793   -1.9065    1.3169 H   0  0  0  0  0  0  0  0  0  0  0  0
   -3.4623   -2.6685   -0.2401 H   0  0  0  0  0  0  0  0  0  0  0  0
   -1.7863   -2.0195    0.9119 C   0  0  0  0  0  0  0  0  0  0  0  0
   -0.9073   -2.6615    1.4699 O   0  0  0  0  0  0  0  0  0  0  0  0
   -1.5803   -0.8195    0.3749 N   0  0  0  0  0  0  0  0  0  0  0  0
   -2.3603   -0.3345   -0.0451 H   0  0  0  0  0  0  0  0  0  0  0  0
   -0.2933   -0.1205    0.3719 C   0  0  1  0  0  0  0  0  0  0  0  0
   -0.2387    0.5144    1.2574 H   0  0  0  0  0  0  0  0  0  0  0  0
    0.8432   -1.1604    0.4487 C   0  0  0  0  0  0  0  0  0  0  0  0
    0.7012   -1.8782   -0.3610 H   0  0  0  0  0  0  0  0  0  0  0  0
    1.8001   -0.6597    0.2945 H   0  0  0  0  0  0  0  0  0  0  0  0
    0.9005   -1.9237    1.7833 C   0  0  0  0  0  0  0  0  0  0  0  0
    1.0623   -1.2249    2.6041 H   0  0  0  0  0  0  0  0  0  0  0  0
   -0.0439   -2.4440    1.9388 H   0  0  0  0  0  0  0  0  0  0  0  0
    2.0211   -2.9582    1.8100 C   0  0  0  0  0  0  0  0  0  0  0  0
    2.7179   -3.2607    0.8546 O   0  0  0  0  0  0  0  0  0  0  0  0
    2.2173   -3.5701    2.9926 O   0  0  0  0  0  0  0  0  0  0  0  0
    2.9341   -4.1882    2.8398 H   0  0  0  0  0  0  0  0  0  0  0  0
   -0.1786    0.7806   -0.8680 C   0  0  0  0  0  0  0  0  0  0  0  0
   -1.1290    1.4823   -1.2086 O   0  0  0  0  0  0  0  0  0  0  0  0
    0.9760    0.7510   -1.5446 N   0  0  0  0  0  0  0  0  0  0  0  0
    1.7195    0.1673   -1.1915 H   0  0  0  0  0  0  0  0  0  0  0  0
    1.2341    1.5309   -2.7534 C   0  0  0  0  0  0  0  0  0  0  0  0
    1.0863    2.5924   -2.5467 H   0  0  0  0  0  0  0  0  0  0  0  0
    2.2575    1.3714   -3.0959 H   0  0  0  0  0  0  0  0  0  0  0  0
    0.5395    1.2312   -3.5406 H   0  0  0  0  0  0  0  0  0  0  0  0
  5  6  2  0  0  0  0
  5  7  1  0  0  0  0
  2  3  1  0  0  0  0
  2  4  1  0  0  0  0
  2  5  1  0  0  0  0
  1  2  1  0  0  0  0
 21 22  2  0  0  0  0
 21 23  1  0  0  0  0
 19 20  1  0  0  0  0
 17 18  2  0  0  0  0
 17 19  1  0  0  0  0
 14 15  1  0  0  0  0
 14 16  1  0  0  0  0
 14 17  1  0  0  0  0
 11 12  1  0  0  0  0
 11 13  1  0  0  0  0
 11 14  1  0  0  0  0
  9 10  1  0  0  0  0
  9 11  1  0  0  0  0
  9 21  1  0  0  0  0
  7  8  1  0  0  0  0
  7  9  1  0  0  0  0
 25 26  1  0  0  0  0
 25 27  1  0  0  0  0
 25 28  1  0  0  0  0
 23 24  1  0  0  0  0
 23 25  1  0  0  0  0
M  END
$$$$
default_name
  -OEChem-01062215323D

 28 27  0     1  0  0  0  0  0999 V2000
   -3.2133   -3.5565    1.2809 H   0  0  0  0  0  0  0  0  0  0  0  0
   -3.1873   -2.5755    0.8089 C   0  0  0  0  0  0  0  0  0  0  0  0
   -3.8793   -1.9065    1.3169 H   0  0  0  0  0  0  0  0  0  0  0  0
   -3.4623   -2.6685   -0.2401 H   0  0  0  0  0  0  0  0  0  0  0  0
   -1.7863   -2.0195    0.9119 C   0  0  0  0  0  0  0  0  0  0  0  0
   -0.9073   -2.6615    1.4699 O   0  0  0  0  0  0  0  0  0  0  0  0
   -1.5803   -0.8195    0.3749 N   0  0  0  0  0  0  0  0  0  0  0  0
   -2.3603   -0.3345   -0.0451 H   0  0  0  0  0  0  0  0  0  0  0  0
   -0.2933   -0.1205    0.3719 C   0  0  1  0  0  0  0  0  0  0  0  0
   -0.2387    0.5144    1.2574 H   0  0  0  0  0  0  0  0  0  0  0  0
    0.8432   -1.1604    0.4487 C   0  0  0  0  0  0  0  0  0  0  0  0
    0.7012   -1.8782   -0.3610 H   0  0  0  0  0  0  0  0  0  0  0  0
    1.8001   -0.6597    0.2945 H   0  0  0  0  0  0  0  0  0  0  0  0
    0.9005   -1.9237    1.7833 C   0  0  0  0  0  0  0  0  0  0  0  0
    1.0623   -1.2249    2.6041 H   0  0  0  0  0  0  0  0  0  0  0  0
   -0.0439   -2.4440    1.9388 H   0  0  0  0  0  0  0  0  0  0  0  0
    2.0211   -2.9582    1.8100 C   0  0  0  0  0  0  0  0  0  0  0  0
    2.7179   -3.2607    0.8546 O   0  0  0  0  0  0  0  0  0  0  0  0
    2.2173   -3.5701    2.9926 O   0  0  0  0  0  0  0  0  0  0  0  0
    2.9341   -4.1882    2.8398 H   0  0  0  0  0  0  0  0  0  0  0  0
   -0.1786    0.7806   -0.8680 C   0  0  0  0  0  0  0  0  0  0  0  0
   -1.0002    1.6757   -1.0561 O   0  0  0  0  0  0  0  0  0  0  0  0
    0.8294    0.5364   -1.7141 N   0  0  0  0  0  0  0  0  0  0  0  0
    1.4777   -0.2010   -1.4815 H   0  0  0  0  0  0  0  0  0  0  0  0
    1.0618    1.2881   -2.9458 C   0  0  0  0  0  0  0  0  0  0  0  0
    1.1731    2.3492   -2.7154 H   0  0  0  0  0  0  0  0  0  0  0  0
    1.9657    0.9322   -3.4421 H   0  0  0  0  0  0  0  0  0  0  0  0
    0.2099    1.1670   -3.6178 H   0  0  0  0  0  0  0  0  0  0  0  0
  5  6  2  0  0  0  0
  5  7  1  0  0  0  0
  2  3  1  0  0  0  0
  2  4  1  0  0  0  0
  2  5  1  0  0  0  0
  1  2  1  0  0  0  0
 21 22  2  0  0  0  0
 21 23  1  0  0  0  0
 19 20  1  0  0  0  0
 17 18  2  0  0  0  0
 17 19  1  0  0  0  0
 14 15  1  0  0  0  0
 14 16  1  0  0  0  0
 14 17  1  0  0  0  0
 11 12  1  0  0  0  0
 11 13  1  0  0  0  0
 11 14  1  0  0  0  0
  9 10  1  0  0  0  0
  9 11  1  0  0  0  0
  9 21  1  0  0  0  0
  7  8  1  0  0  0  0
  7  9  1  0  0  0  0
 25 26  1  0  0  0  0
 25 27  1  0  0  0  0
 25 28  1  0  0  0  0
 23 24  1  0  0  0  0
 23 25  1  0  0  0  0
M  END
$$$$
default_name
  -OEChem-01062215323D

 28 27  0     1  0  0  0  0  0999 V2000
   -3.2133   -3.5565    1.2809 H   0  0  0  0  0  0  0  0  0  0  0  0
   -3.1873   -2.5755    0.8089 C   0  0  0  0  0  0  0  0  0  0  0  0
   -3.8793   -1.9065    1.3169 H   0  0  0  0  0  0  0  0  0  0  0  0
   -3.4623   -2.6685   -0.2401 H   0  0  0  0  0  0  0  0  0  0  0  0
   -1.7863   -2.0195    0.9119 C   0  0  0  0  0  0  0  0  0  0  0  0
   -0.9073   -2.6615    1.4699 O   0  0  0  0  0  0  0  0  0  0  0  0
   -1.5803   -0.8195    0.3749 N   0  0  0  0  0  0  0  0  0  0  0  0
   -2.3603   -0.3345   -0.0451 H   0  0  0  0  0  0  0  0  0  0  0  0
   -0.2933   -0.1205    0.3719 C   0  0  1  0  0  0  0  0  0  0  0  0
   -0.2387    0.5144    1.2574 H   0  0  0  0  0  0  0  0  0  0  0  0
    0.8432   -1.1604    0.4487 C   0  0  0  0  0  0  0  0  0  0  0  0
    0.7012   -1.8782   -0.3610 H   0  0  0  0  0  0  0  0  0  0  0  0
    1.8001   -0.6597    0.2945 H   0  0  0  0  0  0  0  0  0  0  0  0
    0.9005   -1.9237    1.7833 C   0  0  0  0  0  0  0  0  0  0  0  0
    1.0623   -1.2249    2.6041 H   0  0  0  0  0  0  0  0  0  0  0  0
   -0.0439   -2.4440    1.9388 H   0  0  0  0  0  0  0  0  0  0  0  0
    2.0211   -2.9582    1.8100 C   0  0  0  0  0  0  0  0  0  0  0  0
    2.7179   -3.2607    0.8546 O   0  0  0  0  0  0  0  0  0  0  0  0
    2.2173   -3.5701    2.9926 O   0  0  0  0  0  0  0  0  0  0  0  0
    2.9341   -4.1882    2.8398 H   0  0  0  0  0  0  0  0  0  0  0  0
   -0.1786    0.7806   -0.8680 C   0  0  0  0  0  0  0  0  0  0  0  0
   -0.8123    1.8327   -0.9247 O   0  0  0  0  0  0  0  0  0  0  0  0
    0.6172    0.3629   -1.8599 N   0  0  0  0  0  0  0  0  0  0  0  0
    1.1234   -0.5006   -1.7321 H   0  0  0  0  0  0  0  0  0  0  0  0
    0.8155    1.0932   -3.1101 C   0  0  0  0  0  0  0  0  0  0  0  0
    1.1806    2.0994   -2.8963 H   0  0  0  0  0  0  0  0  0  0  0  0
    1.5396    0.5755   -3.7407 H   0  0  0  0  0  0  0  0  0  0  0  0
   -0.1336    1.1752   -3.6436 H   0  0  0  0  0  0  0  0  0  0  0  0
  5  6  2  0  0  0  0
  5  7  1  0  0  0  0
  2  3  1  0  0  0  0
  2  4  1  0  0  0  0
  2  5  1  0  0  0  0
  1  2  1  0  0  0  0
 21 22  2  0  0  0  0
 21 23  1  0  0  0  0
 19 20  1  0  0  0  0
 17 18  2  0  0  0  0
 17 19  1  0  0  0  0
 14 15  1  0  0  0  0
 14 16  1  0  0  0  0
 14 17  1  0  0  0  0
 11 12  1  0  0  0  0
 11 13  1  0  0  0  0
 11 14  1  0  0  0  0
  9 10  1  0  0  0  0
  9 11  1  0  0  0  0
  9 21  1  0  0  0  0
  7  8  1  0  0  0  0
  7  9  1  0  0  0  0
 25 26  1  0  0  0  0
 25 27  1  0  0  0  0
 25 28  1  0  0  0  0
 23 24  1  0  0  0  0
 23 25  1  0  0  0  0
M  END
$$$$
default_name
  -OEChem-01062215323D

 28 27  0     1  0  0  0  0  0999 V2000
   -3.2133   -3.5565    1.2809 H   0  0  0  0  0  0  0  0  0  0  0  0
   -3.1873   -2.5755    0.8089 C   0  0  0  0  0  0  0  0  0  0  0  0
   -3.8793   -1.9065    1.3169 H   0  0  0  0  0  0  0  0  0  0  0  0
   -3.4623   -2.6685   -0.2401 H   0  0  0  0  0  0  0  0  0  0  0  0
   -1.7863   -2.0195    0.9119 C   0  0  0  0  0  0  0  0  0  0  0  0
   -0.9073   -2.6615    1.4699 O   0  0  0  0  0  0  0  0  0  0  0  0
   -1.5803   -0.8195    0.3749 N   0  0  0  0  0  0  0  0  0  0  0  0
   -2.3603   -0.3345   -0.0451 H   0  0  0  0  0  0  0  0  0  0  0  0
   -0.2933   -0.1205    0.3719 C   0  0  1  0  0  0  0  0  0  0  0  0
   -0.2387    0.5144    1.2574 H   0  0  0  0  0  0  0  0  0  0  0  0
    0.8432   -1.1604    0.4487 C   0  0  0  0  0  0  0  0  0  0  0  0
    0.7012   -1.8782   -0.3610 H   0  0  0  0  0  0  0  0  0  0  0  0
    1.8001   -0.6597    0.2945 H   0  0  0  0  0  0  0  0  0  0  0  0
    0.9005   -1.9237    1.7833 C   0  0  0  0  0  0  0  0  0  0  0  0
    1.0623   -1.2249    2.6041 H   0  0  0  0  0  0  0  0  0  0  0  0
   -0.0439   -2.4440    1.9388 H   0  0  0  0  0  0  0  0  0  0  0  0
    2.0211   -2.9582    1.8100 C   0  0  0  0  0  0  0  0  0  0  0  0
    2.7179   -3.2607    0.8546 O   0  0  0  0  0  0  0  0  0  0  0  0
    2.2173   -3.5701    2.9926 O   0  0  0  0  0  0  0  0  0  0  0  0
    2.9341   -4.1882    2.8398 H   0  0  0  0  0  0  0  0  0  0  0  0
   -0.1786    0.7806   -0.8680 C   0  0  0  0  0  0  0  0  0  0  0  0
   -0.5781    1.9425   -0.8232 O   0  0  0  0  0  0  0  0  0  0  0  0
    0.3539    0.2424   -1.9718 N   0  0  0  0  0  0  0  0  0  0  0  0
    0.6805   -0.7113   -1.9261 H   0  0  0  0  0  0  0  0  0  0  0  0
    0.5119    0.9596   -3.2353 C   0  0  0  0  0  0  0  0  0  0  0  0
    1.1083    1.8600   -3.0769 H   0  0  0  0  0  0  0  0  0  0  0  0
    1.0083    0.3257   -3.9714 H   0  0  0  0  0  0  0  0  0  0  0  0
   -0.4676    1.2554   -3.6162 H   0  0  0  0  0  0  0  0  0  0  0  0
  5  6  2  0  0  0  0
  5  7  1  0  0  0  0
  2  3  1  0  0  0  0
  2  4  1  0  0  0  0
  2  5  1  0  0  0  0
  1  2  1  0  0  0  0
 21 22  2  0  0  0  0
 21 23  1  0  0  0  0
 19 20  1  0  0  0  0
 17 18  2  0  0  0  0
 17 19  1  0  0  0  0
 14 15  1  0  0  0  0
 14 16  1  0  0  0  0
 14 17  1  0  0  0  0
 11 12  1  0  0  0  0
 11 13  1  0  0  0  0
 11 14  1  0  0  0  0
  9 10  1  0  0  0  0
  9 11  1  0  0  0  0
  9 21  1  0  0  0  0
  7  8  1  0  0  0  0
  7  9  1  0  0  0  0
 25 26  1  0  0  0  0
 25 27  1  0  0  0  0
 25 28  1  0  0  0  0
 23 24  1  0  0  0  0
 23 25  1  0  0  0  0
M  END
$$$$
default_name
  -OEChem-01062215323D

 28 27  0     1  0  0  0  0  0999 V2000
   -3.2133   -3.5565    1.2809 H   0  0  0  0  0  0  0  0  0  0  0  0
   -3.1873   -2.5755    0.8089 C   0  0  0  0  0  0  0  0  0  0  0  0
   -3.8793   -1.9065    1.3169 H   0  0  0  0  0  0  0  0  0  0  0  0
   -3.4623   -2.6685   -0.2401 H   0  0  0  0  0  0  0  0  0  0  0  0
   -1.7863   -2.0195    0.9119 C   0  0  0  0  0  0  0  0  0  0  0  0
   -0.9073   -2.6615    1.4699 O   0  0  0  0  0  0  0  0  0  0  0  0
   -1.5803   -0.8195    0.3749 N   0  0  0  0  0  0  0  0  0  0  0  0
   -2.3603   -0.3345   -0.0451 H   0  0  0  0  0  0  0  0  0  0  0  0
   -0.2933   -0.1205    0.3719 C   0  0  1  0  0  0  0  0  0  0  0  0
   -0.2387    0.5144    1.2574 H   0  0  0  0  0  0  0  0  0  0  0  0
    0.8432   -1.1604    0.4487 C   0  0  0  0  0  0  0  0  0  0  0  0
    0.7012   -1.8782   -0.3610 H   0  0  0  0  0  0  0  0  0  0  0  0
    1.8001   -0.6597    0.2945 H   0  0  0  0  0  0  0  0  0  0  0  0
    0.9005   -1.9237    1.7833 C   0  0  0  0  0  0  0  0  0  0  0  0
    1.0623   -1.2249    2.6041 H   0  0  0  0  0  0  0  0  0  0  0  0
   -0.0439   -2.4440    1.9388 H   0  0  0  0  0  0  0  0  0  0  0  0
    2.0211   -2.9582    1.8100 C   0  0  0  0  0  0  0  0  0  0  0  0
    2.7179   -3.2607    0.8546 O   0  0  0  0  0  0  0  0  0  0  0  0
    2.2173   -3.5701    2.9926 O   0  0  0  0  0  0  0  0  0  0  0  0
    2.9341   -4.1882    2.8398 H   0  0  0  0  0  0  0  0  0  0  0  0
   -0.1786    0.7806   -0.8680 C   0  0  0  0  0  0  0  0  0  0  0  0
   -0.3135    1.9978   -0.7585 O   0  0  0  0  0  0  0  0  0  0  0  0
    0.0575    0.1832   -2.0422 N   0  0  0  0  0  0  0  0  0  0  0  0
    0.1793   -0.8185   -2.0504 H   0  0  0  0  0  0  0  0  0  0  0  0
    0.1718    0.8964   -3.3128 C   0  0  0  0  0  0  0  0  0  0  0  0
    0.9610    1.6474   -3.2451 H   0  0  0  0  0  0  0  0  0  0  0  0
    0.4079    0.1998   -4.1185 H   0  0  0  0  0  0  0  0  0  0  0  0
   -0.7693    1.4021   -3.5375 H   0  0  0  0  0  0  0  0  0  0  0  0
  5  6  2  0  0  0  0
  5  7  1  0  0  0  0
  2  3  1  0  0  0  0
  2  4  1  0  0  0  0
  2  5  1  0  0  0  0
  1  2  1  0  0  0  0
 21 22  2  0  0  0  0
 21 23  1  0  0  0  0
 19 20  1  0  0  0  0
 17 18  2  0  0  0  0
 17 19  1  0  0  0  0
 14 15  1  0  0  0  0
 14 16  1  0  0  0  0
 14 17  1  0  0  0  0
 11 12  1  0  0  0  0
 11 13  1  0  0  0  0
 11 14  1  0  0  0  0
  9 10  1  0  0  0  0
  9 11  1  0  0  0  0
  9 21  1  0  0  0  0
  7  8  1  0  0  0  0
  7  9  1  0  0  0  0
 25 26  1  0  0  0  0
 25 27  1  0  0  0  0
 25 28  1  0  0  0  0
 23 24  1  0  0  0  0
 23 25  1  0  0  0  0
M  END
$$$$
default_name
  -OEChem-01062215323D

 28 27  0     1  0  0  0  0  0999 V2000
   -3.2133   -3.5565    1.2809 H   0  0  0  0  0  0  0  0  0  0  0  0
   -3.1873   -2.5755    0.8089 C   0  0  0  0  0  0  0  0  0  0  0  0
   -3.8793   -1.9065    1.3169 H   0  0  0  0  0  0  0  0  0  0  0  0
   -3.4623   -2.6685   -0.2401 H   0  0  0  0  0  0  0  0  0  0  0  0
   -1.7863   -2.0195    0.9119 C   0  0  0  0  0  0  0  0  0  0  0  0
   -0.9073   -2.6615    1.4699 O   0  0  0  0  0  0  0  0  0  0  0  0
   -1.5803   -0.8195    0.3749 N   0  0  0  0  0  0  0  0  0  0  0  0
   -2.3603   -0.3345   -0.0451 H   0  0  0  0  0  0  0  0  0  0  0  0
   -0.2933   -0.1205    0.3719 C   0  0  1  0  0  0  0  0  0  0  0  0
   -0.2387    0.5144    1.2574 H   0  0  0  0  0  0  0  0  0  0  0  0
    0.8432   -1.1604    0.4487 C   0  0  0  0  0  0  0  0  0  0  0  0
    0.7012   -1.8782   -0.3610 H   0  0  0  0  0  0  0  0  0  0  0  0
    1.8001   -0.6597    0.2945 H   0  0  0  0  0  0  0  0  0  0  0  0
    0.9005   -1.9237    1.7833 C   0  0  0  0  0  0  0  0  0  0  0  0
    1.0623   -1.2249    2.6041 H   0  0  0  0  0  0  0  0  0  0  0  0
   -0.0439   -2.4440    1.9388 H   0  0  0  0  0  0  0  0  0  0  0  0
    2.0211   -2.9582    1.8100 C   0  0  0  0  0  0  0  0  0  0  0  0
    2.7179   -3.2607    0.8546 O   0  0  0  0  0  0  0  0  0  0  0  0
    2.2173   -3.5701    2.9926 O   0  0  0  0  0  0  0  0  0  0  0  0
    2.9341   -4.1882    2.8398 H   0  0  0  0  0  0  0  0  0  0  0  0
   -0.1786    0.7806   -0.8680 C   0  0  0  0  0  0  0  0  0  0  0  0
   -0.0366    1.9947   -0.7352 O   0  0  0  0  0  0  0  0  0  0  0  0
   -0.2519    0.1892   -2.0665 N   0  0  0  0  0  0  0  0  0  0  0  0
   -0.3461   -0.8150   -2.0965 H   0  0  0  0  0  0  0  0  0  0  0  0
   -0.1817    0.9078   -3.3372 C   0  0  0  0  0  0  0  0  0  0  0  0
    0.7489    1.4760   -3.3893 H   0  0  0  0  0  0  0  0  0  0  0  0
   -0.2206    0.2064   -4.1719 H   0  0  0  0  0  0  0  0  0  0  0  0
   -1.0182    1.6053   -3.4129 H   0  0  0  0  0  0  0  0  0  0  0  0
  5  6  2  0  0  0  0
  5  7  1  0  0  0  0
  2  3  1  0  0  0  0
  2  4  1  0  0  0  0
  2  5  1  0  0  0  0
  1  2  1  0  0  0  0
 21 22  2  0  0  0  0
 21 23  1  0  0  0  0
 19 20  1  0  0  0  0
 17 18  2  0  0  0  0
 17 19  1  0  0  0  0
 14 15  1  0  0  0  0
 14 16  1  0  0  0  0
 14 17  1  0  0  0  0
 11 12  1  0  0  0  0
 11 13  1  0  0  0  0
 11 14  1  0  0  0  0
  9 10  1  0  0  0  0
  9 11  1  0  0  0  0
  9 21  1  0  0  0  0
  7  8  1  0  0  0  0
  7  9  1  0  0  0  0
 25 26  1  0  0  0  0
 25 27  1  0  0  0  0
 25 28  1  0  0  0  0
 23 24  1  0  0  0  0
 23 25  1  0  0  0  0
M  END
$$$$
default_name
  -OEChem-01062215323D

 28 27  0     1  0  0  0  0  0999 V2000
   -3.2133   -3.5565    1.2809 H   0  0  0  0  0  0  0  0  0  0  0  0
   -3.1873   -2.5755    0.8089 C   0  0  0  0  0  0  0  0  0  0  0  0
   -3.8793   -1.9065    1.3169 H   0  0  0  0  0  0  0  0  0  0  0  0
   -3.4623   -2.6685   -0.2401 H   0  0  0  0  0  0  0  0  0  0  0  0
   -1.7863   -2.0195    0.9119 C   0  0  0  0  0  0  0  0  0  0  0  0
   -0.9073   -2.6615    1.4699 O   0  0  0  0  0  0  0  0  0  0  0  0
   -1.5803   -0.8195    0.3749 N   0  0  0  0  0  0  0  0  0  0  0  0
   -2.3603   -0.3345   -0.0451 H   0  0  0  0  0  0  0  0  0  0  0  0
   -0.2933   -0.1205    0.3719 C   0  0  1  0  0  0  0  0  0  0  0  0
   -0.2387    0.5144    1.2574 H   0  0  0  0  0  0  0  0  0  0  0  0
    0.8432   -1.1604    0.4487 C   0  0  0  0  0  0  0  0  0  0  0  0
    0.7012   -1.8782   -0.3610 H   0  0  0  0  0  0  0  0  0  0  0  0
    1.8001   -0.6597    0.2945 H   0  0  0  0  0  0  0  0  0  0  0  0
    0.9005   -1.9237    1.7833 C   0  0  0  0  0  0  0  0  0  0  0  0
    1.0623   -1.2249    2.6041 H   0  0  0  0  0  0  0  0  0  0  0  0
   -0.0439   -2.4440    1.9388 H   0  0  0  0  0  0  0  0  0  0  0  0
    2.0211   -2.9582    1.8100 C   0  0  0  0  0  0  0  0  0  0  0  0
    2.7179   -3.2607    0.8546 O   0  0  0  0  0  0  0  0  0  0  0  0
    2.2173   -3.5701    2.9926 O   0  0  0  0  0  0  0  0  0  0  0  0
    2.9341   -4.1882    2.8398 H   0  0  0  0  0  0  0  0  0  0  0  0
   -0.1786    0.7806   -0.8680 C   0  0  0  0  0  0  0  0  0  0  0  0
    0.2338    1.9334   -0.7547 O   0  0  0  0  0  0  0  0  0  0  0  0
   -0.5532    0.2601   -2.0428 N   0  0  0  0  0  0  0  0  0  0  0  0
   -0.8598   -0.7011   -2.0612 H   0  0  0  0  0  0  0  0  0  0  0  0
   -0.5244    0.9931   -3.3069 C   0  0  0  0  0  0  0  0  0  0  0  0
    0.4863    1.3575   -3.4996 H   0  0  0  0  0  0  0  0  0  0  0  0
   -0.8344    0.3451   -4.1279 H   0  0  0  0  0  0  0  0  0  0  0  0
   -1.1972    1.8511   -3.2508 H   0  0  0  0  0  0  0  0  0  0  0  0
  5  6  2  0  0  0  0
  5  7  1  0  0  0  0
  2  3  1  0  0  0  0
  2  4  1  0  0  0  0
  2  5  1  0  0  0  0
  1  2  1  0  0  0  0
 21 22  2  0  0  0  0
 21 23  1  0  0  0  0
 19 20  1  0  0  0  0
 17 18  2  0  0  0  0
 17 19  1  0  0  0  0
 14 15  1  0  0  0  0
 14 16  1  0  0  0  0
 14 17  1  0  0  0  0
 11 12  1  0  0  0  0
 11 13  1  0  0  0  0
 11 14  1  0  0  0  0
  9 10  1  0  0  0  0
  9 11  1  0  0  0  0
  9 21  1  0  0  0  0
  7  8  1  0  0  0  0
  7  9  1  0  0  0  0
 25 26  1  0  0  0  0
 25 27  1  0  0  0  0
 25 28  1  0  0  0  0
 23 24  1  0  0  0  0
 23 25  1  0  0  0  0
M  END
$$$$
default_name
  -OEChem-01062215323D

 28 27  0     1  0  0  0  0  0999 V2000
   -3.2133   -3.5565    1.2809 H   0  0  0  0  0  0  0  0  0  0  0  0
   -3.1873   -2.5755    0.8089 C   0  0  0  0  0  0  0  0  0  0  0  0
   -3.8793   -1.9065    1.3169 H   0  0  0  0  0  0  0  0  0  0  0  0
   -3.4623   -2.6685   -0.2401 H   0  0  0  0  0  0  0  0  0  0  0  0
   -1.7863   -2.0195    0.9119 C   0  0  0  0  0  0  0  0  0  0  0  0
   -0.9073   -2.6615    1.4699 O   0  0  0  0  0  0  0  0  0  0  0  0
   -1.5803   -0.8195    0.3749 N   0  0  0  0  0  0  0  0  0  0  0  0
   -2.3603   -0.3345   -0.0451 H   0  0  0  0  0  0  0  0  0  0  0  0
   -0.2933   -0.1205    0.3719 C   0  0  1  0  0  0  0  0  0  0  0  0
   -0.2387    0.5144    1.2574 H   0  0  0  0  0  0  0  0  0  0  0  0
    0.8432   -1.1604    0.4487 C   0  0  0  0  0  0  0  0  0  0  0  0
    0.7012   -1.8782   -0.3610 H   0  0  0  0  0  0  0  0  0  0  0  0
    1.8001   -0.6597    0.2945 H   0  0  0  0  0  0  0  0  0  0  0  0
    0.9005   -1.9237    1.7833 C   0  0  0  0  0  0  0  0  0  0  0  0
    1.0623   -1.2249    2.6041 H   0  0  0  0  0  0  0  0  0  0  0  0
   -0.0439   -2.4440    1.9388 H   0  0  0  0  0  0  0  0  0  0  0  0
    2.0211   -2.9582    1.8100 C   0  0  0  0  0  0  0  0  0  0  0  0
    2.7179   -3.2607    0.8546 O   0  0  0  0  0  0  0  0  0  0  0  0
    2.2173   -3.5701    2.9926 O   0  0  0  0  0  0  0  0  0  0  0  0
    2.9341   -4.1882    2.8398 H   0  0  0  0  0  0  0  0  0  0  0  0
   -0.1786    0.7806   -0.8680 C   0  0  0  0  0  0  0  0  0  0  0  0
    0.4791    1.8181   -0.8158 O   0  0  0  0  0  0  0  0  0  0  0  0
   -0.8258    0.3910   -1.9729 N   0  0  0  0  0  0  0  0  0  0  0  0
   -1.3269   -0.4844   -1.9470 H   0  0  0  0  0  0  0  0  0  0  0  0
   -0.8330    1.1465   -3.2240 C   0  0  0  0  0  0  0  0  0  0  0  0
    0.1912    1.3001   -3.5687 H   0  0  0  0  0  0  0  0  0  0  0  0
   -1.3917    0.6063   -3.9896 H   0  0  0  0  0  0  0  0  0  0  0  0
   -1.2943    2.1227   -3.0624 H   0  0  0  0  0  0  0  0  0  0  0  0
  5  6  2  0  0  0  0
  5  7  1  0  0  0  0
  2  3  1  0  0  0  0
  2  4  1  0  0  0  0
  2  5  1  0  0  0  0
  1  2  1  0  0  0  0
 21 22  2  0  0  0  0
 21 23  1  0  0  0  0
 19 20  1  0  0  0  0
 17 18  2  0  0  0  0
 17 19  1  0  0  0  0
 14 15  1  0  0  0  0
 14 16  1  0  0  0  0
 14 17  1  0  0  0  0
 11 12  1  0  0  0  0
 11 13  1  0  0  0  0
 11 14  1  0  0  0  0
  9 10  1  0  0  0  0
  9 11  1  0  0  0  0
  9 21  1  0  0  0  0
  7  8  1  0  0  0  0
  7  9  1  0  0  0  0
 25 26  1  0  0  0  0
 25 27  1  0  0  0  0
 25 28  1  0  0  0  0
 23 24  1  0  0  0  0
 23 25  1  0  0  0  0
M  END
$$$$
default_name
  -OEChem-01062215323D

 28 27  0     1  0  0  0  0  0999 V2000
   -3.2133   -3.5565    1.2809 H   0  0  0  0  0  0  0  0  0  0  0  0
   -3.1873   -2.5755    0.8089 C   0  0  0  0  0  0  0  0  0  0  0  0
   -3.8793   -1.9065    1.3169 H   0  0  0  0  0  0  0  0  0  0  0  0
   -3.4623   -2.6685   -0.2401 H   0  0  0  0  0  0  0  0  0  0  0  0
   -1.7863   -2.0195    0.9119 C   0  0  0  0  0  0  0  0  0  0  0  0
   -0.9073   -2.6615    1.4699 O   0  0  0  0  0  0  0  0  0  0  0  0
   -1.5803   -0.8195    0.3749 N   0  0  0  0  0  0  0  0  0  0  0  0
   -2.3603   -0.3345   -0.0451 H   0  0  0  0  0  0  0  0  0  0  0  0
   -0.2933   -0.1205    0.3719 C   0  0  1  0  0  0  0  0  0  0  0  0
   -0.2387    0.5144    1.2574 H   0  0  0  0  0  0  0  0  0  0  0  0
    0.8432   -1.1604    0.4487 C   0  0  0  0  0  0  0  0  0  0  0  0
    0.7012   -1.8782   -0.3610 H   0  0  0  0  0  0  0  0  0  0  0  0
    1.8001   -0.6597    0.2945 H   0  0  0  0  0  0  0  0  0  0  0  0
    0.9005   -1.9237    1.7833 C   0  0  0  0  0  0  0  0  0  0  0  0
    1.0623   -1.2249    2.6041 H   0  0  0  0  0  0  0  0  0  0  0  0
   -0.0439   -2.4440    1.9388 H   0  0  0  0  0  0  0  0  0  0  0  0
    2.0211   -2.9582    1.8100 C   0  0  0  0  0  0  0  0  0  0  0  0
    2.7179   -3.2607    0.8546 O   0  0  0  0  0  0  0  0  0  0  0  0
    2.2173   -3.5701    2.9926 O   0  0  0  0  0  0  0  0  0  0  0  0
    2.9341   -4.1882    2.8398 H   0  0  0  0  0  0  0  0  0  0  0  0
   -0.1786    0.7806   -0.8680 C   0  0  0  0  0  0  0  0  0  0  0  0
    0.6828    1.6567   -0.9142 O   0  0  0  0  0  0  0  0  0  0  0  0
   -1.0511    0.5731   -1.8615 N   0  0  0  0  0  0  0  0  0  0  0  0
   -1.7155   -0.1799   -1.7616 H   0  0  0  0  0  0  0  0  0  0  0  0
   -1.0866    1.3574   -3.0941 C   0  0  0  0  0  0  0  0  0  0  0  0
   -0.1164    1.3075   -3.5918 H   0  0  0  0  0  0  0  0  0  0  0  0
   -1.8545    0.9723   -3.7665 H   0  0  0  0  0  0  0  0  0  0  0  0
   -1.3027    2.4018   -2.8604 H   0  0  0  0  0  0  0  0  0  0  0  0
  5  6  2  0  0  0  0
  5  7  1  0  0  0  0
  2  3  1  0  0  0  0
  2  4  1  0  0  0  0
  2  5  1  0  0  0  0
  1  2  1  0  0  0  0
 21 22  2  0  0  0  0
 21 23  1  0  0  0  0
 19 20  1  0  0  0  0
 17 18  2  0  0  0  0
 17 19  1  0  0  0  0
 14 15  1  0  0  0  0
 14 16  1  0  0  0  0
 14 17  1  0  0  0  0
 11 12  1  0  0  0  0
 11 13  1  0  0  0  0
 11 14  1  0  0  0  0
  9 10  1  0  0  0  0
  9 11  1  0  0  0  0
  9 21  1  0  0  0  0
  7  8  1  0  0  0  0
  7  9  1  0  0  0  0
 25 26  1  0  0  0  0
 25 27  1  0  0  0  0
 25 28  1  0  0  0  0
 23 24  1  0  0  0  0
 23 25  1  0  0  0  0
M  END
$$$$
default_name
  -OEChem-01062215323D

 28 27  0     1  0  0  0  0  0999 V2000
   -3.2133   -3.5565    1.2809 H   0  0  0  0  0  0  0  0  0  0  0  0
   -3.1873   -2.5755    0.8089 C   0  0  0  0  0  0  0  0  0  0  0  0
   -3.8793   -1.9065    1.3169 H   0  0  0  0  0  0  0  0  0  0  0  0
   -3.4623   -2.6685   -0.2401 H   0  0  0  0  0  0  0  0  0  0  0  0
   -1.7863   -2.0195    0.9119 C   0  0  0  0  0  0  0  0  0  0  0  0
   -0.9073   -2.6615    1.4699 O   0  0  0  0  0  0  0  0  0  0  0  0
   -1.5803   -0.8195    0.3749 N   0  0  0  0  0  0  0  0  0  0  0  0
   -2.3603   -0.3345   -0.0451 H   0  0  0  0  0  0  0  0  0  0  0  0
   -0.2933   -0.1205    0.3719 C   0  0  1  0  0  0  0  0  0  0  0  0
   -0.2387    0.5144    1.2574 H   0  0  0  0  0  0  0  0  0  0  0  0
    0.8432   -1.1604    0.4487 C   0  0  0  0  0  0  0  0  0  0  0  0
    0.7012   -1.8782   -0.3610 H   0  0  0  0  0  0  0  0  0  0  0  0
    1.8001   -0.6597    0.2945 H   0  0  0  0  0  0  0  0  0  0  0  0
    0.9005   -1.9237    1.7833 C   0  0  0  0  0  0  0  0  0  0  0  0
    1.0623   -1.2249    2.6041 H   0  0  0  0  0  0  0  0  0  0  0  0
   -0.0439   -2.4440    1.9388 H   0  0  0  0  0  0  0  0  0  0  0  0
    2.0211   -2.9582    1.8100 C   0  0  0  0  0  0  0  0  0  0  0  0
    2.7179   -3.2607    0.8546 O   0  0  0  0  0  0  0  0  0  0  0  0
    2.2173   -3.5701    2.9926 O   0  0  0  0  0  0  0  0  0  0  0  0
    2.9341   -4.1882    2.8398 H   0  0  0  0  0  0  0  0  0  0  0  0
   -0.1786    0.7806   -0.8680 C   0  0  0  0  0  0  0  0  0  0  0  0
    0.8310    1.4602   -1.0433 O   0  0  0  0  0  0  0  0  0  0  0  0
   -1.2139    0.7938   -1.7161 N   0  0  0  0  0  0  0  0  0  0  0  0
   -1.9991    0.1919   -1.5177 H   0  0  0  0  0  0  0  0  0  0  0  0
   -1.2677    1.6116   -2.9262 C   0  0  0  0  0  0  0  0  0  0  0  0
   -0.4154    1.3794   -3.5672 H   0  0  0  0  0  0  0  0  0  0  0  0
   -2.1913    1.4181   -3.4736 H   0  0  0  0  0  0  0  0  0  0  0  0
   -1.2220    2.6691   -2.6586 H   0  0  0  0  0  0  0  0  0  0  0  0
  5  6  2  0  0  0  0
  5  7  1  0  0  0  0
  2  3  1  0  0  0  0
  2  4  1  0  0  0  0
  2  5  1  0  0  0  0
  1  2  1  0  0  0  0
 21 22  2  0  0  0  0
 21 23  1  0  0  0  0
 19 20  1  0  0  0  0
 17 18  2  0  0  0  0
 17 19  1  0  0  0  0
 14 15  1  0  0  0  0
 14 16  1  0  0  0  0
 14 17  1  0  0  0  0
 11 12  1  0  0  0  0
 11 13  1  0  0  0  0
 11 14  1  0  0  0  0
  9 10  1  0  0  0  0
  9 11  1  0  0  0  0
  9 21  1  0  0  0  0
  7  8  1  0  0  0  0
  7  9  1  0  0  0  0
 25 26  1  0  0  0  0
 25 27  1  0  0  0  0
 25 28  1  0  0  0  0
 23 24  1  0  0  0  0
 23 25  1  0  0  0  0
M  END
$$$$
default_name
  -OEChem-01062215323D

 28 27  0     1  0  0  0  0  0999 V2000
   -3.2133   -3.5565    1.2809 H   0  0  0  0  0  0  0  0  0  0  0  0
   -3.1873   -2.5755    0.8089 C   0  0  0  0  0  0  0  0  0  0  0  0
   -3.8793   -1.9065    1.3169 H   0  0  0  0  0  0  0  0  0  0  0  0
   -3.4623   -2.6685   -0.2401 H   0  0  0  0  0  0  0  0  0  0  0  0
   -1.7863   -2.0195    0.9119 C   0  0  0  0  0  0  0  0  0  0  0  0
   -0.9073   -2.6615    1.4699 O   0  0  0  0  0  0  0  0  0  0  0  0
   -1.5803   -0.8195    0.3749 N   0  0  0  0  0  0  0  0  0  0  0  0
   -2.3603   -0.3345   -0.0451 H   0  0  0  0  0  0  0  0  0  0  0  0
   -0.2933   -0.1205    0.3719 C   0  0  1  0  0  0  0  0  0  0  0  0
   -0.2387    0.5144    1.2574 H   0  0  0  0  0  0  0  0  0  0  0  0
    0.8432   -1.1604    0.4487 C   0  0  0  0  0  0  0  0  0  0  0  0
    0.7012   -1.8782   -0.3610 H   0  0  0  0  0  0  0  0  0  0  0  0
    1.8001   -0.6597    0.2945 H   0  0  0  0  0  0  0  0  0  0  0  0
    0.9005   -1.9237    1.7833 C   0  0  0  0  0  0  0  0  0  0  0  0
    1.0623   -1.2249    2.6041 H   0  0  0  0  0  0  0  0  0  0  0  0
   -0.0439   -2.4440    1.9388 H   0  0  0  0  0  0  0  0  0  0  0  0
    2.0211   -2.9582    1.8100 C   0  0  0  0  0  0  0  0  0  0  0  0
    2.7179   -3.2607    0.8546 O   0  0  0  0  0  0  0  0  0  0  0  0
    2.2173   -3.5701    2.9926 O   0  0  0  0  0  0  0  0  0  0  0  0
    2.9341   -4.1882    2.8398 H   0  0  0  0  0  0  0  0  0  0  0  0
   -0.1786    0.7806   -0.8680 C   0  0  0  0  0  0  0  0  0  0  0  0
    0.9134    1.2420   -1.1943 O   0  0  0  0  0  0  0  0  0  0  0  0
   -1.3030    1.0382   -1.5468 N   0  0  0  0  0  0  0  0  0  0  0  0
   -2.1585    0.6055   -1.2319 H   0  0  0  0  0  0  0  0  0  0  0  0
   -1.3642    1.8918   -2.7315 C   0  0  0  0  0  0  0  0  0  0  0  0
   -0.6855    1.5107   -3.4968 H   0  0  0  0  0  0  0  0  0  0  0  0
   -2.3790    1.9134   -3.1311 H   0  0  0  0  0  0  0  0  0  0  0  0
   -1.0575    2.9067   -2.4708 H   0  0  0  0  0  0  0  0  0  0  0  0
  5  6  2  0  0  0  0
  5  7  1  0  0  0  0
  2  3  1  0  0  0  0
  2  4  1  0  0  0  0
  2  5  1  0  0  0  0
  1  2  1  0  0  0  0
 21 22  2  0  0  0  0
 21 23  1  0  0  0  0
 19 20  1  0  0  0  0
 17 18  2  0  0  0  0
 17 19  1  0  0  0  0
 14 15  1  0  0  0  0
 14 16  1  0  0  0  0
 14 17  1  0  0  0  0
 11 12  1  0  0  0  0
 11 13  1  0  0  0  0
 11 14  1  0  0  0  0
  9 10  1  0  0  0  0
  9 11  1  0  0  0  0
  9 21  1  0  0  0  0
  7  8  1  0  0  0  0
  7  9  1  0  0  0  0
 25 26  1  0  0  0  0
 25 27  1  0  0  0  0
 25 28  1  0  0  0  0
 23 24  1  0  0  0  0
 23 25  1  0  0  0  0
M  END
$$$$
default_name
  -OEChem-01062215323D

 28 27  0     1  0  0  0  0  0999 V2000
   -3.2133   -3.5565    1.2809 H   0  0  0  0  0  0  0  0  0  0  0  0
   -3.1873   -2.5755    0.8089 C   0  0  0  0  0  0  0  0  0  0  0  0
   -3.8793   -1.9065    1.3169 H   0  0  0  0  0  0  0  0  0  0  0  0
   -3.4623   -2.6685   -0.2401 H   0  0  0  0  0  0  0  0  0  0  0  0
   -1.7863   -2.0195    0.9119 C   0  0  0  0  0  0  0  0  0  0  0  0
   -0.9073   -2.6615    1.4699 O   0  0  0  0  0  0  0  0  0  0  0  0
   -1.5803   -0.8195    0.3749 N   0  0  0  0  0  0  0  0  0  0  0  0
   -2.3603   -0.3345   -0.0451 H   0  0  0  0  0  0  0  0  0  0  0  0
   -0.2933   -0.1205    0.3719 C   0  0  1  0  0  0  0  0  0  0  0  0
   -0.2387    0.5144    1.2574 H   0  0  0  0  0  0  0  0  0  0  0  0
    0.8432   -1.1604    0.4487 C   0  0  0  0  0  0  0  0  0  0  0  0
    0.7012   -1.8782   -0.3610 H   0  0  0  0  0  0  0  0  0  0  0  0
    1.8001   -0.6597    0.2945 H   0  0  0  0  0  0  0  0  0  0  0  0
    0.9005   -1.9237    1.7833 C   0  0  0  0  0  0  0  0  0  0  0  0
    1.0623   -1.2249    2.6041 H   0  0  0  0  0  0  0  0  0  0  0  0
   -0.0439   -2.4440    1.9388 H   0  0  0  0  0  0  0  0  0  0  0  0
    2.0211   -2.9582    1.8100 C   0  0  0  0  0  0  0  0  0  0  0  0
    2.7179   -3.2607    0.8546 O   0  0  0  0  0  0  0  0  0  0  0  0
    2.2173   -3.5701    2.9926 O   0  0  0  0  0  0  0  0  0  0  0  0
    2.9341   -4.1882    2.8398 H   0  0  0  0  0  0  0  0  0  0  0  0
   -0.1786    0.7806   -0.8680 C   0  0  0  0  0  0  0  0  0  0  0  0
    0.9246    1.0169   -1.3568 O   0  0  0  0  0  0  0  0  0  0  0  0
   -1.3124    1.2896   -1.3650 N   0  0  0  0  0  0  0  0  0  0  0  0
   -2.1827    1.0327   -0.9237 H   0  0  0  0  0  0  0  0  0  0  0  0
   -1.3693    2.1787   -2.5234 C   0  0  0  0  0  0  0  0  0  0  0  0
   -0.9082    1.6926   -3.3852 H   0  0  0  0  0  0  0  0  0  0  0  0
   -2.4050    2.4245   -2.7621 H   0  0  0  0  0  0  0  0  0  0  0  0
   -0.8206    3.0981   -2.3097 H   0  0  0  0  0  0  0  0  0  0  0  0
  5  6  2  0  0  0  0
  5  7  1  0  0  0  0
  2  3  1  0  0  0  0
  2  4  1  0  0  0  0
  2  5  1  0  0  0  0
  1  2  1  0  0  0  0
 21 22  2  0  0  0  0
 21 23  1  0  0  0  0
 19 20  1  0  0  0  0
 17 18  2  0  0  0  0
 17 19  1  0  0  0  0
 14 15  1  0  0  0  0
 14 16  1  0  0  0  0
 14 17  1  0  0  0  0
 11 12  1  0  0  0  0
 11 13  1  0  0  0  0
 11 14  1  0  0  0  0
  9 10  1  0  0  0  0
  9 11  1  0  0  0  0
  9 21  1  0  0  0  0
  7  8  1  0  0  0  0
  7  9  1  0  0  0  0
 25 26  1  0  0  0  0
 25 27  1  0  0  0  0
 25 28  1  0  0  0  0
 23 24  1  0  0  0  0
 23 25  1  0  0  0  0
M  END
$$$$
default_name
  -OEChem-01062215323D

 28 27  0     1  0  0  0  0  0999 V2000
   -3.2133   -3.5565    1.2809 H   0  0  0  0  0  0  0  0  0  0  0  0
   -3.1873   -2.5755    0.8089 C   0  0  0  0  0  0  0  0  0  0  0  0
   -3.8793   -1.9065    1.3169 H   0  0  0  0  0  0  0  0  0  0  0  0
   -3.4623   -2.6685   -0.2401 H   0  0  0  0  0  0  0  0  0  0  0  0
   -1.7863   -2.0195    0.9119 C   0  0  0  0  0  0  0  0  0  0  0  0
   -0.9073   -2.6615    1.4699 O   0  0  0  0  0  0  0  0  0  0  0  0
   -1.5803   -0.8195    0.3749 N   0  0  0  0  0  0  0  0  0  0  0  0
   -2.3603   -0.3345   -0.0451 H   0  0  0  0  0  0  0  0  0  0  0  0
   -0.2933   -0.1205    0.3719 C   0  0  1  0  0  0  0  0  0  0  0  0
   -0.2387    0.5144    1.2574 H   0  0  0  0  0  0  0  0  0  0  0  0
    0.8432   -1.1604    0.4487 C   0  0  0  0  0  0  0  0  0  0  0  0
    0.7012   -1.8782   -0.3610 H   0  0  0  0  0  0  0  0  0  0  0  0
    1.8001   -0.6597    0.2945 H   0  0  0  0  0  0  0  0  0  0  0  0
    0.9005   -1.9237    1.7833 C   0  0  0  0  0  0  0  0  0  0  0  0
    1.0623   -1.2249    2.6041 H   0  0  0  0  0  0  0  0  0  0  0  0
   -0.0439   -2.4440    1.9388 H   0  0  0  0  0  0  0  0  0  0  0  0
    2.0211   -2.9582    1.8100 C   0  0  0  0  0  0  0  0  0  0  0  0
    2.7179   -3.2607    0.8546 O   0  0  0  0  0  0  0  0  0  0  0  0
    2.2173   -3.5701    2.9926 O   0  0  0  0  0  0  0  0  0  0  0  0
    2.9341   -4.1882    2.8398 H   0  0  0  0  0  0  0  0  0  0  0  0
   -0.1786    0.7806   -0.8680 C   0  0  0  0  0  0  0  0  0  0  0  0
    0.8637    0.8002   -1.5199 O   0  0  0  0  0  0  0  0  0  0  0  0
   -1.2413    1.5308   -1.1830 N   0  0  0  0  0  0  0  0  0  0  0  0
   -2.0701    1.4445   -0.6140 H   0  0  0  0  0  0  0  0  0  0  0  0
   -1.2827    2.4530   -2.3161 C   0  0  0  0  0  0  0  0  0  0  0  0
   -1.0685    1.9127   -3.2401 H   0  0  0  0  0  0  0  0  0  0  0  0
   -2.2674    2.9163   -2.3919 H   0  0  0  0  0  0  0  0  0  0  0  0
   -0.5273    3.2305   -2.1864 H   0  0  0  0  0  0  0  0  0  0  0  0
  5  6  2  0  0  0  0
  5  7  1  0  0  0  0
  2  3  1  0  0  0  0
  2  4  1  0  0  0  0
  2  5  1  0  0  0  0
  1  2  1  0  0  0  0
 21 22  2  0  0  0  0
 21 23  1  0  0  0  0
 19 20  1  0  0  0  0
 17 18  2  0  0  0  0
 17 19  1  0  0  0  0
 14 15  1  0  0  0  0
 14 16  1  0  0  0  0
 14 17  1  0  0  0  0
 11 12  1  0  0  0  0
 11 13  1  0  0  0  0
 11 14  1  0  0  0  0
  9 10  1  0  0  0  0
  9 11  1  0  0  0  0
  9 21  1  0  0  0  0
  7  8  1  0  0  0  0
  7  9  1  0  0  0  0
 25 26  1  0  0  0  0
 25 27  1  0  0  0  0
 25 28  1  0  0  0  0
 23 24  1  0  0  0  0
 23 25  1  0  0  0  0
M  END
$$$$
default_name
  -OEChem-01062215323D

 28 27  0     1  0  0  0  0  0999 V2000
   -3.2133   -3.5565    1.2809 H   0  0  0  0  0  0  0  0  0  0  0  0
   -3.1873   -2.5755    0.8089 C   0  0  0  0  0  0  0  0  0  0  0  0
   -3.8793   -1.9065    1.3169 H   0  0  0  0  0  0  0  0  0  0  0  0
   -3.4623   -2.6685   -0.2401 H   0  0  0  0  0  0  0  0  0  0  0  0
   -1.7863   -2.0195    0.9119 C   0  0  0  0  0  0  0  0  0  0  0  0
   -0.9073   -2.6615    1.4699 O   0  0  0  0  0  0  0  0  0  0  0  0
   -1.5803   -0.8195    0.3749 N   0  0  0  0  0  0  0  0  0  0  0  0
   -2.3603   -0.3345   -0.0451 H   0  0  0  0  0  0  0  0  0  0  0  0
   -0.2933   -0.1205    0.3719 C   0  0  1  0  0  0  0  0  0  0  0  0
   -0.2387    0.5144    1.2574 H   0  0  0  0  0  0  0  0  0  0  0  0
    0.8432   -1.1604    0.4487 C   0  0  0  0  0  0  0  0  0  0  0  0
    0.7012   -1.8782   -0.3610 H   0  0  0  0  0  0  0  0  0  0  0  0
    1.8001   -0.6597    0.2945 H   0  0  0  0  0  0  0  0  0  0  0  0
    0.9005   -1.9237    1.7833 C   0  0  0  0  0  0  0  0  0  0  0  0
    1.0623   -1.2249    2.6041 H   0  0  0  0  0  0  0  0  0  0  0  0
   -0.0439   -2.4440    1.9388 H   0  0  0  0  0  0  0  0  0  0  0  0
    2.0211   -2.9582    1.8100 C   0  0  0  0  0  0  0  0  0  0  0  0
    2.7179   -3.2607    0.8546 O   0  0  0  0  0  0  0  0  0  0  0  0
    2.2173   -3.5701    2.9926 O   0  0  0  0  0  0  0  0  0  0  0  0
    2.9341   -4.1882    2.8398 H   0  0  0  0  0  0  0  0  0  0  0  0
   -0.1786    0.7806   -0.8680 C   0  0  0  0  0  0  0  0  0  0  0  0
    0.7349    0.6068   -1.6724 O   0  0  0  0  0  0  0  0  0  0  0  0
   -1.0947    1.7455   -1.0135 N   0  0  0  0  0  0  0  0  0  0  0  0
   -1.8284    1.8128   -0.3240 H   0  0  0  0  0  0  0  0  0  0  0  0
   -1.1104    2.6958   -2.1238 C   0  0  0  0  0  0  0  0  0  0  0  0
   -1.1554    2.1559   -3.0714 H   0  0  0  0  0  0  0  0  0  0  0  0
   -1.9756    3.3556   -2.0457 H   0  0  0  0  0  0  0  0  0  0  0  0
   -0.1977    3.2947   -2.1092 H   0  0  0  0  0  0  0  0  0  0  0  0
  5  6  2  0  0  0  0
  5  7  1  0  0  0  0
  2  3  1  0  0  0  0
  2  4  1  0  0  0  0
  2  5  1  0  0  0  0
  1  2  1  0  0  0  0
 21 22  2  0  0  0  0
 21 23  1  0  0  0  0
 19 20  1  0  0  0  0
 17 18  2  0  0  0  0
 17 19  1  0  0  0  0
 14 15  1  0  0  0  0
 14 16  1  0  0  0  0
 14 17  1  0  0  0  0
 11 12  1  0  0  0  0
 11 13  1  0  0  0  0
 11 14  1  0  0  0  0
  9 10  1  0  0  0  0
  9 11  1  0  0  0  0
  9 21  1  0  0  0  0
  7  8  1  0  0  0  0
  7  9  1  0  0  0  0
 25 26  1  0  0  0  0
 25 27  1  0  0  0  0
 25 28  1  0  0  0  0
 23 24  1  0  0  0  0
 23 25  1  0  0  0  0
M  END
$$$$
default_name
  -OEChem-01062215323D

 28 27  0     1  0  0  0  0  0999 V2000
   -3.2133   -3.5565    1.2809 H   0  0  0  0  0  0  0  0  0  0  0  0
   -3.1873   -2.5755    0.8089 C   0  0  0  0  0  0  0  0  0  0  0  0
   -3.8793   -1.9065    1.3169 H   0  0  0  0  0  0  0  0  0  0  0  0
   -3.4623   -2.6685   -0.2401 H   0  0  0  0  0  0  0  0  0  0  0  0
   -1.7863   -2.0195    0.9119 C   0  0  0  0  0  0  0  0  0  0  0  0
   -0.9073   -2.6615    1.4699 O   0  0  0  0  0  0  0  0  0  0  0  0
   -1.5803   -0.8195    0.3749 N   0  0  0  0  0  0  0  0  0  0  0  0
   -2.3603   -0.3345   -0.0451 H   0  0  0  0  0  0  0  0  0  0  0  0
   -0.2933   -0.1205    0.3719 C   0  0  1  0  0  0  0  0  0  0  0  0
   -0.2387    0.5144    1.2574 H   0  0  0  0  0  0  0  0  0  0  0  0
    0.8432   -1.1604    0.4487 C   0  0  0  0  0  0  0  0  0  0  0  0
    0.7012   -1.8782   -0.3610 H   0  0  0  0  0  0  0  0  0  0  0  0
    1.8001   -0.6597    0.2945 H   0  0  0  0  0  0  0  0  0  0  0  0
    0.9005   -1.9237    1.7833 C   0  0  0  0  0  0  0  0  0  0  0  0
    1.0623   -1.2249    2.6041 H   0  0  0  0  0  0  0  0  0  0  0  0
   -0.0439   -2.4440    1.9388 H   0  0  0  0  0  0  0  0  0  0  0  0
    2.0211   -2.9582    1.8100 C   0  0  0  0  0  0  0  0  0  0  0  0
    2.7179   -3.2607    0.8546 O   0  0  0  0  0  0  0  0  0  0  0  0
    2.2173   -3.5701    2.9926 O   0  0  0  0  0  0  0  0  0  0  0  0
    2.9341   -4.1882    2.8398 H   0  0  0  0  0  0  0  0  0  0  0  0
   -0.1786    0.7806   -0.8680 C   0  0  0  0  0  0  0  0  0  0  0  0
    0.5470    0.4499   -1.8038 O   0  0  0  0  0  0  0  0  0  0  0  0
   -0.8825    1.9190   -0.8677 N   0  0  0  0  0  0  0  0  0  0  0  0
   -1.4740    2.1124   -0.0734 H   0  0  0  0  0  0  0  0  0  0  0  0
   -0.8641    2.8906   -1.9594 C   0  0  0  0  0  0  0  0  0  0  0  0
   -1.1629    2.4057   -2.8905 H   0  0  0  0  0  0  0  0  0  0  0  0
   -1.5496    3.7123   -1.7470 H   0  0  0  0  0  0  0  0  0  0  0  0
    0.1458    3.2864   -2.0835 H   0  0  0  0  0  0  0  0  0  0  0  0
  5  6  2  0  0  0  0
  5  7  1  0  0  0  0
  2  3  1  0  0  0  0
  2  4  1  0  0  0  0
  2  5  1  0  0  0  0
  1  2  1  0  0  0  0
 21 22  2  0  0  0  0
 21 23  1  0  0  0  0
 19 20  1  0  0  0  0
 17 18  2  0  0  0  0
 17 19  1  0  0  0  0
 14 15  1  0  0  0  0
 14 16  1  0  0  0  0
 14 17  1  0  0  0  0
 11 12  1  0  0  0  0
 11 13  1  0  0  0  0
 11 14  1  0  0  0  0
  9 10  1  0  0  0  0
  9 11  1  0  0  0  0
  9 21  1  0  0  0  0
  7  8  1  0  0  0  0
  7  9  1  0  0  0  0
 25 26  1  0  0  0  0
 25 27  1  0  0  0  0
 25 28  1  0  0  0  0
 23 24  1  0  0  0  0
 23 25  1  0  0  0  0
M  END
$$$$
default_name
  -OEChem-01062215323D

 28 27  0     1  0  0  0  0  0999 V2000
   -3.2133   -3.5565    1.2809 H   0  0  0  0  0  0  0  0  0  0  0  0
   -3.1873   -2.5755    0.8089 C   0  0  0  0  0  0  0  0  0  0  0  0
   -3.8793   -1.9065    1.3169 H   0  0  0  0  0  0  0  0  0  0  0  0
   -3.4623   -2.6685   -0.2401 H   0  0  0  0  0  0  0  0  0  0  0  0
   -1.7863   -2.0195    0.9119 C   0  0  0  0  0  0  0  0  0  0  0  0
   -0.9073   -2.6615    1.4699 O   0  0  0  0  0  0  0  0  0  0  0  0
   -1.5803   -0.8195    0.3749 N   0  0  0  0  0  0  0  0  0  0  0  0
   -2.3603   -0.3345   -0.0451 H   0  0  0  0  0  0  0  0  0  0  0  0
   -0.2933   -0.1205    0.3719 C   0  0  1  0  0  0  0  0  0  0  0  0
   -0.2387    0.5144    1.2574 H   0  0  0  0  0  0  0  0  0  0  0  0
    0.8432   -1.1604    0.4487 C   0  0  0  0  0  0  0  0  0  0  0  0
    0.7012   -1.8782   -0.3610 H   0  0  0  0  0  0  0  0  0  0  0  0
    1.8001   -0.6597    0.2945 H   0  0  0  0  0  0  0  0  0  0  0  0
    0.9005   -1.9237    1.7833 C   0  0  0  0  0  0  0  0  0  0  0  0
    1.0623   -1.2249    2.6041 H   0  0  0  0  0  0  0  0  0  0  0  0
   -0.0439   -2.4440    1.9388 H   0  0  0  0  0  0  0  0  0  0  0  0
    2.0211   -2.9582    1.8100 C   0  0  0  0  0  0  0  0  0  0  0  0
    2.7179   -3.2607    0.8546 O   0  0  0  0  0  0  0  0  0  0  0  0
    2.2173   -3.5701    2.9926 O   0  0  0  0  0  0  0  0  0  0  0  0
    2.9341   -4.1882    2.8398 H   0  0  0  0  0  0  0  0  0  0  0  0
   -0.1786    0.7806   -0.8680 C   0  0  0  0  0  0  0  0  0  0  0  0
    0.3128    0.3400   -1.9053 O   0  0  0  0  0  0  0  0  0  0  0  0
   -0.6193    2.0395   -0.7558 N   0  0  0  0  0  0  0  0  0  0  0  0
   -1.0312    2.3230    0.1206 H   0  0  0  0  0  0  0  0  0  0  0  0
   -0.5605    3.0242   -1.8342 C   0  0  0  0  0  0  0  0  0  0  0  0
   -1.0905    2.6451   -2.7099 H   0  0  0  0  0  0  0  0  0  0  0  0
   -1.0182    3.9621   -1.5163 H   0  0  0  0  0  0  0  0  0  0  0  0
    0.4798    3.2062   -2.1108 H   0  0  0  0  0  0  0  0  0  0  0  0
  5  6  2  0  0  0  0
  5  7  1  0  0  0  0
  2  3  1  0  0  0  0
  2  4  1  0  0  0  0
  2  5  1  0  0  0  0
  1  2  1  0  0  0  0
 21 22  2  0  0  0  0
 21 23  1  0  0  0  0
 19 20  1  0  0  0  0
 17 18  2  0  0  0  0
 17 19  1  0  0  0  0
 14 15  1  0  0  0  0
 14 16  1  0  0  0  0
 14 17  1  0  0  0  0
 11 12  1  0  0  0  0
 11 13  1  0  0  0  0
 11 14  1  0  0  0  0
  9 10  1  0  0  0  0
  9 11  1  0  0  0  0
  9 21  1  0  0  0  0
  7  8  1  0  0  0  0
  7  9  1  0  0  0  0
 25 26  1  0  0  0  0
 25 27  1  0  0  0  0
 25 28  1  0  0  0  0
 23 24  1  0  0  0  0
 23 25  1  0  0  0  0
M  END
$$$$
default_name
  -OEChem-01062215323D

 28 27  0     1  0  0  0  0  0999 V2000
   -3.2133   -3.5565    1.2809 H   0  0  0  0  0  0  0  0  0  0  0  0
   -3.1873   -2.5755    0.8089 C   0  0  0  0  0  0  0  0  0  0  0  0
   -3.8793   -1.9065    1.3169 H   0  0  0  0  0  0  0  0  0  0  0  0
   -3.4623   -2.6685   -0.2401 H   0  0  0  0  0  0  0  0  0  0  0  0
   -1.7863   -2.0195    0.9119 C   0  0  0  0  0  0  0  0  0  0  0  0
   -0.9073   -2.6615    1.4699 O   0  0  0  0  0  0  0  0  0  0  0  0
   -1.5803   -0.8195    0.3749 N   0  0  0  0  0  0  0  0  0  0  0  0
   -2.3603   -0.3345   -0.0451 H   0  0  0  0  0  0  0  0  0  0  0  0
   -0.2933   -0.1205    0.3719 C   0  0  1  0  0  0  0  0  0  0  0  0
   -0.2387    0.5144    1.2574 H   0  0  0  0  0  0  0  0  0  0  0  0
    0.8432   -1.1604    0.4487 C   0  0  0  0  0  0  0  0  0  0  0  0
    0.7012   -1.8782   -0.3610 H   0  0  0  0  0  0  0  0  0  0  0  0
    1.8001   -0.6597    0.2945 H   0  0  0  0  0  0  0  0  0  0  0  0
    0.9005   -1.9237    1.7833 C   0  0  0  0  0  0  0  0  0  0  0  0
    1.0623   -1.2249    2.6041 H   0  0  0  0  0  0  0  0  0  0  0  0
   -0.0439   -2.4440    1.9388 H   0  0  0  0  0  0  0  0  0  0  0  0
    2.0211   -2.9582    1.8100 C   0  0  0  0  0  0  0  0  0  0  0  0
    2.7179   -3.2607    0.8546 O   0  0  0  0  0  0  0  0  0  0  0  0
    2.2173   -3.5701    2.9926 O   0  0  0  0  0  0  0  0  0  0  0  0
    2.9341   -4.1882    2.8398 H   0  0  0  0  0  0  0  0  0  0  0  0
   -0.1786    0.7806   -0.8680 C   0  0  0  0  0  0  0  0  0  0  0  0
    0.0483    0.2848   -1.9700 O   0  0  0  0  0  0  0  0  0  0  0  0
   -0.3228    2.0987   -0.6854 N   0  0  0  0  0  0  0  0  0  0  0  0
   -0.5300    2.4302    0.2449 H   0  0  0  0  0  0  0  0  0  0  0  0
   -0.2204    3.0874   -1.7568 C   0  0  0  0  0  0  0  0  0  0  0  0
   -0.9433    2.8577   -2.5417 H   0  0  0  0  0  0  0  0  0  0  0  0
   -0.4178    4.0879   -1.3693 H   0  0  0  0  0  0  0  0  0  0  0  0
    0.7815    3.0595   -2.1895 H   0  0  0  0  0  0  0  0  0  0  0  0
  5  6  2  0  0  0  0
  5  7  1  0  0  0  0
  2  3  1  0  0  0  0
  2  4  1  0  0  0  0
  2  5  1  0  0  0  0
  1  2  1  0  0  0  0
 21 22  2  0  0  0  0
 21 23  1  0  0  0  0
 19 20  1  0  0  0  0
 17 18  2  0  0  0  0
 17 19  1  0  0  0  0
 14 15  1  0  0  0  0
 14 16  1  0  0  0  0
 14 17  1  0  0  0  0
 11 12  1  0  0  0  0
 11 13  1  0  0  0  0
 11 14  1  0  0  0  0
  9 10  1  0  0  0  0
  9 11  1  0  0  0  0
  9 21  1  0  0  0  0
  7  8  1  0  0  0  0
  7  9  1  0  0  0  0
 25 26  1  0  0  0  0
 25 27  1  0  0  0  0
 25 28  1  0  0  0  0
 23 24  1  0  0  0  0
 23 25  1  0  0  0  0
M  END
$$$$
default_name
  -OEChem-01062215323D

 28 27  0     1  0  0  0  0  0999 V2000
   -3.2133   -3.5565    1.2809 H   0  0  0  0  0  0  0  0  0  0  0  0
   -3.1873   -2.5755    0.8089 C   0  0  0  0  0  0  0  0  0  0  0  0
   -3.8793   -1.9065    1.3169 H   0  0  0  0  0  0  0  0  0  0  0  0
   -3.4623   -2.6685   -0.2401 H   0  0  0  0  0  0  0  0  0  0  0  0
   -1.7863   -2.0195    0.9119 C   0  0  0  0  0  0  0  0  0  0  0  0
   -0.9073   -2.6615    1.4699 O   0  0  0  0  0  0  0  0  0  0  0  0
   -1.5803   -0.8195    0.3749 N   0  0  0  0  0  0  0  0  0  0  0  0
   -2.3603   -0.3345   -0.0451 H   0  0  0  0  0  0  0  0  0  0  0  0
   -0.2933   -0.1205    0.3719 C   0  0  1  0  0  0  0  0  0  0  0  0
   -0.2387    0.5144    1.2574 H   0  0  0  0  0  0  0  0  0  0  0  0
    0.8432   -1.1604    0.4487 C   0  0  0  0  0  0  0  0  0  0  0  0
    0.7012   -1.8782   -0.3610 H   0  0  0  0  0  0  0  0  0  0  0  0
    1.8001   -0.6597    0.2945 H   0  0  0  0  0  0  0  0  0  0  0  0
    0.9005   -1.9237    1.7833 C   0  0  0  0  0  0  0  0  0  0  0  0
    1.0623   -1.2249    2.6041 H   0  0  0  0  0  0  0  0  0  0  0  0
   -0.0439   -2.4440    1.9388 H   0  0  0  0  0  0  0  0  0  0  0  0
    2.0211   -2.9582    1.8100 C   0  0  0  0  0  0  0  0  0  0  0  0
    2.7179   -3.2607    0.8546 O   0  0  0  0  0  0  0  0  0  0  0  0
    2.2173   -3.5701    2.9926 O   0  0  0  0  0  0  0  0  0  0  0  0
    2.9341   -4.1882    2.8398 H   0  0  0  0  0  0  0  0  0  0  0  0
   -0.1786    0.7806   -0.8680 C   0  0  0  0  0  0  0  0  0  0  0  0
   -0.2286    0.2879   -1.9933 O   0  0  0  0  0  0  0  0  0  0  0  0
   -0.0134    2.0927   -0.6611 N   0  0  0  0  0  0  0  0  0  0  0  0
   -0.0046    2.4268    0.2910 H   0  0  0  0  0  0  0  0  0  0  0  0
    0.1330    3.0760   -1.7323 C   0  0  0  0  0  0  0  0  0  0  0  0
   -0.7311    3.0291   -2.3975 H   0  0  0  0  0  0  0  0  0  0  0  0
    0.2107    4.0813   -1.3159 H   0  0  0  0  0  0  0  0  0  0  0  0
    1.0304    2.8564   -2.3141 H   0  0  0  0  0  0  0  0  0  0  0  0
  5  6  2  0  0  0  0
  5  7  1  0  0  0  0
  2  3  1  0  0  0  0
  2  4  1  0  0  0  0
  2  5  1  0  0  0  0
  1  2  1  0  0  0  0
 21 22  2  0  0  0  0
 21 23  1  0  0  0  0
 19 20  1  0  0  0  0
 17 18  2  0  0  0  0
 17 19  1  0  0  0  0
 14 15  1  0  0  0  0
 14 16  1  0  0  0  0
 14 17  1  0  0  0  0
 11 12  1  0  0  0  0
 11 13  1  0  0  0  0
 11 14  1  0  0  0  0
  9 10  1  0  0  0  0
  9 11  1  0  0  0  0
  9 21  1  0  0  0  0
  7  8  1  0  0  0  0
  7  9  1  0  0  0  0
 25 26  1  0  0  0  0
 25 27  1  0  0  0  0
 25 28  1  0  0  0  0
 23 24  1  0  0  0  0
 23 25  1  0  0  0  0
M  END
$$$$
default_name
  -OEChem-01062215323D

 28 27  0     1  0  0  0  0  0999 V2000
   -3.2133   -3.5565    1.2809 H   0  0  0  0  0  0  0  0  0  0  0  0
   -3.1873   -2.5755    0.8089 C   0  0  0  0  0  0  0  0  0  0  0  0
   -3.8793   -1.9065    1.3169 H   0  0  0  0  0  0  0  0  0  0  0  0
   -3.4623   -2.6685   -0.2401 H   0  0  0  0  0  0  0  0  0  0  0  0
   -1.7863   -2.0195    0.9119 C   0  0  0  0  0  0  0  0  0  0  0  0
   -0.9073   -2.6615    1.4699 O   0  0  0  0  0  0  0  0  0  0  0  0
   -1.5803   -0.8195    0.3749 N   0  0  0  0  0  0  0  0  0  0  0  0
   -2.3603   -0.3345   -0.0451 H   0  0  0  0  0  0  0  0  0  0  0  0
   -0.2933   -0.1205    0.3719 C   0  0  1  0  0  0  0  0  0  0  0  0
   -0.2387    0.5144    1.2574 H   0  0  0  0  0  0  0  0  0  0  0  0
    0.8432   -1.1604    0.4487 C   0  0  0  0  0  0  0  0  0  0  0  0
    0.7012   -1.8782   -0.3610 H   0  0  0  0  0  0  0  0  0  0  0  0
    1.8001   -0.6597    0.2945 H   0  0  0  0  0  0  0  0  0  0  0  0
    0.9005   -1.9237    1.7833 C   0  0  0  0  0  0  0  0  0  0  0  0
    1.0623   -1.2249    2.6041 H   0  0  0  0  0  0  0  0  0  0  0  0
   -0.0439   -2.4440    1.9388 H   0  0  0  0  0  0  0  0  0  0  0  0
    2.0211   -2.9582    1.8100 C   0  0  0  0  0  0  0  0  0  0  0  0
    2.7179   -3.2607    0.8546 O   0  0  0  0  0  0  0  0  0  0  0  0
    2.2173   -3.5701    2.9926 O   0  0  0  0  0  0  0  0  0  0  0  0
    2.9341   -4.1882    2.8398 H   0  0  0  0  0  0  0  0  0  0  0  0
   -0.1786    0.7806   -0.8680 C   0  0  0  0  0  0  0  0  0  0  0  0
   -0.4990    0.3492   -1.9738 O   0  0  0  0  0  0  0  0  0  0  0  0
    0.2878    2.0218   -0.6848 N   0  0  0  0  0  0  0  0  0  0  0  0
    0.5091    2.3128    0.2557 H   0  0  0  0  0  0  0  0  0  0  0  0
    0.4758    2.9907   -1.7626 C   0  0  0  0  0  0  0  0  0  0  0  0
   -0.4685    3.1475   -2.2871 H   0  0  0  0  0  0  0  0  0  0  0  0
    0.8245    3.9427   -1.3599 H   0  0  0  0  0  0  0  0  0  0  0  0
    1.2095    2.6106   -2.4762 H   0  0  0  0  0  0  0  0  0  0  0  0
  5  6  2  0  0  0  0
  5  7  1  0  0  0  0
  2  3  1  0  0  0  0
  2  4  1  0  0  0  0
  2  5  1  0  0  0  0
  1  2  1  0  0  0  0
 21 22  2  0  0  0  0
 21 23  1  0  0  0  0
 19 20  1  0  0  0  0
 17 18  2  0  0  0  0
 17 19  1  0  0  0  0
 14 15  1  0  0  0  0
 14 16  1  0  0  0  0
 14 17  1  0  0  0  0
 11 12  1  0  0  0  0
 11 13  1  0  0  0  0
 11 14  1  0  0  0  0
  9 10  1  0  0  0  0
  9 11  1  0  0  0  0
  9 21  1  0  0  0  0
  7  8  1  0  0  0  0
  7  9  1  0  0  0  0
 25 26  1  0  0  0  0
 25 27  1  0  0  0  0
 25 28  1  0  0  0  0
 23 24  1  0  0  0  0
 23 25  1  0  0  0  0
M  END
$$$$
default_name
  -OEChem-01062215323D

 28 27  0     1  0  0  0  0  0999 V2000
   -3.2133   -3.5565    1.2809 H   0  0  0  0  0  0  0  0  0  0  0  0
   -3.1873   -2.5755    0.8089 C   0  0  0  0  0  0  0  0  0  0  0  0
   -3.8793   -1.9065    1.3169 H   0  0  0  0  0  0  0  0  0  0  0  0
   -3.4623   -2.6685   -0.2401 H   0  0  0  0  0  0  0  0  0  0  0  0
   -1.7863   -2.0195    0.9119 C   0  0  0  0  0  0  0  0  0  0  0  0
   -0.9073   -2.6615    1.4699 O   0  0  0  0  0  0  0  0  0  0  0  0
   -1.5803   -0.8195    0.3749 N   0  0  0  0  0  0  0  0  0  0  0  0
   -2.3603   -0.3345   -0.0451 H   0  0  0  0  0  0  0  0  0  0  0  0
   -0.2933   -0.1205    0.3719 C   0  0  1  0  0  0  0  0  0  0  0  0
   -0.2387    0.5144    1.2574 H   0  0  0  0  0  0  0  0  0  0  0  0
    0.8432   -1.1604    0.4487 C   0  0  0  0  0  0  0  0  0  0  0  0
    0.7012   -1.8782   -0.3610 H   0  0  0  0  0  0  0  0  0  0  0  0
    1.8001   -0.6597    0.2945 H   0  0  0  0  0  0  0  0  0  0  0  0
    0.9005   -1.9237    1.7833 C   0  0  0  0  0  0  0  0  0  0  0  0
    1.0623   -1.2249    2.6041 H   0  0  0  0  0  0  0  0  0  0  0  0
   -0.0439   -2.4440    1.9388 H   0  0  0  0  0  0  0  0  0  0  0  0
    2.0211   -2.9582    1.8100 C   0  0  0  0  0  0  0  0  0  0  0  0
    2.7179   -3.2607    0.8546 O   0  0  0  0  0  0  0  0  0  0  0  0
    2.2173   -3.5701    2.9926 O   0  0  0  0  0  0  0  0  0  0  0  0
    2.9341   -4.1882    2.8398 H   0  0  0  0  0  0  0  0  0  0  0  0
   -0.1786    0.7806   -0.8680 C   0  0  0  0  0  0  0  0  0  0  0  0
   -0.7444    0.4644   -1.9128 O   0  0  0  0  0  0  0  0  0  0  0  0
    0.5604    1.8909   -0.7547 N   0  0  0  0  0  0  0  0  0  0  0  0
    0.9762    2.0962    0.1415 H   0  0  0  0  0  0  0  0  0  0  0  0
    0.7844    2.8374   -1.8455 C   0  0  0  0  0  0  0  0  0  0  0  0
   -0.1734    3.2050   -2.2181 H   0  0  0  0  0  0  0  0  0  0  0  0
    1.3818    3.6815   -1.4981 H   0  0  0  0  0  0  0  0  0  0  0  0
    1.3065    2.3389   -2.6646 H   0  0  0  0  0  0  0  0  0  0  0  0
  5  6  2  0  0  0  0
  5  7  1  0  0  0  0
  2  3  1  0  0  0  0
  2  4  1  0  0  0  0
  2  5  1  0  0  0  0
  1  2  1  0  0  0  0
 21 22  2  0  0  0  0
 21 23  1  0  0  0  0
 19 20  1  0  0  0  0
 17 18  2  0  0  0  0
 17 19  1  0  0  0  0
 14 15  1  0  0  0  0
 14 16  1  0  0  0  0
 14 17  1  0  0  0  0
 11 12  1  0  0  0  0
 11 13  1  0  0  0  0
 11 14  1  0  0  0  0
  9 10  1  0  0  0  0
  9 11  1  0  0  0  0
  9 21  1  0  0  0  0
  7  8  1  0  0  0  0
  7  9  1  0  0  0  0
 25 26  1  0  0  0  0
 25 27  1  0  0  0  0
 25 28  1  0  0  0  0
 23 24  1  0  0  0  0
 23 25  1  0  0  0  0
M  END
$$$$
default_name
  -OEChem-01062215323D

 28 27  0     1  0  0  0  0  0999 V2000
   -3.2133   -3.5565    1.2809 H   0  0  0  0  0  0  0  0  0  0  0  0
   -3.1873   -2.5755    0.8089 C   0  0  0  0  0  0  0  0  0  0  0  0
   -3.8793   -1.9065    1.3169 H   0  0  0  0  0  0  0  0  0  0  0  0
   -3.4623   -2.6685   -0.2401 H   0  0  0  0  0  0  0  0  0  0  0  0
   -1.7863   -2.0195    0.9119 C   0  0  0  0  0  0  0  0  0  0  0  0
   -0.9073   -2.6615    1.4699 O   0  0  0  0  0  0  0  0  0  0  0  0
   -1.5803   -0.8195    0.3749 N   0  0  0  0  0  0  0  0  0  0  0  0
   -2.3603   -0.3345   -0.0451 H   0  0  0  0  0  0  0  0  0  0  0  0
   -0.2933   -0.1205    0.3719 C   0  0  1  0  0  0  0  0  0  0  0  0
   -0.2387    0.5144    1.2574 H   0  0  0  0  0  0  0  0  0  0  0  0
    0.8432   -1.1604    0.4487 C   0  0  0  0  0  0  0  0  0  0  0  0
    0.7012   -1.8782   -0.3610 H   0  0  0  0  0  0  0  0  0  0  0  0
    1.8001   -0.6597    0.2945 H   0  0  0  0  0  0  0  0  0  0  0  0
    0.9005   -1.9237    1.7833 C   0  0  0  0  0  0  0  0  0  0  0  0
    1.0623   -1.2249    2.6041 H   0  0  0  0  0  0  0  0  0  0  0  0
   -0.0439   -2.4440    1.9388 H   0  0  0  0  0  0  0  0  0  0  0  0
    2.0211   -2.9582    1.8100 C   0  0  0  0  0  0  0  0  0  0  0  0
    2.7179   -3.2607    0.8546 O   0  0  0  0  0  0  0  0  0  0  0  0
    2.2173   -3.5701    2.9926 O   0  0  0  0  0  0  0  0  0  0  0  0
    2.9341   -4.1882    2.8398 H   0  0  0  0  0  0  0  0  0  0  0  0
   -0.1786    0.7806   -0.8680 C   0  0  0  0  0  0  0  0  0  0  0  0
   -0.9481    0.6258   -1.8143 O   0  0  0  0  0  0  0  0  0  0  0  0
    0.7858    1.7088   -0.8661 N   0  0  0  0  0  0  0  0  0  0  0  0
    1.3648    1.7916   -0.0439 H   0  0  0  0  0  0  0  0  0  0  0  0
    1.0380    2.6264   -1.9754 C   0  0  0  0  0  0  0  0  0  0  0  0
    0.1341    3.1976   -2.1950 H   0  0  0  0  0  0  0  0  0  0  0  0
    1.8446    3.3155   -1.7213 H   0  0  0  0  0  0  0  0  0  0  0  0
    1.3149    2.0599   -2.8666 H   0  0  0  0  0  0  0  0  0  0  0  0
  5  6  2  0  0  0  0
  5  7  1  0  0  0  0
  2  3  1  0  0  0  0
  2  4  1  0  0  0  0
  2  5  1  0  0  0  0
  1  2  1  0  0  0  0
 21 22  2  0  0  0  0
 21 23  1  0  0  0  0
 19 20  1  0  0  0  0
 17 18  2  0  0  0  0
 17 19  1  0  0  0  0
 14 15  1  0  0  0  0
 14 16  1  0  0  0  0
 14 17  1  0  0  0  0
 11 12  1  0  0  0  0
 11 13  1  0  0  0  0
 11 14  1  0  0  0  0
  9 10  1  0  0  0  0
  9 11  1  0  0  0  0
  9 21  1  0  0  0  0
  7  8  1  0  0  0  0
  7  9  1  0  0  0  0
 25 26  1  0  0  0  0
 25 27  1  0  0  0  0
 25 28  1  0  0  0  0
 23 24  1  0  0  0  0
 23 25  1  0  0  0  0
M  END
$$$$
default_name
  -OEChem-01062215323D

 28 27  0     1  0  0  0  0  0999 V2000
   -3.2133   -3.5565    1.2809 H   0  0  0  0  0  0  0  0  0  0  0  0
   -3.1873   -2.5755    0.8089 C   0  0  0  0  0  0  0  0  0  0  0  0
   -3.8793   -1.9065    1.3169 H   0  0  0  0  0  0  0  0  0  0  0  0
   -3.4623   -2.6685   -0.2401 H   0  0  0  0  0  0  0  0  0  0  0  0
   -1.7863   -2.0195    0.9119 C   0  0  0  0  0  0  0  0  0  0  0  0
   -0.9073   -2.6615    1.4699 O   0  0  0  0  0  0  0  0  0  0  0  0
   -1.5803   -0.8195    0.3749 N   0  0  0  0  0  0  0  0  0  0  0  0
   -2.3603   -0.3345   -0.0451 H   0  0  0  0  0  0  0  0  0  0  0  0
   -0.2933   -0.1205    0.3719 C   0  0  1  0  0  0  0  0  0  0  0  0
   -0.1204    0.2970    1.3648 H   0  0  0  0  0  0  0  0  0  0  0  0
    0.8284   -1.1349    0.0692 C   0  0  0  0  0  0  0  0  0  0  0  0
    0.5770   -1.6515   -0.8586 H   0  0  0  0  0  0  0  0  0  0  0  0
    1.7663   -0.5991   -0.0842 H   0  0  0  0  0  0  0  0  0  0  0  0
    1.0388   -2.1809    1.1776 C   0  0  0  0  0  0  0  0  0  0  0  0
    1.3110   -1.6849    2.1093 H   0  0  0  0  0  0  0  0  0  0  0  0
    0.1132   -2.7358    1.3262 H   0  0  0  0  0  0  0  0  0  0  0  0
    2.1386   -3.1788    0.8296 C   0  0  0  0  0  0  0  0  0  0  0  0
    2.7076   -3.2464   -0.2481 O   0  0  0  0  0  0  0  0  0  0  0  0
    2.4702   -4.0409    1.8086 O   0  0  0  0  0  0  0  0  0  0  0  0
    3.1535   -4.5981    1.4318 H   0  0  0  0  0  0  0  0  0  0  0  0
   -0.3192    1.0405   -0.6350 C   0  0  0  0  0  0  0  0  0  0  0  0
   -1.3300    1.2544   -1.3015 O   0  0  0  0  0  0  0  0  0  0  0  0
    0.7920    1.7775   -0.7520 N   0  0  0  0  0  0  0  0  0  0  0  0
    1.5748    1.5561   -0.1550 H   0  0  0  0  0  0  0  0  0  0  0  0
    0.9338    2.8995   -1.6777 C   0  0  0  0  0  0  0  0  0  0  0  0
    0.1557    3.6398   -1.4829 H   0  0  0  0  0  0  0  0  0  0  0  0
    1.9119    3.3678   -1.5587 H   0  0  0  0  0  0  0  0  0  0  0  0
    0.8259    2.5458   -2.7049 H   0  0  0  0  0  0  0  0  0  0  0  0
  5  6  2  0  0  0  0
  5  7  1  0  0  0  0
  2  3  1  0  0  0  0
  2  4  1  0  0  0  0
  2  5  1  0  0  0  0
  1  2  1  0  0  0  0
 21 22  2  0  0  0  0
 21 23  1  0  0  0  0
 19 20  1  0  0  0  0
 17 18  2  0  0  0  0
 17 19  1  0  0  0  0
 14 15  1  0  0  0  0
 14 16  1  0  0  0  0
 14 17  1  0  0  0  0
 11 12  1  0  0  0  0
 11 13  1  0  0  0  0
 11 14  1  0  0  0  0
  9 10  1  0  0  0  0
  9 11  1  0  0  0  0
  9 21  1  0  0  0  0
  7  8  1  0  0  0  0
  7  9  1  0  0  0  0
 25 26  1  0  0  0  0
 25 27  1  0  0  0  0
 25 28  1  0  0  0  0
 23 24  1  0  0  0  0
 23 25  1  0  0  0  0
M  END
$$$$
default_name
  -OEChem-01062215323D

 28 27  0     1  0  0  0  0  0999 V2000
   -3.2133   -3.5565    1.2809 H   0  0  0  0  0  0  0  0  0  0  0  0
   -3.1873   -2.5755    0.8089 C   0  0  0  0  0  0  0  0  0  0  0  0
   -3.8793   -1.9065    1.3169 H   0  0  0  0  0  0  0  0  0  0  0  0
   -3.4623   -2.6685   -0.2401 H   0  0  0  0  0  0  0  0  0  0  0  0
   -1.7863   -2.0195    0.9119 C   0  0  0  0  0  0  0  0  0  0  0  0
   -0.9073   -2.6615    1.4699 O   0  0  0  0  0  0  0  0  0  0  0  0
   -1.5803   -0.8195    0.3749 N   0  0  0  0  0  0  0  0  0  0  0  0
   -2.3603   -0.3345   -0.0451 H   0  0  0  0  0  0  0  0  0  0  0  0
   -0.2933   -0.1205    0.3719 C   0  0  1  0  0  0  0  0  0  0  0  0
   -0.1204    0.2970    1.3648 H   0  0  0  0  0  0  0  0  0  0  0  0
    0.8284   -1.1349    0.0692 C   0  0  0  0  0  0  0  0  0  0  0  0
    0.5770   -1.6515   -0.8586 H   0  0  0  0  0  0  0  0  0  0  0  0
    1.7663   -0.5991   -0.0842 H   0  0  0  0  0  0  0  0  0  0  0  0
    1.0388   -2.1809    1.1776 C   0  0  0  0  0  0  0  0  0  0  0  0
    1.3110   -1.6849    2.1093 H   0  0  0  0  0  0  0  0  0  0  0  0
    0.1132   -2.7358    1.3262 H   0  0  0  0  0  0  0  0  0  0  0  0
    2.1386   -3.1788    0.8296 C   0  0  0  0  0  0  0  0  0  0  0  0
    2.7076   -3.2464   -0.2481 O   0  0  0  0  0  0  0  0  0  0  0  0
    2.4702   -4.0409    1.8086 O   0  0  0  0  0  0  0  0  0  0  0  0
    3.1535   -4.5981    1.4318 H   0  0  0  0  0  0  0  0  0  0  0  0
   -0.3192    1.0405   -0.6350 C   0  0  0  0  0  0  0  0  0  0  0  0
   -1.3899    1.4314   -1.0958 O   0  0  0  0  0  0  0  0  0  0  0  0
    0.8559    1.5793   -0.9822 N   0  0  0  0  0  0  0  0  0  0  0  0
    1.6915    1.2206   -0.5448 H   0  0  0  0  0  0  0  0  0  0  0  0
    1.0013    2.6724   -1.9414 C   0  0  0  0  0  0  0  0  0  0  0  0
    0.4130    3.5316   -1.6142 H   0  0  0  0  0  0  0  0  0  0  0  0
    2.0485    2.9660   -2.0255 H   0  0  0  0  0  0  0  0  0  0  0  0
    0.6360    2.3550   -2.9201 H   0  0  0  0  0  0  0  0  0  0  0  0
  5  6  2  0  0  0  0
  5  7  1  0  0  0  0
  2  3  1  0  0  0  0
  2  4  1  0  0  0  0
  2  5  1  0  0  0  0
  1  2  1  0  0  0  0
 21 22  2  0  0  0  0
 21 23  1  0  0  0  0
 19 20  1  0  0  0  0
 17 18  2  0  0  0  0
 17 19  1  0  0  0  0
 14 15  1  0  0  0  0
 14 16  1  0  0  0  0
 14 17  1  0  0  0  0
 11 12  1  0  0  0  0
 11 13  1  0  0  0  0
 11 14  1  0  0  0  0
  9 10  1  0  0  0  0
  9 11  1  0  0  0  0
  9 21  1  0  0  0  0
  7  8  1  0  0  0  0
  7  9  1  0  0  0  0
 25 26  1  0  0  0  0
 25 27  1  0  0  0  0
 25 28  1  0  0  0  0
 23 24  1  0  0  0  0
 23 25  1  0  0  0  0
M  END
$$$$
default_name
  -OEChem-01062215323D

 28 27  0     1  0  0  0  0  0999 V2000
   -3.2133   -3.5565    1.2809 H   0  0  0  0  0  0  0  0  0  0  0  0
   -3.1873   -2.5755    0.8089 C   0  0  0  0  0  0  0  0  0  0  0  0
   -3.8793   -1.9065    1.3169 H   0  0  0  0  0  0  0  0  0  0  0  0
   -3.4623   -2.6685   -0.2401 H   0  0  0  0  0  0  0  0  0  0  0  0
   -1.7863   -2.0195    0.9119 C   0  0  0  0  0  0  0  0  0  0  0  0
   -0.9073   -2.6615    1.4699 O   0  0  0  0  0  0  0  0  0  0  0  0
   -1.5803   -0.8195    0.3749 N   0  0  0  0  0  0  0  0  0  0  0  0
   -2.3603   -0.3345   -0.0451 H   0  0  0  0  0  0  0  0  0  0  0  0
   -0.2933   -0.1205    0.3719 C   0  0  1  0  0  0  0  0  0  0  0  0
   -0.1204    0.2970    1.3648 H   0  0  0  0  0  0  0  0  0  0  0  0
    0.8284   -1.1349    0.0692 C   0  0  0  0  0  0  0  0  0  0  0  0
    0.5770   -1.6515   -0.8586 H   0  0  0  0  0  0  0  0  0  0  0  0
    1.7663   -0.5991   -0.0842 H   0  0  0  0  0  0  0  0  0  0  0  0
    1.0388   -2.1809    1.1776 C   0  0  0  0  0  0  0  0  0  0  0  0
    1.3110   -1.6849    2.1093 H   0  0  0  0  0  0  0  0  0  0  0  0
    0.1132   -2.7358    1.3262 H   0  0  0  0  0  0  0  0  0  0  0  0
    2.1386   -3.1788    0.8296 C   0  0  0  0  0  0  0  0  0  0  0  0
    2.7076   -3.2464   -0.2481 O   0  0  0  0  0  0  0  0  0  0  0  0
    2.4702   -4.0409    1.8086 O   0  0  0  0  0  0  0  0  0  0  0  0
    3.1535   -4.5981    1.4318 H   0  0  0  0  0  0  0  0  0  0  0  0
   -0.3192    1.0405   -0.6350 C   0  0  0  0  0  0  0  0  0  0  0  0
   -1.3776    1.6135   -0.8862 O   0  0  0  0  0  0  0  0  0  0  0  0
    0.8390    1.3760   -1.2161 N   0  0  0  0  0  0  0  0  0  0  0  0
    1.6711    0.8751   -0.9427 H   0  0  0  0  0  0  0  0  0  0  0  0
    0.9764    2.4404   -2.2082 C   0  0  0  0  0  0  0  0  0  0  0  0
    0.6176    3.3830   -1.7908 H   0  0  0  0  0  0  0  0  0  0  0  0
    2.0212    2.5527   -2.5013 H   0  0  0  0  0  0  0  0  0  0  0  0
    0.3782    2.2019   -3.0899 H   0  0  0  0  0  0  0  0  0  0  0  0
  5  6  2  0  0  0  0
  5  7  1  0  0  0  0
  2  3  1  0  0  0  0
  2  4  1  0  0  0  0
  2  5  1  0  0  0  0
  1  2  1  0  0  0  0
 21 22  2  0  0  0  0
 21 23  1  0  0  0  0
 19 20  1  0  0  0  0
 17 18  2  0  0  0  0
 17 19  1  0  0  0  0
 14 15  1  0  0  0  0
 14 16  1  0  0  0  0
 14 17  1  0  0  0  0
 11 12  1  0  0  0  0
 11 13  1  0  0  0  0
 11 14  1  0  0  0  0
  9 10  1  0  0  0  0
  9 11  1  0  0  0  0
  9 21  1  0  0  0  0
  7  8  1  0  0  0  0
  7  9  1  0  0  0  0
 25 26  1  0  0  0  0
 25 27  1  0  0  0  0
 25 28  1  0  0  0  0
 23 24  1  0  0  0  0
 23 25  1  0  0  0  0
M  END
$$$$
default_name
  -OEChem-01062215323D

 28 27  0     1  0  0  0  0  0999 V2000
   -3.2133   -3.5565    1.2809 H   0  0  0  0  0  0  0  0  0  0  0  0
   -3.1873   -2.5755    0.8089 C   0  0  0  0  0  0  0  0  0  0  0  0
   -3.8793   -1.9065    1.3169 H   0  0  0  0  0  0  0  0  0  0  0  0
   -3.4623   -2.6685   -0.2401 H   0  0  0  0  0  0  0  0  0  0  0  0
   -1.7863   -2.0195    0.9119 C   0  0  0  0  0  0  0  0  0  0  0  0
   -0.9073   -2.6615    1.4699 O   0  0  0  0  0  0  0  0  0  0  0  0
   -1.5803   -0.8195    0.3749 N   0  0  0  0  0  0  0  0  0  0  0  0
   -2.3603   -0.3345   -0.0451 H   0  0  0  0  0  0  0  0  0  0  0  0
   -0.2933   -0.1205    0.3719 C   0  0  1  0  0  0  0  0  0  0  0  0
   -0.1204    0.2970    1.3648 H   0  0  0  0  0  0  0  0  0  0  0  0
    0.8284   -1.1349    0.0692 C   0  0  0  0  0  0  0  0  0  0  0  0
    0.5770   -1.6515   -0.8586 H   0  0  0  0  0  0  0  0  0  0  0  0
    1.7663   -0.5991   -0.0842 H   0  0  0  0  0  0  0  0  0  0  0  0
    1.0388   -2.1809    1.1776 C   0  0  0  0  0  0  0  0  0  0  0  0
    1.3110   -1.6849    2.1093 H   0  0  0  0  0  0  0  0  0  0  0  0
    0.1132   -2.7358    1.3262 H   0  0  0  0  0  0  0  0  0  0  0  0
    2.1386   -3.1788    0.8296 C   0  0  0  0  0  0  0  0  0  0  0  0
    2.7076   -3.2464   -0.2481 O   0  0  0  0  0  0  0  0  0  0  0  0
    2.4702   -4.0409    1.8086 O   0  0  0  0  0  0  0  0  0  0  0  0
    3.1535   -4.5981    1.4318 H   0  0  0  0  0  0  0  0  0  0  0  0
   -0.3192    1.0405   -0.6350 C   0  0  0  0  0  0  0  0  0  0  0  0
   -1.2939    1.7882   -0.6870 O   0  0  0  0  0  0  0  0  0  0  0  0
    0.7424    1.1815   -1.4379 N   0  0  0  0  0  0  0  0  0  0  0  0
    1.5151    0.5430   -1.3216 H   0  0  0  0  0  0  0  0  0  0  0  0
    0.8608    2.2193   -2.4601 C   0  0  0  0  0  0  0  0  0  0  0  0
    0.7554    3.2039   -2.0008 H   0  0  0  0  0  0  0  0  0  0  0  0
    1.8316    2.1561   -2.9537 H   0  0  0  0  0  0  0  0  0  0  0  0
    0.0700    2.0971   -3.2029 H   0  0  0  0  0  0  0  0  0  0  0  0
  5  6  2  0  0  0  0
  5  7  1  0  0  0  0
  2  3  1  0  0  0  0
  2  4  1  0  0  0  0
  2  5  1  0  0  0  0
  1  2  1  0  0  0  0
 21 22  2  0  0  0  0
 21 23  1  0  0  0  0
 19 20  1  0  0  0  0
 17 18  2  0  0  0  0
 17 19  1  0  0  0  0
 14 15  1  0  0  0  0
 14 16  1  0  0  0  0
 14 17  1  0  0  0  0
 11 12  1  0  0  0  0
 11 13  1  0  0  0  0
 11 14  1  0  0  0  0
  9 10  1  0  0  0  0
  9 11  1  0  0  0  0
  9 21  1  0  0  0  0
  7  8  1  0  0  0  0
  7  9  1  0  0  0  0
 25 26  1  0  0  0  0
 25 27  1  0  0  0  0
 25 28  1  0  0  0  0
 23 24  1  0  0  0  0
 23 25  1  0  0  0  0
M  END
$$$$
default_name
  -OEChem-01062215323D

 28 27  0     1  0  0  0  0  0999 V2000
   -3.2133   -3.5565    1.2809 H   0  0  0  0  0  0  0  0  0  0  0  0
   -3.1873   -2.5755    0.8089 C   0  0  0  0  0  0  0  0  0  0  0  0
   -3.8793   -1.9065    1.3169 H   0  0  0  0  0  0  0  0  0  0  0  0
   -3.4623   -2.6685   -0.2401 H   0  0  0  0  0  0  0  0  0  0  0  0
   -1.7863   -2.0195    0.9119 C   0  0  0  0  0  0  0  0  0  0  0  0
   -0.9073   -2.6615    1.4699 O   0  0  0  0  0  0  0  0  0  0  0  0
   -1.5803   -0.8195    0.3749 N   0  0  0  0  0  0  0  0  0  0  0  0
   -2.3603   -0.3345   -0.0451 H   0  0  0  0  0  0  0  0  0  0  0  0
   -0.2933   -0.1205    0.3719 C   0  0  1  0  0  0  0  0  0  0  0  0
   -0.1204    0.2970    1.3648 H   0  0  0  0  0  0  0  0  0  0  0  0
    0.8284   -1.1349    0.0692 C   0  0  0  0  0  0  0  0  0  0  0  0
    0.5770   -1.6515   -0.8586 H   0  0  0  0  0  0  0  0  0  0  0  0
    1.7663   -0.5991   -0.0842 H   0  0  0  0  0  0  0  0  0  0  0  0
    1.0388   -2.1809    1.1776 C   0  0  0  0  0  0  0  0  0  0  0  0
    1.3110   -1.6849    2.1093 H   0  0  0  0  0  0  0  0  0  0  0  0
    0.1132   -2.7358    1.3262 H   0  0  0  0  0  0  0  0  0  0  0  0
    2.1386   -3.1788    0.8296 C   0  0  0  0  0  0  0  0  0  0  0  0
    2.7076   -3.2464   -0.2481 O   0  0  0  0  0  0  0  0  0  0  0  0
    2.4702   -4.0409    1.8086 O   0  0  0  0  0  0  0  0  0  0  0  0
    3.1535   -4.5981    1.4318 H   0  0  0  0  0  0  0  0  0  0  0  0
   -0.3192    1.0405   -0.6350 C   0  0  0  0  0  0  0  0  0  0  0  0
   -1.1444    1.9436   -0.5117 O   0  0  0  0  0  0  0  0  0  0  0  0
    0.5728    1.0090   -1.6324 N   0  0  0  0  0  0  0  0  0  0  0  0
    1.2340    0.2471   -1.6556 H   0  0  0  0  0  0  0  0  0  0  0  0
    0.6625    2.0243   -2.6799 C   0  0  0  0  0  0  0  0  0  0  0  0
    0.8172    3.0067   -2.2299 H   0  0  0  0  0  0  0  0  0  0  0  0
    1.4929    1.8032   -3.3520 H   0  0  0  0  0  0  0  0  0  0  0  0
   -0.2675    2.0476   -3.2513 H   0  0  0  0  0  0  0  0  0  0  0  0
  5  6  2  0  0  0  0
  5  7  1  0  0  0  0
  2  3  1  0  0  0  0
  2  4  1  0  0  0  0
  2  5  1  0  0  0  0
  1  2  1  0  0  0  0
 21 22  2  0  0  0  0
 21 23  1  0  0  0  0
 19 20  1  0  0  0  0
 17 18  2  0  0  0  0
 17 19  1  0  0  0  0
 14 15  1  0  0  0  0
 14 16  1  0  0  0  0
 14 17  1  0  0  0  0
 11 12  1  0  0  0  0
 11 13  1  0  0  0  0
 11 14  1  0  0  0  0
  9 10  1  0  0  0  0
  9 11  1  0  0  0  0
  9 21  1  0  0  0  0
  7  8  1  0  0  0  0
  7  9  1  0  0  0  0
 25 26  1  0  0  0  0
 25 27  1  0  0  0  0
 25 28  1  0  0  0  0
 23 24  1  0  0  0  0
 23 25  1  0  0  0  0
M  END
$$$$
default_name
  -OEChem-01062215323D

 28 27  0     1  0  0  0  0  0999 V2000
   -3.2133   -3.5565    1.2809 H   0  0  0  0  0  0  0  0  0  0  0  0
   -3.1873   -2.5755    0.8089 C   0  0  0  0  0  0  0  0  0  0  0  0
   -3.8793   -1.9065    1.3169 H   0  0  0  0  0  0  0  0  0  0  0  0
   -3.4623   -2.6685   -0.2401 H   0  0  0  0  0  0  0  0  0  0  0  0
   -1.7863   -2.0195    0.9119 C   0  0  0  0  0  0  0  0  0  0  0  0
   -0.9073   -2.6615    1.4699 O   0  0  0  0  0  0  0  0  0  0  0  0
   -1.5803   -0.8195    0.3749 N   0  0  0  0  0  0  0  0  0  0  0  0
   -2.3603   -0.3345   -0.0451 H   0  0  0  0  0  0  0  0  0  0  0  0
   -0.2933   -0.1205    0.3719 C   0  0  1  0  0  0  0  0  0  0  0  0
   -0.1204    0.2970    1.3648 H   0  0  0  0  0  0  0  0  0  0  0  0
    0.8284   -1.1349    0.0692 C   0  0  0  0  0  0  0  0  0  0  0  0
    0.5770   -1.6515   -0.8586 H   0  0  0  0  0  0  0  0  0  0  0  0
    1.7663   -0.5991   -0.0842 H   0  0  0  0  0  0  0  0  0  0  0  0
    1.0388   -2.1809    1.1776 C   0  0  0  0  0  0  0  0  0  0  0  0
    1.3110   -1.6849    2.1093 H   0  0  0  0  0  0  0  0  0  0  0  0
    0.1132   -2.7358    1.3262 H   0  0  0  0  0  0  0  0  0  0  0  0
    2.1386   -3.1788    0.8296 C   0  0  0  0  0  0  0  0  0  0  0  0
    2.7076   -3.2464   -0.2481 O   0  0  0  0  0  0  0  0  0  0  0  0
    2.4702   -4.0409    1.8086 O   0  0  0  0  0  0  0  0  0  0  0  0
    3.1535   -4.5981    1.4318 H   0  0  0  0  0  0  0  0  0  0  0  0
   -0.3192    1.0405   -0.6350 C   0  0  0  0  0  0  0  0  0  0  0  0
   -0.9394    2.0691   -0.3722 O   0  0  0  0  0  0  0  0  0  0  0  0
    0.3418    0.8703   -1.7864 N   0  0  0  0  0  0  0  0  0  0  0  0
    0.8470    0.0074   -1.9219 H   0  0  0  0  0  0  0  0  0  0  0  0
    0.3949    1.8686   -2.8525 C   0  0  0  0  0  0  0  0  0  0  0  0
    0.7986    2.8047   -2.4623 H   0  0  0  0  0  0  0  0  0  0  0  0
    1.0280    1.5179   -3.6689 H   0  0  0  0  0  0  0  0  0  0  0  0
   -0.6114    2.0567   -3.2318 H   0  0  0  0  0  0  0  0  0  0  0  0
  5  6  2  0  0  0  0
  5  7  1  0  0  0  0
  2  3  1  0  0  0  0
  2  4  1  0  0  0  0
  2  5  1  0  0  0  0
  1  2  1  0  0  0  0
 21 22  2  0  0  0  0
 21 23  1  0  0  0  0
 19 20  1  0  0  0  0
 17 18  2  0  0  0  0
 17 19  1  0  0  0  0
 14 15  1  0  0  0  0
 14 16  1  0  0  0  0
 14 17  1  0  0  0  0
 11 12  1  0  0  0  0
 11 13  1  0  0  0  0
 11 14  1  0  0  0  0
  9 10  1  0  0  0  0
  9 11  1  0  0  0  0
  9 21  1  0  0  0  0
  7  8  1  0  0  0  0
  7  9  1  0  0  0  0
 25 26  1  0  0  0  0
 25 27  1  0  0  0  0
 25 28  1  0  0  0  0
 23 24  1  0  0  0  0
 23 25  1  0  0  0  0
M  END
$$$$
default_name
  -OEChem-01062215323D

 28 27  0     1  0  0  0  0  0999 V2000
   -3.2133   -3.5565    1.2809 H   0  0  0  0  0  0  0  0  0  0  0  0
   -3.1873   -2.5755    0.8089 C   0  0  0  0  0  0  0  0  0  0  0  0
   -3.8793   -1.9065    1.3169 H   0  0  0  0  0  0  0  0  0  0  0  0
   -3.4623   -2.6685   -0.2401 H   0  0  0  0  0  0  0  0  0  0  0  0
   -1.7863   -2.0195    0.9119 C   0  0  0  0  0  0  0  0  0  0  0  0
   -0.9073   -2.6615    1.4699 O   0  0  0  0  0  0  0  0  0  0  0  0
   -1.5803   -0.8195    0.3749 N   0  0  0  0  0  0  0  0  0  0  0  0
   -2.3603   -0.3345   -0.0451 H   0  0  0  0  0  0  0  0  0  0  0  0
   -0.2933   -0.1205    0.3719 C   0  0  1  0  0  0  0  0  0  0  0  0
   -0.1204    0.2970    1.3648 H   0  0  0  0  0  0  0  0  0  0  0  0
    0.8284   -1.1349    0.0692 C   0  0  0  0  0  0  0  0  0  0  0  0
    0.5770   -1.6515   -0.8586 H   0  0  0  0  0  0  0  0  0  0  0  0
    1.7663   -0.5991   -0.0842 H   0  0  0  0  0  0  0  0  0  0  0  0
    1.0388   -2.1809    1.1776 C   0  0  0  0  0  0  0  0  0  0  0  0
    1.3110   -1.6849    2.1093 H   0  0  0  0  0  0  0  0  0  0  0  0
    0.1132   -2.7358    1.3262 H   0  0  0  0  0  0  0  0  0  0  0  0
    2.1386   -3.1788    0.8296 C   0  0  0  0  0  0  0  0  0  0  0  0
    2.7076   -3.2464   -0.2481 O   0  0  0  0  0  0  0  0  0  0  0  0
    2.4702   -4.0409    1.8086 O   0  0  0  0  0  0  0  0  0  0  0  0
    3.1535   -4.5981    1.4318 H   0  0  0  0  0  0  0  0  0  0  0  0
   -0.3192    1.0405   -0.6350 C   0  0  0  0  0  0  0  0  0  0  0  0
   -0.6928    2.1562   -0.2781 O   0  0  0  0  0  0  0  0  0  0  0  0
    0.0649    0.7749   -1.8894 N   0  0  0  0  0  0  0  0  0  0  0  0
    0.3805   -0.1596   -2.1025 H   0  0  0  0  0  0  0  0  0  0  0  0
    0.0763    1.7628   -2.9663 C   0  0  0  0  0  0  0  0  0  0  0  0
    0.7009    2.6117   -2.6823 H   0  0  0  0  0  0  0  0  0  0  0  0
    0.4686    1.3199   -3.8828 H   0  0  0  0  0  0  0  0  0  0  0  0
   -0.9382    2.1240   -3.1459 H   0  0  0  0  0  0  0  0  0  0  0  0
  5  6  2  0  0  0  0
  5  7  1  0  0  0  0
  2  3  1  0  0  0  0
  2  4  1  0  0  0  0
  2  5  1  0  0  0  0
  1  2  1  0  0  0  0
 21 22  2  0  0  0  0
 21 23  1  0  0  0  0
 19 20  1  0  0  0  0
 17 18  2  0  0  0  0
 17 19  1  0  0  0  0
 14 15  1  0  0  0  0
 14 16  1  0  0  0  0
 14 17  1  0  0  0  0
 11 12  1  0  0  0  0
 11 13  1  0  0  0  0
 11 14  1  0  0  0  0
  9 10  1  0  0  0  0
  9 11  1  0  0  0  0
  9 21  1  0  0  0  0
  7  8  1  0  0  0  0
  7  9  1  0  0  0  0
 25 26  1  0  0  0  0
 25 27  1  0  0  0  0
 25 28  1  0  0  0  0
 23 24  1  0  0  0  0
 23 25  1  0  0  0  0
M  END
$$$$
default_name
  -OEChem-01062215323D

 28 27  0     1  0  0  0  0  0999 V2000
   -3.2133   -3.5565    1.2809 H   0  0  0  0  0  0  0  0  0  0  0  0
   -3.1873   -2.5755    0.8089 C   0  0  0  0  0  0  0  0  0  0  0  0
   -3.8793   -1.9065    1.3169 H   0  0  0  0  0  0  0  0  0  0  0  0
   -3.4623   -2.6685   -0.2401 H   0  0  0  0  0  0  0  0  0  0  0  0
   -1.7863   -2.0195    0.9119 C   0  0  0  0  0  0  0  0  0  0  0  0
   -0.9073   -2.6615    1.4699 O   0  0  0  0  0  0  0  0  0  0  0  0
   -1.5803   -0.8195    0.3749 N   0  0  0  0  0  0  0  0  0  0  0  0
   -2.3603   -0.3345   -0.0451 H   0  0  0  0  0  0  0  0  0  0  0  0
   -0.2933   -0.1205    0.3719 C   0  0  1  0  0  0  0  0  0  0  0  0
   -0.1204    0.2970    1.3648 H   0  0  0  0  0  0  0  0  0  0  0  0
    0.8284   -1.1349    0.0692 C   0  0  0  0  0  0  0  0  0  0  0  0
    0.5770   -1.6515   -0.8586 H   0  0  0  0  0  0  0  0  0  0  0  0
    1.7663   -0.5991   -0.0842 H   0  0  0  0  0  0  0  0  0  0  0  0
    1.0388   -2.1809    1.1776 C   0  0  0  0  0  0  0  0  0  0  0  0
    1.3110   -1.6849    2.1093 H   0  0  0  0  0  0  0  0  0  0  0  0
    0.1132   -2.7358    1.3262 H   0  0  0  0  0  0  0  0  0  0  0  0
    2.1386   -3.1788    0.8296 C   0  0  0  0  0  0  0  0  0  0  0  0
    2.7076   -3.2464   -0.2481 O   0  0  0  0  0  0  0  0  0  0  0  0
    2.4702   -4.0409    1.8086 O   0  0  0  0  0  0  0  0  0  0  0  0
    3.1535   -4.5981    1.4318 H   0  0  0  0  0  0  0  0  0  0  0  0
   -0.3192    1.0405   -0.6350 C   0  0  0  0  0  0  0  0  0  0  0  0
   -0.4215    2.1989   -0.2358 O   0  0  0  0  0  0  0  0  0  0  0  0
   -0.2388    0.7292   -1.9343 N   0  0  0  0  0  0  0  0  0  0  0  0
   -0.1338   -0.2426   -2.1850 H   0  0  0  0  0  0  0  0  0  0  0  0
   -0.2717    1.7142   -3.0134 C   0  0  0  0  0  0  0  0  0  0  0  0
    0.5309    2.4409   -2.8748 H   0  0  0  0  0  0  0  0  0  0  0  0
   -0.1472    1.2225   -3.9793 H   0  0  0  0  0  0  0  0  0  0  0  0
   -1.2257    2.2448   -2.9992 H   0  0  0  0  0  0  0  0  0  0  0  0
  5  6  2  0  0  0  0
  5  7  1  0  0  0  0
  2  3  1  0  0  0  0
  2  4  1  0  0  0  0
  2  5  1  0  0  0  0
  1  2  1  0  0  0  0
 21 22  2  0  0  0  0
 21 23  1  0  0  0  0
 19 20  1  0  0  0  0
 17 18  2  0  0  0  0
 17 19  1  0  0  0  0
 14 15  1  0  0  0  0
 14 16  1  0  0  0  0
 14 17  1  0  0  0  0
 11 12  1  0  0  0  0
 11 13  1  0  0  0  0
 11 14  1  0  0  0  0
  9 10  1  0  0  0  0
  9 11  1  0  0  0  0
  9 21  1  0  0  0  0
  7  8  1  0  0  0  0
  7  9  1  0  0  0  0
 25 26  1  0  0  0  0
 25 27  1  0  0  0  0
 25 28  1  0  0  0  0
 23 24  1  0  0  0  0
 23 25  1  0  0  0  0
M  END
$$$$
default_name
  -OEChem-01062215323D

 28 27  0     1  0  0  0  0  0999 V2000
   -3.2133   -3.5565    1.2809 H   0  0  0  0  0  0  0  0  0  0  0  0
   -3.1873   -2.5755    0.8089 C   0  0  0  0  0  0  0  0  0  0  0  0
   -3.8793   -1.9065    1.3169 H   0  0  0  0  0  0  0  0  0  0  0  0
   -3.4623   -2.6685   -0.2401 H   0  0  0  0  0  0  0  0  0  0  0  0
   -1.7863   -2.0195    0.9119 C   0  0  0  0  0  0  0  0  0  0  0  0
   -0.9073   -2.6615    1.4699 O   0  0  0  0  0  0  0  0  0  0  0  0
   -1.5803   -0.8195    0.3749 N   0  0  0  0  0  0  0  0  0  0  0  0
   -2.3603   -0.3345   -0.0451 H   0  0  0  0  0  0  0  0  0  0  0  0
   -0.2933   -0.1205    0.3719 C   0  0  1  0  0  0  0  0  0  0  0  0
   -0.1204    0.2970    1.3648 H   0  0  0  0  0  0  0  0  0  0  0  0
    0.8284   -1.1349    0.0692 C   0  0  0  0  0  0  0  0  0  0  0  0
    0.5770   -1.6515   -0.8586 H   0  0  0  0  0  0  0  0  0  0  0  0
    1.7663   -0.5991   -0.0842 H   0  0  0  0  0  0  0  0  0  0  0  0
    1.0388   -2.1809    1.1776 C   0  0  0  0  0  0  0  0  0  0  0  0
    1.3110   -1.6849    2.1093 H   0  0  0  0  0  0  0  0  0  0  0  0
    0.1132   -2.7358    1.3262 H   0  0  0  0  0  0  0  0  0  0  0  0
    2.1386   -3.1788    0.8296 C   0  0  0  0  0  0  0  0  0  0  0  0
    2.7076   -3.2464   -0.2481 O   0  0  0  0  0  0  0  0  0  0  0  0
    2.4702   -4.0409    1.8086 O   0  0  0  0  0  0  0  0  0  0  0  0
    3.1535   -4.5981    1.4318 H   0  0  0  0  0  0  0  0  0  0  0  0
   -0.3192    1.0405   -0.6350 C   0  0  0  0  0  0  0  0  0  0  0  0
   -0.1439    2.1944   -0.2482 O   0  0  0  0  0  0  0  0  0  0  0  0
   -0.5487    0.7363   -1.9181 N   0  0  0  0  0  0  0  0  0  0  0  0
   -0.6607   -0.2360   -2.1638 H   0  0  0  0  0  0  0  0  0  0  0  0
   -0.6252    1.7260   -2.9908 C   0  0  0  0  0  0  0  0  0  0  0  0
    0.3001    2.3039   -3.0269 H   0  0  0  0  0  0  0  0  0  0  0  0
   -0.7773    1.2324   -3.9517 H   0  0  0  0  0  0  0  0  0  0  0  0
   -1.4543    2.4108   -2.8019 H   0  0  0  0  0  0  0  0  0  0  0  0
  5  6  2  0  0  0  0
  5  7  1  0  0  0  0
  2  3  1  0  0  0  0
  2  4  1  0  0  0  0
  2  5  1  0  0  0  0
  1  2  1  0  0  0  0
 21 22  2  0  0  0  0
 21 23  1  0  0  0  0
 19 20  1  0  0  0  0
 17 18  2  0  0  0  0
 17 19  1  0  0  0  0
 14 15  1  0  0  0  0
 14 16  1  0  0  0  0
 14 17  1  0  0  0  0
 11 12  1  0  0  0  0
 11 13  1  0  0  0  0
 11 14  1  0  0  0  0
  9 10  1  0  0  0  0
  9 11  1  0  0  0  0
  9 21  1  0  0  0  0
  7  8  1  0  0  0  0
  7  9  1  0  0  0  0
 25 26  1  0  0  0  0
 25 27  1  0  0  0  0
 25 28  1  0  0  0  0
 23 24  1  0  0  0  0
 23 25  1  0  0  0  0
M  END
$$$$
default_name
  -OEChem-01062215323D

 28 27  0     1  0  0  0  0  0999 V2000
   -3.2133   -3.5565    1.2809 H   0  0  0  0  0  0  0  0  0  0  0  0
   -3.1873   -2.5755    0.8089 C   0  0  0  0  0  0  0  0  0  0  0  0
   -3.8793   -1.9065    1.3169 H   0  0  0  0  0  0  0  0  0  0  0  0
   -3.4623   -2.6685   -0.2401 H   0  0  0  0  0  0  0  0  0  0  0  0
   -1.7863   -2.0195    0.9119 C   0  0  0  0  0  0  0  0  0  0  0  0
   -0.9073   -2.6615    1.4699 O   0  0  0  0  0  0  0  0  0  0  0  0
   -1.5803   -0.8195    0.3749 N   0  0  0  0  0  0  0  0  0  0  0  0
   -2.3603   -0.3345   -0.0451 H   0  0  0  0  0  0  0  0  0  0  0  0
   -0.2933   -0.1205    0.3719 C   0  0  1  0  0  0  0  0  0  0  0  0
   -0.1204    0.2970    1.3648 H   0  0  0  0  0  0  0  0  0  0  0  0
    0.8284   -1.1349    0.0692 C   0  0  0  0  0  0  0  0  0  0  0  0
    0.5770   -1.6515   -0.8586 H   0  0  0  0  0  0  0  0  0  0  0  0
    1.7663   -0.5991   -0.0842 H   0  0  0  0  0  0  0  0  0  0  0  0
    1.0388   -2.1809    1.1776 C   0  0  0  0  0  0  0  0  0  0  0  0
    1.3110   -1.6849    2.1093 H   0  0  0  0  0  0  0  0  0  0  0  0
    0.1132   -2.7358    1.3262 H   0  0  0  0  0  0  0  0  0  0  0  0
    2.1386   -3.1788    0.8296 C   0  0  0  0  0  0  0  0  0  0  0  0
    2.7076   -3.2464   -0.2481 O   0  0  0  0  0  0  0  0  0  0  0  0
    2.4702   -4.0409    1.8086 O   0  0  0  0  0  0  0  0  0  0  0  0
    3.1535   -4.5981    1.4318 H   0  0  0  0  0  0  0  0  0  0  0  0
   -0.3192    1.0405   -0.6350 C   0  0  0  0  0  0  0  0  0  0  0  0
    0.1210    2.1429   -0.3144 O   0  0  0  0  0  0  0  0  0  0  0  0
   -0.8436    0.7958   -1.8419 N   0  0  0  0  0  0  0  0  0  0  0  0
   -1.1644   -0.1401   -2.0403 H   0  0  0  0  0  0  0  0  0  0  0  0
   -0.9603    1.7974   -2.8998 C   0  0  0  0  0  0  0  0  0  0  0  0
    0.0241    2.2100   -3.1280 H   0  0  0  0  0  0  0  0  0  0  0  0
   -1.3789    1.3490   -3.8018 H   0  0  0  0  0  0  0  0  0  0  0  0
   -1.6083    2.6108   -2.5673 H   0  0  0  0  0  0  0  0  0  0  0  0
  5  6  2  0  0  0  0
  5  7  1  0  0  0  0
  2  3  1  0  0  0  0
  2  4  1  0  0  0  0
  2  5  1  0  0  0  0
  1  2  1  0  0  0  0
 21 22  2  0  0  0  0
 21 23  1  0  0  0  0
 19 20  1  0  0  0  0
 17 18  2  0  0  0  0
 17 19  1  0  0  0  0
 14 15  1  0  0  0  0
 14 16  1  0  0  0  0
 14 17  1  0  0  0  0
 11 12  1  0  0  0  0
 11 13  1  0  0  0  0
 11 14  1  0  0  0  0
  9 10  1  0  0  0  0
  9 11  1  0  0  0  0
  9 21  1  0  0  0  0
  7  8  1  0  0  0  0
  7  9  1  0  0  0  0
 25 26  1  0  0  0  0
 25 27  1  0  0  0  0
 25 28  1  0  0  0  0
 23 24  1  0  0  0  0
 23 25  1  0  0  0  0
M  END
$$$$
default_name
  -OEChem-01062215323D

 28 27  0     1  0  0  0  0  0999 V2000
   -3.2133   -3.5565    1.2809 H   0  0  0  0  0  0  0  0  0  0  0  0
   -3.1873   -2.5755    0.8089 C   0  0  0  0  0  0  0  0  0  0  0  0
   -3.8793   -1.9065    1.3169 H   0  0  0  0  0  0  0  0  0  0  0  0
   -3.4623   -2.6685   -0.2401 H   0  0  0  0  0  0  0  0  0  0  0  0
   -1.7863   -2.0195    0.9119 C   0  0  0  0  0  0  0  0  0  0  0  0
   -0.9073   -2.6615    1.4699 O   0  0  0  0  0  0  0  0  0  0  0  0
   -1.5803   -0.8195    0.3749 N   0  0  0  0  0  0  0  0  0  0  0  0
   -2.3603   -0.3345   -0.0451 H   0  0  0  0  0  0  0  0  0  0  0  0
   -0.2933   -0.1205    0.3719 C   0  0  1  0  0  0  0  0  0  0  0  0
   -0.1204    0.2970    1.3648 H   0  0  0  0  0  0  0  0  0  0  0  0
    0.8284   -1.1349    0.0692 C   0  0  0  0  0  0  0  0  0  0  0  0
    0.5770   -1.6515   -0.8586 H   0  0  0  0  0  0  0  0  0  0  0  0
    1.7663   -0.5991   -0.0842 H   0  0  0  0  0  0  0  0  0  0  0  0
    1.0388   -2.1809    1.1776 C   0  0  0  0  0  0  0  0  0  0  0  0
    1.3110   -1.6849    2.1093 H   0  0  0  0  0  0  0  0  0  0  0  0
    0.1132   -2.7358    1.3262 H   0  0  0  0  0  0  0  0  0  0  0  0
    2.1386   -3.1788    0.8296 C   0  0  0  0  0  0  0  0  0  0  0  0
    2.7076   -3.2464   -0.2481 O   0  0  0  0  0  0  0  0  0  0  0  0
    2.4702   -4.0409    1.8086 O   0  0  0  0  0  0  0  0  0  0  0  0
    3.1535   -4.5981    1.4318 H   0  0  0  0  0  0  0  0  0  0  0  0
   -0.3192    1.0405   -0.6350 C   0  0  0  0  0  0  0  0  0  0  0  0
    0.3552    2.0479   -0.4299 O   0  0  0  0  0  0  0  0  0  0  0  0
   -1.1036    0.9036   -1.7109 N   0  0  0  0  0  0  0  0  0  0  0  0
   -1.6106    0.0384   -1.8230 H   0  0  0  0  0  0  0  0  0  0  0  0
   -1.2541    1.9237   -2.7467 C   0  0  0  0  0  0  0  0  0  0  0  0
   -0.2781    2.1657   -3.1713 H   0  0  0  0  0  0  0  0  0  0  0  0
   -1.9110    1.5642   -3.5400 H   0  0  0  0  0  0  0  0  0  0  0  0
   -1.6773    2.8311   -2.3116 H   0  0  0  0  0  0  0  0  0  0  0  0
  5  6  2  0  0  0  0
  5  7  1  0  0  0  0
  2  3  1  0  0  0  0
  2  4  1  0  0  0  0
  2  5  1  0  0  0  0
  1  2  1  0  0  0  0
 21 22  2  0  0  0  0
 21 23  1  0  0  0  0
 19 20  1  0  0  0  0
 17 18  2  0  0  0  0
 17 19  1  0  0  0  0
 14 15  1  0  0  0  0
 14 16  1  0  0  0  0
 14 17  1  0  0  0  0
 11 12  1  0  0  0  0
 11 13  1  0  0  0  0
 11 14  1  0  0  0  0
  9 10  1  0  0  0  0
  9 11  1  0  0  0  0
  9 21  1  0  0  0  0
  7  8  1  0  0  0  0
  7  9  1  0  0  0  0
 25 26  1  0  0  0  0
 25 27  1  0  0  0  0
 25 28  1  0  0  0  0
 23 24  1  0  0  0  0
 23 25  1  0  0  0  0
M  END
$$$$
default_name
  -OEChem-01062215323D

 28 27  0     1  0  0  0  0  0999 V2000
   -3.2133   -3.5565    1.2809 H   0  0  0  0  0  0  0  0  0  0  0  0
   -3.1873   -2.5755    0.8089 C   0  0  0  0  0  0  0  0  0  0  0  0
   -3.8793   -1.9065    1.3169 H   0  0  0  0  0  0  0  0  0  0  0  0
   -3.4623   -2.6685   -0.2401 H   0  0  0  0  0  0  0  0  0  0  0  0
   -1.7863   -2.0195    0.9119 C   0  0  0  0  0  0  0  0  0  0  0  0
   -0.9073   -2.6615    1.4699 O   0  0  0  0  0  0  0  0  0  0  0  0
   -1.5803   -0.8195    0.3749 N   0  0  0  0  0  0  0  0  0  0  0  0
   -2.3603   -0.3345   -0.0451 H   0  0  0  0  0  0  0  0  0  0  0  0
   -0.2933   -0.1205    0.3719 C   0  0  1  0  0  0  0  0  0  0  0  0
   -0.1204    0.2970    1.3648 H   0  0  0  0  0  0  0  0  0  0  0  0
    0.8284   -1.1349    0.0692 C   0  0  0  0  0  0  0  0  0  0  0  0
    0.5770   -1.6515   -0.8586 H   0  0  0  0  0  0  0  0  0  0  0  0
    1.7663   -0.5991   -0.0842 H   0  0  0  0  0  0  0  0  0  0  0  0
    1.0388   -2.1809    1.1776 C   0  0  0  0  0  0  0  0  0  0  0  0
    1.3110   -1.6849    2.1093 H   0  0  0  0  0  0  0  0  0  0  0  0
    0.1132   -2.7358    1.3262 H   0  0  0  0  0  0  0  0  0  0  0  0
    2.1386   -3.1788    0.8296 C   0  0  0  0  0  0  0  0  0  0  0  0
    2.7076   -3.2464   -0.2481 O   0  0  0  0  0  0  0  0  0  0  0  0
    2.4702   -4.0409    1.8086 O   0  0  0  0  0  0  0  0  0  0  0  0
    3.1535   -4.5981    1.4318 H   0  0  0  0  0  0  0  0  0  0  0  0
   -0.3192    1.0405   -0.6350 C   0  0  0  0  0  0  0  0  0  0  0  0
    0.5428    1.9160   -0.5869 O   0  0  0  0  0  0  0  0  0  0  0  0
   -1.3107    1.0524   -1.5340 N   0  0  0  0  0  0  0  0  0  0  0  0
   -1.9687    0.2875   -1.5267 H   0  0  0  0  0  0  0  0  0  0  0  0
   -1.4865    2.0961   -2.5419 C   0  0  0  0  0  0  0  0  0  0  0  0
   -0.5860    2.1740   -3.1538 H   0  0  0  0  0  0  0  0  0  0  0  0
   -2.3372    1.8634   -3.1840 H   0  0  0  0  0  0  0  0  0  0  0  0
   -1.6566    3.0568   -2.0519 H   0  0  0  0  0  0  0  0  0  0  0  0
  5  6  2  0  0  0  0
  5  7  1  0  0  0  0
  2  3  1  0  0  0  0
  2  4  1  0  0  0  0
  2  5  1  0  0  0  0
  1  2  1  0  0  0  0
 21 22  2  0  0  0  0
 21 23  1  0  0  0  0
 19 20  1  0  0  0  0
 17 18  2  0  0  0  0
 17 19  1  0  0  0  0
 14 15  1  0  0  0  0
 14 16  1  0  0  0  0
 14 17  1  0  0  0  0
 11 12  1  0  0  0  0
 11 13  1  0  0  0  0
 11 14  1  0  0  0  0
  9 10  1  0  0  0  0
  9 11  1  0  0  0  0
  9 21  1  0  0  0  0
  7  8  1  0  0  0  0
  7  9  1  0  0  0  0
 25 26  1  0  0  0  0
 25 27  1  0  0  0  0
 25 28  1  0  0  0  0
 23 24  1  0  0  0  0
 23 25  1  0  0  0  0
M  END
$$$$
default_name
  -OEChem-01062215323D

 28 27  0     1  0  0  0  0  0999 V2000
   -3.2133   -3.5565    1.2809 H   0  0  0  0  0  0  0  0  0  0  0  0
   -3.1873   -2.5755    0.8089 C   0  0  0  0  0  0  0  0  0  0  0  0
   -3.8793   -1.9065    1.3169 H   0  0  0  0  0  0  0  0  0  0  0  0
   -3.4623   -2.6685   -0.2401 H   0  0  0  0  0  0  0  0  0  0  0  0
   -1.7863   -2.0195    0.9119 C   0  0  0  0  0  0  0  0  0  0  0  0
   -0.9073   -2.6615    1.4699 O   0  0  0  0  0  0  0  0  0  0  0  0
   -1.5803   -0.8195    0.3749 N   0  0  0  0  0  0  0  0  0  0  0  0
   -2.3603   -0.3345   -0.0451 H   0  0  0  0  0  0  0  0  0  0  0  0
   -0.2933   -0.1205    0.3719 C   0  0  1  0  0  0  0  0  0  0  0  0
   -0.1204    0.2970    1.3648 H   0  0  0  0  0  0  0  0  0  0  0  0
    0.8284   -1.1349    0.0692 C   0  0  0  0  0  0  0  0  0  0  0  0
    0.5770   -1.6515   -0.8586 H   0  0  0  0  0  0  0  0  0  0  0  0
    1.7663   -0.5991   -0.0842 H   0  0  0  0  0  0  0  0  0  0  0  0
    1.0388   -2.1809    1.1776 C   0  0  0  0  0  0  0  0  0  0  0  0
    1.3110   -1.6849    2.1093 H   0  0  0  0  0  0  0  0  0  0  0  0
    0.1132   -2.7358    1.3262 H   0  0  0  0  0  0  0  0  0  0  0  0
    2.1386   -3.1788    0.8296 C   0  0  0  0  0  0  0  0  0  0  0  0
    2.7076   -3.2464   -0.2481 O   0  0  0  0  0  0  0  0  0  0  0  0
    2.4702   -4.0409    1.8086 O   0  0  0  0  0  0  0  0  0  0  0  0
    3.1535   -4.5981    1.4318 H   0  0  0  0  0  0  0  0  0  0  0  0
   -0.3192    1.0405   -0.6350 C   0  0  0  0  0  0  0  0  0  0  0  0
    0.6709    1.7560   -0.7746 O   0  0  0  0  0  0  0  0  0  0  0  0
   -1.4510    1.2320   -1.3233 N   0  0  0  0  0  0  0  0  0  0  0  0
   -2.2146    0.5900   -1.1715 H   0  0  0  0  0  0  0  0  0  0  0  0
   -1.6417    2.3029   -2.2995 C   0  0  0  0  0  0  0  0  0  0  0  0
   -0.8786    2.2343   -3.0768 H   0  0  0  0  0  0  0  0  0  0  0  0
   -2.6285    2.2263   -2.7581 H   0  0  0  0  0  0  0  0  0  0  0  0
   -1.5476    3.2723   -1.8062 H   0  0  0  0  0  0  0  0  0  0  0  0
  5  6  2  0  0  0  0
  5  7  1  0  0  0  0
  2  3  1  0  0  0  0
  2  4  1  0  0  0  0
  2  5  1  0  0  0  0
  1  2  1  0  0  0  0
 21 22  2  0  0  0  0
 21 23  1  0  0  0  0
 19 20  1  0  0  0  0
 17 18  2  0  0  0  0
 17 19  1  0  0  0  0
 14 15  1  0  0  0  0
 14 16  1  0  0  0  0
 14 17  1  0  0  0  0
 11 12  1  0  0  0  0
 11 13  1  0  0  0  0
 11 14  1  0  0  0  0
  9 10  1  0  0  0  0
  9 11  1  0  0  0  0
  9 21  1  0  0  0  0
  7  8  1  0  0  0  0
  7  9  1  0  0  0  0
 25 26  1  0  0  0  0
 25 27  1  0  0  0  0
 25 28  1  0  0  0  0
 23 24  1  0  0  0  0
 23 25  1  0  0  0  0
M  END
$$$$
default_name
  -OEChem-01062215323D

 28 27  0     1  0  0  0  0  0999 V2000
   -3.2133   -3.5565    1.2809 H   0  0  0  0  0  0  0  0  0  0  0  0
   -3.1873   -2.5755    0.8089 C   0  0  0  0  0  0  0  0  0  0  0  0
   -3.8793   -1.9065    1.3169 H   0  0  0  0  0  0  0  0  0  0  0  0
   -3.4623   -2.6685   -0.2401 H   0  0  0  0  0  0  0  0  0  0  0  0
   -1.7863   -2.0195    0.9119 C   0  0  0  0  0  0  0  0  0  0  0  0
   -0.9073   -2.6615    1.4699 O   0  0  0  0  0  0  0  0  0  0  0  0
   -1.5803   -0.8195    0.3749 N   0  0  0  0  0  0  0  0  0  0  0  0
   -2.3603   -0.3345   -0.0451 H   0  0  0  0  0  0  0  0  0  0  0  0
   -0.2933   -0.1205    0.3719 C   0  0  1  0  0  0  0  0  0  0  0  0
   -0.1204    0.2970    1.3648 H   0  0  0  0  0  0  0  0  0  0  0  0
    0.8284   -1.1349    0.0692 C   0  0  0  0  0  0  0  0  0  0  0  0
    0.5770   -1.6515   -0.8586 H   0  0  0  0  0  0  0  0  0  0  0  0
    1.7663   -0.5991   -0.0842 H   0  0  0  0  0  0  0  0  0  0  0  0
    1.0388   -2.1809    1.1776 C   0  0  0  0  0  0  0  0  0  0  0  0
    1.3110   -1.6849    2.1093 H   0  0  0  0  0  0  0  0  0  0  0  0
    0.1132   -2.7358    1.3262 H   0  0  0  0  0  0  0  0  0  0  0  0
    2.1386   -3.1788    0.8296 C   0  0  0  0  0  0  0  0  0  0  0  0
    2.7076   -3.2464   -0.2481 O   0  0  0  0  0  0  0  0  0  0  0  0
    2.4702   -4.0409    1.8086 O   0  0  0  0  0  0  0  0  0  0  0  0
    3.1535   -4.5981    1.4318 H   0  0  0  0  0  0  0  0  0  0  0  0
   -0.3192    1.0405   -0.6350 C   0  0  0  0  0  0  0  0  0  0  0  0
    0.7309    1.5790   -0.9802 O   0  0  0  0  0  0  0  0  0  0  0  0
   -1.5149    1.4302   -1.0931 N   0  0  0  0  0  0  0  0  0  0  0  0
   -2.3313    0.9255   -0.7817 H   0  0  0  0  0  0  0  0  0  0  0  0
   -1.7092    2.5300   -2.0358 C   0  0  0  0  0  0  0  0  0  0  0  0
   -1.1359    2.3424   -2.9455 H   0  0  0  0  0  0  0  0  0  0  0  0
   -2.7652    2.6281   -2.2914 H   0  0  0  0  0  0  0  0  0  0  0  0
   -1.3577    3.4631   -1.5911 H   0  0  0  0  0  0  0  0  0  0  0  0
  5  6  2  0  0  0  0
  5  7  1  0  0  0  0
  2  3  1  0  0  0  0
  2  4  1  0  0  0  0
  2  5  1  0  0  0  0
  1  2  1  0  0  0  0
 21 22  2  0  0  0  0
 21 23  1  0  0  0  0
 19 20  1  0  0  0  0
 17 18  2  0  0  0  0
 17 19  1  0  0  0  0
 14 15  1  0  0  0  0
 14 16  1  0  0  0  0
 14 17  1  0  0  0  0
 11 12  1  0  0  0  0
 11 13  1  0  0  0  0
 11 14  1  0  0  0  0
  9 10  1  0  0  0  0
  9 11  1  0  0  0  0
  9 21  1  0  0  0  0
  7  8  1  0  0  0  0
  7  9  1  0  0  0  0
 25 26  1  0  0  0  0
 25 27  1  0  0  0  0
 25 28  1  0  0  0  0
 23 24  1  0  0  0  0
 23 25  1  0  0  0  0
M  END
$$$$
default_name
  -OEChem-01062215323D

 28 27  0     1  0  0  0  0  0999 V2000
   -3.2133   -3.5565    1.2809 H   0  0  0  0  0  0  0  0  0  0  0  0
   -3.1873   -2.5755    0.8089 C   0  0  0  0  0  0  0  0  0  0  0  0
   -3.8793   -1.9065    1.3169 H   0  0  0  0  0  0  0  0  0  0  0  0
   -3.4623   -2.6685   -0.2401 H   0  0  0  0  0  0  0  0  0  0  0  0
   -1.7863   -2.0195    0.9119 C   0  0  0  0  0  0  0  0  0  0  0  0
   -0.9073   -2.6615    1.4699 O   0  0  0  0  0  0  0  0  0  0  0  0
   -1.5803   -0.8195    0.3749 N   0  0  0  0  0  0  0  0  0  0  0  0
   -2.3603   -0.3345   -0.0451 H   0  0  0  0  0  0  0  0  0  0  0  0
   -0.2933   -0.1205    0.3719 C   0  0  1  0  0  0  0  0  0  0  0  0
   -0.1204    0.2970    1.3648 H   0  0  0  0  0  0  0  0  0  0  0  0
    0.8284   -1.1349    0.0692 C   0  0  0  0  0  0  0  0  0  0  0  0
    0.5770   -1.6515   -0.8586 H   0  0  0  0  0  0  0  0  0  0  0  0
    1.7663   -0.5991   -0.0842 H   0  0  0  0  0  0  0  0  0  0  0  0
    1.0388   -2.1809    1.1776 C   0  0  0  0  0  0  0  0  0  0  0  0
    1.3110   -1.6849    2.1093 H   0  0  0  0  0  0  0  0  0  0  0  0
    0.1132   -2.7358    1.3262 H   0  0  0  0  0  0  0  0  0  0  0  0
    2.1386   -3.1788    0.8296 C   0  0  0  0  0  0  0  0  0  0  0  0
    2.7076   -3.2464   -0.2481 O   0  0  0  0  0  0  0  0  0  0  0  0
    2.4702   -4.0409    1.8086 O   0  0  0  0  0  0  0  0  0  0  0  0
    3.1535   -4.5981    1.4318 H   0  0  0  0  0  0  0  0  0  0  0  0
   -0.3192    1.0405   -0.6350 C   0  0  0  0  0  0  0  0  0  0  0  0
    0.7185    1.3969   -1.1898 O   0  0  0  0  0  0  0  0  0  0  0  0
   -1.4980    1.6335   -0.8592 N   0  0  0  0  0  0  0  0  0  0  0  0
   -2.3109    1.2711   -0.3838 H   0  0  0  0  0  0  0  0  0  0  0  0
   -1.6843    2.7620   -1.7690 C   0  0  0  0  0  0  0  0  0  0  0  0
   -1.3405    2.4911   -2.7688 H   0  0  0  0  0  0  0  0  0  0  0  0
   -2.7378    3.0413   -1.8156 H   0  0  0  0  0  0  0  0  0  0  0  0
   -1.0999    3.6162   -1.4213 H   0  0  0  0  0  0  0  0  0  0  0  0
  5  6  2  0  0  0  0
  5  7  1  0  0  0  0
  2  3  1  0  0  0  0
  2  4  1  0  0  0  0
  2  5  1  0  0  0  0
  1  2  1  0  0  0  0
 21 22  2  0  0  0  0
 21 23  1  0  0  0  0
 19 20  1  0  0  0  0
 17 18  2  0  0  0  0
 17 19  1  0  0  0  0
 14 15  1  0  0  0  0
 14 16  1  0  0  0  0
 14 17  1  0  0  0  0
 11 12  1  0  0  0  0
 11 13  1  0  0  0  0
 11 14  1  0  0  0  0
  9 10  1  0  0  0  0
  9 11  1  0  0  0  0
  9 21  1  0  0  0  0
  7  8  1  0  0  0  0
  7  9  1  0  0  0  0
 25 26  1  0  0  0  0
 25 27  1  0  0  0  0
 25 28  1  0  0  0  0
 23 24  1  0  0  0  0
 23 25  1  0  0  0  0
M  END
$$$$
default_name
  -OEChem-01062215323D

 28 27  0     1  0  0  0  0  0999 V2000
   -3.2133   -3.5565    1.2809 H   0  0  0  0  0  0  0  0  0  0  0  0
   -3.1873   -2.5755    0.8089 C   0  0  0  0  0  0  0  0  0  0  0  0
   -3.8793   -1.9065    1.3169 H   0  0  0  0  0  0  0  0  0  0  0  0
   -3.4623   -2.6685   -0.2401 H   0  0  0  0  0  0  0  0  0  0  0  0
   -1.7863   -2.0195    0.9119 C   0  0  0  0  0  0  0  0  0  0  0  0
   -0.9073   -2.6615    1.4699 O   0  0  0  0  0  0  0  0  0  0  0  0
   -1.5803   -0.8195    0.3749 N   0  0  0  0  0  0  0  0  0  0  0  0
   -2.3603   -0.3345   -0.0451 H   0  0  0  0  0  0  0  0  0  0  0  0
   -0.2933   -0.1205    0.3719 C   0  0  1  0  0  0  0  0  0  0  0  0
   -0.1204    0.2970    1.3648 H   0  0  0  0  0  0  0  0  0  0  0  0
    0.8284   -1.1349    0.0692 C   0  0  0  0  0  0  0  0  0  0  0  0
    0.5770   -1.6515   -0.8586 H   0  0  0  0  0  0  0  0  0  0  0  0
    1.7663   -0.5991   -0.0842 H   0  0  0  0  0  0  0  0  0  0  0  0
    1.0388   -2.1809    1.1776 C   0  0  0  0  0  0  0  0  0  0  0  0
    1.3110   -1.6849    2.1093 H   0  0  0  0  0  0  0  0  0  0  0  0
    0.1132   -2.7358    1.3262 H   0  0  0  0  0  0  0  0  0  0  0  0
    2.1386   -3.1788    0.8296 C   0  0  0  0  0  0  0  0  0  0  0  0
    2.7076   -3.2464   -0.2481 O   0  0  0  0  0  0  0  0  0  0  0  0
    2.4702   -4.0409    1.8086 O   0  0  0  0  0  0  0  0  0  0  0  0
    3.1535   -4.5981    1.4318 H   0  0  0  0  0  0  0  0  0  0  0  0
   -0.3192    1.0405   -0.6350 C   0  0  0  0  0  0  0  0  0  0  0  0
    0.6348    1.2223   -1.3891 O   0  0  0  0  0  0  0  0  0  0  0  0
   -1.4015    1.8280   -0.6374 N   0  0  0  0  0  0  0  0  0  0  0  0
   -2.1549    1.6031   -0.0049 H   0  0  0  0  0  0  0  0  0  0  0  0
   -1.5688    2.9831   -1.5171 C   0  0  0  0  0  0  0  0  0  0  0  0
   -1.4783    2.6701   -2.5588 H   0  0  0  0  0  0  0  0  0  0  0  0
   -2.5483    3.4380   -1.3632 H   0  0  0  0  0  0  0  0  0  0  0  0
   -0.7917    3.7210   -1.3083 H   0  0  0  0  0  0  0  0  0  0  0  0
  5  6  2  0  0  0  0
  5  7  1  0  0  0  0
  2  3  1  0  0  0  0
  2  4  1  0  0  0  0
  2  5  1  0  0  0  0
  1  2  1  0  0  0  0
 21 22  2  0  0  0  0
 21 23  1  0  0  0  0
 19 20  1  0  0  0  0
 17 18  2  0  0  0  0
 17 19  1  0  0  0  0
 14 15  1  0  0  0  0
 14 16  1  0  0  0  0
 14 17  1  0  0  0  0
 11 12  1  0  0  0  0
 11 13  1  0  0  0  0
 11 14  1  0  0  0  0
  9 10  1  0  0  0  0
  9 11  1  0  0  0  0
  9 21  1  0  0  0  0
  7  8  1  0  0  0  0
  7  9  1  0  0  0  0
 25 26  1  0  0  0  0
 25 27  1  0  0  0  0
 25 28  1  0  0  0  0
 23 24  1  0  0  0  0
 23 25  1  0  0  0  0
M  END
$$$$
default_name
  -OEChem-01062215323D

 28 27  0     1  0  0  0  0  0999 V2000
   -3.2133   -3.5565    1.2809 H   0  0  0  0  0  0  0  0  0  0  0  0
   -3.1873   -2.5755    0.8089 C   0  0  0  0  0  0  0  0  0  0  0  0
   -3.8793   -1.9065    1.3169 H   0  0  0  0  0  0  0  0  0  0  0  0
   -3.4623   -2.6685   -0.2401 H   0  0  0  0  0  0  0  0  0  0  0  0
   -1.7863   -2.0195    0.9119 C   0  0  0  0  0  0  0  0  0  0  0  0
   -0.9073   -2.6615    1.4699 O   0  0  0  0  0  0  0  0  0  0  0  0
   -1.5803   -0.8195    0.3749 N   0  0  0  0  0  0  0  0  0  0  0  0
   -2.3603   -0.3345   -0.0451 H   0  0  0  0  0  0  0  0  0  0  0  0
   -0.2933   -0.1205    0.3719 C   0  0  1  0  0  0  0  0  0  0  0  0
   -0.1204    0.2970    1.3648 H   0  0  0  0  0  0  0  0  0  0  0  0
    0.8284   -1.1349    0.0692 C   0  0  0  0  0  0  0  0  0  0  0  0
    0.5770   -1.6515   -0.8586 H   0  0  0  0  0  0  0  0  0  0  0  0
    1.7663   -0.5991   -0.0842 H   0  0  0  0  0  0  0  0  0  0  0  0
    1.0388   -2.1809    1.1776 C   0  0  0  0  0  0  0  0  0  0  0  0
    1.3110   -1.6849    2.1093 H   0  0  0  0  0  0  0  0  0  0  0  0
    0.1132   -2.7358    1.3262 H   0  0  0  0  0  0  0  0  0  0  0  0
    2.1386   -3.1788    0.8296 C   0  0  0  0  0  0  0  0  0  0  0  0
    2.7076   -3.2464   -0.2481 O   0  0  0  0  0  0  0  0  0  0  0  0
    2.4702   -4.0409    1.8086 O   0  0  0  0  0  0  0  0  0  0  0  0
    3.1535   -4.5981    1.4318 H   0  0  0  0  0  0  0  0  0  0  0  0
   -0.3192    1.0405   -0.6350 C   0  0  0  0  0  0  0  0  0  0  0  0
    0.4853    1.0669   -1.5644 O   0  0  0  0  0  0  0  0  0  0  0  0
   -1.2319    2.0005   -0.4429 N   0  0  0  0  0  0  0  0  0  0  0  0
   -1.8738    1.8991    0.3291 H   0  0  0  0  0  0  0  0  0  0  0  0
   -1.3704    3.1781   -1.2973 C   0  0  0  0  0  0  0  0  0  0  0  0
   -1.5401    2.8674   -2.3298 H   0  0  0  0  0  0  0  0  0  0  0  0
   -2.2095    3.7909   -0.9649 H   0  0  0  0  0  0  0  0  0  0  0  0
   -0.4541    3.7705   -1.2599 H   0  0  0  0  0  0  0  0  0  0  0  0
  5  6  2  0  0  0  0
  5  7  1  0  0  0  0
  2  3  1  0  0  0  0
  2  4  1  0  0  0  0
  2  5  1  0  0  0  0
  1  2  1  0  0  0  0
 21 22  2  0  0  0  0
 21 23  1  0  0  0  0
 19 20  1  0  0  0  0
 17 18  2  0  0  0  0
 17 19  1  0  0  0  0
 14 15  1  0  0  0  0
 14 16  1  0  0  0  0
 14 17  1  0  0  0  0
 11 12  1  0  0  0  0
 11 13  1  0  0  0  0
 11 14  1  0  0  0  0
  9 10  1  0  0  0  0
  9 11  1  0  0  0  0
  9 21  1  0  0  0  0
  7  8  1  0  0  0  0
  7  9  1  0  0  0  0
 25 26  1  0  0  0  0
 25 27  1  0  0  0  0
 25 28  1  0  0  0  0
 23 24  1  0  0  0  0
 23 25  1  0  0  0  0
M  END
$$$$
default_name
  -OEChem-01062215323D

 28 27  0     1  0  0  0  0  0999 V2000
   -3.2133   -3.5565    1.2809 H   0  0  0  0  0  0  0  0  0  0  0  0
   -3.1873   -2.5755    0.8089 C   0  0  0  0  0  0  0  0  0  0  0  0
   -3.8793   -1.9065    1.3169 H   0  0  0  0  0  0  0  0  0  0  0  0
   -3.4623   -2.6685   -0.2401 H   0  0  0  0  0  0  0  0  0  0  0  0
   -1.7863   -2.0195    0.9119 C   0  0  0  0  0  0  0  0  0  0  0  0
   -0.9073   -2.6615    1.4699 O   0  0  0  0  0  0  0  0  0  0  0  0
   -1.5803   -0.8195    0.3749 N   0  0  0  0  0  0  0  0  0  0  0  0
   -2.3603   -0.3345   -0.0451 H   0  0  0  0  0  0  0  0  0  0  0  0
   -0.2933   -0.1205    0.3719 C   0  0  1  0  0  0  0  0  0  0  0  0
   -0.1204    0.2970    1.3648 H   0  0  0  0  0  0  0  0  0  0  0  0
    0.8284   -1.1349    0.0692 C   0  0  0  0  0  0  0  0  0  0  0  0
    0.5770   -1.6515   -0.8586 H   0  0  0  0  0  0  0  0  0  0  0  0
    1.7663   -0.5991   -0.0842 H   0  0  0  0  0  0  0  0  0  0  0  0
    1.0388   -2.1809    1.1776 C   0  0  0  0  0  0  0  0  0  0  0  0
    1.3110   -1.6849    2.1093 H   0  0  0  0  0  0  0  0  0  0  0  0
    0.1132   -2.7358    1.3262 H   0  0  0  0  0  0  0  0  0  0  0  0
    2.1386   -3.1788    0.8296 C   0  0  0  0  0  0  0  0  0  0  0  0
    2.7076   -3.2464   -0.2481 O   0  0  0  0  0  0  0  0  0  0  0  0
    2.4702   -4.0409    1.8086 O   0  0  0  0  0  0  0  0  0  0  0  0
    3.1535   -4.5981    1.4318 H   0  0  0  0  0  0  0  0  0  0  0  0
   -0.3192    1.0405   -0.6350 C   0  0  0  0  0  0  0  0  0  0  0  0
    0.2803    0.9413   -1.7039 O   0  0  0  0  0  0  0  0  0  0  0  0
   -1.0008    2.1392   -0.2889 N   0  0  0  0  0  0  0  0  0  0  0  0
   -1.4868    2.1387    0.5954 H   0  0  0  0  0  0  0  0  0  0  0  0
   -1.1029    3.3338   -1.1247 C   0  0  0  0  0  0  0  0  0  0  0  0
   -1.5215    3.0694   -2.0974 H   0  0  0  0  0  0  0  0  0  0  0  0
   -1.7446    4.0761   -0.6480 H   0  0  0  0  0  0  0  0  0  0  0  0
   -0.1102    3.7613   -1.2793 H   0  0  0  0  0  0  0  0  0  0  0  0
  5  6  2  0  0  0  0
  5  7  1  0  0  0  0
  2  3  1  0  0  0  0
  2  4  1  0  0  0  0
  2  5  1  0  0  0  0
  1  2  1  0  0  0  0
 21 22  2  0  0  0  0
 21 23  1  0  0  0  0
 19 20  1  0  0  0  0
 17 18  2  0  0  0  0
 17 19  1  0  0  0  0
 14 15  1  0  0  0  0
 14 16  1  0  0  0  0
 14 17  1  0  0  0  0
 11 12  1  0  0  0  0
 11 13  1  0  0  0  0
 11 14  1  0  0  0  0
  9 10  1  0  0  0  0
  9 11  1  0  0  0  0
  9 21  1  0  0  0  0
  7  8  1  0  0  0  0
  7  9  1  0  0  0  0
 25 26  1  0  0  0  0
 25 27  1  0  0  0  0
 25 28  1  0  0  0  0
 23 24  1  0  0  0  0
 23 25  1  0  0  0  0
M  END
$$$$
default_name
  -OEChem-01062215323D

 28 27  0     1  0  0  0  0  0999 V2000
   -3.2133   -3.5565    1.2809 H   0  0  0  0  0  0  0  0  0  0  0  0
   -3.1873   -2.5755    0.8089 C   0  0  0  0  0  0  0  0  0  0  0  0
   -3.8793   -1.9065    1.3169 H   0  0  0  0  0  0  0  0  0  0  0  0
   -3.4623   -2.6685   -0.2401 H   0  0  0  0  0  0  0  0  0  0  0  0
   -1.7863   -2.0195    0.9119 C   0  0  0  0  0  0  0  0  0  0  0  0
   -0.9073   -2.6615    1.4699 O   0  0  0  0  0  0  0  0  0  0  0  0
   -1.5803   -0.8195    0.3749 N   0  0  0  0  0  0  0  0  0  0  0  0
   -2.3603   -0.3345   -0.0451 H   0  0  0  0  0  0  0  0  0  0  0  0
   -0.2933   -0.1205    0.3719 C   0  0  1  0  0  0  0  0  0  0  0  0
   -0.1204    0.2970    1.3648 H   0  0  0  0  0  0  0  0  0  0  0  0
    0.8284   -1.1349    0.0692 C   0  0  0  0  0  0  0  0  0  0  0  0
    0.5770   -1.6515   -0.8586 H   0  0  0  0  0  0  0  0  0  0  0  0
    1.7663   -0.5991   -0.0842 H   0  0  0  0  0  0  0  0  0  0  0  0
    1.0388   -2.1809    1.1776 C   0  0  0  0  0  0  0  0  0  0  0  0
    1.3110   -1.6849    2.1093 H   0  0  0  0  0  0  0  0  0  0  0  0
    0.1132   -2.7358    1.3262 H   0  0  0  0  0  0  0  0  0  0  0  0
    2.1386   -3.1788    0.8296 C   0  0  0  0  0  0  0  0  0  0  0  0
    2.7076   -3.2464   -0.2481 O   0  0  0  0  0  0  0  0  0  0  0  0
    2.4702   -4.0409    1.8086 O   0  0  0  0  0  0  0  0  0  0  0  0
    3.1535   -4.5981    1.4318 H   0  0  0  0  0  0  0  0  0  0  0  0
   -0.3192    1.0405   -0.6350 C   0  0  0  0  0  0  0  0  0  0  0  0
    0.0338    0.8542   -1.7979 O   0  0  0  0  0  0  0  0  0  0  0  0
   -0.7240    2.2347   -0.1859 N   0  0  0  0  0  0  0  0  0  0  0  0
   -1.0202    2.3057    0.7760 H   0  0  0  0  0  0  0  0  0  0  0  0
   -0.7842    3.4396   -1.0109 C   0  0  0  0  0  0  0  0  0  0  0  0
   -1.4238    3.2624   -1.8774 H   0  0  0  0  0  0  0  0  0  0  0  0
   -1.1852    4.2742   -0.4340 H   0  0  0  0  0  0  0  0  0  0  0  0
    0.2166    3.6941   -1.3653 H   0  0  0  0  0  0  0  0  0  0  0  0
  5  6  2  0  0  0  0
  5  7  1  0  0  0  0
  2  3  1  0  0  0  0
  2  4  1  0  0  0  0
  2  5  1  0  0  0  0
  1  2  1  0  0  0  0
 21 22  2  0  0  0  0
 21 23  1  0  0  0  0
 19 20  1  0  0  0  0
 17 18  2  0  0  0  0
 17 19  1  0  0  0  0
 14 15  1  0  0  0  0
 14 16  1  0  0  0  0
 14 17  1  0  0  0  0
 11 12  1  0  0  0  0
 11 13  1  0  0  0  0
 11 14  1  0  0  0  0
  9 10  1  0  0  0  0
  9 11  1  0  0  0  0
  9 21  1  0  0  0  0
  7  8  1  0  0  0  0
  7  9  1  0  0  0  0
 25 26  1  0  0  0  0
 25 27  1  0  0  0  0
 25 28  1  0  0  0  0
 23 24  1  0  0  0  0
 23 25  1  0  0  0  0
M  END
$$$$
default_name
  -OEChem-01062215323D

 28 27  0     1  0  0  0  0  0999 V2000
   -3.2133   -3.5565    1.2809 H   0  0  0  0  0  0  0  0  0  0  0  0
   -3.1873   -2.5755    0.8089 C   0  0  0  0  0  0  0  0  0  0  0  0
   -3.8793   -1.9065    1.3169 H   0  0  0  0  0  0  0  0  0  0  0  0
   -3.4623   -2.6685   -0.2401 H   0  0  0  0  0  0  0  0  0  0  0  0
   -1.7863   -2.0195    0.9119 C   0  0  0  0  0  0  0  0  0  0  0  0
   -0.9073   -2.6615    1.4699 O   0  0  0  0  0  0  0  0  0  0  0  0
   -1.5803   -0.8195    0.3749 N   0  0  0  0  0  0  0  0  0  0  0  0
   -2.3603   -0.3345   -0.0451 H   0  0  0  0  0  0  0  0  0  0  0  0
   -0.2933   -0.1205    0.3719 C   0  0  1  0  0  0  0  0  0  0  0  0
   -0.1204    0.2970    1.3648 H   0  0  0  0  0  0  0  0  0  0  0  0
    0.8284   -1.1349    0.0692 C   0  0  0  0  0  0  0  0  0  0  0  0
    0.5770   -1.6515   -0.8586 H   0  0  0  0  0  0  0  0  0  0  0  0
    1.7663   -0.5991   -0.0842 H   0  0  0  0  0  0  0  0  0  0  0  0
    1.0388   -2.1809    1.1776 C   0  0  0  0  0  0  0  0  0  0  0  0
    1.3110   -1.6849    2.1093 H   0  0  0  0  0  0  0  0  0  0  0  0
    0.1132   -2.7358    1.3262 H   0  0  0  0  0  0  0  0  0  0  0  0
    2.1386   -3.1788    0.8296 C   0  0  0  0  0  0  0  0  0  0  0  0
    2.7076   -3.2464   -0.2481 O   0  0  0  0  0  0  0  0  0  0  0  0
    2.4702   -4.0409    1.8086 O   0  0  0  0  0  0  0  0  0  0  0  0
    3.1535   -4.5981    1.4318 H   0  0  0  0  0  0  0  0  0  0  0  0
   -0.3192    1.0405   -0.6350 C   0  0  0  0  0  0  0  0  0  0  0  0
   -0.2375    0.8115   -1.8402 O   0  0  0  0  0  0  0  0  0  0  0  0
   -0.4203    2.2804   -0.1410 N   0  0  0  0  0  0  0  0  0  0  0  0
   -0.5060    2.3888    0.8585 H   0  0  0  0  0  0  0  0  0  0  0  0
   -0.4363    3.4882   -0.9637 C   0  0  0  0  0  0  0  0  0  0  0  0
   -1.2538    3.4332   -1.6849 H   0  0  0  0  0  0  0  0  0  0  0  0
   -0.5695    4.3716   -0.3376 H   0  0  0  0  0  0  0  0  0  0  0  0
    0.5041    3.5733   -1.5119 H   0  0  0  0  0  0  0  0  0  0  0  0
  5  6  2  0  0  0  0
  5  7  1  0  0  0  0
  2  3  1  0  0  0  0
  2  4  1  0  0  0  0
  2  5  1  0  0  0  0
  1  2  1  0  0  0  0
 21 22  2  0  0  0  0
 21 23  1  0  0  0  0
 19 20  1  0  0  0  0
 17 18  2  0  0  0  0
 17 19  1  0  0  0  0
 14 15  1  0  0  0  0
 14 16  1  0  0  0  0
 14 17  1  0  0  0  0
 11 12  1  0  0  0  0
 11 13  1  0  0  0  0
 11 14  1  0  0  0  0
  9 10  1  0  0  0  0
  9 11  1  0  0  0  0
  9 21  1  0  0  0  0
  7  8  1  0  0  0  0
  7  9  1  0  0  0  0
 25 26  1  0  0  0  0
 25 27  1  0  0  0  0
 25 28  1  0  0  0  0
 23 24  1  0  0  0  0
 23 25  1  0  0  0  0
M  END
$$$$
default_name
  -OEChem-01062215323D

 28 27  0     1  0  0  0  0  0999 V2000
   -3.2133   -3.5565    1.2809 H   0  0  0  0  0  0  0  0  0  0  0  0
   -3.1873   -2.5755    0.8089 C   0  0  0  0  0  0  0  0  0  0  0  0
   -3.8793   -1.9065    1.3169 H   0  0  0  0  0  0  0  0  0  0  0  0
   -3.4623   -2.6685   -0.2401 H   0  0  0  0  0  0  0  0  0  0  0  0
   -1.7863   -2.0195    0.9119 C   0  0  0  0  0  0  0  0  0  0  0  0
   -0.9073   -2.6615    1.4699 O   0  0  0  0  0  0  0  0  0  0  0  0
   -1.5803   -0.8195    0.3749 N   0  0  0  0  0  0  0  0  0  0  0  0
   -2.3603   -0.3345   -0.0451 H   0  0  0  0  0  0  0  0  0  0  0  0
   -0.2933   -0.1205    0.3719 C   0  0  1  0  0  0  0  0  0  0  0  0
   -0.1204    0.2970    1.3648 H   0  0  0  0  0  0  0  0  0  0  0  0
    0.8284   -1.1349    0.0692 C   0  0  0  0  0  0  0  0  0  0  0  0
    0.5770   -1.6515   -0.8586 H   0  0  0  0  0  0  0  0  0  0  0  0
    1.7663   -0.5991   -0.0842 H   0  0  0  0  0  0  0  0  0  0  0  0
    1.0388   -2.1809    1.1776 C   0  0  0  0  0  0  0  0  0  0  0  0
    1.3110   -1.6849    2.1093 H   0  0  0  0  0  0  0  0  0  0  0  0
    0.1132   -2.7358    1.3262 H   0  0  0  0  0  0  0  0  0  0  0  0
    2.1386   -3.1788    0.8296 C   0  0  0  0  0  0  0  0  0  0  0  0
    2.7076   -3.2464   -0.2481 O   0  0  0  0  0  0  0  0  0  0  0  0
    2.4702   -4.0409    1.8086 O   0  0  0  0  0  0  0  0  0  0  0  0
    3.1535   -4.5981    1.4318 H   0  0  0  0  0  0  0  0  0  0  0  0
   -0.3192    1.0405   -0.6350 C   0  0  0  0  0  0  0  0  0  0  0  0
   -0.5151    0.8161   -1.8279 O   0  0  0  0  0  0  0  0  0  0  0  0
   -0.1104    2.2733   -0.1572 N   0  0  0  0  0  0  0  0  0  0  0  0
    0.0209    2.3821    0.8373 H   0  0  0  0  0  0  0  0  0  0  0  0
   -0.0827    3.4764   -0.9864 C   0  0  0  0  0  0  0  0  0  0  0  0
   -1.0230    3.5702   -1.5328 H   0  0  0  0  0  0  0  0  0  0  0  0
    0.0607    4.3617   -0.3652 H   0  0  0  0  0  0  0  0  0  0  0  0
    0.7326    3.4073   -1.7092 H   0  0  0  0  0  0  0  0  0  0  0  0
  5  6  2  0  0  0  0
  5  7  1  0  0  0  0
  2  3  1  0  0  0  0
  2  4  1  0  0  0  0
  2  5  1  0  0  0  0
  1  2  1  0  0  0  0
 21 22  2  0  0  0  0
 21 23  1  0  0  0  0
 19 20  1  0  0  0  0
 17 18  2  0  0  0  0
 17 19  1  0  0  0  0
 14 15  1  0  0  0  0
 14 16  1  0  0  0  0
 14 17  1  0  0  0  0
 11 12  1  0  0  0  0
 11 13  1  0  0  0  0
 11 14  1  0  0  0  0
  9 10  1  0  0  0  0
  9 11  1  0  0  0  0
  9 21  1  0  0  0  0
  7  8  1  0  0  0  0
  7  9  1  0  0  0  0
 25 26  1  0  0  0  0
 25 27  1  0  0  0  0
 25 28  1  0  0  0  0
 23 24  1  0  0  0  0
 23 25  1  0  0  0  0
M  END
$$$$
default_name
  -OEChem-01062215323D

 28 27  0     1  0  0  0  0  0999 V2000
   -3.2133   -3.5565    1.2809 H   0  0  0  0  0  0  0  0  0  0  0  0
   -3.1873   -2.5755    0.8089 C   0  0  0  0  0  0  0  0  0  0  0  0
   -3.8793   -1.9065    1.3169 H   0  0  0  0  0  0  0  0  0  0  0  0
   -3.4623   -2.6685   -0.2401 H   0  0  0  0  0  0  0  0  0  0  0  0
   -1.7863   -2.0195    0.9119 C   0  0  0  0  0  0  0  0  0  0  0  0
   -0.9073   -2.6615    1.4699 O   0  0  0  0  0  0  0  0  0  0  0  0
   -1.5803   -0.8195    0.3749 N   0  0  0  0  0  0  0  0  0  0  0  0
   -2.3603   -0.3345   -0.0451 H   0  0  0  0  0  0  0  0  0  0  0  0
   -0.2933   -0.1205    0.3719 C   0  0  1  0  0  0  0  0  0  0  0  0
   -0.1204    0.2970    1.3648 H   0  0  0  0  0  0  0  0  0  0  0  0
    0.8284   -1.1349    0.0692 C   0  0  0  0  0  0  0  0  0  0  0  0
    0.5770   -1.6515   -0.8586 H   0  0  0  0  0  0  0  0  0  0  0  0
    1.7663   -0.5991   -0.0842 H   0  0  0  0  0  0  0  0  0  0  0  0
    1.0388   -2.1809    1.1776 C   0  0  0  0  0  0  0  0  0  0  0  0
    1.3110   -1.6849    2.1093 H   0  0  0  0  0  0  0  0  0  0  0  0
    0.1132   -2.7358    1.3262 H   0  0  0  0  0  0  0  0  0  0  0  0
    2.1386   -3.1788    0.8296 C   0  0  0  0  0  0  0  0  0  0  0  0
    2.7076   -3.2464   -0.2481 O   0  0  0  0  0  0  0  0  0  0  0  0
    2.4702   -4.0409    1.8086 O   0  0  0  0  0  0  0  0  0  0  0  0
    3.1535   -4.5981    1.4318 H   0  0  0  0  0  0  0  0  0  0  0  0
   -0.3192    1.0405   -0.6350 C   0  0  0  0  0  0  0  0  0  0  0  0
   -0.7801    0.8676   -1.7617 O   0  0  0  0  0  0  0  0  0  0  0  0
    0.1846    2.2138   -0.2334 N   0  0  0  0  0  0  0  0  0  0  0  0
    0.5246    2.2863    0.7139 H   0  0  0  0  0  0  0  0  0  0  0  0
    0.2524    3.4050   -1.0774 C   0  0  0  0  0  0  0  0  0  0  0  0
   -0.7470    3.6640   -1.4317 H   0  0  0  0  0  0  0  0  0  0  0  0
    0.6623    4.2451   -0.5150 H   0  0  0  0  0  0  0  0  0  0  0  0
    0.8866    3.2073   -1.9438 H   0  0  0  0  0  0  0  0  0  0  0  0
  5  6  2  0  0  0  0
  5  7  1  0  0  0  0
  2  3  1  0  0  0  0
  2  4  1  0  0  0  0
  2  5  1  0  0  0  0
  1  2  1  0  0  0  0
 21 22  2  0  0  0  0
 21 23  1  0  0  0  0
 19 20  1  0  0  0  0
 17 18  2  0  0  0  0
 17 19  1  0  0  0  0
 14 15  1  0  0  0  0
 14 16  1  0  0  0  0
 14 17  1  0  0  0  0
 11 12  1  0  0  0  0
 11 13  1  0  0  0  0
 11 14  1  0  0  0  0
  9 10  1  0  0  0  0
  9 11  1  0  0  0  0
  9 21  1  0  0  0  0
  7  8  1  0  0  0  0
  7  9  1  0  0  0  0
 25 26  1  0  0  0  0
 25 27  1  0  0  0  0
 25 28  1  0  0  0  0
 23 24  1  0  0  0  0
 23 25  1  0  0  0  0
M  END
$$$$
default_name
  -OEChem-01062215323D

 28 27  0     1  0  0  0  0  0999 V2000
   -3.2133   -3.5565    1.2809 H   0  0  0  0  0  0  0  0  0  0  0  0
   -3.1873   -2.5755    0.8089 C   0  0  0  0  0  0  0  0  0  0  0  0
   -3.8793   -1.9065    1.3169 H   0  0  0  0  0  0  0  0  0  0  0  0
   -3.4623   -2.6685   -0.2401 H   0  0  0  0  0  0  0  0  0  0  0  0
   -1.7863   -2.0195    0.9119 C   0  0  0  0  0  0  0  0  0  0  0  0
   -0.9073   -2.6615    1.4699 O   0  0  0  0  0  0  0  0  0  0  0  0
   -1.5803   -0.8195    0.3749 N   0  0  0  0  0  0  0  0  0  0  0  0
   -2.3603   -0.3345   -0.0451 H   0  0  0  0  0  0  0  0  0  0  0  0
   -0.2933   -0.1205    0.3719 C   0  0  1  0  0  0  0  0  0  0  0  0
   -0.1204    0.2970    1.3648 H   0  0  0  0  0  0  0  0  0  0  0  0
    0.8284   -1.1349    0.0692 C   0  0  0  0  0  0  0  0  0  0  0  0
    0.5770   -1.6515   -0.8586 H   0  0  0  0  0  0  0  0  0  0  0  0
    1.7663   -0.5991   -0.0842 H   0  0  0  0  0  0  0  0  0  0  0  0
    1.0388   -2.1809    1.1776 C   0  0  0  0  0  0  0  0  0  0  0  0
    1.3110   -1.6849    2.1093 H   0  0  0  0  0  0  0  0  0  0  0  0
    0.1132   -2.7358    1.3262 H   0  0  0  0  0  0  0  0  0  0  0  0
    2.1386   -3.1788    0.8296 C   0  0  0  0  0  0  0  0  0  0  0  0
    2.7076   -3.2464   -0.2481 O   0  0  0  0  0  0  0  0  0  0  0  0
    2.4702   -4.0409    1.8086 O   0  0  0  0  0  0  0  0  0  0  0  0
    3.1535   -4.5981    1.4318 H   0  0  0  0  0  0  0  0  0  0  0  0
   -0.3192    1.0405   -0.6350 C   0  0  0  0  0  0  0  0  0  0  0  0
   -1.0143    0.9625   -1.6462 O   0  0  0  0  0  0  0  0  0  0  0  0
    0.4445    2.1059   -0.3644 N   0  0  0  0  0  0  0  0  0  0  0  0
    0.9708    2.1077    0.4965 H   0  0  0  0  0  0  0  0  0  0  0  0
    0.5461    3.2788   -1.2305 C   0  0  0  0  0  0  0  0  0  0  0  0
   -0.4448    3.7083   -1.3884 H   0  0  0  0  0  0  0  0  0  0  0  0
    1.1943    4.0299   -0.7769 H   0  0  0  0  0  0  0  0  0  0  0  0
    0.9556    2.9869   -2.1996 H   0  0  0  0  0  0  0  0  0  0  0  0
  5  6  2  0  0  0  0
  5  7  1  0  0  0  0
  2  3  1  0  0  0  0
  2  4  1  0  0  0  0
  2  5  1  0  0  0  0
  1  2  1  0  0  0  0
 21 22  2  0  0  0  0
 21 23  1  0  0  0  0
 19 20  1  0  0  0  0
 17 18  2  0  0  0  0
 17 19  1  0  0  0  0
 14 15  1  0  0  0  0
 14 16  1  0  0  0  0
 14 17  1  0  0  0  0
 11 12  1  0  0  0  0
 11 13  1  0  0  0  0
 11 14  1  0  0  0  0
  9 10  1  0  0  0  0
  9 11  1  0  0  0  0
  9 21  1  0  0  0  0
  7  8  1  0  0  0  0
  7  9  1  0  0  0  0
 25 26  1  0  0  0  0
 25 27  1  0  0  0  0
 25 28  1  0  0  0  0
 23 24  1  0  0  0  0
 23 25  1  0  0  0  0
M  END
$$$$
default_name
  -OEChem-01062215323D

 28 27  0     1  0  0  0  0  0999 V2000
   -3.2133   -3.5565    1.2809 H   0  0  0  0  0  0  0  0  0  0  0  0
   -3.1873   -2.5755    0.8089 C   0  0  0  0  0  0  0  0  0  0  0  0
   -3.8793   -1.9065    1.3169 H   0  0  0  0  0  0  0  0  0  0  0  0
   -3.4623   -2.6685   -0.2401 H   0  0  0  0  0  0  0  0  0  0  0  0
   -1.7863   -2.0195    0.9119 C   0  0  0  0  0  0  0  0  0  0  0  0
   -0.9073   -2.6615    1.4699 O   0  0  0  0  0  0  0  0  0  0  0  0
   -1.5803   -0.8195    0.3749 N   0  0  0  0  0  0  0  0  0  0  0  0
   -2.3603   -0.3345   -0.0451 H   0  0  0  0  0  0  0  0  0  0  0  0
   -0.2933   -0.1205    0.3719 C   0  0  1  0  0  0  0  0  0  0  0  0
   -0.1204    0.2970    1.3648 H   0  0  0  0  0  0  0  0  0  0  0  0
    0.8284   -1.1349    0.0692 C   0  0  0  0  0  0  0  0  0  0  0  0
    0.5770   -1.6515   -0.8586 H   0  0  0  0  0  0  0  0  0  0  0  0
    1.7663   -0.5991   -0.0842 H   0  0  0  0  0  0  0  0  0  0  0  0
    1.0388   -2.1809    1.1776 C   0  0  0  0  0  0  0  0  0  0  0  0
    1.3110   -1.6849    2.1093 H   0  0  0  0  0  0  0  0  0  0  0  0
    0.1132   -2.7358    1.3262 H   0  0  0  0  0  0  0  0  0  0  0  0
    2.1386   -3.1788    0.8296 C   0  0  0  0  0  0  0  0  0  0  0  0
    2.7076   -3.2464   -0.2481 O   0  0  0  0  0  0  0  0  0  0  0  0
    2.4702   -4.0409    1.8086 O   0  0  0  0  0  0  0  0  0  0  0  0
    3.1535   -4.5981    1.4318 H   0  0  0  0  0  0  0  0  0  0  0  0
   -0.3192    1.0405   -0.6350 C   0  0  0  0  0  0  0  0  0  0  0  0
   -1.2019    1.0945   -1.4892 O   0  0  0  0  0  0  0  0  0  0  0  0
    0.6517    1.9572   -0.5413 N   0  0  0  0  0  0  0  0  0  0  0  0
    1.3289    1.8587    0.2002 H   0  0  0  0  0  0  0  0  0  0  0  0
    0.7785    3.1064   -1.4353 C   0  0  0  0  0  0  0  0  0  0  0  0
   -0.1369    3.7000   -1.4059 H   0  0  0  0  0  0  0  0  0  0  0  0
    1.6205    3.7307   -1.1329 H   0  0  0  0  0  0  0  0  0  0  0  0
    0.9349    2.7613   -2.4592 H   0  0  0  0  0  0  0  0  0  0  0  0
  5  6  2  0  0  0  0
  5  7  1  0  0  0  0
  2  3  1  0  0  0  0
  2  4  1  0  0  0  0
  2  5  1  0  0  0  0
  1  2  1  0  0  0  0
 21 22  2  0  0  0  0
 21 23  1  0  0  0  0
 19 20  1  0  0  0  0
 17 18  2  0  0  0  0
 17 19  1  0  0  0  0
 14 15  1  0  0  0  0
 14 16  1  0  0  0  0
 14 17  1  0  0  0  0
 11 12  1  0  0  0  0
 11 13  1  0  0  0  0
 11 14  1  0  0  0  0
  9 10  1  0  0  0  0
  9 11  1  0  0  0  0
  9 21  1  0  0  0  0
  7  8  1  0  0  0  0
  7  9  1  0  0  0  0
 25 26  1  0  0  0  0
 25 27  1  0  0  0  0
 25 28  1  0  0  0  0
 23 24  1  0  0  0  0
 23 25  1  0  0  0  0
M  END
$$$$
